data_PCOD9303784
_publ_section_title
;
Structure prediction by ZEFSAII (Michael W. Deem and Ramdas Pophale) SiO2 
 PCOD9303784
Probable space group: C 2/C
;
_chemical_formula_sum "Si O2"
_cell_formula_units_Z 56
_cell_length_a 13.206262
_cell_length_b 12.064852
_cell_length_c 19.071505
_cell_angle_alpha 90.000000
_cell_angle_beta 64.029933
_cell_angle_gamma 90.000000
_cell_volume 2731.855025
_symmetry_space_group_name_H-M "C 2/C"
_symmetry_group_IT_number 15
_symmetry_cell_setting 'monoclinic'
loop_
_space_group_symop_operation_xyz
x,y,z
-x,y,1/2-z
-x,-y,-z
x,-y,1/2+z
1/2+x,1/2+y,z
1/2-x,1/2+y,1/2-z
1/2-x,1/2-y,-z
1/2+x,1/2-y,1/2+z
loop_
_atom_site_type_symbol
_atom_site_label
_atom_site_fract_x
_atom_site_fract_y
_atom_site_fract_z
Si Si1 0.609820 0.577331 0.751370
Si Si2 0.141381 0.206688 0.494624
Si Si3 0.477604 0.500626 0.923727
Si Si4 0.433783 0.250657 0.888264
Si Si5 0.057220 0.620132 0.476966
Si Si6 0.286296 0.360555 0.826195
Si Si7 0.809879 0.250261 0.179810
O O1 0.500000 0.633761 0.750000
O O2 0.575953 0.541484 0.840904
O O3 0.630926 0.465495 0.700776
O O4 0.721720 0.649473 0.708405
O O5 0.250000 0.250000 0.500000
O O6 0.113345 0.097824 0.548080
O O7 0.173373 0.197282 0.402214
O O8 0.034609 0.291163 0.524632
O O9 0.439765 0.377213 0.915338
O O10 0.500000 0.500000 0.000000
O O11 0.348577 0.261685 0.849466
O O12 0.563486 0.219365 0.833227
O O13 0.401877 0.167960 0.960288
O O14 0.167912 0.613509 0.396801
O O15 0.000000 0.500000 0.500000
O O16 0.265848 0.332961 0.751588
#
# Coordination Sequence:
#
# PCOD9303784 Si02
#       7
#     8   8   8   8   8   8   8
#     4  12  23  41  68  96 130 180 222 279 343 397
#     4  11  24  44  67  98 133 178 223 278 337 407
#     4  12  21  41  69  98 133 174 237 275 326 412
#     4  11  23  43  67 100 131 182 230 273 338 411
#     4  11  25  43  64 100 139 177 219 278 344 397
#     4  12  22  43  66  96 133 175 226 274 331 410
#     4  11  23  39  64 100 133 163 225 286 331 389
#
# _framework density 20.498891
#
# number of rings (size 3 to 8) (size 9 to 14) (size 15 to 20)
#    0.000    0.571    5.714    4.286    2.000    0.000 
#    0.000    0.000    0.000    3.429    0.000    0.000 
#    0.000    0.000    0.000    0.000    0.000    0.000 
#
# Total GULP energy -156280.285716 kJ/mol
# GULP energy per Si atom -5581.438776 kJ/mol
# Density = 2.045223 g / cm^3
# Si number density = 20.498891 Si / 1000 Ang^3
#
#
#
# Elastic Constant Matrix: (Units=GPa)
#
#
# Indices 1 2 3 4 5 6 
#
# 1 96.8537 22.6815 46.3025 0.0000 -9.2064 0.0000
# 2 22.6815 84.8027 38.5126 0.0000 -7.7451 0.0000
# 3 46.3025 38.5126 172.5315 0.0000 -21.3130 0.0000
# 4 0.0000 0.0000 0.0000 25.1528 0.0000 -5.9146
# 5 -9.2064 -7.7451 -21.3130 0.0000 35.9015 0.0000
# 6 0.0000 0.0000 0.0000 -5.9146 0.0000 32.3633
#
#
#
# Elastic Compliance Matrix: (Units=1/GPa)
#
#
# Indices 1 2 3 4 5 6 
#
# 1 0.012172 -0.001929 -0.002700 0.000000 0.001102 0.000000
# 2 -0.001929 0.013474 -0.002366 0.000000 0.001008 0.000000
# 3 -0.002700 -0.002366 0.007446 0.000000 0.003218 0.000000
# 4 0.000000 0.000000 0.000000 0.041542 0.000000 0.007592
# 5 0.001102 0.001008 0.003218 0.000000 0.030264 0.000000
# 6 0.000000 0.000000 0.000000 0.007592 0.000000 0.032287
#
#
# Mechanical properties :
#
#
# Convention : Reuss Voigt Hill
#
# Bulk Modulus (GPa) = 52.34503 63.24236 57.79369
# Shear Modulus (GPa) = 31.73747 35.12960 33.43354
#
# Velocity S-wave (km/s) = 3.93905 4.14422 4.04294
# Velocity P-wave (km/s) = 6.80288 7.33607 7.07450
#
# Compressibility (1/GPa) = 0.01910401
#
# Stress axis : x y z
#
# Youngs Moduli (GPa) = 82.15539 74.21521 134.29727
#
# Poissons Ratio (x) = 0.14314 0.36259
# Poissons Ratio (y) = 0.15846 0.31770
# Poissons Ratio (z) = 0.22181 0.17557
#
# Static dielectric constant tensor:
#      x y z
#    x 1.738090 0.000000 0.067350 
#    y 0.000000 2.117630 0.000000 
#    z 0.067350 0.000000 1.681280 
# 
# From -- ./inp_files/204372.got.cif
#   From: 2010.05.17/outbox.cif.g08.bks.cpg/sg15_103_cif.got.tgz:204372.got - 2010.06.03 18:47:42.
