data_PCOD9303797
_publ_section_title
;
Structure prediction by ZEFSAII (Michael W. Deem and Ramdas Pophale) SiO2 
 PCOD9303797
Probable space group: C 2/C
;
_chemical_formula_sum "Si O2"
_cell_formula_units_Z 64
_cell_length_a 16.439755
_cell_length_b 28.072441
_cell_length_c 12.700060
_cell_angle_alpha 90.000000
_cell_angle_beta 147.667338
_cell_angle_gamma 90.000000
_cell_volume 3134.731807
_symmetry_space_group_name_H-M "C 2/C"
_symmetry_group_IT_number 15
_symmetry_cell_setting 'monoclinic'
loop_
_space_group_symop_operation_xyz
x,y,z
-x,y,1/2-z
-x,-y,-z
x,-y,1/2+z
1/2+x,1/2+y,z
1/2-x,1/2+y,1/2-z
1/2-x,1/2-y,-z
1/2+x,1/2-y,1/2+z
loop_
_atom_site_type_symbol
_atom_site_label
_atom_site_fract_x
_atom_site_fract_y
_atom_site_fract_z
Si Si1 0.993618 0.891417 0.367660
Si Si2 0.239124 0.732446 0.865063
Si Si3 0.245299 0.612145 0.076325
Si Si4 0.360521 0.514594 0.514027
Si Si5 0.653727 0.012642 0.961865
Si Si6 0.959841 0.183778 0.403556
Si Si7 0.069409 0.636323 0.670602
Si Si8 0.268852 0.940638 0.291102
O O1 0.012094 0.844168 0.457265
O O2 0.000000 0.881494 0.250000
O O3 0.840333 0.915867 0.243182
O O4 0.113267 0.934968 0.514665
O O5 0.176198 0.778392 0.736048
O O6 0.112600 0.691603 0.707909
O O7 0.250000 0.750000 0.000000
O O8 0.395627 0.710108 0.991337
O O9 0.396333 0.642059 0.258728
O O10 0.266429 0.555868 0.109561
O O11 0.173233 0.622545 0.884428
O O12 0.108777 0.628304 0.004531
O O13 0.500000 0.508538 0.750000
O O14 0.216516 0.517054 0.432997
O O15 0.330985 0.470418 0.403470
O O16 0.500000 0.035350 0.750000
O O17 0.634458 0.980245 0.041824
O O18 0.129671 0.600382 0.648533
#
# Coordination Sequence:
#
# PCOD9303797 Si02
#       8
#     8   8   8   8   8   8   8   8
#     4  11  24  45  66  99 132 178 236 286 321 402
#     4  12  25  42  68 107 131 168 220 281 353 423
#     4  11  23  42  62 103 139 182 218 273 336 413
#     4  11  23  39  66  99 140 180 234 283 331 409
#     4  12  24  41  63 100 142 186 236 280 329 391
#     4  12  26  43  75  96 137 178 218 279 362 406
#     4  11  23  42  65  96 146 173 222 275 335 420
#     4  12  23  41  68  98 139 187 232 279 344 395
#
# _framework density 20.416419999999999
#
# number of rings (size 3 to 8) (size 9 to 14) (size 15 to 20)
#    0.000    0.500    7.500    2.250    3.500    3.000 
#    0.000    0.625    0.000    0.000    0.000    0.000 
#    0.000    0.000    0.000    0.000    0.000    0.000 
#
# Total GULP energy -178710.949834 kJ/mol
# GULP energy per Si atom -5584.717182 kJ/mol
# Density = 2.036995 g / cm^3
# Si number density = 20.416420 Si / 1000 Ang^3
#
#
#
# Elastic Constant Matrix: (Units=GPa)
#
#
# Indices 1 2 3 4 5 6 
#
# 1 99.9910 43.6034 26.3716 0.0000 -5.8153 0.0000
# 2 43.6034 140.8717 30.2731 0.0000 -10.1612 0.0000
# 3 26.3716 30.2731 63.9665 0.0000 -12.3590 0.0000
# 4 0.0000 0.0000 0.0000 20.5678 0.0000 4.1455
# 5 -5.8153 -10.1612 -12.3590 0.0000 25.2862 0.0000
# 6 0.0000 0.0000 0.0000 4.1455 0.0000 42.4072
#
#
#
# Elastic Compliance Matrix: (Units=1/GPa)
#
#
# Indices 1 2 3 4 5 6 
#
# 1 0.012276 -0.003025 -0.003665 0.000000 -0.000184 0.000000
# 2 -0.003025 0.008699 -0.002571 0.000000 0.001543 0.000000
# 3 -0.003665 -0.002571 0.019875 0.000000 0.007838 0.000000
# 4 0.000000 0.000000 0.000000 0.049597 0.000000 -0.004848
# 5 -0.000184 0.001543 0.007838 0.000000 0.043956 0.000000
# 6 0.000000 0.000000 0.000000 -0.004848 0.000000 0.024055
#
#
# Mechanical properties :
#
#
# Convention : Reuss Voigt Hill
#
# Bulk Modulus (GPa) = 44.78843 56.14723 50.46783
# Shear Modulus (GPa) = 27.11139 31.29097 29.20118
#
# Velocity S-wave (km/s) = 3.64802 3.91914 3.78601
# Velocity P-wave (km/s) = 6.30310 6.93111 6.62455
#
# Compressibility (1/GPa) = 0.02232719
#
# Stress axis : x y z
#
# Youngs Moduli (GPa) = 81.45921 114.95536 50.31321
#
# Poissons Ratio (x) = 0.34779 0.18439
# Poissons Ratio (y) = 0.24645 0.12938
# Poissons Ratio (z) = 0.29853 0.29561
#
# Static dielectric constant tensor:
#      x y z
#    x 1.761140 0.000000 0.017110 
#    y 0.000000 1.773470 0.000000 
#    z 0.017110 0.000000 1.764620 
# 
# From -- ./inp_files/101369.got.cif
#   From: 2010.05.17/outbox.cif.g08.bks.cpg/sg15_51_cif.got.tgz:101369.got - 2010.06.03 18:47:42.
