data_PCOD9303120
_publ_section_title
;
Structure prediction by ZEFSAII (Michael W. Deem and Ramdas Pophale) SiO2 
 PCOD9303120
Probable space group: C 2/C
;
_chemical_formula_sum "Si O2"
_cell_formula_units_Z 52
_cell_length_a 6.624120
_cell_length_b 25.948433
_cell_length_c 22.948905
_cell_angle_alpha 90.000000
_cell_angle_beta 39.080211
_cell_angle_gamma 90.000000
_cell_volume 2486.696769
_symmetry_space_group_name_H-M "C 2/C"
_symmetry_group_IT_number 15
_symmetry_cell_setting 'monoclinic'
loop_
_space_group_symop_operation_xyz
x,y,z
-x,y,1/2-z
-x,-y,-z
x,-y,1/2+z
1/2+x,1/2+y,z
1/2-x,1/2+y,1/2-z
1/2-x,1/2-y,-z
1/2+x,1/2-y,1/2+z
loop_
_atom_site_type_symbol
_atom_site_label
_atom_site_fract_x
_atom_site_fract_y
_atom_site_fract_z
Si Si1 0.118902 0.582178 0.842019
Si Si2 0.000000 0.760957 0.250000
Si Si3 0.322629 0.113535 0.140656
Si Si4 0.818719 0.448631 0.524194
Si Si5 0.608569 0.973097 0.658571
Si Si6 0.116223 0.725675 0.349779
Si Si7 0.616358 0.180515 0.658454
O O1 0.500000 0.593863 0.750000
O O2 0.043416 0.526679 0.829862
O O3 0.868981 0.624220 0.872657
O O4 0.035359 0.579488 0.928382
O O5 0.958803 0.731447 0.320983
O O6 0.322881 0.793275 0.188837
O O7 0.260173 0.088298 0.092181
O O8 0.511518 0.072593 0.137062
O O9 0.470260 0.170751 0.103578
O O10 0.000000 0.119373 0.250000
O O11 0.488861 0.469999 0.572685
O O12 0.000000 0.500000 0.500000
O O13 0.500000 0.964885 0.750000
O O14 0.500000 0.724522 0.250000
O O15 0.105029 0.776597 0.393745
O O16 0.500000 0.169234 0.750000
#
# Coordination Sequence:
#
# PCOD9303120 Si02
#       7
#     8   4   8   8   8   8   8
#     4  12  24  42  67  97 132 177 218 269 330 395
#     4   8  14  32  56  90 120 160 208 260 314 370
#     4  11  22  42  65  98 131 167 221 265 327 393
#     4  12  26  44  63  95 138 172 218 273 330 396
#     4  12  24  41  68  96 128 173 217 274 334 391
#     4   8  18  32  61  94 124 162 214 267 315 385
#     4   9  18  36  59  93 125 163 219 261 317 387
#
# _framework density 20.911275
#
# number of rings (size 3 to 8) (size 9 to 14) (size 15 to 20)
#    0.000    1.846    3.846    2.308    1.077    1.231 
#    0.000    0.769    0.000    1.846    0.000    0.000 
#    0.000    0.000    0.000    0.000    0.000    0.000 
#
# Total GULP energy -144933.780660 kJ/mol
# GULP energy per Si atom -5574.376179 kJ/mol
# Density = 2.086368 g / cm^3
# Si number density = 20.911275 Si / 1000 Ang^3
#
#
#
# Elastic Constant Matrix: (Units=GPa)
#
#
# Indices 1 2 3 4 5 6 
#
# 1 107.4675 44.5996 24.1275 0.0000 12.6529 0.0000
# 2 44.5996 151.9681 25.2550 0.0000 14.2564 0.0000
# 3 24.1275 25.2550 74.1448 0.0000 14.2480 0.0000
# 4 0.0000 0.0000 0.0000 23.4523 0.0000 26.8238
# 5 12.6529 14.2564 14.2480 0.0000 33.1127 0.0000
# 6 0.0000 0.0000 0.0000 26.8238 0.0000 41.1163
#
#
#
# Elastic Compliance Matrix: (Units=1/GPa)
#
#
# Indices 1 2 3 4 5 6 
#
# 1 0.011196 -0.002702 -0.002316 0.000000 -0.002118 0.000000
# 2 -0.002702 0.007772 -0.001443 0.000000 -0.001693 0.000000
# 3 -0.002316 -0.001443 0.015745 0.000000 -0.005269 0.000000
# 4 0.000000 0.000000 0.000000 0.167988 0.000000 -0.109593
# 5 -0.002118 -0.001693 -0.005269 0.000000 0.034005 0.000000
# 6 0.000000 0.000000 0.000000 -0.109593 0.000000 0.095819
#
#
# Mechanical properties :
#
#
# Convention : Reuss Voigt Hill
#
# Bulk Modulus (GPa) = 45.89025 57.94940 51.91982
# Shear Modulus (GPa) = 14.17598 35.50950 24.84274
#
# Velocity S-wave (km/s) = 2.60650 4.12528 3.45049
# Velocity P-wave (km/s) = 5.57237 7.10371 6.38412
#
# Compressibility (1/GPa) = 0.02179112
#
# Stress axis : x y z
#
# Youngs Moduli (GPa) = 89.31861 128.66832 63.51410
#
# Poissons Ratio (x) = 0.34769 0.14709
# Poissons Ratio (y) = 0.24136 0.09163
# Poissons Ratio (z) = 0.20684 0.18562
#
# Static dielectric constant tensor:
#      x y z
#    x 1.739300 0.000000 0.017920 
#    y 0.000000 2.235630 0.000000 
#    z 0.017920 0.000000 1.789940 
# 
# From -- ./inp_files/186306.got.cif
#   From: 2010.05.17/outbox.cif.g08.bks.cpg/sg15_94_cif.got.tgz:186306.got - 2010.06.03 18:47:42.
