data_PCOD9303488
_publ_section_title
;
Structure prediction by ZEFSAII (Michael W. Deem and Ramdas Pophale) SiO2 
 PCOD9303488
Probable space group: C 2/C
;
_chemical_formula_sum "Si O2"
_cell_formula_units_Z 40
_cell_length_a 22.066715
_cell_length_b 9.006895
_cell_length_c 11.197293
_cell_angle_alpha 90.000000
_cell_angle_beta 135.507603
_cell_angle_gamma 90.000000
_cell_volume 1559.656561
_symmetry_space_group_name_H-M "C 2/C"
_symmetry_group_IT_number 15
_symmetry_cell_setting 'monoclinic'
loop_
_space_group_symop_operation_xyz
x,y,z
-x,y,1/2-z
-x,-y,-z
x,-y,1/2+z
1/2+x,1/2+y,z
1/2-x,1/2+y,1/2-z
1/2-x,1/2-y,-z
1/2+x,1/2-y,1/2+z
loop_
_atom_site_type_symbol
_atom_site_label
_atom_site_fract_x
_atom_site_fract_y
_atom_site_fract_z
Si Si1 0.798463 0.843659 0.433668
Si Si2 0.874364 0.764211 0.797390
Si Si3 0.189700 0.387489 0.891948
Si Si4 0.574211 0.029142 0.437811
Si Si5 0.940196 0.777286 0.462794
O O1 0.847482 0.781634 0.620425
O O2 0.723201 0.728120 0.284894
O O3 0.953549 0.637302 0.570835
O O4 0.868593 0.875651 0.430400
O O5 0.908725 0.617319 0.916100
O O6 0.966595 0.848531 0.933144
O O7 0.157210 0.458867 0.969779
O O8 0.109732 0.308240 0.712570
O O9 0.250000 0.250000 0.000000
O O10 0.244858 0.511655 0.899393
O O11 0.500000 0.096996 0.250000
#
# Coordination Sequence:
#
# PCOD9303488 Si02
#       5
#     8   8   8   8   8
#     4  11  24  45  72 105 146 189 248 297 371 435
#     4  11  22  44  74 107 141 192 239 295 367 432
#     4  12  27  45  68 103 142 192 246 306 365 436
#     4  12  22  41  72 105 141 184 252 300 349 433
#     4  12  24  44  74 105 147 195 240 304 365 439
#
# _framework density 25.646673
#
# number of rings (size 3 to 8) (size 9 to 14) (size 15 to 20)
#    0.000    0.400    4.000    7.200    0.000    0.000 
#    0.000    3.000    0.000    0.000    0.000    0.000 
#    0.000    0.000    0.000    0.000    0.000    0.000 
#
# Total GULP energy -111534.520587 kJ/mol
# GULP energy per Si atom -5576.726029 kJ/mol
# Density = 2.558830 g / cm^3
# Si number density = 25.646673 Si / 1000 Ang^3
#
#
#
# Elastic Constant Matrix: (Units=GPa)
#
#
# Indices 1 2 3 4 5 6 
#
# 1 156.8864 44.3104 27.0641 0.0000 41.0511 0.0000
# 2 44.3104 73.7578 51.3825 0.0000 8.3249 0.0000
# 3 27.0641 51.3825 184.2811 0.0000 31.1020 0.0000
# 4 0.0000 0.0000 0.0000 18.4425 0.0000 2.6876
# 5 41.0511 8.3249 31.1020 0.0000 48.4134 0.0000
# 6 0.0000 0.0000 0.0000 2.6876 0.0000 33.6212
#
#
#
# Elastic Compliance Matrix: (Units=1/GPa)
#
#
# Indices 1 2 3 4 5 6 
#
# 1 0.010104 -0.006301 0.001723 0.000000 -0.008591 0.000000
# 2 -0.006301 0.020756 -0.005789 0.000000 0.005493 0.000000
# 3 0.001723 -0.005789 0.007701 0.000000 -0.005413 0.000000
# 4 0.000000 0.000000 0.000000 0.054862 0.000000 -0.004386
# 5 -0.008591 0.005493 -0.005413 0.000000 0.030473 0.000000
# 6 0.000000 0.000000 0.000000 -0.004386 0.000000 0.030094
#
#
# Mechanical properties :
#
#
# Convention : Reuss Voigt Hill
#
# Bulk Modulus (GPa) = 56.09259 73.38215 64.73737
# Shear Modulus (GPa) = 27.67535 39.57331 33.62433
#
# Velocity S-wave (km/s) = 3.28853 3.93239 3.62478
# Velocity P-wave (km/s) = 6.02810 7.02091 6.54336
#
# Compressibility (1/GPa) = 0.01782767
#
# Stress axis : x y z
#
# Youngs Moduli (GPa) = 98.96705 48.17877 129.85093
#
# Poissons Ratio (x) = 0.30356 -0.22371
# Poissons Ratio (y) = 0.62357 0.75170
# Poissons Ratio (z) = -0.17050 0.27891
#
# Static dielectric constant tensor:
#      x y z
#    x 2.064390 0.000000 0.056330 
#    y 0.000000 2.068080 0.000000 
#    z 0.056330 0.000000 2.081540 
# 
# From -- ./inp_files/113325.got.cif
#   From: 2010.05.17/outbox.cif.g08.bks.cpg/sg15_57_cif.got.tgz:113325.got - 2010.06.03 18:47:42.
