data_PCOD9303142
_publ_section_title
;
Structure prediction by ZEFSAII (Michael W. Deem and Ramdas Pophale) SiO2 
 PCOD9303142
Probable space group: C 2/C
;
_chemical_formula_sum "Si O2"
_cell_formula_units_Z 48
_cell_length_a 10.816521
_cell_length_b 17.521408
_cell_length_c 12.365138
_cell_angle_alpha 90.000000
_cell_angle_beta 67.592421
_cell_angle_gamma 90.000000
_cell_volume 2166.508639
_symmetry_space_group_name_H-M "C 2/C"
_symmetry_group_IT_number 15
_symmetry_cell_setting 'monoclinic'
loop_
_space_group_symop_operation_xyz
x,y,z
-x,y,1/2-z
-x,-y,-z
x,-y,1/2+z
1/2+x,1/2+y,z
1/2-x,1/2+y,1/2-z
1/2-x,1/2-y,-z
1/2+x,1/2-y,1/2+z
loop_
_atom_site_type_symbol
_atom_site_label
_atom_site_fract_x
_atom_site_fract_y
_atom_site_fract_z
Si Si1 0.357625 0.153844 0.322285
Si Si2 0.357190 0.586914 0.256638
Si Si3 0.841277 0.558355 0.992237
Si Si4 0.120587 0.384838 0.441208
Si Si5 0.369903 0.678203 0.728489
Si Si6 0.881204 0.044948 0.600653
O O1 0.500000 0.111209 0.250000
O O2 0.220372 0.118358 0.323095
O O3 0.359891 0.160557 0.451576
O O4 0.366399 0.231672 0.249653
O O5 0.500000 0.616813 0.250000
O O6 0.257769 0.596811 0.389091
O O7 0.375227 0.498341 0.217099
O O8 0.761042 0.540437 0.910528
O O9 0.971472 0.611526 0.941795
O O10 0.863833 0.473790 0.032830
O O11 0.231847 0.354192 0.322684
O O12 0.500000 0.652381 0.750000
O O13 0.398595 0.636057 0.606086
O O14 0.000000 0.000000 0.500000
#
# Coordination Sequence:
#
# PCOD9303142 Si02
#       6
#     8   8   8   8   8   8
#     4  11  24  44  68  95 139 181 221 273 349 415
#     4  12  23  41  67  98 135 174 230 282 336 408
#     4  11  23  38  67 102 128 171 223 291 339 397
#     4  11  22  42  67  98 136 170 226 281 343 404
#     4  11  25  43  67  97 131 179 232 276 335 419
#     4  12  23  41  69  98 133 177 230 289 335 394
#
# _framework density 22.155462
#
# number of rings (size 3 to 8) (size 9 to 14) (size 15 to 20)
#    0.000    0.667    6.667    2.000    0.000    0.667 
#    3.000    0.833    0.000    0.000    0.000    0.000 
#    0.000    0.000    0.000    0.000    0.000    0.000 
#
# Total GULP energy -133751.317231 kJ/mol
# GULP energy per Si atom -5572.971551 kJ/mol
# Density = 2.210504 g / cm^3
# Si number density = 22.155462 Si / 1000 Ang^3
#
#
#
# Elastic Constant Matrix: (Units=GPa)
#
#
# Indices 1 2 3 4 5 6 
#
# 1 182.8168 30.9016 28.2791 0.0000 0.3939 0.0000
# 2 30.9016 65.3335 5.7519 0.0000 -2.3219 0.0000
# 3 28.2791 5.7519 50.0887 0.0000 -7.4098 0.0000
# 4 0.0000 0.0000 0.0000 27.5645 0.0000 -1.1064
# 5 0.3939 -2.3219 -7.4098 0.0000 31.3133 0.0000
# 6 0.0000 0.0000 0.0000 -1.1064 0.0000 28.0671
#
#
#
# Elastic Compliance Matrix: (Units=1/GPa)
#
#
# Indices 1 2 3 4 5 6 
#
# 1 0.006488 -0.002800 -0.003507 0.000000 -0.001119 0.000000
# 2 -0.002800 0.016688 -0.000153 0.000000 0.001236 0.000000
# 3 -0.003507 -0.000153 0.022764 0.000000 0.005420 0.000000
# 4 0.000000 0.000000 0.000000 0.036336 0.000000 0.001432
# 5 -0.001119 0.001236 0.005420 0.000000 0.033324 0.000000
# 6 0.000000 0.000000 0.000000 0.001432 0.000000 0.035685
#
#
# Mechanical properties :
#
#
# Convention : Reuss Voigt Hill
#
# Bulk Modulus (GPa) = 30.28419 47.56712 38.92565
# Shear Modulus (GPa) = 28.53706 32.94272 30.73989
#
# Velocity S-wave (km/s) = 3.59282 3.86020 3.72891
# Velocity P-wave (km/s) = 5.55965 6.43308 6.01225
#
# Compressibility (1/GPa) = 0.03302053
#
# Stress axis : x y z
#
# Youngs Moduli (GPa) = 154.12804 59.92431 43.92921
#
# Poissons Ratio (x) = 0.16777 0.15406
# Poissons Ratio (y) = 0.43152 0.00671
# Poissons Ratio (z) = 0.54054 0.00915
#
# Static dielectric constant tensor:
#      x y z
#    x 1.984670 0.000000 -0.002780 
#    y 0.000000 1.869880 0.000000 
#    z -0.002780 0.000000 1.877290 
# 
# From -- ./inp_files/87253.got.cif
#   From: 2010.05.17/outbox.cif.g08.bks.cpg/sg15_44_cif.got.tgz:87253.got - 2010.06.03 18:47:42.
