data_PCOD9303955
_publ_section_title
;
Structure prediction by ZEFSAII (Michael W. Deem and Ramdas Pophale) SiO2 
 PCOD9303955
Probable space group: C 2/C
;
_chemical_formula_sum "Si O2"
_cell_formula_units_Z 48
_cell_length_a 17.440072
_cell_length_b 9.282331
_cell_length_c 26.556321
_cell_angle_alpha 90.000000
_cell_angle_beta 34.582406
_cell_angle_gamma 90.000000
_cell_volume 2440.106041
_symmetry_space_group_name_H-M "C 2/C"
_symmetry_group_IT_number 15
_symmetry_cell_setting 'monoclinic'
loop_
_space_group_symop_operation_xyz
x,y,z
-x,y,1/2-z
-x,-y,-z
x,-y,1/2+z
1/2+x,1/2+y,z
1/2-x,1/2+y,1/2-z
1/2-x,1/2-y,-z
1/2+x,1/2-y,1/2+z
loop_
_atom_site_type_symbol
_atom_site_label
_atom_site_fract_x
_atom_site_fract_y
_atom_site_fract_z
Si Si1 0.058171 0.413955 0.856048
Si Si2 0.683429 0.582146 0.213119
Si Si3 0.061357 0.895583 0.110712
Si Si4 0.626538 0.433596 0.961115
Si Si5 0.881536 0.590548 0.775236
Si Si6 0.193464 0.393655 0.442765
O O1 0.200283 0.403220 0.807754
O O2 0.077630 0.523493 0.800133
O O3 0.009559 0.258513 0.861505
O O4 0.938731 0.458968 0.958803
O O5 0.551059 0.500076 0.304920
O O6 0.645847 0.740971 0.215627
O O7 0.746710 0.491786 0.133211
O O8 0.188636 0.874541 0.079063
O O9 0.109702 0.955485 0.030347
O O10 0.753093 0.510880 0.867818
O O11 0.647669 0.261230 0.945548
O O12 0.500000 0.500000 0.000000
O O13 0.000000 0.564825 0.750000
#
# Coordination Sequence:
#
# PCOD9303955 Si02
#       6
#     8   8   8   8   8   8
#     4  11  23  42  65  90 121 164 210 256 306 366
#     4  12  25  41  62  94 129 164 204 255 313 371
#     4  11  23  43  65  90 123 169 213 251 306 381
#     4  11  23  41  66  95 123 160 210 261 307 365
#     4  12  24  40  62  94 127 161 204 260 313 362
#     4  11  23  43  66  91 124 168 210 253 310 377
#
# _framework density 19.671275999999999
#
# number of rings (size 3 to 8) (size 9 to 14) (size 15 to 20)
#    0.000    0.667    0.000   11.000    0.000    2.667 
#    0.000    3.333    0.000    0.000    0.000    0.000 
#    0.000    0.000    0.000    0.000    0.000    0.000 
#
# Total GULP energy -134311.085796 kJ/mol
# GULP energy per Si atom -5596.295241 kJ/mol
# Density = 1.962650 g / cm^3
# Si number density = 19.671276 Si / 1000 Ang^3
#
#
#
# Elastic Constant Matrix: (Units=GPa)
#
#
# Indices 1 2 3 4 5 6 
#
# 1 108.6051 35.9201 61.5917 0.0000 -43.8845 -0.0002
# 2 35.9201 99.9676 100.6399 0.0001 9.5329 0.0000
# 3 61.5917 100.6399 201.8056 0.0000 -9.1331 -0.0002
# 4 0.0000 0.0001 0.0000 0.0742 0.0000 -18.6325
# 5 -43.8845 9.5329 -9.1331 0.0000 53.9943 0.0000
# 6 -0.0002 0.0000 -0.0002 -18.6325 0.0000 67.3325
#
#
#
# Elastic Compliance Matrix: (Units=1/GPa)
#
#
# Indices 1 2 3 4 5 6 
#
# 1 0.018967 -0.006591 -0.001765 0.000000 0.016281 0.000000
# 2 -0.006591 0.023994 -0.010468 0.000001 -0.011364 0.000000
# 3 -0.001765 -0.010468 0.010816 0.000000 0.002243 0.000000
# 4 0.000000 0.000001 0.000000 -0.196779 -0.000001 -0.054453
# 5 0.016281 -0.011364 0.002243 -0.000001 0.034139 0.000000
# 6 0.000000 0.000000 0.000000 -0.054453 0.000000 -0.000217
#
#
# Mechanical properties :
#
#
# Convention : Reuss Voigt Hill
#
# Bulk Modulus (GPa) = 62.00225 89.63132 75.81678
# Shear Modulus (GPa) = -75.69492 38.42864 -18.63314
#
# Velocity S-wave (km/s) = -6.20995 4.42468 -3.08104
# Velocity P-wave (km/s) = 4.45313 8.47155 5.09592
#
# Compressibility (1/GPa) = 0.01612845
#
# Stress axis : x y z
#
# Youngs Moduli (GPa) = 52.72246 41.67727 92.45420
#
# Poissons Ratio (x) = 0.27468 0.16321
# Poissons Ratio (y) = 0.34747 0.96786
# Poissons Ratio (z) = 0.09307 0.43630
#
# Static dielectric constant tensor:
#      x y z
#    x 1.609490 0.000000 0.012870 
#    y 0.000000 1.655100 0.000000 
#    z 0.012870 0.000000 1.652050 
# 
# From -- ./inp_files/315612.got.cif
#   From: 2010.05.17/outbox.cif.g08.bks.cpg/sg15_158_cif.got.tgz:315612.got - 2010.06.03 18:47:42.
