data_PCOD9303210
_publ_section_title
;
Structure prediction by ZEFSAII (Michael W. Deem and Ramdas Pophale) SiO2 
 PCOD9303210
Probable space group: C 2/C
;
_chemical_formula_sum "Si O2"
_cell_formula_units_Z 52
_cell_length_a 17.387512
_cell_length_b 15.790781
_cell_length_c 16.346179
_cell_angle_alpha 90.000000
_cell_angle_beta 30.577839
_cell_angle_gamma 90.000000
_cell_volume 2283.106980
_symmetry_space_group_name_H-M "C 2/C"
_symmetry_group_IT_number 15
_symmetry_cell_setting 'monoclinic'
loop_
_space_group_symop_operation_xyz
x,y,z
-x,y,1/2-z
-x,-y,-z
x,-y,1/2+z
1/2+x,1/2+y,z
1/2-x,1/2+y,1/2-z
1/2-x,1/2-y,-z
1/2+x,1/2-y,1/2+z
loop_
_atom_site_type_symbol
_atom_site_label
_atom_site_fract_x
_atom_site_fract_y
_atom_site_fract_z
Si Si1 0.594450 0.471818 0.834793
Si Si2 0.879087 0.574317 0.614173
Si Si3 0.000000 0.033877 0.750000
Si Si4 0.241759 0.796562 0.672041
Si Si5 0.312848 0.323722 0.500296
Si Si6 0.931678 0.719087 0.146936
Si Si7 0.461609 0.849444 0.196126
O O1 0.731132 0.538551 0.708563
O O2 0.522616 0.479130 0.810859
O O3 0.653279 0.376130 0.790770
O O4 0.500000 0.500000 0.000000
O O5 0.864216 0.593063 0.724314
O O6 0.000000 0.500000 0.500000
O O7 0.950685 0.654417 0.502436
O O8 0.860403 0.095467 0.903413
O O9 0.324564 0.748263 0.671401
O O10 0.377656 0.832929 0.493738
O O11 0.131525 0.738231 0.720223
O O12 0.250000 0.250000 0.500000
O O13 0.179636 0.330877 0.689313
O O14 0.467702 0.290083 0.401081
O O15 0.500000 0.882711 0.250000
#
# Coordination Sequence:
#
# PCOD9303210 Si02
#       7
#     8   8   4   8   8   8   8
#     4  12  28  49  71 103 148 189 237 294 363 420
#     4  11  24  48  69 103 141 182 237 290 355 429
#     4  12  28  42  76 106 146 188 240 298 360 428
#     4  11  25  46  69 104 135 189 237 287 347 429
#     4  12  23  43  66 110 141 182 234 292 355 432
#     4  11  22  42  71  97 146 185 231 286 358 426
#     4  11  25  44  74 102 139 183 240 293 351 413
#
# _framework density 22.775981000000002
#
# number of rings (size 3 to 8) (size 9 to 14) (size 15 to 20)
#    0.000    0.615    4.615    4.154    5.385    1.231 
#    0.000    0.000    0.000    0.000    0.000    0.000 
#    0.000    0.000    0.000    0.000    0.000    0.000 
#
# Total GULP energy -145483.210492 kJ/mol
# GULP energy per Si atom -5595.508096 kJ/mol
# Density = 2.272414 g / cm^3
# Si number density = 22.775981 Si / 1000 Ang^3
#
#
#
# Elastic Constant Matrix: (Units=GPa)
#
#
# Indices 1 2 3 4 5 6 
#
# 1 133.3076 20.5553 14.7438 0.0004 16.5211 0.0002
# 2 20.5553 36.0647 -20.3615 0.0008 -8.3148 -0.0001
# 3 14.7438 -20.3615 72.8891 0.0024 2.4945 -0.0005
# 4 0.0004 0.0008 0.0024 9.6405 -0.0002 1.6591
# 5 16.5211 -8.3148 2.4945 -0.0002 34.2635 -0.0003
# 6 0.0002 -0.0001 -0.0005 1.6591 -0.0003 34.9819
#
#
#
# Elastic Compliance Matrix: (Units=1/GPa)
#
#
# Indices 1 2 3 4 5 6 
#
# 1 0.010526 -0.010366 -0.004777 0.000002 -0.007243 0.000000
# 2 -0.010366 0.045078 0.014179 -0.000007 0.014905 0.000001
# 3 -0.004777 0.014179 0.018496 -0.000006 0.004398 0.000001
# 4 0.000002 -0.000007 -0.000006 0.104583 -0.000001 -0.004960
# 5 -0.007243 0.014905 0.004398 -0.000001 0.035975 0.000001
# 6 0.000000 0.000001 0.000001 -0.004960 0.000001 0.028821
#
#
# Mechanical properties :
#
#
# Convention : Reuss Voigt Hill
#
# Bulk Modulus (GPa) = 13.85576 30.23740 22.04658
# Shear Modulus (GPa) = 18.55525 30.93207 24.74366
#
# Velocity S-wave (km/s) = 2.85737 3.68924 3.29962
# Velocity P-wave (km/s) = 4.12101 5.60822 4.92112
#
# Compressibility (1/GPa) = 0.07217213
#
# Stress axis : x y z
#
# Youngs Moduli (GPa) = 95.00389 22.18369 54.06506
#
# Poissons Ratio (x) = 0.22996 0.25827
# Poissons Ratio (y) = 0.98484 -0.76660
# Poissons Ratio (z) = 0.45384 -0.31455
#
# Static dielectric constant tensor:
#      x y z
#    x 1.866400 0.000000 0.030190 
#    y 0.000000 1.816580 0.000000 
#    z 0.030190 0.000000 1.885710 
# 
# From -- ./inp_files/155440.got.cif
#   From: 2010.05.17/outbox.cif.g08.bks.cpg/sg15_78_cif.got.tgz:155440.got - 2010.06.03 18:47:42.
