data_PCOD9303406
_publ_section_title
;
Structure prediction by ZEFSAII (Michael W. Deem and Ramdas Pophale) SiO2 
 PCOD9303406
Probable space group: C 2/C
;
_chemical_formula_sum "Si O2"
_cell_formula_units_Z 44
_cell_length_a 16.570958
_cell_length_b 16.817685
_cell_length_c 9.334514
_cell_angle_alpha 90.000000
_cell_angle_beta 125.971191
_cell_angle_gamma 90.000000
_cell_volume 2105.337647
_symmetry_space_group_name_H-M "C 2/C"
_symmetry_group_IT_number 15
_symmetry_cell_setting 'monoclinic'
loop_
_space_group_symop_operation_xyz
x,y,z
-x,y,1/2-z
-x,-y,-z
x,-y,1/2+z
1/2+x,1/2+y,z
1/2-x,1/2+y,1/2-z
1/2-x,1/2-y,-z
1/2+x,1/2-y,1/2+z
loop_
_atom_site_type_symbol
_atom_site_label
_atom_site_fract_x
_atom_site_fract_y
_atom_site_fract_z
Si Si1 0.200139 0.481865 0.439423
Si Si2 0.986059 0.290662 0.476859
Si Si3 0.023332 0.114642 0.941283
Si Si4 0.835331 0.025852 0.818200
Si Si5 0.000000 0.584616 0.250000
Si Si6 0.658687 0.807135 0.443929
O O1 0.287147 0.528773 0.611829
O O2 0.243435 0.463727 0.328820
O O3 0.097303 0.529414 0.333754
O O4 0.189881 0.397510 0.507417
O O5 0.954593 0.206972 0.513155
O O6 0.989456 0.358961 0.599891
O O7 0.911259 0.311035 0.269743
O O8 0.092751 0.279675 0.509840
O O9 0.000000 0.098220 0.750000
O O10 0.109529 0.057551 0.091363
O O11 0.922915 0.090200 0.922237
O O12 0.750000 0.750000 0.500000
#
# Coordination Sequence:
#
# PCOD9303406 Si02
#       6
#     8   8   8   8   4   8
#     4  12  24  43  65  96 133 169 229 259 322 387
#     4  11  24  43  66  95 134 171 221 261 334 385
#     4  11  22  44  68  97 131 162 209 276 339 394
#     4  11  24  41  70  98 124 169 210 275 330 390
#     4  12  26  42  66  96 136 190 210 274 318 394
#     4  11  24  43  66  96 126 175 219 274 318 385
#
# _framework density 20.899259000000001
#
# number of rings (size 3 to 8) (size 9 to 14) (size 15 to 20)
#    0.000    0.727    2.727    5.455    0.000    3.636 
#    0.000    2.727    0.000    0.000    0.000    0.000 
#    0.000    0.000    0.000    0.000    0.000    0.000 
#
# Total GULP energy -123026.891462 kJ/mol
# GULP energy per Si atom -5592.131430 kJ/mol
# Density = 2.085169 g / cm^3
# Si number density = 20.899259 Si / 1000 Ang^3
#
#
#
# Elastic Constant Matrix: (Units=GPa)
#
#
# Indices 1 2 3 4 5 6 
#
# 1 121.3542 27.2372 21.9652 0.0000 3.9351 0.0000
# 2 27.2372 82.3428 0.1856 0.0000 13.6704 0.0000
# 3 21.9652 0.1856 61.9923 0.0000 1.0283 0.0000
# 4 0.0000 0.0000 0.0000 33.2852 0.0000 0.8760
# 5 3.9351 13.6704 1.0283 0.0000 34.2638 0.0000
# 6 0.0000 0.0000 0.0000 0.8760 0.0000 27.0606
#
#
#
# Elastic Compliance Matrix: (Units=1/GPa)
#
#
# Indices 1 2 3 4 5 6 
#
# 1 0.009562 -0.003202 -0.003383 0.000000 0.000281 0.000000
# 2 -0.003202 0.014078 0.001180 0.000000 -0.005285 0.000000
# 3 -0.003383 0.001180 0.017336 0.000000 -0.000603 0.000000
# 4 0.000000 0.000000 0.000000 0.030069 0.000000 -0.000973
# 5 0.000281 -0.005285 -0.000603 0.000000 0.031280 0.000000
# 6 0.000000 0.000000 0.000000 -0.000973 0.000000 0.036986
#
#
# Mechanical properties :
#
#
# Convention : Reuss Voigt Hill
#
# Bulk Modulus (GPa) = 33.14945 40.49614 36.82279
# Shear Modulus (GPa) = 31.21557 33.34201 32.27879
#
# Velocity S-wave (km/s) = 3.86893 3.99854 3.93427
# Velocity P-wave (km/s) = 5.98783 6.38253 6.18833
#
# Compressibility (1/GPa) = 0.03016642
#
# Stress axis : x y z
#
# Youngs Moduli (GPa) = 104.57781 71.03196 57.68268
#
# Poissons Ratio (x) = 0.22744 0.19515
# Poissons Ratio (y) = 0.33486 -0.06807
# Poissons Ratio (z) = 0.35381 -0.08382
#
# Static dielectric constant tensor:
#      x y z
#    x 1.807080 0.000000 -0.039990 
#    y 0.000000 1.723140 0.000000 
#    z -0.039990 0.000000 1.740800 
# 
# From -- ./inp_files/39565.got.cif
#   From: 2010.05.17/outbox.cif.g08.bks.cpg/sg15_20_cif.got.tgz:39565.got - 2010.06.03 18:47:42.
