data_PCOD9303201
_publ_section_title
;
Structure prediction by ZEFSAII (Michael W. Deem and Ramdas Pophale) SiO2 
 PCOD9303201
Probable space group: C 2/C
;
_chemical_formula_sum "Si O2"
_cell_formula_units_Z 48
_cell_length_a 23.483570
_cell_length_b 11.908558
_cell_length_c 8.937981
_cell_angle_alpha 90.000000
_cell_angle_beta 50.004804
_cell_angle_gamma 90.000000
_cell_volume 1914.905037
_symmetry_space_group_name_H-M "C 2/C"
_symmetry_group_IT_number 15
_symmetry_cell_setting 'monoclinic'
loop_
_space_group_symop_operation_xyz
x,y,z
-x,y,1/2-z
-x,-y,-z
x,-y,1/2+z
1/2+x,1/2+y,z
1/2-x,1/2+y,1/2-z
1/2-x,1/2-y,-z
1/2+x,1/2-y,1/2+z
loop_
_atom_site_type_symbol
_atom_site_label
_atom_site_fract_x
_atom_site_fract_y
_atom_site_fract_z
Si Si1 0.590215 0.926695 0.074297
Si Si2 0.940430 0.133060 0.118396
Si Si3 0.859076 0.008054 0.526639
Si Si4 0.201406 0.783043 0.938160
Si Si5 0.359783 0.137421 0.699595
Si Si6 0.394678 0.295177 0.145469
O O1 0.500000 0.922683 0.250000
O O2 0.642749 0.919496 0.132727
O O3 0.609730 0.818066 0.941272
O O4 0.608174 0.041578 0.960180
O O5 0.891854 0.069332 0.325795
O O6 0.914562 0.260225 0.143938
O O7 0.025940 0.146687 0.010853
O O8 0.922233 0.067632 0.998238
O O9 0.840859 0.107906 0.671861
O O10 0.794574 0.916002 0.606893
O O11 0.120694 0.770623 0.155569
O O12 0.250000 0.750000 0.000000
O O13 0.203325 0.705598 0.787259
#
# Coordination Sequence:
#
# PCOD9303201 Si02
#       6
#     8   8   8   8   8   8
#     4  12  23  43  68 107 147 180 225 285 369 440
#     4  11  23  39  69 114 143 178 221 297 380 436
#     4  11  22  42  71 103 147 175 226 295 370 425
#     4  11  28  50  68  96 139 193 249 289 346 420
#     4  11  25  43  70 100 146 186 235 288 356 430
#     4  12  23  42  70 106 145 180 231 297 369 427
#
# _framework density 25.066517999999999
#
# number of rings (size 3 to 8) (size 9 to 14) (size 15 to 20)
#    0.000    0.667    5.000    2.500    4.667    1.333 
#    6.000    0.833    0.000    0.000    0.000    0.000 
#    0.000    0.000    0.000    0.000    0.000    0.000 
#
# Total GULP energy -134163.570161 kJ/mol
# GULP energy per Si atom -5590.148757 kJ/mol
# Density = 2.500947 g / cm^3
# Si number density = 25.066518 Si / 1000 Ang^3
#
#
#
# Elastic Constant Matrix: (Units=GPa)
#
#
# Indices 1 2 3 4 5 6 
#
# 1 90.7030 37.5097 22.8234 0.0000 30.5371 0.0000
# 2 37.5097 180.1476 44.4884 0.0000 26.3386 0.0000
# 3 22.8234 44.4884 78.2220 0.0000 36.2778 0.0000
# 4 0.0000 0.0000 0.0000 54.7343 0.0000 28.9562
# 5 30.5371 26.3386 36.2778 0.0000 35.3251 0.0000
# 6 0.0000 0.0000 0.0000 28.9562 0.0000 36.9991
#
#
#
# Elastic Compliance Matrix: (Units=1/GPa)
#
#
# Indices 1 2 3 4 5 6 
#
# 1 0.016578 -0.001990 0.004302 0.000000 -0.017266 0.000000
# 2 -0.001990 0.006771 -0.003297 0.000000 0.000058 0.000000
# 3 0.004302 -0.003297 0.026711 0.000000 -0.028692 0.000000
# 4 0.000000 0.000000 0.000000 0.031179 0.000000 -0.024401
# 5 -0.017266 0.000058 -0.028692 0.000000 0.072656 0.000000
# 6 0.000000 0.000000 0.000000 -0.024401 0.000000 0.046125
#
#
# Mechanical properties :
#
#
# Convention : Reuss Voigt Hill
#
# Bulk Modulus (GPa) = 20.79430 62.07949 41.43690
# Shear Modulus (GPa) = 22.93358 41.69511 32.31434
#
# Velocity S-wave (km/s) = 3.02803 4.08288 3.59436
# Velocity P-wave (km/s) = 4.53199 6.85902 5.81314
#
# Compressibility (1/GPa) = 0.04809009
#
# Stress axis : x y z
#
# Youngs Moduli (GPa) = 60.31995 147.68504 37.43792
#
# Poissons Ratio (x) = 0.29389 -0.16106
# Poissons Ratio (y) = 0.12003 0.12344
# Poissons Ratio (z) = -0.25950 0.48695
#
# Static dielectric constant tensor:
#      x y z
#    x 2.113900 0.000000 -0.047220 
#    y 0.000000 1.968260 0.000000 
#    z -0.047220 0.000000 2.095650 
# 
# From -- ./inp_files/60846.got.cif
#   From: 2010.05.17/outbox.cif.g08.bks.cpg/sg15_31_cif.got.tgz:60846.got - 2010.06.03 18:47:42.
