data_PCOD9303942
_publ_section_title
;
Structure prediction by ZEFSAII (Michael W. Deem and Ramdas Pophale) SiO2 
 PCOD9303942
Probable space group: C 2/C
;
_chemical_formula_sum "Si O2"
_cell_formula_units_Z 56
_cell_length_a 29.047872
_cell_length_b 13.954830
_cell_length_c 11.702707
_cell_angle_alpha 90.000000
_cell_angle_beta 36.450154
_cell_angle_gamma 90.000000
_cell_volume 2818.394184
_symmetry_space_group_name_H-M "C 2/C"
_symmetry_group_IT_number 15
_symmetry_cell_setting 'monoclinic'
loop_
_space_group_symop_operation_xyz
x,y,z
-x,y,1/2-z
-x,-y,-z
x,-y,1/2+z
1/2+x,1/2+y,z
1/2-x,1/2+y,1/2-z
1/2-x,1/2-y,-z
1/2+x,1/2-y,1/2+z
loop_
_atom_site_type_symbol
_atom_site_label
_atom_site_fract_x
_atom_site_fract_y
_atom_site_fract_z
Si Si1 0.628588 0.271515 0.267628
Si Si2 0.081811 0.625562 0.549760
Si Si3 0.519442 0.270821 0.079483
Si Si4 0.438457 0.054061 0.543739
Si Si5 0.229458 0.332527 0.376984
Si Si6 0.800041 0.209952 0.294751
Si Si7 0.190106 0.450647 0.012950
O O1 0.610412 0.178933 0.381228
O O2 0.547704 0.306503 0.373205
O O3 0.683521 0.333411 0.242468
O O4 0.680148 0.236366 0.058790
O O5 0.071795 0.513924 0.542899
O O6 0.141029 0.623796 0.533902
O O7 0.000000 0.667997 0.750000
O O8 0.500000 0.296279 0.250000
O O9 0.524545 0.155331 0.059258
O O10 0.607751 0.295559 0.872799
O O11 0.500000 0.000000 0.500000
O O12 0.356455 0.054665 0.774523
O O13 0.219208 0.280981 0.274393
O O14 0.196439 0.440461 0.455262
O O15 0.750000 0.250000 0.500000
O O16 0.772735 0.099781 0.340682
#
# Coordination Sequence:
#
# PCOD9303942 Si02
#       7
#     8   8   8   8   8   8   8
#     4  11  23  41  65  95 130 176 221 268 327 400
#     4  12  22  34  62  95 133 163 211 268 338 408
#     4  12  23  41  65  94 135 175 220 273 330 398
#     4  12  21  34  59  97 132 165 206 264 346 406
#     4  11  24  44  66  93 133 179 220 271 338 398
#     4  12  26  44  65 100 135 177 221 279 339 391
#     4  12  24  41  62  95 135 174 218 272 332 398
#
# _framework density 19.86947
#
# number of rings (size 3 to 8) (size 9 to 14) (size 15 to 20)
#    0.000    0.286    8.571    1.286    0.000    0.000 
#    0.000    0.714    0.000    0.857    0.000    0.000 
#    0.000    0.000    0.000    0.000    0.000    0.000 
#
# Total GULP energy -156189.214417 kJ/mol
# GULP energy per Si atom -5578.186229 kJ/mol
# Density = 1.982425 g / cm^3
# Si number density = 19.869470 Si / 1000 Ang^3
#
#
#
# Elastic Constant Matrix: (Units=GPa)
#
#
# Indices 1 2 3 4 5 6 
#
# 1 104.7112 7.9476 59.6977 0.0000 -13.9667 0.0000
# 2 7.9476 27.6656 4.7169 0.0000 -1.3264 0.0000
# 3 59.6977 4.7169 117.1959 0.0000 -3.9790 0.0000
# 4 0.0000 0.0000 0.0000 -140.9892 0.0000 56.4985
# 5 -13.9667 -1.3264 -3.9790 0.0000 47.6413 0.0000
# 6 0.0000 0.0000 0.0000 56.4985 0.0000 0.6961
#
#
#
# Elastic Compliance Matrix: (Units=1/GPa)
#
#
# Indices 1 2 3 4 5 6 
#
# 1 0.014225 -0.002722 -0.007018 0.000000 0.003508 0.000000
# 2 -0.002722 0.036954 -0.000093 0.000000 0.000223 0.000000
# 3 -0.007018 -0.000093 0.012075 0.000000 -0.001051 0.000000
# 4 0.000000 0.000000 0.000000 -0.000212 0.000000 0.017172
# 5 0.003508 0.000223 -0.001051 0.000000 0.021937 0.000000
# 6 0.000000 0.000000 0.000000 0.017172 0.000000 0.042851
#
#
# Mechanical properties :
#
#
# Convention : Reuss Voigt Hill
#
# Bulk Modulus (GPa) = 22.94112 43.81079 33.37595
# Shear Modulus (GPa) = 30.85901 -6.71632 12.07135
#
# Velocity S-wave (km/s) = 3.94520 -1.84053 2.46749
# Velocity P-wave (km/s) = 5.68540 4.19290 4.99521
#
# Compressibility (1/GPa) = 0.04358986
#
# Stress axis : x y z
#
# Youngs Moduli (GPa) = 70.29641 27.06035 82.81288
#
# Poissons Ratio (x) = 0.07366 0.58114
# Poissons Ratio (y) = 0.19134 0.00772
# Poissons Ratio (z) = 0.49331 0.00252
#
# Static dielectric constant tensor:
#      x y z
#    x 1.597800 0.000000 0.199200 
#    y 0.000000 1.706090 0.000000 
#    z 0.199200 0.000000 1.475860 
# 
# From -- ./inp_files/97054.got.cif
#   From: 2010.05.17/outbox.cif.g08.bks.cpg/sg15_49_cif.got.tgz:97054.got - 2010.06.03 18:47:42.
