data_PCOD9303209
_publ_section_title
;
Structure prediction by ZEFSAII (Michael W. Deem and Ramdas Pophale) SiO2 
 PCOD9303209
Probable space group: C 2/C
;
_chemical_formula_sum "Si O2"
_cell_formula_units_Z 52
_cell_length_a 18.471940
_cell_length_b 7.791337
_cell_length_c 18.913116
_cell_angle_alpha 90.000000
_cell_angle_beta 60.674119
_cell_angle_gamma 90.000000
_cell_volume 2373.167668
_symmetry_space_group_name_H-M "C 2/C"
_symmetry_group_IT_number 15
_symmetry_cell_setting 'monoclinic'
loop_
_space_group_symop_operation_xyz
x,y,z
-x,y,1/2-z
-x,-y,-z
x,-y,1/2+z
1/2+x,1/2+y,z
1/2-x,1/2+y,1/2-z
1/2-x,1/2-y,-z
1/2+x,1/2-y,1/2+z
loop_
_atom_site_type_symbol
_atom_site_label
_atom_site_fract_x
_atom_site_fract_y
_atom_site_fract_z
Si Si1 0.149855 0.511618 0.965805
Si Si2 0.500000 0.028783 0.250000
Si Si3 0.162260 0.645919 0.613885
Si Si4 0.667683 0.454256 0.122821
Si Si5 0.572395 0.334370 0.302939
Si Si6 0.083115 0.855377 0.029630
Si Si7 0.838009 0.853790 0.103565
O O1 0.239146 0.576979 0.894688
O O2 0.129898 0.333238 0.937045
O O3 0.168114 0.453019 0.037408
O O4 0.084355 0.665943 0.995021
O O5 0.535548 0.151690 0.295115
O O6 0.422532 0.916556 0.310928
O O7 0.159802 0.849121 0.602329
O O8 0.243378 0.619597 0.623422
O O9 0.601077 0.420557 0.216209
O O10 0.649443 0.344057 0.062127
O O11 0.499355 0.406886 0.387896
O O12 0.650519 0.346075 0.317951
O O13 0.110345 0.997542 0.960481
#
# Coordination Sequence:
#
# PCOD9303209 Si02
#       7
#     8   4   8   8   8   8   8
#     4  11  22  44  72 100 128 187 232 282 343 424
#     4  12  26  42  72  98 146 184 238 284 356 418
#     4  11  23  44  71 103 131 188 232 283 346 422
#     4  11  22  42  71  96 136 179 232 278 346 413
#     4  12  26  44  64 107 139 183 228 294 347 415
#     4  12  22  43  72  98 135 183 230 280 344 418
#     4  11  26  45  69  99 145 174 238 287 347 412
#
# _framework density 21.911642000000001
#
# number of rings (size 3 to 8) (size 9 to 14) (size 15 to 20)
#    0.000    0.615    6.154    1.846    4.308    3.077 
#    2.769    0.000    0.000    0.000    0.000    0.000 
#    0.000    0.000    0.000    0.000    0.000    0.000 
#
# Total GULP energy -145290.393192 kJ/mol
# GULP energy per Si atom -5588.092046 kJ/mol
# Density = 2.186177 g / cm^3
# Si number density = 21.911642 Si / 1000 Ang^3
#
#
#
# Elastic Constant Matrix: (Units=GPa)
#
#
# Indices 1 2 3 4 5 6 
#
# 1 46.5281 9.9179 27.9702 -0.0001 0.6750 -0.0001
# 2 9.9179 72.0303 32.5892 -0.0003 -2.8276 -0.0004
# 3 27.9702 32.5892 94.7371 0.0000 -14.6313 -0.0001
# 4 -0.0001 -0.0003 0.0000 20.2379 0.0000 -11.0889
# 5 0.6750 -2.8276 -14.6313 0.0000 45.6812 -0.0002
# 6 -0.0001 -0.0004 -0.0001 -11.0889 -0.0002 8.1626
#
#
#
# Elastic Compliance Matrix: (Units=1/GPa)
#
#
# Indices 1 2 3 4 5 6 
#
# 1 0.026528 -0.000019 -0.008297 0.000000 -0.003051 0.000000
# 2 -0.000019 0.016472 -0.005790 0.000002 -0.000835 0.000004
# 3 -0.008297 -0.005790 0.015739 0.000000 0.004805 0.000000
# 4 0.000000 0.000002 0.000000 0.193286 0.000001 0.262579
# 5 -0.003051 -0.000835 0.004805 0.000001 0.023423 0.000002
# 6 0.000000 0.000004 0.000000 0.262579 0.000002 0.479224
#
#
# Mechanical properties :
#
#
# Convention : Reuss Voigt Hill
#
# Bulk Modulus (GPa) = 32.75592 39.36111 36.05851
# Shear Modulus (GPa) = 6.30470 24.33754 15.32112
#
# Velocity S-wave (km/s) = 1.69811 3.33635 2.64715
# Velocity P-wave (km/s) = 4.33893 5.73099 5.08284
#
# Compressibility (1/GPa) = 0.03052883
#
# Stress axis : x y z
#
# Youngs Moduli (GPa) = 37.69559 60.70767 63.53675
#
# Poissons Ratio (x) = 0.00113 0.52716
# Poissons Ratio (y) = 0.00070 0.36787
# Poissons Ratio (z) = 0.31276 0.35149
#
# Static dielectric constant tensor:
#      x y z
#    x 1.877860 0.000000 -0.040310 
#    y 0.000000 1.791800 0.000000 
#    z -0.040310 0.000000 1.793540 
# 
# From -- ./inp_files/209453.got.cif
#   From: 2010.05.17/outbox.cif.g08.bks.cpg/sg15_105_cif.got.tgz:209453.got - 2010.06.03 18:47:42.
