data_PCOD9303517
_publ_section_title
;
Structure prediction by ZEFSAII (Michael W. Deem and Ramdas Pophale) SiO2 
 PCOD9303517
Probable space group: C 2/C
;
_chemical_formula_sum "Si O2"
_cell_formula_units_Z 48
_cell_length_a 14.731251
_cell_length_b 15.036995
_cell_length_c 28.171357
_cell_angle_alpha 90.000000
_cell_angle_beta 157.346835
_cell_angle_gamma 90.000000
_cell_volume 2403.479336
_symmetry_space_group_name_H-M "C 2/C"
_symmetry_group_IT_number 15
_symmetry_cell_setting 'monoclinic'
loop_
_space_group_symop_operation_xyz
x,y,z
-x,y,1/2-z
-x,-y,-z
x,-y,1/2+z
1/2+x,1/2+y,z
1/2-x,1/2+y,1/2-z
1/2-x,1/2-y,-z
1/2+x,1/2-y,1/2+z
loop_
_atom_site_type_symbol
_atom_site_label
_atom_site_fract_x
_atom_site_fract_y
_atom_site_fract_z
Si Si1 0.575301 0.440641 0.992256
Si Si2 0.206028 0.090939 0.988372
Si Si3 0.148505 0.752260 0.148196
Si Si4 0.000000 0.197978 0.750000
Si Si5 0.162958 0.328922 0.751335
Si Si6 0.602870 0.087129 0.522967
Si Si7 0.000000 0.643553 0.750000
O O1 0.584863 0.505478 0.952218
O O2 0.374499 0.368145 0.884653
O O3 0.500000 0.500000 0.000000
O O4 0.831768 0.407061 0.131609
O O5 0.239680 0.072628 0.948688
O O6 0.057755 0.179144 0.933032
O O7 0.466829 0.102152 0.137272
O O8 0.260939 0.718465 0.251573
O O9 0.320926 0.802586 0.196425
O O10 0.067488 0.664561 0.079917
O O11 0.014191 0.260813 0.711374
O O12 0.228038 0.136819 0.858799
O O13 0.500000 0.000000 0.500000
#
# Coordination Sequence:
#
# PCOD9303517 Si02
#       7
#     8   8   8   4   8   8   4
#     4  12  24  40  68 103 128 170 228 282 333 396
#     4  11  22  45  67  96 137 174 222 282 340 402
#     4  11  23  47  65  93 141 179 217 284 343 403
#     4  12  20  40  68  94 124 174 232 257 333 422
#     4  11  23  41  72  93 126 181 224 267 340 419
#     4  11  25  41  67  97 129 175 223 280 336 401
#     4  12  26  42  66 100 140 168 222 291 339 396
#
# _framework density 19.971048
#
# number of rings (size 3 to 8) (size 9 to 14) (size 15 to 20)
#    0.000    0.667    5.000    4.000    0.000    6.667 
#    0.000    0.000    0.000    0.000    0.000    0.000 
#    0.000    0.000    0.000    0.000    0.000    0.000 
#
# Total GULP energy -133850.725550 kJ/mol
# GULP energy per Si atom -5577.113565 kJ/mol
# Density = 1.992559 g / cm^3
# Si number density = 19.971048 Si / 1000 Ang^3
#
#
#
# Elastic Constant Matrix: (Units=GPa)
#
#
# Indices 1 2 3 4 5 6 
#
# 1 113.2830 48.0389 12.3237 0.0012 12.8988 -0.0014
# 2 48.0389 103.7270 33.0241 0.0013 6.9198 -0.0005
# 3 12.3237 33.0241 72.1502 0.0100 -10.7907 -0.0006
# 4 0.0012 0.0013 0.0100 20.4312 0.0002 1.8215
# 5 12.8988 6.9198 -10.7907 0.0002 24.4668 0.0028
# 6 -0.0014 -0.0005 -0.0006 1.8215 0.0028 32.9659
#
#
#
# Elastic Compliance Matrix: (Units=1/GPa)
#
#
# Indices 1 2 3 4 5 6 
#
# 1 0.011491 -0.004842 -0.000479 0.000000 -0.004900 0.000001
# 2 -0.004842 0.014168 -0.006290 0.000003 -0.004228 0.000000
# 3 -0.000479 -0.006290 0.018334 -0.000009 0.010118 0.000000
# 4 0.000000 0.000003 -0.000009 0.049187 -0.000005 -0.002718
# 5 -0.004900 -0.004228 0.010118 -0.000005 0.049113 -0.000004
# 6 0.000001 0.000000 0.000000 -0.002718 -0.000004 0.030485
#
#
# Mechanical properties :
#
#
# Convention : Reuss Voigt Hill
#
# Bulk Modulus (GPa) = 48.14697 52.88152 50.51425
# Shear Modulus (GPa) = 24.63975 28.62436 26.63206
#
# Velocity S-wave (km/s) = 3.51632 3.78999 3.65572
# Velocity P-wave (km/s) = 6.37548 6.75934 6.57021
#
# Compressibility (1/GPa) = 0.02076974
#
# Stress axis : x y z
#
# Youngs Moduli (GPa) = 87.02511 70.58139 54.54319
#
# Poissons Ratio (x) = 0.34178 0.02613
# Poissons Ratio (y) = 0.42141 0.34309
# Poissons Ratio (z) = 0.04170 0.44397
#
# Static dielectric constant tensor:
#      x y z
#    x 1.848140 0.000030 0.335480 
#    y 0.000030 1.706860 0.000070 
#    z 0.335480 0.000070 2.768160 
# 
# From -- ./inp_files/96266.got.cif
#   From: 2010.05.17/outbox.cif.g08.bks.cpg/sg15_49_cif.got.tgz:96266.got - 2010.06.03 18:47:42.
