data_PCOD9303048
_publ_section_title
;
Structure prediction by ZEFSAII (Michael W. Deem and Ramdas Pophale) SiO2 
 PCOD9303048
Probable space group: C 2/C
;
_chemical_formula_sum "Si O2"
_cell_formula_units_Z 56
_cell_length_a 22.773845
_cell_length_b 12.204419
_cell_length_c 8.684521
_cell_angle_alpha 90.000000
_cell_angle_beta 115.053913
_cell_angle_gamma 90.000000
_cell_volume 2186.675095
_symmetry_space_group_name_H-M "C 2/C"
_symmetry_group_IT_number 15
_symmetry_cell_setting 'monoclinic'
loop_
_space_group_symop_operation_xyz
x,y,z
-x,y,1/2-z
-x,-y,-z
x,-y,1/2+z
1/2+x,1/2+y,z
1/2-x,1/2+y,1/2-z
1/2-x,1/2-y,-z
1/2+x,1/2-y,1/2+z
loop_
_atom_site_type_symbol
_atom_site_label
_atom_site_fract_x
_atom_site_fract_y
_atom_site_fract_z
Si Si1 0.745551 0.011960 0.499892
Si Si2 0.392124 0.923453 0.616798
Si Si3 0.246103 0.829103 0.785090
Si Si4 0.348427 0.350685 0.265111
Si Si5 0.516902 0.650624 0.434599
Si Si6 0.546086 0.903040 0.494373
Si Si7 0.396468 0.711442 0.478583
O O1 0.683256 0.071467 0.501794
O O2 0.748910 0.071386 0.337656
O O3 0.808088 0.045228 0.665565
O O4 0.737884 0.883317 0.530456
O O5 0.405281 0.893151 0.807061
O O6 0.421887 0.835567 0.532860
O O7 0.419507 0.043581 0.614535
O O8 0.297642 0.735651 0.786972
O O9 0.170443 0.793132 0.691506
O O10 0.410958 0.381095 0.434077
O O11 0.375956 0.311731 0.131140
O O12 0.500000 0.603142 0.250000
O O13 0.522722 0.782793 0.430720
O O14 0.455272 0.638098 0.479880
O O15 0.500000 0.000000 0.500000
#
# Coordination Sequence:
#
# PCOD9303048 Si02
#       7
#     8   8   8   8   8   8   8
#     4  11  22  41  69  93 130 168 222 277 323 383
#     4  12  21  39  60  92 132 176 208 263 320 388
#     4  11  23  44  67 100 128 170 225 271 330 394
#     4  11  22  45  67  95 129 179 222 265 329 406
#     4  12  25  41  59  95 135 170 215 278 328 383
#     4  12  24  34  57  93 134 168 214 251 319 399
#     4  11  22  42  68  89 130 180 217 257 330 408
#
# _framework density 25.609658
#
# number of rings (size 3 to 8) (size 9 to 14) (size 15 to 20)
#    0.000    0.571    5.714    4.286    0.000    1.143 
#    2.571    2.143    0.000    0.000    0.000    0.000 
#    0.000    0.000    0.000    0.000    0.000    0.000 
#
# Total GULP energy -156499.472778 kJ/mol
# GULP energy per Si atom -5589.266885 kJ/mol
# Density = 2.555137 g / cm^3
# Si number density = 25.609658 Si / 1000 Ang^3
#
#
#
# Elastic Constant Matrix: (Units=GPa)
#
#
# Indices 1 2 3 4 5 6 
#
# 1 90.2982 5.5105 43.7520 0.0000 12.3099 0.0000
# 2 5.5105 49.4338 6.5106 0.0000 -11.2815 0.0000
# 3 43.7520 6.5106 126.8020 0.0000 26.5598 0.0000
# 4 0.0000 0.0000 0.0000 32.2027 0.0000 5.3972
# 5 12.3099 -11.2815 26.5598 0.0000 41.6131 0.0000
# 6 0.0000 0.0000 0.0000 5.3972 0.0000 29.5782
#
#
#
# Elastic Compliance Matrix: (Units=1/GPa)
#
#
# Indices 1 2 3 4 5 6 
#
# 1 0.013423 -0.001313 -0.004222 0.000000 -0.001632 0.000000
# 2 -0.001313 0.022518 -0.002382 0.000000 0.008013 0.000000
# 3 -0.004222 -0.002382 0.010780 0.000000 -0.006277 0.000000
# 4 0.000000 0.000000 0.000000 0.032033 0.000000 -0.005845
# 5 -0.001632 0.008013 -0.006277 0.000000 0.030692 0.000000
# 6 0.000000 0.000000 0.000000 -0.005845 0.000000 0.034875
#
#
# Mechanical properties :
#
#
# Convention : Reuss Voigt Hill
#
# Bulk Modulus (GPa) = 32.37522 42.00892 37.19207
# Shear Modulus (GPa) = 29.33404 34.72953 32.03179
#
# Velocity S-wave (km/s) = 3.38809 3.68654 3.54046
# Velocity P-wave (km/s) = 5.28912 5.87877 5.59172
#
# Compressibility (1/GPa) = 0.03088782
#
# Stress axis : x y z
#
# Youngs Moduli (GPa) = 74.50039 44.40935 92.76198
#
# Poissons Ratio (x) = 0.05829 0.39166
# Poissons Ratio (y) = 0.09778 0.22093
# Poissons Ratio (z) = 0.31456 0.10577
#
# Static dielectric constant tensor:
#      x y z
#    x 2.074590 0.000000 -0.021100 
#    y 0.000000 2.129940 0.000000 
#    z -0.021100 0.000000 2.023250 
# 
# From -- ./inp_files/61833.got.cif
#   From: 2010.05.17/outbox.cif.g08.bks.cpg/sg15_31_cif.got.tgz:61833.got - 2010.06.03 18:47:42.
