data_PCOD9303090
_publ_section_title
;
Structure prediction by ZEFSAII (Michael W. Deem and Ramdas Pophale) SiO2 
 PCOD9303090
Probable space group: C 2/C
;
_chemical_formula_sum "Si O2"
_cell_formula_units_Z 48
_cell_length_a 29.134809
_cell_length_b 16.896922
_cell_length_c 14.893829
_cell_angle_alpha 90.000000
_cell_angle_beta 17.767168
_cell_angle_gamma 90.000000
_cell_volume 2237.376270
_symmetry_space_group_name_H-M "C 2/C"
_symmetry_group_IT_number 15
_symmetry_cell_setting 'monoclinic'
loop_
_space_group_symop_operation_xyz
x,y,z
-x,y,1/2-z
-x,-y,-z
x,-y,1/2+z
1/2+x,1/2+y,z
1/2-x,1/2+y,1/2-z
1/2-x,1/2-y,-z
1/2+x,1/2-y,1/2+z
loop_
_atom_site_type_symbol
_atom_site_label
_atom_site_fract_x
_atom_site_fract_y
_atom_site_fract_z
Si Si1 0.356077 0.741826 0.715850
Si Si2 0.829361 0.680030 0.095238
Si Si3 0.673288 0.821621 0.096603
Si Si4 0.872553 0.940179 0.200265
Si Si5 0.827756 0.518527 0.800466
Si Si6 0.328247 0.992448 0.097510
O O1 0.268559 0.764476 0.786710
O O2 0.495405 0.803460 0.445940
O O3 0.414876 0.651225 0.604278
O O4 0.250000 0.750000 0.000000
O O5 0.830601 0.586744 0.113429
O O6 0.757578 0.682677 0.131677
O O7 0.000000 0.705002 0.750000
O O8 0.709922 0.906184 0.068595
O O9 0.750000 0.750000 0.000000
O O10 0.785479 0.969957 0.271500
O O11 0.759273 0.944153 0.495913
O O12 0.000000 0.000000 0.000000
O O13 0.793932 0.540498 0.760550
O O14 0.000000 0.500000 0.500000
O O15 0.500000 0.971219 0.750000
#
# Coordination Sequence:
#
# PCOD9303090 Si02
#       6
#     8   8   8   8   8   8
#     4  11  24  42  66  98 138 171 219 287 346 394
#     4   9  19  41  65  92 127 175 223 269 324 402
#     4  11  23  41  66  92 131 181 222 266 333 415
#     4  12  26  44  65 105 143 170 220 291 350 396
#     4  12  22  43  73  96 127 182 236 271 325 413
#     4  11  22  41  74 100 128 179 239 277 328 411
#
# _framework density 21.453700000000001
#
# number of rings (size 3 to 8) (size 9 to 14) (size 15 to 20)
#    0.000    1.000    3.333    5.000    2.333    0.667 
#    3.000    0.833    0.000    0.000    0.000    0.000 
#    0.000    0.000    0.000    0.000    0.000    0.000 
#
# Total GULP energy -133771.353859 kJ/mol
# GULP energy per Si atom -5573.806411 kJ/mol
# Density = 2.140487 g / cm^3
# Si number density = 21.453700 Si / 1000 Ang^3
#
#
#
# Elastic Constant Matrix: (Units=GPa)
#
#
# Indices 1 2 3 4 5 6 
#
# 1 166.0417 39.8128 34.8343 -0.0004 28.2825 0.0001
# 2 39.8128 97.0910 7.3500 -0.0003 9.6251 0.0001
# 3 34.8343 7.3500 57.5615 -0.0008 11.9621 0.0003
# 4 -0.0004 -0.0003 -0.0008 27.4311 0.0003 2.5820
# 5 28.2825 9.6251 11.9621 0.0003 40.9275 -0.0001
# 6 0.0001 0.0001 0.0003 2.5820 -0.0001 41.8267
#
#
#
# Elastic Compliance Matrix: (Units=1/GPa)
#
#
# Indices 1 2 3 4 5 6 
#
# 1 0.008110 -0.002656 -0.003762 0.000000 -0.003880 0.000000
# 2 -0.002656 0.011458 0.000344 0.000000 -0.000960 0.000000
# 3 -0.003762 0.000344 0.020316 0.000001 -0.003419 0.000000
# 4 0.000000 0.000000 0.000001 0.036668 0.000000 -0.002264
# 5 -0.003880 -0.000960 -0.003419 0.000000 0.028339 0.000000
# 6 0.000000 0.000000 0.000000 -0.002264 0.000000 0.024048
#
#
# Mechanical properties :
#
#
# Convention : Reuss Voigt Hill
#
# Bulk Modulus (GPa) = 36.05615 53.85424 44.95520
# Shear Modulus (GPa) = 33.25958 37.95023 35.60491
#
# Velocity S-wave (km/s) = 3.94165 4.21044 4.07826
# Velocity P-wave (km/s) = 6.12850 6.98527 6.57086
#
# Compressibility (1/GPa) = 0.02773452
#
# Stress axis : x y z
#
# Youngs Moduli (GPa) = 123.31120 87.27665 49.22206
#
# Poissons Ratio (x) = 0.23180 0.18518
# Poissons Ratio (y) = 0.32751 -0.01692
# Poissons Ratio (z) = 0.46392 -0.03000
#
# Static dielectric constant tensor:
#      x y z
#    x 1.954490 0.000000 -0.072970 
#    y 0.000000 1.912680 0.000000 
#    z -0.072970 0.000000 1.946470 
# 
# From -- ./inp_files/182427.got.cif
#   From: 2010.05.17/outbox.cif.g08.bks.cpg/sg15_92_cif.got.tgz:182427.got - 2010.06.03 18:47:42.
