data_PCOD9303638
_publ_section_title
;
Structure prediction by ZEFSAII (Michael W. Deem and Ramdas Pophale) SiO2 
 PCOD9303638
Probable space group: C 2/C
;
_chemical_formula_sum "Si O2"
_cell_formula_units_Z 32
_cell_length_a 7.080542
_cell_length_b 17.712197
_cell_length_c 10.738895
_cell_angle_alpha 90.000000
_cell_angle_beta 67.301613
_cell_angle_gamma 90.000000
_cell_volume 1242.475843
_symmetry_space_group_name_H-M "C 2/C"
_symmetry_group_IT_number 15
_symmetry_cell_setting 'monoclinic'
loop_
_space_group_symop_operation_xyz
x,y,z
-x,y,1/2-z
-x,-y,-z
x,-y,1/2+z
1/2+x,1/2+y,z
1/2-x,1/2+y,1/2-z
1/2-x,1/2-y,-z
1/2+x,1/2-y,1/2+z
loop_
_atom_site_type_symbol
_atom_site_label
_atom_site_fract_x
_atom_site_fract_y
_atom_site_fract_z
Si Si1 0.776866 0.743567 0.847045
Si Si2 0.118398 0.457321 0.353418
Si Si3 0.642712 0.330615 0.059871
Si Si4 0.257460 0.100257 0.281353
O O1 0.586942 0.694087 0.847493
O O2 0.763741 0.828591 0.801498
O O3 0.000000 0.716769 0.750000
O O4 0.750000 0.750000 0.000000
O O5 0.216560 0.383018 0.388990
O O6 0.283076 0.519941 0.268937
O O7 0.000000 0.443471 0.250000
O O8 0.000000 0.500000 0.500000
O O9 0.750000 0.250000 0.000000
O O10 0.632416 0.379889 0.936085
O O11 0.500000 0.099019 0.250000
#
# Coordination Sequence:
#
# PCOD9303638 Si02
#       4
#     8   8   8   8
#     4  12  26  48  85 128 176 244 310 380 460 544
#     4  11  22  46  86 136 186 238 295 379 482 557
#     4  12  24  48  86 131 185 233 309 390 455 550
#     4  11  22  47  81 125 182 227 300 382 455 549
#
# _framework density 25.755026000000001
#
# number of rings (size 3 to 8) (size 9 to 14) (size 15 to 20)
#    0.000    0.500   10.000    0.000    0.000    0.000 
#    9.000    1.250    5.500    4.500    0.000    1.750 
#    0.000    0.000    0.000    0.000    0.000    0.000 
#
# Total GULP energy -89588.904904 kJ/mol
# GULP energy per Si atom -5599.306557 kJ/mol
# Density = 2.569641 g / cm^3
# Si number density = 25.755026 Si / 1000 Ang^3
#
#
#
# Elastic Constant Matrix: (Units=GPa)
#
#
# Indices 1 2 3 4 5 6 
#
# 1 211.5959 94.6776 89.3797 0.0000 -4.5353 0.0000
# 2 94.6776 237.2991 96.7433 0.0000 9.8388 0.0000
# 3 89.3797 96.7433 197.4222 0.0000 28.6883 0.0000
# 4 0.0000 0.0000 0.0000 60.9803 0.0000 28.7946
# 5 -4.5353 9.8388 28.6883 0.0000 52.4444 0.0000
# 6 0.0000 0.0000 0.0000 28.7946 0.0000 -24.7330
#
#
#
# Elastic Compliance Matrix: (Units=1/GPa)
#
#
# Indices 1 2 3 4 5 6 
#
# 1 0.006582 -0.001714 -0.002466 0.000000 0.002240 0.000000
# 2 -0.001714 0.005723 -0.002011 0.000000 -0.000122 0.000000
# 3 -0.002466 -0.002011 0.007760 0.000000 -0.004081 0.000000
# 4 0.000000 0.000000 0.000000 0.010582 0.000000 0.012319
# 5 0.002240 -0.000122 -0.004081 0.000000 0.021517 0.000000
# 6 0.000000 0.000000 0.000000 0.012319 0.000000 -0.026089
#
#
# Mechanical properties :
#
#
# Convention : Reuss Voigt Hill
#
# Bulk Modulus (GPa) = 130.13108 134.21314 132.17211
# Shear Modulus (GPa) = 121.90491 42.10610 82.00550
#
# Velocity S-wave (km/s) = 6.88732 4.04774 5.64887
# Velocity P-wave (km/s) = 10.67160 8.60640 9.69416
#
# Compressibility (1/GPa) = 0.00768456
#
# Stress axis : x y z
#
# Youngs Moduli (GPa) = 151.92120 174.74401 128.86861
#
# Poissons Ratio (x) = 0.29949 0.31774
# Poissons Ratio (y) = 0.26038 0.25911
# Poissons Ratio (z) = 0.37458 0.35135
#
# Static dielectric constant tensor:
#      x y z
#    x 2.026970 0.000000 0.072930 
#    y 0.000000 2.032100 0.000000 
#    z 0.072930 0.000000 2.100630 
# 
# From -- ./inp_files/28321.got.cif
#   From: 2010.05.17/outbox.cif.g08.bks.cpg/sg15_15_cif.got.tgz:28321.got - 2010.06.03 18:47:42.
