data_PCOD9303658
_publ_section_title
;
Structure prediction by ZEFSAII (Michael W. Deem and Ramdas Pophale) SiO2 
 PCOD9303658
Probable space group: C 2/C
;
_chemical_formula_sum "Si O2"
_cell_formula_units_Z 40
_cell_length_a 8.899726
_cell_length_b 11.662142
_cell_length_c 14.679828
_cell_angle_alpha 90.000000
_cell_angle_beta 91.630693
_cell_angle_gamma 90.000000
_cell_volume 1523.000372
_symmetry_space_group_name_H-M "C 2/C"
_symmetry_group_IT_number 15
_symmetry_cell_setting 'monoclinic'
loop_
_space_group_symop_operation_xyz
x,y,z
-x,y,1/2-z
-x,-y,-z
x,-y,1/2+z
1/2+x,1/2+y,z
1/2-x,1/2+y,1/2-z
1/2-x,1/2-y,-z
1/2+x,1/2-y,1/2+z
loop_
_atom_site_type_symbol
_atom_site_label
_atom_site_fract_x
_atom_site_fract_y
_atom_site_fract_z
Si Si1 0.322480 0.179703 0.083322
Si Si2 0.354797 0.748699 0.178269
Si Si3 0.913033 0.566752 0.343291
Si Si4 0.016647 0.068944 0.093554
Si Si5 0.689187 0.397952 0.302582
O O1 0.474246 0.108515 0.077655
O O2 0.361014 0.277258 0.157812
O O3 0.189660 0.096779 0.114898
O O4 0.250000 0.250000 0.000000
O O5 0.500000 0.741638 0.250000
O O6 0.219091 0.656917 0.178604
O O7 0.435642 0.694630 0.090053
O O8 0.264785 0.864284 0.205949
O O9 0.831590 0.447152 0.361313
O O10 0.000000 0.554130 0.250000
O O11 0.938846 0.987907 0.168162
O O12 0.000000 0.000000 0.000000
#
# Coordination Sequence:
#
# PCOD9303658 Si02
#       5
#     8   8   8   8   8
#     4  12  25  50  73 109 163 198 256 318 404 477
#     4  11  22  47  75 112 152 201 271 325 393 461
#     4  11  24  45  72 113 141 199 267 316 392 461
#     4  11  24  46  74 112 152 204 254 316 402 460
#     4  11  24  46  73 106 152 199 258 331 382 460
#
# _framework density 26.263945
#
# number of rings (size 3 to 8) (size 9 to 14) (size 15 to 20)
#    0.000    0.800    6.000    0.600    0.000    0.800 
#   25.200    4.000    0.000    0.000    0.000    0.000 
#    0.000    0.000    0.000    0.000    0.000    0.000 
#
# Total GULP energy -111515.690040 kJ/mol
# GULP energy per Si atom -5575.784502 kJ/mol
# Density = 2.620417 g / cm^3
# Si number density = 26.263945 Si / 1000 Ang^3
#
#
#
# Elastic Constant Matrix: (Units=GPa)
#
#
# Indices 1 2 3 4 5 6 
#
# 1 159.0130 61.3751 31.0115 0.0000 -15.1568 0.0000
# 2 61.3751 144.4295 35.9626 0.0000 -11.3852 0.0000
# 3 31.0115 35.9626 90.7332 0.0000 1.4921 0.0000
# 4 0.0000 0.0000 0.0000 52.7823 0.0000 -27.8501
# 5 -15.1568 -11.3852 1.4921 0.0000 20.1685 0.0000
# 6 0.0000 0.0000 0.0000 -27.8501 0.0000 56.3254
#
#
#
# Elastic Compliance Matrix: (Units=1/GPa)
#
#
# Indices 1 2 3 4 5 6 
#
# 1 0.008105 -0.002619 -0.001810 0.000000 0.004746 0.000000
# 2 -0.002619 0.008973 -0.002715 0.000000 0.003298 0.000000
# 3 -0.001810 -0.002715 0.012779 0.000000 -0.003839 0.000000
# 4 0.000000 0.000000 0.000000 0.025633 0.000000 0.012674
# 5 0.004746 0.003298 -0.003839 0.000000 0.055295 0.000000
# 6 0.000000 0.000000 0.000000 0.012674 0.000000 0.024021
#
#
# Mechanical properties :
#
#
# Convention : Reuss Voigt Hill
#
# Bulk Modulus (GPa) = 64.23560 72.31937 68.27749
# Shear Modulus (GPa) = 32.40736 43.57699 37.99218
#
# Velocity S-wave (km/s) = 3.51652 4.07774 3.80748
# Velocity P-wave (km/s) = 6.40302 7.05450 6.73664
#
# Compressibility (1/GPa) = 0.01556769
#
# Stress axis : x y z
#
# Youngs Moduli (GPa) = 123.37641 111.44525 78.25092
#
# Poissons Ratio (x) = 0.29193 0.14164
# Poissons Ratio (y) = 0.32318 0.21249
# Poissons Ratio (z) = 0.22332 0.30262
#
# Static dielectric constant tensor:
#      x y z
#    x 2.098940 0.000000 -0.023200 
#    y 0.000000 2.068300 0.000000 
#    z -0.023200 0.000000 2.154500 
# 
# From -- ./inp_files/187795.got.cif
#   From: 2010.05.17/outbox.cif.g08.bks.cpg/sg15_94_cif.got.tgz:187795.got - 2010.06.03 18:47:42.
