data_PCOD9303722
_publ_section_title
;
Structure prediction by ZEFSAII (Michael W. Deem and Ramdas Pophale) SiO2 
 PCOD9303722
Probable space group: C 2/C
;
_chemical_formula_sum "Si O2"
_cell_formula_units_Z 44
_cell_length_a 11.967348
_cell_length_b 18.368595
_cell_length_c 9.985877
_cell_angle_alpha 90.000000
_cell_angle_beta 80.442688
_cell_angle_gamma 90.000000
_cell_volume 2164.660759
_symmetry_space_group_name_H-M "C 2/C"
_symmetry_group_IT_number 15
_symmetry_cell_setting 'monoclinic'
loop_
_space_group_symop_operation_xyz
x,y,z
-x,y,1/2-z
-x,-y,-z
x,-y,1/2+z
1/2+x,1/2+y,z
1/2-x,1/2+y,1/2-z
1/2-x,1/2-y,-z
1/2+x,1/2-y,1/2+z
loop_
_atom_site_type_symbol
_atom_site_label
_atom_site_fract_x
_atom_site_fract_y
_atom_site_fract_z
Si Si1 0.179183 0.281621 0.702616
Si Si2 0.871486 0.559707 0.224588
Si Si3 0.835017 0.811308 0.044966
Si Si4 0.193426 0.545717 0.555535
Si Si5 0.076235 0.248100 0.442125
Si Si6 0.500000 0.133331 0.750000
O O1 0.147978 0.354336 0.788020
O O2 0.165076 0.211194 0.798725
O O3 0.101222 0.274354 0.587729
O O4 0.308934 0.289875 0.629607
O O5 0.790643 0.524727 0.354063
O O6 0.000000 0.551493 0.250000
O O7 0.846206 0.524750 0.085577
O O8 0.791244 0.893056 0.030619
O O9 0.750000 0.750000 0.000000
O O10 0.960472 0.797579 0.962822
O O11 0.091958 0.587310 0.651964
O O12 0.059226 0.315906 0.347518
#
# Coordination Sequence:
#
# PCOD9303722 Si02
#       6
#     8   8   8   8   8   4
#     4  11  23  40  64  97 128 167 219 269 324 378
#     4  12  25  41  62  94 135 172 215 273 326 390
#     4  12  21  42  64  95 127 168 218 267 321 381
#     4  12  26  39  66  94 132 172 216 268 332 385
#     4  11  23  37  68  96 128 165 219 272 320 384
#     4  12  20  40  64  96 128 168 204 268 328 390
#
# _framework density 20.326511
#
# number of rings (size 3 to 8) (size 9 to 14) (size 15 to 20)
#    0.000    0.364    6.364    3.273    2.545    0.000 
#    0.000    0.909    0.000    0.000    0.000    0.000 
#    0.000    0.000    0.000    0.000    0.000    0.000 
#
# Total GULP energy -123004.642475 kJ/mol
# GULP energy per Si atom -5591.120113 kJ/mol
# Density = 2.028025 g / cm^3
# Si number density = 20.326511 Si / 1000 Ang^3
#
#
#
# Elastic Constant Matrix: (Units=GPa)
#
#
# Indices 1 2 3 4 5 6 
#
# 1 92.9894 16.1192 6.4398 0.0000 -9.7497 0.0000
# 2 16.1192 45.3762 -4.7072 0.0000 2.5499 0.0000
# 3 6.4398 -4.7072 97.4508 0.0000 23.5939 0.0000
# 4 0.0000 0.0000 0.0000 41.1960 0.0000 -7.3025
# 5 -9.7497 2.5499 23.5939 0.0000 40.1887 0.0000
# 6 0.0000 0.0000 0.0000 -7.3025 0.0000 9.0378
#
#
#
# Elastic Compliance Matrix: (Units=1/GPa)
#
#
# Indices 1 2 3 4 5 6 
#
# 1 0.012210 -0.004813 -0.002134 0.000000 0.004520 0.000000
# 2 -0.004813 0.024241 0.002499 0.000000 -0.004173 0.000000
# 3 -0.002134 0.002499 0.012458 0.000000 -0.007990 0.000000
# 4 0.000000 0.000000 0.000000 0.028332 0.000000 0.022892
# 5 0.004520 -0.004173 -0.007990 0.000000 0.030935 0.000000
# 6 0.000000 0.000000 0.000000 0.022892 0.000000 0.129143
#
#
# Mechanical properties :
#
#
# Convention : Reuss Voigt Hill
#
# Bulk Modulus (GPa) = 24.99078 30.16888 27.57983
# Shear Modulus (GPa) = 19.26399 32.61548 25.93973
#
# Velocity S-wave (km/s) = 3.08186 4.01006 3.57620
# Velocity P-wave (km/s) = 4.99852 6.02621 5.53626
#
# Compressibility (1/GPa) = 0.04001475
#
# Stress axis : x y z
#
# Youngs Moduli (GPa) = 81.90108 41.25182 80.27132
#
# Poissons Ratio (x) = 0.19853 0.17127
# Poissons Ratio (y) = 0.39416 -0.20062
# Poissons Ratio (z) = 0.17475 -0.10310
#
# Static dielectric constant tensor:
#      x y z
#    x 1.731730 0.000000 0.005280 
#    y 0.000000 1.749740 0.000000 
#    z 0.005280 0.000000 1.756870 
# 
# From -- ./inp_files/30826.got.cif
#   From: 2010.05.17/outbox.cif.g08.bks.cpg/sg15_16_cif.got.tgz:30826.got - 2010.06.03 18:47:42.
