data_PCOD9303839
_publ_section_title
;
Structure prediction by ZEFSAII (Michael W. Deem and Ramdas Pophale) SiO2 
 PCOD9303839
Probable space group: C 2/C
;
_chemical_formula_sum "Si O2"
_cell_formula_units_Z 52
_cell_length_a 23.097920
_cell_length_b 4.953983
_cell_length_c 19.682102
_cell_angle_alpha 90.000000
_cell_angle_beta 108.107757
_cell_angle_gamma 90.000000
_cell_volume 2140.616900
_symmetry_space_group_name_H-M "C 2/C"
_symmetry_group_IT_number 15
_symmetry_cell_setting 'monoclinic'
loop_
_space_group_symop_operation_xyz
x,y,z
-x,y,1/2-z
-x,-y,-z
x,-y,1/2+z
1/2+x,1/2+y,z
1/2-x,1/2+y,1/2-z
1/2-x,1/2-y,-z
1/2+x,1/2-y,1/2+z
loop_
_atom_site_type_symbol
_atom_site_label
_atom_site_fract_x
_atom_site_fract_y
_atom_site_fract_z
Si Si1 0.500000 0.517172 0.250000
Si Si2 0.076336 0.549747 0.103329
Si Si3 0.769948 0.997494 0.054166
Si Si4 0.407659 0.302322 0.111384
Si Si5 0.559305 0.198093 0.950375
Si Si6 0.232710 0.013058 0.789473
Si Si7 0.898057 0.084222 0.303830
O O1 0.450460 0.341974 0.191854
O O2 0.457291 0.686619 0.284478
O O3 0.116652 0.302178 0.143886
O O4 0.008522 0.424220 0.074170
O O5 0.083413 0.799055 0.156896
O O6 0.090587 0.653690 0.033828
O O7 0.745824 0.002338 0.123941
O O8 0.842022 0.939651 0.089906
O O9 0.750000 0.250000 0.000000
O O10 0.750000 0.750000 0.000000
O O11 0.405587 0.990126 0.090677
O O12 0.441521 0.486565 0.066882
O O13 0.262036 0.798485 0.747682
O O14 0.160956 0.943479 0.763321
#
# Coordination Sequence:
#
# PCOD9303839 Si02
#       7
#     4   8   8   8   8   8   8
#     4  12  24  46  70 106 140 174 240 282 368 402
#     4  11  23  40  64 101 140 177 222 280 359 431
#     4  12  28  50  75 106 144 195 252 301 357 432
#     4  12  25  44  72 102 138 183 229 293 357 422
#     4  11  23  40  64 101 140 177 222 280 359 431
#     4  12  28  50  75 106 144 195 252 301 357 432
#     4  12  25  44  72 102 138 183 229 293 357 422
#
# _framework density 24.292061
#
# number of rings (size 3 to 8) (size 9 to 14) (size 15 to 20)
#    0.000    0.308    4.615    3.692    0.000   12.308 
#    0.000    0.000    0.000    0.000    0.000    0.000 
#    0.000    0.000    0.000    0.000    0.000    0.000 
#
# Total GULP energy -145480.037058 kJ/mol
# GULP energy per Si atom -5595.386041 kJ/mol
# Density = 2.423677 g / cm^3
# Si number density = 24.292061 Si / 1000 Ang^3
#
#
#
# Elastic Constant Matrix: (Units=GPa)
#
#
# Indices 1 2 3 4 5 6 
#
# 1 74.0815 -5.7180 36.4947 0.0000 17.8107 0.0000
# 2 -5.7180 107.2132 40.2696 0.0011 4.7931 0.0000
# 3 36.4947 40.2696 191.9924 -0.0001 3.2918 0.0001
# 4 0.0000 0.0011 -0.0001 27.3744 0.0000 1.1291
# 5 17.8107 4.7931 3.2918 0.0000 34.2147 0.0000
# 6 0.0000 0.0000 0.0001 1.1291 0.0000 25.2730
#
#
#
# Elastic Compliance Matrix: (Units=1/GPa)
#
#
# Indices 1 2 3 4 5 6 
#
# 1 0.017834 0.002801 -0.003818 0.000000 -0.009309 0.000000
# 2 0.002801 0.010616 -0.002713 0.000000 -0.002684 0.000000
# 3 -0.003818 -0.002713 0.006473 0.000000 0.001745 0.000000
# 4 0.000000 0.000000 0.000000 0.036598 0.000000 -0.001635
# 5 -0.009309 -0.002684 0.001745 0.000000 0.034281 0.000000
# 6 0.000000 0.000000 0.000000 -0.001635 0.000000 0.039641
#
#
# Mechanical properties :
#
#
# Convention : Reuss Voigt Hill
#
# Bulk Modulus (GPa) = 36.41211 57.26440 46.83826
# Shear Modulus (GPa) = 30.85351 37.52182 34.18766
#
# Velocity S-wave (km/s) = 3.56772 3.93442 3.75555
# Velocity P-wave (km/s) = 5.65627 6.65312 6.17484
#
# Compressibility (1/GPa) = 0.02746339
#
# Stress axis : x y z
#
# Youngs Moduli (GPa) = 56.07394 94.20068 154.47875
#
# Poissons Ratio (x) = -0.26388 0.58977
# Poissons Ratio (y) = -0.15708 0.41911
# Poissons Ratio (z) = 0.21408 0.25557
#
# Static dielectric constant tensor:
#      x y z
#    x 2.056170 0.000000 0.009820 
#    y 0.000000 1.942140 0.000000 
#    z 0.009820 0.000000 2.060760 
# 
# From -- ./inp_files/221367.got.cif
#   From: 2010.05.17/outbox.cif.g08.bks.cpg/sg15_111_cif.got.tgz:221367.got - 2010.06.03 18:47:42.
