data_PCOD9303141
_publ_section_title
;
Structure prediction by ZEFSAII (Michael W. Deem and Ramdas Pophale) SiO2 
 PCOD9303141
Probable space group: C 2/C
;
_chemical_formula_sum "Si O2"
_cell_formula_units_Z 56
_cell_length_a 14.433946
_cell_length_b 22.301889
_cell_length_c 9.153946
_cell_angle_alpha 90.000000
_cell_angle_beta 70.715122
_cell_angle_gamma 90.000000
_cell_volume 2781.349765
_symmetry_space_group_name_H-M "C 2/C"
_symmetry_group_IT_number 15
_symmetry_cell_setting 'monoclinic'
loop_
_space_group_symop_operation_xyz
x,y,z
-x,y,1/2-z
-x,-y,-z
x,-y,1/2+z
1/2+x,1/2+y,z
1/2-x,1/2+y,1/2-z
1/2-x,1/2-y,-z
1/2+x,1/2-y,1/2+z
loop_
_atom_site_type_symbol
_atom_site_label
_atom_site_fract_x
_atom_site_fract_y
_atom_site_fract_z
Si Si1 0.152189 0.732721 0.957772
Si Si2 0.500000 0.553675 0.250000
Si Si3 0.613730 0.860572 0.222345
Si Si4 0.634569 0.362985 0.880860
Si Si5 0.336708 0.536298 0.924737
Si Si6 0.157527 0.387727 0.873910
Si Si7 0.700229 0.015210 0.745934
Si Si8 0.000000 0.670691 0.250000
O O1 0.158785 0.683668 0.822364
O O2 0.110226 0.793870 0.910586
O O3 0.250000 0.750000 0.000000
O O4 0.076368 0.708141 0.115572
O O5 0.434788 0.596795 0.183924
O O6 0.573782 0.510413 0.122886
O O7 0.500000 0.845720 0.250000
O O8 0.626586 0.929668 0.266775
O O9 0.661635 0.862347 0.035888
O O10 0.744054 0.366606 0.758534
O O11 0.634682 0.398528 0.033228
O O12 0.293733 0.539378 0.786050
O O13 0.248888 0.512192 0.074594
O O14 0.157311 0.459658 0.859391
O O15 0.062960 0.366406 0.834229
#
# Coordination Sequence:
#
# PCOD9303141 Si02
#       8
#     8   4   8   8   8   8   8   4
#     4  12  27  50  69  99 139 187 238 289 352 420
#     4  12  22  41  68 105 136 176 232 284 346 416
#     4  12  26  43  72 103 136 182 237 286 340 424
#     4  11  25  43  69  95 140 180 224 285 346 414
#     4  11  22  42  67  97 139 175 221 282 345 412
#     4  11  24  46  69 103 136 182 227 294 352 416
#     4  11  23  42  66 103 138 176 224 284 357 408
#     4  12  26  47  72  97 140 182 238 294 350 416
#
# _framework density 20.134108999999999
#
# number of rings (size 3 to 8) (size 9 to 14) (size 15 to 20)
#    0.000    0.571    7.143    1.286    4.000    1.714 
#    5.143    0.000    0.000    0.000    0.000    0.000 
#    0.000    0.000    0.000    0.000    0.000    0.000 
#
# Total GULP energy -156351.762396 kJ/mol
# GULP energy per Si atom -5583.991514 kJ/mol
# Density = 2.008828 g / cm^3
# Si number density = 20.134109 Si / 1000 Ang^3
#
#
#
# Elastic Constant Matrix: (Units=GPa)
#
#
# Indices 1 2 3 4 5 6 
#
# 1 85.7416 13.2465 23.4514 0.0000 -4.8178 0.0000
# 2 13.2465 116.4478 43.5058 0.0000 -0.5515 0.0000
# 3 23.4514 43.5058 89.9215 0.0000 9.5643 0.0000
# 4 0.0000 0.0000 0.0000 23.9879 0.0000 6.3606
# 5 -4.8178 -0.5515 9.5643 0.0000 22.1951 0.0000
# 6 0.0000 0.0000 0.0000 6.3606 0.0000 41.6666
#
#
#
# Elastic Compliance Matrix: (Units=1/GPa)
#
#
# Indices 1 2 3 4 5 6 
#
# 1 0.012970 -0.000015 -0.003851 0.000000 0.004474 0.000000
# 2 -0.000015 0.010623 -0.005412 0.000000 0.002593 0.000000
# 3 -0.003851 -0.005412 0.015560 0.000000 -0.007675 0.000000
# 4 0.000000 0.000000 0.000000 0.043446 0.000000 -0.006632
# 5 0.004474 0.002593 -0.007675 0.000000 0.049398 0.000000
# 6 0.000000 0.000000 0.000000 -0.006632 0.000000 0.025012
#
#
# Mechanical properties :
#
#
# Convention : Reuss Voigt Hill
#
# Bulk Modulus (GPa) = 48.55033 50.27983 49.41508
# Shear Modulus (GPa) = 27.40749 31.69705 29.55227
#
# Velocity S-wave (km/s) = 3.69351 3.97204 3.83531
# Velocity P-wave (km/s) = 6.50809 6.78696 6.64899
#
# Compressibility (1/GPa) = 0.02059718
#
# Stress axis : x y z
#
# Youngs Moduli (GPa) = 77.10063 94.13222 64.26850
#
# Poissons Ratio (x) = 0.00145 0.24750
# Poissons Ratio (y) = 0.00119 0.34779
# Poissons Ratio (z) = 0.29692 0.50940
#
# Static dielectric constant tensor:
#      x y z
#    x 1.743610 0.000000 0.049060 
#    y 0.000000 1.718790 0.000000 
#    z 0.049060 0.000000 1.768130 
# 
# From -- ./inp_files/42584.got.cif
#   From: 2010.05.17/outbox.cif.g08.bks.cpg/sg15_22_cif.got.tgz:42584.got - 2010.06.03 18:47:42.
