data_PCOD9303412
_publ_section_title
;
Structure prediction by ZEFSAII (Michael W. Deem and Ramdas Pophale) SiO2 
 PCOD9303412
Probable space group: C 2/C
;
_chemical_formula_sum "Si O2"
_cell_formula_units_Z 48
_cell_length_a 16.826497
_cell_length_b 15.128698
_cell_length_c 16.220873
_cell_angle_alpha 90.000000
_cell_angle_beta 27.723885
_cell_angle_gamma 90.000000
_cell_volume 1920.965475
_symmetry_space_group_name_H-M "C 2/C"
_symmetry_group_IT_number 15
_symmetry_cell_setting 'monoclinic'
loop_
_space_group_symop_operation_xyz
x,y,z
-x,y,1/2-z
-x,-y,-z
x,-y,1/2+z
1/2+x,1/2+y,z
1/2-x,1/2+y,1/2-z
1/2-x,1/2-y,-z
1/2+x,1/2-y,1/2+z
loop_
_atom_site_type_symbol
_atom_site_label
_atom_site_fract_x
_atom_site_fract_y
_atom_site_fract_z
Si Si1 0.297050 0.190231 0.588626
Si Si2 0.200873 0.634947 0.080094
Si Si3 0.439407 0.259207 0.055388
Si Si4 0.882206 0.615955 0.984690
Si Si5 0.578252 0.572818 0.366576
Si Si6 0.765236 0.434491 0.409826
O O1 0.284905 0.285201 0.552622
O O2 0.233102 0.127527 0.574845
O O3 0.486829 0.183747 0.450886
O O4 0.186204 0.185941 0.771947
O O5 0.221137 0.540506 0.101220
O O6 0.000000 0.654978 0.250000
O O7 0.586721 0.330559 0.900944
O O8 0.375263 0.213336 0.031493
O O9 0.760528 0.557108 0.156001
O O10 0.809621 0.604428 0.959108
O O11 0.083165 0.594623 0.791167
O O12 0.500000 0.500000 0.500000
O O13 0.426402 0.586974 0.440066
#
# Coordination Sequence:
#
# PCOD9303412 Si02
#       6
#     8   8   8   8   8   8
#     4  11  24  41  71 103 141 190 243 306 376 451
#     4  11  22  44  69 102 145 193 240 303 382 455
#     4  12  24  46  69 105 144 188 248 305 372 446
#     4  11  26  49  73 106 147 197 248 304 373 449
#     4  12  28  47  74 114 148 192 254 315 372 446
#     4  11  26  50  73 106 147 201 248 306 376 449
#
# _framework density 24.987435999999999
#
# number of rings (size 3 to 8) (size 9 to 14) (size 15 to 20)
#    0.000    0.667    5.000    2.500    2.333    1.333 
#    6.000    0.000    0.000    0.000    0.000    0.000 
#    0.000    0.000    0.000    0.000    0.000    0.000 
#
# Total GULP energy -134160.945329 kJ/mol
# GULP energy per Si atom -5590.039389 kJ/mol
# Density = 2.493056 g / cm^3
# Si number density = 24.987436 Si / 1000 Ang^3
#
#
#
# Elastic Constant Matrix: (Units=GPa)
#
#
# Indices 1 2 3 4 5 6 
#
# 1 90.2540 3.7856 2.5102 -0.0008 1.3328 0.0011
# 2 3.7856 71.0718 22.9141 0.0002 21.4771 0.0004
# 3 2.5102 22.9141 139.3632 0.0009 19.7404 -0.0015
# 4 -0.0008 0.0002 0.0009 31.1159 -0.0003 6.4283
# 5 1.3328 21.4771 19.7404 -0.0003 32.8179 0.0003
# 6 0.0011 0.0004 -0.0015 6.4283 0.0003 39.4725
#
#
#
# Elastic Compliance Matrix: (Units=1/GPa)
#
#
# Indices 1 2 3 4 5 6 
#
# 1 0.011106 -0.000549 -0.000106 0.000000 -0.000028 0.000000
# 2 -0.000549 0.017810 -0.001389 0.000000 -0.010798 0.000000
# 3 -0.000106 -0.001389 0.007954 0.000000 -0.003871 0.000000
# 4 0.000000 0.000000 0.000000 0.033257 0.000001 -0.005416
# 5 -0.000028 -0.010798 -0.003871 0.000001 0.039867 0.000000
# 6 0.000000 0.000000 0.000000 -0.005416 0.000000 0.026216
#
#
# Mechanical properties :
#
#
# Convention : Reuss Voigt Hill
#
# Bulk Modulus (GPa) = 30.50339 39.90098 35.20218
# Shear Modulus (GPa) = 33.06302 38.77985 35.92144
#
# Velocity S-wave (km/s) = 3.64151 3.94378 3.79566
# Velocity P-wave (km/s) = 5.46944 6.06143 5.77303
#
# Compressibility (1/GPa) = 0.03278324
#
# Stress axis : x y z
#
# Youngs Moduli (GPa) = 90.03963 56.14707 125.72081
#
# Poissons Ratio (x) = 0.03082 0.01330
# Poissons Ratio (y) = 0.04943 0.17463
# Poissons Ratio (z) = 0.00953 0.07799
#
# Static dielectric constant tensor:
#      x y z
#    x 2.026570 0.000000 -0.002910 
#    y 0.000000 1.968820 0.000000 
#    z -0.002910 0.000000 2.114040 
# 
# From -- ./inp_files/163173.got.cif
#   From: 2010.05.17/outbox.cif.g08.bks.cpg/sg15_82_cif.got.tgz:163173.got - 2010.06.03 18:47:42.
