data_PCOD9303216
_publ_section_title
;
Structure prediction by ZEFSAII (Michael W. Deem and Ramdas Pophale) SiO2 
 PCOD9303216
Probable space group: C 2/C
;
_chemical_formula_sum "Si O2"
_cell_formula_units_Z 36
_cell_length_a 22.282059
_cell_length_b 11.256774
_cell_length_c 13.959259
_cell_angle_alpha 90.000000
_cell_angle_beta 154.470912
_cell_angle_gamma 90.000000
_cell_volume 1508.960715
_symmetry_space_group_name_H-M "C 2/C"
_symmetry_group_IT_number 15
_symmetry_cell_setting 'monoclinic'
loop_
_space_group_symop_operation_xyz
x,y,z
-x,y,1/2-z
-x,-y,-z
x,-y,1/2+z
1/2+x,1/2+y,z
1/2-x,1/2+y,1/2-z
1/2-x,1/2-y,-z
1/2+x,1/2-y,1/2+z
loop_
_atom_site_type_symbol
_atom_site_label
_atom_site_fract_x
_atom_site_fract_y
_atom_site_fract_z
Si Si1 0.361478 0.258371 0.744808
Si Si2 0.024626 0.465970 0.144485
Si Si3 0.689414 0.838203 0.118928
Si Si4 0.000000 0.140816 0.750000
Si Si5 0.670089 0.523017 0.828045
O O1 0.250000 0.250000 0.500000
O O2 0.484004 0.177155 0.874873
O O3 0.304739 0.196936 0.760674
O O4 0.377798 0.397797 0.784482
O O5 0.177357 0.504624 0.401520
O O6 0.000000 0.500000 0.000000
O O7 0.907354 0.542988 0.027112
O O8 0.816519 0.877436 0.235083
O O9 0.614993 0.727911 0.960801
O O10 0.932337 0.063592 0.735863
#
# Coordination Sequence:
#
# PCOD9303216 Si02
#       5
#     8   8   8   4   8
#     4   9  22  43  66 101 135 182 227 297 346 415
#     4   9  19  41  70 100 133 180 232 285 355 421
#     4  11  22  42  72 100 136 188 236 287 356 435
#     4  12  26  42  68 102 142 186 234 298 356 424
#     4  11  23  45  68 104 142 183 242 287 361 422
#
# _framework density 23.857479000000001
#
# number of rings (size 3 to 8) (size 9 to 14) (size 15 to 20)
#    0.000    1.778    2.222    0.667    0.000    6.222 
#   16.000    0.000    0.000    0.000    0.000    0.000 
#    0.000    0.000    0.000    0.000    0.000    0.000 
#
# Total GULP energy -100560.022004 kJ/mol
# GULP energy per Si atom -5586.667889 kJ/mol
# Density = 2.380318 g / cm^3
# Si number density = 23.857479 Si / 1000 Ang^3
#
#
#
# Elastic Constant Matrix: (Units=GPa)
#
#
# Indices 1 2 3 4 5 6 
#
# 1 199.1920 88.0599 45.6951 0.0000 1.6598 0.0000
# 2 88.0599 134.7718 25.8796 0.0000 -3.3439 0.0000
# 3 45.6951 25.8796 80.5417 0.0000 -13.0797 0.0000
# 4 0.0000 0.0000 0.0000 -2.7795 0.0000 -35.2341
# 5 1.6598 -3.3439 -13.0797 0.0000 37.8997 0.0000
# 6 0.0000 0.0000 0.0000 -35.2341 0.0000 28.4740
#
#
#
# Elastic Compliance Matrix: (Units=1/GPa)
#
#
# Indices 1 2 3 4 5 6 
#
# 1 0.007774 -0.004498 -0.003268 0.000000 -0.001865 0.000000
# 2 -0.004498 0.010512 -0.000681 0.000000 0.000889 0.000000
# 3 -0.003268 -0.000681 0.015364 0.000000 0.005385 0.000000
# 4 0.000000 0.000000 0.000000 -0.021562 0.000000 -0.026681
# 5 -0.001865 0.000889 0.005385 0.000000 0.028404 0.000000
# 6 0.000000 0.000000 0.000000 -0.026681 0.000000 0.002105
#
#
# Mechanical properties :
#
#
# Convention : Reuss Voigt Hill
#
# Bulk Modulus (GPa) = 59.68582 81.53052 70.60817
# Shear Modulus (GPa) = 76.83181 29.71024 53.27103
#
# Velocity S-wave (km/s) = 5.68106 3.53274 4.73047
# Velocity P-wave (km/s) = 8.25255 7.13362 7.71340
#
# Compressibility (1/GPa) = 0.01675440
#
# Stress axis : x y z
#
# Youngs Moduli (GPa) = 128.63021 95.12878 65.08928
#
# Poissons Ratio (x) = 0.42793 0.21272
# Poissons Ratio (y) = 0.57863 0.04433
# Poissons Ratio (z) = 0.42039 0.06480
#
# Static dielectric constant tensor:
#      x y z
#    x 2.042410 0.000000 0.313930 
#    y 0.000000 1.986010 0.000000 
#    z 0.313930 0.000000 2.463860 
# 
# From -- ./inp_files/167778.got.cif
#   From: 2010.05.17/outbox.cif.g08.bks.cpg/sg15_84_cif.got.tgz:167778.got - 2010.06.03 18:47:42.
