data_PCOD9303919
_publ_section_title
;
Structure prediction by ZEFSAII (Michael W. Deem and Ramdas Pophale) SiO2 
 PCOD9303919
Probable space group: C 2/C
;
_chemical_formula_sum "Si O2"
_cell_formula_units_Z 32
_cell_length_a 24.576012
_cell_length_b 4.986481
_cell_length_c 17.778055
_cell_angle_alpha 90.000000
_cell_angle_beta 134.663373
_cell_angle_gamma 90.000000
_cell_volume 1549.571008
_symmetry_space_group_name_H-M "C 2/C"
_symmetry_group_IT_number 15
_symmetry_cell_setting 'monoclinic'
loop_
_space_group_symop_operation_xyz
x,y,z
-x,y,1/2-z
-x,-y,-z
x,-y,1/2+z
1/2+x,1/2+y,z
1/2-x,1/2+y,1/2-z
1/2-x,1/2-y,-z
1/2+x,1/2-y,1/2+z
loop_
_atom_site_type_symbol
_atom_site_label
_atom_site_fract_x
_atom_site_fract_y
_atom_site_fract_z
Si Si1 0.923844 0.357498 0.127277
Si Si2 0.712919 0.567171 0.681106
Si Si3 0.819168 0.122494 0.519713
Si Si4 0.954148 0.248488 0.985659
O O1 0.000000 0.383805 0.250000
O O2 0.866637 0.212328 0.875530
O O3 0.881449 0.640174 0.074307
O O4 0.950072 0.254631 0.071416
O O5 0.725990 0.300722 0.743087
O O6 0.637971 0.637527 0.403730
O O7 0.750000 0.250000 0.500000
O O8 0.791023 0.029224 0.409489
O O9 0.000000 0.500000 0.000000
O O10 0.000000 0.000000 0.000000
#
# Coordination Sequence:
#
# PCOD9303919 Si02
#       4
#     8   8   8   8
#     4  11  24  43  63  92 127 164 208 257 306 368
#     4  11  23  41  64  93 127 163 206 257 307 366
#     4  11  24  43  64  92 127 164 207 257 308 368
#     4  11  23  41  63  91 124 161 205 255 305 364
#
# _framework density 20.650877999999999
#
# number of rings (size 3 to 8) (size 9 to 14) (size 15 to 20)
#    0.000    1.000    0.000    9.000    0.000    6.000 
#    0.000    0.000    0.000    0.000    0.000    0.000 
#    0.000    0.000    0.000    0.000    0.000    0.000 
#
# Total GULP energy -89444.957642 kJ/mol
# GULP energy per Si atom -5590.309853 kJ/mol
# Density = 2.060388 g / cm^3
# Si number density = 20.650878 Si / 1000 Ang^3
#
#
#
# Elastic Constant Matrix: (Units=GPa)
#
#
# Indices 1 2 3 4 5 6 
#
# 1 89.1069 40.0228 43.1582 0.0003 15.0771 -0.0002
# 2 40.0228 169.1141 66.2513 0.0041 4.5827 0.0056
# 3 43.1582 66.2513 143.9155 -0.0001 9.7029 0.0005
# 4 0.0003 0.0041 -0.0001 50.1397 -0.0005 20.9029
# 5 15.0771 4.5827 9.7029 -0.0005 10.3033 -0.0002
# 6 -0.0002 0.0056 0.0005 20.9029 -0.0002 49.6276
#
#
#
# Elastic Compliance Matrix: (Units=1/GPa)
#
#
# Indices 1 2 3 4 5 6 
#
# 1 0.017261 -0.002492 -0.002564 0.000000 -0.021736 0.000000
# 2 -0.002492 0.007574 -0.002945 0.000000 0.003051 -0.000001
# 3 -0.002564 -0.002945 0.009324 0.000000 -0.003719 0.000000
# 4 0.000000 0.000000 0.000000 0.024192 0.000001 -0.010190
# 5 -0.021736 0.003051 -0.003719 0.000001 0.131008 0.000000
# 6 0.000000 -0.000001 0.000000 -0.010190 0.000000 0.024442
#
#
# Mechanical properties :
#
#
# Convention : Reuss Voigt Hill
#
# Bulk Modulus (GPa) = 55.07303 77.88902 66.48102
# Shear Modulus (GPa) = 21.19941 38.86106 30.03024
#
# Velocity S-wave (km/s) = 3.20748 4.34269 3.81752
# Velocity P-wave (km/s) = 6.35954 7.93374 7.18985
#
# Compressibility (1/GPa) = 0.01815771
#
# Stress axis : x y z
#
# Youngs Moduli (GPa) = 57.93335 132.03177 107.25112
#
# Poissons Ratio (x) = 0.32897 0.27498
# Poissons Ratio (y) = 0.14435 0.31587
# Poissons Ratio (z) = 0.14854 0.38885
#
# Static dielectric constant tensor:
#      x y z
#    x 1.724680 0.000000 0.020310 
#    y 0.000000 1.728130 0.000000 
#    z 0.020310 0.000000 1.740240 
# 
# From -- ./inp_files/223763.got.cif
#   From: 2010.05.17/outbox.cif.g08.bks.cpg/sg15_112_cif.got.tgz:223763.got - 2010.06.03 18:47:42.
