data_PCOD9303483
_publ_section_title
;
Structure prediction by ZEFSAII (Michael W. Deem and Ramdas Pophale) SiO2 
 PCOD9303483
Probable space group: C 2/C
;
_chemical_formula_sum "Si O2"
_cell_formula_units_Z 52
_cell_length_a 21.847792
_cell_length_b 10.658706
_cell_length_c 12.077331
_cell_angle_alpha 90.000000
_cell_angle_beta 52.851864
_cell_angle_gamma 90.000000
_cell_volume 2241.729532
_symmetry_space_group_name_H-M "C 2/C"
_symmetry_group_IT_number 15
_symmetry_cell_setting 'monoclinic'
loop_
_space_group_symop_operation_xyz
x,y,z
-x,y,1/2-z
-x,-y,-z
x,-y,1/2+z
1/2+x,1/2+y,z
1/2-x,1/2+y,1/2-z
1/2-x,1/2-y,-z
1/2+x,1/2-y,1/2+z
loop_
_atom_site_type_symbol
_atom_site_label
_atom_site_fract_x
_atom_site_fract_y
_atom_site_fract_z
Si Si1 0.719148 0.499576 0.365378
Si Si2 0.854732 0.578623 0.362208
Si Si3 0.451143 0.290331 0.188875
Si Si4 0.409511 0.542080 0.321327
Si Si5 0.201456 0.703859 0.859987
Si Si6 0.000000 0.582908 0.750000
Si Si7 0.560734 0.250168 0.874879
O O1 0.788618 0.497715 0.378544
O O2 0.641384 0.463490 0.514022
O O3 0.737514 0.394407 0.254618
O O4 0.716811 0.646672 0.331929
O O5 0.899573 0.668149 0.227121
O O6 0.816664 0.669684 0.493946
O O7 0.922081 0.496725 0.342911
O O8 0.500000 0.269614 0.250000
O O9 0.400102 0.410708 0.269365
O O10 0.507036 0.314865 0.025269
O O11 0.500000 0.551590 0.250000
O O12 0.394352 0.654495 0.254172
O O13 0.123209 0.676801 0.877795
O O14 0.010678 0.665430 0.848119
#
# Coordination Sequence:
#
# PCOD9303483 Si02
#       7
#     8   8   8   8   8   4   8
#     4  12  29  48  77 112 154 200 255 318 387 458
#     4  12  25  48  74 109 152 195 254 314 381 463
#     4  11  22  44  74 104 143 195 256 309 374 453
#     4  11  25  48  71 105 148 195 249 313 379 452
#     4  12  27  49  76 112 151 207 252 318 384 453
#     4  12  26  46  74 116 152 200 250 310 388 450
#     4  12  25  46  75 112 152 197 254 315 379 452
#
# _framework density 23.196376000000001
#
# number of rings (size 3 to 8) (size 9 to 14) (size 15 to 20)
#    0.000    0.308    6.154    1.846    4.308    4.308 
#    0.000    0.000    0.000    0.000    0.000    0.000 
#    0.000    0.000    0.000    0.000    0.000    0.000 
#
# Total GULP energy -145537.091541 kJ/mol
# GULP energy per Si atom -5597.580444 kJ/mol
# Density = 2.314358 g / cm^3
# Si number density = 23.196376 Si / 1000 Ang^3
#
#
#
# Elastic Constant Matrix: (Units=GPa)
#
#
# Indices 1 2 3 4 5 6 
#
# 1 111.6877 7.0291 13.4378 0.0000 -4.3085 0.0000
# 2 7.0291 85.7348 58.9166 0.0000 -0.0163 0.0000
# 3 13.4378 58.9166 99.2850 0.0000 -8.1805 0.0000
# 4 0.0000 0.0000 0.0000 42.4480 0.0000 -1.9260
# 5 -4.3085 -0.0163 -8.1805 0.0000 28.8513 0.0000
# 6 0.0000 0.0000 0.0000 -1.9260 0.0000 6.2816
#
#
#
# Elastic Compliance Matrix: (Units=1/GPa)
#
#
# Indices 1 2 3 4 5 6 
#
# 1 0.009132 0.000072 -0.001194 0.000000 0.001025 0.000000
# 2 0.000072 0.020024 -0.012175 0.000000 -0.003430 0.000000
# 3 -0.001194 -0.012175 0.017860 0.000000 0.004879 0.000000
# 4 0.000000 0.000000 0.000000 0.023891 0.000000 0.007325
# 5 0.001025 -0.003430 0.004879 0.000000 0.036195 0.000000
# 6 0.000000 0.000000 0.000000 0.007325 0.000000 0.161442
#
#
# Mechanical properties :
#
#
# Convention : Reuss Voigt Hill
#
# Bulk Modulus (GPa) = 48.96546 50.60829 49.78688
# Shear Modulus (GPa) = 16.55936 30.00445 23.28190
#
# Velocity S-wave (km/s) = 2.67475 3.60042 3.17154
# Velocity P-wave (km/s) = 5.54021 6.25690 5.90943
#
# Compressibility (1/GPa) = 0.02042256
#
# Stress axis : x y z
#
# Youngs Moduli (GPa) = 109.50213 49.94109 55.99057
#
# Poissons Ratio (x) = -0.00361 0.06688
# Poissons Ratio (y) = -0.00792 0.68166
# Poissons Ratio (z) = 0.13079 0.60801
#
# Static dielectric constant tensor:
#      x y z
#    x 1.926590 0.000000 -0.002630 
#    y 0.000000 1.911510 0.000000 
#    z -0.002630 0.000000 1.828330 
# 
# From -- ./inp_files/117926.got.cif
#   From: 2010.05.17/outbox.cif.g08.bks.cpg/sg15_59_cif.got.tgz:117926.got - 2010.06.03 18:47:42.
