data_PCOD9303027
_publ_section_title
;
Structure prediction by ZEFSAII (Michael W. Deem and Ramdas Pophale) SiO2 
 PCOD9303027
Probable space group: C 2/C
;
_chemical_formula_sum "Si O2"
_cell_formula_units_Z 60
_cell_length_a 15.637996
_cell_length_b 11.398132
_cell_length_c 22.343555
_cell_angle_alpha 90.000000
_cell_angle_beta 130.659746
_cell_angle_gamma 90.000000
_cell_volume 3021.172186
_symmetry_space_group_name_H-M "C 2/C"
_symmetry_group_IT_number 15
_symmetry_cell_setting 'monoclinic'
loop_
_space_group_symop_operation_xyz
x,y,z
-x,y,1/2-z
-x,-y,-z
x,-y,1/2+z
1/2+x,1/2+y,z
1/2-x,1/2+y,1/2-z
1/2-x,1/2-y,-z
1/2+x,1/2-y,1/2+z
loop_
_atom_site_type_symbol
_atom_site_label
_atom_site_fract_x
_atom_site_fract_y
_atom_site_fract_z
Si Si1 0.255402 0.733443 0.659226
Si Si2 0.929145 0.035804 0.314590
Si Si3 0.261067 0.316609 0.413632
Si Si4 0.076666 0.461279 0.091383
Si Si5 0.000000 0.150017 0.750000
Si Si6 0.126403 0.031474 0.078496
Si Si7 0.068380 0.267280 0.408331
Si Si8 0.783620 0.328293 0.806441
O O1 0.187166 0.612087 0.621149
O O2 0.382395 0.721561 0.691702
O O3 0.172885 0.835831 0.596592
O O4 0.271604 0.766848 0.736750
O O5 0.873022 0.995614 0.351257
O O6 0.829302 0.096840 0.232678
O O7 0.009784 0.142500 0.370614
O O8 0.984953 0.934355 0.301101
O O9 0.292155 0.452272 0.423898
O O10 0.134914 0.300281 0.378853
O O11 0.341970 0.252203 0.497750
O O12 0.288971 0.262660 0.362436
O O13 0.115510 0.578321 0.143484
O O14 0.013567 0.369381 0.106119
O O15 0.000000 0.500000 0.000000
O O16 0.000000 0.000000 0.000000
#
# Coordination Sequence:
#
# PCOD9303027 Si02
#       8
#     8   8   8   8   4   8   8   8
#     4  11  26  43  68 102 134 178 229 274 337 412
#     4  11  22  41  68  92 131 179 218 270 334 397
#     4  11  23  39  65 100 128 170 219 274 331 390
#     4  12  23  44  68  98 135 173 223 283 337 400
#     4  12  24  44  66 100 142 174 226 280 336 406
#     4  11  22  44  68  92 136 179 215 272 338 407
#     4  11  23  41  65 100 132 165 230 275 321 406
#     4  11  23  41  69  96 129 177 217 272 340 395
#
# _framework density 19.859842
#
# number of rings (size 3 to 8) (size 9 to 14) (size 15 to 20)
#    0.000    0.800    6.667    1.600    1.867    1.067 
#    0.000    0.667    0.000    0.000    0.000    0.000 
#    0.000    0.000    0.000    0.000    0.000    0.000 
#
# Total GULP energy -167474.437427 kJ/mol
# GULP energy per Si atom -5582.481248 kJ/mol
# Density = 1.981464 g / cm^3
# Si number density = 19.859842 Si / 1000 Ang^3
#
#
#
# Elastic Constant Matrix: (Units=GPa)
#
#
# Indices 1 2 3 4 5 6 
#
# 1 84.4727 35.8498 1.2276 0.0000 19.1979 0.0000
# 2 35.8498 76.4474 35.2520 0.0000 4.4571 0.0000
# 3 1.2276 35.2520 69.1986 0.0000 15.9651 0.0000
# 4 0.0000 0.0000 0.0000 40.2822 0.0000 3.0648
# 5 19.1979 4.4571 15.9651 0.0000 25.7107 0.0000
# 6 0.0000 0.0000 0.0000 3.0648 0.0000 38.6371
#
#
#
# Elastic Compliance Matrix: (Units=1/GPa)
#
#
# Indices 1 2 3 4 5 6 
#
# 1 0.023389 -0.015511 0.012717 0.000000 -0.022672 0.000000
# 2 -0.015511 0.027565 -0.017901 0.000000 0.017919 0.000000
# 3 0.012717 -0.017901 0.028970 0.000000 -0.024382 0.000000
# 4 0.000000 0.000000 0.000000 0.024976 0.000000 -0.001981
# 5 -0.022672 0.017919 -0.024382 0.000000 0.067857 0.000000
# 6 0.000000 0.000000 0.000000 -0.001981 0.000000 0.026039
#
#
# Mechanical properties :
#
#
# Convention : Reuss Voigt Hill
#
# Bulk Modulus (GPa) = 25.95072 41.64193 33.79632
# Shear Modulus (GPa) = 19.76063 31.44526 25.60294
#
# Velocity S-wave (km/s) = 3.15779 3.98346 3.59441
# Velocity P-wave (km/s) = 5.13720 6.49390 5.85498
#
# Compressibility (1/GPa) = 0.03853458
#
# Stress axis : x y z
#
# Youngs Moduli (GPa) = 42.75601 36.27844 34.51814
#
# Poissons Ratio (x) = 0.56270 -0.43898
# Poissons Ratio (y) = 0.66317 0.61792
# Poissons Ratio (z) = -0.54374 0.64943
#
# Static dielectric constant tensor:
#      x y z
#    x 1.704070 0.000000 0.019510 
#    y 0.000000 1.765900 0.000000 
#    z 0.019510 0.000000 1.721370 
# 
# From -- ./inp_files/273859.got.cif
#   From: 2010.05.17/outbox.cif.g08.bks.cpg/sg15_137_cif.got.tgz:273859.got - 2010.06.03 18:47:42.
