data_PCOD9303033
_publ_section_title
;
Structure prediction by ZEFSAII (Michael W. Deem and Ramdas Pophale) SiO2 
 PCOD9303033
Probable space group: C 2/C
;
_chemical_formula_sum "Si O2"
_cell_formula_units_Z 40
_cell_length_a 12.394943
_cell_length_b 8.013230
_cell_length_c 19.351830
_cell_angle_alpha 90.000000
_cell_angle_beta 107.914459
_cell_angle_gamma 90.000000
_cell_volume 1828.902896
_symmetry_space_group_name_H-M "C 2/C"
_symmetry_group_IT_number 15
_symmetry_cell_setting 'monoclinic'
loop_
_space_group_symop_operation_xyz
x,y,z
-x,y,1/2-z
-x,-y,-z
x,-y,1/2+z
1/2+x,1/2+y,z
1/2-x,1/2+y,1/2-z
1/2-x,1/2-y,-z
1/2+x,1/2-y,1/2+z
loop_
_atom_site_type_symbol
_atom_site_label
_atom_site_fract_x
_atom_site_fract_y
_atom_site_fract_z
Si Si1 0.228169 0.613968 0.938075
Si Si2 0.092589 0.147317 0.018258
Si Si3 0.944589 0.366137 0.620406
Si Si4 0.796867 0.683109 0.319857
Si Si5 0.737684 0.803800 0.160887
O O1 0.292153 0.449892 0.978701
O O2 0.100811 0.554575 0.897801
O O3 0.281232 0.680240 0.877014
O O4 0.250000 0.750000 0.000000
O O5 0.129930 0.236257 0.096478
O O6 0.056290 0.281086 0.954999
O O7 0.000000 0.000000 0.000000
O O8 0.851109 0.273586 0.649031
O O9 0.071087 0.344452 0.672438
O O10 0.732927 0.742138 0.238747
O O11 0.755471 0.503696 0.338764
#
# Coordination Sequence:
#
# PCOD9303033 Si02
#       5
#     8   8   8   8   8
#     4  11  23  41  69 101 132 172 231 276 332 410
#     4  11  22  41  68  96 133 176 220 274 336 398
#     4  11  24  44  68  98 133 179 223 276 340 404
#     4  12  25  45  68  96 140 177 222 289 340 398
#     4  11  25  44  66  99 136 175 228 278 339 407
#
# _framework density 21.871034999999999
#
# number of rings (size 3 to 8) (size 9 to 14) (size 15 to 20)
#    0.000    0.800    2.000    7.800    2.800    1.600 
#    0.000    0.000    0.000    0.000    0.000    0.000 
#    0.000    0.000    0.000    0.000    0.000    0.000 
#
# Total GULP energy -111845.077620 kJ/mol
# GULP energy per Si atom -5592.253881 kJ/mol
# Density = 2.182126 g / cm^3
# Si number density = 21.871035 Si / 1000 Ang^3
#
#
#
# Elastic Constant Matrix: (Units=GPa)
#
#
# Indices 1 2 3 4 5 6 
#
# 1 65.1345 8.7250 11.3460 0.0000 -0.9604 0.0000
# 2 8.7250 78.7148 7.8642 0.0000 5.0479 0.0000
# 3 11.3460 7.8642 108.4405 0.0000 12.3641 0.0000
# 4 0.0000 0.0000 0.0000 31.0451 0.0000 -2.5136
# 5 -0.9604 5.0479 12.3641 0.0000 25.9326 0.0000
# 6 0.0000 0.0000 0.0000 -2.5136 0.0000 41.8810
#
#
#
# Elastic Compliance Matrix: (Units=1/GPa)
#
#
# Indices 1 2 3 4 5 6 
#
# 1 0.015910 -0.001702 -0.001741 0.000000 0.001750 0.000000
# 2 -0.001702 0.013095 -0.000501 0.000000 -0.002373 0.000000
# 3 -0.001741 -0.000501 0.009979 0.000000 -0.004725 0.000000
# 4 0.000000 0.000000 0.000000 0.032368 0.000000 0.001943
# 5 0.001750 -0.002373 -0.004725 0.000000 0.041341 0.000000
# 6 0.000000 0.000000 0.000000 0.001943 0.000000 0.023994
#
#
# Mechanical properties :
#
#
# Convention : Reuss Voigt Hill
#
# Bulk Modulus (GPa) = 32.15812 34.24003 33.19907
# Shear Modulus (GPa) = 32.27067 34.72872 33.49969
#
# Velocity S-wave (km/s) = 3.84539 3.98915 3.91793
# Velocity P-wave (km/s) = 5.86954 6.07513 5.97322
#
# Compressibility (1/GPa) = 0.03109634
#
# Stress axis : x y z
#
# Youngs Moduli (GPa) = 62.85408 76.36519 100.21236
#
# Poissons Ratio (x) = 0.12996 0.17445
# Poissons Ratio (y) = 0.10697 0.05021
# Poissons Ratio (z) = 0.10942 0.03826
#
# Static dielectric constant tensor:
#      x y z
#    x 1.867230 0.000000 0.036720 
#    y 0.000000 1.797830 0.000000 
#    z 0.036720 0.000000 1.812580 
# 
# From -- ./inp_files/195176.got.cif
#   From: 2010.05.17/outbox.cif.g08.bks.cpg/sg15_98_cif.got.tgz:195176.got - 2010.06.03 18:47:42.
