data_PCOD9303420
_publ_section_title
;
Structure prediction by ZEFSAII (Michael W. Deem and Ramdas Pophale) SiO2 
 PCOD9303420
Probable space group: C 2/C
;
_chemical_formula_sum "Si O2"
_cell_formula_units_Z 52
_cell_length_a 5.050542
_cell_length_b 17.948629
_cell_length_c 26.463282
_cell_angle_alpha 90.000000
_cell_angle_beta 107.047711
_cell_angle_gamma 90.000000
_cell_volume 2293.499016
_symmetry_space_group_name_H-M "C 2/C"
_symmetry_group_IT_number 15
_symmetry_cell_setting 'monoclinic'
loop_
_space_group_symop_operation_xyz
x,y,z
-x,y,1/2-z
-x,-y,-z
x,-y,1/2+z
1/2+x,1/2+y,z
1/2-x,1/2+y,1/2-z
1/2-x,1/2-y,-z
1/2+x,1/2-y,1/2+z
loop_
_atom_site_type_symbol
_atom_site_label
_atom_site_fract_x
_atom_site_fract_y
_atom_site_fract_z
Si Si1 0.282334 0.771570 0.618149
Si Si2 0.500000 0.514833 0.250000
Si Si3 0.000000 0.405709 0.250000
Si Si4 0.817479 0.328994 0.135973
Si Si5 0.522332 0.601131 0.152813
Si Si6 0.361485 0.517122 0.920321
Si Si7 0.500000 0.000000 0.000000
Si Si8 0.016987 0.614238 0.443756
O O1 0.565335 0.726353 0.633969
O O2 0.278696 0.824263 0.567387
O O3 0.038814 0.713621 0.613924
O O4 0.236496 0.831137 0.661027
O O5 0.254507 0.460346 0.252379
O O6 0.426132 0.569722 0.200240
O O7 0.057109 0.357076 0.303485
O O8 0.711258 0.400499 0.099517
O O9 0.659653 0.532489 0.131173
O O10 0.254411 0.623340 0.104951
O O11 0.135105 0.473662 0.943509
O O12 0.666952 0.508160 0.958749
O O13 0.540171 0.097432 0.001888
#
# Coordination Sequence:
#
# PCOD9303420 Si02
#       8
#     8   4   4   8   8   8   4   8
#     4  11  25  42  65  96 144 175 214 276 338 414
#     4  12  26  41  74 103 126 176 240 284 324 401
#     4  12  26  45  66 105 132 178 234 286 324 411
#     4  12  24  44  66  97 140 181 215 281 346 403
#     4  11  22  44  69  96 139 174 231 281 335 398
#     4   9  21  40  69  97 128 174 225 280 333 393
#     4   8  20  40  74 100 128 172 242 282 338 400
#     4   9  20  44  66 100 128 178 222 285 324 405
#
# _framework density 22.672778999999998
#
# number of rings (size 3 to 8) (size 9 to 14) (size 15 to 20)
#    0.923    0.615    3.077    1.846    4.308    1.231 
#    2.769    1.538    0.000    0.000    0.000    0.000 
#    0.000    0.000    0.000    0.000    0.000    0.000 
#
# Total GULP energy -144902.679879 kJ/mol
# GULP energy per Si atom -5573.179995 kJ/mol
# Density = 2.262117 g / cm^3
# Si number density = 22.672779 Si / 1000 Ang^3
#
#
#
# Elastic Constant Matrix: (Units=GPa)
#
#
# Indices 1 2 3 4 5 6 
#
# 1 140.3019 52.6381 33.7848 0.0000 11.4201 0.0000
# 2 52.6381 131.8325 31.2686 0.0000 1.5556 0.0000
# 3 33.7848 31.2686 60.2799 0.0000 -8.7719 0.0000
# 4 0.0000 0.0000 0.0000 17.5993 0.0000 -9.3400
# 5 11.4201 1.5556 -8.7719 0.0000 24.9235 0.0000
# 6 0.0000 0.0000 0.0000 -9.3400 0.0000 52.6440
#
#
#
# Elastic Compliance Matrix: (Units=1/GPa)
#
#
# Indices 1 2 3 4 5 6 
#
# 1 0.009832 -0.002664 -0.005017 0.000000 -0.006105 0.000000
# 2 -0.002664 0.009491 -0.003519 0.000000 -0.000610 0.000000
# 3 -0.005017 -0.003519 0.022759 0.000000 0.010528 0.000000
# 4 0.000000 0.000000 0.000000 0.062726 0.000000 0.011129
# 5 -0.006105 -0.000610 0.010528 0.000000 0.046663 0.000000
# 6 0.000000 0.000000 0.000000 0.011129 0.000000 0.020970
#
#
# Mechanical properties :
#
#
# Convention : Reuss Voigt Hill
#
# Bulk Modulus (GPa) = 50.80829 63.08859 56.94844
# Shear Modulus (GPa) = 24.82610 33.34823 29.08717
#
# Velocity S-wave (km/s) = 3.31263 3.83933 3.58566
# Velocity P-wave (km/s) = 6.09010 6.89493 6.50497
#
# Compressibility (1/GPa) = 0.01968183
#
# Stress axis : x y z
#
# Youngs Moduli (GPa) = 101.71054 105.36529 43.93943
#
# Poissons Ratio (x) = 0.28066 0.22044
# Poissons Ratio (y) = 0.27092 0.15462
# Poissons Ratio (z) = 0.51028 0.37078
#
# Static dielectric constant tensor:
#      x y z
#    x 1.896410 0.000000 -0.072970 
#    y 0.000000 1.905380 0.000000 
#    z -0.072970 0.000000 1.871560 
# 
# From -- ./inp_files/285845.got.cif
#   From: 2010.05.17/outbox.cif.g08.bks.cpg/sg15_143_cif.got.tgz:285845.got - 2010.06.03 18:47:42.
