data_PCOD9303125
_publ_section_title
;
Structure prediction by ZEFSAII (Michael W. Deem and Ramdas Pophale) SiO2 
 PCOD9303125
Probable space group: C 2/C
;
_chemical_formula_sum "Si O2"
_cell_formula_units_Z 60
_cell_length_a 13.068920
_cell_length_b 21.082373
_cell_length_c 17.926759
_cell_angle_alpha 90.000000
_cell_angle_beta 141.861902
_cell_angle_gamma 90.000000
_cell_volume 3050.278036
_symmetry_space_group_name_H-M "C 2/C"
_symmetry_group_IT_number 15
_symmetry_cell_setting 'monoclinic'
loop_
_space_group_symop_operation_xyz
x,y,z
-x,y,1/2-z
-x,-y,-z
x,-y,1/2+z
1/2+x,1/2+y,z
1/2-x,1/2+y,1/2-z
1/2-x,1/2-y,-z
1/2+x,1/2-y,1/2+z
loop_
_atom_site_type_symbol
_atom_site_label
_atom_site_fract_x
_atom_site_fract_y
_atom_site_fract_z
Si Si1 0.000000 0.234079 0.750000
Si Si2 0.569287 0.381727 0.383764
Si Si3 0.903129 0.444742 0.773227
Si Si4 0.043850 0.732690 0.009534
Si Si5 0.285432 0.334719 0.890922
Si Si6 0.383251 0.208238 0.755011
Si Si7 0.232766 0.426577 0.252688
Si Si8 0.619183 0.897648 0.031284
O O1 0.994665 0.188346 0.675433
O O2 0.844589 0.279052 0.669976
O O3 0.697318 0.373483 0.523661
O O4 0.420831 0.423606 0.330103
O O5 0.686882 0.399199 0.381962
O O6 0.779730 0.384618 0.705770
O O7 0.807724 0.511066 0.724146
O O8 0.000000 0.441392 0.750000
O O9 0.020872 0.435319 0.912050
O O10 0.955913 0.799798 0.974003
O O11 0.994986 0.722169 0.893572
O O12 0.232099 0.742974 0.147425
O O13 0.952988 0.674305 0.001217
O O14 0.500000 0.206030 0.750000
O O15 0.304699 0.138886 0.725950
O O16 0.116533 0.425942 0.112471
#
# Coordination Sequence:
#
# PCOD9303125 Si02
#       8
#     4   8   8   8   8   8   8   8
#     4  12  20  36  64 100 132 154 202 258 342 390
#     4  12  21  38  64  95 129 161 201 269 334 384
#     4  12  25  41  59  89 129 176 216 260 317 391
#     4  11  23  40  69  99 130 162 215 279 345 393
#     4  12  23  35  61  99 130 159 201 267 335 396
#     4  11  23  43  64  92 127 175 222 273 323 387
#     4  11  24  42  61  88 126 176 219 260 314 399
#     4  11  22  42  66  93 123 162 213 268 333 387
#
# _framework density 19.670337
#
# number of rings (size 3 to 8) (size 9 to 14) (size 15 to 20)
#    0.000    0.533    6.000    3.200    1.867    0.533 
#    0.000    0.000    0.000    9.600    0.000    0.000 
#    0.000    0.000    0.000    0.000    0.000    0.000 
#
# Total GULP energy -167348.296122 kJ/mol
# GULP energy per Si atom -5578.276537 kJ/mol
# Density = 1.962557 g / cm^3
# Si number density = 19.670337 Si / 1000 Ang^3
#
#
#
# Elastic Constant Matrix: (Units=GPa)
#
#
# Indices 1 2 3 4 5 6 
#
# 1 85.4048 37.2338 24.2116 0.0004 4.4643 0.0000
# 2 37.2338 78.7610 31.8983 0.0002 6.3038 0.0000
# 3 24.2116 31.8983 90.3137 0.0012 2.6359 0.0001
# 4 0.0004 0.0002 0.0012 24.7482 0.0003 6.8697
# 5 4.4643 6.3038 2.6359 0.0003 22.2870 0.0000
# 6 0.0000 0.0000 0.0001 6.8697 0.0000 33.8701
#
#
#
# Elastic Compliance Matrix: (Units=1/GPa)
#
#
# Indices 1 2 3 4 5 6 
#
# 1 0.015009 -0.006297 -0.001770 0.000000 -0.001016 0.000000
# 2 -0.006297 0.017749 -0.004486 0.000000 -0.003228 0.000000
# 3 -0.001770 -0.004486 0.013130 -0.000001 0.000071 0.000000
# 4 0.000000 0.000000 -0.000001 0.042818 -0.000001 -0.008684
# 5 -0.001016 -0.003228 0.000071 -0.000001 0.045978 0.000000
# 6 0.000000 0.000000 0.000000 -0.008684 0.000000 0.031286
#
#
# Mechanical properties :
#
#
# Convention : Reuss Voigt Hill
#
# Bulk Modulus (GPa) = 48.12221 49.01855 48.57038
# Shear Modulus (GPa) = 25.25211 26.92344 26.08778
#
# Velocity S-wave (km/s) = 3.58685 3.70365 3.64572
# Velocity P-wave (km/s) = 6.45535 6.57750 6.51671
#
# Compressibility (1/GPa) = 0.02078042
#
# Stress axis : x y z
#
# Youngs Moduli (GPa) = 66.62538 56.34080 76.16432
#
# Poissons Ratio (x) = 0.35480 0.13480
# Poissons Ratio (y) = 0.41957 0.34171
# Poissons Ratio (z) = 0.11792 0.25277
#
# Static dielectric constant tensor:
#      x y z
#    x 1.705100 0.000000 -0.012030 
#    y 0.000000 1.678520 0.000000 
#    z -0.012030 0.000000 1.776090 
# 
# From -- ./inp_files/200539.got.cif
#   From: 2010.05.17/outbox.cif.g08.bks.cpg/sg15_101_cif.got.tgz:200539.got - 2010.06.03 18:47:42.
