data_PCOD9303463
_publ_section_title
;
Structure prediction by ZEFSAII (Michael W. Deem and Ramdas Pophale) SiO2 
 PCOD9303463
Probable space group: C 2/C
;
_chemical_formula_sum "Si O2"
_cell_formula_units_Z 40
_cell_length_a 16.033342
_cell_length_b 9.683940
_cell_length_c 12.958499
_cell_angle_alpha 90.000000
_cell_angle_beta 60.614345
_cell_angle_gamma 90.000000
_cell_volume 1753.141004
_symmetry_space_group_name_H-M "C 2/C"
_symmetry_group_IT_number 15
_symmetry_cell_setting 'monoclinic'
loop_
_space_group_symop_operation_xyz
x,y,z
-x,y,1/2-z
-x,-y,-z
x,-y,1/2+z
1/2+x,1/2+y,z
1/2-x,1/2+y,1/2-z
1/2-x,1/2-y,-z
1/2+x,1/2-y,1/2+z
loop_
_atom_site_type_symbol
_atom_site_label
_atom_site_fract_x
_atom_site_fract_y
_atom_site_fract_z
Si Si1 0.262874 0.901675 0.955112
Si Si2 0.981187 0.351003 0.139684
Si Si3 0.442644 0.364090 0.503622
Si Si4 0.303320 0.838705 0.554960
Si Si5 0.096704 0.345422 0.813581
O O1 0.158628 0.928147 0.970531
O O2 0.355660 0.888127 0.825194
O O3 0.250000 0.750000 0.000000
O O4 0.277659 0.005835 0.040370
O O5 0.921203 0.235982 0.114690
O O6 0.946560 0.504142 0.133050
O O7 0.000000 0.335313 0.250000
O O8 0.085404 0.322568 0.033345
O O9 0.500000 0.500000 0.500000
O O10 0.511621 0.269985 0.383305
O O11 0.250000 0.750000 0.500000
O O12 0.309347 0.807831 0.673025
#
# Coordination Sequence:
#
# PCOD9303463 Si02
#       5
#     8   8   8   8   8
#     4  12  25  43  71 103 135 180 231 279 344 404
#     4  11  22  44  72  93 132 188 231 268 341 419
#     4  11  26  45  66 105 142 172 226 292 352 395
#     4  11  24  42  68 100 131 176 230 280 341 410
#     4  11  25  47  70  98 140 185 233 278 331 425
#
# _framework density 22.816192000000001
#
# number of rings (size 3 to 8) (size 9 to 14) (size 15 to 20)
#    0.000    0.800    2.000    7.200    2.800    4.800 
#    3.600    0.000    0.000    0.000    0.000    0.000 
#    0.000    0.000    0.000    0.000    0.000    0.000 
#
# Total GULP energy -111354.711885 kJ/mol
# GULP energy per Si atom -5567.735594 kJ/mol
# Density = 2.276426 g / cm^3
# Si number density = 22.816192 Si / 1000 Ang^3
#
#
#
# Elastic Constant Matrix: (Units=GPa)
#
#
# Indices 1 2 3 4 5 6 
#
# 1 66.3777 -32.2608 9.8388 0.0000 1.3474 0.0000
# 2 -32.2608 62.2572 -0.0272 0.0000 -7.3756 0.0000
# 3 9.8388 -0.0272 36.6522 0.0000 -20.7707 0.0000
# 4 0.0000 0.0000 0.0000 17.1097 0.0000 3.4570
# 5 1.3474 -7.3756 -20.7707 0.0000 28.0959 0.0000
# 6 0.0000 0.0000 0.0000 3.4570 0.0000 58.3808
#
#
#
# Elastic Compliance Matrix: (Units=1/GPa)
#
#
# Indices 1 2 3 4 5 6 
#
# 1 0.021548 0.010651 -0.008222 0.000000 -0.004316 0.000000
# 2 0.010651 0.022240 0.000303 0.000000 0.005552 0.000000
# 3 -0.008222 0.000303 0.051217 0.000000 0.038337 0.000000
# 4 0.000000 0.000000 0.000000 0.059154 0.000000 -0.003503
# 5 -0.004316 0.005552 0.038337 0.000000 0.065599 0.000000
# 6 0.000000 0.000000 0.000000 -0.003503 0.000000 0.017336
#
#
# Mechanical properties :
#
#
# Convention : Reuss Voigt Hill
#
# Bulk Modulus (GPa) = 9.95331 13.37653 11.66492
# Shear Modulus (GPa) = 18.85949 33.23304 26.04627
#
# Velocity S-wave (km/s) = 2.87816 3.82062 3.38238
# Velocity P-wave (km/s) = 3.92644 5.03372 4.51416
#
# Compressibility (1/GPa) = 0.10046904
#
# Stress axis : x y z
#
# Youngs Moduli (GPa) = 46.40733 44.96496 19.52496
#
# Poissons Ratio (x) = -0.47893 0.16054
# Poissons Ratio (y) = -0.49429 -0.00593
# Poissons Ratio (z) = 0.38157 -0.01365
#
# Static dielectric constant tensor:
#      x y z
#    x 1.996080 0.000000 0.335130 
#    y 0.000000 1.822350 0.000000 
#    z 0.335130 0.000000 2.262770 
# 
# From -- ./inp_files/150784.got.cif
#   From: 2010.05.17/outbox.cif.g08.bks.cpg/sg15_76_cif.got.tgz:150784.got - 2010.06.03 18:47:42.
