data_PCOD9303364
_publ_section_title
;
Structure prediction by ZEFSAII (Michael W. Deem and Ramdas Pophale) SiO2 
 PCOD9303364
Probable space group: C 2/C
;
_chemical_formula_sum "Si O2"
_cell_formula_units_Z 44
_cell_length_a 19.947474
_cell_length_b 7.221295
_cell_length_c 23.876207
_cell_angle_alpha 90.000000
_cell_angle_beta 29.588222
_cell_angle_gamma 90.000000
_cell_volume 1698.192730
_symmetry_space_group_name_H-M "C 2/C"
_symmetry_group_IT_number 15
_symmetry_cell_setting 'monoclinic'
loop_
_space_group_symop_operation_xyz
x,y,z
-x,y,1/2-z
-x,-y,-z
x,-y,1/2+z
1/2+x,1/2+y,z
1/2-x,1/2+y,1/2-z
1/2-x,1/2-y,-z
1/2+x,1/2-y,1/2+z
loop_
_atom_site_type_symbol
_atom_site_label
_atom_site_fract_x
_atom_site_fract_y
_atom_site_fract_z
Si Si1 0.019062 0.484121 0.553028
Si Si2 0.240978 0.895399 0.309159
Si Si3 0.259493 0.300952 0.603399
Si Si4 0.500000 0.021265 0.250000
Si Si5 0.619779 0.505395 0.786643
Si Si6 0.100954 0.252163 0.082586
O O1 0.308309 0.342917 0.303609
O O2 0.097006 0.658035 0.523990
O O3 0.000000 0.500000 0.500000
O O4 0.870876 0.502019 0.687072
O O5 0.204521 0.011281 0.390168
O O6 0.292954 0.686549 0.278869
O O7 0.125864 0.923782 0.346023
O O8 0.137053 0.357557 0.651467
O O9 0.393158 0.189289 0.489089
O O10 0.474653 0.556500 0.367543
O O11 0.486832 0.886428 0.312991
O O12 0.250000 0.250000 0.000000
#
# Coordination Sequence:
#
# PCOD9303364 Si02
#       6
#     8   8   8   4   8   8
#     4  11  23  45  73 106 143 186 251 309 362 449
#     4  11  22  46  69 109 145 181 251 308 372 449
#     4  12  25  43  75 101 146 199 238 306 371 439
#     4  12  28  48  70 108 158 194 254 294 376 460
#     4  11  22  43  75 101 146 193 234 312 378 427
#     4  11  28  48  72 111 153 194 254 310 373 459
#
# _framework density 25.909897999999998
#
# number of rings (size 3 to 8) (size 9 to 14) (size 15 to 20)
#    0.000    0.727    7.273    1.091    5.091    2.182 
#    0.000    2.727    0.000    0.000    0.000    0.000 
#    0.000    0.000    0.000    0.000    0.000    0.000 
#
# Total GULP energy -123327.709130 kJ/mol
# GULP energy per Si atom -5605.804960 kJ/mol
# Density = 2.585093 g / cm^3
# Si number density = 25.909898 Si / 1000 Ang^3
#
#
#
# Elastic Constant Matrix: (Units=GPa)
#
#
# Indices 1 2 3 4 5 6 
#
# 1 132.5066 32.7194 28.1456 0.0006 -28.1034 -0.0020
# 2 32.7194 143.8889 20.1000 -0.0002 -3.8854 -0.0023
# 3 28.1456 20.1000 93.0098 0.0002 -25.1369 -0.0003
# 4 0.0006 -0.0002 0.0002 46.7761 0.0002 -12.0677
# 5 -28.1034 -3.8854 -25.1369 0.0002 53.4375 0.0001
# 6 -0.0020 -0.0023 -0.0003 -12.0677 0.0001 62.5171
#
#
#
# Elastic Compliance Matrix: (Units=1/GPa)
#
#
# Indices 1 2 3 4 5 6 
#
# 1 0.009121 -0.001786 -0.001275 0.000000 0.004067 0.000000
# 2 -0.001786 0.007519 -0.001364 0.000000 -0.001034 0.000000
# 3 -0.001275 -0.001364 0.012859 0.000000 0.005279 0.000000
# 4 0.000000 0.000000 0.000000 0.022499 0.000000 0.004343
# 5 0.004067 -0.001034 0.005279 0.000000 0.023261 0.000000
# 6 0.000000 0.000000 0.000000 0.004343 0.000000 0.016834
#
#
# Mechanical properties :
#
#
# Convention : Reuss Voigt Hill
#
# Bulk Modulus (GPa) = 48.42883 59.03725 53.73304
# Shear Modulus (GPa) = 46.37146 51.77551 49.07348
#
# Velocity S-wave (km/s) = 4.23510 4.47507 4.35674
# Velocity P-wave (km/s) = 6.53043 7.03824 6.78908
#
# Compressibility (1/GPa) = 0.02064886
#
# Stress axis : x y z
#
# Youngs Moduli (GPa) = 109.63323 133.00423 77.76759
#
# Poissons Ratio (x) = 0.23757 0.09915
# Poissons Ratio (y) = 0.19583 0.10606
# Poissons Ratio (z) = 0.13977 0.18139
#
# Static dielectric constant tensor:
#      x y z
#    x 2.046600 0.000000 -0.022840 
#    y 0.000000 2.040200 0.000000 
#    z -0.022840 0.000000 2.089970 
# 
# From -- ./inp_files/252331.got.cif
#   From: 2010.05.17/outbox.cif.g08.bks.cpg/sg15_127_cif.got.tgz:252331.got - 2010.06.03 18:47:42.
