data_PCOD9303988
_publ_section_title
;
Structure prediction by ZEFSAII (Michael W. Deem and Ramdas Pophale) SiO2 
 PCOD9303988
Probable space group: C 2/C
;
_chemical_formula_sum "Si O2"
_cell_formula_units_Z 40
_cell_length_a 14.857412
_cell_length_b 26.477328
_cell_length_c 8.411008
_cell_angle_alpha 90.000000
_cell_angle_beta 145.027687
_cell_angle_gamma 90.000000
_cell_volume 1896.517256
_symmetry_space_group_name_H-M "C 2/C"
_symmetry_group_IT_number 15
_symmetry_cell_setting 'monoclinic'
loop_
_space_group_symop_operation_xyz
x,y,z
-x,y,1/2-z
-x,-y,-z
x,-y,1/2+z
1/2+x,1/2+y,z
1/2-x,1/2+y,1/2-z
1/2-x,1/2-y,-z
1/2+x,1/2-y,1/2+z
loop_
_atom_site_type_symbol
_atom_site_label
_atom_site_fract_x
_atom_site_fract_y
_atom_site_fract_z
Si Si1 0.648579 0.293911 0.777242
Si Si2 0.621442 0.021823 0.806232
Si Si3 0.640653 0.776208 0.712411
Si Si4 0.000000 0.647659 0.250000
Si Si5 0.233462 0.068738 0.776387
Si Si6 0.500000 0.379465 0.750000
O O1 0.476458 0.268451 0.511801
O O2 0.743824 0.301488 0.750309
O O3 0.631438 0.342005 0.865819
O O4 0.750000 0.250000 0.000000
O O5 0.500000 0.048361 0.750000
O O6 0.729451 0.055048 0.853139
O O7 0.500000 0.000000 0.500000
O O8 0.722011 0.979205 0.046914
O O9 0.534738 0.817569 0.648471
O O10 0.750000 0.750000 0.000000
O O11 0.149671 0.612139 0.495867
O O12 0.060395 0.090093 0.494069
#
# Coordination Sequence:
#
# PCOD9303988 Si02
#       6
#     8   8   8   4   8   4
#     4  12  23  44  65  91 139 187 218 271 339 387
#     4   9  18  41  70  92 124 167 215 274 353 399
#     4  12  23  40  67  94 131 185 224 272 334 380
#     4  12  22  38  70  98 124 170 246 266 310 412
#     4  11  23  41  68  96 129 173 220 289 328 411
#     4  12  26  40  64 104 138 170 238 274 332 410
#
# _framework density 21.091293
#
# number of rings (size 3 to 8) (size 9 to 14) (size 15 to 20)
#    0.000    0.800    7.000    2.400    0.000    2.400 
#    0.000    0.000    0.000    0.000    0.000    0.000 
#    0.000    0.000    0.000    0.000    0.000    0.000 
#
# Total GULP energy -111465.094879 kJ/mol
# GULP energy per Si atom -5573.254744 kJ/mol
# Density = 2.104329 g / cm^3
# Si number density = 21.091293 Si / 1000 Ang^3
#
#
#
# Elastic Constant Matrix: (Units=GPa)
#
#
# Indices 1 2 3 4 5 6 
#
# 1 101.0887 4.8297 -28.4058 0.0000 -7.2064 0.0000
# 2 4.8297 64.5918 11.7030 0.0000 -9.5663 0.0000
# 3 -28.4058 11.7030 114.1672 0.0000 -11.3410 0.0000
# 4 0.0000 0.0000 0.0000 40.1265 0.0000 -5.8887
# 5 -7.2064 -9.5663 -11.3410 0.0000 26.4837 0.0000
# 6 0.0000 0.0000 0.0000 -5.8887 0.0000 16.1838
#
#
#
# Elastic Compliance Matrix: (Units=1/GPa)
#
#
# Indices 1 2 3 4 5 6 
#
# 1 0.011144 -0.000812 0.003267 0.000000 0.004138 0.000000
# 2 -0.000812 0.016559 -0.001386 0.000000 0.005167 0.000000
# 3 0.003267 -0.001386 0.010186 0.000000 0.004750 0.000000
# 4 0.000000 0.000000 0.000000 0.026327 0.000000 0.009580
# 5 0.004138 0.005167 0.004750 0.000000 0.042785 0.000000
# 6 0.000000 0.000000 0.000000 0.009580 0.000000 0.065276
#
#
# Mechanical properties :
#
#
# Convention : Reuss Voigt Hill
#
# Bulk Modulus (GPa) = 24.98381 28.45572 26.71977
# Shear Modulus (GPa) = 27.25055 36.00685 31.62870
#
# Velocity S-wave (km/s) = 3.59838 4.13630 3.87668
# Velocity P-wave (km/s) = 5.39775 6.02768 5.72139
#
# Compressibility (1/GPa) = 0.04002592
#
# Stress axis : x y z
#
# Youngs Moduli (GPa) = 89.73308 60.39027 98.17460
#
# Poissons Ratio (x) = 0.04906 -0.32075
# Poissons Ratio (y) = 0.07290 0.13610
# Poissons Ratio (z) = -0.29317 0.08372
#
# Static dielectric constant tensor:
#      x y z
#    x 1.931090 0.000000 0.338900 
#    y 0.000000 1.773080 0.000000 
#    z 0.338900 0.000000 1.878380 
# 
# From -- ./inp_files/44976.got.cif
#   From: 2010.05.17/outbox.cif.g08.bks.cpg/sg15_23_cif.got.tgz:44976.got - 2010.06.03 18:47:42.
