data_PCOD9303518
_publ_section_title
;
Structure prediction by ZEFSAII (Michael W. Deem and Ramdas Pophale) SiO2 
 PCOD9303518
Probable space group: C 2/C
;
_chemical_formula_sum "Si O2"
_cell_formula_units_Z 36
_cell_length_a 17.520289
_cell_length_b 9.906150
_cell_length_c 12.815897
_cell_angle_alpha 90.000000
_cell_angle_beta 134.054429
_cell_angle_gamma 90.000000
_cell_volume 1598.565647
_symmetry_space_group_name_H-M "C 2/C"
_symmetry_group_IT_number 15
_symmetry_cell_setting 'monoclinic'
loop_
_space_group_symop_operation_xyz
x,y,z
-x,y,1/2-z
-x,-y,-z
x,-y,1/2+z
1/2+x,1/2+y,z
1/2-x,1/2+y,1/2-z
1/2-x,1/2-y,-z
1/2+x,1/2-y,1/2+z
loop_
_atom_site_type_symbol
_atom_site_label
_atom_site_fract_x
_atom_site_fract_y
_atom_site_fract_z
Si Si1 0.387432 0.027963 0.677218
Si Si2 0.797060 0.343458 0.295777
Si Si3 0.129000 0.254653 0.922143
Si Si4 0.203898 0.924820 0.828779
Si Si5 0.000000 0.996593 0.750000
O O1 0.500000 0.089716 0.750000
O O2 0.406170 0.866659 0.694928
O O3 0.352099 0.075527 0.755970
O O4 0.292577 0.062386 0.504828
O O5 0.875197 0.314435 0.466218
O O6 0.765415 0.201434 0.214452
O O7 0.708090 0.438759 0.263486
O O8 0.077748 0.107210 0.878029
O O9 0.250000 0.250000 0.000000
O O10 0.084683 0.912897 0.762258
#
# Coordination Sequence:
#
# PCOD9303518 Si02
#       5
#     8   8   8   8   4
#     4  11  24  43  70 100 143 181 233 289 343 417
#     4  11  25  45  72 102 140 189 233 284 359 410
#     4  11  22  45  67  99 141 182 230 284 340 420
#     4  11  27  45  73 102 145 179 237 289 346 421
#     4  12  24  44  72 102 146 180 224 298 346 404
#
# _framework density 22.520188999999998
#
# number of rings (size 3 to 8) (size 9 to 14) (size 15 to 20)
#    0.000    0.889    5.556    2.000    1.556    6.222 
#    0.000    0.000    0.000    0.000    0.000    0.000 
#    0.000    0.000    0.000    0.000    0.000    0.000 
#
# Total GULP energy -100394.677137 kJ/mol
# GULP energy per Si atom -5577.482063 kJ/mol
# Density = 2.246893 g / cm^3
# Si number density = 22.520189 Si / 1000 Ang^3
#
#
#
# Elastic Constant Matrix: (Units=GPa)
#
#
# Indices 1 2 3 4 5 6 
#
# 1 143.7919 30.9376 58.3708 0.0000 8.9836 0.0000
# 2 30.9376 78.7393 14.0453 0.0000 -9.5743 0.0000
# 3 58.3708 14.0453 66.2604 0.0000 -8.7842 0.0000
# 4 0.0000 0.0000 0.0000 12.1276 0.0000 -10.5984
# 5 8.9836 -9.5743 -8.7842 0.0000 46.5709 0.0000
# 6 0.0000 0.0000 0.0000 -10.5984 0.0000 27.7784
#
#
#
# Elastic Compliance Matrix: (Units=1/GPa)
#
#
# Indices 1 2 3 4 5 6 
#
# 1 0.012491 -0.003591 -0.010933 0.000000 -0.005210 0.000000
# 2 -0.003591 0.014464 0.000599 0.000000 0.003779 0.000000
# 3 -0.010933 0.000599 0.025531 0.000000 0.007048 0.000000
# 4 0.000000 0.000000 0.000000 0.123702 0.000000 0.047197
# 5 -0.005210 0.003779 0.007048 0.000000 0.024584 0.000000
# 6 0.000000 0.000000 0.000000 0.047197 0.000000 0.054006
#
#
# Mechanical properties :
#
#
# Convention : Reuss Voigt Hill
#
# Bulk Modulus (GPa) = 40.59386 55.05545 47.82466
# Shear Modulus (GPa) = 17.19159 29.65791 23.42475
#
# Velocity S-wave (km/s) = 2.76594 3.63291 3.22866
# Velocity P-wave (km/s) = 5.31651 6.48827 5.93139
#
# Compressibility (1/GPa) = 0.02463427
#
# Stress axis : x y z
#
# Youngs Moduli (GPa) = 80.05925 69.13780 39.16872
#
# Poissons Ratio (x) = 0.24828 0.42823
# Poissons Ratio (y) = 0.28750 -0.02345
# Poissons Ratio (z) = 0.87528 -0.04138
#
# Static dielectric constant tensor:
#      x y z
#    x 1.852620 0.000000 0.085280 
#    y 0.000000 1.899470 0.000000 
#    z 0.085280 0.000000 1.939850 
# 
# From -- ./inp_files/103984.got.cif
#   From: 2010.05.17/outbox.cif.g08.bks.cpg/sg15_52_cif.got.tgz:103984.got - 2010.06.03 18:47:42.
