data_PCOD9303963
_publ_section_title
;
Structure prediction by ZEFSAII (Michael W. Deem and Ramdas Pophale) SiO2 
 PCOD9303963
Probable space group: C 2/C
;
_chemical_formula_sum "Si O2"
_cell_formula_units_Z 44
_cell_length_a 17.641980
_cell_length_b 5.236964
_cell_length_c 23.111502
_cell_angle_alpha 90.000000
_cell_angle_beta 124.161033
_cell_angle_gamma 90.000000
_cell_volume 1766.865490
_symmetry_space_group_name_H-M "C 2/C"
_symmetry_group_IT_number 15
_symmetry_cell_setting 'monoclinic'
loop_
_space_group_symop_operation_xyz
x,y,z
-x,y,1/2-z
-x,-y,-z
x,-y,1/2+z
1/2+x,1/2+y,z
1/2-x,1/2+y,1/2-z
1/2-x,1/2-y,-z
1/2+x,1/2-y,1/2+z
loop_
_atom_site_type_symbol
_atom_site_label
_atom_site_fract_x
_atom_site_fract_y
_atom_site_fract_z
Si Si1 0.366289 0.727470 0.859145
Si Si2 0.177436 0.707225 0.032784
Si Si3 0.670636 0.048357 0.277666
Si Si4 0.000000 0.239014 0.250000
Si Si5 0.454288 0.500846 0.108074
Si Si6 0.702242 0.222018 0.406307
O O1 0.368360 0.839541 0.924279
O O2 0.366676 0.902035 0.802326
O O3 0.269293 0.581613 0.812416
O O4 0.455949 0.556690 0.890219
O O5 0.232891 0.450310 0.044220
O O6 0.247419 0.948678 0.069896
O O7 0.106187 0.799511 0.954135
O O8 0.686280 0.277968 0.330361
O O9 0.592233 0.896461 0.277974
O O10 0.984836 0.090189 0.184295
O O11 0.390578 0.258097 0.097245
#
# Coordination Sequence:
#
# PCOD9303963 Si02
#       6
#     8   8   8   4   8   8
#     4  11  23  41  67 102 143 183 229 293 351 415
#     4  11  26  46  72 104 142 186 233 287 349 414
#     4  11  23  44  69 105 139 185 235 287 351 416
#     4  12  26  44  74 104 140 188 238 290 344 420
#     4  12  24  44  68 104 141 186 236 289 348 414
#     4  11  24  46  73 102 141 187 235 286 342 414
#
# _framework density 24.902857000000001
#
# number of rings (size 3 to 8) (size 9 to 14) (size 15 to 20)
#    0.000    0.727    0.000    8.182    0.000    4.364 
#    0.000    5.455    0.000    0.000    0.000    0.000 
#    0.000    0.000    0.000    0.000    0.000    0.000 
#
# Total GULP energy -123224.378102 kJ/mol
# GULP energy per Si atom -5601.108096 kJ/mol
# Density = 2.484618 g / cm^3
# Si number density = 24.902857 Si / 1000 Ang^3
#
#
#
# Elastic Constant Matrix: (Units=GPa)
#
#
# Indices 1 2 3 4 5 6 
#
# 1 164.2627 32.4475 16.6053 0.0000 10.8420 -0.0001
# 2 32.4475 75.7275 7.0754 0.0001 18.5667 -0.0005
# 3 16.6053 7.0754 132.4926 0.0001 -8.6504 -0.0001
# 4 0.0000 0.0001 0.0001 38.7003 0.0000 -1.4681
# 5 10.8420 18.5667 -8.6504 0.0000 50.3077 -0.0001
# 6 -0.0001 -0.0005 -0.0001 -1.4681 -0.0001 25.5435
#
#
#
# Elastic Compliance Matrix: (Units=1/GPa)
#
#
# Indices 1 2 3 4 5 6 
#
# 1 0.006729 -0.002669 -0.000739 0.000000 -0.000592 0.000000
# 2 -0.002669 0.015749 -0.000858 0.000000 -0.005385 0.000000
# 3 -0.000739 -0.000858 0.007805 0.000000 0.001818 0.000000
# 4 0.000000 0.000000 0.000000 0.025896 0.000000 0.001488
# 5 -0.000592 -0.005385 0.001818 0.000000 0.022305 0.000000
# 6 0.000000 0.000000 0.000000 0.001488 0.000000 0.039234
#
#
# Mechanical properties :
#
#
# Convention : Reuss Voigt Hill
#
# Bulk Modulus (GPa) = 45.97711 53.85989 49.91850
# Shear Modulus (GPa) = 37.45274 44.00059 40.72667
#
# Velocity S-wave (km/s) = 3.88229 4.20800 4.04842
# Velocity P-wave (km/s) = 6.21280 6.72938 6.47625
#
# Compressibility (1/GPa) = 0.02174995
#
# Stress axis : x y z
#
# Youngs Moduli (GPa) = 148.61383 63.49536 128.12624
#
# Poissons Ratio (x) = 0.16946 0.09475
# Poissons Ratio (y) = 0.39663 0.10995
# Poissons Ratio (z) = 0.10990 0.05449
#
# Static dielectric constant tensor:
#      x y z
#    x 1.952050 0.000000 0.028380 
#    y 0.000000 2.027770 0.000000 
#    z 0.028380 0.000000 2.062160 
# 
# From -- ./inp_files/275925.got.cif
#   From: 2010.05.17/outbox.cif.g08.bks.cpg/sg15_138_cif.got.tgz:275925.got - 2010.06.03 18:47:42.
