data_PCOD9303272
_publ_section_title
;
Structure prediction by ZEFSAII (Michael W. Deem and Ramdas Pophale) SiO2 
 PCOD9303272
Probable space group: C 2/C
;
_chemical_formula_sum "Si O2"
_cell_formula_units_Z 56
_cell_length_a 25.810041
_cell_length_b 8.701644
_cell_length_c 11.247209
_cell_angle_alpha 90.000000
_cell_angle_beta 73.734172
_cell_angle_gamma 90.000000
_cell_volume 2424.898530
_symmetry_space_group_name_H-M "C 2/C"
_symmetry_group_IT_number 15
_symmetry_cell_setting 'monoclinic'
loop_
_space_group_symop_operation_xyz
x,y,z
-x,y,1/2-z
-x,-y,-z
x,-y,1/2+z
1/2+x,1/2+y,z
1/2-x,1/2+y,1/2-z
1/2-x,1/2-y,-z
1/2+x,1/2-y,1/2+z
loop_
_atom_site_type_symbol
_atom_site_label
_atom_site_fract_x
_atom_site_fract_y
_atom_site_fract_z
Si Si1 0.046713 0.176886 0.553559
Si Si2 0.300005 0.036095 0.592280
Si Si3 0.768733 0.837020 0.704876
Si Si4 0.588039 0.919351 0.359662
Si Si5 0.332733 0.190497 0.883880
Si Si6 0.931154 0.239203 0.695509
Si Si7 0.861638 0.065450 0.567360
O O1 0.049191 0.292975 0.440787
O O2 0.067660 0.251558 0.663517
O O3 0.984196 0.144284 0.621287
O O4 0.087400 0.037922 0.503481
O O5 0.282835 0.924149 0.711486
O O6 0.300211 0.946174 0.469024
O O7 0.263224 0.187308 0.626055
O O8 0.361255 0.081008 0.582137
O O9 0.796967 0.771291 0.806594
O O10 0.810693 0.956363 0.621866
O O11 0.613991 0.869115 0.217670
O O12 0.565560 0.090194 0.361149
O O13 0.348360 0.310181 0.975820
O O14 0.879396 0.153119 0.675975
#
# Coordination Sequence:
#
# PCOD9303272 Si02
#       7
#     8   8   8   8   8   8   8
#     4  11  24  45  65 101 130 168 226 270 328 391
#     4  11  22  43  66  95 132 174 218 266 323 387
#     4  11  25  43  67  99 135 173 221 270 321 395
#     4  11  23  45  68  97 133 172 220 272 325 394
#     4  11  23  43  68  96 138 172 216 270 327 388
#     4  11  25  42  72  92 132 174 219 276 327 383
#     4  12  23  45  67  99 135 174 215 270 332 389
#
# _framework density 23.093748999999999
#
# number of rings (size 3 to 8) (size 9 to 14) (size 15 to 20)
#    0.000    0.857    4.286    3.857    0.000    1.143 
#    0.000    3.571    0.000    0.000    0.000    0.000 
#    0.000    0.000    0.000    0.000    0.000    0.000 
#
# Total GULP energy -156758.082041 kJ/mol
# GULP energy per Si atom -5598.502930 kJ/mol
# Density = 2.304119 g / cm^3
# Si number density = 23.093749 Si / 1000 Ang^3
#
#
#
# Elastic Constant Matrix: (Units=GPa)
#
#
# Indices 1 2 3 4 5 6 
#
# 1 25.7758 13.3496 20.0226 0.0000 -9.0912 0.0000
# 2 13.3496 79.0392 41.2842 0.0000 -7.6786 0.0000
# 3 20.0226 41.2842 117.3741 0.0000 -17.6910 0.0000
# 4 0.0000 0.0000 0.0000 47.1136 0.0000 -7.7695
# 5 -9.0912 -7.6786 -17.6910 0.0000 33.8316 0.0000
# 6 0.0000 0.0000 0.0000 -7.7695 0.0000 32.4531
#
#
#
# Elastic Compliance Matrix: (Units=1/GPa)
#
#
# Indices 1 2 3 4 5 6 
#
# 1 0.048511 -0.004534 -0.005288 0.000000 0.009242 0.000000
# 2 -0.004534 0.015940 -0.004854 0.000000 -0.000139 0.000000
# 3 -0.005288 -0.004854 0.011669 0.000000 0.003579 0.000000
# 4 0.000000 0.000000 0.000000 0.022098 0.000000 0.005290
# 5 0.009242 -0.000139 0.003579 0.000000 0.033882 0.000000
# 6 0.000000 0.000000 0.000000 0.005290 0.000000 0.032080
#
#
# Mechanical properties :
#
#
# Convention : Reuss Voigt Hill
#
# Bulk Modulus (GPa) = 21.38194 41.27800 31.32997
# Shear Modulus (GPa) = 23.90976 32.51518 28.21247
#
# Velocity S-wave (km/s) = 3.22115 3.75636 3.49900
# Velocity P-wave (km/s) = 4.80763 6.06024 5.46991
#
# Compressibility (1/GPa) = 0.04676843
#
# Stress axis : x y z
#
# Youngs Moduli (GPa) = 20.61372 62.73704 85.70047
#
# Poissons Ratio (x) = 0.28443 0.45317
# Poissons Ratio (y) = 0.09346 0.41599
# Poissons Ratio (z) = 0.10900 0.30452
#
# Static dielectric constant tensor:
#      x y z
#    x 1.851940 0.000000 -0.007260 
#    y 0.000000 1.878350 0.000000 
#    z -0.007260 0.000000 1.843650 
# 
# From -- ./inp_files/121910.got.cif
#   From: 2010.05.17/outbox.cif.g08.bks.cpg/sg15_61_cif.got.tgz:121910.got - 2010.06.03 18:47:42.
