data_PCOD9303655
_publ_section_title
;
Structure prediction by ZEFSAII (Michael W. Deem and Ramdas Pophale) SiO2 
 PCOD9303655
Probable space group: C 2/C
;
_chemical_formula_sum "Si O2"
_cell_formula_units_Z 56
_cell_length_a 24.365232
_cell_length_b 13.849662
_cell_length_c 9.543366
_cell_angle_alpha 90.000000
_cell_angle_beta 135.478383
_cell_angle_gamma 90.000000
_cell_volume 2258.082380
_symmetry_space_group_name_H-M "C 2/C"
_symmetry_group_IT_number 15
_symmetry_cell_setting 'monoclinic'
loop_
_space_group_symop_operation_xyz
x,y,z
-x,y,1/2-z
-x,-y,-z
x,-y,1/2+z
1/2+x,1/2+y,z
1/2-x,1/2+y,1/2-z
1/2-x,1/2-y,-z
1/2+x,1/2-y,1/2+z
loop_
_atom_site_type_symbol
_atom_site_label
_atom_site_fract_x
_atom_site_fract_y
_atom_site_fract_z
Si Si1 0.687654 0.979329 0.413008
Si Si2 0.686908 0.286386 0.276555
Si Si3 0.208655 0.986592 0.160876
Si Si4 0.976412 0.190630 0.869821
Si Si5 0.433752 0.588956 0.246298
Si Si6 0.673569 0.222429 0.954155
Si Si7 0.466522 0.085414 0.343562
O O1 0.724301 0.998620 0.330370
O O2 0.643088 0.877830 0.336857
O O3 0.762535 0.955108 0.651157
O O4 0.627265 0.064608 0.337691
O O5 0.750000 0.250000 0.500000
O O6 0.712166 0.380825 0.236373
O O7 0.611423 0.317191 0.229083
O O8 0.678942 0.211789 0.133238
O O9 0.126827 0.990349 0.926871
O O10 0.987687 0.305256 0.928121
O O11 0.000000 0.185748 0.750000
O O12 0.022975 0.101249 0.026294
O O13 0.500000 0.598627 0.250000
O O14 0.384014 0.687547 0.163628
O O15 0.750000 0.250000 0.000000
O O16 0.500000 0.073220 0.250000
O O17 0.500000 0.000000 0.500000
#
# Coordination Sequence:
#
# PCOD9303655 Si02
#       7
#     8   8   8   8   8   8   8
#     4  12  25  44  70 105 153 186 243 289 379 431
#     4  11  24  42  69 103 139 182 247 292 350 424
#     4  11  26  45  69 105 143 191 234 306 351 442
#     4  11  25  43  72 103 141 188 241 306 360 436
#     4  11  22  47  72  99 141 179 247 298 357 429
#     4  11  23  42  71 101 135 192 238 296 351 430
#     4  11  25  41  64 107 150 188 229 289 366 441
#
# _framework density 24.799804999999999
#
# number of rings (size 3 to 8) (size 9 to 14) (size 15 to 20)
#    0.000    0.857    5.714    2.571    8.000    3.429 
#    0.000    0.714    0.000    0.000    0.000    0.000 
#    0.000    0.000    0.000    0.000    0.000    0.000 
#
# Total GULP energy -156308.630404 kJ/mol
# GULP energy per Si atom -5582.451086 kJ/mol
# Density = 2.474336 g / cm^3
# Si number density = 24.799805 Si / 1000 Ang^3
#
#
#
# Elastic Constant Matrix: (Units=GPa)
#
#
# Indices 1 2 3 4 5 6 
#
# 1 160.1021 30.3792 55.0989 0.0000 -15.3300 0.0000
# 2 30.3792 110.2658 26.5500 0.0000 -1.6251 0.0000
# 3 55.0989 26.5500 119.2908 0.0000 5.2318 0.0000
# 4 0.0000 0.0000 0.0000 40.5290 0.0000 -7.4026
# 5 -15.3300 -1.6251 5.2318 0.0000 33.2337 0.0000
# 6 0.0000 0.0000 0.0000 -7.4026 0.0000 8.4889
#
#
#
# Elastic Compliance Matrix: (Units=1/GPa)
#
#
# Indices 1 2 3 4 5 6 
#
# 1 0.008166 -0.001303 -0.003669 0.000000 0.004281 0.000000
# 2 -0.001303 0.009812 -0.001588 0.000000 0.000129 0.000000
# 3 -0.003669 -0.001588 0.010582 0.000000 -0.003436 0.000000
# 4 0.000000 0.000000 0.000000 0.029348 0.000000 0.025593
# 5 0.004281 0.000129 -0.003436 0.000000 0.032612 0.000000
# 6 0.000000 0.000000 0.000000 0.025593 0.000000 0.140119
#
#
# Mechanical properties :
#
#
# Convention : Reuss Voigt Hill
#
# Bulk Modulus (GPa) = 64.76873 68.19053 66.47963
# Shear Modulus (GPa) = 20.08793 34.95903 27.52348
#
# Velocity S-wave (km/s) = 2.84914 3.75860 3.33502
# Velocity P-wave (km/s) = 6.08250 6.81118 6.45713
#
# Compressibility (1/GPa) = 0.01543955
#
# Stress axis : x y z
#
# Youngs Moduli (GPa) = 122.45860 101.91409 94.50189
#
# Poissons Ratio (x) = 0.13281 0.34677
# Poissons Ratio (y) = 0.15958 0.15003
# Poissons Ratio (z) = 0.44936 0.16180
#
# Static dielectric constant tensor:
#      x y z
#    x 1.872780 0.000000 0.077100 
#    y 0.000000 2.133570 0.000000 
#    z 0.077100 0.000000 2.342980 
# 
# From -- ./inp_files/62796.got.cif
#   From: 2010.05.17/outbox.cif.g08.bks.cpg/sg15_32_cif.got.tgz:62796.got - 2010.06.03 18:47:42.
