data_PCOD9303355
_publ_section_title
;
Structure prediction by ZEFSAII (Michael W. Deem and Ramdas Pophale) SiO2 
 PCOD9303355
Probable space group: C 2/C
;
_chemical_formula_sum "Si O2"
_cell_formula_units_Z 36
_cell_length_a 13.012030
_cell_length_b 11.550051
_cell_length_c 10.167976
_cell_angle_alpha 90.000000
_cell_angle_beta 98.461223
_cell_angle_gamma 90.000000
_cell_volume 1511.508360
_symmetry_space_group_name_H-M "C 2/C"
_symmetry_group_IT_number 15
_symmetry_cell_setting 'monoclinic'
loop_
_space_group_symop_operation_xyz
x,y,z
-x,y,1/2-z
-x,-y,-z
x,-y,1/2+z
1/2+x,1/2+y,z
1/2-x,1/2+y,1/2-z
1/2-x,1/2-y,-z
1/2+x,1/2-y,1/2+z
loop_
_atom_site_type_symbol
_atom_site_label
_atom_site_fract_x
_atom_site_fract_y
_atom_site_fract_z
Si Si1 0.837381 0.637598 0.771215
Si Si2 0.122186 0.756976 0.303966
Si Si3 0.321811 0.978367 0.541141
Si Si4 0.500000 0.306972 0.750000
Si Si5 0.601557 0.504024 0.435170
O O1 0.727938 0.709668 0.739375
O O2 0.874224 0.576089 0.641847
O O3 0.927881 0.727333 0.827477
O O4 0.833555 0.538741 0.885581
O O5 0.157775 0.648098 0.396811
O O6 0.109963 0.881105 0.368510
O O7 0.000000 0.728109 0.250000
O O8 0.202819 0.013963 0.540846
O O9 0.416867 0.389253 0.664094
O O10 0.500000 0.500000 0.500000
#
# Coordination Sequence:
#
# PCOD9303355 Si02
#       5
#     8   8   8   4   8
#     4  11  27  47  72 108 145 195 238 299 356 433
#     4  11  23  44  76 104 141 192 237 299 359 427
#     4  11  26  47  73 104 148 187 240 296 365 424
#     4  12  26  46  74 108 146 188 248 294 358 434
#     4  11  22  43  73 105 140 188 244 300 353 423
#
# _framework density 23.817269
#
# number of rings (size 3 to 8) (size 9 to 14) (size 15 to 20)
#    0.000    0.889    1.111    6.667   10.889    1.778 
#    4.000    0.000    0.000    0.000    0.000    0.000 
#    0.000    0.000    0.000    0.000    0.000    0.000 
#
# Total GULP energy -100308.163191 kJ/mol
# GULP energy per Si atom -5572.675733 kJ/mol
# Density = 2.376306 g / cm^3
# Si number density = 23.817269 Si / 1000 Ang^3
#
#
#
# Elastic Constant Matrix: (Units=GPa)
#
#
# Indices 1 2 3 4 5 6 
#
# 1 104.7331 67.0781 34.5630 0.0000 12.9744 0.0000
# 2 67.0781 76.0489 15.4552 0.0000 14.3614 0.0000
# 3 34.5630 15.4552 43.7847 0.0000 16.9358 0.0000
# 4 0.0000 0.0000 0.0000 59.5813 0.0000 18.6040
# 5 12.9744 14.3614 16.9358 0.0000 27.6432 0.0000
# 6 0.0000 0.0000 0.0000 18.6040 0.0000 54.2710
#
#
#
# Elastic Compliance Matrix: (Units=1/GPa)
#
#
# Indices 1 2 3 4 5 6 
#
# 1 0.030853 -0.025245 -0.019548 0.000000 0.010611 0.000000
# 2 -0.025245 0.035523 0.013033 0.000000 -0.014591 0.000000
# 3 -0.019548 0.013033 0.042908 0.000000 -0.023884 0.000000
# 4 0.000000 0.000000 0.000000 0.018796 0.000000 -0.006443
# 5 0.010611 -0.014591 -0.023884 0.000000 0.053408 0.000000
# 6 0.000000 0.000000 0.000000 -0.006443 0.000000 0.020635
#
#
# Mechanical properties :
#
#
# Convention : Reuss Voigt Hill
#
# Bulk Modulus (GPa) = 21.85152 50.97327 36.41239
# Shear Modulus (GPa) = 17.80005 35.46380 26.63193
#
# Velocity S-wave (km/s) = 2.73675 3.86294 3.34754
# Velocity P-wave (km/s) = 4.37961 6.42998 5.50116
#
# Compressibility (1/GPa) = 0.04576341
#
# Stress axis : x y z
#
# Youngs Moduli (GPa) = 32.41161 28.15070 23.30567
#
# Poissons Ratio (x) = 0.71066 0.45559
# Poissons Ratio (y) = 0.81822 -0.30373
# Poissons Ratio (z) = 0.63359 -0.36688
#
# Static dielectric constant tensor:
#      x y z
#    x 1.818310 0.000000 0.256180 
#    y 0.000000 2.430460 0.000000 
#    z 0.256180 0.000000 0.804240 
# 
# From -- ./inp_files/84509.got.cif
#   From: 2010.05.17/outbox.cif.g08.bks.cpg/sg15_43_cif.got.tgz:84509.got - 2010.06.03 18:47:42.
