data_PCOD9303716
_publ_section_title
;
Structure prediction by ZEFSAII (Michael W. Deem and Ramdas Pophale) SiO2 
 PCOD9303716
Probable space group: C 2/C
;
_chemical_formula_sum "Si O2"
_cell_formula_units_Z 64
_cell_length_a 13.062261
_cell_length_b 25.259954
_cell_length_c 14.865298
_cell_angle_alpha 90.000000
_cell_angle_beta 140.742991
_cell_angle_gamma 90.000000
_cell_volume 3103.780790
_symmetry_space_group_name_H-M "C 2/C"
_symmetry_group_IT_number 15
_symmetry_cell_setting 'monoclinic'
loop_
_space_group_symop_operation_xyz
x,y,z
-x,y,1/2-z
-x,-y,-z
x,-y,1/2+z
1/2+x,1/2+y,z
1/2-x,1/2+y,1/2-z
1/2-x,1/2-y,-z
1/2+x,1/2-y,1/2+z
loop_
_atom_site_type_symbol
_atom_site_label
_atom_site_fract_x
_atom_site_fract_y
_atom_site_fract_z
Si Si1 0.645100 0.645391 0.780477
Si Si2 0.589398 0.128372 0.222496
Si Si3 0.270288 0.033636 0.282985
Si Si4 0.304651 0.534775 0.607617
Si Si5 0.538332 0.601885 0.381710
Si Si6 0.627590 0.774077 0.992067
Si Si7 0.456529 0.334657 0.985913
Si Si8 0.809578 0.473224 0.130965
O O1 0.500000 0.659721 0.750000
O O2 0.725082 0.593937 0.879035
O O3 0.764811 0.694433 0.862513
O O4 0.568212 0.633320 0.631920
O O5 0.500000 0.107731 0.250000
O O6 0.609307 0.080997 0.163835
O O7 0.771670 0.146430 0.369577
O O8 0.492605 0.181255 0.128090
O O9 0.094562 0.061068 0.169170
O O10 0.290119 0.006002 0.392695
O O11 0.273003 0.988897 0.208479
O O12 0.500000 0.526725 0.750000
O O13 0.252998 0.522447 0.471858
O O14 0.500000 0.607873 0.250000
O O15 0.512308 0.654431 0.422683
O O16 0.709821 0.575911 0.522297
O O17 0.537207 0.725384 0.976207
O O18 0.750000 0.750000 0.000000
O O19 0.000000 0.465831 0.250000
#
# Coordination Sequence:
#
# PCOD9303716 Si02
#       8
#     8   8   8   8   8   8   8   8
#     4  11  23  37  62  98 138 173 216 267 337 417
#     4  11  23  38  64  98 134 174 223 272 335 410
#     4  11  23  41  68  93 134 182 226 265 335 404
#     4  11  24  43  64  96 137 184 223 261 330 406
#     4  11  23  48  68  96 129 184 238 279 325 407
#     4  12  23  41  64  99 144 172 214 285 354 401
#     4  11  24  40  70  95 129 183 226 273 344 392
#     4  12  25  40  67  99 141 173 222 278 338 402
#
# _framework density 20.620013
#
# number of rings (size 3 to 8) (size 9 to 14) (size 15 to 20)
#    0.000    0.750    5.000    2.250   10.500    0.500 
#    2.250    0.000    0.000    6.750    0.000    0.875 
#    0.000    0.000    0.000    0.000    0.000    0.000 
#
# Total GULP energy -178991.773265 kJ/mol
# GULP energy per Si atom -5593.492915 kJ/mol
# Density = 2.057308 g / cm^3
# Si number density = 20.620013 Si / 1000 Ang^3
#
#
#
# Elastic Constant Matrix: (Units=GPa)
#
#
# Indices 1 2 3 4 5 6 
#
# 1 98.1675 27.7103 33.7174 0.0000 -6.8980 0.0000
# 2 27.7103 90.3352 12.2108 0.0000 6.7377 0.0000
# 3 33.7174 12.2108 91.7921 0.0000 11.4219 0.0000
# 4 0.0000 0.0000 0.0000 17.9577 0.0000 4.5156
# 5 -6.8980 6.7377 11.4219 0.0000 27.3418 0.0000
# 6 0.0000 0.0000 0.0000 4.5156 0.0000 29.0011
#
#
#
# Elastic Compliance Matrix: (Units=1/GPa)
#
#
# Indices 1 2 3 4 5 6 
#
# 1 0.013579 -0.003944 -0.005285 0.000000 0.006606 0.000000
# 2 -0.003944 0.012553 0.000303 0.000000 -0.004215 0.000000
# 3 -0.005285 0.000303 0.013682 0.000000 -0.007124 0.000000
# 4 0.000000 0.000000 0.000000 0.057956 0.000000 -0.009024
# 5 0.006606 -0.004215 -0.007124 0.000000 0.042255 0.000000
# 6 0.000000 0.000000 0.000000 -0.009024 0.000000 0.035887
#
#
# Mechanical properties :
#
#
# Convention : Reuss Voigt Hill
#
# Bulk Modulus (GPa) = 45.53247 47.50796 46.52022
# Shear Modulus (GPa) = 24.86525 28.63722 26.75124
#
# Velocity S-wave (km/s) = 3.47635 3.73071 3.60577
# Velocity P-wave (km/s) = 6.18409 6.45348 6.32022
#
# Compressibility (1/GPa) = 0.02196235
#
# Stress axis : x y z
#
# Youngs Moduli (GPa) = 73.64087 79.66221 73.09038
#
# Poissons Ratio (x) = 0.31417 0.38631
# Poissons Ratio (y) = 0.29042 -0.02216
# Poissons Ratio (z) = 0.38922 -0.02416
#
# Static dielectric constant tensor:
#      x y z
#    x 1.722890 0.000000 0.010420 
#    y 0.000000 1.755550 0.000000 
#    z 0.010420 0.000000 1.793310 
# 
# From -- ./inp_files/148787.got.cif
#   From: 2010.05.17/outbox.cif.g08.bks.cpg/sg15_75_cif.got.tgz:148787.got - 2010.06.03 18:47:42.
