data_PCOD9303740
_publ_section_title
;
Structure prediction by ZEFSAII (Michael W. Deem and Ramdas Pophale) SiO2 
 PCOD9303740
Probable space group: C 2/C
;
_chemical_formula_sum "Si O2"
_cell_formula_units_Z 56
_cell_length_a 33.389841
_cell_length_b 5.306045
_cell_length_c 18.450535
_cell_angle_alpha 90.000000
_cell_angle_beta 118.111566
_cell_angle_gamma 90.000000
_cell_volume 2883.224572
_symmetry_space_group_name_H-M "C 2/C"
_symmetry_group_IT_number 15
_symmetry_cell_setting 'monoclinic'
loop_
_space_group_symop_operation_xyz
x,y,z
-x,y,1/2-z
-x,-y,-z
x,-y,1/2+z
1/2+x,1/2+y,z
1/2-x,1/2+y,1/2-z
1/2-x,1/2-y,-z
1/2+x,1/2-y,1/2+z
loop_
_atom_site_type_symbol
_atom_site_label
_atom_site_fract_x
_atom_site_fract_y
_atom_site_fract_z
Si Si1 0.947678 0.721416 0.088922
Si Si2 0.398659 0.542326 0.426992
Si Si3 0.393464 0.165531 0.777553
Si Si4 0.702947 0.958510 0.265064
Si Si5 0.552121 0.291219 0.819475
Si Si6 0.466303 0.171225 0.423776
Si Si7 0.198710 0.044122 0.663067
O O1 0.946032 0.456073 0.128086
O O2 0.998866 0.782635 0.105411
O O3 0.933889 0.954369 0.127663
O O4 0.914852 0.729258 0.991094
O O5 0.391515 0.617383 0.337069
O O6 0.441148 0.356042 0.457644
O O7 0.350777 0.441151 0.415345
O O8 0.342016 0.067430 0.724920
O O9 0.416274 0.249454 0.723094
O O10 0.427132 0.967715 0.845225
O O11 0.753954 0.940962 0.340591
O O12 0.700335 0.725940 0.205590
O O13 0.699561 0.223083 0.219916
O O14 0.500000 0.316959 0.750000
O O15 0.500000 0.000000 0.500000
#
# Coordination Sequence:
#
# PCOD9303740 Si02
#       7
#     8   8   8   8   8   8   8
#     4  12  26  40  57  84 123 159 196 239 295 352
#     4  11  23  38  63  87 119 153 202 246 298 350
#     4  11  23  38  63  86 120 157 204 245 296 348
#     4   9  18  34  56  89 116 145 189 250 301 346
#     4  12  26  41  56  82 122 164 196 238 291 352
#     4  12  22  38  58  90 120 155 200 250 290 351
#     4   9  18  33  58  87 118 143 188 250 305 343
#
# _framework density 19.422696999999999
#
# number of rings (size 3 to 8) (size 9 to 14) (size 15 to 20)
#    0.000    1.143    4.286    2.571    2.000    0.000 
#    0.000    0.000    0.000    1.714    0.000    0.000 
#    0.000    0.000    0.000    0.000    0.000    0.000 
#
# Total GULP energy -156202.640342 kJ/mol
# GULP energy per Si atom -5578.665727 kJ/mol
# Density = 1.937849 g / cm^3
# Si number density = 19.422697 Si / 1000 Ang^3
#
#
#
# Elastic Constant Matrix: (Units=GPa)
#
#
# Indices 1 2 3 4 5 6 
#
# 1 153.8028 -4.4394 33.7076 0.0003 15.4950 -0.0007
# 2 -4.4394 70.7808 13.5504 0.0003 -2.2972 0.0002
# 3 33.7076 13.5504 44.4121 0.0008 -9.6799 -0.0004
# 4 0.0003 0.0003 0.0008 15.3432 0.0000 -10.0407
# 5 15.4950 -2.2972 -9.6799 0.0000 19.6040 0.0002
# 6 -0.0007 0.0002 -0.0004 -10.0407 0.0002 18.8602
#
#
#
# Elastic Compliance Matrix: (Units=1/GPa)
#
#
# Indices 1 2 3 4 5 6 
#
# 1 0.010554 0.002468 -0.011787 0.000001 -0.013872 0.000001
# 2 0.002468 0.015587 -0.007459 0.000000 -0.003807 0.000000
# 3 -0.011787 -0.007459 0.039869 -0.000002 0.028128 -0.000001
# 4 0.000001 0.000000 -0.000002 0.100022 -0.000002 0.053249
# 5 -0.013872 -0.003807 0.028128 -0.000002 0.075418 -0.000002
# 6 0.000001 0.000000 -0.000001 0.053249 -0.000002 0.081370
#
#
# Mechanical properties :
#
#
# Convention : Reuss Voigt Hill
#
# Bulk Modulus (GPa) = 30.81192 39.40362 35.10777
# Shear Modulus (GPa) = 13.61685 25.83997 19.72841
#
# Velocity S-wave (km/s) = 2.65066 3.65142 3.19053
# Velocity P-wave (km/s) = 5.02656 6.17322 5.62916
#
# Compressibility (1/GPa) = 0.03245497
#
# Stress axis : x y z
#
# Youngs Moduli (GPa) = 94.75205 64.15476 25.08235
#
# Poissons Ratio (x) = -0.15835 0.29564
# Poissons Ratio (y) = -0.23386 0.18709
# Poissons Ratio (z) = 1.11682 0.47852
#
# Static dielectric constant tensor:
#      x y z
#    x 1.739040 0.000000 0.009590 
#    y 0.000000 1.738340 0.000000 
#    z 0.009590 0.000000 1.700150 
# 
# From -- ./inp_files/223599.got.cif
#   From: 2010.05.17/outbox.cif.g08.bks.cpg/sg15_112_cif.got.tgz:223599.got - 2010.06.03 18:47:42.
