data_PCOD9303239
_publ_section_title
;
Structure prediction by ZEFSAII (Michael W. Deem and Ramdas Pophale) SiO2 
 PCOD9303239
Probable space group: C 2/C
;
_chemical_formula_sum "Si O2"
_cell_formula_units_Z 60
_cell_length_a 18.329252
_cell_length_b 8.533772
_cell_length_c 17.492259
_cell_angle_alpha 90.000000
_cell_angle_beta 90.680374
_cell_angle_gamma 90.000000
_cell_volume 2735.905271
_symmetry_space_group_name_H-M "C 2/C"
_symmetry_group_IT_number 15
_symmetry_cell_setting 'monoclinic'
loop_
_space_group_symop_operation_xyz
x,y,z
-x,y,1/2-z
-x,-y,-z
x,-y,1/2+z
1/2+x,1/2+y,z
1/2-x,1/2+y,1/2-z
1/2-x,1/2-y,-z
1/2+x,1/2-y,1/2+z
loop_
_atom_site_type_symbol
_atom_site_label
_atom_site_fract_x
_atom_site_fract_y
_atom_site_fract_z
Si Si1 0.552588 0.338337 0.559293
Si Si2 0.171994 0.998305 0.154642
Si Si3 0.580607 0.002862 0.035219
Si Si4 0.500000 0.231193 0.250000
Si Si5 0.861517 0.355554 0.816744
Si Si6 0.293105 0.860162 0.063118
Si Si7 0.198470 0.912849 0.817594
Si Si8 0.939720 0.055750 0.614022
O O1 0.605349 0.462001 0.599618
O O2 0.585921 0.168138 0.573208
O O3 0.475231 0.384294 0.596140
O O4 0.552821 0.361201 0.468011
O O5 0.176942 0.107135 0.228792
O O6 0.163214 0.824638 0.189270
O O7 0.240826 0.989712 0.099870
O O8 0.597828 0.123463 0.102391
O O9 0.500000 0.000000 0.000000
O O10 0.639131 0.051141 0.972751
O O11 0.572776 0.126224 0.242058
O O12 0.516510 0.346856 0.321443
O O13 0.785560 0.450858 0.816908
O O14 0.311461 0.741873 0.131723
O O15 0.250000 0.750000 0.000000
O O16 0.142902 0.034344 0.857112
#
# Coordination Sequence:
#
# PCOD9303239 Si02
#       8
#     8   8   8   4   8   8   8   8
#     4  11  25  41  71 107 139 185 254 298 352 447
#     4  11  23  44  70 104 140 190 246 294 361 440
#     4  12  26  45  69 108 144 188 240 307 367 431
#     4  12  22  46  76 100 138 198 240 290 366 442
#     4  11  25  45  70 102 148 184 241 305 370 428
#     4  11  23  46  71  99 151 195 228 302 381 429
#     4  11  23  41  72 104 138 191 239 296 369 433
#     4  11  22  42  74 102 140 193 243 296 360 439
#
# _framework density 21.930584
#
# number of rings (size 3 to 8) (size 9 to 14) (size 15 to 20)
#    0.000    0.800    5.333    2.400    1.867    4.800 
#    0.000    2.000    0.000    0.000    0.000    0.000 
#    0.000    0.000    0.000    0.000    0.000    0.000 
#
# Total GULP energy -167439.683313 kJ/mol
# GULP energy per Si atom -5581.322777 kJ/mol
# Density = 2.188067 g / cm^3
# Si number density = 21.930584 Si / 1000 Ang^3
#
#
#
# Elastic Constant Matrix: (Units=GPa)
#
#
# Indices 1 2 3 4 5 6 
#
# 1 151.6164 24.4924 50.3240 0.0000 -30.2985 0.0000
# 2 24.4924 35.6366 7.9468 0.0000 -12.6603 0.0000
# 3 50.3240 7.9468 129.1776 0.0000 -4.1200 0.0000
# 4 0.0000 0.0000 0.0000 27.5850 0.0000 -2.3237
# 5 -30.2985 -12.6603 -4.1200 0.0000 43.4013 0.0000
# 6 0.0000 0.0000 0.0000 -2.3237 0.0000 23.0295
#
#
#
# Elastic Compliance Matrix: (Units=1/GPa)
#
#
# Indices 1 2 3 4 5 6 
#
# 1 0.009303 -0.003878 -0.003224 0.000000 0.005057 0.000000
# 2 -0.003878 0.033272 -0.000314 0.000000 0.006968 0.000000
# 3 -0.003224 -0.000314 0.008969 0.000000 -0.001491 0.000000
# 4 0.000000 0.000000 0.000000 0.036562 0.000000 0.003689
# 5 0.005057 0.006968 -0.001491 0.000000 0.028462 0.000000
# 6 0.000000 0.000000 0.000000 0.003689 0.000000 0.043795
#
#
# Mechanical properties :
#
#
# Convention : Reuss Voigt Hill
#
# Bulk Modulus (GPa) = 27.23933 53.55077 40.39505
# Shear Modulus (GPa) = 26.67624 34.38100 30.52862
#
# Velocity S-wave (km/s) = 3.49147 3.96374 3.73508
# Velocity P-wave (km/s) = 5.35737 6.73941 6.08774
#
# Compressibility (1/GPa) = 0.03671163
#
# Stress axis : x y z
#
# Youngs Moduli (GPa) = 107.49426 30.05531 111.49374
#
# Poissons Ratio (x) = 0.11656 0.35948
# Poissons Ratio (y) = 0.41688 0.03498
# Poissons Ratio (z) = 0.34659 0.00943
#
# Static dielectric constant tensor:
#      x y z
#    x 1.896200 0.000000 -0.026870 
#    y 0.000000 1.870370 0.000000 
#    z -0.026870 0.000000 1.802950 
# 
# From -- ./inp_files/209583.got.cif
#   From: 2010.05.17/outbox.cif.g08.bks.cpg/sg15_105_cif.got.tgz:209583.got - 2010.06.03 18:47:42.
