data_PCOD9303670
_publ_section_title
;
Structure prediction by ZEFSAII (Michael W. Deem and Ramdas Pophale) SiO2 
 PCOD9303670
Probable space group: C 2/C
;
_chemical_formula_sum "Si O2"
_cell_formula_units_Z 48
_cell_length_a 11.700267
_cell_length_b 15.412713
_cell_length_c 25.714955
_cell_angle_alpha 90.000000
_cell_angle_beta 149.052052
_cell_angle_gamma 90.000000
_cell_volume 2384.748890
_symmetry_space_group_name_H-M "C 2/C"
_symmetry_group_IT_number 15
_symmetry_cell_setting 'monoclinic'
loop_
_space_group_symop_operation_xyz
x,y,z
-x,y,1/2-z
-x,-y,-z
x,-y,1/2+z
1/2+x,1/2+y,z
1/2-x,1/2+y,1/2-z
1/2-x,1/2-y,-z
1/2+x,1/2-y,1/2+z
loop_
_atom_site_type_symbol
_atom_site_label
_atom_site_fract_x
_atom_site_fract_y
_atom_site_fract_z
Si Si1 0.500000 0.331784 0.750000
Si Si2 0.320448 0.348586 0.022668
Si Si3 0.008396 0.738438 0.931594
Si Si4 0.535028 0.096226 0.033410
Si Si5 0.360556 0.418030 0.925394
Si Si6 0.000000 0.537266 0.750000
Si Si7 0.170308 0.677528 0.744202
O O1 0.713678 0.387908 0.848782
O O2 0.588749 0.265737 0.740340
O O3 0.582876 0.350044 0.140203
O O4 0.250000 0.250000 0.000000
O O5 0.273701 0.380091 0.946081
O O6 0.154837 0.395109 0.997248
O O7 0.951669 0.834147 0.931027
O O8 0.851467 0.698358 0.825150
O O9 0.250000 0.750000 0.000000
O O10 0.005689 0.670795 0.978170
O O11 0.500000 0.000000 0.000000
O O12 0.198836 0.469762 0.824457
O O13 0.500000 0.500000 0.000000
O O14 0.991493 0.601642 0.796390
#
# Coordination Sequence:
#
# PCOD9303670 Si02
#       7
#     4   8   8   8   8   4   8
#     4  11  22  48  73 100 138 196 235 294 369 422
#     4  12  25  48  72 104 147 190 238 305 362 430
#     4  12  26  46  72 107 147 190 239 301 364 434
#     4  12  29  47  74 108 149 189 239 303 369 436
#     4  12  26  46  74 107 143 188 246 299 357 436
#     4  11  26  44  75 108 136 194 251 296 357 442
#     4  11  24  45  77 101 143 191 243 297 366 429
#
# _framework density 20.127904999999998
#
# number of rings (size 3 to 8) (size 9 to 14) (size 15 to 20)
#    0.000    0.333    6.667    1.000    7.000    2.000 
#    0.000    0.000    0.000    0.000    0.000    0.000 
#    0.000    0.000    0.000    0.000    0.000    0.000 
#
# Total GULP energy -133894.571243 kJ/mol
# GULP energy per Si atom -5578.940468 kJ/mol
# Density = 2.008209 g / cm^3
# Si number density = 20.127905 Si / 1000 Ang^3
#
#
#
# Elastic Constant Matrix: (Units=GPa)
#
#
# Indices 1 2 3 4 5 6 
#
# 1 123.2133 58.3956 12.3493 0.0000 -0.5063 0.0000
# 2 58.3956 185.1050 27.7077 0.0000 1.2998 0.0000
# 3 12.3493 27.7077 60.5027 0.0001 2.7696 -0.0001
# 4 0.0000 0.0000 0.0001 29.0688 0.0000 1.1229
# 5 -0.5063 1.2998 2.7696 0.0000 32.0212 0.0000
# 6 0.0000 0.0000 -0.0001 1.1229 0.0000 40.9596
#
#
#
# Elastic Compliance Matrix: (Units=1/GPa)
#
#
# Indices 1 2 3 4 5 6 
#
# 1 0.009567 -0.002927 -0.000627 0.000000 0.000324 0.000000
# 2 -0.002927 0.006695 -0.002464 0.000000 -0.000105 0.000000
# 3 -0.000627 -0.002464 0.017851 0.000000 -0.001454 0.000000
# 4 0.000000 0.000000 0.000000 0.034438 0.000000 -0.000944
# 5 0.000324 -0.000105 -0.001454 0.000000 0.031364 0.000000
# 6 0.000000 0.000000 0.000000 -0.000944 0.000000 0.024440
#
#
# Mechanical properties :
#
#
# Convention : Reuss Voigt Hill
#
# Bulk Modulus (GPa) = 45.29443 62.85846 54.07645
# Shear Modulus (GPa) = 34.78237 38.43447 36.60842
#
# Velocity S-wave (km/s) = 4.16151 4.37454 4.26935
# Velocity P-wave (km/s) = 6.75597 7.53742 7.15737
#
# Compressibility (1/GPa) = 0.02207777
#
# Stress axis : x y z
#
# Youngs Moduli (GPa) = 104.52343 149.36194 56.01868
#
# Poissons Ratio (x) = 0.43712 0.03515
# Poissons Ratio (y) = 0.30589 0.13803
# Poissons Ratio (z) = 0.06558 0.36802
#
# Static dielectric constant tensor:
#      x y z
#    x 1.707430 0.000000 -0.011060 
#    y 0.000000 1.598530 0.000000 
#    z -0.011060 0.000000 1.752140 
# 
# From -- ./inp_files/182553.got.cif
#   From: 2010.05.17/outbox.cif.g08.bks.cpg/sg15_92_cif.got.tgz:182553.got - 2010.06.03 18:47:42.
