data_PCOD9303376
_publ_section_title
;
Structure prediction by ZEFSAII (Michael W. Deem and Ramdas Pophale) SiO2 
 PCOD9303376
Probable space group: C 2/C
;
_chemical_formula_sum "Si O2"
_cell_formula_units_Z 40
_cell_length_a 10.140970
_cell_length_b 19.458105
_cell_length_c 15.889462
_cell_angle_alpha 90.000000
_cell_angle_beta 35.597239
_cell_angle_gamma 90.000000
_cell_volume 1825.049871
_symmetry_space_group_name_H-M "C 2/C"
_symmetry_group_IT_number 15
_symmetry_cell_setting 'monoclinic'
loop_
_space_group_symop_operation_xyz
x,y,z
-x,y,1/2-z
-x,-y,-z
x,-y,1/2+z
1/2+x,1/2+y,z
1/2-x,1/2+y,1/2-z
1/2-x,1/2-y,-z
1/2+x,1/2-y,1/2+z
loop_
_atom_site_type_symbol
_atom_site_label
_atom_site_fract_x
_atom_site_fract_y
_atom_site_fract_z
Si Si1 0.000000 0.460972 0.750000
Si Si2 0.598365 0.801988 0.022099
Si Si3 0.500000 0.594177 0.750000
Si Si4 0.865253 0.256070 0.674116
Si Si5 0.418882 0.955377 0.122834
Si Si6 0.766000 0.847137 0.525892
O O1 0.057475 0.504352 0.802492
O O2 0.204260 0.411386 0.614780
O O3 0.346503 0.770124 0.164044
O O4 0.555580 0.883122 0.062549
O O5 0.750000 0.750000 0.000000
O O6 0.695942 0.798460 0.877023
O O7 0.345022 0.556434 0.762428
O O8 0.680185 0.634377 0.599337
O O9 0.007604 0.191540 0.564754
O O10 0.046518 0.298427 0.634190
O O11 0.500000 0.000000 0.000000
#
# Coordination Sequence:
#
# PCOD9303376 Si02
#       6
#     4   8   4   8   8   8
#     4  12  26  45  74 109 150 188 258 304 374 452
#     4  12  26  44  70 104 149 190 240 306 378 440
#     4  12  22  49  70 101 148 194 244 304 372 446
#     4  11  22  44  73 103 142 181 245 304 372 442
#     4  12  27  51  72 107 154 199 244 308 380 452
#     4  11  22  43  77 106 133 190 244 309 366 445
#
# _framework density 21.917210000000001
#
# number of rings (size 3 to 8) (size 9 to 14) (size 15 to 20)
#    0.000    0.400    6.000    1.800    2.800    4.000 
#   10.800    0.000    0.000    0.000    0.000    0.000 
#    0.000    0.000    0.000    0.000    0.000    0.000 
#
# Total GULP energy -111706.351815 kJ/mol
# GULP energy per Si atom -5585.317591 kJ/mol
# Density = 2.186733 g / cm^3
# Si number density = 21.917210 Si / 1000 Ang^3
#
#
#
# Elastic Constant Matrix: (Units=GPa)
#
#
# Indices 1 2 3 4 5 6 
#
# 1 96.3779 45.4078 41.6246 -0.0020 11.7418 0.0018
# 2 45.4078 101.4038 55.7564 0.0011 8.2697 -0.0033
# 3 41.6246 55.7564 115.9670 0.0021 20.3554 -0.0065
# 4 -0.0020 0.0011 0.0021 29.2106 -0.0006 6.2113
# 5 11.7418 8.2697 20.3554 -0.0006 47.6604 0.0009
# 6 0.0018 -0.0033 -0.0065 6.2113 0.0009 30.7069
#
#
#
# Elastic Compliance Matrix: (Units=1/GPa)
#
#
# Indices 1 2 3 4 5 6 
#
# 1 0.013844 -0.004744 -0.002415 0.000002 -0.001556 -0.000002
# 2 -0.004744 0.015041 -0.005703 -0.000001 0.000995 0.000001
# 3 -0.002415 -0.005703 0.012923 -0.000002 -0.003935 0.000003
# 4 0.000002 -0.000001 -0.000002 0.035773 0.000001 -0.007236
# 5 -0.001556 0.000995 -0.003935 0.000001 0.022873 -0.000002
# 6 -0.000002 0.000001 0.000003 -0.007236 -0.000002 0.034030
#
#
# Mechanical properties :
#
#
# Convention : Reuss Voigt Hill
#
# Bulk Modulus (GPa) = 62.18041 66.59180 64.38610
# Shear Modulus (GPa) = 30.19907 32.91291 31.55599
#
# Velocity S-wave (km/s) = 3.71599 3.87937 3.79856
# Velocity P-wave (km/s) = 6.84424 7.10741 6.97707
#
# Compressibility (1/GPa) = 0.01608224
#
# Stress axis : x y z
#
# Youngs Moduli (GPa) = 72.23559 66.48561 77.38373
#
# Poissons Ratio (x) = 0.31544 0.18686
# Poissons Ratio (y) = 0.34272 0.44134
# Poissons Ratio (z) = 0.17443 0.37918
#
# Static dielectric constant tensor:
#      x y z
#    x 1.951610 0.000000 0.038770 
#    y 0.000000 1.889260 0.000000 
#    z 0.038770 0.000000 1.824540 
# 
# From -- ./inp_files/199715.got.cif
#   From: 2010.05.17/outbox.cif.g08.bks.cpg/sg15_100_cif.got.tgz:199715.got - 2010.06.03 18:47:42.
