data_PCOD9303749
_publ_section_title
;
Structure prediction by ZEFSAII (Michael W. Deem and Ramdas Pophale) SiO2 
 PCOD9303749
Probable space group: C 2/C
;
_chemical_formula_sum "Si O2"
_cell_formula_units_Z 48
_cell_length_a 14.241271
_cell_length_b 26.770454
_cell_length_c 14.324493
_cell_angle_alpha 90.000000
_cell_angle_beta 159.937784
_cell_angle_gamma 90.000000
_cell_volume 1873.393148
_symmetry_space_group_name_H-M "C 2/C"
_symmetry_group_IT_number 15
_symmetry_cell_setting 'monoclinic'
loop_
_space_group_symop_operation_xyz
x,y,z
-x,y,1/2-z
-x,-y,-z
x,-y,1/2+z
1/2+x,1/2+y,z
1/2-x,1/2+y,1/2-z
1/2-x,1/2-y,-z
1/2+x,1/2-y,1/2+z
loop_
_atom_site_type_symbol
_atom_site_label
_atom_site_fract_x
_atom_site_fract_y
_atom_site_fract_z
Si Si1 0.148982 0.777775 0.686308
Si Si2 0.487733 0.693294 0.638826
Si Si3 0.765562 0.412645 0.599740
Si Si4 0.598554 0.935445 0.245165
Si Si5 0.529649 0.134130 0.517354
Si Si6 0.403110 0.499911 0.800737
O O1 0.158538 0.776582 0.581062
O O2 0.835789 0.763928 0.409893
O O3 0.288987 0.830787 0.834125
O O4 0.500000 0.719534 0.750000
O O5 0.304972 0.644243 0.491218
O O6 0.757030 0.667960 0.842087
O O7 0.489904 0.445147 0.346135
O O8 0.000000 0.432417 0.750000
O O9 0.891864 0.406346 0.820725
O O10 0.500000 0.911977 0.250000
O O11 0.666002 0.895034 0.229379
O O12 0.865613 0.964691 0.525571
O O13 0.384292 0.975280 0.997473
O O14 0.500000 0.500000 0.000000
#
# Coordination Sequence:
#
# PCOD9303749 Si02
#       6
#     8   8   8   8   8   8
#     4  11  24  44  67 100 135 176 222 277 349 424
#     4  11  23  39  65 100 139 180 229 273 340 414
#     4  11  23  38  66  95 139 184 235 274 329 396
#     4  12  28  47  69 102 138 183 237 289 349 399
#     4  11  24  45  70  97 136 184 225 287 343 410
#     4  12  25  45  69  98 138 183 232 289 336 398
#
# _framework density 25.621959
#
# number of rings (size 3 to 8) (size 9 to 14) (size 15 to 20)
#    0.000    0.667    5.000    2.500    4.667    2.000 
#    0.000    0.000    0.000    1.000    0.000    0.000 
#    0.000    0.000    0.000    0.000    0.000    0.000 
#
# Total GULP energy -134291.620116 kJ/mol
# GULP energy per Si atom -5595.484172 kJ/mol
# Density = 2.556364 g / cm^3
# Si number density = 25.621959 Si / 1000 Ang^3
#
#
#
# Elastic Constant Matrix: (Units=GPa)
#
#
# Indices 1 2 3 4 5 6 
#
# 1 69.2688 7.7186 9.8682 0.0008 -9.4900 -0.0018
# 2 7.7186 88.1794 37.1871 0.0000 3.6659 -0.0019
# 3 9.8682 37.1871 143.7409 -0.0020 7.5730 0.0006
# 4 0.0008 0.0000 -0.0020 30.0288 0.0009 6.0747
# 5 -9.4900 3.6659 7.5730 0.0009 31.1593 -0.0017
# 6 -0.0018 -0.0019 0.0006 6.0747 -0.0017 10.2712
#
#
#
# Elastic Compliance Matrix: (Units=1/GPa)
#
#
# Indices 1 2 3 4 5 6 
#
# 1 0.015404 -0.001123 -0.001034 -0.000001 0.005075 0.000004
# 2 -0.001123 0.012827 -0.003184 -0.000001 -0.001077 0.000003
# 3 -0.001034 -0.003184 0.007950 0.000001 -0.001873 -0.000002
# 4 -0.000001 -0.000001 0.000001 0.037827 -0.000003 -0.022372
# 5 0.005075 -0.001077 -0.001873 -0.000003 0.034221 0.000008
# 6 0.000004 0.000003 -0.000002 -0.022372 0.000008 0.110591
#
#
# Mechanical properties :
#
#
# Convention : Reuss Voigt Hill
#
# Bulk Modulus (GPa) = 39.21974 45.63743 42.42859
# Shear Modulus (GPa) = 21.00807 30.71954 25.86381
#
# Velocity S-wave (km/s) = 2.86654 3.46635 3.18061
# Velocity P-wave (km/s) = 5.12800 5.81990 5.48487
#
# Compressibility (1/GPa) = 0.02549736
#
# Stress axis : x y z
#
# Youngs Moduli (GPa) = 64.91682 77.96311 125.77839
#
# Poissons Ratio (x) = 0.08757 0.13010
# Poissons Ratio (y) = 0.07291 0.40054
# Poissons Ratio (z) = 0.06715 0.24827
#
# Static dielectric constant tensor:
#      x y z
#    x 2.078340 -0.000030 -0.001410 
#    y -0.000030 2.054020 0.000010 
#    z -0.001410 0.000010 2.073990 
# 
# From -- ./inp_files/157727.got.cif
#   From: 2010.05.17/outbox.cif.g08.bks.cpg/sg15_79_cif.got.tgz:157727.got - 2010.06.03 18:47:42.
