data_PCOD9303636
_publ_section_title
;
Structure prediction by ZEFSAII (Michael W. Deem and Ramdas Pophale) SiO2 
 PCOD9303636
Probable space group: C 2/C
;
_chemical_formula_sum "Si O2"
_cell_formula_units_Z 48
_cell_length_a 16.990596
_cell_length_b 18.241162
_cell_length_c 8.697889
_cell_angle_alpha 90.000000
_cell_angle_beta 40.716294
_cell_angle_gamma 90.000000
_cell_volume 1758.456624
_symmetry_space_group_name_H-M "C 2/C"
_symmetry_group_IT_number 15
_symmetry_cell_setting 'monoclinic'
loop_
_space_group_symop_operation_xyz
x,y,z
-x,y,1/2-z
-x,-y,-z
x,-y,1/2+z
1/2+x,1/2+y,z
1/2-x,1/2+y,1/2-z
1/2-x,1/2-y,-z
1/2+x,1/2-y,1/2+z
loop_
_atom_site_type_symbol
_atom_site_label
_atom_site_fract_x
_atom_site_fract_y
_atom_site_fract_z
Si Si1 0.788122 0.508185 0.489889
Si Si2 0.632800 0.106412 0.376339
Si Si3 0.909945 0.716732 0.699722
Si Si4 0.044002 0.086599 0.847393
Si Si5 0.170610 0.128137 0.115640
Si Si6 0.839381 0.213023 0.986159
O O1 0.671667 0.555760 0.712583
O O2 0.728278 0.447604 0.463103
O O3 0.875825 0.563135 0.271856
O O4 0.853888 0.457934 0.518098
O O5 0.529950 0.167834 0.537689
O O6 0.763527 0.147108 0.178089
O O7 0.902405 0.795073 0.796787
O O8 0.879489 0.733239 0.563786
O O9 0.801343 0.669438 0.930542
O O10 0.069688 0.171349 0.763146
O O11 0.000000 0.053043 0.750000
O O12 0.064780 0.912449 0.872971
O O13 0.750000 0.250000 0.000000
#
# Coordination Sequence:
#
# PCOD9303636 Si02
#       6
#     8   8   8   8   8   8
#     4  11  25  50  79 121 167 221 281 348 437 512
#     4  11  26  51  84 119 170 223 286 351 426 527
#     4  11  25  49  80 117 167 216 276 351 427 500
#     4  11  22  46  81 116 161 213 288 352 411 521
#     4  11  23  45  79 116 159 211 277 346 428 488
#     4  11  24  46  80 118 161 216 287 342 425 509
#
# _framework density 27.296664
#
# number of rings (size 3 to 8) (size 9 to 14) (size 15 to 20)
#    0.000    1.000    3.333    2.500    0.000    4.000 
#    0.000   14.167    0.000    0.000    0.000    0.000 
#    0.000    0.000    0.000    0.000    0.000    0.000 
#
# Total GULP energy -133779.223259 kJ/mol
# GULP energy per Si atom -5574.134302 kJ/mol
# Density = 2.723454 g / cm^3
# Si number density = 27.296664 Si / 1000 Ang^3
#
#
#
# Elastic Constant Matrix: (Units=GPa)
#
#
# Indices 1 2 3 4 5 6 
#
# 1 106.4613 3.7343 15.2232 0.0000 -18.6424 0.0000
# 2 3.7343 95.4673 28.0138 0.0000 -12.7856 0.0000
# 3 15.2232 28.0138 108.7578 0.0000 -16.8436 0.0000
# 4 0.0000 0.0000 0.0000 70.0486 0.0000 -10.4549
# 5 -18.6424 -12.7856 -16.8436 0.0000 27.6500 0.0000
# 6 0.0000 0.0000 0.0000 -10.4549 0.0000 46.7964
#
#
#
# Elastic Compliance Matrix: (Units=1/GPa)
#
#
# Indices 1 2 3 4 5 6 
#
# 1 0.010711 0.000712 -0.000567 0.000000 0.007206 0.000000
# 2 0.000712 0.011757 -0.002442 0.000000 0.004429 0.000000
# 3 -0.000567 -0.002442 0.010676 0.000000 0.004992 0.000000
# 4 0.000000 0.000000 0.000000 0.014768 0.000000 0.003299
# 5 0.007206 0.004429 0.004992 0.000000 0.046114 0.000000
# 6 0.000000 0.000000 0.000000 0.003299 0.000000 0.022106
#
#
# Mechanical properties :
#
#
# Convention : Reuss Voigt Hill
#
# Bulk Modulus (GPa) = 35.02500 44.95877 39.99189
# Shear Modulus (GPa) = 38.39001 46.48000 42.43500
#
# Velocity S-wave (km/s) = 3.75427 4.13094 3.94710
# Velocity P-wave (km/s) = 5.62599 6.26571 5.95445
#
# Compressibility (1/GPa) = 0.02855103
#
# Stress axis : x y z
#
# Youngs Moduli (GPa) = 93.36246 85.05800 93.66560
#
# Poissons Ratio (x) = -0.06059 0.05309
# Poissons Ratio (y) = -0.06651 0.22874
# Poissons Ratio (z) = 0.05291 0.20772
#
# Static dielectric constant tensor:
#      x y z
#    x 2.400690 0.000000 -0.031500 
#    y 0.000000 2.140740 0.000000 
#    z -0.031500 0.000000 1.888120 
# 
# From -- ./inp_files/106300.got.cif
#   From: 2010.05.17/outbox.cif.g08.bks.cpg/sg15_54_cif.got.tgz:106300.got - 2010.06.03 18:47:42.
