data_PCOD9303441
_publ_section_title
;
Structure prediction by ZEFSAII (Michael W. Deem and Ramdas Pophale) SiO2 
 PCOD9303441
Probable space group: C 2/C
;
_chemical_formula_sum "Si O2"
_cell_formula_units_Z 40
_cell_length_a 12.733426
_cell_length_b 8.913212
_cell_length_c 16.517076
_cell_angle_alpha 90.000000
_cell_angle_beta 84.184569
_cell_angle_gamma 90.000000
_cell_volume 1864.969721
_symmetry_space_group_name_H-M "C 2/C"
_symmetry_group_IT_number 15
_symmetry_cell_setting 'monoclinic'
loop_
_space_group_symop_operation_xyz
x,y,z
-x,y,1/2-z
-x,-y,-z
x,-y,1/2+z
1/2+x,1/2+y,z
1/2-x,1/2+y,1/2-z
1/2-x,1/2-y,-z
1/2+x,1/2-y,1/2+z
loop_
_atom_site_type_symbol
_atom_site_label
_atom_site_fract_x
_atom_site_fract_y
_atom_site_fract_z
Si Si1 0.175614 0.315459 0.075446
Si Si2 0.227569 0.873768 0.880038
Si Si3 0.388672 0.632287 0.276543
Si Si4 0.023307 0.820733 0.993921
Si Si5 0.432677 0.695166 0.831606
O O1 0.210314 0.485778 0.086938
O O2 0.185363 0.231234 0.160798
O O3 0.058000 0.273028 0.054265
O O4 0.250000 0.250000 0.000000
O O5 0.163556 0.915777 0.803686
O O6 0.141392 0.809743 0.949303
O O7 0.315019 0.756985 0.845041
O O8 0.500000 0.714664 0.250000
O O9 0.421634 0.483750 0.322823
O O10 0.014943 0.766722 0.086877
O O11 0.000000 0.000000 0.000000
O O12 0.500000 0.750824 0.750000
#
# Coordination Sequence:
#
# PCOD9303441 Si02
#       5
#     8   8   8   8   8
#     4  12  25  41  74 101 131 183 234 284 347 420
#     4  12  25  43  67 105 138 176 235 291 348 416
#     4  11  22  44  70  96 137 187 227 277 346 425
#     4  12  22  46  70  95 135 181 233 278 352 426
#     4  11  25  44  67  97 137 180 223 291 351 412
#
# _framework density 21.448069
#
# number of rings (size 3 to 8) (size 9 to 14) (size 15 to 20)
#    0.000    0.400    6.000    3.000    2.800    1.600 
#    3.600    0.000    0.000    0.000    0.000    0.000 
#    0.000    0.000    0.000    0.000    0.000    0.000 
#
# Total GULP energy -111827.556805 kJ/mol
# GULP energy per Si atom -5591.377840 kJ/mol
# Density = 2.139925 g / cm^3
# Si number density = 21.448069 Si / 1000 Ang^3
#
#
#
# Elastic Constant Matrix: (Units=GPa)
#
#
# Indices 1 2 3 4 5 6 
#
# 1 111.4630 34.1830 49.4608 0.0000 -18.0750 0.0000
# 2 34.1830 34.6001 30.1888 0.0000 -14.9136 0.0000
# 3 49.4608 30.1888 159.8195 0.0000 -14.4078 0.0000
# 4 0.0000 0.0000 0.0000 22.3229 0.0000 -2.9122
# 5 -18.0750 -14.9136 -14.4078 0.0000 61.9169 0.0000
# 6 0.0000 0.0000 0.0000 -2.9122 0.0000 34.3586
#
#
#
# Elastic Compliance Matrix: (Units=1/GPa)
#
#
# Indices 1 2 3 4 5 6 
#
# 1 0.013400 -0.011199 -0.001963 0.000000 0.000757 0.000000
# 2 -0.011199 0.047173 -0.004816 0.000000 0.006972 0.000000
# 3 -0.001963 -0.004816 0.007781 0.000000 0.000077 0.000000
# 4 0.000000 0.000000 0.000000 0.045298 0.000000 0.003839
# 5 0.000757 0.006972 0.000077 0.000000 0.018069 0.000000
# 6 0.000000 0.000000 0.000000 0.003839 0.000000 0.029430
#
#
# Mechanical properties :
#
#
# Convention : Reuss Voigt Hill
#
# Bulk Modulus (GPa) = 30.86663 59.28309 45.07486
# Shear Modulus (GPa) = 24.04903 36.52301 30.28602
#
# Velocity S-wave (km/s) = 3.35217 4.13105 3.76182
# Velocity P-wave (km/s) = 5.42266 7.10312 6.31900
#
# Compressibility (1/GPa) = 0.03239744
#
# Stress axis : x y z
#
# Youngs Moduli (GPa) = 74.62626 21.19847 128.51127
#
# Poissons Ratio (x) = 0.23740 0.25231
# Poissons Ratio (y) = 0.83574 0.61895
# Poissons Ratio (z) = 0.14652 0.10210
#
# Static dielectric constant tensor:
#      x y z
#    x 1.795990 0.000000 0.063190 
#    y 0.000000 1.762940 0.000000 
#    z 0.063190 0.000000 1.770420 
# 
# From -- ./inp_files/142116.got.cif
#   From: 2010.05.17/outbox.cif.g08.bks.cpg/sg15_72_cif.got.tgz:142116.got - 2010.06.03 18:47:42.
