data_PCOD9303675
_publ_section_title
;
Structure prediction by ZEFSAII (Michael W. Deem and Ramdas Pophale) SiO2 
 PCOD9303675
Probable space group: C 2/C
;
_chemical_formula_sum "Si O2"
_cell_formula_units_Z 44
_cell_length_a 15.547599
_cell_length_b 14.215938
_cell_length_c 9.377562
_cell_angle_alpha 90.000000
_cell_angle_beta 57.216846
_cell_angle_gamma 90.000000
_cell_volume 1742.541746
_symmetry_space_group_name_H-M "C 2/C"
_symmetry_group_IT_number 15
_symmetry_cell_setting 'monoclinic'
loop_
_space_group_symop_operation_xyz
x,y,z
-x,y,1/2-z
-x,-y,-z
x,-y,1/2+z
1/2+x,1/2+y,z
1/2-x,1/2+y,1/2-z
1/2-x,1/2-y,-z
1/2+x,1/2-y,1/2+z
loop_
_atom_site_type_symbol
_atom_site_label
_atom_site_fract_x
_atom_site_fract_y
_atom_site_fract_z
Si Si1 0.330647 0.405231 0.688563
Si Si2 0.000000 0.172013 0.250000
Si Si3 0.607595 0.079262 0.071377
Si Si4 0.298935 0.934495 0.300436
Si Si5 0.621064 0.712846 0.632053
Si Si6 0.821024 0.244027 0.601011
O O1 0.424029 0.388220 0.715174
O O2 0.294766 0.511031 0.692839
O O3 0.356868 0.361415 0.511028
O O4 0.232290 0.344089 0.826833
O O5 0.924028 0.234211 0.416240
O O6 0.500000 0.078876 0.250000
O O7 0.670704 0.998550 0.094061
O O8 0.655404 0.182621 0.052375
O O9 0.610781 0.067149 0.898310
O O10 0.264459 0.830466 0.374762
O O11 0.500000 0.716618 0.750000
O O12 0.654263 0.704483 0.764362
#
# Coordination Sequence:
#
# PCOD9303675 Si02
#       6
#     8   4   8   8   8   8
#     4  12  25  49  72 102 144 186 234 294 342 426
#     4  12  28  44  68 110 146 186 226 284 374 400
#     4  11  24  45  73 107 136 183 236 297 347 416
#     4  12  25  45  72 104 142 184 234 284 358 410
#     4  11  22  48  79  97 133 190 245 280 346 415
#     4  12  25  49  72 102 144 186 234 294 342 426
#
# _framework density 25.250471999999998
#
# number of rings (size 3 to 8) (size 9 to 14) (size 15 to 20)
#    0.000    0.364    5.455    3.818    0.000    0.727 
#    9.818    0.000    0.000    0.000    0.000    0.000 
#    0.000    0.000    0.000    0.000    0.000    0.000 
#
# Total GULP energy -123270.696713 kJ/mol
# GULP energy per Si atom -5603.213487 kJ/mol
# Density = 2.519300 g / cm^3
# Si number density = 25.250472 Si / 1000 Ang^3
#
#
#
# Elastic Constant Matrix: (Units=GPa)
#
#
# Indices 1 2 3 4 5 6 
#
# 1 77.1419 -9.2205 15.3181 0.0000 -6.5322 0.0000
# 2 -9.2205 118.9425 10.5867 0.0000 -8.7171 0.0000
# 3 15.3181 10.5867 182.9719 0.0000 -8.3091 0.0000
# 4 0.0000 0.0000 0.0000 23.7209 0.0000 -3.8792
# 5 -6.5322 -8.7171 -8.3091 0.0000 45.4875 0.0000
# 6 0.0000 0.0000 0.0000 -3.8792 0.0000 9.5279
#
#
#
# Elastic Compliance Matrix: (Units=1/GPa)
#
#
# Indices 1 2 3 4 5 6 
#
# 1 0.013507 0.001292 -0.001115 0.000000 0.001983 0.000000
# 2 0.001292 0.008683 -0.000531 0.000000 0.001753 0.000000
# 3 -0.001115 -0.000531 0.005624 0.000000 0.000765 0.000000
# 4 0.000000 0.000000 0.000000 0.045164 0.000000 0.018388
# 5 0.001983 0.001753 0.000765 0.000000 0.022745 0.000000
# 6 0.000000 0.000000 0.000000 0.018388 0.000000 0.112442
#
#
# Mechanical properties :
#
#
# Convention : Reuss Voigt Hill
#
# Bulk Modulus (GPa) = 36.89352 45.82499 41.35926
# Shear Modulus (GPa) = 22.94530 39.90537 31.42533
#
# Velocity S-wave (km/s) = 3.01775 3.97971 3.53164
# Velocity P-wave (km/s) = 5.17544 6.26937 5.74849
#
# Compressibility (1/GPa) = 0.02710503
#
# Stress axis : x y z
#
# Youngs Moduli (GPa) = 74.03584 115.16407 177.80356
#
# Poissons Ratio (x) = -0.14876 0.19833
# Poissons Ratio (y) = -0.09563 0.09441
# Poissons Ratio (z) = 0.08258 0.06115
#
# Static dielectric constant tensor:
#      x y z
#    x 2.030430 0.000000 0.017500 
#    y 0.000000 1.926470 0.000000 
#    z 0.017500 0.000000 2.004060 
# 
# From -- ./inp_files/47422.got.cif
#   From: 2010.05.17/outbox.cif.g08.bks.cpg/sg15_24_cif.got.tgz:47422.got - 2010.06.03 18:47:42.
