data_PCOD9303307
_publ_section_title
;
Structure prediction by ZEFSAII (Michael W. Deem and Ramdas Pophale) SiO2 
 PCOD9303307
Probable space group: C 2/C
;
_chemical_formula_sum "Si O2"
_cell_formula_units_Z 48
_cell_length_a 15.812845
_cell_length_b 8.552946
_cell_length_c 27.314319
_cell_angle_alpha 90.000000
_cell_angle_beta 38.420989
_cell_angle_gamma 90.000000
_cell_volume 2295.681898
_symmetry_space_group_name_H-M "C 2/C"
_symmetry_group_IT_number 15
_symmetry_cell_setting 'monoclinic'
loop_
_space_group_symop_operation_xyz
x,y,z
-x,y,1/2-z
-x,-y,-z
x,-y,1/2+z
1/2+x,1/2+y,z
1/2-x,1/2+y,1/2-z
1/2-x,1/2-y,-z
1/2+x,1/2-y,1/2+z
loop_
_atom_site_type_symbol
_atom_site_label
_atom_site_fract_x
_atom_site_fract_y
_atom_site_fract_z
Si Si1 0.924559 0.611311 0.992978
Si Si2 0.837012 0.598917 0.446094
Si Si3 0.118286 0.106670 0.923673
Si Si4 0.213614 0.641638 0.827232
Si Si5 0.658686 0.886250 0.666819
Si Si6 0.134484 0.312957 0.828177
O O1 0.835652 0.518987 0.993135
O O2 0.055300 0.682549 0.905961
O O3 0.848435 0.752276 0.054046
O O4 0.000000 0.500000 0.000000
O O5 0.750000 0.750000 0.500000
O O6 0.795306 0.567191 0.409026
O O7 0.999010 0.621571 0.364752
O O8 0.070607 0.197988 0.897325
O O9 0.246754 0.007060 0.846920
O O10 0.000000 0.000000 0.000000
O O11 0.292943 0.713465 0.838029
O O12 0.214117 0.455145 0.818226
O O13 0.275811 0.724043 0.751742
O O14 0.500000 0.903522 0.750000
#
# Coordination Sequence:
#
# PCOD9303307 Si02
#       6
#     8   8   8   8   8   8
#     4  11  22  44  72  98 126 181 237 273 323 417
#     4  11  23  41  68  97 134 172 221 278 342 391
#     4  12  24  42  72  99 133 181 233 279 335 412
#     4  11  22  43  69  96 132 174 235 272 333 414
#     4  12  25  43  64 100 142 174 212 290 353 391
#     4  11  24  42  72  97 126 187 231 272 327 422
#
# _framework density 20.908819999999999
#
# number of rings (size 3 to 8) (size 9 to 14) (size 15 to 20)
#    0.000    0.667    6.667    3.000    2.333    0.667 
#    0.000    2.500    0.000    0.000    0.000    0.000 
#    0.000    0.000    0.000    0.000    0.000    0.000 
#
# Total GULP energy -133799.159343 kJ/mol
# GULP energy per Si atom -5574.964973 kJ/mol
# Density = 2.086123 g / cm^3
# Si number density = 20.908820 Si / 1000 Ang^3
#
#
#
# Elastic Constant Matrix: (Units=GPa)
#
#
# Indices 1 2 3 4 5 6 
#
# 1 69.6788 34.2829 10.0093 0.0000 12.2343 0.0001
# 2 34.2829 96.8239 33.7451 0.0000 2.2947 0.0002
# 3 10.0093 33.7451 79.2521 0.0000 2.0420 0.0000
# 4 0.0000 0.0000 0.0000 47.8051 0.0000 6.3784
# 5 12.2343 2.2947 2.0420 0.0000 42.3538 0.0000
# 6 0.0001 0.0002 0.0000 6.3784 0.0000 41.7893
#
#
#
# Elastic Compliance Matrix: (Units=1/GPa)
#
#
# Indices 1 2 3 4 5 6 
#
# 1 0.018389 -0.006609 0.000620 0.000000 -0.004984 0.000000
# 2 -0.006609 0.014510 -0.005379 0.000000 0.001382 0.000000
# 3 0.000620 -0.005379 0.014846 0.000000 -0.000603 0.000000
# 4 0.000000 0.000000 0.000000 0.021353 0.000000 -0.003259
# 5 -0.004984 0.001382 -0.000603 0.000000 0.025004 0.000000
# 6 0.000000 0.000000 0.000000 -0.003259 0.000000 0.024427
#
#
# Mechanical properties :
#
#
# Convention : Reuss Voigt Hill
#
# Bulk Modulus (GPa) = 39.98656 44.64772 42.31714
# Shear Modulus (GPa) = 33.42184 37.57078 35.49631
#
# Velocity S-wave (km/s) = 4.00241 4.24357 4.12475
# Velocity P-wave (km/s) = 6.36591 6.73872 6.55497
#
# Compressibility (1/GPa) = 0.02500841
#
# Stress axis : x y z
#
# Youngs Moduli (GPa) = 54.37926 68.91709 67.35977
#
# Poissons Ratio (x) = 0.45549 -0.04177
# Poissons Ratio (y) = 0.35940 0.36234
# Poissons Ratio (z) = -0.03372 0.37072
#
# Static dielectric constant tensor:
#      x y z
#    x 1.812880 0.000000 0.061720 
#    y 0.000000 1.799660 0.000000 
#    z 0.061720 0.000000 1.735240 
# 
# From -- ./inp_files/247301.got.cif
#   From: 2010.05.17/outbox.cif.g08.bks.cpg/sg15_124_cif.got.tgz:247301.got - 2010.06.03 18:47:42.
