data_PCOD9303466
_publ_section_title
;
Structure prediction by ZEFSAII (Michael W. Deem and Ramdas Pophale) SiO2 
 PCOD9303466
Probable space group: C 2/C
;
_chemical_formula_sum "Si O2"
_cell_formula_units_Z 44
_cell_length_a 8.761237
_cell_length_b 18.769865
_cell_length_c 13.725975
_cell_angle_alpha 90.000000
_cell_angle_beta 111.392503
_cell_angle_gamma 90.000000
_cell_volume 2101.685675
_symmetry_space_group_name_H-M "C 2/C"
_symmetry_group_IT_number 15
_symmetry_cell_setting 'monoclinic'
loop_
_space_group_symop_operation_xyz
x,y,z
-x,y,1/2-z
-x,-y,-z
x,-y,1/2+z
1/2+x,1/2+y,z
1/2-x,1/2+y,1/2-z
1/2-x,1/2-y,-z
1/2+x,1/2-y,1/2+z
loop_
_atom_site_type_symbol
_atom_site_label
_atom_site_fract_x
_atom_site_fract_y
_atom_site_fract_z
Si Si1 0.000000 0.614072 0.250000
Si Si2 0.737320 0.273155 0.609063
Si Si3 0.754975 0.493044 0.782038
Si Si4 0.833653 0.143946 0.767690
Si Si5 0.370979 0.686614 0.998361
Si Si6 0.065023 0.036425 0.416381
O O1 0.869480 0.666133 0.166962
O O2 0.903662 0.560961 0.300402
O O3 0.750000 0.250000 0.500000
O O4 0.762013 0.205867 0.684619
O O5 0.552638 0.298277 0.578480
O O6 0.775274 0.573095 0.746347
O O7 0.600797 0.458907 0.686941
O O8 0.696392 0.503731 0.879574
O O9 0.872274 0.176140 0.882273
O O10 0.000000 0.121726 0.750000
O O11 0.250000 0.750000 0.000000
O O12 0.341085 0.609247 0.036935
O O13 0.000000 0.000000 0.500000
#
# Coordination Sequence:
#
# PCOD9303466 Si02
#       6
#     4   8   8   8   8   8
#     4  12  26  46  72 110 146 188 250 300 358 438
#     4  12  26  45  71 101 146 194 239 295 368 436
#     4  11  25  42  74 103 141 192 241 295 360 439
#     4  12  23  47  74 103 146 192 236 295 371 429
#     4  12  27  43  74 107 142 184 243 305 360 424
#     4  11  22  44  72  99 138 189 240 291 364 428
#
# _framework density 20.935576000000001
#
# number of rings (size 3 to 8) (size 9 to 14) (size 15 to 20)
#    0.000    0.364    8.182    0.000    5.091    2.182 
#    0.000    1.818    0.000    0.000    0.000    0.000 
#    0.000    0.000    0.000    0.000    0.000    0.000 
#
# Total GULP energy -122873.868771 kJ/mol
# GULP energy per Si atom -5585.175853 kJ/mol
# Density = 2.088793 g / cm^3
# Si number density = 20.935576 Si / 1000 Ang^3
#
#
#
# Elastic Constant Matrix: (Units=GPa)
#
#
# Indices 1 2 3 4 5 6 
#
# 1 101.2411 55.0025 41.3675 0.0000 1.1850 0.0000
# 2 55.0025 160.7897 69.0044 0.0000 4.5343 0.0000
# 3 41.3675 69.0044 97.4732 0.0000 -0.0165 0.0000
# 4 0.0000 0.0000 0.0000 32.7314 0.0000 -5.0150
# 5 1.1850 4.5343 -0.0165 0.0000 28.5538 0.0000
# 6 0.0000 0.0000 0.0000 -5.0150 0.0000 35.0358
#
#
#
# Elastic Compliance Matrix: (Units=1/GPa)
#
#
# Indices 1 2 3 4 5 6 
#
# 1 0.012857 -0.002951 -0.003367 0.000000 -0.000067 0.000000
# 2 -0.002951 0.009669 -0.005593 0.000000 -0.001416 0.000000
# 3 -0.003367 -0.005593 0.015648 0.000000 0.001037 0.000000
# 4 0.000000 0.000000 0.000000 0.031237 0.000000 0.004471
# 5 -0.000067 -0.001416 0.001037 0.000000 0.035250 0.000000
# 6 0.000000 0.000000 0.000000 0.004471 0.000000 0.029182
#
#
# Mechanical properties :
#
#
# Convention : Reuss Voigt Hill
#
# Bulk Modulus (GPa) = 69.67910 76.69474 73.18692
# Shear Modulus (GPa) = 30.77875 32.20617 31.49246
#
# Velocity S-wave (km/s) = 3.83843 3.92643 3.88268
# Velocity P-wave (km/s) = 7.28008 7.56763 7.42525
#
# Compressibility (1/GPa) = 0.01435151
#
# Stress axis : x y z
#
# Youngs Moduli (GPa) = 77.77572 103.42385 63.90661
#
# Poissons Ratio (x) = 0.30522 0.21520
# Poissons Ratio (y) = 0.22953 0.35741
# Poissons Ratio (z) = 0.26191 0.57842
#
# Static dielectric constant tensor:
#      x y z
#    x 1.786440 0.000000 0.005330 
#    y 0.000000 1.830500 0.000000 
#    z 0.005330 0.000000 1.753360 
# 
# From -- ./inp_files/134310.got.cif
#   From: 2010.05.17/outbox.cif.g08.bks.cpg/sg15_68_cif.got.tgz:134310.got - 2010.06.03 18:47:42.
