data_PCOD9303601
_publ_section_title
;
Structure prediction by ZEFSAII (Michael W. Deem and Ramdas Pophale) SiO2 
 PCOD9303601
Probable space group: C 2/C
;
_chemical_formula_sum "Si O2"
_cell_formula_units_Z 32
_cell_length_a 21.411467
_cell_length_b 8.735203
_cell_length_c 11.024695
_cell_angle_alpha 90.000000
_cell_angle_beta 134.167849
_cell_angle_gamma 90.000000
_cell_volume 1479.067081
_symmetry_space_group_name_H-M "C 2/C"
_symmetry_group_IT_number 15
_symmetry_cell_setting 'monoclinic'
loop_
_space_group_symop_operation_xyz
x,y,z
-x,y,1/2-z
-x,-y,-z
x,-y,1/2+z
1/2+x,1/2+y,z
1/2-x,1/2+y,1/2-z
1/2-x,1/2-y,-z
1/2+x,1/2-y,1/2+z
loop_
_atom_site_type_symbol
_atom_site_label
_atom_site_fract_x
_atom_site_fract_y
_atom_site_fract_z
Si Si1 0.825321 0.124753 0.072670
Si Si2 0.457028 0.876529 0.303644
Si Si3 0.139175 0.407959 0.659436
Si Si4 0.780323 0.085407 0.734062
O O1 0.913759 0.221045 0.200844
O O2 0.822619 0.003380 0.178474
O O3 0.750000 0.250000 0.000000
O O4 0.814957 0.064037 0.920560
O O5 0.500000 0.964263 0.250000
O O6 0.541679 0.847019 0.500718
O O7 0.381510 0.976565 0.260606
O O8 0.203332 0.265404 0.765864
O O9 0.183543 0.514251 0.616525
#
# Coordination Sequence:
#
# PCOD9303601 Si02
#       4
#     8   8   8   8
#     4  12  24  47  71 101 147 184 239 299 353 428
#     4  11  22  46  68  98 147 189 226 300 360 415
#     4  11  24  41  73 101 138 186 242 285 361 424
#     4  12  24  47  72 106 135 195 236 296 355 428
#
# _framework density 21.635261
#
# number of rings (size 3 to 8) (size 9 to 14) (size 15 to 20)
#    0.000    0.500    7.500    0.000    0.000    2.000 
#    9.000    0.000    0.000    0.000    0.000    0.000 
#    0.000    0.000    0.000    0.000    0.000    0.000 
#
# Total GULP energy -89187.450189 kJ/mol
# GULP energy per Si atom -5574.215637 kJ/mol
# Density = 2.158602 g / cm^3
# Si number density = 21.635261 Si / 1000 Ang^3
#
#
#
# Elastic Constant Matrix: (Units=GPa)
#
#
# Indices 1 2 3 4 5 6 
#
# 1 124.1299 51.8261 22.0512 0.0000 -6.8487 0.0000
# 2 51.8261 114.4288 43.4996 0.0000 9.0495 0.0000
# 3 22.0512 43.4996 104.3144 0.0000 -5.2011 0.0000
# 4 0.0000 0.0000 0.0000 25.6700 0.0000 2.5111
# 5 -6.8487 9.0495 -5.2011 0.0000 45.9273 0.0000
# 6 0.0000 0.0000 0.0000 2.5111 0.0000 43.7280
#
#
#
# Elastic Compliance Matrix: (Units=1/GPa)
#
#
# Indices 1 2 3 4 5 6 
#
# 1 0.010203 -0.004805 -0.000030 0.000000 0.002465 0.000000
# 2 -0.004805 0.012954 -0.004575 0.000000 -0.003787 0.000000
# 3 -0.000030 -0.004575 0.011611 0.000000 0.002212 0.000000
# 4 0.000000 0.000000 0.000000 0.039176 0.000000 -0.002250
# 5 0.002465 -0.003787 0.002212 0.000000 0.023138 0.000000
# 6 0.000000 0.000000 0.000000 -0.002250 0.000000 0.022998
#
#
# Mechanical properties :
#
#
# Convention : Reuss Voigt Hill
#
# Bulk Modulus (GPa) = 62.70358 64.18077 63.44218
# Shear Modulus (GPa) = 34.67024 38.09813 36.38419
#
# Velocity S-wave (km/s) = 4.00745 4.20089 4.10531
# Velocity P-wave (km/s) = 7.10337 7.29790 7.20129
#
# Compressibility (1/GPa) = 0.01594805
#
# Stress axis : x y z
#
# Youngs Moduli (GPa) = 98.00581 77.19780 86.12599
#
# Poissons Ratio (x) = 0.37090 0.00263
# Poissons Ratio (y) = 0.47088 0.39402
# Poissons Ratio (z) = 0.00299 0.35317
#
# Static dielectric constant tensor:
#      x y z
#    x 1.800780 0.000000 -0.048010 
#    y 0.000000 1.764570 0.000000 
#    z -0.048010 0.000000 1.929280 
# 
# From -- ./inp_files/102273.got.cif
#   From: 2010.05.17/outbox.cif.g08.bks.cpg/sg15_52_cif.got.tgz:102273.got - 2010.06.03 18:47:42.
