data_PCOD9303917
_publ_section_title
;
Structure prediction by ZEFSAII (Michael W. Deem and Ramdas Pophale) SiO2 
 PCOD9303917
Probable space group: C 2/C
;
_chemical_formula_sum "Si O2"
_cell_formula_units_Z 56
_cell_length_a 9.920523
_cell_length_b 33.176394
_cell_length_c 7.378178
_cell_angle_alpha 90.000000
_cell_angle_beta 113.821371
_cell_angle_gamma 90.000000
_cell_volume 2221.484796
_symmetry_space_group_name_H-M "C 2/C"
_symmetry_group_IT_number 15
_symmetry_cell_setting 'monoclinic'
loop_
_space_group_symop_operation_xyz
x,y,z
-x,y,1/2-z
-x,-y,-z
x,-y,1/2+z
1/2+x,1/2+y,z
1/2-x,1/2+y,1/2-z
1/2-x,1/2-y,-z
1/2+x,1/2-y,1/2+z
loop_
_atom_site_type_symbol
_atom_site_label
_atom_site_fract_x
_atom_site_fract_y
_atom_site_fract_z
Si Si1 0.159301 0.949066 0.533219
Si Si2 0.941824 0.174832 0.014828
Si Si3 0.710699 0.112782 0.872582
Si Si4 0.360468 0.801859 0.050843
Si Si5 0.643540 0.879279 0.940347
Si Si6 0.754834 0.706752 0.090737
Si Si7 0.171221 0.035525 0.609444
O O1 0.227669 0.904638 0.591322
O O2 0.160578 0.953459 0.315613
O O3 0.999964 0.957223 0.535918
O O4 0.236821 0.990917 0.632153
O O5 0.800847 0.205100 0.944984
O O6 0.000000 0.167585 0.250000
O O7 0.084164 0.192920 0.001153
O O8 0.869814 0.133424 0.906260
O O9 0.642051 0.148928 0.950393
O O10 0.629002 0.107082 0.639017
O O11 0.739092 0.068366 0.957842
O O12 0.500000 0.788190 0.250000
O O13 0.336898 0.790225 0.830007
O O14 0.500000 0.887834 0.750000
O O15 0.669066 0.831171 0.964977
O O16 0.750000 0.750000 0.000000
#
# Coordination Sequence:
#
# PCOD9303917 Si02
#       7
#     8   8   8   8   8   8   8
#     4   9  19  34  57  86 137 170 224 273 342 397
#     4   8  18  38  67 101 130 175 228 278 348 418
#     4   9  19  37  66  92 135 177 232 270 347 413
#     4   9  19  40  70  98 138 180 222 285 352 429
#     4  11  23  41  62  93 134 183 223 286 357 416
#     4  11  23  42  68 103 136 173 241 299 359 422
#     4   9  17  34  55  96 127 175 220 283 325 406
#
# _framework density 25.208366999999999
#
# number of rings (size 3 to 8) (size 9 to 14) (size 15 to 20)
#    0.857    1.714    0.000    1.714    0.000    2.857 
#    7.714    5.000    0.000    0.000    0.000    0.000 
#    0.000    0.000    0.000    0.000    0.000    0.000 
#
# Total GULP energy -156268.155011 kJ/mol
# GULP energy per Si atom -5581.005536 kJ/mol
# Density = 2.515099 g / cm^3
# Si number density = 25.208367 Si / 1000 Ang^3
#
#
#
# Elastic Constant Matrix: (Units=GPa)
#
#
# Indices 1 2 3 4 5 6 
#
# 1 49.3826 8.6932 18.2461 0.0000 24.0103 0.0000
# 2 8.6932 146.2730 32.8801 0.0000 -1.5119 0.0000
# 3 18.2461 32.8801 116.8632 0.0000 21.7964 0.0000
# 4 0.0000 0.0000 0.0000 23.8308 0.0000 -6.9606
# 5 24.0103 -1.5119 21.7964 0.0000 34.8151 0.0000
# 6 0.0000 0.0000 0.0000 -6.9606 0.0000 12.5686
#
#
#
# Elastic Compliance Matrix: (Units=1/GPa)
#
#
# Indices 1 2 3 4 5 6 
#
# 1 0.031089 -0.001998 -0.000313 0.000000 -0.021331 0.000000
# 2 -0.001998 0.007529 -0.002405 0.000000 0.003211 0.000000
# 3 -0.000313 -0.002405 0.010486 0.000000 -0.006453 0.000000
# 4 0.000000 0.000000 0.000000 0.050060 0.000000 0.027724
# 5 -0.021331 0.003211 -0.006453 0.000000 0.047614 0.000000
# 6 0.000000 0.000000 0.000000 0.027724 0.000000 0.094917
#
#
# Mechanical properties :
#
#
# Convention : Reuss Voigt Hill
#
# Bulk Modulus (GPa) = 25.20699 48.01750 36.61225
# Shear Modulus (GPa) = 18.91421 31.08953 25.00187
#
# Velocity S-wave (km/s) = 2.74216 3.51565 3.15272
# Velocity P-wave (km/s) = 4.47740 5.96400 5.27335
#
# Compressibility (1/GPa) = 0.03967153
#
# Stress axis : x y z
#
# Youngs Moduli (GPa) = 32.16588 132.81789 95.36242
#
# Poissons Ratio (x) = 0.26533 0.02989
# Poissons Ratio (y) = 0.06426 0.22937
# Poissons Ratio (z) = 0.01008 0.31946
#
# Static dielectric constant tensor:
#      x y z
#    x 2.134660 0.000000 0.010600 
#    y 0.000000 2.051410 0.000000 
#    z 0.010600 0.000000 2.013710 
# 
# From -- ./inp_files/35759.got.cif
#   From: 2010.05.17/outbox.cif.g08.bks.cpg/sg15_18_cif.got.tgz:35759.got - 2010.06.03 18:47:42.
