data_PCOD9303314
_publ_section_title
;
Structure prediction by ZEFSAII (Michael W. Deem and Ramdas Pophale) SiO2 
 PCOD9303314
Probable space group: C 2/C
;
_chemical_formula_sum "Si O2"
_cell_formula_units_Z 48
_cell_length_a 9.450897
_cell_length_b 18.624633
_cell_length_c 20.282856
_cell_angle_alpha 90.000000
_cell_angle_beta 142.910050
_cell_angle_gamma 90.000000
_cell_volume 2153.060342
_symmetry_space_group_name_H-M "C 2/C"
_symmetry_group_IT_number 15
_symmetry_cell_setting 'monoclinic'
loop_
_space_group_symop_operation_xyz
x,y,z
-x,y,1/2-z
-x,-y,-z
x,-y,1/2+z
1/2+x,1/2+y,z
1/2-x,1/2+y,1/2-z
1/2-x,1/2-y,-z
1/2+x,1/2-y,1/2+z
loop_
_atom_site_type_symbol
_atom_site_label
_atom_site_fract_x
_atom_site_fract_y
_atom_site_fract_z
Si Si1 0.631038 0.609790 0.571495
Si Si2 0.974237 0.269516 0.541117
Si Si3 0.247651 0.100786 0.176188
Si Si4 0.373482 0.713485 0.273238
Si Si5 0.852768 0.449425 0.277112
Si Si6 0.729094 0.836281 0.162093
O O1 0.597891 0.695990 0.561828
O O2 0.410303 0.581942 0.446705
O O3 0.654310 0.586830 0.656299
O O4 0.882249 0.579375 0.639143
O O5 0.750000 0.250000 0.500000
O O6 0.915969 0.315308 0.455795
O O7 0.123671 0.309639 0.651599
O O8 0.500000 0.135690 0.250000
O O9 0.075829 0.152299 0.154581
O O10 0.325387 0.032043 0.247744
O O11 0.500000 0.719997 0.250000
O O12 0.357447 0.786821 0.308710
O O13 0.798225 0.419147 0.328578
O O14 0.000000 0.818790 0.250000
#
# Coordination Sequence:
#
# PCOD9303314 Si02
#       6
#     8   8   8   8   8   8
#     4  11  22  43  70 101 135 182 233 285 337 412
#     4  12  23  42  72 104 137 176 229 290 348 416
#     4  12  25  45  70  98 140 187 236 280 348 414
#     4  12  26  42  66 104 139 174 230 287 345 410
#     4  11  25  42  69 104 137 181 237 282 343 415
#     4  12  24  45  70 103 139 183 226 285 352 416
#
# _framework density 22.293848000000001
#
# number of rings (size 3 to 8) (size 9 to 14) (size 15 to 20)
#    0.000    0.333    6.667    3.000    2.333    2.000 
#    0.000    0.833    0.000    0.000    0.000    0.000 
#    0.000    0.000    0.000    0.000    0.000    0.000 
#
# Total GULP energy -133890.458393 kJ/mol
# GULP energy per Si atom -5578.769100 kJ/mol
# Density = 2.224311 g / cm^3
# Si number density = 22.293848 Si / 1000 Ang^3
#
#
#
# Elastic Constant Matrix: (Units=GPa)
#
#
# Indices 1 2 3 4 5 6 
#
# 1 88.9529 18.1107 12.4984 0.0000 -8.0017 0.0001
# 2 18.1107 84.3639 -0.7328 0.0001 -2.5604 0.0001
# 3 12.4984 -0.7328 97.0166 -0.0008 -6.7462 0.0000
# 4 0.0000 0.0001 -0.0008 39.5015 -0.0003 -12.7053
# 5 -8.0017 -2.5604 -6.7462 -0.0003 34.7328 0.0000
# 6 0.0001 0.0001 0.0000 -12.7053 0.0000 30.4333
#
#
#
# Elastic Compliance Matrix: (Units=1/GPa)
#
#
# Indices 1 2 3 4 5 6 
#
# 1 0.012173 -0.002555 -0.001425 0.000000 0.002339 0.000000
# 2 -0.002555 0.012418 0.000452 0.000000 0.000415 0.000000
# 3 -0.001425 0.000452 0.010617 0.000000 0.001767 0.000000
# 4 0.000000 0.000000 0.000000 0.029242 0.000000 0.012208
# 5 0.002339 0.000415 0.001767 0.000000 0.029704 0.000000
# 6 0.000000 0.000000 0.000000 0.012208 0.000000 0.037955
#
#
# Mechanical properties :
#
#
# Convention : Reuss Voigt Hill
#
# Bulk Modulus (GPa) = 35.52004 36.67621 36.09813
# Shear Modulus (GPa) = 33.65884 36.96397 35.31141
#
# Velocity S-wave (km/s) = 3.88981 4.07631 3.98415
# Velocity P-wave (km/s) = 6.01177 6.21628 6.11488
#
# Compressibility (1/GPa) = 0.02815312
#
# Stress axis : x y z
#
# Youngs Moduli (GPa) = 82.15154 80.52623 94.18525
#
# Poissons Ratio (x) = 0.20571 0.13420
# Poissons Ratio (y) = 0.20986 -0.04255
# Poissons Ratio (z) = 0.11705 -0.03638
#
# Static dielectric constant tensor:
#      x y z
#    x 1.879290 0.000000 0.019290 
#    y 0.000000 1.850320 0.000000 
#    z 0.019290 0.000000 1.844860 
# 
# From -- ./inp_files/233979.got.cif
#   From: 2010.05.17/outbox.cif.g08.bks.cpg/sg15_117_cif.got.tgz:233979.got - 2010.06.03 18:47:42.
