data_PCOD9303637
_publ_section_title
;
Structure prediction by ZEFSAII (Michael W. Deem and Ramdas Pophale) SiO2 
 PCOD9303637
Probable space group: C 2/C
;
_chemical_formula_sum "Si O2"
_cell_formula_units_Z 48
_cell_length_a 11.884716
_cell_length_b 19.520220
_cell_length_c 9.315756
_cell_angle_alpha 90.000000
_cell_angle_beta 58.262976
_cell_angle_gamma 90.000000
_cell_volume 1838.024614
_symmetry_space_group_name_H-M "C 2/C"
_symmetry_group_IT_number 15
_symmetry_cell_setting 'monoclinic'
loop_
_space_group_symop_operation_xyz
x,y,z
-x,y,1/2-z
-x,-y,-z
x,-y,1/2+z
1/2+x,1/2+y,z
1/2-x,1/2+y,1/2-z
1/2-x,1/2-y,-z
1/2+x,1/2-y,1/2+z
loop_
_atom_site_type_symbol
_atom_site_label
_atom_site_fract_x
_atom_site_fract_y
_atom_site_fract_z
Si Si1 0.898995 0.669941 0.180811
Si Si2 0.804793 0.799383 0.336863
Si Si3 0.100096 0.408420 0.372738
Si Si4 0.889878 0.871644 0.724512
Si Si5 0.707267 0.024280 0.521294
Si Si6 0.920316 0.927404 0.427121
O O1 0.903147 0.752735 0.176508
O O2 0.959312 0.621939 0.017276
O O3 0.000000 0.652592 0.250000
O O4 0.737772 0.662618 0.270841
O O5 0.750000 0.750000 0.500000
O O6 0.690847 0.840180 0.330053
O O7 0.872729 0.862018 0.370783
O O8 0.136360 0.470930 0.458553
O O9 0.126213 0.436972 0.197900
O O10 0.809282 0.925838 0.873868
O O11 0.000000 0.834214 0.750000
O O12 0.979246 0.904386 0.536964
O O13 0.795601 0.971780 0.554826
O O14 0.000000 0.966019 0.250000
#
# Coordination Sequence:
#
# PCOD9303637 Si02
#       6
#     8   8   8   8   8   8
#     4  12  25  51  86 121 161 227 290 337 410 512
#     4  11  22  46  83 115 156 218 296 329 395 515
#     4  11  26  48  87 124 161 226 280 355 417 506
#     4  12  28  48  78 125 174 211 271 362 432 490
#     4  11  25  51  79 123 169 212 283 345 434 498
#     4  11  24  45  83 115 155 226 279 341 406 512
#
# _framework density 26.114995
#
# number of rings (size 3 to 8) (size 9 to 14) (size 15 to 20)
#    0.000    0.667    5.000    2.000    4.667    2.667 
#    3.000    0.833    0.000    0.000    0.000    0.000 
#    0.000    0.000    0.000    0.000    0.000    0.000 
#
# Total GULP energy -133857.007954 kJ/mol
# GULP energy per Si atom -5577.375331 kJ/mol
# Density = 2.605556 g / cm^3
# Si number density = 26.114995 Si / 1000 Ang^3
#
#
#
# Elastic Constant Matrix: (Units=GPa)
#
#
# Indices 1 2 3 4 5 6 
#
# 1 146.7391 30.2276 61.2625 0.0000 -4.3045 0.0000
# 2 30.2276 116.8339 47.4557 0.0000 -2.1324 0.0000
# 3 61.2625 47.4557 132.8303 0.0000 10.8242 0.0000
# 4 0.0000 0.0000 0.0000 60.2055 0.0000 1.5703
# 5 -4.3045 -2.1324 10.8242 0.0000 51.1379 0.0000
# 6 0.0000 0.0000 0.0000 1.5703 0.0000 4.2630
#
#
#
# Elastic Compliance Matrix: (Units=1/GPa)
#
#
# Indices 1 2 3 4 5 6 
#
# 1 0.008603 -0.000627 -0.003867 0.000000 0.001517 0.000000
# 2 -0.000627 0.010130 -0.003419 0.000000 0.001093 0.000000
# 3 -0.003867 -0.003419 0.010757 0.000000 -0.002745 0.000000
# 4 0.000000 0.000000 0.000000 0.016771 0.000000 -0.006178
# 5 0.001517 0.001093 -0.002745 0.000000 0.020309 0.000000
# 6 0.000000 0.000000 0.000000 -0.006178 0.000000 0.236853
#
#
# Mechanical properties :
#
#
# Convention : Reuss Voigt Hill
#
# Bulk Modulus (GPa) = 73.18845 74.92165 74.05505
# Shear Modulus (GPa) = 15.44139 40.28512 27.86325
#
# Velocity S-wave (km/s) = 2.43427 3.93186 3.26996
# Velocity P-wave (km/s) = 5.99893 7.02596 6.53266
#
# Compressibility (1/GPa) = 0.01366336
#
# Stress axis : x y z
#
# Youngs Moduli (GPa) = 116.23732 98.71565 92.96123
#
# Poissons Ratio (x) = 0.06193 0.35951
# Poissons Ratio (y) = 0.07292 0.31783
# Poissons Ratio (z) = 0.44952 0.33750
#
# Static dielectric constant tensor:
#      x y z
#    x 2.148620 0.000000 -0.148120 
#    y 0.000000 2.068060 0.000000 
#    z -0.148120 0.000000 2.324390 
# 
# From -- ./inp_files/270086.got.cif
#   From: 2010.05.17/outbox.cif.g08.bks.cpg/sg15_136_cif.got.tgz:270086.got - 2010.06.03 18:47:42.
