data_PCOD9303708
_publ_section_title
;
Structure prediction by ZEFSAII (Michael W. Deem and Ramdas Pophale) SiO2 
 PCOD9303708
Probable space group: C 2/C
;
_chemical_formula_sum "Si O2"
_cell_formula_units_Z 32
_cell_length_a 14.824933
_cell_length_b 9.791025
_cell_length_c 10.981931
_cell_angle_alpha 90.000000
_cell_angle_beta 60.647650
_cell_angle_gamma 90.000000
_cell_volume 1389.401227
_symmetry_space_group_name_H-M "C 2/C"
_symmetry_group_IT_number 15
_symmetry_cell_setting 'monoclinic'
loop_
_space_group_symop_operation_xyz
x,y,z
-x,y,1/2-z
-x,-y,-z
x,-y,1/2+z
1/2+x,1/2+y,z
1/2-x,1/2+y,1/2-z
1/2-x,1/2-y,-z
1/2+x,1/2-y,1/2+z
loop_
_atom_site_type_symbol
_atom_site_label
_atom_site_fract_x
_atom_site_fract_y
_atom_site_fract_z
Si Si1 0.346053 0.422027 0.975717
Si Si2 0.868600 0.224693 0.904748
Si Si3 0.940789 0.276252 0.591391
Si Si4 0.112248 0.628878 0.621087
O O1 0.387280 0.562381 0.896168
O O2 0.403618 0.368414 0.058767
O O3 0.366985 0.292417 0.872685
O O4 0.222417 0.435788 0.082396
O O5 0.898927 0.285951 0.754758
O O6 0.936764 0.283653 0.969754
O O7 0.750000 0.250000 0.000000
O O8 0.899917 0.380582 0.517627
O O9 0.000000 0.591432 0.750000
#
# Coordination Sequence:
#
# PCOD9303708 Si02
#       4
#     8   8   8   8
#     4   9  21  39  60  87 109 158 202 229 283 348
#     4  11  23  37  58  89 124 151 185 246 299 336
#     4   9  22  38  59  88 110 161 196 231 289 343
#     4   9  20  38  66  83 111 149 209 235 276 338
#
# _framework density 23.031504000000002
#
# number of rings (size 3 to 8) (size 9 to 14) (size 15 to 20)
#    1.500    1.000    0.000    0.750    7.000    2.000 
#    4.500    1.250    0.000    0.000    0.000    0.000 
#    0.000    0.000    0.000    0.000    0.000    0.000 
#
# Total GULP energy -89199.746937 kJ/mol
# GULP energy per Si atom -5574.984184 kJ/mol
# Density = 2.297908 g / cm^3
# Si number density = 23.031504 Si / 1000 Ang^3
#
#
#
# Elastic Constant Matrix: (Units=GPa)
#
#
# Indices 1 2 3 4 5 6 
#
# 1 181.7695 -0.1814 55.4254 0.0000 -17.3069 0.0000
# 2 -0.1814 83.8326 2.3747 0.0000 0.7104 0.0000
# 3 55.4254 2.3747 70.9260 0.0000 -16.5448 0.0000
# 4 0.0000 0.0000 0.0000 -7.2213 0.0000 -2.2712
# 5 -17.3069 0.7104 -16.5448 0.0000 40.2296 0.0000
# 6 0.0000 0.0000 0.0000 -2.2712 0.0000 5.6602
#
#
#
# Elastic Compliance Matrix: (Units=1/GPa)
#
#
# Indices 1 2 3 4 5 6 
#
# 1 0.007252 0.000163 -0.005470 0.000000 0.000867 0.000000
# 2 0.000163 0.011950 -0.000620 0.000000 -0.000396 0.000000
# 3 -0.005470 -0.000620 0.019742 0.000000 0.005777 0.000000
# 4 0.000000 0.000000 0.000000 -0.122962 0.000000 -0.049339
# 5 0.000867 -0.000396 0.005777 0.000000 0.027613 0.000000
# 6 0.000000 0.000000 0.000000 -0.049339 0.000000 0.156875
#
#
# Mechanical properties :
#
#
# Convention : Reuss Voigt Hill
#
# Bulk Modulus (GPa) = 36.91385 50.19617 43.55501
# Shear Modulus (GPa) = 41.20143 26.32767 33.76455
#
# Velocity S-wave (km/s) = 4.23415 3.38467 3.83301
# Velocity P-wave (km/s) = 6.32189 6.09233 6.20817
#
# Compressibility (1/GPa) = 0.02709011
#
# Stress axis : x y z
#
# Youngs Moduli (GPa) = 137.88771 83.68337 50.65232
#
# Poissons Ratio (x) = -0.01367 0.27709
# Poissons Ratio (y) = -0.02252 0.03141
# Poissons Ratio (z) = 0.75431 0.05189
#
# Static dielectric constant tensor:
#      x y z
#    x 1.846180 0.000000 -0.031280 
#    y 0.000000 1.958920 0.000000 
#    z -0.031280 0.000000 1.840020 
# 
# From -- ./inp_files/94272.got.cif
#   From: 2010.05.17/outbox.cif.g08.bks.cpg/sg15_48_cif.got.tgz:94272.got - 2010.06.03 18:47:42.
