data_PCOD9303161
_publ_section_title
;
Structure prediction by ZEFSAII (Michael W. Deem and Ramdas Pophale) SiO2 
 PCOD9303161
Probable space group: C 2/C
;
_chemical_formula_sum "Si O2"
_cell_formula_units_Z 60
_cell_length_a 28.715518
_cell_length_b 16.201246
_cell_length_c 21.001651
_cell_angle_alpha 90.000000
_cell_angle_beta 17.380149
_cell_angle_gamma 90.000000
_cell_volume 2918.559204
_symmetry_space_group_name_H-M "C 2/C"
_symmetry_group_IT_number 15
_symmetry_cell_setting 'monoclinic'
loop_
_space_group_symop_operation_xyz
x,y,z
-x,y,1/2-z
-x,-y,-z
x,-y,1/2+z
1/2+x,1/2+y,z
1/2-x,1/2+y,1/2-z
1/2-x,1/2-y,-z
1/2+x,1/2-y,1/2+z
loop_
_atom_site_type_symbol
_atom_site_label
_atom_site_fract_x
_atom_site_fract_y
_atom_site_fract_z
Si Si1 0.448900 0.927170 0.890126
Si Si2 0.062256 0.241852 0.241084
Si Si3 0.865434 0.827839 0.212673
Si Si4 0.857237 0.602225 0.048268
Si Si5 0.413981 0.443547 0.502897
Si Si6 0.560216 0.612613 0.348178
Si Si7 0.000000 0.067482 0.750000
Si Si8 0.788104 0.684274 0.396148
O O1 0.500000 0.928964 0.750000
O O2 0.559078 0.865974 0.785132
O O3 0.277092 0.888841 0.114825
O O4 0.454485 0.018719 0.911000
O O5 0.037957 0.155889 0.309707
O O6 0.000000 0.239519 0.250000
O O7 0.967470 0.317229 0.399138
O O8 0.250000 0.250000 0.000000
O O9 0.806672 0.738133 0.308566
O O10 0.968924 0.868394 0.133642
O O11 0.974927 0.827642 0.009097
O O12 0.749791 0.586146 0.251685
O O13 0.735151 0.605279 0.147696
O O14 0.477997 0.523693 0.456575
O O15 0.434908 0.469417 0.401655
O O16 0.146207 0.122597 0.578228
O O17 0.750000 0.750000 0.500000
#
# Coordination Sequence:
#
# PCOD9303161 Si02
#       8
#     8   8   8   8   8   8   4   8
#     4  12  22  39  71  96 133 183 232 284 337 430
#     4  12  27  49  72 106 144 190 247 313 364 425
#     4  11  22  42  68  98 135 174 229 280 347 423
#     4  11  24  47  72 102 132 188 252 285 351 439
#     4  11  23  45  70 100 137 183 228 292 359 421
#     4  11  24  46  74 100 136 184 241 296 360 421
#     4  12  26  42  62 100 148 176 216 290 356 422
#     4  12  24  39  61 103 136 177 220 275 356 419
#
# _framework density 20.558088999999999
#
# number of rings (size 3 to 8) (size 9 to 14) (size 15 to 20)
#    0.000    0.533    6.667    2.000    2.800    1.067 
#    0.000    0.667    0.000    0.000    0.000    0.000 
#    0.000    0.000    0.000    0.000    0.000    0.000 
#
# Total GULP energy -167461.400934 kJ/mol
# GULP energy per Si atom -5582.046698 kJ/mol
# Density = 2.051130 g / cm^3
# Si number density = 20.558089 Si / 1000 Ang^3
#
#
#
# Elastic Constant Matrix: (Units=GPa)
#
#
# Indices 1 2 3 4 5 6 
#
# 1 92.9996 21.0055 20.8956 -0.0001 14.7063 0.0004
# 2 21.0055 83.3892 31.7437 -0.0009 11.0366 0.0023
# 3 20.8956 31.7437 75.7337 -0.0017 -7.1921 0.0020
# 4 -0.0001 -0.0009 -0.0017 11.4750 0.0010 33.8287
# 5 14.7063 11.0366 -7.1921 0.0010 21.0897 -0.0013
# 6 0.0004 0.0023 0.0020 33.8287 -0.0013 -20.7712
#
#
#
# Elastic Compliance Matrix: (Units=1/GPa)
#
#
# Indices 1 2 3 4 5 6 
#
# 1 0.013592 -0.000170 -0.004724 0.000000 -0.011000 0.000000
# 2 -0.000170 0.016556 -0.007962 -0.000001 -0.011261 0.000001
# 3 -0.004724 -0.007962 0.019174 0.000000 0.013999 0.000000
# 4 0.000000 -0.000001 0.000000 0.015022 0.000001 0.024465
# 5 -0.011000 -0.011261 0.013999 0.000001 0.065754 -0.000002
# 6 0.000000 0.000001 0.000000 0.024465 -0.000002 -0.008299
#
#
# Mechanical properties :
#
#
# Convention : Reuss Voigt Hill
#
# Bulk Modulus (GPa) = 42.35252 44.37911 43.36581
# Shear Modulus (GPa) = 32.17917 14.25722 23.21820
#
# Velocity S-wave (km/s) = 3.96065 2.63631 3.36429
# Velocity P-wave (km/s) = 6.44685 5.55886 6.01925
#
# Compressibility (1/GPa) = 0.02361135
#
# Stress axis : x y z
#
# Youngs Moduli (GPa) = 73.57358 60.40110 52.15365
#
# Poissons Ratio (x) = 0.01026 0.24635
# Poissons Ratio (y) = 0.01249 0.41525
# Poissons Ratio (z) = 0.34753 0.48091
#
# Static dielectric constant tensor:
#      x y z
#    x 1.800120 0.000000 0.028270 
#    y 0.000000 1.716090 0.000000 
#    z 0.028270 0.000000 1.706610 
# 
# From -- ./inp_files/257865.got.cif
#   From: 2010.05.17/outbox.cif.g08.bks.cpg/sg15_129_cif.got.tgz:257865.got - 2010.06.03 18:47:42.
