data_PCOD9303843
_publ_section_title
;
Structure prediction by ZEFSAII (Michael W. Deem and Ramdas Pophale) SiO2 
 PCOD9303843
Probable space group: C 2/C
;
_chemical_formula_sum "Si O2"
_cell_formula_units_Z 56
_cell_length_a 5.267847
_cell_length_b 18.178410
_cell_length_c 27.687488
_cell_angle_alpha 90.000000
_cell_angle_beta 109.486368
_cell_angle_gamma 90.000000
_cell_volume 2499.514905
_symmetry_space_group_name_H-M "C 2/C"
_symmetry_group_IT_number 15
_symmetry_cell_setting 'monoclinic'
loop_
_space_group_symop_operation_xyz
x,y,z
-x,y,1/2-z
-x,-y,-z
x,-y,1/2+z
1/2+x,1/2+y,z
1/2-x,1/2+y,1/2-z
1/2-x,1/2-y,-z
1/2+x,1/2-y,1/2+z
loop_
_atom_site_type_symbol
_atom_site_label
_atom_site_fract_x
_atom_site_fract_y
_atom_site_fract_z
Si Si1 0.718735 0.485787 0.864068
Si Si2 0.955043 0.369061 0.388532
Si Si3 0.538276 0.455085 0.952773
Si Si4 0.900073 0.801990 0.350417
Si Si5 0.500000 0.539601 0.750000
Si Si6 0.500000 0.860924 0.250000
Si Si7 0.070251 0.321387 0.499061
Si Si8 0.447172 0.153870 0.095578
O O1 0.966946 0.543744 0.879863
O O2 0.592467 0.504011 0.908809
O O3 0.552961 0.495651 0.803952
O O4 0.809407 0.401770 0.877012
O O5 0.658917 0.348302 0.349391
O O6 0.226389 0.331591 0.385433
O O7 0.916354 0.340700 0.440668
O O8 0.775971 0.398176 0.980547
O O9 0.304005 0.400188 0.921096
O O10 0.500000 0.500000 0.000000
O O11 0.666937 0.809759 0.296346
O O12 0.018815 0.721431 0.366532
O O13 0.227916 0.586741 0.741164
O O14 0.250000 0.250000 0.500000
O O15 0.929820 0.309703 0.541320
#
# Coordination Sequence:
#
# PCOD9303843 Si02
#       8
#     8   8   8   8   4   4   8   8
#     4  11  26  45  71 106 142 192 247 308 368 443
#     4  12  25  43  73 106 136 197 239 302 352 448
#     4  11  25  43  70 106 151 196 242 303 369 451
#     4  12  26  45  74 103 145 181 249 302 372 432
#     4  12  26  47  80 105 140 186 258 304 368 441
#     4  12  24  49  74 111 130 190 244 318 362 441
#     4  11  23  40  65 100 144 189 243 285 365 433
#     4  11  26  43  67 107 150 191 243 304 376 436
#
# _framework density 22.404347000000001
#
# number of rings (size 3 to 8) (size 9 to 14) (size 15 to 20)
#    0.000    0.571    4.286    2.571   10.000    4.000 
#    0.000    0.000    3.143    0.000    0.000    0.000 
#    0.000    0.000    0.000    0.000    0.000    0.000 
#
# Total GULP energy -156224.722055 kJ/mol
# GULP energy per Si atom -5579.454359 kJ/mol
# Density = 2.235335 g / cm^3
# Si number density = 22.404347 Si / 1000 Ang^3
#
#
#
# Elastic Constant Matrix: (Units=GPa)
#
#
# Indices 1 2 3 4 5 6 
#
# 1 88.0674 16.1046 18.1282 0.0000 3.6382 0.0000
# 2 16.1046 85.8681 26.9480 0.0000 -5.6443 0.0000
# 3 18.1282 26.9480 139.5673 0.0000 -2.1422 0.0000
# 4 0.0000 0.0000 0.0000 41.1960 0.0000 3.1653
# 5 3.6382 -5.6443 -2.1422 0.0000 28.2091 0.0000
# 6 0.0000 0.0000 0.0000 3.1653 0.0000 33.5622
#
#
#
# Elastic Compliance Matrix: (Units=1/GPa)
#
#
# Indices 1 2 3 4 5 6 
#
# 1 0.012057 -0.002017 -0.001208 0.000000 -0.002050 0.000000
# 2 -0.002017 0.012885 -0.002185 0.000000 0.002672 0.000000
# 3 -0.001208 -0.002185 0.007749 0.000000 0.000307 0.000000
# 4 0.000000 0.000000 0.000000 0.024451 0.000000 -0.002306
# 5 -0.002050 0.002672 0.000307 0.000000 0.036272 0.000000
# 6 0.000000 0.000000 0.000000 -0.002306 0.000000 0.030013
#
#
# Mechanical properties :
#
#
# Convention : Reuss Voigt Hill
#
# Bulk Modulus (GPa) = 45.72255 48.42937 47.07596
# Shear Modulus (GPa) = 35.32625 37.41493 36.37059
#
# Velocity S-wave (km/s) = 3.97515 4.09098 4.03348
# Velocity P-wave (km/s) = 6.44370 6.63158 6.53831
#
# Compressibility (1/GPa) = 0.02187105
#
# Stress axis : x y z
#
# Youngs Moduli (GPa) = 82.93821 77.60712 129.05707
#
# Poissons Ratio (x) = 0.15653 0.15592
# Poissons Ratio (y) = 0.16728 0.28198
# Poissons Ratio (z) = 0.10020 0.16957
#
# Static dielectric constant tensor:
#      x y z
#    x 1.968150 0.000000 0.007320 
#    y 0.000000 1.902300 0.000000 
#    z 0.007320 0.000000 1.947080 
# 
# From -- ./inp_files/286043.got.cif
#   From: 2010.05.17/outbox.cif.g08.bks.cpg/sg15_144_cif.got.tgz:286043.got - 2010.06.03 18:47:42.
