data_PCOD9303242
_publ_section_title
;
Structure prediction by ZEFSAII (Michael W. Deem and Ramdas Pophale) SiO2 
 PCOD9303242
Probable space group: C 2/C
;
_chemical_formula_sum "Si O2"
_cell_formula_units_Z 56
_cell_length_a 11.094276
_cell_length_b 11.114645
_cell_length_c 20.580210
_cell_angle_alpha 90.000000
_cell_angle_beta 106.052093
_cell_angle_gamma 90.000000
_cell_volume 2438.779764
_symmetry_space_group_name_H-M "C 2/C"
_symmetry_group_IT_number 15
_symmetry_cell_setting 'monoclinic'
loop_
_space_group_symop_operation_xyz
x,y,z
-x,y,1/2-z
-x,-y,-z
x,-y,1/2+z
1/2+x,1/2+y,z
1/2-x,1/2+y,1/2-z
1/2-x,1/2-y,-z
1/2+x,1/2-y,1/2+z
loop_
_atom_site_type_symbol
_atom_site_label
_atom_site_fract_x
_atom_site_fract_y
_atom_site_fract_z
Si Si1 0.353212 0.616636 0.537945
Si Si2 0.414925 0.952910 0.544650
Si Si3 0.317073 0.201592 0.575671
Si Si4 0.544616 0.214396 0.342362
Si Si5 0.246399 0.074585 0.205177
Si Si6 0.982593 0.119636 0.423031
Si Si7 0.223696 0.201072 0.705346
O O1 0.207246 0.616845 0.499110
O O2 0.372123 0.688187 0.607298
O O3 0.434271 0.658061 0.487232
O O4 0.411878 0.483650 0.555833
O O5 0.351507 0.063785 0.571612
O O6 0.500000 0.000000 0.500000
O O7 0.496896 0.875095 0.605977
O O8 0.250000 0.250000 0.500000
O O9 0.448176 0.271152 0.601035
O O10 0.240006 0.212605 0.630241
O O11 0.629077 0.128857 0.310179
O O12 0.423205 0.283997 0.299617
O O13 0.135159 0.072627 0.135490
O O14 0.214217 0.180755 0.252189
O O15 0.264528 0.935656 0.230662
#
# Coordination Sequence:
#
# PCOD9303242 Si02
#       7
#     8   8   8   8   8   8   8
#     4  11  22  42  74 108 152 194 245 317 392 460
#     4  12  24  39  72 117 153 188 249 315 398 460
#     4  12  24  45  74 110 153 193 248 329 388 457
#     4  12  25  47  77 106 152 199 259 316 394 458
#     4  12  28  53  77 108 153 212 266 321 390 476
#     4  11  23  43  73 109 149 197 251 310 391 469
#     4  12  28  54  77 109 157 209 266 324 395 474
#
# _framework density 22.962304
#
# number of rings (size 3 to 8) (size 9 to 14) (size 15 to 20)
#    0.000    0.286    5.714    3.429    2.000    2.857 
#    5.143    0.000    0.000    0.000    0.000    0.000 
#    0.000    0.000    0.000    0.000    0.000    0.000 
#
# Total GULP energy -156555.088779 kJ/mol
# GULP energy per Si atom -5591.253171 kJ/mol
# Density = 2.291004 g / cm^3
# Si number density = 22.962304 Si / 1000 Ang^3
#
#
#
# Elastic Constant Matrix: (Units=GPa)
#
#
# Indices 1 2 3 4 5 6 
#
# 1 86.1827 33.1790 22.5924 0.0000 -3.6208 0.0000
# 2 33.1790 153.1825 39.8939 0.0000 -9.8409 0.0000
# 3 22.5924 39.8939 56.2556 0.0000 -17.9472 0.0000
# 4 0.0000 0.0000 0.0000 37.0710 0.0000 -6.5085
# 5 -3.6208 -9.8409 -17.9472 0.0000 27.8614 0.0000
# 6 0.0000 0.0000 0.0000 -6.5085 0.0000 34.0061
#
#
#
# Elastic Compliance Matrix: (Units=1/GPa)
#
#
# Indices 1 2 3 4 5 6 
#
# 1 0.013461 -0.001804 -0.004747 0.000000 -0.001946 0.000000
# 2 -0.001804 0.008273 -0.005393 0.000000 -0.000786 0.000000
# 3 -0.004747 -0.005393 0.028575 0.000000 0.015885 0.000000
# 4 0.000000 0.000000 0.000000 0.027913 0.000000 0.005342
# 5 -0.001946 -0.000786 0.015885 0.000000 0.045594 0.000000
# 6 0.000000 0.000000 0.000000 0.005342 0.000000 0.030429
#
#
# Mechanical properties :
#
#
# Convention : Reuss Voigt Hill
#
# Bulk Modulus (GPa) = 37.85099 54.10571 45.97835
# Shear Modulus (GPa) = 26.74661 33.11807 29.93234
#
# Velocity S-wave (km/s) = 3.41663 3.80186 3.61438
# Velocity P-wave (km/s) = 5.66429 6.54875 6.12251
#
# Compressibility (1/GPa) = 0.02641939
#
# Stress axis : x y z
#
# Youngs Moduli (GPa) = 74.29122 120.87543 34.99588
#
# Poissons Ratio (x) = 0.21809 0.16613
# Poissons Ratio (y) = 0.13404 0.18874
# Poissons Ratio (z) = 0.35267 0.65190
#
# Static dielectric constant tensor:
#      x y z
#    x 1.697420 0.000000 -0.021650 
#    y 0.000000 1.905910 0.000000 
#    z -0.021650 0.000000 1.915680 
# 
# From -- ./inp_files/237652.got.cif
#   From: 2010.05.17/outbox.cif.g08.bks.cpg/sg15_119_cif.got.tgz:237652.got - 2010.06.03 18:47:42.
