data_PCOD9303135
_publ_section_title
;
Structure prediction by ZEFSAII (Michael W. Deem and Ramdas Pophale) SiO2 
 PCOD9303135
Probable space group: C 2/C
;
_chemical_formula_sum "Si O2"
_cell_formula_units_Z 60
_cell_length_a 28.415581
_cell_length_b 9.360670
_cell_length_c 11.061320
_cell_angle_alpha 90.000000
_cell_angle_beta 76.586088
_cell_angle_gamma 90.000000
_cell_volume 2861.923950
_symmetry_space_group_name_H-M "C 2/C"
_symmetry_group_IT_number 15
_symmetry_cell_setting 'monoclinic'
loop_
_space_group_symop_operation_xyz
x,y,z
-x,y,1/2-z
-x,-y,-z
x,-y,1/2+z
1/2+x,1/2+y,z
1/2-x,1/2+y,1/2-z
1/2-x,1/2-y,-z
1/2+x,1/2-y,1/2+z
loop_
_atom_site_type_symbol
_atom_site_label
_atom_site_fract_x
_atom_site_fract_y
_atom_site_fract_z
Si Si1 0.971630 0.316883 0.955654
Si Si2 0.500000 0.418091 0.250000
Si Si3 0.433226 0.677941 0.224789
Si Si4 0.663768 0.217373 0.764713
Si Si5 0.432583 0.875624 0.464766
Si Si6 0.753346 0.327245 0.867851
Si Si7 0.836009 0.418389 0.649756
Si Si8 0.725454 0.101418 0.530878
O O1 0.942945 0.457071 0.924689
O O2 0.973677 0.185994 0.860972
O O3 0.951865 0.262968 0.096487
O O4 0.027266 0.353296 0.954861
O O5 0.460854 0.528241 0.217911
O O6 0.375875 0.663639 0.235067
O O7 0.440006 0.773080 0.343253
O O8 0.712058 0.270470 0.802984
O O9 0.677810 0.142162 0.631668
O O10 0.642877 0.076514 0.840723
O O11 0.380547 0.842902 0.556971
O O12 0.807335 0.334790 0.774369
O O13 0.744249 0.492277 0.908200
O O14 0.750000 0.250000 0.000000
O O15 0.791110 0.454114 0.587685
O O16 0.750000 0.250000 0.500000
#
# Coordination Sequence:
#
# PCOD9303135 Si02
#       8
#     8   4   8   8   8   8   8   8
#     4  11  26  47  72 103 143 180 239 286 355 419
#     4  12  28  48  70 100 148 188 214 292 368 420
#     4  12  24  46  74 101 144 182 237 286 354 416
#     4  11  23  42  66 102 132 180 229 285 333 411
#     4  11  24  44  77 103 130 188 242 294 334 414
#     4  11  24  43  69  97 140 181 224 283 349 410
#     4  11  22  42  72 100 134 178 235 289 336 403
#     4  11  22  42  67  91 134 176 222 276 340 398
#
# _framework density 20.964917
#
# number of rings (size 3 to 8) (size 9 to 14) (size 15 to 20)
#    0.000    0.800    6.667    0.400    3.733    0.000 
#    7.200    0.000    0.000    0.000    0.000    0.000 
#    0.000    0.000    0.000    0.000    0.000    0.000 
#
# Total GULP energy -167120.756241 kJ/mol
# GULP energy per Si atom -5570.691875 kJ/mol
# Density = 2.091720 g / cm^3
# Si number density = 20.964917 Si / 1000 Ang^3
#
#
#
# Elastic Constant Matrix: (Units=GPa)
#
#
# Indices 1 2 3 4 5 6 
#
# 1 74.6419 20.0956 21.0082 0.0000 -3.7462 0.0000
# 2 20.0956 90.5108 33.8689 0.0000 -9.2061 0.0000
# 3 21.0082 33.8689 86.8831 0.0000 -3.9304 0.0000
# 4 0.0000 0.0000 0.0000 36.2451 0.0000 -2.0686
# 5 -3.7462 -9.2061 -3.9304 0.0000 18.4329 0.0000
# 6 0.0000 0.0000 0.0000 -2.0686 0.0000 23.6150
#
#
#
# Elastic Compliance Matrix: (Units=1/GPa)
#
#
# Indices 1 2 3 4 5 6 
#
# 1 0.014797 -0.002143 -0.002681 0.000000 0.001365 0.000000
# 2 -0.002143 0.013809 -0.004617 0.000000 0.005477 0.000000
# 3 -0.002681 -0.004617 0.013963 0.000000 0.000127 0.000000
# 4 0.000000 0.000000 0.000000 0.027729 0.000000 0.002429
# 5 0.001365 0.005477 0.000127 0.000000 0.057290 0.000000
# 6 0.000000 0.000000 0.000000 0.002429 0.000000 0.042559
#
#
# Mechanical properties :
#
#
# Convention : Reuss Voigt Hill
#
# Bulk Modulus (GPa) = 42.21615 44.66457 43.44036
# Shear Modulus (GPa) = 25.39028 27.46280 26.42654
#
# Velocity S-wave (km/s) = 3.48384 3.62324 3.55422
# Velocity P-wave (km/s) = 6.03019 6.23334 6.13260
#
# Compressibility (1/GPa) = 0.02368761
#
# Stress axis : x y z
#
# Youngs Moduli (GPa) = 67.57956 72.41640 71.61552
#
# Poissons Ratio (x) = 0.15522 0.19198
# Poissons Ratio (y) = 0.14485 0.33065
# Poissons Ratio (z) = 0.18116 0.33435
#
# Static dielectric constant tensor:
#      x y z
#    x 1.787860 0.000000 0.018870 
#    y 0.000000 1.753640 0.000000 
#    z 0.018870 0.000000 1.769910 
# 
# From -- ./inp_files/125866.got.cif
#   From: 2010.05.17/outbox.cif.g08.bks.cpg/sg15_63_cif.got.tgz:125866.got - 2010.06.03 18:47:42.
