data_PCOD9303121
_publ_section_title
;
Structure prediction by ZEFSAII (Michael W. Deem and Ramdas Pophale) SiO2 
 PCOD9303121
Probable space group: C 2/C
;
_chemical_formula_sum "Si O2"
_cell_formula_units_Z 48
_cell_length_a 11.486601
_cell_length_b 27.453959
_cell_length_c 9.055246
_cell_angle_alpha 90.000000
_cell_angle_beta 134.734676
_cell_angle_gamma 90.000000
_cell_volume 2028.540152
_symmetry_space_group_name_H-M "C 2/C"
_symmetry_group_IT_number 15
_symmetry_cell_setting 'monoclinic'
loop_
_space_group_symop_operation_xyz
x,y,z
-x,y,1/2-z
-x,-y,-z
x,-y,1/2+z
1/2+x,1/2+y,z
1/2-x,1/2+y,1/2-z
1/2-x,1/2-y,-z
1/2+x,1/2-y,1/2+z
loop_
_atom_site_type_symbol
_atom_site_label
_atom_site_fract_x
_atom_site_fract_y
_atom_site_fract_z
Si Si1 0.530346 0.783013 0.450870
Si Si2 0.629891 0.687835 0.092869
Si Si3 0.954303 0.081318 0.379875
Si Si4 0.843364 0.447494 0.503763
Si Si5 0.830207 0.663628 0.004786
Si Si6 0.725793 0.498584 0.159120
O O1 0.500000 0.784308 0.250000
O O2 0.502571 0.728379 0.485570
O O3 0.708558 0.802750 0.659908
O O4 0.385831 0.813442 0.401302
O O5 0.562261 0.633838 0.061498
O O6 0.696159 0.690747 0.984334
O O7 0.792030 0.050216 0.272472
O O8 0.000000 0.088366 0.250000
O O9 0.086002 0.042407 0.558183
O O10 0.780726 0.392478 0.444120
O O11 0.870438 0.467790 0.364074
O O12 0.728369 0.484883 0.491839
O O13 0.000000 0.447388 0.750000
O O14 0.000000 0.664906 0.250000
#
# Coordination Sequence:
#
# PCOD9303121 Si02
#       6
#     8   8   8   8   8   8
#     4  11  24  43  68  99 136 174 226 281 342 401
#     4  11  23  44  69  95 135 175 227 282 333 405
#     4  11  23  41  66  93 132 176 224 280 331 395
#     4  11  22  42  66 100 137 175 220 277 335 407
#     4   9  21  41  65  95 134 174 216 270 335 400
#     4  11  23  41  65  96 135 174 225 269 332 401
#
# _framework density 23.662336
#
# number of rings (size 3 to 8) (size 9 to 14) (size 15 to 20)
#    0.000    1.333    3.333    2.000    0.000    2.667 
#    0.000    1.667    0.000    0.000    0.000    0.000 
#    0.000    0.000    0.000    0.000    0.000    0.000 
#
# Total GULP energy -134070.004692 kJ/mol
# GULP energy per Si atom -5586.250195 kJ/mol
# Density = 2.360848 g / cm^3
# Si number density = 23.662336 Si / 1000 Ang^3
#
#
#
# Elastic Constant Matrix: (Units=GPa)
#
#
# Indices 1 2 3 4 5 6 
#
# 1 76.9120 47.5046 32.3661 0.0000 -18.6377 0.0000
# 2 47.5046 164.4715 42.2975 0.0000 -14.2436 0.0000
# 3 32.3661 42.2975 53.5111 0.0000 -8.9273 0.0000
# 4 0.0000 0.0000 0.0000 19.1258 0.0000 -43.6970
# 5 -18.6377 -14.2436 -8.9273 0.0000 45.7045 0.0000
# 6 0.0000 0.0000 0.0000 -43.6970 0.0000 -124.8147
#
#
#
# Elastic Compliance Matrix: (Units=1/GPa)
#
#
# Indices 1 2 3 4 5 6 
#
# 1 0.019856 -0.003023 -0.008711 0.000000 0.005454 0.000000
# 2 -0.003023 0.008160 -0.004552 0.000000 0.000421 0.000000
# 3 -0.008711 -0.004552 0.027625 0.000000 0.000425 0.000000
# 4 0.000000 0.000000 0.000000 0.029050 0.000000 -0.010170
# 5 0.005454 0.000421 0.000425 0.000000 0.024318 0.000000
# 6 0.000000 0.000000 0.000000 -0.010170 0.000000 -0.004451
#
#
# Mechanical properties :
#
#
# Convention : Reuss Voigt Hill
#
# Bulk Modulus (GPa) = 43.34402 59.91456 51.62929
# Shear Modulus (GPa) = 34.52601 -0.48178 17.02212
#
# Velocity S-wave (km/s) = 3.82398 -0.45172 2.68503
# Velocity P-wave (km/s) = 6.15261 5.01034 5.61062
#
# Compressibility (1/GPa) = 0.02307123
#
# Stress axis : x y z
#
# Youngs Moduli (GPa) = 50.36252 122.54687 36.19871
#
# Poissons Ratio (x) = 0.37040 0.31532
# Poissons Ratio (y) = 0.15222 0.16476
# Poissons Ratio (z) = 0.43870 0.55779
#
# Static dielectric constant tensor:
#      x y z
#    x 1.993850 0.000000 0.073160 
#    y 0.000000 1.842440 0.000000 
#    z 0.073160 0.000000 1.990300 
# 
# From -- ./inp_files/33808.got.cif
#   From: 2010.05.17/outbox.cif.g08.bks.cpg/sg15_17_cif.got.tgz:33808.got - 2010.06.03 18:47:42.
