data_PCOD9303534
_publ_section_title
;
Structure prediction by ZEFSAII (Michael W. Deem and Ramdas Pophale) SiO2 
 PCOD9303534
Probable space group: C 2/C
;
_chemical_formula_sum "Si O2"
_cell_formula_units_Z 44
_cell_length_a 8.968383
_cell_length_b 16.623837
_cell_length_c 14.244157
_cell_angle_alpha 90.000000
_cell_angle_beta 101.147649
_cell_angle_gamma 90.000000
_cell_volume 2083.577732
_symmetry_space_group_name_H-M "C 2/C"
_symmetry_group_IT_number 15
_symmetry_cell_setting 'monoclinic'
loop_
_space_group_symop_operation_xyz
x,y,z
-x,y,1/2-z
-x,-y,-z
x,-y,1/2+z
1/2+x,1/2+y,z
1/2-x,1/2+y,1/2-z
1/2-x,1/2-y,-z
1/2+x,1/2-y,1/2+z
loop_
_atom_site_type_symbol
_atom_site_label
_atom_site_fract_x
_atom_site_fract_y
_atom_site_fract_z
Si Si1 0.000000 0.810045 0.750000
Si Si2 0.599595 0.326157 0.063774
Si Si3 0.690746 0.582633 0.933912
Si Si4 0.232697 0.784942 0.284865
Si Si5 0.249041 0.103463 0.405607
Si Si6 0.567384 0.174791 0.411724
O O1 0.099987 0.751497 0.698110
O O2 0.118864 0.864596 0.820405
O O3 0.484646 0.401096 0.060857
O O4 0.677555 0.303082 0.172277
O O5 0.487763 0.250603 0.031432
O O6 0.719207 0.347010 0.998118
O O7 0.718179 0.633990 0.842683
O O8 0.728664 0.490146 0.923733
O O9 0.801787 0.622633 0.024123
O O10 0.133144 0.718208 0.327531
O O11 0.414893 0.122388 0.384203
#
# Coordination Sequence:
#
# PCOD9303534 Si02
#       6
#     4   8   8   8   8   8
#     4  12  26  44  70  96 136 180 250 268 352 404
#     4  11  23  44  69  99 138 181 231 274 343 408
#     4  11  24  43  70  99 140 178 227 282 354 400
#     4  11  25  45  71  99 132 190 232 284 328 426
#     4  12  26  42  69 105 138 178 226 298 336 414
#     4  11  22  45  69  97 134 179 232 272 347 410
#
# _framework density 21.117524
#
# number of rings (size 3 to 8) (size 9 to 14) (size 15 to 20)
#    0.000    0.727    1.818    8.182    5.091    0.000 
#    0.000    0.000    0.000    0.000    0.000    0.000 
#    0.000    0.000    0.000    0.000    0.000    0.000 
#
# Total GULP energy -123061.105289 kJ/mol
# GULP energy per Si atom -5593.686604 kJ/mol
# Density = 2.106946 g / cm^3
# Si number density = 21.117524 Si / 1000 Ang^3
#
#
#
# Elastic Constant Matrix: (Units=GPa)
#
#
# Indices 1 2 3 4 5 6 
#
# 1 111.4131 20.8701 32.9374 0.0000 -1.6082 0.0000
# 2 20.8701 93.4204 13.7458 0.0000 -7.2368 0.0000
# 3 32.9374 13.7458 121.5275 0.0000 8.0622 0.0000
# 4 0.0000 0.0000 0.0000 7.7389 0.0000 -7.0972
# 5 -1.6082 -7.2368 8.0622 0.0000 34.6014 0.0000
# 6 0.0000 0.0000 0.0000 -7.0972 0.0000 18.0173
#
#
#
# Elastic Compliance Matrix: (Units=1/GPa)
#
#
# Indices 1 2 3 4 5 6 
#
# 1 0.010088 -0.001822 -0.002574 0.000000 0.000688 0.000000
# 2 -0.001822 0.011450 -0.000970 0.000000 0.002536 0.000000
# 3 -0.002574 -0.000970 0.009199 0.000000 -0.002466 0.000000
# 4 0.000000 0.000000 0.000000 0.202296 0.000000 0.079686
# 5 0.000688 0.002536 -0.002466 0.000000 0.030038 0.000000
# 6 0.000000 0.000000 0.000000 0.079686 0.000000 0.086892
#
#
# Mechanical properties :
#
#
# Convention : Reuss Voigt Hill
#
# Bulk Modulus (GPa) = 49.98108 51.27417 50.62762
# Shear Modulus (GPa) = 13.61057 29.32536 21.46797
#
# Velocity S-wave (km/s) = 2.54149 3.73053 3.19187
# Velocity P-wave (km/s) = 5.68609 6.54897 6.13272
#
# Compressibility (1/GPa) = 0.02000757
#
# Stress axis : x y z
#
# Youngs Moduli (GPa) = 99.13161 87.33329 108.70305
#
# Poissons Ratio (x) = 0.15909 0.27976
# Poissons Ratio (y) = 0.18058 0.10541
# Poissons Ratio (z) = 0.25512 0.08468
#
# Static dielectric constant tensor:
#      x y z
#    x 1.782440 0.000000 0.005120 
#    y 0.000000 1.733560 0.000000 
#    z 0.005120 0.000000 1.781080 
# 
# From -- ./inp_files/134528.got.cif
#   From: 2010.05.17/outbox.cif.g08.bks.cpg/sg15_68_cif.got.tgz:134528.got - 2010.06.03 18:47:42.
