data_PCOD9303835
_publ_section_title
;
Structure prediction by ZEFSAII (Michael W. Deem and Ramdas Pophale) SiO2 
 PCOD9303835
Probable space group: C 2/C
;
_chemical_formula_sum "Si O2"
_cell_formula_units_Z 48
_cell_length_a 19.371404
_cell_length_b 19.751828
_cell_length_c 8.560957
_cell_angle_alpha 90.000000
_cell_angle_beta 50.230481
_cell_angle_gamma 90.000000
_cell_volume 2517.703721
_symmetry_space_group_name_H-M "C 2/C"
_symmetry_group_IT_number 15
_symmetry_cell_setting 'monoclinic'
loop_
_space_group_symop_operation_xyz
x,y,z
-x,y,1/2-z
-x,-y,-z
x,-y,1/2+z
1/2+x,1/2+y,z
1/2-x,1/2+y,1/2-z
1/2-x,1/2-y,-z
1/2+x,1/2-y,1/2+z
loop_
_atom_site_type_symbol
_atom_site_label
_atom_site_fract_x
_atom_site_fract_y
_atom_site_fract_z
Si Si1 0.104291 0.693869 0.621130
Si Si2 0.118914 0.831154 0.793548
Si Si3 0.254731 0.433280 0.411778
Si Si4 0.236575 0.308291 0.647470
Si Si5 0.469343 0.428353 0.115377
Si Si6 0.269816 0.081826 0.915512
O O1 0.113965 0.759173 0.717283
O O2 0.157322 0.708515 0.383477
O O3 0.153261 0.629745 0.627073
O O4 0.000000 0.680367 0.750000
O O5 0.174874 0.821128 0.873630
O O6 0.177703 0.881417 0.601139
O O7 0.023285 0.866612 0.958359
O O8 0.216116 0.377100 0.584208
O O9 0.362609 0.423660 0.256454
O O10 0.231651 0.507763 0.506667
O O11 0.223621 0.423496 0.279708
O O12 0.250000 0.250000 0.500000
O O13 0.500000 0.428356 0.250000
O O14 0.500000 0.500000 0.000000
#
# Coordination Sequence:
#
# PCOD9303835 Si02
#       6
#     8   8   8   8   8   8
#     4  11  26  44  66  95 129 176 232 278 319 383
#     4  11  23  40  63  95 136 171 217 267 328 401
#     4  12  23  41  69  96 134 175 212 271 330 404
#     4  11  23  44  65  95 132 177 218 268 341 394
#     4  12  24  38  61 103 138 167 212 264 328 403
#     4  11  23  43  65  96 130 176 220 261 339 396
#
# _framework density 19.064990999999999
#
# number of rings (size 3 to 8) (size 9 to 14) (size 15 to 20)
#    0.000    0.667    3.333    7.000    4.667    0.000 
#    0.000    5.833    0.000    0.000    0.000    0.000 
#    0.000    0.000    0.000    0.000    0.000    0.000 
#
# Total GULP energy -134293.613949 kJ/mol
# GULP energy per Si atom -5595.567248 kJ/mol
# Density = 1.902160 g / cm^3
# Si number density = 19.064991 Si / 1000 Ang^3
#
#
#
# Elastic Constant Matrix: (Units=GPa)
#
#
# Indices 1 2 3 4 5 6 
#
# 1 68.9269 54.6054 63.8843 0.0000 21.8653 0.0000
# 2 54.6054 168.7280 74.0787 0.0000 9.5326 0.0000
# 3 63.8843 74.0787 105.7227 0.0000 21.6925 0.0000
# 4 0.0000 0.0000 0.0000 88.4137 0.0000 47.9244
# 5 21.8653 9.5326 21.6925 0.0000 27.9344 0.0000
# 6 0.0000 0.0000 0.0000 47.9244 0.0000 72.6473
#
#
#
# Elastic Compliance Matrix: (Units=1/GPa)
#
#
# Indices 1 2 3 4 5 6 
#
# 1 0.038729 -0.004011 -0.017430 0.000000 -0.015411 0.000000
# 2 -0.004011 0.009077 -0.004693 0.000000 0.003686 0.000000
# 3 -0.017430 -0.004693 0.023971 0.000000 -0.003370 0.000000
# 4 0.000000 0.000000 0.000000 0.017606 0.000000 -0.011614
# 5 -0.015411 0.003686 -0.003370 0.000000 0.049220 0.000000
# 6 0.000000 0.000000 0.000000 -0.011614 0.000000 0.021427
#
#
# Mechanical properties :
#
#
# Convention : Reuss Voigt Hill
#
# Bulk Modulus (GPa) = 51.25799 80.94604 66.10201
# Shear Modulus (GPa) = 22.85186 47.85304 35.35245
#
# Velocity S-wave (km/s) = 3.46588 5.01542 4.31084
# Velocity P-wave (km/s) = 6.55444 8.72292 7.71525
#
# Compressibility (1/GPa) = 0.01950915
#
# Stress axis : x y z
#
# Youngs Moduli (GPa) = 25.82023 110.17159 41.71720
#
# Poissons Ratio (x) = 0.44185 0.72715
# Poissons Ratio (y) = 0.10355 0.19577
# Poissons Ratio (z) = 0.45006 0.51702
#
# Static dielectric constant tensor:
#      x y z
#    x 1.642540 0.000000 0.004940 
#    y 0.000000 1.645770 0.000000 
#    z 0.004940 0.000000 1.657880 
# 
# From -- ./inp_files/56427.got.cif
#   From: 2010.05.17/outbox.cif.g08.bks.cpg/sg15_29_cif.got.tgz:56427.got - 2010.06.03 18:47:42.
