data_PCOD9303662
_publ_section_title
;
Structure prediction by ZEFSAII (Michael W. Deem and Ramdas Pophale) SiO2 
 PCOD9303662
Probable space group: C 2/C
;
_chemical_formula_sum "Si O2"
_cell_formula_units_Z 40
_cell_length_a 14.342015
_cell_length_b 8.636300
_cell_length_c 14.778933
_cell_angle_alpha 90.000000
_cell_angle_beta 112.922028
_cell_angle_gamma 90.000000
_cell_volume 1685.999545
_symmetry_space_group_name_H-M "C 2/C"
_symmetry_group_IT_number 15
_symmetry_cell_setting 'monoclinic'
loop_
_space_group_symop_operation_xyz
x,y,z
-x,y,1/2-z
-x,-y,-z
x,-y,1/2+z
1/2+x,1/2+y,z
1/2-x,1/2+y,1/2-z
1/2-x,1/2-y,-z
1/2+x,1/2-y,1/2+z
loop_
_atom_site_type_symbol
_atom_site_label
_atom_site_fract_x
_atom_site_fract_y
_atom_site_fract_z
Si Si1 0.342508 0.635939 0.041364
Si Si2 0.987981 0.676936 0.469161
Si Si3 0.887024 0.762729 0.744303
Si Si4 0.685231 0.335079 0.587863
Si Si5 0.887506 0.601706 0.248832
O O1 0.348705 0.621402 0.151601
O O2 0.250000 0.750000 0.000000
O O3 0.436839 0.721986 0.029024
O O4 0.319638 0.486977 0.974445
O O5 0.105397 0.727131 0.503994
O O6 0.000000 0.500000 0.500000
O O7 0.910378 0.677828 0.355307
O O8 0.864061 0.841776 0.830696
O O9 0.852308 0.580736 0.739785
O O10 0.000000 0.742212 0.750000
O O11 0.802756 0.308508 0.658631
O O12 0.000000 0.603231 0.250000
#
# Coordination Sequence:
#
# PCOD9303662 Si02
#       5
#     8   8   8   8   8
#     4  12  25  48  77 108 153 208 258 318 395 463
#     4  12  25  47  77 111 155 202 263 321 389 470
#     4  11  22  47  77 102 156 210 249 320 404 455
#     4  12  26  47  80 115 151 207 267 319 389 473
#     4  11  25  48  72 108 158 210 256 320 394 462
#
# _framework density 23.724799999999998
#
# number of rings (size 3 to 8) (size 9 to 14) (size 15 to 20)
#    0.000    0.400    6.000    3.000    0.000    0.800 
#    3.600    0.000    0.000    0.000    0.000    0.000 
#    0.000    0.000    0.000    0.000    0.000    0.000 
#
# Total GULP energy -111543.713719 kJ/mol
# GULP energy per Si atom -5577.185686 kJ/mol
# Density = 2.367080 g / cm^3
# Si number density = 23.724800 Si / 1000 Ang^3
#
#
#
# Elastic Constant Matrix: (Units=GPa)
#
#
# Indices 1 2 3 4 5 6 
#
# 1 114.9405 41.3294 60.4671 0.0000 22.3871 0.0000
# 2 41.3294 77.0101 49.1642 0.0000 16.4959 0.0000
# 3 60.4671 49.1642 169.1010 0.0000 -3.1677 0.0000
# 4 0.0000 0.0000 0.0000 34.6943 0.0000 -3.7299
# 5 22.3871 16.4959 -3.1677 0.0000 60.0412 0.0000
# 6 0.0000 0.0000 0.0000 -3.7299 0.0000 31.0314
#
#
#
# Elastic Compliance Matrix: (Units=1/GPa)
#
#
# Indices 1 2 3 4 5 6 
#
# 1 0.012637 -0.003708 -0.003513 0.000000 -0.003878 0.000000
# 2 -0.003708 0.018432 -0.004106 0.000000 -0.003898 0.000000
# 3 -0.003513 -0.004106 0.008418 0.000000 0.002882 0.000000
# 4 0.000000 0.000000 0.000000 0.029201 0.000000 0.003510
# 5 -0.003878 -0.003898 0.002882 0.000000 0.019324 0.000000
# 6 0.000000 0.000000 0.000000 0.003510 0.000000 0.032647
#
#
# Mechanical properties :
#
#
# Convention : Reuss Voigt Hill
#
# Bulk Modulus (GPa) = 59.41213 73.66366 66.53790
# Shear Modulus (GPa) = 33.57417 39.15944 36.36681
#
# Velocity S-wave (km/s) = 3.76593 4.06713 3.91942
# Velocity P-wave (km/s) = 6.63372 7.29191 6.97059
#
# Compressibility (1/GPa) = 0.01683158
#
# Stress axis : x y z
#
# Youngs Moduli (GPa) = 79.13120 54.25457 118.79855
#
# Poissons Ratio (x) = 0.20120 0.41738
# Poissons Ratio (y) = 0.29345 0.48776
# Poissons Ratio (z) = 0.27801 0.22276
#
# Static dielectric constant tensor:
#      x y z
#    x 1.927000 0.000000 0.067870 
#    y 0.000000 1.869500 0.000000 
#    z 0.067870 0.000000 1.868710 
# 
# From -- ./inp_files/150777.got.cif
#   From: 2010.05.17/outbox.cif.g08.bks.cpg/sg15_76_cif.got.tgz:150777.got - 2010.06.03 18:47:42.
