data_PCOD9303464
_publ_section_title
;
Structure prediction by ZEFSAII (Michael W. Deem and Ramdas Pophale) SiO2 
 PCOD9303464
Probable space group: C 2/C
;
_chemical_formula_sum "Si O2"
_cell_formula_units_Z 56
_cell_length_a 9.449224
_cell_length_b 15.983042
_cell_length_c 18.793095
_cell_angle_alpha 90.000000
_cell_angle_beta 73.916165
_cell_angle_gamma 90.000000
_cell_volume 2727.173783
_symmetry_space_group_name_H-M "C 2/C"
_symmetry_group_IT_number 15
_symmetry_cell_setting 'monoclinic'
loop_
_space_group_symop_operation_xyz
x,y,z
-x,y,1/2-z
-x,-y,-z
x,-y,1/2+z
1/2+x,1/2+y,z
1/2-x,1/2+y,1/2-z
1/2-x,1/2-y,-z
1/2+x,1/2-y,1/2+z
loop_
_atom_site_type_symbol
_atom_site_label
_atom_site_fract_x
_atom_site_fract_y
_atom_site_fract_z
Si Si1 0.646820 0.240639 0.692941
Si Si2 0.328993 0.515192 0.046723
Si Si3 0.123170 0.379657 0.670915
Si Si4 0.359460 0.130017 0.102897
Si Si5 0.122245 0.638067 0.555978
Si Si6 0.829885 0.189501 0.791290
Si Si7 0.304026 0.060051 0.580956
O O1 0.500000 0.271230 0.750000
O O2 0.758912 0.315339 0.667092
O O3 0.605447 0.200646 0.623260
O O4 0.727756 0.177740 0.736026
O O5 0.262224 0.561927 0.126987
O O6 0.254320 0.423964 0.056984
O O7 0.500000 0.500000 0.000000
O O8 0.259356 0.564606 0.989415
O O9 0.180508 0.286660 0.682305
O O10 0.000000 0.405645 0.750000
O O11 0.018843 0.373630 0.616086
O O12 0.295102 0.037098 0.103880
O O13 0.355676 0.173749 0.026070
O O14 0.975466 0.583113 0.564896
O O15 0.780393 0.124661 0.857611
O O16 0.000000 0.175939 0.750000
#
# Coordination Sequence:
#
# PCOD9303464 Si02
#       7
#     8   8   8   8   8   8   8
#     4  12  25  43  68 104 136 180 239 287 347 418
#     4  11  25  43  71 109 140 177 244 293 343 421
#     4  11  22  44  72  95 141 189 234 277 359 418
#     4  11  22  46  70  96 136 186 229 281 349 423
#     4  11  23  45  71  96 139 184 229 283 352 419
#     4  11  25  43  65 103 143 180 234 292 346 422
#     4  11  23  46  69  98 139 187 230 285 352 417
#
# _framework density 20.534078000000001
#
# number of rings (size 3 to 8) (size 9 to 14) (size 15 to 20)
#    0.000    0.857    7.143    1.286    2.000    5.143 
#    2.571    0.000    0.000    0.000    0.000    0.000 
#    0.000    0.000    0.000    0.000    0.000    0.000 
#
# Total GULP energy -156217.185120 kJ/mol
# GULP energy per Si atom -5579.185183 kJ/mol
# Density = 2.048734 g / cm^3
# Si number density = 20.534078 Si / 1000 Ang^3
#
#
#
# Elastic Constant Matrix: (Units=GPa)
#
#
# Indices 1 2 3 4 5 6 
#
# 1 77.8087 14.5261 28.6754 0.0000 -18.0498 0.0000
# 2 14.5261 34.2647 44.5716 0.0000 -5.2757 0.0000
# 3 28.6754 44.5716 122.1573 0.0000 -4.8800 0.0000
# 4 0.0000 0.0000 0.0000 19.9857 0.0000 -1.3534
# 5 -18.0498 -5.2757 -4.8800 0.0000 42.2240 0.0000
# 6 0.0000 0.0000 0.0000 -1.3534 0.0000 -3.1883
#
#
#
# Elastic Compliance Matrix: (Units=1/GPa)
#
#
# Indices 1 2 3 4 5 6 
#
# 1 0.015654 -0.002349 -0.002574 0.000000 0.006101 0.000000
# 2 -0.002349 0.056814 -0.020027 0.000000 0.003780 0.000000
# 3 -0.002574 -0.020027 0.016028 0.000000 -0.001750 0.000000
# 4 0.000000 0.000000 0.000000 0.048638 0.000000 -0.020646
# 5 0.006101 0.003780 -0.001750 0.000000 0.026561 0.000000
# 6 0.000000 0.000000 0.000000 -0.020646 0.000000 -0.304887
#
#
# Mechanical properties :
#
#
# Convention : Reuss Voigt Hill
#
# Bulk Modulus (GPa) = 25.90957 45.53074 35.72016
# Shear Modulus (GPa) = -63.75417 21.56814 -21.09302
#
# Velocity S-wave (km/s) = -5.57812 3.24444 -3.20850
# Velocity P-wave (km/s) = 5.37047 6.02134 1.92544
#
# Compressibility (1/GPa) = 0.03859578
#
# Stress axis : x y z
#
# Youngs Moduli (GPa) = 63.87967 17.60132 62.39148
#
# Poissons Ratio (x) = 0.04134 0.16059
# Poissons Ratio (y) = 0.15005 1.24953
# Poissons Ratio (z) = 0.16442 0.35251
#
# Static dielectric constant tensor:
#      x y z
#    x 1.752620 0.000000 0.002810 
#    y 0.000000 1.711170 0.000000 
#    z 0.002810 0.000000 1.803800 
# 
# From -- ./inp_files/190928.got.cif
#   From: 2010.05.17/outbox.cif.g08.bks.cpg/sg15_96_cif.got.tgz:190928.got - 2010.06.03 18:47:42.
