data_PCOD9303671
_publ_section_title
;
Structure prediction by ZEFSAII (Michael W. Deem and Ramdas Pophale) SiO2 
 PCOD9303671
Probable space group: C 2/C
;
_chemical_formula_sum "Si O2"
_cell_formula_units_Z 44
_cell_length_a 6.873462
_cell_length_b 24.623387
_cell_length_c 14.543223
_cell_angle_alpha 90.000000
_cell_angle_beta 56.984058
_cell_angle_gamma 90.000000
_cell_volume 2063.939180
_symmetry_space_group_name_H-M "C 2/C"
_symmetry_group_IT_number 15
_symmetry_cell_setting 'monoclinic'
loop_
_space_group_symop_operation_xyz
x,y,z
-x,y,1/2-z
-x,-y,-z
x,-y,1/2+z
1/2+x,1/2+y,z
1/2-x,1/2+y,1/2-z
1/2-x,1/2-y,-z
1/2+x,1/2-y,1/2+z
loop_
_atom_site_type_symbol
_atom_site_label
_atom_site_fract_x
_atom_site_fract_y
_atom_site_fract_z
Si Si1 0.500000 0.940492 0.750000
Si Si2 0.500000 0.239138 0.250000
Si Si3 0.000000 0.612193 0.750000
Si Si4 0.005787 0.080191 0.150088
Si Si5 0.655406 0.293173 0.383154
Si Si6 0.510888 0.302388 0.625203
Si Si7 0.606343 0.026553 0.565511
O O1 0.735649 0.908675 0.703627
O O2 0.577252 0.978325 0.645523
O O3 0.481544 0.273878 0.348409
O O4 0.739253 0.208629 0.208141
O O5 0.784536 0.653331 0.812827
O O6 0.999823 0.575863 0.843988
O O7 0.112924 0.140145 0.133436
O O8 0.000000 0.049759 0.250000
O O9 0.144302 0.048129 0.035888
O O10 0.534278 0.306005 0.509747
O O11 0.841527 0.246867 0.368522
O O12 0.500000 0.000000 0.500000
#
# Coordination Sequence:
#
# PCOD9303671 Si02
#       7
#     4   4   4   8   8   8   8
#     4  11  25  44  70  96 134 174 228 298 342 406
#     4  12  21  40  63 102 142 177 234 267 334 402
#     4  11  22  48  73  96 144 183 228 283 358 400
#     4  12  23  42  69  99 133 177 226 281 354 403
#     4  11  23  44  66 100 141 186 222 280 337 417
#     4  11  24  41  68  97 145 181 223 281 336 416
#     4  11  24  47  72  97 131 180 236 291 347 407
#
# _framework density 21.318456999999999
#
# number of rings (size 3 to 8) (size 9 to 14) (size 15 to 20)
#    0.000    0.727    5.455    2.727    0.000    0.000 
#    3.273    0.000    0.000    0.000    0.000    0.000 
#    0.000    0.000    0.000    0.000    0.000    0.000 
#
# Total GULP energy -122492.161016 kJ/mol
# GULP energy per Si atom -5567.825501 kJ/mol
# Density = 2.126994 g / cm^3
# Si number density = 21.318457 Si / 1000 Ang^3
#
#
#
# Elastic Constant Matrix: (Units=GPa)
#
#
# Indices 1 2 3 4 5 6 
#
# 1 70.7325 19.0206 27.5167 0.0000 12.2285 0.0000
# 2 19.0206 86.5098 22.7234 0.0000 10.5271 0.0000
# 3 27.5167 22.7234 164.6082 0.0000 26.8146 0.0000
# 4 0.0000 0.0000 0.0000 77.6714 0.0000 33.4446
# 5 12.2285 10.5271 26.8146 0.0000 48.8842 0.0000
# 6 0.0000 0.0000 0.0000 33.4446 0.0000 41.9860
#
#
#
# Elastic Compliance Matrix: (Units=1/GPa)
#
#
# Indices 1 2 3 4 5 6 
#
# 1 0.016028 -0.002732 -0.001916 0.000000 -0.002370 0.000000
# 2 -0.002732 0.012613 -0.001047 0.000000 -0.001458 0.000000
# 3 -0.001916 -0.001047 0.007055 0.000000 -0.003165 0.000000
# 4 0.000000 0.000000 0.000000 0.019596 0.000000 -0.015610
# 5 -0.002370 -0.001458 -0.003165 0.000000 0.023100 0.000000
# 6 0.000000 0.000000 0.000000 -0.015610 0.000000 0.036251
#
#
# Mechanical properties :
#
#
# Convention : Reuss Voigt Hill
#
# Bulk Modulus (GPa) = 41.14298 51.15244 46.14771
# Shear Modulus (GPa) = 37.27592 50.54765 43.91178
#
# Velocity S-wave (km/s) = 4.18608 4.87465 4.54343
# Velocity P-wave (km/s) = 6.53494 7.46522 7.01552
#
# Compressibility (1/GPa) = 0.02430548
#
# Stress axis : x y z
#
# Youngs Moduli (GPa) = 62.39236 79.28609 141.73395
#
# Poissons Ratio (x) = 0.21663 0.27156
# Poissons Ratio (y) = 0.17047 0.14837
# Poissons Ratio (z) = 0.11954 0.08300
#
# Static dielectric constant tensor:
#      x y z
#    x 1.767180 0.000000 -0.017160 
#    y 0.000000 1.795930 0.000000 
#    z -0.017160 0.000000 1.804670 
# 
# From -- ./inp_files/129759.got.cif
#   From: 2010.05.17/outbox.cif.g08.bks.cpg/sg15_65_cif.got.tgz:129759.got - 2010.06.03 18:47:42.
