data_PCOD9303445
_publ_section_title
;
Structure prediction by ZEFSAII (Michael W. Deem and Ramdas Pophale) SiO2 
 PCOD9303445
Probable space group: C 2/C
;
_chemical_formula_sum "Si O2"
_cell_formula_units_Z 64
_cell_length_a 14.873788
_cell_length_b 18.264731
_cell_length_c 19.724198
_cell_angle_alpha 90.000000
_cell_angle_beta 33.667934
_cell_angle_gamma 90.000000
_cell_volume 2970.576775
_symmetry_space_group_name_H-M "C 2/C"
_symmetry_group_IT_number 15
_symmetry_cell_setting 'monoclinic'
loop_
_space_group_symop_operation_xyz
x,y,z
-x,y,1/2-z
-x,-y,-z
x,-y,1/2+z
1/2+x,1/2+y,z
1/2-x,1/2+y,1/2-z
1/2-x,1/2-y,-z
1/2+x,1/2-y,1/2+z
loop_
_atom_site_type_symbol
_atom_site_label
_atom_site_fract_x
_atom_site_fract_y
_atom_site_fract_z
Si Si1 0.644925 0.523991 0.957834
Si Si2 0.521017 0.845536 0.623507
Si Si3 0.603645 0.010598 0.368385
Si Si4 0.550521 0.426343 0.796125
Si Si5 0.087637 0.242386 0.316627
Si Si6 0.467818 0.731058 0.546383
Si Si7 0.589663 0.107917 0.760310
Si Si8 0.752096 0.634008 0.396464
O O1 0.725355 0.598527 0.880708
O O2 0.761429 0.453484 0.881880
O O3 0.500000 0.500000 0.000000
O O4 0.585246 0.538815 0.070538
O O5 0.479925 0.924813 0.620834
O O6 0.547980 0.793687 0.543056
O O7 0.670880 0.845885 0.580307
O O8 0.361715 0.828036 0.769567
O O9 0.782080 0.036988 0.281432
O O10 0.500000 0.000000 0.500000
O O11 0.592433 0.939710 0.327110
O O12 0.500000 0.438549 0.750000
O O13 0.561495 0.338879 0.803446
O O14 0.012282 0.243765 0.439529
O O15 0.016588 0.312326 0.321131
O O16 0.279793 0.260652 0.186218
O O17 0.567623 0.659165 0.505428
O O18 0.500000 0.077620 0.750000
#
# Coordination Sequence:
#
# PCOD9303445 Si02
#       8
#     8   8   8   8   8   8   8   8
#     4  12  23  47  72 101 142 189 244 295 363 435
#     4  11  22  44  70  99 144 183 236 304 364 427
#     4  12  25  46  68 102 141 183 232 301 366 420
#     4  12  28  48  72 104 147 192 240 305 366 427
#     4  12  26  47  70 104 147 192 240 296 359 433
#     4  12  23  45  70 103 144 197 236 291 371 425
#     4  12  26  43  75 107 135 187 243 291 352 437
#     4  11  23  41  71 105 139 186 243 298 360 441
#
# _framework density 21.544637000000002
#
# number of rings (size 3 to 8) (size 9 to 14) (size 15 to 20)
#    0.000    0.250    5.000    4.500    3.500    0.000 
#    0.000    2.500    0.000    0.000    0.000    0.000 
#    0.000    0.000    0.000    0.000    0.000    0.000 
#
# Total GULP energy -178710.561262 kJ/mol
# GULP energy per Si atom -5584.705039 kJ/mol
# Density = 2.149560 g / cm^3
# Si number density = 21.544637 Si / 1000 Ang^3
#
#
#
# Elastic Constant Matrix: (Units=GPa)
#
#
# Indices 1 2 3 4 5 6 
#
# 1 93.5350 21.3442 47.2228 -0.0001 27.2108 0.0020
# 2 21.3442 81.4229 17.5955 0.0020 11.4972 -0.0007
# 3 47.2228 17.5955 120.2072 0.0036 33.3269 -0.0020
# 4 -0.0001 0.0020 0.0036 34.4624 0.0003 8.8322
# 5 27.2108 11.4972 33.3269 0.0003 40.7519 -0.0001
# 6 0.0020 -0.0007 -0.0020 8.8322 -0.0001 16.8161
#
#
#
# Elastic Compliance Matrix: (Units=1/GPa)
#
#
# Indices 1 2 3 4 5 6 
#
# 1 0.014934 -0.002211 -0.003817 0.000001 -0.006227 -0.000003
# 2 -0.002211 0.013238 -0.000573 -0.000001 -0.001790 0.000001
# 3 -0.003817 -0.000573 0.011834 -0.000002 -0.006968 0.000003
# 4 0.000001 -0.000001 -0.000002 0.033531 0.000001 -0.017611
# 5 -0.006227 -0.001790 -0.006968 0.000001 0.034899 0.000000
# 6 -0.000003 0.000001 0.000003 -0.017611 0.000000 0.068716
#
#
# Mechanical properties :
#
#
# Convention : Reuss Voigt Hill
#
# Bulk Modulus (GPa) = 37.30704 51.94333 44.62518
# Shear Modulus (GPa) = 25.08929 32.33960 28.71444
#
# Velocity S-wave (km/s) = 3.41622 3.87854 3.65470
# Velocity P-wave (km/s) = 5.73711 6.64977 6.21023
#
# Compressibility (1/GPa) = 0.02680459
#
# Stress axis : x y z
#
# Youngs Moduli (GPa) = 66.96076 75.54206 84.50227
#
# Poissons Ratio (x) = 0.16701 0.32253
# Poissons Ratio (y) = 0.14804 0.04841
# Poissons Ratio (z) = 0.25558 0.04328
#
# Static dielectric constant tensor:
#      x y z
#    x 2.526200 0.000010 0.526520 
#    y 0.000010 1.846580 0.000010 
#    z 0.526520 0.000010 2.246510 
# 
# From -- ./inp_files/206453.got.cif
#   From: 2010.05.17/outbox.cif.g08.bks.cpg/sg15_104_cif.got.tgz:206453.got - 2010.06.03 18:47:42.
