data_PCOD9303392
_publ_section_title
;
Structure prediction by ZEFSAII (Michael W. Deem and Ramdas Pophale) SiO2 
 PCOD9303392
Probable space group: C 2/C
;
_chemical_formula_sum "Si O2"
_cell_formula_units_Z 36
_cell_length_a 25.815863
_cell_length_b 7.106610
_cell_length_c 14.963796
_cell_angle_alpha 90.000000
_cell_angle_beta 151.418178
_cell_angle_gamma 90.000000
_cell_volume 1313.391301
_symmetry_space_group_name_H-M "C 2/C"
_symmetry_group_IT_number 15
_symmetry_cell_setting 'monoclinic'
loop_
_space_group_symop_operation_xyz
x,y,z
-x,y,1/2-z
-x,-y,-z
x,-y,1/2+z
1/2+x,1/2+y,z
1/2-x,1/2+y,1/2-z
1/2-x,1/2-y,-z
1/2+x,1/2-y,1/2+z
loop_
_atom_site_type_symbol
_atom_site_label
_atom_site_fract_x
_atom_site_fract_y
_atom_site_fract_z
Si Si1 0.250000 0.750000 0.500000
Si Si2 0.888833 0.904181 0.808901
Si Si3 0.847513 0.499650 0.797525
Si Si4 0.116870 0.088069 0.397827
Si Si5 0.339703 0.994335 0.986921
O O1 0.163137 0.669350 0.288636
O O2 0.334143 0.828856 0.544469
O O3 0.901677 0.680072 0.832545
O O4 0.847783 0.977412 0.648508
O O5 0.788275 0.947946 0.718408
O O6 0.000000 0.000000 0.000000
O O7 0.719278 0.548972 0.612980
O O8 0.888518 0.492763 0.961440
O O9 0.113049 0.314164 0.389923
O O10 0.000000 0.017953 0.250000
#
# Coordination Sequence:
#
# PCOD9303392 Si02
#       5
#     4   8   8   8   8
#     4  12  20  42  72 100 138 188 242 314 368 430
#     4  11  22  44  68 100 139 189 240 301 372 451
#     4  11  23  43  73 100 141 193 247 303 384 441
#     4  11  22  44  66  97 142 187 237 302 368 451
#     4  11  23  43  68 102 142 189 242 306 377 447
#
# _framework density 27.409958
#
# number of rings (size 3 to 8) (size 9 to 14) (size 15 to 20)
#    0.000    0.889    4.444    5.333    0.000    0.000 
#    4.000    3.333    0.000    0.000    0.000    0.000 
#    0.000    0.000    0.000    0.000    0.000    0.000 
#
# Total GULP energy -100269.279347 kJ/mol
# GULP energy per Si atom -5570.515519 kJ/mol
# Density = 2.734757 g / cm^3
# Si number density = 27.409958 Si / 1000 Ang^3
#
#
#
# Elastic Constant Matrix: (Units=GPa)
#
#
# Indices 1 2 3 4 5 6 
#
# 1 178.7686 43.1506 58.0531 0.0000 -44.7974 0.0000
# 2 43.1506 101.2177 4.9380 0.0000 -22.2562 0.0000
# 3 58.0531 4.9380 98.6002 0.0000 4.1185 0.0000
# 4 0.0000 0.0000 0.0000 34.5385 0.0000 0.4979
# 5 -44.7974 -22.2562 4.1185 0.0000 79.8981 0.0000
# 6 0.0000 0.0000 0.0000 0.4979 0.0000 28.9589
#
#
#
# Elastic Compliance Matrix: (Units=1/GPa)
#
#
# Indices 1 2 3 4 5 6 
#
# 1 0.009178 -0.002613 -0.005470 0.000000 0.004700 0.000000
# 2 -0.002613 0.011310 0.000903 0.000000 0.001639 0.000000
# 3 -0.005470 0.000903 0.013464 0.000000 -0.003509 0.000000
# 4 0.000000 0.000000 0.000000 0.028960 0.000000 -0.000498
# 5 0.004700 0.001639 -0.003509 0.000000 0.015789 0.000000
# 6 0.000000 0.000000 0.000000 -0.000498 0.000000 0.034540
#
#
# Mechanical properties :
#
#
# Convention : Reuss Voigt Hill
#
# Bulk Modulus (GPa) = 51.03501 65.65218 58.34359
# Shear Modulus (GPa) = 37.27723 46.84211 42.05967
#
# Velocity S-wave (km/s) = 3.69180 4.13842 3.92148
# Velocity P-wave (km/s) = 6.06895 6.84393 6.46805
#
# Compressibility (1/GPa) = 0.01959439
#
# Stress axis : x y z
#
# Youngs Moduli (GPa) = 108.95081 88.41893 74.27438
#
# Poissons Ratio (x) = 0.23100 0.40624
# Poissons Ratio (y) = 0.28464 -0.06709
# Poissons Ratio (z) = 0.59591 -0.07987
#
# Static dielectric constant tensor:
#      x y z
#    x 2.062840 0.000000 -0.043830 
#    y 0.000000 1.843820 0.000000 
#    z -0.043830 0.000000 1.922940 
# 
# From -- ./inp_files/177061.got.cif
#   From: 2010.05.17/outbox.cif.g08.bks.cpg/sg15_89_cif.got.tgz:177061.got - 2010.06.03 18:47:42.
