data_PCOD9303422
_publ_section_title
;
Structure prediction by ZEFSAII (Michael W. Deem and Ramdas Pophale) SiO2 
 PCOD9303422
Probable space group: C 2/C
;
_chemical_formula_sum "Si O2"
_cell_formula_units_Z 40
_cell_length_a 33.007900
_cell_length_b 5.104649
_cell_length_c 16.281779
_cell_angle_alpha 90.000000
_cell_angle_beta 142.428094
_cell_angle_gamma 90.000000
_cell_volume 1672.792793
_symmetry_space_group_name_H-M "C 2/C"
_symmetry_group_IT_number 15
_symmetry_cell_setting 'monoclinic'
loop_
_space_group_symop_operation_xyz
x,y,z
-x,y,1/2-z
-x,-y,-z
x,-y,1/2+z
1/2+x,1/2+y,z
1/2-x,1/2+y,1/2-z
1/2-x,1/2-y,-z
1/2+x,1/2-y,1/2+z
loop_
_atom_site_type_symbol
_atom_site_label
_atom_site_fract_x
_atom_site_fract_y
_atom_site_fract_z
Si Si1 0.564627 0.154301 0.742167
Si Si2 0.240371 0.552708 0.366095
Si Si3 0.912391 0.293333 0.027453
Si Si4 0.825405 0.800013 0.847741
Si Si5 0.641722 0.366306 0.316422
O O1 0.580487 0.232232 0.862322
O O2 0.485326 0.162829 0.607483
O O3 0.597809 0.372938 0.737079
O O4 0.595011 0.866816 0.776570
O O5 0.213035 0.266387 0.298195
O O6 0.270974 0.662960 0.331404
O O7 0.299883 0.553531 0.526426
O O8 0.180865 0.725156 0.306036
O O9 0.867586 0.542634 0.936302
O O10 0.876140 0.038138 0.934980
#
# Coordination Sequence:
#
# PCOD9303422 Si02
#       5
#     8   8   8   8   8
#     4  11  22  44  69  98 133 177 231 283 333 403
#     4  11  26  43  69  99 143 175 228 274 352 403
#     4  11  23  41  70  98 132 176 232 278 332 402
#     4  12  24  43  66 102 132 182 220 285 331 415
#     4  11  25  44  69 102 133 182 224 287 336 408
#
# _framework density 23.912106000000001
#
# number of rings (size 3 to 8) (size 9 to 14) (size 15 to 20)
#    0.000    0.800    4.000    2.400    0.000   12.800 
#    0.000    6.000    0.000    0.000    0.000    0.000 
#    0.000    0.000    0.000    0.000    0.000    0.000 
#
# Total GULP energy -112151.902186 kJ/mol
# GULP energy per Si atom -5607.595109 kJ/mol
# Density = 2.385768 g / cm^3
# Si number density = 23.912106 Si / 1000 Ang^3
#
#
#
# Elastic Constant Matrix: (Units=GPa)
#
#
# Indices 1 2 3 4 5 6 
#
# 1 98.3124 19.7391 55.4735 -0.0009 35.3035 -0.0006
# 2 19.7391 150.3279 58.5041 0.0001 24.9256 -0.0003
# 3 55.4735 58.5041 100.8035 0.0001 25.0645 -0.0003
# 4 -0.0009 0.0001 0.0001 29.5130 -0.0001 -6.0322
# 5 35.3035 24.9256 25.0645 -0.0001 37.4279 0.0000
# 6 -0.0006 -0.0003 -0.0003 -6.0322 0.0000 27.1359
#
#
#
# Elastic Compliance Matrix: (Units=1/GPa)
#
#
# Indices 1 2 3 4 5 6 
#
# 1 0.020183 0.003506 -0.009391 0.000001 -0.015083 0.000001
# 2 0.003506 0.009465 -0.006038 0.000000 -0.005566 0.000000
# 3 -0.009391 -0.006038 0.018465 0.000000 0.000514 0.000000
# 4 0.000001 0.000000 0.000000 0.035496 0.000000 0.007891
# 5 -0.015083 -0.005566 0.000514 0.000000 0.044308 -0.000001
# 6 0.000001 0.000000 0.000000 0.007891 -0.000001 0.038606
#
#
# Mechanical properties :
#
#
# Convention : Reuss Voigt Hill
#
# Bulk Modulus (GPa) = 41.21160 68.54192 54.87676
# Shear Modulus (GPa) = 25.19421 33.19717 29.19569
#
# Velocity S-wave (km/s) = 3.24947 3.73003 3.49801
# Velocity P-wave (km/s) = 5.59917 6.87584 6.27009
#
# Compressibility (1/GPa) = 0.02426501
#
# Stress axis : x y z
#
# Youngs Moduli (GPa) = 49.54642 105.65631 54.15626
#
# Poissons Ratio (x) = -0.37038 0.50859
# Poissons Ratio (y) = -0.17369 0.32701
# Poissons Ratio (z) = 0.46530 0.63798
#
# Static dielectric constant tensor:
#      x y z
#    x 1.924970 0.000000 -0.050100 
#    y 0.000000 1.894080 0.000000 
#    z -0.050100 0.000000 1.899240 
# 
# From -- ./inp_files/110738.got.cif
#   From: 2010.05.17/outbox.cif.g08.bks.cpg/sg15_56_cif.got.tgz:110738.got - 2010.06.03 18:47:42.
