data_PCOD9303166
_publ_section_title
;
Structure prediction by ZEFSAII (Michael W. Deem and Ramdas Pophale) SiO2 
 PCOD9303166
Probable space group: C 2/C
;
_chemical_formula_sum "Si O2"
_cell_formula_units_Z 48
_cell_length_a 25.765600
_cell_length_b 7.530242
_cell_length_c 19.872051
_cell_angle_alpha 90.000000
_cell_angle_beta 147.550307
_cell_angle_gamma 90.000000
_cell_volume 2068.756031
_symmetry_space_group_name_H-M "C 2/C"
_symmetry_group_IT_number 15
_symmetry_cell_setting 'monoclinic'
loop_
_space_group_symop_operation_xyz
x,y,z
-x,y,1/2-z
-x,-y,-z
x,-y,1/2+z
1/2+x,1/2+y,z
1/2-x,1/2+y,1/2-z
1/2-x,1/2-y,-z
1/2+x,1/2-y,1/2+z
loop_
_atom_site_type_symbol
_atom_site_label
_atom_site_fract_x
_atom_site_fract_y
_atom_site_fract_z
Si Si1 0.093357 0.640976 0.661012
Si Si2 0.481227 0.212792 0.058797
Si Si3 0.878747 0.102311 0.698439
Si Si4 0.513223 0.272875 0.831318
Si Si5 0.331334 0.776934 0.518325
Si Si6 0.228581 0.860232 0.046451
O O1 0.085006 0.731147 0.579516
O O2 0.014620 0.710700 0.626490
O O3 0.190739 0.671498 0.809071
O O4 0.059788 0.436436 0.622608
O O5 0.554175 0.363404 0.163880
O O6 0.407109 0.188824 0.041178
O O7 0.763972 0.097719 0.589720
O O8 0.884390 0.262127 0.649254
O O9 0.935021 0.931281 0.730475
O O10 0.500000 0.152410 0.750000
O O11 0.625501 0.302814 0.959615
O O12 0.285462 0.575933 0.470062
O O13 0.250000 0.750000 0.000000
#
# Coordination Sequence:
#
# PCOD9303166 Si02
#       6
#     8   8   8   8   8   8
#     4  11  27  44  65  99 138 183 228 277 348 420
#     4  11  24  46  66  94 140 183 225 276 345 416
#     4  11  22  42  69 102 129 179 230 275 349 409
#     4  12  23  43  68  99 136 171 226 290 344 408
#     4  11  23  41  73 100 137 176 232 291 335 422
#     4  12  23  44  70 101 135 172 230 293 347 406
#
# _framework density 23.202351
#
# number of rings (size 3 to 8) (size 9 to 14) (size 15 to 20)
#    0.000    0.667    6.667    0.500    0.000    7.333 
#    3.000    0.000    0.000    0.000    0.000    0.000 
#    0.000    0.000    0.000    0.000    0.000    0.000 
#
# Total GULP energy -133671.981072 kJ/mol
# GULP energy per Si atom -5569.665878 kJ/mol
# Density = 2.314954 g / cm^3
# Si number density = 23.202351 Si / 1000 Ang^3
#
#
#
# Elastic Constant Matrix: (Units=GPa)
#
#
# Indices 1 2 3 4 5 6 
#
# 1 71.9887 -3.9980 27.5826 0.0000 -14.4670 0.0000
# 2 -3.9980 35.2776 19.6489 0.0000 -6.3021 0.0000
# 3 27.5826 19.6489 154.7798 0.0000 -8.4364 0.0000
# 4 0.0000 0.0000 0.0000 8.9465 0.0000 -11.0874
# 5 -14.4670 -6.3021 -8.4364 0.0000 50.9324 0.0000
# 6 0.0000 0.0000 0.0000 -11.0874 0.0000 3.6206
#
#
#
# Elastic Compliance Matrix: (Units=1/GPa)
#
#
# Indices 1 2 3 4 5 6 
#
# 1 0.016308 0.004473 -0.003221 0.000000 0.004652 0.000000
# 2 0.004473 0.032243 -0.004646 0.000000 0.004491 0.000000
# 3 -0.003221 -0.004646 0.007612 0.000000 -0.000229 0.000000
# 4 0.000000 0.000000 0.000000 -0.039990 0.000000 -0.122461
# 5 0.004652 0.004491 -0.000229 0.000000 0.021473 0.000000
# 6 0.000000 0.000000 0.000000 -0.122461 0.000000 -0.098815
#
#
# Mechanical properties :
#
#
# Convention : Reuss Voigt Hill
#
# Bulk Modulus (GPa) = 20.25207 38.72366 29.48786
# Shear Modulus (GPa) = -131.84585 27.28741 -52.27922
#
# Velocity S-wave (km/s) = -7.54637 3.43310 -4.75192
# Velocity P-wave (km/s) = 8.19652 5.69567 4.16787
#
# Compressibility (1/GPa) = 0.04937767
#
# Stress axis : x y z
#
# Youngs Moduli (GPa) = 61.31820 31.01422 131.37192
#
# Poissons Ratio (x) = -0.13873 0.42308
# Poissons Ratio (y) = -0.27428 0.61030
# Poissons Ratio (z) = 0.19748 0.14408
#
# Static dielectric constant tensor:
#      x y z
#    x 1.915440 0.000000 -0.001770 
#    y 0.000000 2.103590 0.000000 
#    z -0.001770 0.000000 1.963380 
# 
# From -- ./inp_files/257242.got.cif
#   From: 2010.05.17/outbox.cif.g08.bks.cpg/sg15_129_cif.got.tgz:257242.got - 2010.06.03 18:47:42.
