data_PCOD9303387
_publ_section_title
;
Structure prediction by ZEFSAII (Michael W. Deem and Ramdas Pophale) SiO2 
 PCOD9303387
Probable space group: C 2/C
;
_chemical_formula_sum "Si O2"
_cell_formula_units_Z 48
_cell_length_a 13.236535
_cell_length_b 26.552308
_cell_length_c 10.904939
_cell_angle_alpha 90.000000
_cell_angle_beta 34.226215
_cell_angle_gamma 90.000000
_cell_volume 2155.722308
_symmetry_space_group_name_H-M "C 2/C"
_symmetry_group_IT_number 15
_symmetry_cell_setting 'monoclinic'
loop_
_space_group_symop_operation_xyz
x,y,z
-x,y,1/2-z
-x,-y,-z
x,-y,1/2+z
1/2+x,1/2+y,z
1/2-x,1/2+y,1/2-z
1/2-x,1/2-y,-z
1/2+x,1/2-y,1/2+z
loop_
_atom_site_type_symbol
_atom_site_label
_atom_site_fract_x
_atom_site_fract_y
_atom_site_fract_z
Si Si1 0.202480 0.458507 0.583846
Si Si2 0.905979 0.871172 0.716443
Si Si3 0.690075 0.480346 0.764229
Si Si4 0.126094 0.699390 0.407142
Si Si5 0.291856 0.312603 0.220839
Si Si6 0.213804 0.655405 0.063128
O O1 0.198568 0.485143 0.720838
O O2 0.276526 0.490968 0.396686
O O3 0.283761 0.401978 0.505878
O O4 0.000000 0.449845 0.750000
O O5 0.812400 0.921324 0.762221
O O6 0.751352 0.828465 0.880186
O O7 0.000000 0.881811 0.750000
O O8 0.072298 0.854385 0.464695
O O9 0.500000 0.500000 0.000000
O O10 0.136961 0.759399 0.401206
O O11 0.224605 0.683633 0.181102
O O12 0.917701 0.682251 0.609666
O O13 0.297388 0.316168 0.363123
O O14 0.000000 0.654394 0.250000
#
# Coordination Sequence:
#
# PCOD9303387 Si02
#       6
#     8   8   8   8   8   8
#     4  11  23  44  72 103 142 180 231 289 353 416
#     4  12  27  46  66  97 138 181 239 281 341 417
#     4  12  25  46  70 102 139 184 235 290 350 419
#     4  11  22  44  66 102 136 176 227 281 342 411
#     4  11  23  42  70  99 137 179 224 285 344 405
#     4   9  20  38  68 102 135 170 219 278 346 413
#
# _framework density 22.266317999999998
#
# number of rings (size 3 to 8) (size 9 to 14) (size 15 to 20)
#    0.000    1.000    3.333    3.500    0.000    2.000 
#    6.000    0.000    0.000    0.000    0.000    0.000 
#    0.000    0.000    0.000    0.000    0.000    0.000 
#
# Total GULP energy -134089.519424 kJ/mol
# GULP energy per Si atom -5587.063309 kJ/mol
# Density = 2.221564 g / cm^3
# Si number density = 22.266318 Si / 1000 Ang^3
#
#
#
# Elastic Constant Matrix: (Units=GPa)
#
#
# Indices 1 2 3 4 5 6 
#
# 1 99.8144 -15.3176 2.2864 0.0000 8.0594 0.0000
# 2 -15.3176 61.8639 -2.3801 0.0000 14.3313 0.0000
# 3 2.2864 -2.3801 59.0161 0.0000 1.9702 0.0000
# 4 0.0000 0.0000 0.0000 31.3208 0.0000 1.8438
# 5 8.0594 14.3313 1.9702 0.0000 29.3190 0.0000
# 6 0.0000 0.0000 0.0000 1.8438 0.0000 27.1573
#
#
#
# Elastic Compliance Matrix: (Units=1/GPa)
#
#
# Indices 1 2 3 4 5 6 
#
# 1 0.011009 0.003858 -0.000107 0.000000 -0.004905 0.000000
# 2 0.003858 0.019644 0.001001 0.000000 -0.010730 0.000000
# 3 -0.000107 0.001001 0.017043 0.000000 -0.001605 0.000000
# 4 0.000000 0.000000 0.000000 0.032056 0.000000 -0.002176
# 5 -0.004905 -0.010730 -0.001605 0.000000 0.040808 0.000000
# 6 0.000000 0.000000 0.000000 -0.002176 0.000000 0.036970
#
#
# Mechanical properties :
#
#
# Convention : Reuss Voigt Hill
#
# Bulk Modulus (GPa) = 17.48273 21.09688 19.28980
# Shear Modulus (GPa) = 29.92345 33.29982 31.61163
#
# Velocity S-wave (km/s) = 3.66989 3.87140 3.77199
# Velocity P-wave (km/s) = 5.08194 5.42945 5.25857
#
# Compressibility (1/GPa) = 0.05719931
#
# Stress axis : x y z
#
# Youngs Moduli (GPa) = 90.83355 50.90629 58.67639
#
# Poissons Ratio (x) = -0.19640 0.00629
# Poissons Ratio (y) = -0.35044 -0.05873
# Poissons Ratio (z) = 0.00974 -0.05096
#
# Static dielectric constant tensor:
#      x y z
#    x 1.832270 0.000000 -0.030330 
#    y 0.000000 1.932240 0.000000 
#    z -0.030330 0.000000 1.775050 
# 
# From -- ./inp_files/101242.got.cif
#   From: 2010.05.17/outbox.cif.g08.bks.cpg/sg15_51_cif.got.tgz:101242.got - 2010.06.03 18:47:42.
