data_PCOD9303639
_publ_section_title
;
Structure prediction by ZEFSAII (Michael W. Deem and Ramdas Pophale) SiO2 
 PCOD9303639
Probable space group: C 2/C
;
_chemical_formula_sum "Si O2"
_cell_formula_units_Z 60
_cell_length_a 13.654696
_cell_length_b 11.649892
_cell_length_c 16.698000
_cell_angle_alpha 90.000000
_cell_angle_beta 75.526797
_cell_angle_gamma 90.000000
_cell_volume 2571.949649
_symmetry_space_group_name_H-M "C 2/C"
_symmetry_group_IT_number 15
_symmetry_cell_setting 'monoclinic'
loop_
_space_group_symop_operation_xyz
x,y,z
-x,y,1/2-z
-x,-y,-z
x,-y,1/2+z
1/2+x,1/2+y,z
1/2-x,1/2+y,1/2-z
1/2-x,1/2-y,-z
1/2+x,1/2-y,1/2+z
loop_
_atom_site_type_symbol
_atom_site_label
_atom_site_fract_x
_atom_site_fract_y
_atom_site_fract_z
Si Si1 0.871098 0.346117 0.736262
Si Si2 0.726148 0.404485 0.450502
Si Si3 0.036522 0.163285 0.881421
Si Si4 0.290689 0.422520 0.862550
Si Si5 0.500000 0.481533 0.750000
Si Si6 0.388609 0.100405 0.792329
Si Si7 0.666216 0.668819 0.475008
Si Si8 0.728095 0.823955 0.338200
O O1 0.957238 0.283287 0.667540
O O2 0.784263 0.372161 0.688171
O O3 0.893273 0.463715 0.775977
O O4 0.826241 0.253772 0.806445
O O5 0.633880 0.350114 0.419016
O O6 0.721045 0.375523 0.545487
O O7 0.833861 0.377058 0.387522
O O8 0.708320 0.542710 0.447142
O O9 0.039033 0.062774 0.814400
O O10 0.935078 0.154435 0.953476
O O11 0.404379 0.414661 0.805690
O O12 0.259288 0.557636 0.873775
O O13 0.500000 0.146024 0.750000
O O14 0.312958 0.144555 0.740032
O O15 0.750000 0.750000 0.500000
O O16 0.646949 0.744645 0.399669
#
# Coordination Sequence:
#
# PCOD9303639 Si02
#       8
#     8   8   8   8   4   8   8   8
#     4  11  24  43  68  94 130 182 220 266 342 406
#     4  12  24  45  67 101 140 169 229 288 341 390
#     4  12  26  43  70 100 133 179 226 279 335 410
#     4  11  25  41  68  99 139 173 222 290 331 403
#     4  12  22  42  68  98 134 174 228 276 334 388
#     4  11  26  43  70  97 137 179 223 284 342 411
#     4  12  25  41  72 103 127 173 230 285 330 402
#     4  11  22  47  63  98 136 172 226 278 336 402
#
# _framework density 23.328606000000001
#
# number of rings (size 3 to 8) (size 9 to 14) (size 15 to 20)
#    0.000    0.533    6.667    1.200    2.800    1.600 
#    3.600    2.667    0.000    0.000    0.000    0.000 
#    0.000    0.000    0.000    0.000    0.000    0.000 
#
# Total GULP energy -168045.301778 kJ/mol
# GULP energy per Si atom -5601.510059 kJ/mol
# Density = 2.327551 g / cm^3
# Si number density = 23.328606 Si / 1000 Ang^3
#
#
#
# Elastic Constant Matrix: (Units=GPa)
#
#
# Indices 1 2 3 4 5 6 
#
# 1 109.5017 5.1869 52.2268 0.0000 -23.6869 0.0000
# 2 5.1869 85.4267 19.4062 0.0000 -8.4910 0.0000
# 3 52.2268 19.4062 171.8546 0.0000 -31.8382 0.0000
# 4 0.0000 0.0000 0.0000 30.7990 0.0000 -4.7487
# 5 -23.6869 -8.4910 -31.8382 0.0000 45.1999 0.0000
# 6 0.0000 0.0000 0.0000 -4.7487 0.0000 27.2290
#
#
#
# Elastic Compliance Matrix: (Units=1/GPa)
#
#
# Indices 1 2 3 4 5 6 
#
# 1 0.011292 0.000336 -0.002716 0.000000 0.004067 0.000000
# 2 0.000336 0.012113 -0.001168 0.000000 0.001629 0.000000
# 3 -0.002716 -0.001168 0.007443 0.000000 0.003600 0.000000
# 4 0.000000 0.000000 0.000000 0.033366 0.000000 0.005819
# 5 0.004067 0.001629 0.003600 0.000000 0.027097 0.000000
# 6 0.000000 0.000000 0.000000 0.005819 0.000000 0.037740
#
#
# Mechanical properties :
#
#
# Convention : Reuss Voigt Hill
#
# Bulk Modulus (GPa) = 42.10395 57.82476 49.96436
# Shear Modulus (GPa) = 34.70667 39.97643 37.34155
#
# Velocity S-wave (km/s) = 3.86129 4.14408 4.00519
# Velocity P-wave (km/s) = 6.16172 6.90933 6.54621
#
# Compressibility (1/GPa) = 0.02375074
#
# Stress axis : x y z
#
# Youngs Moduli (GPa) = 88.56183 82.55739 134.35235
#
# Poissons Ratio (x) = -0.02771 0.36489
# Poissons Ratio (y) = -0.02973 0.15694
# Poissons Ratio (z) = 0.24052 0.09644
#
# Static dielectric constant tensor:
#      x y z
#    x 1.861250 0.000000 0.015810 
#    y 0.000000 1.886200 0.000000 
#    z 0.015810 0.000000 1.928020 
# 
# From -- ./inp_files/204426.got.cif
#   From: 2010.05.17/outbox.cif.g08.bks.cpg/sg15_103_cif.got.tgz:204426.got - 2010.06.03 18:47:42.
