data_PCOD9303826
_publ_section_title
;
Structure prediction by ZEFSAII (Michael W. Deem and Ramdas Pophale) SiO2 
 PCOD9303826
Probable space group: C 2/C
;
_chemical_formula_sum "Si O2"
_cell_formula_units_Z 32
_cell_length_a 13.143381
_cell_length_b 24.210567
_cell_length_c 4.917071
_cell_angle_alpha 90.000000
_cell_angle_beta 108.883623
_cell_angle_gamma 90.000000
_cell_volume 1480.441804
_symmetry_space_group_name_H-M "C 2/C"
_symmetry_group_IT_number 15
_symmetry_cell_setting 'monoclinic'
loop_
_space_group_symop_operation_xyz
x,y,z
-x,y,1/2-z
-x,-y,-z
x,-y,1/2+z
1/2+x,1/2+y,z
1/2-x,1/2+y,1/2-z
1/2-x,1/2-y,-z
1/2+x,1/2-y,1/2+z
loop_
_atom_site_type_symbol
_atom_site_label
_atom_site_fract_x
_atom_site_fract_y
_atom_site_fract_z
Si Si1 0.243797 0.812764 0.404455
Si Si2 0.781225 0.035804 0.860316
Si Si3 0.426758 0.103075 0.939218
Si Si4 0.623667 0.645302 0.310789
O O1 0.250000 0.750000 0.500000
O O2 0.355716 0.846213 0.493528
O O3 0.164610 0.845892 0.540509
O O4 0.196208 0.815678 0.061858
O O5 0.659148 0.058905 0.750915
O O6 0.799521 0.016704 0.568852
O O7 0.852373 0.084728 0.045651
O O8 0.500000 0.120712 0.750000
O O9 0.500000 0.081482 0.250000
O O10 0.500000 0.658631 0.250000
#
# Coordination Sequence:
#
# PCOD9303826 Si02
#       4
#     8   8   8   8
#     4  11  24  43  65  93 127 162 205 256 307 366
#     4  11  23  40  62  90 124 162 206 254 305 364
#     4  11  23  40  62  91 126 162 205 254 305 366
#     4  11  24  43  65  93 126 161 207 257 306 365
#
# _framework density 21.615169000000002
#
# number of rings (size 3 to 8) (size 9 to 14) (size 15 to 20)
#    0.000    1.000    0.000    9.000    0.000    7.000 
#    0.000    0.000    0.000    0.000    0.000    0.000 
#    0.000    0.000    0.000    0.000    0.000    0.000 
#
# Total GULP energy -89472.899756 kJ/mol
# GULP energy per Si atom -5592.056235 kJ/mol
# Density = 2.156597 g / cm^3
# Si number density = 21.615169 Si / 1000 Ang^3
#
#
#
# Elastic Constant Matrix: (Units=GPa)
#
#
# Indices 1 2 3 4 5 6 
#
# 1 0.8870 -34.8225 -11.3726 0.0000 -24.9227 0.0000
# 2 -34.8225 73.3595 -14.4499 0.0000 -7.4968 0.0000
# 3 -11.3726 -14.4499 51.7934 0.0000 -17.4612 0.0000
# 4 0.0000 0.0000 0.0000 10.8819 0.0000 -24.7353
# 5 -24.9227 -7.4968 -17.4612 0.0000 37.1437 0.0000
# 6 0.0000 0.0000 0.0000 -24.7353 0.0000 9.0390
#
#
#
# Elastic Compliance Matrix: (Units=1/GPa)
#
#
# Indices 1 2 3 4 5 6 
#
# 1 -0.015174 -0.011628 -0.012834 0.000000 -0.018562 0.000000
# 2 -0.011628 0.006610 -0.003434 0.000000 -0.008082 0.000000
# 3 -0.012834 -0.003434 0.014729 0.000000 -0.002380 0.000000
# 4 0.000000 0.000000 0.000000 -0.017604 0.000000 -0.048172
# 5 -0.018562 -0.008082 -0.002380 0.000000 0.011718 0.000000
# 6 0.000000 0.000000 0.000000 -0.048172 0.000000 -0.021193
#
#
# Mechanical properties :
#
#
# Convention : Reuss Voigt Hill
#
# Bulk Modulus (GPa) = -20.15089 0.52776 -9.81156
# Shear Modulus (GPa) = 272.70447 23.85858 148.28152
#
# Velocity S-wave (km/s) = 11.24444 3.32594 8.29154
# Velocity P-wave (km/s) = 12.61905 3.87219 9.33365
#
# Compressibility (1/GPa) = -0.04962560
#
# Stress axis : x y z
#
# Youngs Moduli (GPa) = -65.90112 151.29213 67.89255
#
# Poissons Ratio (x) = 1.75918 0.87131
# Poissons Ratio (y) = -0.76628 0.23313
# Poissons Ratio (z) = -0.84575 0.51951
#
# Static dielectric constant tensor:
#      x y z
#    x 1.764680 0.000000 0.007720 
#    y 0.000000 1.818890 0.000000 
#    z 0.007720 0.000000 1.741120 
# 
# From -- ./inp_files/3971.got.cif
#   From: 2010.05.17/outbox.cif.g08.bks.cpg/sg15_2_cif.got.tgz:3971.got - 2010.06.03 18:47:42.
