data_PCOD9303929
_publ_section_title
;
Structure prediction by ZEFSAII (Michael W. Deem and Ramdas Pophale) SiO2 
 PCOD9303929
Probable space group: C 2/C
;
_chemical_formula_sum "Si O2"
_cell_formula_units_Z 44
_cell_length_a 11.091235
_cell_length_b 28.875320
_cell_length_c 7.597847
_cell_angle_alpha 90.000000
_cell_angle_beta 49.267679
_cell_angle_gamma 90.000000
_cell_volume 1843.879684
_symmetry_space_group_name_H-M "C 2/C"
_symmetry_group_IT_number 15
_symmetry_cell_setting 'monoclinic'
loop_
_space_group_symop_operation_xyz
x,y,z
-x,y,1/2-z
-x,-y,-z
x,-y,1/2+z
1/2+x,1/2+y,z
1/2-x,1/2+y,1/2-z
1/2-x,1/2-y,-z
1/2+x,1/2-y,1/2+z
loop_
_atom_site_type_symbol
_atom_site_label
_atom_site_fract_x
_atom_site_fract_y
_atom_site_fract_z
Si Si1 0.635220 0.961962 0.358597
Si Si2 0.488056 0.277042 0.554419
Si Si3 0.332211 0.185044 0.626208
Si Si4 0.500000 0.878992 0.250000
Si Si5 0.331205 0.540311 0.007128
Si Si6 0.337015 0.639431 0.021013
O O1 0.558997 0.919374 0.332148
O O2 0.699911 0.948730 0.485832
O O3 0.500000 0.000000 0.500000
O O4 0.781650 0.991022 0.133482
O O5 0.500000 0.268661 0.750000
O O6 0.440655 0.230162 0.502023
O O7 0.657410 0.294860 0.329284
O O8 0.364126 0.318548 0.629449
O O9 0.392195 0.158819 0.743893
O O10 0.303812 0.153945 0.478468
O O11 0.500000 0.535941 0.750000
O O12 0.324611 0.588551 0.124176
O O13 0.500000 0.635788 0.750000
#
# Coordination Sequence:
#
# PCOD9303929 Si02
#       6
#     8   8   8   4   8   8
#     4  12  24  45  67  97 135 177 224 272 330 401
#     4  11  23  41  64  94 127 166 216 268 323 388
#     4  11  23  43  65  90 132 170 213 267 326 389
#     4  12  24  40  70  90 134 176 214 268 336 386
#     4  11  23  44  68  99 133 173 220 279 331 391
#     4   9  21  41  66  93 128 168 211 267 329 387
#
# _framework density 23.862728000000001
#
# number of rings (size 3 to 8) (size 9 to 14) (size 15 to 20)
#    0.000    1.091    4.545    1.636    0.000    1.455 
#    0.000    0.000    0.000    0.000    0.000    0.000 
#    0.000    0.000    0.000    0.000    0.000    0.000 
#
# Total GULP energy -122575.841675 kJ/mol
# GULP energy per Si atom -5571.629167 kJ/mol
# Density = 2.380842 g / cm^3
# Si number density = 23.862728 Si / 1000 Ang^3
#
#
#
# Elastic Constant Matrix: (Units=GPa)
#
#
# Indices 1 2 3 4 5 6 
#
# 1 135.6196 76.9953 -0.8927 0.0000 2.7223 0.0000
# 2 76.9953 272.4025 11.2073 0.0000 10.6226 0.0000
# 3 -0.8927 11.2073 38.2010 0.0000 -12.4525 0.0000
# 4 0.0000 0.0000 0.0000 -20.1909 0.0000 2.1507
# 5 2.7223 10.6226 -12.4525 0.0000 33.6577 0.0000
# 6 0.0000 0.0000 0.0000 2.1507 0.0000 -39.4663
#
#
#
# Elastic Compliance Matrix: (Units=1/GPa)
#
#
# Indices 1 2 3 4 5 6 
#
# 1 0.008824 -0.002560 0.001124 0.000000 0.000510 0.000000
# 2 -0.002560 0.004556 -0.002044 0.000000 -0.001987 0.000000
# 3 0.001124 -0.002044 0.030685 0.000000 0.011907 0.000000
# 4 0.000000 0.000000 0.000000 -0.049817 0.000000 -0.002715
# 5 0.000510 -0.001987 0.011907 0.000000 0.034702 0.000000
# 6 0.000000 0.000000 0.000000 -0.002715 0.000000 -0.025486
#
#
# Mechanical properties :
#
#
# Convention : Reuss Voigt Hill
#
# Bulk Modulus (GPa) = 26.95186 68.98253 47.96720
# Shear Modulus (GPa) = 219.34783 18.72765 119.03774
#
# Velocity S-wave (km/s) = 9.59793 2.80448 7.07055
# Velocity P-wave (km/s) = 11.58214 6.28153 9.31675
#
# Compressibility (1/GPa) = 0.03710319
#
# Stress axis : x y z
#
# Youngs Moduli (GPa) = 113.32344 219.47500 32.58952
#
# Poissons Ratio (x) = 0.56193 -0.03662
# Poissons Ratio (y) = 0.29015 0.06662
# Poissons Ratio (z) = -0.12733 0.44868
#
# Static dielectric constant tensor:
#      x y z
#    x 1.893430 0.000000 0.015120 
#    y 0.000000 1.968890 0.000000 
#    z 0.015120 0.000000 2.055410 
# 
# From -- ./inp_files/33995.got.cif
#   From: 2010.05.17/outbox.cif.g08.bks.cpg/sg15_17_cif.got.tgz:33995.got - 2010.06.03 18:47:42.
