data_PCOD9303013
_publ_section_title
;
Structure prediction by ZEFSAII (Michael W. Deem and Ramdas Pophale) SiO2 
 PCOD9303013
Probable space group: C 2/C
;
_chemical_formula_sum "Si O2"
_cell_formula_units_Z 44
_cell_length_a 16.445452
_cell_length_b 11.959776
_cell_length_c 10.539747
_cell_angle_alpha 90.000000
_cell_angle_beta 104.381951
_cell_angle_gamma 90.000000
_cell_volume 2008.034011
_symmetry_space_group_name_H-M "C 2/C"
_symmetry_group_IT_number 15
_symmetry_cell_setting 'monoclinic'
loop_
_space_group_symop_operation_xyz
x,y,z
-x,y,1/2-z
-x,-y,-z
x,-y,1/2+z
1/2+x,1/2+y,z
1/2-x,1/2+y,1/2-z
1/2-x,1/2-y,-z
1/2+x,1/2-y,1/2+z
loop_
_atom_site_type_symbol
_atom_site_label
_atom_site_fract_x
_atom_site_fract_y
_atom_site_fract_z
Si Si1 0.412601 0.793366 0.640500
Si Si2 0.140767 0.832924 0.910469
Si Si3 0.091200 0.539760 0.581834
Si Si4 0.801074 0.684633 0.333115
Si Si5 0.449175 0.545870 0.598880
Si Si6 0.000000 0.315881 0.250000
O O1 0.500000 0.825997 0.750000
O O2 0.382733 0.880395 0.523556
O O3 0.340633 0.777291 0.716854
O O4 0.431346 0.676173 0.580926
O O5 0.201412 0.821532 0.812394
O O6 0.053996 0.767338 0.857109
O O7 0.129879 0.964468 0.924736
O O8 0.175558 0.774225 0.049619
O O9 0.153626 0.435356 0.623305
O O10 0.000000 0.500000 0.500000
O O11 0.067138 0.607804 0.700061
O O12 0.500000 0.531858 0.750000
O O13 0.500000 0.500000 0.500000
#
# Coordination Sequence:
#
# PCOD9303013 Si02
#       6
#     8   8   8   8   8   4
#     4  11  22  41  67  99 133 173 222 273 340 405
#     4  11  24  44  67  97 135 179 224 278 346 405
#     4  12  22  39  69  99 129 171 228 277 333 404
#     4  11  25  44  65 101 139 173 219 293 343 396
#     4  11  23  42  69  98 132 179 231 280 340 416
#     4  12  22  42  70  98 128 180 230 266 336 424
#
# _framework density 21.911981000000001
#
# number of rings (size 3 to 8) (size 9 to 14) (size 15 to 20)
#    0.000    0.727    4.545    4.364    0.000    1.455 
#    6.545    1.818    0.000    0.000    0.000    0.000 
#    0.000    0.000    0.000    0.000    0.000    0.000 
#
# Total GULP energy -122957.519929 kJ/mol
# GULP energy per Si atom -5588.978179 kJ/mol
# Density = 2.186211 g / cm^3
# Si number density = 21.911981 Si / 1000 Ang^3
#
#
#
# Elastic Constant Matrix: (Units=GPa)
#
#
# Indices 1 2 3 4 5 6 
#
# 1 77.4865 6.2130 9.3484 0.0000 -31.3559 0.0000
# 2 6.2130 89.2880 16.8915 0.0000 6.8182 0.0000
# 3 9.3484 16.8915 52.1978 0.0000 -29.7308 0.0000
# 4 0.0000 0.0000 0.0000 24.6124 0.0000 -27.1986
# 5 -31.3559 6.8182 -29.7308 0.0000 34.1647 0.0000
# 6 0.0000 0.0000 0.0000 -27.1986 0.0000 -11.0566
#
#
#
# Elastic Compliance Matrix: (Units=1/GPa)
#
#
# Indices 1 2 3 4 5 6 
#
# 1 0.040065 -0.016478 0.041587 0.000000 0.076249 0.000000
# 2 -0.016478 0.021453 -0.029828 0.000000 -0.045362 0.000000
# 3 0.041587 -0.029828 0.092186 0.000000 0.124343 0.000000
# 4 0.000000 0.000000 0.000000 0.010927 0.000000 -0.026879
# 5 0.076249 -0.045362 0.124343 0.000000 0.216509 0.000000
# 6 0.000000 0.000000 0.000000 -0.026879 0.000000 -0.024323
#
#
# Mechanical properties :
#
#
# Convention : Reuss Voigt Hill
#
# Bulk Modulus (GPa) = 6.93171 31.54199 19.23685
# Shear Modulus (GPa) = 12.06730 21.97871 17.02301
#
# Velocity S-wave (km/s) = 2.34928 3.17053 2.79028
# Velocity P-wave (km/s) = 3.24486 5.27533 4.37940
#
# Compressibility (1/GPa) = 0.14426455
#
# Stress axis : x y z
#
# Youngs Moduli (GPa) = 24.95971 46.61317 10.84767
#
# Poissons Ratio (x) = 0.76808 -0.45112
# Poissons Ratio (y) = 0.41128 0.32357
# Poissons Ratio (z) = -1.03799 1.39040
#
# Static dielectric constant tensor:
#      x y z
#    x 1.855480 0.000000 -0.028770 
#    y 0.000000 1.869490 0.000000 
#    z -0.028770 0.000000 1.823720 
# 
# From -- ./inp_files/95081.got.cif
#   From: 2010.05.17/outbox.cif.g08.bks.cpg/sg15_48_cif.got.tgz:95081.got - 2010.06.03 18:47:42.
