data_PCOD9303177
_publ_section_title
;
Structure prediction by ZEFSAII (Michael W. Deem and Ramdas Pophale) SiO2 
 PCOD9303177
Probable space group: C 2/C
;
_chemical_formula_sum "Si O2"
_cell_formula_units_Z 56
_cell_length_a 17.727371
_cell_length_b 16.809010
_cell_length_c 8.987415
_cell_angle_alpha 90.000000
_cell_angle_beta 111.249362
_cell_angle_gamma 90.000000
_cell_volume 2495.989334
_symmetry_space_group_name_H-M "C 2/C"
_symmetry_group_IT_number 15
_symmetry_cell_setting 'monoclinic'
loop_
_space_group_symop_operation_xyz
x,y,z
-x,y,1/2-z
-x,-y,-z
x,-y,1/2+z
1/2+x,1/2+y,z
1/2-x,1/2+y,1/2-z
1/2-x,1/2-y,-z
1/2+x,1/2-y,1/2+z
loop_
_atom_site_type_symbol
_atom_site_label
_atom_site_fract_x
_atom_site_fract_y
_atom_site_fract_z
Si Si1 0.808239 0.552417 0.407906
Si Si2 0.332093 0.186704 0.220846
Si Si3 0.427765 0.081960 0.080849
Si Si4 0.791846 0.738086 0.693169
Si Si5 0.531473 0.779472 0.119656
Si Si6 0.217815 0.928392 0.146375
Si Si7 0.062208 0.839379 0.160778
O O1 0.845909 0.636273 0.382594
O O2 0.886605 0.498123 0.495077
O O3 0.755280 0.506636 0.246827
O O4 0.742111 0.562961 0.490881
O O5 0.353839 0.126034 0.110456
O O6 0.242171 0.212670 0.191217
O O7 0.384447 0.265705 0.237864
O O8 0.500000 0.067767 0.250000
O O9 0.457710 0.147504 0.985532
O O10 0.750000 0.750000 0.500000
O O11 0.884744 0.756125 0.760049
O O12 0.773099 0.647726 0.725449
O O13 0.500000 0.815220 0.250000
O O14 0.484758 0.707309 0.005025
O O15 0.127286 0.902978 0.137979
O O16 0.000000 0.864936 0.250000
#
# Coordination Sequence:
#
# PCOD9303177 Si02
#       7
#     8   8   8   8   8   8   8
#     4  12  25  45  68 104 142 191 225 281 349 426
#     4  11  22  42  69  95 144 177 234 279 337 414
#     4  12  25  45  64 107 143 183 220 283 355 426
#     4  11  23  41  70 103 132 184 238 287 332 407
#     4  12  24  41  72 105 139 178 228 288 353 398
#     4  11  25  44  73 101 140 184 238 280 347 417
#     4  11  24  48  73 102 138 179 237 297 341 405
#
# _framework density 22.435994000000001
#
# number of rings (size 3 to 8) (size 9 to 14) (size 15 to 20)
#    0.000    0.571    7.143    1.714    0.000    2.286 
#    2.571    1.429    0.000    0.000    0.000    0.000 
#    0.000    0.000    0.000    0.000    0.000    0.000 
#
# Total GULP energy -156145.630191 kJ/mol
# GULP energy per Si atom -5576.629650 kJ/mol
# Density = 2.238493 g / cm^3
# Si number density = 22.435994 Si / 1000 Ang^3
#
#
#
# Elastic Constant Matrix: (Units=GPa)
#
#
# Indices 1 2 3 4 5 6 
#
# 1 90.9642 20.4452 40.1027 0.0000 -22.4119 0.0000
# 2 20.4452 34.1465 -2.4032 0.0000 -6.9416 0.0000
# 3 40.1027 -2.4032 62.2508 0.0000 -11.7691 0.0000
# 4 0.0000 0.0000 0.0000 10.7560 0.0000 -9.1393
# 5 -22.4119 -6.9416 -11.7691 0.0000 42.9150 0.0000
# 6 0.0000 0.0000 0.0000 -9.1393 0.0000 28.4831
#
#
#
# Elastic Compliance Matrix: (Units=1/GPa)
#
#
# Indices 1 2 3 4 5 6 
#
# 1 0.020687 -0.012205 -0.012792 0.000000 0.005321 0.000000
# 2 -0.012205 0.037773 0.009778 0.000000 0.002417 0.000000
# 3 -0.012792 0.009778 0.025015 0.000000 0.001761 0.000000
# 4 0.000000 0.000000 0.000000 0.127821 0.000000 0.041014
# 5 0.005321 0.002417 0.001761 0.000000 0.026955 0.000000
# 6 0.000000 0.000000 0.000000 0.041014 0.000000 0.048269
#
#
# Mechanical properties :
#
#
# Convention : Reuss Voigt Hill
#
# Bulk Modulus (GPa) = 18.85477 33.73902 26.29689
# Shear Modulus (GPa) = 14.94156 25.04527 19.99342
#
# Velocity S-wave (km/s) = 2.58343 3.34473 2.98842
# Velocity P-wave (km/s) = 4.16183 5.47602 4.86352
#
# Compressibility (1/GPa) = 0.05303699
#
# Stress axis : x y z
#
# Youngs Moduli (GPa) = 48.33918 26.47405 39.97556
#
# Poissons Ratio (x) = 0.32311 0.51137
# Poissons Ratio (y) = 0.58998 -0.39087
# Poissons Ratio (z) = 0.61836 -0.25886
#
# Static dielectric constant tensor:
#      x y z
#    x 1.887970 0.000000 0.000770 
#    y 0.000000 1.814390 0.000000 
#    z 0.000770 0.000000 1.985140 
# 
# From -- ./inp_files/49181.got.cif
#   From: 2010.05.17/outbox.cif.g08.bks.cpg/sg15_25_cif.got.tgz:49181.got - 2010.06.03 18:47:42.
