data_PCOD9303191
_publ_section_title
;
Structure prediction by ZEFSAII (Michael W. Deem and Ramdas Pophale) SiO2 
 PCOD9303191
Probable space group: C 2/C
;
_chemical_formula_sum "Si O2"
_cell_formula_units_Z 40
_cell_length_a 28.979557
_cell_length_b 7.537894
_cell_length_c 17.705224
_cell_angle_alpha 90.000000
_cell_angle_beta 25.274393
_cell_angle_gamma 90.000000
_cell_volume 1651.292616
_symmetry_space_group_name_H-M "C 2/C"
_symmetry_group_IT_number 15
_symmetry_cell_setting 'monoclinic'
loop_
_space_group_symop_operation_xyz
x,y,z
-x,y,1/2-z
-x,-y,-z
x,-y,1/2+z
1/2+x,1/2+y,z
1/2-x,1/2+y,1/2-z
1/2-x,1/2-y,-z
1/2+x,1/2-y,1/2+z
loop_
_atom_site_type_symbol
_atom_site_label
_atom_site_fract_x
_atom_site_fract_y
_atom_site_fract_z
Si Si1 0.363666 0.825925 0.142371
Si Si2 0.888993 0.228143 0.754209
Si Si3 0.492034 0.619397 0.172362
Si Si4 0.702717 0.433710 0.260848
Si Si5 0.834907 0.597641 0.849469
O O1 0.306384 0.639208 0.245122
O O2 0.314156 0.892527 0.137394
O O3 0.334067 0.934095 0.260659
O O4 0.490909 0.795930 0.946989
O O5 0.916200 0.047878 0.760378
O O6 0.829062 0.173841 0.766039
O O7 0.834708 0.394416 0.878506
O O8 0.500000 0.625822 0.250000
O O9 0.444517 0.802233 0.210415
O O10 0.608424 0.593801 0.962359
O O11 0.750000 0.750000 0.000000
#
# Coordination Sequence:
#
# PCOD9303191 Si02
#       5
#     8   8   8   8   8
#     4  11  22  42  70 102 135 187 242 298 362 424
#     4  11  24  47  72  96 143 190 239 297 359 431
#     4  11  24  45  65 100 148 179 235 303 360 425
#     4  11  22  42  72 102 136 188 249 297 354 435
#     4  12  25  43  67 102 140 183 233 300 362 427
#
# _framework density 24.223447
#
# number of rings (size 3 to 8) (size 9 to 14) (size 15 to 20)
#    0.000    0.800    4.000    4.200    2.800    3.200 
#    7.200    0.000    0.000    0.000    0.000    0.000 
#    0.000    0.000    0.000    0.000    0.000    0.000 
#
# Total GULP energy -111980.924807 kJ/mol
# GULP energy per Si atom -5599.046240 kJ/mol
# Density = 2.416831 g / cm^3
# Si number density = 24.223447 Si / 1000 Ang^3
#
#
#
# Elastic Constant Matrix: (Units=GPa)
#
#
# Indices 1 2 3 4 5 6 
#
# 1 159.4817 33.3457 46.7625 0.0004 -8.5846 -0.0002
# 2 33.3457 164.0783 12.2789 -0.0008 -2.8181 0.0000
# 3 46.7625 12.2789 57.0684 -0.0010 0.8083 0.0000
# 4 0.0004 -0.0008 -0.0010 26.1570 0.0001 -1.0165
# 5 -8.5846 -2.8181 0.8083 0.0001 14.9310 0.0002
# 6 -0.0002 0.0000 0.0000 -1.0165 0.0002 24.2203
#
#
#
# Elastic Compliance Matrix: (Units=1/GPa)
#
#
# Indices 1 2 3 4 5 6 
#
# 1 0.008883 -0.001184 -0.007099 0.000000 0.005268 0.000000
# 2 -0.001184 0.006375 -0.000410 0.000000 0.000545 0.000000
# 3 -0.007099 -0.000410 0.023505 0.000001 -0.005431 0.000000
# 4 0.000000 0.000000 0.000001 0.038293 -0.000001 0.001607
# 5 0.005268 0.000545 -0.005431 -0.000001 0.070400 -0.000001
# 6 0.000000 0.000000 0.000000 0.001607 -0.000001 0.041355
#
#
# Mechanical properties :
#
#
# Convention : Reuss Voigt Hill
#
# Bulk Modulus (GPa) = 46.77484 62.82251 54.79867
# Shear Modulus (GPa) = 23.43887 32.27777 27.85832
#
# Velocity S-wave (km/s) = 3.11402 3.65430 3.39493
# Velocity P-wave (km/s) = 5.68165 6.61787 6.16755
#
# Compressibility (1/GPa) = 0.02137902
#
# Stress axis : x y z
#
# Youngs Moduli (GPa) = 112.57769 156.85796 42.54499
#
# Poissons Ratio (x) = 0.18565 0.30201
# Poissons Ratio (y) = 0.13324 0.01743
# Poissons Ratio (z) = 0.79914 0.06425
#
# Static dielectric constant tensor:
#      x y z
#    x 1.915010 0.000000 -0.024630 
#    y 0.000000 1.965120 0.000000 
#    z -0.024630 0.000000 1.994480 
# 
# From -- ./inp_files/224197.got.cif
#   From: 2010.05.17/outbox.cif.g08.bks.cpg/sg15_113_cif.got.tgz:224197.got - 2010.06.03 18:47:42.
