data_PCOD9303808
_publ_section_title
;
Structure prediction by ZEFSAII (Michael W. Deem and Ramdas Pophale) SiO2 
 PCOD9303808
Probable space group: C 2/C
;
_chemical_formula_sum "Si O2"
_cell_formula_units_Z 56
_cell_length_a 17.629060
_cell_length_b 8.840300
_cell_length_c 13.898270
_cell_angle_alpha 90.000000
_cell_angle_beta 70.966729
_cell_angle_gamma 90.000000
_cell_volume 2047.576097
_symmetry_space_group_name_H-M "C 2/C"
_symmetry_group_IT_number 15
_symmetry_cell_setting 'monoclinic'
loop_
_space_group_symop_operation_xyz
x,y,z
-x,y,1/2-z
-x,-y,-z
x,-y,1/2+z
1/2+x,1/2+y,z
1/2-x,1/2+y,1/2-z
1/2-x,1/2-y,-z
1/2+x,1/2-y,1/2+z
loop_
_atom_site_type_symbol
_atom_site_label
_atom_site_fract_x
_atom_site_fract_y
_atom_site_fract_z
Si Si1 0.178520 0.155972 0.370715
Si Si2 0.613850 0.865492 0.542056
Si Si3 0.568731 0.834136 0.872106
Si Si4 0.760609 0.694478 0.105212
Si Si5 0.856913 0.040776 0.907451
Si Si6 0.527134 0.495396 0.875733
Si Si7 0.331802 0.979333 0.302953
O O1 0.165522 0.316319 0.428388
O O2 0.265248 0.105394 0.301353
O O3 0.100467 0.118796 0.340983
O O4 0.168825 0.040903 0.468696
O O5 0.520851 0.866781 0.552620
O O6 0.642709 0.000195 0.596353
O O7 0.645361 0.177489 0.410216
O O8 0.558334 0.662952 0.836301
O O9 0.591432 0.968474 0.789627
O O10 0.709404 0.540114 0.127103
O O11 0.712754 0.819647 0.189372
O O12 0.750000 0.750000 0.000000
O O13 0.943187 0.962414 0.858923
O O14 0.871808 0.220184 0.893005
O O15 0.500000 0.500000 0.000000
#
# Coordination Sequence:
#
# PCOD9303808 Si02
#       7
#     8   8   8   8   8   8   8
#     4   9  17  35  67  96 124 173 240 267 317 417
#     4   9  21  41  68  95 133 187 231 274 330 430
#     4  11  23  39  68  98 139 179 223 292 351 398
#     4  12  22  41  70  99 137 179 228 280 341 418
#     4   8  18  33  67  91 121 171 240 269 305 394
#     4   9  14  36  66  95 116 168 234 278 308 410
#     4  12  23  38  65 105 145 172 218 300 360 385
#
# _framework density 27.349411
#
# number of rings (size 3 to 8) (size 9 to 14) (size 15 to 20)
#    0.857    1.143    4.286    1.714    0.000    1.143 
#    0.000    0.714    9.429    0.000    0.000    0.000 
#    0.000    0.000    0.000    0.000    0.000    0.000 
#
# Total GULP energy -156671.541637 kJ/mol
# GULP energy per Si atom -5595.412201 kJ/mol
# Density = 2.728716 g / cm^3
# Si number density = 27.349411 Si / 1000 Ang^3
#
#
#
# Elastic Constant Matrix: (Units=GPa)
#
#
# Indices 1 2 3 4 5 6 
#
# 1 225.8495 63.0712 19.2310 0.0000 -7.5803 0.0000
# 2 63.0712 115.4565 22.2102 0.0000 -1.4042 0.0000
# 3 19.2310 22.2102 71.7781 0.0000 -12.2252 0.0000
# 4 0.0000 0.0000 0.0000 32.3228 0.0000 1.2299
# 5 -7.5803 -1.4042 -12.2252 0.0000 44.0090 0.0000
# 6 0.0000 0.0000 0.0000 1.2299 0.0000 56.0280
#
#
#
# Elastic Compliance Matrix: (Units=1/GPa)
#
#
# Indices 1 2 3 4 5 6 
#
# 1 0.005266 -0.002785 -0.000430 0.000000 0.000699 0.000000
# 2 -0.002785 0.010694 -0.002715 0.000000 -0.000893 0.000000
# 3 -0.000430 -0.002715 0.015598 0.000000 0.004172 0.000000
# 4 0.000000 0.000000 0.000000 0.030964 0.000000 -0.000680
# 5 0.000699 -0.000893 0.004172 0.000000 0.023973 0.000000
# 6 0.000000 0.000000 0.000000 -0.000680 0.000000 0.017863
#
#
# Mechanical properties :
#
#
# Convention : Reuss Voigt Hill
#
# Bulk Modulus (GPa) = 50.76841 69.12320 59.94580
# Shear Modulus (GPa) = 40.72198 47.04342 43.88270
#
# Velocity S-wave (km/s) = 3.86288 4.15189 4.00999
# Velocity P-wave (km/s) = 6.20476 6.95078 6.58833
#
# Compressibility (1/GPa) = 0.01969729
#
# Stress axis : x y z
#
# Youngs Moduli (GPa) = 189.91167 93.50857 64.11205
#
# Poissons Ratio (x) = 0.26045 0.02756
# Poissons Ratio (y) = 0.52896 0.17406
# Poissons Ratio (z) = 0.08165 0.25387
#
# Static dielectric constant tensor:
#      x y z
#    x 2.033180 0.000000 0.037410 
#    y 0.000000 2.125150 0.000000 
#    z 0.037410 0.000000 2.299740 
# 
# From -- ./inp_files/172282.got.cif
#   From: 2010.05.17/outbox.cif.g08.bks.cpg/sg15_87_cif.got.tgz:172282.got - 2010.06.03 18:47:42.
