data_PCOD9303241
_publ_section_title
;
Structure prediction by ZEFSAII (Michael W. Deem and Ramdas Pophale) SiO2 
 PCOD9303241
Probable space group: C 2/C
;
_chemical_formula_sum "Si O2"
_cell_formula_units_Z 48
_cell_length_a 27.014874
_cell_length_b 12.780489
_cell_length_c 14.904302
_cell_angle_alpha 90.000000
_cell_angle_beta 155.176905
_cell_angle_gamma 90.000000
_cell_volume 2160.344799
_symmetry_space_group_name_H-M "C 2/C"
_symmetry_group_IT_number 15
_symmetry_cell_setting 'monoclinic'
loop_
_space_group_symop_operation_xyz
x,y,z
-x,y,1/2-z
-x,-y,-z
x,-y,1/2+z
1/2+x,1/2+y,z
1/2-x,1/2+y,1/2-z
1/2-x,1/2-y,-z
1/2+x,1/2-y,1/2+z
loop_
_atom_site_type_symbol
_atom_site_label
_atom_site_fract_x
_atom_site_fract_y
_atom_site_fract_z
Si Si1 0.882843 0.708259 0.724480
Si Si2 0.821436 0.487766 0.676249
Si Si3 0.064201 0.263424 0.668794
Si Si4 0.866815 0.043063 0.772095
Si Si5 0.182643 0.996246 0.114668
Si Si6 0.000000 0.171358 0.750000
Si Si7 0.000000 0.821155 0.750000
O O1 0.750000 0.750000 0.500000
O O2 0.889949 0.582998 0.744008
O O3 0.952609 0.752940 0.754506
O O4 0.940992 0.744813 0.913218
O O5 0.877603 0.375527 0.750941
O O6 0.692871 0.495492 0.417343
O O7 0.797983 0.504028 0.742782
O O8 0.136354 0.168286 0.742763
O O9 0.047877 0.238262 0.746070
O O10 0.798375 0.006806 0.747843
O O11 0.000000 0.000000 0.000000
O O12 0.103340 0.096589 0.958065
O O13 0.103187 0.895928 0.957747
#
# Coordination Sequence:
#
# PCOD9303241 Si02
#       7
#     8   8   8   8   8   4   4
#     4  12  26  47  75 104 146 195 247 306 372 444
#     4  12  27  45  69 111 147 185 240 313 373 428
#     4  12  26  47  71 105 152 184 240 309 371 437
#     4  12  22  44  74 102 136 193 246 292 356 449
#     4  11  22  42  74 105 135 190 250 291 354 445
#     4  11  24  41  76 102 142 187 240 297 364 442
#     4  11  22  45  74 106 134 193 256 293 350 454
#
# _framework density 22.218675000000001
#
# number of rings (size 3 to 8) (size 9 to 14) (size 15 to 20)
#    0.000    0.333    6.667    3.000    0.000    3.333 
#    0.000    0.000    0.000    0.000    0.000    0.000 
#    0.000    0.000    0.000    0.000    0.000    0.000 
#
# Total GULP energy -134386.223426 kJ/mol
# GULP energy per Si atom -5599.425976 kJ/mol
# Density = 2.216810 g / cm^3
# Si number density = 22.218675 Si / 1000 Ang^3
#
#
#
# Elastic Constant Matrix: (Units=GPa)
#
#
# Indices 1 2 3 4 5 6 
#
# 1 187.5935 78.1313 23.5377 0.0000 -8.9215 0.0000
# 2 78.1313 130.6957 -0.4586 0.0000 13.7405 0.0000
# 3 23.5377 -0.4586 64.5252 0.0000 -7.7351 0.0000
# 4 0.0000 0.0000 0.0000 12.8593 0.0000 7.2340
# 5 -8.9215 13.7405 -7.7351 0.0000 27.7662 0.0000
# 6 0.0000 0.0000 0.0000 7.2340 0.0000 44.6383
#
#
#
# Elastic Compliance Matrix: (Units=1/GPa)
#
#
# Indices 1 2 3 4 5 6 
#
# 1 0.008061 -0.005305 -0.002434 0.000000 0.004537 0.000000
# 2 -0.005305 0.011574 0.001165 0.000000 -0.007107 0.000000
# 3 -0.002434 0.001165 0.016792 0.000000 0.003319 0.000000
# 4 0.000000 0.000000 0.000000 0.085565 0.000000 -0.013867
# 5 0.004537 -0.007107 0.003319 0.000000 0.041915 0.000000
# 6 0.000000 0.000000 0.000000 -0.013867 0.000000 0.024649
#
#
# Mechanical properties :
#
#
# Convention : Reuss Voigt Hill
#
# Bulk Modulus (GPa) = 42.95612 65.02614 53.99113
# Shear Modulus (GPa) = 23.87048 35.82636 29.84842
#
# Velocity S-wave (km/s) = 3.28127 4.01988 3.66921
# Velocity P-wave (km/s) = 5.80784 7.13273 6.50411
#
# Compressibility (1/GPa) = 0.02327957
#
# Stress axis : x y z
#
# Youngs Moduli (GPa) = 124.05056 86.40189 59.55210
#
# Poissons Ratio (x) = 0.45833 0.14497
# Poissons Ratio (y) = 0.65804 -0.06940
# Poissons Ratio (z) = 0.30199 -0.10068
#
# Static dielectric constant tensor:
#      x y z
#    x 1.774340 0.000000 0.020820 
#    y 0.000000 1.829020 0.000000 
#    z 0.020820 0.000000 1.869300 
# 
# From -- ./inp_files/152521.got.cif
#   From: 2010.05.17/outbox.cif.g08.bks.cpg/sg15_77_cif.got.tgz:152521.got - 2010.06.03 18:47:42.
