data_PCOD9303122
_publ_section_title
;
Structure prediction by ZEFSAII (Michael W. Deem and Ramdas Pophale) SiO2 
 PCOD9303122
Probable space group: C 2/C
;
_chemical_formula_sum "Si O2"
_cell_formula_units_Z 44
_cell_length_a 8.050971
_cell_length_b 22.792005
_cell_length_c 10.133031
_cell_angle_alpha 90.000000
_cell_angle_beta 66.576303
_cell_angle_gamma 90.000000
_cell_volume 1706.156930
_symmetry_space_group_name_H-M "C 2/C"
_symmetry_group_IT_number 15
_symmetry_cell_setting 'monoclinic'
loop_
_space_group_symop_operation_xyz
x,y,z
-x,y,1/2-z
-x,-y,-z
x,-y,1/2+z
1/2+x,1/2+y,z
1/2-x,1/2+y,1/2-z
1/2-x,1/2-y,-z
1/2+x,1/2-y,1/2+z
loop_
_atom_site_type_symbol
_atom_site_label
_atom_site_fract_x
_atom_site_fract_y
_atom_site_fract_z
Si Si1 0.500000 0.032127 0.250000
Si Si2 0.765378 0.174526 0.763573
Si Si3 0.610811 0.479037 0.842819
Si Si4 0.500000 0.226194 0.250000
Si Si5 0.954396 0.628174 0.043348
Si Si6 0.500000 0.739993 0.250000
Si Si7 0.060528 0.862933 0.538529
O O1 0.686284 0.998355 0.209442
O O2 0.505519 0.073142 0.118838
O O3 0.666243 0.215597 0.686705
O O4 0.909104 0.139323 0.628803
O O5 0.845154 0.225922 0.830554
O O6 0.614155 0.138248 0.887566
O O7 0.500000 0.496126 0.750000
O O8 0.594100 0.408378 0.865794
O O9 0.500000 0.500000 0.000000
O O10 0.452473 0.184353 0.142489
O O11 0.756426 0.619995 0.040098
O O12 0.497950 0.698242 0.377448
#
# Coordination Sequence:
#
# PCOD9303122 Si02
#       7
#     4   8   8   4   8   4   8
#     4  11  26  50  81 104 146 187 238 310 389 452
#     4  12  24  36  62 106 148 197 248 289 348 445
#     4  12  29  55  82 111 142 192 253 324 398 456
#     4  11  24  36  56 101 153 202 254 294 343 432
#     4  11  22  42  66 102 146 200 242 294 364 433
#     4  12  20  38  65  91 143 197 236 276 358 436
#     4  12  23  45  70 100 145 194 248 304 369 445
#
# _framework density 25.788952999999999
#
# number of rings (size 3 to 8) (size 9 to 14) (size 15 to 20)
#    0.000    0.364    6.364    2.182    5.091    2.182 
#    3.273    0.000    0.000    0.000    0.000    0.000 
#    0.000    0.000    0.000    0.000    0.000    0.000 
#
# Total GULP energy -123211.205861 kJ/mol
# GULP energy per Si atom -5600.509357 kJ/mol
# Density = 2.573026 g / cm^3
# Si number density = 25.788953 Si / 1000 Ang^3
#
#
#
# Elastic Constant Matrix: (Units=GPa)
#
#
# Indices 1 2 3 4 5 6 
#
# 1 129.1010 4.4001 26.6963 0.0000 -8.8704 0.0000
# 2 4.4001 27.1358 11.2820 0.0000 5.3121 0.0000
# 3 26.6963 11.2820 160.5705 0.0000 0.0956 0.0000
# 4 0.0000 0.0000 0.0000 35.7791 0.0000 -19.2089
# 5 -8.8704 5.3121 0.0956 0.0000 39.6052 0.0000
# 6 0.0000 0.0000 0.0000 -19.2089 0.0000 -32.6730
#
#
#
# Elastic Compliance Matrix: (Units=1/GPa)
#
#
# Indices 1 2 3 4 5 6 
#
# 1 0.008188 -0.001187 -0.001279 0.000000 0.001996 0.000000
# 2 -0.001187 0.039185 -0.002553 0.000000 -0.005515 0.000000
# 3 -0.001279 -0.002553 0.006620 0.000000 0.000040 0.000000
# 4 0.000000 0.000000 0.000000 0.021244 0.000000 -0.012490
# 5 0.001996 -0.005515 0.000040 0.000000 0.026436 0.000000
# 6 0.000000 0.000000 0.000000 -0.012490 0.000000 -0.023264
#
#
# Mechanical properties :
#
#
# Convention : Reuss Voigt Hill
#
# Bulk Modulus (GPa) = 22.75003 44.61823 33.68413
# Shear Modulus (GPa) = 48.49756 26.83753 37.66754
#
# Velocity S-wave (km/s) = 4.34124 3.22943 3.82594
# Velocity P-wave (km/s) = 5.82832 5.58967 5.71024
#
# Compressibility (1/GPa) = 0.04395598
#
# Stress axis : x y z
#
# Youngs Moduli (GPa) = 122.13036 25.51995 151.06210
#
# Poissons Ratio (x) = 0.03028 0.19323
# Poissons Ratio (y) = 0.14492 0.38561
# Poissons Ratio (z) = 0.15622 0.06514
#
# Static dielectric constant tensor:
#      x y z
#    x 2.138040 0.000000 -0.002670 
#    y 0.000000 2.119930 0.000000 
#    z -0.002670 0.000000 1.962790 
# 
# From -- ./inp_files/79726.got.cif
#   From: 2010.05.17/outbox.cif.g08.bks.cpg/sg15_40_cif.got.tgz:79726.got - 2010.06.03 18:47:42.
