data_PCOD9303594
_publ_section_title
;
Structure prediction by ZEFSAII (Michael W. Deem and Ramdas Pophale) SiO2 
 PCOD9303594
Probable space group: C 2/C
;
_chemical_formula_sum "Si O2"
_cell_formula_units_Z 44
_cell_length_a 23.557211
_cell_length_b 7.718829
_cell_length_c 13.063040
_cell_angle_alpha 90.000000
_cell_angle_beta 119.497303
_cell_angle_gamma 90.000000
_cell_volume 2067.416079
_symmetry_space_group_name_H-M "C 2/C"
_symmetry_group_IT_number 15
_symmetry_cell_setting 'monoclinic'
loop_
_space_group_symop_operation_xyz
x,y,z
-x,y,1/2-z
-x,-y,-z
x,-y,1/2+z
1/2+x,1/2+y,z
1/2-x,1/2+y,1/2-z
1/2-x,1/2-y,-z
1/2+x,1/2-y,1/2+z
loop_
_atom_site_type_symbol
_atom_site_label
_atom_site_fract_x
_atom_site_fract_y
_atom_site_fract_z
Si Si1 0.905370 0.901779 0.292032
Si Si2 0.958835 0.339350 0.003659
Si Si3 0.221633 0.937585 0.199751
Si Si4 0.801709 0.361033 0.607920
Si Si5 0.000000 0.851719 0.750000
Si Si6 0.185291 0.419306 0.567236
O O1 0.956262 0.810558 0.414685
O O2 0.849485 0.984588 0.316870
O O3 0.864052 0.753211 0.195783
O O4 0.941741 0.027721 0.244741
O O5 0.978574 0.262058 0.132133
O O6 0.885827 0.411560 0.948237
O O7 0.000000 0.500000 0.000000
O O8 0.214340 0.768435 0.122049
O O9 0.261123 0.072430 0.167521
O O10 0.269285 0.937584 0.339377
O O11 0.750000 0.250000 0.500000
O O12 0.820864 0.526461 0.555865
#
# Coordination Sequence:
#
# PCOD9303594 Si02
#       6
#     8   8   8   8   4   8
#     4  11  27  48  72 107 149 189 249 303 366 440
#     4  11  28  50  71 107 142 201 254 304 361 439
#     4  11  22  46  67 107 143 179 237 301 364 429
#     4  12  24  42  70 108 140 187 228 301 369 436
#     4  12  30  50  76 104 146 210 248 304 366 440
#     4  11  24  42  73 105 146 184 240 300 371 434
#
# _framework density 21.282606000000001
#
# number of rings (size 3 to 8) (size 9 to 14) (size 15 to 20)
#    0.000    0.727    5.455    1.091   10.182    4.364 
#    0.000    0.000    0.000    0.000    0.000    0.000 
#    0.000    0.000    0.000    0.000    0.000    0.000 
#
# Total GULP energy -122748.886610 kJ/mol
# GULP energy per Si atom -5579.494846 kJ/mol
# Density = 2.123417 g / cm^3
# Si number density = 21.282606 Si / 1000 Ang^3
#
#
#
# Elastic Constant Matrix: (Units=GPa)
#
#
# Indices 1 2 3 4 5 6 
#
# 1 93.6350 72.1160 33.9798 0.0000 -7.1961 0.0000
# 2 72.1160 93.4124 50.6817 0.0000 1.4738 0.0000
# 3 33.9798 50.6817 125.0837 0.0000 -4.6220 0.0000
# 4 0.0000 0.0000 0.0000 50.7884 0.0000 -1.1513
# 5 -7.1961 1.4738 -4.6220 0.0000 38.4587 0.0000
# 6 0.0000 0.0000 0.0000 -1.1513 0.0000 42.5020
#
#
#
# Elastic Compliance Matrix: (Units=1/GPa)
#
#
# Indices 1 2 3 4 5 6 
#
# 1 0.027980 -0.022692 0.001827 0.000000 0.006325 0.000000
# 2 -0.022692 0.032181 -0.007109 0.000000 -0.006333 0.000000
# 3 0.001827 -0.007109 0.010448 0.000000 0.001870 0.000000
# 4 0.000000 0.000000 0.000000 0.019702 0.000000 0.000534
# 5 0.006325 -0.006333 0.001870 0.000000 0.027653 0.000000
# 6 0.000000 0.000000 0.000000 0.000534 0.000000 0.023543
#
#
# Mechanical properties :
#
#
# Convention : Reuss Voigt Hill
#
# Bulk Modulus (GPa) = 68.20725 69.52068 68.86396
# Shear Modulus (GPa) = 24.71102 36.70672 30.70887
#
# Velocity S-wave (km/s) = 3.41117 4.15749 3.80269
# Velocity P-wave (km/s) = 6.90165 7.46878 7.19081
#
# Compressibility (1/GPa) = 0.01466120
#
# Stress axis : x y z
#
# Youngs Moduli (GPa) = 35.74017 31.07464 95.71541
#
# Poissons Ratio (x) = 0.70515 -0.17489
# Poissons Ratio (y) = 0.81102 0.68040
# Poissons Ratio (z) = -0.06530 0.22090
#
# Static dielectric constant tensor:
#      x y z
#    x 2.203440 0.000000 -0.904980 
#    y 0.000000 2.399610 0.000000 
#    z -0.904980 0.000000 3.474480 
# 
# From -- ./inp_files/116865.got.cif
#   From: 2010.05.17/outbox.cif.g08.bks.cpg/sg15_59_cif.got.tgz:116865.got - 2010.06.03 18:47:42.
