data_PCOD9303979
_publ_section_title
;
Structure prediction by ZEFSAII (Michael W. Deem and Ramdas Pophale) SiO2 
 PCOD9303979
Probable space group: C 2/C
;
_chemical_formula_sum "Si O2"
_cell_formula_units_Z 48
_cell_length_a 20.403639
_cell_length_b 9.547208
_cell_length_c 25.364637
_cell_angle_alpha 90.000000
_cell_angle_beta 152.207228
_cell_angle_gamma 90.000000
_cell_volume 2303.853393
_symmetry_space_group_name_H-M "C 2/C"
_symmetry_group_IT_number 15
_symmetry_cell_setting 'monoclinic'
loop_
_space_group_symop_operation_xyz
x,y,z
-x,y,1/2-z
-x,-y,-z
x,-y,1/2+z
1/2+x,1/2+y,z
1/2-x,1/2+y,1/2-z
1/2-x,1/2-y,-z
1/2+x,1/2-y,1/2+z
loop_
_atom_site_type_symbol
_atom_site_label
_atom_site_fract_x
_atom_site_fract_y
_atom_site_fract_z
Si Si1 0.396237 0.910377 0.464625
Si Si2 0.947675 0.318398 0.156095
Si Si3 0.866763 0.082545 0.423395
Si Si4 0.649817 0.561721 0.476646
Si Si5 0.067630 0.123656 0.740637
Si Si6 0.077895 0.427210 0.697099
O O1 0.402827 0.745488 0.455747
O O2 0.226438 0.938930 0.346363
O O3 0.462454 0.926028 0.569640
O O4 0.500000 0.000000 0.500000
O O5 0.928526 0.206933 0.095316
O O6 0.000000 0.256703 0.250000
O O7 0.055412 0.434969 0.214888
O O8 0.802365 0.403244 0.061188
O O9 0.737999 0.070384 0.290857
O O10 0.827617 0.002950 0.449719
O O11 0.000000 0.000000 0.500000
O O12 0.547657 0.448487 0.377960
O O13 0.073171 0.287214 0.728847
O O14 0.000000 0.109247 0.750000
#
# Coordination Sequence:
#
# PCOD9303979 Si02
#       6
#     8   8   8   8   8   8
#     4  11  27  45  69 106 136 184 238 284 349 417
#     4  11  23  41  68 104 137 178 226 285 352 405
#     4  11  26  45  67  97 138 187 228 283 351 408
#     4  11  24  43  66 101 140 176 230 281 349 408
#     4  11  24  44  72 103 140 181 230 290 350 416
#     4  11  24  43  71  98 136 179 229 289 342 420
#
# _framework density 20.834658000000001
#
# number of rings (size 3 to 8) (size 9 to 14) (size 15 to 20)
#    0.000    1.000    3.333    2.000    7.000    4.000 
#    0.000    0.000    0.000    0.000    0.000    0.000 
#    0.000    0.000    0.000    0.000    0.000    0.000 
#
# Total GULP energy -133809.809236 kJ/mol
# GULP energy per Si atom -5575.408718 kJ/mol
# Density = 2.078724 g / cm^3
# Si number density = 20.834658 Si / 1000 Ang^3
#
#
#
# Elastic Constant Matrix: (Units=GPa)
#
#
# Indices 1 2 3 4 5 6 
#
# 1 53.8780 21.9887 13.1115 0.0001 12.0909 0.0000
# 2 21.9887 88.0347 3.3966 0.0000 11.7321 0.0000
# 3 13.1115 3.3966 87.6781 -0.0002 -6.5592 -0.0001
# 4 0.0001 0.0000 -0.0002 28.5318 -0.0001 5.9190
# 5 12.0909 11.7321 -6.5592 -0.0001 25.1504 0.0000
# 6 0.0000 0.0000 -0.0001 5.9190 0.0000 31.5046
#
#
#
# Elastic Compliance Matrix: (Units=1/GPa)
#
#
# Indices 1 2 3 4 5 6 
#
# 1 0.023697 -0.004367 -0.004155 0.000000 -0.010438 0.000000
# 2 -0.004367 0.012989 -0.000149 0.000000 -0.003998 0.000000
# 3 -0.004155 -0.000149 0.012430 0.000000 0.005309 0.000000
# 4 0.000000 0.000000 0.000000 0.036470 0.000000 -0.006852
# 5 -0.010438 -0.003998 0.005309 0.000000 0.048029 0.000000
# 6 0.000000 0.000000 0.000000 -0.006852 0.000000 0.033029
#
#
# Mechanical properties :
#
#
# Convention : Reuss Voigt Hill
#
# Bulk Modulus (GPa) = 31.47508 34.06491 32.76999
# Shear Modulus (GPa) = 25.69688 29.77698 27.73693
#
# Velocity S-wave (km/s) = 3.51575 3.78458 3.65264
# Velocity P-wave (km/s) = 5.62321 5.95676 5.79239
#
# Compressibility (1/GPa) = 0.03177117
#
# Stress axis : x y z
#
# Youngs Moduli (GPa) = 42.20021 76.99066 80.45257
#
# Poissons Ratio (x) = 0.33625 0.33431
# Poissons Ratio (y) = 0.18430 0.01200
# Poissons Ratio (z) = 0.17535 0.01149
#
# Static dielectric constant tensor:
#      x y z
#    x 1.812150 0.000000 -0.168100 
#    y 0.000000 1.742560 0.000000 
#    z -0.168100 0.000000 1.974620 
# 
# From -- ./inp_files/116265.got.cif
#   From: 2010.05.17/outbox.cif.g08.bks.cpg/sg15_59_cif.got.tgz:116265.got - 2010.06.03 18:47:42.
