data_PCOD9303936
_publ_section_title
;
Structure prediction by ZEFSAII (Michael W. Deem and Ramdas Pophale) SiO2 
 PCOD9303936
Probable space group: C 2/C
;
_chemical_formula_sum "Si O2"
_cell_formula_units_Z 44
_cell_length_a 26.127484
_cell_length_b 13.330066
_cell_length_c 15.437739
_cell_angle_alpha 90.000000
_cell_angle_beta 24.627931
_cell_angle_gamma 90.000000
_cell_volume 2240.588390
_symmetry_space_group_name_H-M "C 2/C"
_symmetry_group_IT_number 15
_symmetry_cell_setting 'monoclinic'
loop_
_space_group_symop_operation_xyz
x,y,z
-x,y,1/2-z
-x,-y,-z
x,-y,1/2+z
1/2+x,1/2+y,z
1/2-x,1/2+y,1/2-z
1/2-x,1/2-y,-z
1/2+x,1/2-y,1/2+z
loop_
_atom_site_type_symbol
_atom_site_label
_atom_site_fract_x
_atom_site_fract_y
_atom_site_fract_z
Si Si1 0.557089 0.099476 0.368767
Si Si2 0.162940 0.172424 0.184416
Si Si3 0.000000 0.120386 0.750000
Si Si4 0.681845 0.445023 0.117140
Si Si5 0.392982 0.699274 0.608489
Si Si6 0.644192 0.767276 0.402499
O O1 0.587368 0.185797 0.392142
O O2 0.454935 0.146073 0.462358
O O3 0.500000 0.000000 0.500000
O O4 0.684942 0.086051 0.122605
O O5 0.157147 0.208815 0.292276
O O6 0.022560 0.172045 0.366728
O O7 0.201150 0.057424 0.120841
O O8 0.250000 0.250000 0.000000
O O9 0.082864 0.060280 0.691332
O O10 0.091645 0.192113 0.555276
O O11 0.632898 0.370214 0.267329
O O12 0.275024 0.690792 0.729886
#
# Coordination Sequence:
#
# PCOD9303936 Si02
#       6
#     8   8   4   8   8   8
#     4  11  23  41  65 100 138 180 222 291 349 413
#     4  11  26  46  64 101 144 182 224 291 354 428
#     4  12  22  40  76 104 126 178 236 294 342 408
#     4  12  23  42  72 100 138 178 238 285 349 417
#     4  11  23  43  69  96 138 180 234 286 342 417
#     4  11  24  43  69  99 136 177 235 281 348 413
#
# _framework density 19.637699999999999
#
# number of rings (size 3 to 8) (size 9 to 14) (size 15 to 20)
#    0.000    0.727    5.455    4.364    0.000    5.091 
#    0.000    1.818    0.000    0.000    0.000    0.000 
#    0.000    0.000    0.000    0.000    0.000    0.000 
#
# Total GULP energy -122938.481671 kJ/mol
# GULP energy per Si atom -5588.112803 kJ/mol
# Density = 1.959300 g / cm^3
# Si number density = 19.637700 Si / 1000 Ang^3
#
#
#
# Elastic Constant Matrix: (Units=GPa)
#
#
# Indices 1 2 3 4 5 6 
#
# 1 92.2951 15.4639 23.9239 0.0000 -27.3563 0.0000
# 2 15.4639 106.0248 6.8523 0.0000 5.5729 0.0000
# 3 23.9239 6.8523 72.5126 0.0000 -17.3527 0.0000
# 4 0.0000 0.0000 0.0000 36.1745 0.0000 -5.7337
# 5 -27.3563 5.5729 -17.3527 0.0000 46.0616 0.0000
# 6 0.0000 0.0000 0.0000 -5.7337 0.0000 4.4803
#
#
#
# Elastic Compliance Matrix: (Units=1/GPa)
#
#
# Indices 1 2 3 4 5 6 
#
# 1 0.014187 -0.002306 -0.002616 0.000000 0.007720 0.000000
# 2 -0.002306 0.009978 -0.000878 0.000000 -0.002907 0.000000
# 3 -0.002616 -0.000878 0.015816 0.000000 0.004511 0.000000
# 4 0.000000 0.000000 0.000000 0.034678 0.000000 0.044379
# 5 0.007720 -0.002907 0.004511 0.000000 0.028346 0.000000
# 6 0.000000 0.000000 0.000000 0.044379 0.000000 0.279993
#
#
# Mechanical properties :
#
#
# Convention : Reuss Voigt Hill
#
# Bulk Modulus (GPa) = 35.23306 40.36807 37.80056
# Shear Modulus (GPa) = 12.37449 32.31609 22.34529
#
# Velocity S-wave (km/s) = 2.51298 4.06102 3.37690
# Velocity P-wave (km/s) = 5.13815 6.52612 5.87328
#
# Compressibility (1/GPa) = 0.02838244
#
# Stress axis : x y z
#
# Youngs Moduli (GPa) = 70.48602 100.22413 63.22649
#
# Poissons Ratio (x) = 0.23111 0.16537
# Poissons Ratio (y) = 0.16254 0.05550
# Poissons Ratio (z) = 0.18436 0.08798
#
# Static dielectric constant tensor:
#      x y z
#    x 1.681900 0.000000 -0.003880 
#    y 0.000000 1.738570 0.000000 
#    z -0.003880 0.000000 1.750290 
# 
# From -- ./inp_files/142205.got.cif
#   From: 2010.05.17/outbox.cif.g08.bks.cpg/sg15_72_cif.got.tgz:142205.got - 2010.06.03 18:47:42.
