data_PCOD9303991
_publ_section_title
;
Structure prediction by ZEFSAII (Michael W. Deem and Ramdas Pophale) SiO2 
 PCOD9303991
Probable space group: C 2/C
;
_chemical_formula_sum "Si O2"
_cell_formula_units_Z 36
_cell_length_a 12.487444
_cell_length_b 7.826943
_cell_length_c 15.619253
_cell_angle_alpha 90.000000
_cell_angle_beta 60.348796
_cell_angle_gamma 90.000000
_cell_volume 1326.698769
_symmetry_space_group_name_H-M "C 2/C"
_symmetry_group_IT_number 15
_symmetry_cell_setting 'monoclinic'
loop_
_space_group_symop_operation_xyz
x,y,z
-x,y,1/2-z
-x,-y,-z
x,-y,1/2+z
1/2+x,1/2+y,z
1/2-x,1/2+y,1/2-z
1/2-x,1/2-y,-z
1/2+x,1/2-y,1/2+z
loop_
_atom_site_type_symbol
_atom_site_label
_atom_site_fract_x
_atom_site_fract_y
_atom_site_fract_z
Si Si1 0.863906 0.438415 0.535115
Si Si2 0.000000 0.263176 0.250000
Si Si3 0.364160 0.426938 0.965983
Si Si4 0.303904 0.008333 0.236407
Si Si5 0.444149 0.631622 0.675802
O O1 0.779169 0.478379 0.487064
O O2 0.865624 0.231806 0.530187
O O3 0.791330 0.527962 0.640421
O O4 0.000000 0.500000 0.500000
O O5 0.073369 0.164282 0.144327
O O6 0.105569 0.377645 0.252885
O O7 0.443737 0.598614 0.934452
O O8 0.372870 0.188984 0.208345
O O9 0.160652 0.002372 0.316325
O O10 0.500000 0.618043 0.750000
#
# Coordination Sequence:
#
# PCOD9303991 Si02
#       5
#     8   4   8   8   8
#     4  11  23  41  68  97 136 176 218 278 342 387
#     4  12  22  44  70 102 132 182 230 270 334 402
#     4  11  23  42  69  97 135 176 223 280 330 397
#     4  12  25  43  71 100 136 177 225 279 332 401
#     4  12  24  44  71 100 132 177 230 274 331 395
#
# _framework density 27.135021999999999
#
# number of rings (size 3 to 8) (size 9 to 14) (size 15 to 20)
#    0.000    0.444    6.667    2.667    0.000    0.889 
#    0.000    1.111    0.000    0.000    0.000    0.000 
#    0.000    0.000    0.000    0.000    0.000    0.000 
#
# Total GULP energy -100496.979373 kJ/mol
# GULP energy per Si atom -5583.165521 kJ/mol
# Density = 2.707326 g / cm^3
# Si number density = 27.135022 Si / 1000 Ang^3
#
#
#
# Elastic Constant Matrix: (Units=GPa)
#
#
# Indices 1 2 3 4 5 6 
#
# 1 210.4366 48.5497 -0.5159 0.0000 -43.9298 0.0000
# 2 48.5497 78.4984 -7.0291 0.0000 -8.4955 0.0000
# 3 -0.5159 -7.0291 56.5280 0.0000 -7.6551 0.0000
# 4 0.0000 0.0000 0.0000 29.7779 0.0000 -9.7937
# 5 -43.9298 -8.4955 -7.6551 0.0000 52.4156 0.0000
# 6 0.0000 0.0000 0.0000 -9.7937 0.0000 67.5431
#
#
#
# Elastic Compliance Matrix: (Units=1/GPa)
#
#
# Indices 1 2 3 4 5 6 
#
# 1 0.006612 -0.003519 0.000302 0.000000 0.005015 0.000000
# 2 -0.003519 0.015051 0.001806 0.000000 -0.000246 0.000000
# 3 0.000302 0.001806 0.018355 0.000000 0.003226 0.000000
# 4 0.000000 0.000000 0.000000 0.035264 0.000000 0.005113
# 5 0.005015 -0.000246 0.003226 0.000000 0.023713 0.000000
# 6 0.000000 0.000000 0.000000 0.005113 0.000000 0.015547
#
#
# Mechanical properties :
#
#
# Convention : Reuss Voigt Hill
#
# Bulk Modulus (GPa) = 26.88604 47.49693 37.19149
# Shear Modulus (GPa) = 38.53238 50.24455 44.38847
#
# Velocity S-wave (km/s) = 3.77241 4.30775 4.04894
# Velocity P-wave (km/s) = 5.37629 6.50263 5.96610
#
# Compressibility (1/GPa) = 0.03719403
#
# Stress axis : x y z
#
# Youngs Moduli (GPa) = 151.24922 66.44148 54.48230
#
# Poissons Ratio (x) = 0.23383 -0.01644
# Poissons Ratio (y) = 0.53230 -0.09840
# Poissons Ratio (z) = -0.04565 -0.12000
#
# Static dielectric constant tensor:
#      x y z
#    x 2.198400 0.000000 -0.017100 
#    y 0.000000 2.225940 0.000000 
#    z -0.017100 0.000000 2.302300 
# 
# From -- ./inp_files/194878.got.cif
#   From: 2010.05.17/outbox.cif.g08.bks.cpg/sg15_98_cif.got.tgz:194878.got - 2010.06.03 18:47:42.
