data_PCOD9303714
_publ_section_title
;
Structure prediction by ZEFSAII (Michael W. Deem and Ramdas Pophale) SiO2 
 PCOD9303714
Probable space group: C 2/C
;
_chemical_formula_sum "Si O2"
_cell_formula_units_Z 48
_cell_length_a 15.393701
_cell_length_b 22.550655
_cell_length_c 9.037377
_cell_angle_alpha 90.000000
_cell_angle_beta 140.137769
_cell_angle_gamma 90.000000
_cell_volume 2010.779948
_symmetry_space_group_name_H-M "C 2/C"
_symmetry_group_IT_number 15
_symmetry_cell_setting 'monoclinic'
loop_
_space_group_symop_operation_xyz
x,y,z
-x,y,1/2-z
-x,-y,-z
x,-y,1/2+z
1/2+x,1/2+y,z
1/2-x,1/2+y,1/2-z
1/2-x,1/2-y,-z
1/2+x,1/2-y,1/2+z
loop_
_atom_site_type_symbol
_atom_site_label
_atom_site_fract_x
_atom_site_fract_y
_atom_site_fract_z
Si Si1 0.947014 0.231214 0.343877
Si Si2 0.866451 0.642355 0.850533
Si Si3 0.136952 0.077388 0.003461
Si Si4 0.858823 0.893176 0.656378
Si Si5 0.189099 0.187184 0.873214
Si Si6 0.069157 0.448983 0.682671
O O1 0.881557 0.289370 0.325055
O O2 0.849023 0.175959 0.191312
O O3 0.000000 0.246911 0.250000
O O4 0.065975 0.204506 0.602828
O O5 0.769480 0.602387 0.619930
O O6 0.794165 0.647854 0.915146
O O7 0.014884 0.613655 0.047451
O O8 0.136683 0.073443 0.181100
O O9 0.270548 0.046082 0.117167
O O10 0.148562 0.145439 0.957557
O O11 0.000000 0.053490 0.750000
O O12 0.000000 0.900284 0.750000
O O13 0.250000 0.250000 0.000000
O O14 0.000000 0.453261 0.750000
O O15 0.000000 0.500000 0.500000
#
# Coordination Sequence:
#
# PCOD9303714 Si02
#       6
#     8   8   8   8   8   8
#     4  11  23  37  62 107 152 198 247 289 356 456
#     4  12  25  44  70 101 152 202 241 303 377 437
#     4  12  25  48  79 108 145 198 245 307 380 447
#     4  11  23  43  68 110 154 196 244 291 357 452
#     4  12  24  39  66 107 154 198 242 300 364 454
#     4  12  31  55  79 109 144 187 256 323 377 438
#
# _framework density 23.871333
#
# number of rings (size 3 to 8) (size 9 to 14) (size 15 to 20)
#    0.000    0.333    6.667    2.500    7.000    0.000 
#    0.000    1.667    0.000    0.000    0.000    0.000 
#    0.000    0.000    0.000    0.000    0.000    0.000 
#
# Total GULP energy -134386.442800 kJ/mol
# GULP energy per Si atom -5599.435117 kJ/mol
# Density = 2.381700 g / cm^3
# Si number density = 23.871333 Si / 1000 Ang^3
#
#
#
# Elastic Constant Matrix: (Units=GPa)
#
#
# Indices 1 2 3 4 5 6 
#
# 1 139.5179 19.9670 54.6339 0.0000 -5.2545 0.0000
# 2 19.9670 53.5702 21.8461 0.0000 4.5192 0.0000
# 3 54.6339 21.8461 140.2765 0.0000 18.6756 0.0000
# 4 0.0000 0.0000 0.0000 25.6773 0.0000 -0.2525
# 5 -5.2545 4.5192 18.6756 0.0000 47.8384 0.0000
# 6 0.0000 0.0000 0.0000 -0.2525 0.0000 -11.8712
#
#
#
# Elastic Compliance Matrix: (Units=1/GPa)
#
#
# Indices 1 2 3 4 5 6 
#
# 1 0.008932 -0.002122 -0.003487 0.000000 0.002543 0.000000
# 2 -0.002122 0.020460 -0.002185 0.000000 -0.001313 0.000000
# 3 -0.003487 -0.002185 0.009336 0.000000 -0.003821 0.000000
# 4 0.000000 0.000000 0.000000 0.038937 0.000000 -0.000828
# 5 0.002543 -0.001313 -0.003821 0.000000 0.022799 0.000000
# 6 0.000000 0.000000 0.000000 -0.000828 0.000000 -0.084220
#
#
# Mechanical properties :
#
#
# Convention : Reuss Voigt Hill
#
# Bulk Modulus (GPa) = 43.21498 58.47316 50.84407
# Shear Modulus (GPa) = 126.43705 28.12340 77.28023
#
# Velocity S-wave (km/s) = 7.28567 3.43611 5.69596
# Velocity P-wave (km/s) = 9.42960 6.34750 8.03766
#
# Compressibility (1/GPa) = 0.02314013
#
# Stress axis : x y z
#
# Youngs Moduli (GPa) = 111.95107 48.87629 107.11310
#
# Poissons Ratio (x) = 0.10371 0.37351
# Poissons Ratio (y) = 0.23754 0.23406
# Poissons Ratio (z) = 0.39038 0.10680
#
# Static dielectric constant tensor:
#      x y z
#    x 1.903410 0.000000 -0.021510 
#    y 0.000000 1.887310 0.000000 
#    z -0.021510 0.000000 1.921680 
# 
# From -- ./inp_files/43961.got.cif
#   From: 2010.05.17/outbox.cif.g08.bks.cpg/sg15_22_cif.got.tgz:43961.got - 2010.06.03 18:47:42.
