data_PCOD9303571
_publ_section_title
;
Structure prediction by ZEFSAII (Michael W. Deem and Ramdas Pophale) SiO2 
 PCOD9303571
Probable space group: C 2/C
;
_chemical_formula_sum "Si O2"
_cell_formula_units_Z 60
_cell_length_a 12.433053
_cell_length_b 19.277462
_cell_length_c 18.638607
_cell_angle_alpha 90.000000
_cell_angle_beta 142.515432
_cell_angle_gamma 90.000000
_cell_volume 2718.540051
_symmetry_space_group_name_H-M "C 2/C"
_symmetry_group_IT_number 15
_symmetry_cell_setting 'monoclinic'
loop_
_space_group_symop_operation_xyz
x,y,z
-x,y,1/2-z
-x,-y,-z
x,-y,1/2+z
1/2+x,1/2+y,z
1/2-x,1/2+y,1/2-z
1/2-x,1/2-y,-z
1/2+x,1/2-y,1/2+z
loop_
_atom_site_type_symbol
_atom_site_label
_atom_site_fract_x
_atom_site_fract_y
_atom_site_fract_z
Si Si1 0.500000 0.363991 0.250000
Si Si2 0.902043 0.442750 0.994277
Si Si3 0.826263 0.318901 0.334054
Si Si4 0.136254 0.028245 0.939300
Si Si5 0.143301 0.092898 0.232303
Si Si6 0.591304 0.703258 0.446900
Si Si7 0.801849 0.543486 0.173886
Si Si8 0.699674 0.120348 0.828356
O O1 0.656547 0.322280 0.294587
O O2 0.403038 0.411869 0.138969
O O3 0.810063 0.482843 0.011167
O O4 0.753465 0.412895 0.862973
O O5 0.000000 0.500000 0.000000
O O6 0.043254 0.384760 0.087996
O O7 0.765264 0.329322 0.219901
O O8 0.950209 0.252932 0.410247
O O9 0.166433 0.055229 0.035840
O O10 0.976946 0.974963 0.842735
O O11 0.262948 0.089329 0.223538
O O12 0.021676 0.160407 0.170084
O O13 0.750000 0.750000 0.500000
O O14 0.672157 0.644702 0.540875
O O15 0.782700 0.460985 0.181049
O O16 0.000000 0.555549 0.250000
O O17 0.500000 0.131146 0.750000
#
# Coordination Sequence:
#
# PCOD9303571 Si02
#       8
#     4   8   8   8   8   8   8   8
#     4  12  26  44  70 100 144 188 224 292 358 430
#     4  12  22  43  72 104 139 177 232 300 356 406
#     4  12  27  45  70  99 143 190 238 281 354 427
#     4  12  21  41  68 105 138 175 228 288 356 408
#     4  12  25  43  69 107 140 180 232 290 356 415
#     4  12  27  47  69 102 140 188 240 290 346 418
#     4  11  24  41  69 103 140 176 229 290 349 418
#     4  11  22  45  74 101 137 182 232 292 354 408
#
# _framework density 22.070671000000001
#
# number of rings (size 3 to 8) (size 9 to 14) (size 15 to 20)
#    0.000    0.267    5.333    5.200    3.733    0.000 
#    1.200    0.667    0.000    0.000    0.000    0.000 
#    0.000    0.000    0.000    0.000    0.000    0.000 
#
# Total GULP energy -168030.661958 kJ/mol
# GULP energy per Si atom -5601.022065 kJ/mol
# Density = 2.202044 g / cm^3
# Si number density = 22.070671 Si / 1000 Ang^3
#
#
#
# Elastic Constant Matrix: (Units=GPa)
#
#
# Indices 1 2 3 4 5 6 
#
# 1 128.9520 28.7414 9.4896 -0.0004 23.0537 0.0001
# 2 28.7414 62.1747 15.2195 -0.0001 11.7451 -0.0001
# 3 9.4896 15.2195 79.8138 -0.0001 4.7663 -0.0009
# 4 -0.0004 -0.0001 -0.0001 22.1992 -0.0001 9.8020
# 5 23.0537 11.7451 4.7663 -0.0001 36.4245 -0.0003
# 6 0.0001 -0.0001 -0.0009 9.8020 -0.0003 12.9960
#
#
#
# Elastic Compliance Matrix: (Units=1/GPa)
#
#
# Indices 1 2 3 4 5 6 
#
# 1 0.009385 -0.003382 -0.000183 0.000000 -0.004825 -0.000001
# 2 -0.003382 0.019068 -0.003018 0.000000 -0.003613 0.000000
# 3 -0.000183 -0.003018 0.013164 -0.000001 -0.000634 0.000001
# 4 0.000000 0.000000 -0.000001 0.067539 0.000000 -0.050940
# 5 -0.004825 -0.003613 -0.000634 0.000000 0.031756 0.000001
# 6 -0.000001 0.000000 0.000001 -0.050940 0.000001 0.115368
#
#
# Mechanical properties :
#
#
# Convention : Reuss Voigt Hill
#
# Bulk Modulus (GPa) = 35.14754 41.98240 38.56497
# Shear Modulus (GPa) = 17.92563 28.82325 23.37444
#
# Velocity S-wave (km/s) = 2.85299 3.61772 3.25787
# Velocity P-wave (km/s) = 5.17806 6.04265 5.62698
#
# Compressibility (1/GPa) = 0.02845150
#
# Stress axis : x y z
#
# Youngs Moduli (GPa) = 106.55607 52.44252 75.96314
#
# Poissons Ratio (x) = 0.17736 0.01388
# Poissons Ratio (y) = 0.36037 0.22928
# Poissons Ratio (z) = 0.01947 0.15828
#
# Static dielectric constant tensor:
#      x y z
#    x 1.847070 0.000000 0.019030 
#    y 0.000000 1.792970 0.000000 
#    z 0.019030 0.000000 1.766150 
# 
# From -- ./inp_files/200537.got.cif
#   From: 2010.05.17/outbox.cif.g08.bks.cpg/sg15_101_cif.got.tgz:200537.got - 2010.06.03 18:47:42.
