data_PCOD9303405
_publ_section_title
;
Structure prediction by ZEFSAII (Michael W. Deem and Ramdas Pophale) SiO2 
 PCOD9303405
Probable space group: C 2/C
;
_chemical_formula_sum "Si O2"
_cell_formula_units_Z 52
_cell_length_a 14.674815
_cell_length_b 11.190151
_cell_length_c 14.090443
_cell_angle_alpha 90.000000
_cell_angle_beta 106.843197
_cell_angle_gamma 90.000000
_cell_volume 2214.578823
_symmetry_space_group_name_H-M "C 2/C"
_symmetry_group_IT_number 15
_symmetry_cell_setting 'monoclinic'
loop_
_space_group_symop_operation_xyz
x,y,z
-x,y,1/2-z
-x,-y,-z
x,-y,1/2+z
1/2+x,1/2+y,z
1/2-x,1/2+y,1/2-z
1/2-x,1/2-y,-z
1/2+x,1/2-y,1/2+z
loop_
_atom_site_type_symbol
_atom_site_label
_atom_site_fract_x
_atom_site_fract_y
_atom_site_fract_z
Si Si1 0.055552 0.064763 0.102156
Si Si2 0.905187 0.581927 0.269136
Si Si3 0.248172 0.627171 0.440322
Si Si4 0.000000 0.753222 0.750000
Si Si5 0.237036 0.493141 0.126057
Si Si6 0.135154 0.158605 0.711746
Si Si7 0.792843 0.741417 0.620032
O O1 0.151439 0.110095 0.081017
O O2 0.017617 0.169309 0.158671
O O3 0.069717 0.953594 0.175824
O O4 0.000000 0.000000 0.000000
O O5 0.828143 0.609552 0.165157
O O6 0.858093 0.505825 0.339401
O O7 0.922345 0.718245 0.310127
O O8 0.000000 0.533814 0.250000
O O9 0.250000 0.750000 0.500000
O O10 0.223374 0.526843 0.511058
O O11 0.897352 0.696318 0.685660
O O12 0.301067 0.382567 0.180291
O O13 0.288758 0.620630 0.155656
O O14 0.213294 0.167828 0.652240
O O15 0.750000 0.750000 0.500000
#
# Coordination Sequence:
#
# PCOD9303405 Si02
#       7
#     8   8   8   4   8   8   8
#     4  12  26  42  74 109 134 182 239 298 356 421
#     4  11  26  44  68 103 136 183 230 282 352 416
#     4  12  25  44  71 100 139 180 232 282 346 415
#     4  12  24  44  70 110 144 174 240 298 354 420
#     4  11  23  46  71  94 139 184 224 289 352 407
#     4  11  22  44  68  95 143 177 225 285 354 410
#     4  11  24  44  68 102 140 188 227 288 358 422
#
# _framework density 23.480761999999999
#
# number of rings (size 3 to 8) (size 9 to 14) (size 15 to 20)
#    0.000    0.615    4.615    3.692    3.231    0.615 
#    1.385    0.000    0.000    0.000    0.000    0.000 
#    0.000    0.000    0.000    0.000    0.000    0.000 
#
# Total GULP energy -145202.239136 kJ/mol
# GULP energy per Si atom -5584.701505 kJ/mol
# Density = 2.342732 g / cm^3
# Si number density = 23.480762 Si / 1000 Ang^3
#
#
#
# Elastic Constant Matrix: (Units=GPa)
#
#
# Indices 1 2 3 4 5 6 
#
# 1 129.7473 7.1343 28.9986 0.0000 -8.6971 0.0000
# 2 7.1343 53.4709 -9.4155 0.0000 -10.9789 0.0000
# 3 28.9986 -9.4155 94.6591 0.0000 -12.5865 0.0000
# 4 0.0000 0.0000 0.0000 36.8578 0.0000 -7.3407
# 5 -8.6971 -10.9789 -12.5865 0.0000 34.7908 0.0000
# 6 0.0000 0.0000 0.0000 -7.3407 0.0000 12.7220
#
#
#
# Elastic Compliance Matrix: (Units=1/GPa)
#
#
# Indices 1 2 3 4 5 6 
#
# 1 0.008421 -0.001444 -0.002631 0.000000 0.000698 0.000000
# 2 -0.001444 0.021073 0.003545 0.000000 0.007572 0.000000
# 3 -0.002631 0.003545 0.012380 0.000000 0.004940 0.000000
# 4 0.000000 0.000000 0.000000 0.030654 0.000000 0.017688
# 5 0.000698 0.007572 0.004940 0.000000 0.033094 0.000000
# 6 0.000000 0.000000 0.000000 0.017688 0.000000 0.088810
#
#
# Mechanical properties :
#
#
# Convention : Reuss Voigt Hill
#
# Bulk Modulus (GPa) = 24.50012 36.81247 30.65629
# Shear Modulus (GPa) = 23.91251 33.61812 28.76532
#
# Velocity S-wave (km/s) = 3.19468 3.78793 3.50388
# Velocity P-wave (km/s) = 4.90558 5.90279 5.42714
#
# Compressibility (1/GPa) = 0.04081613
#
# Stress axis : x y z
#
# Youngs Moduli (GPa) = 118.74509 47.45342 80.77828
#
# Poissons Ratio (x) = 0.06850 0.21250
# Poissons Ratio (y) = 0.17141 -0.28637
# Poissons Ratio (z) = 0.31238 -0.16823
#
# Static dielectric constant tensor:
#      x y z
#    x 1.872000 0.000000 0.055550 
#    y 0.000000 2.027570 0.000000 
#    z 0.055550 0.000000 1.938920 
# 
# From -- ./inp_files/152700.got.cif
#   From: 2010.05.17/outbox.cif.g08.bks.cpg/sg15_77_cif.got.tgz:152700.got - 2010.06.03 18:47:42.
