data_PCOD9303092
_publ_section_title
;
Structure prediction by ZEFSAII (Michael W. Deem and Ramdas Pophale) SiO2 
 PCOD9303092
Probable space group: C 2/C
;
_chemical_formula_sum "Si O2"
_cell_formula_units_Z 40
_cell_length_a 10.573886
_cell_length_b 19.366845
_cell_length_c 10.405692
_cell_angle_alpha 90.000000
_cell_angle_beta 51.404460
_cell_angle_gamma 90.000000
_cell_volume 1665.450816
_symmetry_space_group_name_H-M "C 2/C"
_symmetry_group_IT_number 15
_symmetry_cell_setting 'monoclinic'
loop_
_space_group_symop_operation_xyz
x,y,z
-x,y,1/2-z
-x,-y,-z
x,-y,1/2+z
1/2+x,1/2+y,z
1/2-x,1/2+y,1/2-z
1/2-x,1/2-y,-z
1/2+x,1/2-y,1/2+z
loop_
_atom_site_type_symbol
_atom_site_label
_atom_site_fract_x
_atom_site_fract_y
_atom_site_fract_z
Si Si1 0.233020 0.885998 0.925209
Si Si2 0.480266 0.130409 0.072092
Si Si3 0.948711 0.215740 0.631512
Si Si4 0.101569 0.024087 0.062385
Si Si5 0.847487 0.626888 0.772617
O O1 0.374194 0.854548 0.921103
O O2 0.329793 0.907068 0.735237
O O3 0.090589 0.832923 0.984634
O O4 0.175934 0.949766 0.046998
O O5 0.429989 0.209637 0.078060
O O6 0.555829 0.090497 0.904940
O O7 0.000000 0.219007 0.750000
O O8 0.779167 0.177750 0.714942
O O9 0.000000 0.048708 0.250000
O O10 0.238934 0.077183 0.929632
O O11 0.000000 0.000000 0.000000
O O12 0.000000 0.659993 0.750000
#
# Coordination Sequence:
#
# PCOD9303092 Si02
#       5
#     8   8   8   8   8
#     4  11  22  41  75 110 135 184 248 316 354 413
#     4  11  24  42  74 114 137 186 251 317 355 419
#     4  12  21  46  76 106 145 191 258 304 363 432
#     4  12  27  50  74 103 147 200 253 302 370 448
#     4  12  29  44  68 109 156 194 233 299 377 452
#
# _framework density 24.017520999999999
#
# number of rings (size 3 to 8) (size 9 to 14) (size 15 to 20)
#    0.000    0.400    6.000    3.600    5.600    1.600 
#    0.000    1.000    0.000    0.000    0.000    0.000 
#    0.000    0.000    0.000    0.000    0.000    0.000 
#
# Total GULP energy -111658.229924 kJ/mol
# GULP energy per Si atom -5582.911496 kJ/mol
# Density = 2.396286 g / cm^3
# Si number density = 24.017521 Si / 1000 Ang^3
#
#
#
# Elastic Constant Matrix: (Units=GPa)
#
#
# Indices 1 2 3 4 5 6 
#
# 1 122.8700 -2.9532 27.5810 0.0000 -17.3005 0.0000
# 2 -2.9532 55.3990 21.2512 0.0000 -2.5535 0.0000
# 3 27.5810 21.2512 205.2416 0.0000 7.4704 0.0000
# 4 0.0000 0.0000 0.0000 25.4212 0.0000 -5.3230
# 5 -17.3005 -2.5535 7.4704 0.0000 31.9057 0.0000
# 6 0.0000 0.0000 0.0000 -5.3230 0.0000 10.5052
#
#
#
# Elastic Compliance Matrix: (Units=1/GPa)
#
#
# Indices 1 2 3 4 5 6 
#
# 1 0.009308 0.001362 -0.001593 0.000000 0.005529 0.000000
# 2 0.001362 0.019121 -0.002265 0.000000 0.002799 0.000000
# 3 -0.001593 -0.002265 0.005405 0.000000 -0.002311 0.000000
# 4 0.000000 0.000000 0.000000 0.044006 0.000000 0.022298
# 5 0.005529 0.002799 -0.002311 0.000000 0.035105 0.000000
# 6 0.000000 0.000000 0.000000 0.022298 0.000000 0.106489
#
#
# Mechanical properties :
#
#
# Convention : Reuss Voigt Hill
#
# Bulk Modulus (GPa) = 34.67129 52.80762 43.73945
# Shear Modulus (GPa) = 21.36384 36.07520 28.71952
#
# Velocity S-wave (km/s) = 2.98570 3.87982 3.46175
# Velocity P-wave (km/s) = 5.13352 6.48887 5.85058
#
# Compressibility (1/GPa) = 0.02884231
#
# Stress axis : x y z
#
# Youngs Moduli (GPa) = 107.44020 52.29775 185.01434
#
# Poissons Ratio (x) = -0.07123 0.29474
# Poissons Ratio (y) = -0.14634 0.41902
# Poissons Ratio (z) = 0.17116 0.11844
#
# Static dielectric constant tensor:
#      x y z
#    x 2.036270 0.000000 0.026050 
#    y 0.000000 2.031990 0.000000 
#    z 0.026050 0.000000 2.031840 
# 
# From -- ./inp_files/89318.got.cif
#   From: 2010.05.17/outbox.cif.g08.bks.cpg/sg15_45_cif.got.tgz:89318.got - 2010.06.03 18:47:42.
