data_PCOD9303840
_publ_section_title
;
Structure prediction by ZEFSAII (Michael W. Deem and Ramdas Pophale) SiO2 
 PCOD9303840
Probable space group: C 2/C
;
_chemical_formula_sum "Si O2"
_cell_formula_units_Z 40
_cell_length_a 18.218539
_cell_length_b 13.572465
_cell_length_c 11.965968
_cell_angle_alpha 90.000000
_cell_angle_beta 143.353786
_cell_angle_gamma 90.000000
_cell_volume 1766.043848
_symmetry_space_group_name_H-M "C 2/C"
_symmetry_group_IT_number 15
_symmetry_cell_setting 'monoclinic'
loop_
_space_group_symop_operation_xyz
x,y,z
-x,y,1/2-z
-x,-y,-z
x,-y,1/2+z
1/2+x,1/2+y,z
1/2-x,1/2+y,1/2-z
1/2-x,1/2-y,-z
1/2+x,1/2-y,1/2+z
loop_
_atom_site_type_symbol
_atom_site_label
_atom_site_fract_x
_atom_site_fract_y
_atom_site_fract_z
Si Si1 0.105467 0.426887 0.081414
Si Si2 0.723195 0.591677 0.914321
Si Si3 0.619995 0.803250 0.460831
Si Si4 0.604590 0.792249 0.701078
Si Si5 0.302428 0.604164 0.016028
O O1 0.189097 0.452642 0.076389
O O2 0.195312 0.411898 0.294583
O O3 0.000000 0.500000 0.000000
O O4 0.036376 0.326488 0.958405
O O5 0.636403 0.678245 0.761373
O O6 0.812165 0.643613 0.113676
O O7 0.653252 0.501627 0.888003
O O8 0.500000 0.845435 0.250000
O O9 0.630571 0.820100 0.604603
O O10 0.613218 0.685232 0.438017
O O11 0.740309 0.842483 0.546230
#
# Coordination Sequence:
#
# PCOD9303840 Si02
#       5
#     8   8   8   8   8
#     4  12  22  40  70  98 126 169 221 269 325 386
#     4  11  25  42  63  99 134 167 218 268 334 389
#     4  11  23  42  65  93 129 172 223 265 329 388
#     4  11  23  40  64  95 133 167 208 277 328 385
#     4  11  24  40  66  96 126 172 220 273 317 393
#
# _framework density 22.649494000000001
#
# number of rings (size 3 to 8) (size 9 to 14) (size 15 to 20)
#    0.000    0.800    6.000    1.800    0.000    0.000 
#    0.000    5.000    0.000    0.000    0.000    0.000 
#    0.000    0.000    0.000    0.000    0.000    0.000 
#
# Total GULP energy -111745.991516 kJ/mol
# GULP energy per Si atom -5587.299576 kJ/mol
# Density = 2.259794 g / cm^3
# Si number density = 22.649494 Si / 1000 Ang^3
#
#
#
# Elastic Constant Matrix: (Units=GPa)
#
#
# Indices 1 2 3 4 5 6 
#
# 1 57.1174 20.8913 20.1306 0.0000 -25.7518 0.0000
# 2 20.8913 113.8170 20.7709 0.0000 -11.8521 0.0000
# 3 20.1306 20.7709 92.4114 0.0000 -23.4327 0.0000
# 4 0.0000 0.0000 0.0000 -903.8014 0.0000 -150.5562
# 5 -25.7518 -11.8521 -23.4327 0.0000 35.0655 0.0000
# 6 0.0000 0.0000 0.0000 -150.5562 0.0000 13.3552
#
#
#
# Elastic Compliance Matrix: (Units=1/GPa)
#
#
# Indices 1 2 3 4 5 6 
#
# 1 0.027157 -0.002951 -0.000540 0.000000 0.018586 0.000000
# 2 -0.002951 0.009609 -0.001497 0.000000 0.000081 0.000000
# 3 -0.000540 -0.001497 0.013300 0.000000 0.007986 0.000000
# 4 0.000000 0.000000 0.000000 -0.000384 0.000000 -0.004334
# 5 0.018586 0.000081 0.007986 0.000000 0.047531 0.000000
# 6 0.000000 0.000000 0.000000 -0.004334 0.000000 0.026018
#
#
# Mechanical properties :
#
#
# Convention : Reuss Voigt Hill
#
# Bulk Modulus (GPa) = 24.94269 42.99238 33.96754
# Shear Modulus (GPa) = 34.11369 -157.63927 -61.76279
#
# Velocity S-wave (km/s) = 3.88513 -8.35168 -5.22763
# Velocity P-wave (km/s) = 5.58230 8.60104 4.62687
#
# Compressibility (1/GPa) = 0.04009191
#
# Stress axis : x y z
#
# Youngs Moduli (GPa) = 36.82317 104.06719 75.18775
#
# Poissons Ratio (x) = 0.30708 0.04058
# Poissons Ratio (y) = 0.10866 0.11252
# Poissons Ratio (z) = 0.01987 0.15574
#
# Static dielectric constant tensor:
#      x y z
#    x 1.846030 0.000000 0.010990 
#    y 0.000000 1.961230 0.000000 
#    z 0.010990 0.000000 1.803380 
# 
# From -- ./inp_files/95521.got.cif
#   From: 2010.05.17/outbox.cif.g08.bks.cpg/sg15_48_cif.got.tgz:95521.got - 2010.06.03 18:47:42.
