data_PCOD9303892
_publ_section_title
;
Structure prediction by ZEFSAII (Michael W. Deem and Ramdas Pophale) SiO2 
 PCOD9303892
Probable space group: C 2/C
;
_chemical_formula_sum "Si O2"
_cell_formula_units_Z 52
_cell_length_a 5.999099
_cell_length_b 17.320278
_cell_length_c 26.084504
_cell_angle_alpha 90.000000
_cell_angle_beta 58.482607
_cell_angle_gamma 90.000000
_cell_volume 2310.513124
_symmetry_space_group_name_H-M "C 2/C"
_symmetry_group_IT_number 15
_symmetry_cell_setting 'monoclinic'
loop_
_space_group_symop_operation_xyz
x,y,z
-x,y,1/2-z
-x,-y,-z
x,-y,1/2+z
1/2+x,1/2+y,z
1/2-x,1/2+y,1/2-z
1/2-x,1/2-y,-z
1/2+x,1/2-y,1/2+z
loop_
_atom_site_type_symbol
_atom_site_label
_atom_site_fract_x
_atom_site_fract_y
_atom_site_fract_z
Si Si1 0.132757 0.884306 0.401570
Si Si2 0.070697 0.175251 0.794475
Si Si3 0.909842 0.828847 0.525880
Si Si4 0.477642 0.778578 0.104516
Si Si5 0.208844 0.033369 0.046975
Si Si6 0.000000 0.797457 0.750000
Si Si7 0.195660 0.354943 0.878100
O O1 0.141203 0.867900 0.339491
O O2 0.411840 0.862154 0.392725
O O3 0.946627 0.830257 0.460268
O O4 0.009144 0.967109 0.427060
O O5 0.294153 0.235893 0.751795
O O6 0.000000 0.131265 0.750000
O O7 0.819526 0.223500 0.842668
O O8 0.983548 0.749375 0.545277
O O9 0.615040 0.847958 0.578197
O O10 0.101690 0.896765 0.524294
O O11 0.657929 0.717401 0.112577
O O12 0.223491 0.068994 0.101616
O O13 0.500000 0.000000 0.000000
O O14 0.819782 0.849845 0.807399
#
# Coordination Sequence:
#
# PCOD9303892 Si02
#       7
#     8   8   8   8   8   4   8
#     4  12  25  42  69 104 146 183 232 296 365 431
#     4  12  24  43  73  99 138 186 229 293 354 416
#     4  11  24  43  71 107 142 184 240 295 367 437
#     4  11  23  40  70 105 136 182 231 294 358 422
#     4  11  26  46  69 101 145 192 229 295 367 442
#     4  12  22  48  70 100 136 180 246 298 350 428
#     4  11  23  44  72 103 137 191 240 291 359 433
#
# _framework density 22.505821999999998
#
# number of rings (size 3 to 8) (size 9 to 14) (size 15 to 20)
#    0.000    0.615    6.154    0.923    2.154    2.462 
#    1.385    0.000    3.385    0.000    0.000    0.000 
#    0.000    0.000    0.000    0.000    0.000    0.000 
#
# Total GULP energy -145104.362835 kJ/mol
# GULP energy per Si atom -5580.937032 kJ/mol
# Density = 2.245460 g / cm^3
# Si number density = 22.505822 Si / 1000 Ang^3
#
#
#
# Elastic Constant Matrix: (Units=GPa)
#
#
# Indices 1 2 3 4 5 6 
#
# 1 82.6598 29.1715 6.3407 0.0000 -13.6526 0.0000
# 2 29.1715 71.3110 1.2272 0.0000 5.6339 0.0000
# 3 6.3407 1.2272 93.5494 0.0000 6.3015 0.0000
# 4 0.0000 0.0000 0.0000 27.6636 0.0000 -0.4494
# 5 -13.6526 5.6339 6.3015 0.0000 57.4253 0.0000
# 6 0.0000 0.0000 0.0000 -0.4494 0.0000 41.4527
#
#
#
# Elastic Compliance Matrix: (Units=1/GPa)
#
#
# Indices 1 2 3 4 5 6 
#
# 1 0.015235 -0.006559 -0.001243 0.000000 0.004402 0.000000
# 2 -0.006559 0.016957 0.000442 0.000000 -0.003271 0.000000
# 3 -0.001243 0.000442 0.010871 0.000000 -0.001532 0.000000
# 4 0.000000 0.000000 0.000000 0.036155 0.000000 0.000392
# 5 0.004402 -0.003271 -0.001532 0.000000 0.018950 0.000000
# 6 0.000000 0.000000 0.000000 0.000392 0.000000 0.024128
#
#
# Mechanical properties :
#
#
# Convention : Reuss Voigt Hill
#
# Bulk Modulus (GPa) = 35.28023 35.66656 35.47339
# Shear Modulus (GPa) = 34.13859 39.36036 36.74948
#
# Velocity S-wave (km/s) = 3.89894 4.18652 4.04528
# Velocity P-wave (km/s) = 5.99825 6.26509 6.13312
#
# Compressibility (1/GPa) = 0.02834449
#
# Stress axis : x y z
#
# Youngs Moduli (GPa) = 65.63946 58.97320 91.98638
#
# Poissons Ratio (x) = 0.38678 0.11435
# Poissons Ratio (y) = 0.43050 -0.04070
# Poissons Ratio (z) = 0.08159 -0.02609
#
# Static dielectric constant tensor:
#      x y z
#    x 1.908120 0.000000 0.042080 
#    y 0.000000 1.852280 0.000000 
#    z 0.042080 0.000000 1.873450 
# 
# From -- ./inp_files/285984.got.cif
#   From: 2010.05.17/outbox.cif.g08.bks.cpg/sg15_143_cif.got.tgz:285984.got - 2010.06.03 18:47:42.
