data_PCOD9303068
_publ_section_title
;
Structure prediction by ZEFSAII (Michael W. Deem and Ramdas Pophale) SiO2 
 PCOD9303068
Probable space group: C 2/C
;
_chemical_formula_sum "Si O2"
_cell_formula_units_Z 44
_cell_length_a 21.280990
_cell_length_b 12.352160
_cell_length_c 12.015364
_cell_angle_alpha 90.000000
_cell_angle_beta 39.448644
_cell_angle_gamma 90.000000
_cell_volume 2006.825162
_symmetry_space_group_name_H-M "C 2/C"
_symmetry_group_IT_number 15
_symmetry_cell_setting 'monoclinic'
loop_
_space_group_symop_operation_xyz
x,y,z
-x,y,1/2-z
-x,-y,-z
x,-y,1/2+z
1/2+x,1/2+y,z
1/2-x,1/2+y,1/2-z
1/2-x,1/2-y,-z
1/2+x,1/2-y,1/2+z
loop_
_atom_site_type_symbol
_atom_site_label
_atom_site_fract_x
_atom_site_fract_y
_atom_site_fract_z
Si Si1 0.046535 0.578421 0.579287
Si Si2 0.399411 0.482233 0.567911
Si Si3 0.254528 0.144472 0.831782
Si Si4 0.518647 0.840701 0.553914
Si Si5 0.500000 0.340080 0.250000
Si Si6 0.734066 0.115653 0.433742
O O1 0.996476 0.461868 0.628322
O O2 0.157722 0.553011 0.459895
O O3 0.000000 0.632736 0.750000
O O4 0.030864 0.656359 0.498418
O O5 0.500000 0.500000 0.500000
O O6 0.328549 0.581944 0.626384
O O7 0.424265 0.417153 0.419811
O O8 0.339098 0.411553 0.739329
O O9 0.361487 0.165128 0.626315
O O10 0.213600 0.259163 0.932560
O O11 0.276489 0.087421 0.921806
O O12 0.472313 0.746274 0.691424
#
# Coordination Sequence:
#
# PCOD9303068 Si02
#       6
#     8   8   8   8   4   8
#     4  11  22  41  71 106 138 182 237 301 366 429
#     4  12  27  48  70 105 150 195 246 310 375 445
#     4  11  24  45  68  99 140 188 247 298 360 440
#     4  11  23  42  71 103 141 179 240 306 361 435
#     4  12  26  48  70 106 148 190 238 306 376 440
#     4  11  24  43  72  99 135 194 244 294 364 446
#
# _framework density 21.925177999999999
#
# number of rings (size 3 to 8) (size 9 to 14) (size 15 to 20)
#    0.000    0.727    6.364    1.091    2.545    0.000 
#    1.636    1.818    0.000    0.000    0.000    0.000 
#    0.000    0.000    0.000    0.000    0.000    0.000 
#
# Total GULP energy -122642.264811 kJ/mol
# GULP energy per Si atom -5574.648401 kJ/mol
# Density = 2.187528 g / cm^3
# Si number density = 21.925178 Si / 1000 Ang^3
#
#
#
# Elastic Constant Matrix: (Units=GPa)
#
#
# Indices 1 2 3 4 5 6 
#
# 1 135.8514 34.4455 33.4231 0.0000 -0.6180 0.0000
# 2 34.4455 58.2996 10.5545 0.0000 -2.0040 0.0000
# 3 33.4231 10.5545 93.5114 0.0000 3.6720 0.0000
# 4 0.0000 0.0000 0.0000 -12.6257 0.0000 -16.3725
# 5 -0.6180 -2.0040 3.6720 0.0000 39.3303 0.0000
# 6 0.0000 0.0000 0.0000 -16.3725 0.0000 7.9704
#
#
#
# Elastic Compliance Matrix: (Units=1/GPa)
#
#
# Indices 1 2 3 4 5 6 
#
# 1 0.009309 -0.004994 -0.002770 0.000000 0.000150 0.000000
# 2 -0.004994 0.020235 -0.000538 0.000000 0.001003 0.000000
# 3 -0.002770 -0.000538 0.011791 0.000000 -0.001172 0.000000
# 4 0.000000 0.000000 0.000000 -0.021618 0.000000 -0.044407
# 5 0.000150 0.001003 -0.001172 0.000000 0.025589 0.000000
# 6 0.000000 0.000000 0.000000 -0.044407 0.000000 0.034245
#
#
# Mechanical properties :
#
#
# Convention : Reuss Voigt Hill
#
# Bulk Modulus (GPa) = 40.43418 49.38984 44.91201
# Shear Modulus (GPa) = 47.89385 20.88427 34.38906
#
# Velocity S-wave (km/s) = 4.67885 3.08965 3.96469
# Velocity P-wave (km/s) = 6.90440 5.94166 6.44105
#
# Compressibility (1/GPa) = 0.02473155
#
# Stress axis : x y z
#
# Youngs Moduli (GPa) = 107.42044 49.41892 84.81342
#
# Poissons Ratio (x) = 0.24678 0.23490
# Poissons Ratio (y) = 0.53642 0.04567
# Poissons Ratio (z) = 0.29751 0.02661
#
# Static dielectric constant tensor:
#      x y z
#    x 2.152640 0.000000 -0.173630 
#    y 0.000000 1.862590 0.000000 
#    z -0.173630 0.000000 1.956430 
# 
# From -- ./inp_files/112607.got.cif
#   From: 2010.05.17/outbox.cif.g08.bks.cpg/sg15_57_cif.got.tgz:112607.got - 2010.06.03 18:47:42.
