data_PCOD9303043
_publ_section_title
;
Structure prediction by ZEFSAII (Michael W. Deem and Ramdas Pophale) SiO2 
 PCOD9303043
Probable space group: C 2/C
;
_chemical_formula_sum "Si O2"
_cell_formula_units_Z 64
_cell_length_a 18.704381
_cell_length_b 13.058317
_cell_length_c 25.450268
_cell_angle_alpha 90.000000
_cell_angle_beta 30.150383
_cell_angle_gamma 90.000000
_cell_volume 3122.204046
_symmetry_space_group_name_H-M "C 2/C"
_symmetry_group_IT_number 15
_symmetry_cell_setting 'monoclinic'
loop_
_space_group_symop_operation_xyz
x,y,z
-x,y,1/2-z
-x,-y,-z
x,-y,1/2+z
1/2+x,1/2+y,z
1/2-x,1/2+y,1/2-z
1/2-x,1/2-y,-z
1/2+x,1/2-y,1/2+z
loop_
_atom_site_type_symbol
_atom_site_label
_atom_site_fract_x
_atom_site_fract_y
_atom_site_fract_z
Si Si1 0.807853 0.272267 0.630095
Si Si2 0.360017 0.070510 0.189520
Si Si3 0.008120 0.278017 0.186488
Si Si4 0.431135 0.102200 0.959266
Si Si5 0.944879 0.328387 0.844260
Si Si6 0.375325 0.432416 0.870565
Si Si7 0.906480 0.057245 0.601882
Si Si8 0.387384 0.383285 0.437218
O O1 0.842851 0.336478 0.659924
O O2 0.640416 0.283193 0.725083
O O3 0.905160 0.313158 0.520586
O O4 0.825230 0.151820 0.627201
O O5 0.454270 0.107957 0.179637
O O6 0.445967 0.978488 0.107039
O O7 0.208468 0.022074 0.301727
O O8 0.000000 0.328344 0.250000
O O9 0.034343 0.349617 0.119958
O O10 0.123976 0.187420 0.114835
O O11 0.280768 0.043424 0.051974
O O12 0.940241 0.211088 0.867789
O O13 0.000000 0.334215 0.750000
O O14 0.781206 0.366366 0.947726
O O15 0.500000 0.449756 0.750000
O O16 0.404589 0.506712 0.899729
O O17 0.014622 0.109653 0.574073
O O18 0.000000 0.000000 0.500000
#
# Coordination Sequence:
#
# PCOD9303043 Si02
#       8
#     8   8   8   8   8   8   8   8
#     4  12  26  48  69 105 143 187 238 290 359 429
#     4  12  26  50  70 103 147 187 239 293 363 427
#     4  11  24  44  70 103 142 181 230 291 349 424
#     4  12  25  45  71 103 139 188 231 291 356 430
#     4  11  24  47  72 102 138 188 239 296 355 424
#     4  11  22  41  69 102 131 177 235 284 347 412
#     4  12  28  45  73 107 142 190 234 297 364 423
#     4  11  24  46  71  99 141 178 241 295 348 429
#
# _framework density 20.498339000000001
#
# number of rings (size 3 to 8) (size 9 to 14) (size 15 to 20)
#    0.000    0.500    6.250    2.625    3.500    0.500 
#    2.250    0.000    0.000    0.000    0.000    0.000 
#    0.000    0.000    0.000    0.000    0.000    0.000 
#
# Total GULP energy -178847.423650 kJ/mol
# GULP energy per Si atom -5588.981989 kJ/mol
# Density = 2.045168 g / cm^3
# Si number density = 20.498339 Si / 1000 Ang^3
#
#
#
# Elastic Constant Matrix: (Units=GPa)
#
#
# Indices 1 2 3 4 5 6 
#
# 1 88.8939 8.6210 37.7566 0.0001 4.1362 0.0000
# 2 8.6210 60.0779 35.3226 -0.0003 14.9393 0.0001
# 3 37.7566 35.3226 120.6003 -0.0011 8.2586 -0.0002
# 4 0.0001 -0.0003 -0.0011 14.9754 0.0005 0.2801
# 5 4.1362 14.9393 8.2586 0.0005 36.5757 0.0001
# 6 0.0000 0.0001 -0.0002 0.2801 0.0001 32.9073
#
#
#
# Elastic Compliance Matrix: (Units=1/GPa)
#
#
# Indices 1 2 3 4 5 6 
#
# 1 0.013019 0.000854 -0.004267 0.000000 -0.000858 0.000000
# 2 0.000854 0.022093 -0.006210 0.000000 -0.007718 0.000000
# 3 -0.004267 -0.006210 0.011416 0.000001 0.000441 0.000000
# 4 0.000000 0.000000 0.000001 0.066787 -0.000001 -0.000568
# 5 -0.000858 -0.007718 0.000441 -0.000001 0.030490 0.000000
# 6 0.000000 0.000000 0.000000 -0.000568 0.000000 0.030393
#
#
# Mechanical properties :
#
#
# Convention : Reuss Voigt Hill
#
# Bulk Modulus (GPa) = 36.65382 48.10805 42.38093
# Shear Modulus (GPa) = 24.68673 29.41648 27.05160
#
# Velocity S-wave (km/s) = 3.47411 3.79234 3.63670
# Velocity P-wave (km/s) = 5.83204 6.53421 6.19309
#
# Compressibility (1/GPa) = 0.02728229
#
# Stress axis : x y z
#
# Youngs Moduli (GPa) = 76.81133 45.26389 87.59391
#
# Poissons Ratio (x) = -0.03866 0.37379
# Poissons Ratio (y) = -0.06560 0.54392
# Poissons Ratio (z) = 0.32777 0.28107
#
# Static dielectric constant tensor:
#      x y z
#    x 1.778850 0.000000 -0.010020 
#    y 0.000000 1.731190 0.000000 
#    z -0.010020 0.000000 1.706730 
# 
# From -- ./inp_files/277643.got.cif
#   From: 2010.05.17/outbox.cif.g08.bks.cpg/sg15_139_cif.got.tgz:277643.got - 2010.06.03 18:47:42.
