data_PCOD9303462
_publ_section_title
;
Structure prediction by ZEFSAII (Michael W. Deem and Ramdas Pophale) SiO2 
 PCOD9303462
Probable space group: C 2/C
;
_chemical_formula_sum "Si O2"
_cell_formula_units_Z 40
_cell_length_a 19.674249
_cell_length_b 15.268696
_cell_length_c 16.452282
_cell_angle_alpha 90.000000
_cell_angle_beta 21.429331
_cell_angle_gamma 90.000000
_cell_volume 1805.674099
_symmetry_space_group_name_H-M "C 2/C"
_symmetry_group_IT_number 15
_symmetry_cell_setting 'monoclinic'
loop_
_space_group_symop_operation_xyz
x,y,z
-x,y,1/2-z
-x,-y,-z
x,-y,1/2+z
1/2+x,1/2+y,z
1/2-x,1/2+y,1/2-z
1/2-x,1/2-y,-z
1/2+x,1/2-y,1/2+z
loop_
_atom_site_type_symbol
_atom_site_label
_atom_site_fract_x
_atom_site_fract_y
_atom_site_fract_z
Si Si1 0.736105 0.153426 0.353840
Si Si2 0.778989 0.347381 0.002873
Si Si3 0.276204 0.034285 0.982818
Si Si4 0.304505 0.848320 0.301872
Si Si5 0.420809 0.401601 0.105952
O O1 0.790769 0.079817 0.359365
O O2 0.528064 0.140607 0.553040
O O3 0.750211 0.248160 0.378800
O O4 0.889468 0.154081 0.112637
O O5 0.714191 0.436139 0.029693
O O6 0.000000 0.354574 0.750000
O O7 0.750000 0.250000 0.000000
O O8 0.689859 0.370144 0.190395
O O9 0.500000 0.035822 0.750000
O O10 0.230702 0.094206 0.957743
O O11 0.213910 0.877946 0.318770
O O12 0.500000 0.500000 0.000000
#
# Coordination Sequence:
#
# PCOD9303462 Si02
#       5
#     8   8   8   8   8
#     4  11  22  44  72 110 146 185 251 308 380 446
#     4  11  27  49  71 103 152 199 249 307 376 458
#     4   9  21  45  67 105 146 193 241 309 373 445
#     4  11  24  42  76 107 148 188 242 319 373 436
#     4  12  27  49  73 108 147 197 260 305 370 460
#
# _framework density 22.152393
#
# number of rings (size 3 to 8) (size 9 to 14) (size 15 to 20)
#    0.000    1.200    4.000    0.600    2.800    3.200 
#    0.000    0.000    0.000    0.000    0.000    0.000 
#    0.000    0.000    0.000    0.000    0.000    0.000 
#
# Total GULP energy -111532.282869 kJ/mol
# GULP energy per Si atom -5576.614143 kJ/mol
# Density = 2.210197 g / cm^3
# Si number density = 22.152393 Si / 1000 Ang^3
#
#
#
# Elastic Constant Matrix: (Units=GPa)
#
#
# Indices 1 2 3 4 5 6 
#
# 1 52.0025 42.2578 60.9595 -0.0220 8.2602 0.0097
# 2 42.2578 198.6408 40.5928 -0.0427 16.7607 0.0212
# 3 60.9595 40.5928 157.1056 -0.0782 13.1814 0.0392
# 4 -0.0220 -0.0427 -0.0782 -22.0153 0.0359 18.6230
# 5 8.2602 16.7607 13.1814 0.0359 43.4443 -0.0174
# 6 0.0097 0.0212 0.0392 18.6230 -0.0174 28.4734
#
#
#
# Elastic Compliance Matrix: (Units=1/GPa)
#
#
# Indices 1 2 3 4 5 6 
#
# 1 0.040690 -0.005644 -0.014226 0.000017 -0.001243 -0.000002
# 2 -0.005644 0.006219 0.000712 -0.000010 -0.001542 0.000002
# 3 -0.014226 0.000712 0.011797 -0.000027 -0.001149 0.000005
# 4 0.000017 -0.000010 -0.000027 -0.029243 0.000041 0.019127
# 5 -0.001243 -0.001542 -0.001149 0.000041 0.024198 -0.000009
# 6 -0.000002 0.000002 0.000005 0.019127 -0.000009 0.022611
#
#
# Mechanical properties :
#
#
# Convention : Reuss Voigt Hill
#
# Bulk Modulus (GPa) = 49.03956 77.26323 63.15140
# Shear Modulus (GPa) = 41.19164 27.57641 34.38402
#
# Velocity S-wave (km/s) = 4.31683 3.53207 3.94402
# Velocity P-wave (km/s) = 6.85800 7.18247 7.02211
#
# Compressibility (1/GPa) = 0.02039170
#
# Stress axis : x y z
#
# Youngs Moduli (GPa) = 24.57625 160.78509 84.76541
#
# Poissons Ratio (x) = 0.90750 1.20584
# Poissons Ratio (y) = 0.13871 -0.06039
# Poissons Ratio (z) = 0.34961 -0.11455
#
# Static dielectric constant tensor:
#      x y z
#    x 1.802780 0.000000 0.048930 
#    y 0.000000 1.860260 0.000000 
#    z 0.048930 0.000000 1.879930 
# 
# From -- ./inp_files/215657.got.cif
#   From: 2010.05.17/outbox.cif.g08.bks.cpg/sg15_108_cif.got.tgz:215657.got - 2010.06.03 18:47:42.
