data_PCOD9303426
_publ_section_title
;
Structure prediction by ZEFSAII (Michael W. Deem and Ramdas Pophale) SiO2 
 PCOD9303426
Probable space group: C 2/C
;
_chemical_formula_sum "Si O2"
_cell_formula_units_Z 40
_cell_length_a 22.212932
_cell_length_b 15.651409
_cell_length_c 16.062969
_cell_angle_alpha 90.000000
_cell_angle_beta 19.357716
_cell_angle_gamma 90.000000
_cell_volume 1851.069639
_symmetry_space_group_name_H-M "C 2/C"
_symmetry_group_IT_number 15
_symmetry_cell_setting 'monoclinic'
loop_
_space_group_symop_operation_xyz
x,y,z
-x,y,1/2-z
-x,-y,-z
x,-y,1/2+z
1/2+x,1/2+y,z
1/2-x,1/2+y,1/2-z
1/2-x,1/2-y,-z
1/2+x,1/2-y,1/2+z
loop_
_atom_site_type_symbol
_atom_site_label
_atom_site_fract_x
_atom_site_fract_y
_atom_site_fract_z
Si Si1 0.461038 0.080849 0.893892
Si Si2 0.098832 0.225159 0.763832
Si Si3 0.269266 0.852343 0.793065
Si Si4 0.813064 0.046041 0.544466
Si Si5 0.172236 0.935721 0.286690
O O1 0.500000 0.109485 0.750000
O O2 0.645189 0.074346 0.706615
O O3 0.328971 0.140821 0.119709
O O4 0.353920 0.990295 0.030776
O O5 0.250000 0.250000 0.500000
O O6 0.080168 0.305878 0.848888
O O7 0.150567 0.142371 0.751614
O O8 0.911626 0.202702 0.964034
O O9 0.227321 0.946904 0.880311
O O10 0.825710 0.089951 0.618640
O O11 0.000000 0.053235 0.250000
O O12 0.000000 0.000000 0.500000
#
# Coordination Sequence:
#
# PCOD9303426 Si02
#       5
#     8   8   8   8   8
#     4  11  25  43  72  96 137 188 242 290 355 425
#     4  12  26  43  69 102 144 187 226 293 366 415
#     4  11  26  44  64 104 145 176 238 297 351 433
#     4  11  23  43  72 102 136 183 246 294 352 425
#     4  11  22  44  70 100 143 187 235 292 347 432
#
# _framework density 21.609127999999998
#
# number of rings (size 3 to 8) (size 9 to 14) (size 15 to 20)
#    0.000    0.800    4.000    5.400    8.400    0.000 
#    0.000    2.000    0.000    0.000    0.000    0.000 
#    0.000    0.000    0.000    0.000    0.000    0.000 
#
# Total GULP energy -111939.613166 kJ/mol
# GULP energy per Si atom -5596.980658 kJ/mol
# Density = 2.155994 g / cm^3
# Si number density = 21.609128 Si / 1000 Ang^3
#
#
#
# Elastic Constant Matrix: (Units=GPa)
#
#
# Indices 1 2 3 4 5 6 
#
# 1 145.2013 25.7043 58.3566 -0.0011 9.9323 0.0007
# 2 25.7043 49.2112 28.0121 -0.0007 9.2795 0.0022
# 3 58.3566 28.0121 129.7844 -0.0018 11.7598 0.0008
# 4 -0.0011 -0.0007 -0.0018 30.1890 0.0016 -4.7945
# 5 9.9323 9.2795 11.7598 0.0016 49.6741 -0.0001
# 6 0.0007 0.0022 0.0008 -4.7945 -0.0001 26.5552
#
#
#
# Elastic Compliance Matrix: (Units=1/GPa)
#
#
# Indices 1 2 3 4 5 6 
#
# 1 0.008708 -0.002570 -0.003318 0.000000 -0.000476 0.000000
# 2 -0.002570 0.024438 -0.003834 0.000000 -0.003144 -0.000002
# 3 -0.003318 -0.003834 0.010116 0.000000 -0.001015 0.000000
# 4 0.000000 0.000000 0.000000 0.034102 -0.000001 0.006157
# 5 -0.000476 -0.003144 -0.001015 -0.000001 0.021054 0.000000
# 6 0.000000 -0.000002 0.000000 0.006157 0.000000 0.038769
#
#
# Mechanical properties :
#
#
# Convention : Reuss Voigt Hill
#
# Bulk Modulus (GPa) = 41.98389 60.92699 51.45544
# Shear Modulus (GPa) = 30.38195 35.42526 32.90361
#
# Velocity S-wave (km/s) = 3.75370 4.05330 3.90638
# Velocity P-wave (km/s) = 6.18531 7.08251 6.64906
#
# Compressibility (1/GPa) = 0.02381866
#
# Stress axis : x y z
#
# Youngs Moduli (GPa) = 114.83883 40.91935 98.84991
#
# Poissons Ratio (x) = 0.10517 0.32794
# Poissons Ratio (y) = 0.29516 0.37900
# Poissons Ratio (z) = 0.38099 0.15689
#
# Static dielectric constant tensor:
#      x y z
#    x 1.819920 0.000000 -0.030310 
#    y 0.000000 1.784410 0.000000 
#    z -0.030310 0.000000 1.793370 
# 
# From -- ./inp_files/169055.got.cif
#   From: 2010.05.17/outbox.cif.g08.bks.cpg/sg15_85_cif.got.tgz:169055.got - 2010.06.03 18:47:42.
