data_PCOD9303267
_publ_section_title
;
Structure prediction by ZEFSAII (Michael W. Deem and Ramdas Pophale) SiO2 
 PCOD9303267
Probable space group: C 2/C
;
_chemical_formula_sum "Si O2"
_cell_formula_units_Z 52
_cell_length_a 18.718689
_cell_length_b 13.628607
_cell_length_c 19.782692
_cell_angle_alpha 90.000000
_cell_angle_beta 30.875460
_cell_angle_gamma 90.000000
_cell_volume 2589.862283
_symmetry_space_group_name_H-M "C 2/C"
_symmetry_group_IT_number 15
_symmetry_cell_setting 'monoclinic'
loop_
_space_group_symop_operation_xyz
x,y,z
-x,y,1/2-z
-x,-y,-z
x,-y,1/2+z
1/2+x,1/2+y,z
1/2-x,1/2+y,1/2-z
1/2-x,1/2-y,-z
1/2+x,1/2-y,1/2+z
loop_
_atom_site_type_symbol
_atom_site_label
_atom_site_fract_x
_atom_site_fract_y
_atom_site_fract_z
Si Si1 0.239060 0.840820 0.706296
Si Si2 0.049496 0.733657 0.965084
Si Si3 0.756466 0.562955 0.665977
Si Si4 0.660681 0.326919 0.613826
Si Si5 0.263763 0.543928 0.976297
Si Si6 0.520397 0.687255 0.629623
Si Si7 0.500000 0.860144 0.750000
O O1 0.112432 0.798080 0.853416
O O2 0.384201 0.785038 0.603080
O O3 0.213429 0.829913 0.647562
O O4 0.249905 0.957902 0.707036
O O5 0.123671 0.628713 0.899539
O O6 0.094587 0.781113 0.999969
O O7 0.781772 0.552368 0.564903
O O8 0.610788 0.621431 0.785295
O O9 0.500000 0.299526 0.750000
O O10 0.750000 0.250000 0.500000
O O11 0.676219 0.434314 0.567033
O O12 0.380352 0.622995 0.902672
O O13 0.132243 0.571758 0.128597
O O14 0.480707 0.785943 0.702354
#
# Coordination Sequence:
#
# PCOD9303267 Si02
#       7
#     8   8   8   8   8   8   4
#     4  11  26  44  67  95 134 177 223 271 344 402
#     4  12  24  44  64  99 136 181 215 275 337 414
#     4  11  22  43  66  91 136 179 224 274 335 396
#     4  11  25  49  75  96 131 178 235 292 333 389
#     4  11  23  39  67 101 136 175 229 286 344 391
#     4  12  22  39  69 100 137 174 224 281 347 399
#     4  12  22  36  66 106 134 176 224 280 340 414
#
# _framework density 20.078289000000002
#
# number of rings (size 3 to 8) (size 9 to 14) (size 15 to 20)
#    0.000    0.615    4.615    4.615    1.077    0.615 
#    2.769    0.000    0.000    0.000    0.000    0.000 
#    0.000    0.000    0.000    0.000    0.000    0.000 
#
# Total GULP energy -145338.148771 kJ/mol
# GULP energy per Si atom -5589.928799 kJ/mol
# Density = 2.003259 g / cm^3
# Si number density = 20.078289 Si / 1000 Ang^3
#
#
#
# Elastic Constant Matrix: (Units=GPa)
#
#
# Indices 1 2 3 4 5 6 
#
# 1 40.1263 16.3212 8.9289 -0.0001 5.7717 0.0000
# 2 16.3212 84.1565 51.6395 -0.0001 17.8193 0.0001
# 3 8.9289 51.6395 121.7924 -0.0002 -0.0719 0.0002
# 4 -0.0001 -0.0001 -0.0002 22.4923 0.0001 -0.9092
# 5 5.7717 17.8193 -0.0719 0.0001 36.7632 0.0000
# 6 0.0000 0.0001 0.0002 -0.9092 0.0000 26.4159
#
#
#
# Elastic Compliance Matrix: (Units=1/GPa)
#
#
# Indices 1 2 3 4 5 6 
#
# 1 0.027176 -0.004934 0.000099 0.000000 -0.001875 0.000000
# 2 -0.004934 0.019554 -0.007934 0.000000 -0.008719 0.000000
# 3 0.000099 -0.007934 0.011570 0.000000 0.003853 0.000000
# 4 0.000000 0.000000 0.000000 0.044522 0.000000 0.001532
# 5 -0.001875 -0.008719 0.003853 0.000000 0.031729 0.000000
# 6 0.000000 0.000000 0.000000 0.001532 0.000000 0.037909
#
#
# Mechanical properties :
#
#
# Convention : Reuss Voigt Hill
#
# Bulk Modulus (GPa) = 30.52453 44.42827 37.47640
# Shear Modulus (GPa) = 23.93268 28.41332 26.17300
#
# Velocity S-wave (km/s) = 3.45623 3.76590 3.61438
# Velocity P-wave (km/s) = 5.58240 6.40975 6.01033
#
# Compressibility (1/GPa) = 0.03276053
#
# Stress axis : x y z
#
# Youngs Moduli (GPa) = 36.79727 51.13967 86.43123
#
# Poissons Ratio (x) = 0.25232 -0.00852
# Poissons Ratio (y) = 0.18156 0.68578
# Poissons Ratio (z) = -0.00363 0.40576
#
# Static dielectric constant tensor:
#      x y z
#    x 1.732420 0.000000 -0.023080 
#    y 0.000000 1.716830 0.000000 
#    z -0.023080 0.000000 1.712430 
# 
# From -- ./inp_files/70206.got.cif
#   From: 2010.05.17/outbox.cif.g08.bks.cpg/sg15_36_cif.got.tgz:70206.got - 2010.06.03 18:47:42.
