data_PCOD9303224
_publ_section_title
;
Structure prediction by ZEFSAII (Michael W. Deem and Ramdas Pophale) SiO2 
 PCOD9303224
Probable space group: C 2/C
;
_chemical_formula_sum "Si O2"
_cell_formula_units_Z 44
_cell_length_a 15.324823
_cell_length_b 24.693879
_cell_length_c 5.184045
_cell_angle_alpha 90.000000
_cell_angle_beta 66.143902
_cell_angle_gamma 90.000000
_cell_volume 1794.186998
_symmetry_space_group_name_H-M "C 2/C"
_symmetry_group_IT_number 15
_symmetry_cell_setting 'monoclinic'
loop_
_space_group_symop_operation_xyz
x,y,z
-x,y,1/2-z
-x,-y,-z
x,-y,1/2+z
1/2+x,1/2+y,z
1/2-x,1/2+y,1/2-z
1/2-x,1/2-y,-z
1/2+x,1/2-y,1/2+z
loop_
_atom_site_type_symbol
_atom_site_label
_atom_site_fract_x
_atom_site_fract_y
_atom_site_fract_z
Si Si1 0.000000 0.037710 0.250000
Si Si2 0.500000 0.738954 0.250000
Si Si3 0.204921 0.918931 0.420647
Si Si4 0.298402 0.304439 0.842827
Si Si5 0.824290 0.372436 0.872456
Si Si6 0.132978 0.468118 0.994681
Si Si7 0.500000 0.190701 0.250000
O O1 0.906142 0.072650 0.412039
O O2 0.000000 0.000000 0.500000
O O3 0.588602 0.705620 0.263880
O O4 0.469309 0.774838 0.534532
O O5 0.224319 0.856409 0.459129
O O6 0.254779 0.959543 0.561267
O O7 0.261255 0.919487 0.083512
O O8 0.249280 0.326304 0.639170
O O9 0.250000 0.250000 0.000000
O O10 0.883850 0.406583 0.583072
O O11 0.907638 0.344372 0.934237
O O12 0.099701 0.508164 0.807926
#
# Coordination Sequence:
#
# PCOD9303224 Si02
#       7
#     4   4   8   8   8   8   4
#     4  12  29  46  75 114 152 199 256 317 398 480
#     4  12  27  46  74 103 156 197 262 309 390 460
#     4  11  25  45  72 109 150 197 253 321 380 478
#     4  11  24  46  72 112 153 209 256 327 386 465
#     4  11  26  46  81 106 160 194 268 316 400 457
#     4  11  22  42  72 103 139 191 239 300 382 446
#     4  12  28  48  73 113 142 204 256 326 378 472
#
# _framework density 24.523641999999999
#
# number of rings (size 3 to 8) (size 9 to 14) (size 15 to 20)
#    0.000    0.727    3.636    2.727   10.182    1.455 
#    0.000    0.909    0.000    0.000    0.000    0.000 
#    0.000    0.000    0.000    0.000    0.000    0.000 
#
# Total GULP energy -122701.037636 kJ/mol
# GULP energy per Si atom -5577.319893 kJ/mol
# Density = 2.446783 g / cm^3
# Si number density = 24.523642 Si / 1000 Ang^3
#
#
#
# Elastic Constant Matrix: (Units=GPa)
#
#
# Indices 1 2 3 4 5 6 
#
# 1 129.9640 30.7375 49.4749 0.0000 -12.5320 0.0000
# 2 30.7375 121.2155 37.7805 0.0000 2.8016 0.0000
# 3 49.4749 37.7805 131.2868 0.0000 9.5333 0.0000
# 4 0.0000 0.0000 0.0000 36.7722 0.0000 -8.8289
# 5 -12.5320 2.8016 9.5333 0.0000 43.0245 0.0000
# 6 0.0000 0.0000 0.0000 -8.8289 0.0000 15.1661
#
#
#
# Elastic Compliance Matrix: (Units=1/GPa)
#
#
# Indices 1 2 3 4 5 6 
#
# 1 0.009737 -0.001458 -0.003519 0.000000 0.003711 0.000000
# 2 -0.001458 0.009281 -0.002080 0.000000 -0.000568 0.000000
# 3 -0.003519 -0.002080 0.009763 0.000000 -0.003053 0.000000
# 4 0.000000 0.000000 0.000000 0.031613 0.000000 0.018403
# 5 0.003711 -0.000568 -0.003053 0.000000 0.025037 0.000000
# 6 0.000000 0.000000 0.000000 0.018403 0.000000 0.076650
#
#
# Mechanical properties :
#
#
# Convention : Reuss Voigt Hill
#
# Bulk Modulus (GPa) = 68.18193 68.71692 68.44943
# Shear Modulus (GPa) = 27.61141 36.62411 32.11776
#
# Velocity S-wave (km/s) = 3.35910 3.86867 3.62286
# Velocity P-wave (km/s) = 6.55039 6.93087 6.74332
#
# Compressibility (1/GPa) = 0.01466664
#
# Stress axis : x y z
#
# Youngs Moduli (GPa) = 102.70368 107.74788 102.42358
#
# Poissons Ratio (x) = 0.15709 0.36045
# Poissons Ratio (y) = 0.14973 0.21305
# Poissons Ratio (z) = 0.36143 0.22413
#
# Static dielectric constant tensor:
#      x y z
#    x 2.064820 0.000000 -0.132740 
#    y 0.000000 1.972360 0.000000 
#    z -0.132740 0.000000 2.445950 
# 
# From -- ./inp_files/8000.got.cif
#   From: 2010.05.17/outbox.cif.g08.bks.cpg/sg15_4_cif.got.tgz:8000.got - 2010.06.03 18:47:42.
