data_PCOD9303558
_publ_section_title
;
Structure prediction by ZEFSAII (Michael W. Deem and Ramdas Pophale) SiO2 
 PCOD9303558
Probable space group: C 2/C
;
_chemical_formula_sum "Si O2"
_cell_formula_units_Z 64
_cell_length_a 32.222475
_cell_length_b 8.963530
_cell_length_c 18.837985
_cell_angle_alpha 90.000000
_cell_angle_beta 145.072263
_cell_angle_gamma 90.000000
_cell_volume 3115.160369
_symmetry_space_group_name_H-M "C 2/C"
_symmetry_group_IT_number 15
_symmetry_cell_setting 'monoclinic'
loop_
_space_group_symop_operation_xyz
x,y,z
-x,y,1/2-z
-x,-y,-z
x,-y,1/2+z
1/2+x,1/2+y,z
1/2-x,1/2+y,1/2-z
1/2-x,1/2-y,-z
1/2+x,1/2-y,1/2+z
loop_
_atom_site_type_symbol
_atom_site_label
_atom_site_fract_x
_atom_site_fract_y
_atom_site_fract_z
Si Si1 0.167885 0.326314 0.602994
Si Si2 0.210710 0.943815 0.260814
Si Si3 0.322384 0.115366 0.646736
Si Si4 0.921390 0.427191 0.892665
Si Si5 0.427063 0.389016 0.191563
Si Si6 0.565724 0.420788 0.132501
Si Si7 0.157855 0.815212 0.946361
Si Si8 0.699538 0.159949 0.483666
O O1 0.184553 0.167112 0.662641
O O2 0.241808 0.420058 0.700565
O O3 0.113272 0.414713 0.577696
O O4 0.137458 0.293779 0.482124
O O5 0.140795 0.990417 0.208761
O O6 0.261745 0.851707 0.386504
O O7 0.245187 0.165316 0.569873
O O8 0.359748 0.250661 0.656616
O O9 0.369236 0.026168 0.769589
O O10 0.306081 0.001282 0.559583
O O11 0.927386 0.256070 0.874867
O O12 0.000000 0.500000 0.000000
O O13 0.500000 0.370098 0.250000
O O14 0.443059 0.428774 0.295673
O O15 0.379939 0.526557 0.095984
O O16 0.376793 0.242886 0.118847
O O17 0.500000 0.500000 0.000000
O O18 0.750000 0.250000 0.500000
#
# Coordination Sequence:
#
# PCOD9303558 Si02
#       8
#     8   8   8   8   8   8   8   8
#     4  11  25  42  64 110 128 175 229 282 340 404
#     4  11  24  43  72  95 139 173 227 290 338 408
#     4  11  22  45  72 101 129 186 236 283 350 417
#     4  11  26  46  69  92 142 186 226 278 352 412
#     4  12  28  43  70 105 139 185 227 292 358 412
#     4  11  26  45  66  98 139 182 221 276 351 417
#     4  11  25  41  73 103 140 171 238 295 344 417
#     4  12  20  45  71  96 131 180 236 281 338 412
#
# _framework density 20.544689999999999
#
# number of rings (size 3 to 8) (size 9 to 14) (size 15 to 20)
#    0.000    0.750    5.000    1.500    8.750    2.000 
#    0.000    0.625    0.000    0.000    0.000    0.000 
#    0.000    0.000    0.000    0.000    0.000    0.000 
#
# Total GULP energy -178990.261756 kJ/mol
# GULP energy per Si atom -5593.445680 kJ/mol
# Density = 2.049793 g / cm^3
# Si number density = 20.544690 Si / 1000 Ang^3
#
#
#
# Elastic Constant Matrix: (Units=GPa)
#
#
# Indices 1 2 3 4 5 6 
#
# 1 164.1222 33.0320 50.5614 0.0000 8.1910 0.0000
# 2 33.0320 52.6131 8.6021 0.0000 5.9741 0.0000
# 3 50.5614 8.6021 85.3760 0.0000 -5.2349 0.0000
# 4 0.0000 0.0000 0.0000 40.7609 0.0000 -4.7703
# 5 8.1910 5.9741 -5.2349 0.0000 32.5971 0.0000
# 6 0.0000 0.0000 0.0000 -4.7703 0.0000 23.1214
#
#
#
# Elastic Compliance Matrix: (Units=1/GPa)
#
#
# Indices 1 2 3 4 5 6 
#
# 1 0.008535 -0.004343 -0.004746 0.000000 -0.002111 0.000000
# 2 -0.004343 0.022036 0.000172 0.000000 -0.002920 0.000000
# 3 -0.004746 0.000172 0.014723 0.000000 0.003525 0.000000
# 4 0.000000 0.000000 0.000000 0.025140 0.000000 0.005187
# 5 -0.002111 -0.002920 0.003525 0.000000 0.032309 0.000000
# 6 0.000000 0.000000 0.000000 0.005187 0.000000 0.044320
#
#
# Mechanical properties :
#
#
# Convention : Reuss Voigt Hill
#
# Bulk Modulus (GPa) = 36.41560 54.05581 45.23570
# Shear Modulus (GPa) = 28.72748 33.29027 31.00888
#
# Velocity S-wave (km/s) = 3.74343 4.02977 3.88923
# Velocity P-wave (km/s) = 6.03721 6.92968 6.49878
#
# Compressibility (1/GPa) = 0.02746076
#
# Stress axis : x y z
#
# Youngs Moduli (GPa) = 117.17072 45.37950 67.92325
#
# Poissons Ratio (x) = 0.19706 0.32238
# Poissons Ratio (y) = 0.50882 -0.01171
# Poissons Ratio (z) = 0.55612 -0.00783
#
# Static dielectric constant tensor:
#      x y z
#    x 0.752720 0.000000 1.055920 
#    y 0.000000 1.798560 0.000000 
#    z 1.055920 0.000000 0.522620 
# 
# From -- ./inp_files/224647.got.cif
#   From: 2010.05.17/outbox.cif.g08.bks.cpg/sg15_113_cif.got.tgz:224647.got - 2010.06.03 18:47:42.
