data_PCOD9303546
_publ_section_title
;
Structure prediction by ZEFSAII (Michael W. Deem and Ramdas Pophale) SiO2 
 PCOD9303546
Probable space group: C 2/C
;
_chemical_formula_sum "Si O2"
_cell_formula_units_Z 64
_cell_length_a 9.608927
_cell_length_b 30.996904
_cell_length_c 13.970965
_cell_angle_alpha 90.000000
_cell_angle_beta 45.769283
_cell_angle_gamma 90.000000
_cell_volume 2981.659757
_symmetry_space_group_name_H-M "C 2/C"
_symmetry_group_IT_number 15
_symmetry_cell_setting 'monoclinic'
loop_
_space_group_symop_operation_xyz
x,y,z
-x,y,1/2-z
-x,-y,-z
x,-y,1/2+z
1/2+x,1/2+y,z
1/2-x,1/2+y,1/2-z
1/2-x,1/2-y,-z
1/2+x,1/2-y,1/2+z
loop_
_atom_site_type_symbol
_atom_site_label
_atom_site_fract_x
_atom_site_fract_y
_atom_site_fract_z
Si Si1 0.723435 0.251869 0.627235
Si Si2 0.646202 0.038973 0.753406
Si Si3 0.691511 0.650273 0.105443
Si Si4 0.135060 0.120896 0.593793
Si Si5 0.392053 0.602164 0.527789
Si Si6 0.022208 0.577020 0.474513
Si Si7 0.108531 0.032717 0.295345
Si Si8 0.439300 0.277409 0.386143
O O1 0.500000 0.236712 0.750000
O O2 0.750000 0.250000 0.500000
O O3 0.729167 0.303950 0.636909
O O4 0.885365 0.230841 0.620306
O O5 0.500000 0.016458 0.750000
O O6 0.292733 0.083258 0.828157
O O7 0.837382 0.010341 0.674143
O O8 0.549345 0.047833 0.902428
O O9 0.500000 0.632667 0.250000
O O10 0.868571 0.618393 0.034812
O O11 0.646187 0.645824 0.014134
O O12 0.336913 0.096500 0.510485
O O13 0.129067 0.172882 0.590599
O O14 0.000000 0.109067 0.750000
O O15 0.047836 0.107696 0.534920
O O16 0.471699 0.565891 0.417123
O O17 0.182823 0.553637 0.332400
O O18 0.000000 0.020957 0.250000
O O19 0.500000 0.264083 0.250000
O O20 0.250000 0.250000 0.500000
#
# Coordination Sequence:
#
# PCOD9303546 Si02
#       8
#     8   8   8   8   8   8   8   8
#     4  11  24  43  72 106 137 183 236 284 346 418
#     4  12  26  42  69 102 133 181 230 278 346 408
#     4  11  22  45  70  97 139 176 221 286 338 398
#     4  11  26  43  68 100 140 181 218 284 340 401
#     4  12  23  45  67  97 139 175 232 277 338 402
#     4  12  23  45  67  97 136 180 229 273 340 408
#     4  12  26  46  70  97 139 180 224 291 344 401
#     4  11  24  47  69 104 145 182 230 284 356 418
#
# _framework density 21.464555000000001
#
# number of rings (size 3 to 8) (size 9 to 14) (size 15 to 20)
#    0.000    0.500    5.000    3.000    3.500    2.000 
#    4.500    0.000    0.000    0.000    0.000    0.000 
#    0.000    0.000    0.000    0.000    0.000    0.000 
#
# Total GULP energy -178765.472224 kJ/mol
# GULP energy per Si atom -5586.421007 kJ/mol
# Density = 2.141570 g / cm^3
# Si number density = 21.464555 Si / 1000 Ang^3
#
#
#
# Elastic Constant Matrix: (Units=GPa)
#
#
# Indices 1 2 3 4 5 6 
#
# 1 144.0526 13.4340 12.5911 0.0000 -2.5944 0.0000
# 2 13.4340 31.3980 -8.0095 0.0000 -5.2763 0.0000
# 3 12.5911 -8.0095 69.3621 0.0000 -4.2578 0.0000
# 4 0.0000 0.0000 0.0000 -7.4417 0.0000 49.8244
# 5 -2.5944 -5.2763 -4.2578 0.0000 38.2066 0.0000
# 6 0.0000 0.0000 0.0000 49.8244 0.0000 -46.8861
#
#
#
# Elastic Compliance Matrix: (Units=1/GPa)
#
#
# Indices 1 2 3 4 5 6 
#
# 1 0.007437 -0.003671 -0.001786 0.000000 -0.000201 0.000000
# 2 -0.003671 0.035600 0.005099 0.000000 0.005235 0.000000
# 3 -0.001786 0.005099 0.015472 0.000000 0.002307 0.000000
# 4 0.000000 0.000000 0.000000 0.021976 0.000000 0.023353
# 5 -0.000201 0.005235 0.002307 0.000000 0.027140 0.000000
# 6 0.000000 0.000000 0.000000 0.023353 0.000000 0.003488
#
#
# Mechanical properties :
#
#
# Convention : Reuss Voigt Hill
#
# Bulk Modulus (GPa) = 17.30367 31.20486 24.25426
# Shear Modulus (GPa) = 38.14059 11.89557 25.01808
#
# Velocity S-wave (km/s) = 4.21991 2.35669 3.41772
# Velocity P-wave (km/s) = 5.64115 4.68772 5.18639
#
# Compressibility (1/GPa) = 0.05779122
#
# Stress axis : x y z
#
# Youngs Moduli (GPa) = 134.46642 28.08951 64.63397
#
# Poissons Ratio (x) = 0.10313 0.11545
# Poissons Ratio (y) = 0.49368 -0.32955
# Poissons Ratio (z) = 0.24019 -0.14322
#
# Static dielectric constant tensor:
#      x y z
#    x 2.189190 0.000000 0.280090 
#    y 0.000000 1.856380 0.000000 
#    z 0.280090 0.000000 2.065350 
# 
# From -- ./inp_files/139799.got.cif
#   From: 2010.05.17/outbox.cif.g08.bks.cpg/sg15_70_cif.got.tgz:139799.got - 2010.06.03 18:47:42.
