data_PCOD9303632
_publ_section_title
;
Structure prediction by ZEFSAII (Michael W. Deem and Ramdas Pophale) SiO2 
 PCOD9303632
Probable space group: C 2/C
;
_chemical_formula_sum "Si O2"
_cell_formula_units_Z 64
_cell_length_a 14.099742
_cell_length_b 18.139208
_cell_length_c 17.974132
_cell_angle_alpha 90.000000
_cell_angle_beta 138.958810
_cell_angle_gamma 90.000000
_cell_volume 3018.416956
_symmetry_space_group_name_H-M "C 2/C"
_symmetry_group_IT_number 15
_symmetry_cell_setting 'monoclinic'
loop_
_space_group_symop_operation_xyz
x,y,z
-x,y,1/2-z
-x,-y,-z
x,-y,1/2+z
1/2+x,1/2+y,z
1/2-x,1/2+y,1/2-z
1/2-x,1/2-y,-z
1/2+x,1/2-y,1/2+z
loop_
_atom_site_type_symbol
_atom_site_label
_atom_site_fract_x
_atom_site_fract_y
_atom_site_fract_z
Si Si1 0.049346 0.439570 0.469237
Si Si2 0.288759 0.830381 0.265317
Si Si3 0.644187 0.949299 0.372768
Si Si4 0.646353 0.409633 0.790935
Si Si5 0.383833 0.315195 0.875789
Si Si6 0.873527 0.046787 0.464954
Si Si7 0.214575 0.799032 0.052355
Si Si8 0.552132 0.572859 0.703296
O O1 0.096835 0.482340 0.422798
O O2 0.194192 0.396800 0.581414
O O3 0.000000 0.500000 0.500000
O O4 0.924917 0.381894 0.369675
O O5 0.287477 0.756856 0.313917
O O6 0.290931 0.800648 0.180324
O O7 0.148559 0.878194 0.204719
O O8 0.500000 0.919265 0.250000
O O9 0.755286 0.883398 0.453131
O O10 0.723433 0.005299 0.365333
O O11 0.500000 0.389158 0.750000
O O12 0.638200 0.366349 0.709233
O O13 0.636514 0.497702 0.772728
O O14 0.364704 0.370447 0.932101
O O15 0.547801 0.287335 0.970685
O O16 0.913200 0.046568 0.574909
O O17 0.000000 0.000000 0.500000
O O18 0.250000 0.750000 0.000000
O O19 0.500000 0.607760 0.750000
#
# Coordination Sequence:
#
# PCOD9303632 Si02
#       8
#     8   8   8   8   8   8   8   8
#     4  12  26  44  70 104 144 189 240 302 368 435
#     4  12  27  47  70 110 152 191 242 315 379 442
#     4  12  25  44  70 107 142 186 247 306 367 432
#     4  11  24  42  71 108 137 185 253 295 357 452
#     4  12  27  41  72 102 143 192 241 298 377 442
#     4  12  23  46  73 104 141 193 248 299 367 450
#     4  12  26  47  70 102 149 193 234 299 389 453
#     4  11  22  46  77 101 138 199 255 305 367 443
#
# _framework density 21.203166
#
# number of rings (size 3 to 8) (size 9 to 14) (size 15 to 20)
#    0.000    0.250    6.250    3.000    7.000    0.000 
#    0.000    1.250    0.000    0.000    0.000    0.000 
#    0.000    0.000    0.000    0.000    0.000    0.000 
#
# Total GULP energy -178686.767641 kJ/mol
# GULP energy per Si atom -5583.961489 kJ/mol
# Density = 2.115491 g / cm^3
# Si number density = 21.203166 Si / 1000 Ang^3
#
#
#
# Elastic Constant Matrix: (Units=GPa)
#
#
# Indices 1 2 3 4 5 6 
#
# 1 67.6325 26.2837 15.1266 0.0000 -9.9875 0.0000
# 2 26.2837 84.4177 9.1430 0.0000 -3.0606 0.0000
# 3 15.1266 9.1430 96.9066 0.0000 -2.7428 0.0000
# 4 0.0000 0.0000 0.0000 29.6306 0.0000 -8.6624
# 5 -9.9875 -3.0606 -2.7428 0.0000 37.6634 0.0000
# 6 0.0000 0.0000 0.0000 -8.6624 0.0000 38.6035
#
#
#
# Elastic Compliance Matrix: (Units=1/GPa)
#
#
# Indices 1 2 3 4 5 6 
#
# 1 0.017906 -0.005187 -0.002188 0.000000 0.004168 0.000000
# 2 -0.005187 0.013501 -0.000473 0.000000 -0.000313 0.000000
# 3 -0.002188 -0.000473 0.010710 0.000000 0.000161 0.000000
# 4 0.000000 0.000000 0.000000 0.036118 0.000000 0.008105
# 5 0.004168 -0.000313 0.000161 0.000000 0.027642 0.000000
# 6 0.000000 0.000000 0.000000 0.008105 0.000000 0.027723
#
#
# Mechanical properties :
#
#
# Convention : Reuss Voigt Hill
#
# Bulk Modulus (GPa) = 37.84813 38.89592 38.37202
# Shear Modulus (GPa) = 31.62481 34.40639 33.01560
#
# Velocity S-wave (km/s) = 3.86620 4.03265 3.95030
# Velocity P-wave (km/s) = 6.14972 6.32987 6.24044
#
# Compressibility (1/GPa) = 0.02642139
#
# Stress axis : x y z
#
# Youngs Moduli (GPa) = 55.84602 74.06982 93.37155
#
# Poissons Ratio (x) = 0.38421 0.20427
# Poissons Ratio (y) = 0.28968 0.04416
# Poissons Ratio (z) = 0.12218 0.03503
#
# Static dielectric constant tensor:
#      x y z
#    x 1.786920 0.000000 -0.042970 
#    y 0.000000 1.740310 0.000000 
#    z -0.042970 0.000000 1.829290 
# 
# From -- ./inp_files/206465.got.cif
#   From: 2010.05.17/outbox.cif.g08.bks.cpg/sg15_104_cif.got.tgz:206465.got - 2010.06.03 18:47:42.
