data_PCOD9303337
_publ_section_title
;
Structure prediction by ZEFSAII (Michael W. Deem and Ramdas Pophale) SiO2 
 PCOD9303337
Probable space group: C 2/C
;
_chemical_formula_sum "Si O2"
_cell_formula_units_Z 48
_cell_length_a 26.418043
_cell_length_b 15.423023
_cell_length_c 8.814753
_cell_angle_alpha 90.000000
_cell_angle_beta 146.612331
_cell_angle_gamma 90.000000
_cell_volume 1976.426376
_symmetry_space_group_name_H-M "C 2/C"
_symmetry_group_IT_number 15
_symmetry_cell_setting 'monoclinic'
loop_
_space_group_symop_operation_xyz
x,y,z
-x,y,1/2-z
-x,-y,-z
x,-y,1/2+z
1/2+x,1/2+y,z
1/2-x,1/2+y,1/2-z
1/2-x,1/2-y,-z
1/2+x,1/2-y,1/2+z
loop_
_atom_site_type_symbol
_atom_site_label
_atom_site_fract_x
_atom_site_fract_y
_atom_site_fract_z
Si Si1 0.901919 0.213820 0.740112
Si Si2 0.325795 0.014762 0.672573
Si Si3 0.576963 0.910339 0.811502
Si Si4 0.430700 0.582372 0.380211
Si Si5 0.231469 0.171563 0.340922
Si Si6 0.364950 0.581057 0.872593
O O1 0.924526 0.311490 0.750923
O O2 0.805445 0.197836 0.413716
O O3 0.884382 0.178900 0.865552
O O4 0.984138 0.148960 0.893885
O O5 0.312807 0.102717 0.542727
O O6 0.411407 0.964047 0.814805
O O7 0.236341 0.953119 0.428164
O O8 0.338154 0.051666 0.873608
O O9 0.500000 0.915853 0.750000
O O10 0.353637 0.622102 0.296959
O O11 0.434451 0.484161 0.455323
O O12 0.384830 0.577657 0.099477
O O13 0.250000 0.250000 0.500000
#
# Coordination Sequence:
#
# PCOD9303337 Si02
#       6
#     8   8   8   8   8   8
#     4  12  25  43  70 109 145 186 238 306 366 438
#     4  11  24  47  70 100 139 193 244 290 368 426
#     4  12  26  47  69  98 142 193 247 298 354 432
#     4  11  24  44  71 109 147 187 233 296 378 432
#     4  11  22  43  71  99 142 189 242 297 356 435
#     4  11  24  45  77 109 149 186 237 306 370 445
#
# _framework density 24.286258
#
# number of rings (size 3 to 8) (size 9 to 14) (size 15 to 20)
#    0.000    0.667    1.667    8.000    0.000    3.333 
#    3.000    1.667    0.000    0.000    0.000    0.000 
#    0.000    0.000    0.000    0.000    0.000    0.000 
#
# Total GULP energy -134057.491110 kJ/mol
# GULP energy per Si atom -5585.728796 kJ/mol
# Density = 2.423098 g / cm^3
# Si number density = 24.286258 Si / 1000 Ang^3
#
#
#
# Elastic Constant Matrix: (Units=GPa)
#
#
# Indices 1 2 3 4 5 6 
#
# 1 75.4985 48.7708 22.7331 0.0000 -9.8818 0.0000
# 2 48.7708 165.3764 28.6840 0.0000 1.8324 0.0000
# 3 22.7331 28.6840 69.9360 0.0000 -23.2203 0.0000
# 4 0.0000 0.0000 0.0000 26.7166 0.0000 -7.1661
# 5 -9.8818 1.8324 -23.2203 0.0000 35.2690 0.0000
# 6 0.0000 0.0000 0.0000 -7.1661 0.0000 17.2111
#
#
#
# Elastic Compliance Matrix: (Units=1/GPa)
#
#
# Indices 1 2 3 4 5 6 
#
# 1 0.017560 -0.004764 -0.002608 0.000000 0.003450 0.000000
# 2 -0.004764 0.008007 -0.002965 0.000000 -0.003703 0.000000
# 3 -0.002608 -0.002965 0.020695 0.000000 0.013048 0.000000
# 4 0.000000 0.000000 0.000000 0.042136 0.000000 0.017544
# 5 0.003450 -0.003703 0.013048 0.000000 0.038103 0.000000
# 6 0.000000 0.000000 0.000000 0.017544 0.000000 0.065407
#
#
# Mechanical properties :
#
#
# Convention : Reuss Voigt Hill
#
# Bulk Modulus (GPa) = 39.08229 56.79853 47.94041
# Shear Modulus (GPa) = 22.61296 29.88086 26.24691
#
# Velocity S-wave (km/s) = 3.05471 3.51146 3.29101
# Velocity P-wave (km/s) = 5.34499 6.31493 5.85009
#
# Compressibility (1/GPa) = 0.02558704
#
# Stress axis : x y z
#
# Youngs Moduli (GPa) = 56.94751 124.88829 48.32086
#
# Poissons Ratio (x) = 0.59502 0.12603
# Poissons Ratio (y) = 0.27132 0.14326
# Poissons Ratio (z) = 0.14854 0.37028
#
# Static dielectric constant tensor:
#      x y z
#    x 2.011590 0.000000 0.092190 
#    y 0.000000 2.000710 0.000000 
#    z 0.092190 0.000000 2.052240 
# 
# From -- ./inp_files/66496.got.cif
#   From: 2010.05.17/outbox.cif.g08.bks.cpg/sg15_34_cif.got.tgz:66496.got - 2010.06.03 18:47:42.
