data_PCOD9303138
_publ_section_title
;
Structure prediction by ZEFSAII (Michael W. Deem and Ramdas Pophale) SiO2 
 PCOD9303138
Probable space group: C 2/C
;
_chemical_formula_sum "Si O2"
_cell_formula_units_Z 52
_cell_length_a 6.617366
_cell_length_b 22.285911
_cell_length_c 21.848204
_cell_angle_alpha 90.000000
_cell_angle_beta 52.284509
_cell_angle_gamma 90.000000
_cell_volume 2548.823179
_symmetry_space_group_name_H-M "C 2/C"
_symmetry_group_IT_number 15
_symmetry_cell_setting 'monoclinic'
loop_
_space_group_symop_operation_xyz
x,y,z
-x,y,1/2-z
-x,-y,-z
x,-y,1/2+z
1/2+x,1/2+y,z
1/2-x,1/2+y,1/2-z
1/2-x,1/2-y,-z
1/2+x,1/2-y,1/2+z
loop_
_atom_site_type_symbol
_atom_site_label
_atom_site_fract_x
_atom_site_fract_y
_atom_site_fract_z
Si Si1 0.575287 0.644378 0.665640
Si Si2 0.000000 0.926402 0.750000
Si Si3 0.392871 0.312909 0.470927
Si Si4 0.914048 0.401497 0.578811
Si Si5 0.222456 0.504724 0.578774
Si Si6 0.219373 0.977444 0.299415
Si Si7 0.339922 0.868029 0.455703
O O1 0.500000 0.659140 0.750000
O O2 0.485151 0.676717 0.619518
O O3 0.490461 0.574733 0.670045
O O4 0.876378 0.656492 0.603675
O O5 0.190409 0.889964 0.669928
O O6 0.173592 0.972498 0.756969
O O7 0.250000 0.250000 0.500000
O O8 0.620400 0.322613 0.476825
O O9 0.171811 0.361315 0.529366
O O10 0.806596 0.393628 0.530451
O O11 0.019517 0.467270 0.577401
O O12 0.500000 0.500000 0.500000
O O13 0.269964 0.486096 0.639446
O O14 0.160678 0.574783 0.588817
O O15 0.500000 0.947726 0.250000
#
# Coordination Sequence:
#
# PCOD9303138 Si02
#       7
#     8   4   8   8   8   8   8
#     4  11  23  40  67 102 128 171 222 276 350 414
#     4  12  24  38  60  98 140 176 222 274 342 432
#     4  11  26  48  68  92 127 179 242 293 347 406
#     4  11  24  40  62  97 133 178 225 275 352 424
#     4  12  19  36  61  94 129 173 215 260 345 425
#     4  12  22  36  60  97 145 174 207 275 338 423
#     4  11  22  42  67  93 137 170 216 285 339 416
#
# _framework density 20.401572000000002
#
# number of rings (size 3 to 8) (size 9 to 14) (size 15 to 20)
#    0.000    0.615    5.385    4.154    0.000    2.462 
#    0.000    3.077    0.000    0.000    0.000    0.000 
#    0.000    0.000    0.000    0.000    0.000    0.000 
#
# Total GULP energy -144951.832147 kJ/mol
# GULP energy per Si atom -5575.070467 kJ/mol
# Density = 2.035514 g / cm^3
# Si number density = 20.401572 Si / 1000 Ang^3
#
#
#
# Elastic Constant Matrix: (Units=GPa)
#
#
# Indices 1 2 3 4 5 6 
#
# 1 128.5928 16.0318 51.1834 0.0000 10.2201 0.0000
# 2 16.0318 43.4852 12.8755 0.0000 4.5195 0.0000
# 3 51.1834 12.8755 152.0433 0.0000 23.8917 0.0000
# 4 0.0000 0.0000 0.0000 14.8419 0.0000 -6.7713
# 5 10.2201 4.5195 23.8917 0.0000 41.7571 0.0000
# 6 0.0000 0.0000 0.0000 -6.7713 0.0000 31.7893
#
#
#
# Elastic Compliance Matrix: (Units=1/GPa)
#
#
# Indices 1 2 3 4 5 6 
#
# 1 0.009253 -0.002532 -0.002843 0.000000 -0.000364 0.000000
# 2 -0.002532 0.024372 -0.000983 0.000000 -0.001456 0.000000
# 3 -0.002843 -0.000983 0.008231 0.000000 -0.003907 0.000000
# 4 0.000000 0.000000 0.000000 0.074629 0.000000 0.015896
# 5 -0.000364 -0.001456 -0.003907 0.000000 0.026430 0.000000
# 6 0.000000 0.000000 0.000000 0.015896 0.000000 0.034843
#
#
# Mechanical properties :
#
#
# Convention : Reuss Voigt Hill
#
# Bulk Modulus (GPa) = 34.31625 53.81143 44.06384
# Shear Modulus (GPa) = 24.97652 33.94636 29.46144
#
# Velocity S-wave (km/s) = 3.50272 4.08353 3.80422
# Velocity P-wave (km/s) = 5.76330 6.97617 6.39854
#
# Compressibility (1/GPa) = 0.02914071
#
# Stress axis : x y z
#
# Youngs Moduli (GPa) = 108.07658 41.03074 121.48520
#
# Poissons Ratio (x) = 0.10387 0.34541
# Poissons Ratio (y) = 0.27360 0.11941
# Poissons Ratio (z) = 0.30729 0.04033
#
# Static dielectric constant tensor:
#      x y z
#    x 1.744470 0.000000 0.035610 
#    y 0.000000 1.683320 0.000000 
#    z 0.035610 0.000000 1.825380 
# 
# From -- ./inp_files/228059.got.cif
#   From: 2010.05.17/outbox.cif.g08.bks.cpg/sg15_115_cif.got.tgz:228059.got - 2010.06.03 18:47:42.
