data_PCOD9303845
_publ_section_title
;
Structure prediction by ZEFSAII (Michael W. Deem and Ramdas Pophale) SiO2 
 PCOD9303845
Probable space group: C 2/C
;
_chemical_formula_sum "Si O2"
_cell_formula_units_Z 56
_cell_length_a 26.541777
_cell_length_b 5.834689
_cell_length_c 17.411004
_cell_angle_alpha 90.000000
_cell_angle_beta 65.390651
_cell_angle_gamma 90.000000
_cell_volume 2451.408836
_symmetry_space_group_name_H-M "C 2/C"
_symmetry_group_IT_number 15
_symmetry_cell_setting 'monoclinic'
loop_
_space_group_symop_operation_xyz
x,y,z
-x,y,1/2-z
-x,-y,-z
x,-y,1/2+z
1/2+x,1/2+y,z
1/2-x,1/2+y,1/2-z
1/2-x,1/2-y,-z
1/2+x,1/2-y,1/2+z
loop_
_atom_site_type_symbol
_atom_site_label
_atom_site_fract_x
_atom_site_fract_y
_atom_site_fract_z
Si Si1 0.805660 0.724240 0.812185
Si Si2 0.593444 0.692646 0.654925
Si Si3 0.568573 0.821519 0.237955
Si Si4 0.276658 0.373495 0.410462
Si Si5 0.910447 0.032877 0.012861
Si Si6 0.504325 0.200387 0.935311
Si Si7 0.292164 0.383193 0.652547
O O1 0.869098 0.659660 0.770734
O O2 0.761963 0.526451 0.831860
O O3 0.789900 0.857016 0.899892
O O4 0.799481 0.870792 0.738415
O O5 0.569343 0.443488 0.702054
O O6 0.658783 0.708953 0.638479
O O7 0.590228 0.677971 0.564826
O O8 0.564584 0.932482 0.696592
O O9 0.473879 0.835334 0.164380
O O10 0.250000 0.250000 0.500000
O O11 0.227823 0.348332 0.377004
O O12 0.949070 0.135520 0.055574
O O13 0.847868 0.016763 0.081230
O O14 0.942762 0.803094 0.970737
O O15 0.500000 0.000000 0.000000
#
# Coordination Sequence:
#
# PCOD9303845 Si02
#       7
#     8   8   8   8   8   8   8
#     4  11  24  39  70 106 142 196 239 296 372 447
#     4  11  26  47  75 111 152 193 244 307 383 441
#     4  11  26  49  76 108 151 193 247 310 371 450
#     4  11  23  40  65 105 149 187 233 299 370 447
#     4  11  27  47  71 107 145 197 252 311 372 442
#     4  11  28  50  75 102 143 201 257 310 366 440
#     4  12  22  41  68 104 149 188 248 297 370 450
#
# _framework density 22.844004999999999
#
# number of rings (size 3 to 8) (size 9 to 14) (size 15 to 20)
#    0.000    0.857    5.714    0.000    6.000    4.571 
#    0.000    0.000    0.000    0.000    0.000    0.000 
#    0.000    0.000    0.000    0.000    0.000    0.000 
#
# Total GULP energy -156051.375309 kJ/mol
# GULP energy per Si atom -5573.263404 kJ/mol
# Density = 2.279201 g / cm^3
# Si number density = 22.844005 Si / 1000 Ang^3
#
#
#
# Elastic Constant Matrix: (Units=GPa)
#
#
# Indices 1 2 3 4 5 6 
#
# 1 128.6314 21.2017 13.3252 -0.0003 -21.0283 0.0000
# 2 21.2017 76.0258 33.2115 -0.0020 -10.3815 -0.0001
# 3 13.3252 33.2115 102.7431 -0.0006 -11.4827 -0.0003
# 4 -0.0003 -0.0020 -0.0006 32.1770 -0.0004 11.4813
# 5 -21.0283 -10.3815 -11.4827 -0.0004 38.8898 -0.0003
# 6 0.0000 -0.0001 -0.0003 11.4813 -0.0003 29.0431
#
#
#
# Elastic Compliance Matrix: (Units=1/GPa)
#
#
# Indices 1 2 3 4 5 6 
#
# 1 0.008777 -0.001839 -0.000071 0.000000 0.004234 0.000000
# 2 -0.001839 0.015984 -0.004718 0.000001 0.001880 0.000000
# 3 -0.000071 -0.004718 0.011502 0.000000 0.002098 0.000000
# 4 0.000000 0.000001 0.000000 0.036182 0.000000 -0.014303
# 5 0.004234 0.001880 0.002098 0.000000 0.029124 0.000000
# 6 0.000000 0.000000 0.000000 -0.014303 0.000000 0.040086
#
#
# Mechanical properties :
#
#
# Convention : Reuss Voigt Hill
#
# Bulk Modulus (GPa) = 43.46431 49.20856 46.33643
# Shear Modulus (GPa) = 30.75427 35.99943 33.37685
#
# Velocity S-wave (km/s) = 3.67314 3.97404 3.82655
# Velocity P-wave (km/s) = 6.08746 6.53033 6.31278
#
# Compressibility (1/GPa) = 0.02300738
#
# Stress axis : x y z
#
# Youngs Moduli (GPa) = 113.93826 62.56270 86.94238
#
# Poissons Ratio (x) = 0.11502 0.00615
# Poissons Ratio (y) = 0.20948 0.41022
# Poissons Ratio (z) = 0.00807 0.29519
#
# Static dielectric constant tensor:
#      x y z
#    x 1.830240 0.000000 -0.003680 
#    y 0.000000 2.032380 0.000000 
#    z -0.003680 0.000000 1.727980 
# 
# From -- ./inp_files/221190.got.cif
#   From: 2010.05.17/outbox.cif.g08.bks.cpg/sg15_111_cif.got.tgz:221190.got - 2010.06.03 18:47:42.
