data_PCOD9303729
_publ_section_title
;
Structure prediction by ZEFSAII (Michael W. Deem and Ramdas Pophale) SiO2 
 PCOD9303729
Probable space group: C 2/C
;
_chemical_formula_sum "Si O2"
_cell_formula_units_Z 36
_cell_length_a 20.083255
_cell_length_b 13.236399
_cell_length_c 19.678484
_cell_angle_alpha 90.000000
_cell_angle_beta 20.349574
_cell_angle_gamma 90.000000
_cell_volume 1819.110147
_symmetry_space_group_name_H-M "C 2/C"
_symmetry_group_IT_number 15
_symmetry_cell_setting 'monoclinic'
loop_
_space_group_symop_operation_xyz
x,y,z
-x,y,1/2-z
-x,-y,-z
x,-y,1/2+z
1/2+x,1/2+y,z
1/2-x,1/2+y,1/2-z
1/2-x,1/2-y,-z
1/2+x,1/2-y,1/2+z
loop_
_atom_site_type_symbol
_atom_site_label
_atom_site_fract_x
_atom_site_fract_y
_atom_site_fract_z
Si Si1 0.729754 0.380684 0.755070
Si Si2 0.662140 0.846648 0.047381
Si Si3 0.595615 0.496528 0.008671
Si Si4 0.500000 0.492570 0.750000
Si Si5 0.593275 0.838023 0.336703
O O1 0.666004 0.407007 0.892262
O O2 0.675651 0.265714 0.787336
O O3 0.955639 0.389541 0.524150
O O4 0.604946 0.458549 0.828522
O O5 0.500000 0.893311 0.250000
O O6 0.555667 0.814269 0.081380
O O7 0.750000 0.750000 0.000000
O O8 0.833450 0.923473 0.877938
O O9 0.746729 0.587745 0.847992
O O10 0.583698 0.462942 0.099092
#
# Coordination Sequence:
#
# PCOD9303729 Si02
#       5
#     8   8   8   4   8
#     4  11  23  38  60  90 121 159 199 245 299 353
#     4  12  21  30  54  87 119 155 182 232 308 370
#     4  11  24  39  59  89 123 160 199 244 296 358
#     4  12  22  38  56  84 128 154 190 242 302 358
#     4  12  21  39  61  88 122 158 200 243 298 357
#
# _framework density 19.789895999999999
#
# number of rings (size 3 to 8) (size 9 to 14) (size 15 to 20)
#    0.000    0.444    7.778    3.333    0.000    0.000 
#    0.000    0.000    0.000    1.333    0.000    0.000 
#    0.000    0.000    0.000    0.000    0.000    0.000 
#
# Total GULP energy -100463.284744 kJ/mol
# GULP energy per Si atom -5581.293597 kJ/mol
# Density = 1.974485 g / cm^3
# Si number density = 19.789896 Si / 1000 Ang^3
#
#
#
# Elastic Constant Matrix: (Units=GPa)
#
#
# Indices 1 2 3 4 5 6 
#
# 1 120.9798 33.4939 18.9903 -0.0087 41.5318 -0.0007
# 2 33.4939 51.0035 12.5371 -0.0239 10.3196 -0.0049
# 3 18.9903 12.5371 83.2763 -0.0198 26.3929 -0.0034
# 4 -0.0087 -0.0239 -0.0198 20.0455 0.0028 3.3874
# 5 41.5318 10.3196 26.3929 0.0028 44.4354 -0.0004
# 6 -0.0007 -0.0049 -0.0034 3.3874 -0.0004 16.6382
#
#
#
# Elastic Compliance Matrix: (Units=1/GPa)
#
#
# Indices 1 2 3 4 5 6 
#
# 1 0.014431 -0.007332 0.001907 0.000001 -0.012918 -0.000002
# 2 -0.007332 0.024559 -0.002944 0.000023 0.002898 0.000002
# 3 0.001907 -0.002944 0.015232 0.000014 -0.010146 -0.000001
# 4 0.000001 0.000023 0.000014 0.051664 -0.000018 -0.010518
# 5 -0.012918 0.002898 -0.010146 -0.000018 0.039932 0.000003
# 6 -0.000002 0.000002 -0.000001 -0.010518 0.000003 0.062244
#
#
# Mechanical properties :
#
#
# Convention : Reuss Voigt Hill
#
# Bulk Modulus (GPa) = 26.67747 42.81136 34.74442
# Shear Modulus (GPa) = 21.07090 28.90636 24.98863
#
# Velocity S-wave (km/s) = 3.26656 3.82601 3.55730
# Velocity P-wave (km/s) = 5.26658 6.41854 5.87088
#
# Compressibility (1/GPa) = 0.03748481
#
# Stress axis : x y z
#
# Youngs Moduli (GPa) = 69.29473 40.71887 65.65071
#
# Poissons Ratio (x) = 0.29855 -0.12520
# Poissons Ratio (y) = 0.50806 0.19326
# Poissons Ratio (z) = -0.13215 0.11986
#
# Static dielectric constant tensor:
#      x y z
#    x 1.745260 0.000000 0.053630 
#    y 0.000000 1.685050 0.000000 
#    z 0.053630 0.000000 1.811960 
# 
# From -- ./inp_files/215534.got.cif
#   From: 2010.05.17/outbox.cif.g08.bks.cpg/sg15_108_cif.got.tgz:215534.got - 2010.06.03 18:47:42.
