data_PCOD9303287
_publ_section_title
;
Structure prediction by ZEFSAII (Michael W. Deem and Ramdas Pophale) SiO2 
 PCOD9303287
Probable space group: C 2/C
;
_chemical_formula_sum "Si O2"
_cell_formula_units_Z 60
_cell_length_a 17.499519
_cell_length_b 26.789646
_cell_length_c 12.012376
_cell_angle_alpha 90.000000
_cell_angle_beta 150.457994
_cell_angle_gamma 90.000000
_cell_volume 2776.662640
_symmetry_space_group_name_H-M "C 2/C"
_symmetry_group_IT_number 15
_symmetry_cell_setting 'monoclinic'
loop_
_space_group_symop_operation_xyz
x,y,z
-x,y,1/2-z
-x,-y,-z
x,-y,1/2+z
1/2+x,1/2+y,z
1/2-x,1/2+y,1/2-z
1/2-x,1/2-y,-z
1/2+x,1/2-y,1/2+z
loop_
_atom_site_type_symbol
_atom_site_label
_atom_site_fract_x
_atom_site_fract_y
_atom_site_fract_z
Si Si1 0.705145 0.693820 0.416863
Si Si2 0.312099 0.636391 0.437227
Si Si3 0.000000 0.635536 0.750000
Si Si4 0.964824 0.578248 0.497617
Si Si5 0.858610 0.822738 0.412074
Si Si6 0.840721 0.748044 0.999812
Si Si7 0.882756 0.905923 0.265204
Si Si8 0.368365 0.020718 0.986903
O O1 0.750000 0.750000 0.500000
O O2 0.687132 0.670727 0.517524
O O3 0.848464 0.668791 0.534565
O O4 0.540158 0.692560 0.146447
O O5 0.142771 0.622588 0.182198
O O6 0.359765 0.694227 0.484750
O O7 0.434651 0.599852 0.530288
O O8 0.315016 0.621990 0.570952
O O9 0.049917 0.600518 0.711818
O O10 0.863379 0.532707 0.419778
O O11 0.068135 0.557287 0.529310
O O12 0.750076 0.783095 0.209188
O O13 0.849795 0.873331 0.331818
O O14 0.750000 0.750000 0.000000
O O15 0.000000 0.725683 0.250000
O O16 0.792476 0.957972 0.167292
O O17 0.500000 0.019343 0.250000
#
# Coordination Sequence:
#
# PCOD9303287 Si02
#       8
#     8   8   4   8   8   8   8   8
#     4  11  27  44  64  96 137 189 236 284 338 421
#     4  11  23  41  64 102 134 181 222 287 349 417
#     4  12  24  44  70 100 134 184 236 290 344 412
#     4  11  25  42  73 100 134 175 230 289 353 419
#     4  11  25  45  64  95 140 188 233 284 351 419
#     4  12  25  42  67 103 143 180 237 296 346 415
#     4  11  22  43  68  94 137 174 224 285 354 414
#     4  11  23  45  68 102 135 171 227 292 355 426
#
# _framework density 21.608675000000002
#
# number of rings (size 3 to 8) (size 9 to 14) (size 15 to 20)
#    0.000    0.800    4.667    2.400    7.467    2.133 
#    0.000    0.000    0.000    1.600    0.000    0.000 
#    0.000    0.000    0.000    0.000    0.000    0.000 
#
# Total GULP energy -167544.350582 kJ/mol
# GULP energy per Si atom -5584.811686 kJ/mol
# Density = 2.155949 g / cm^3
# Si number density = 21.608675 Si / 1000 Ang^3
#
#
#
# Elastic Constant Matrix: (Units=GPa)
#
#
# Indices 1 2 3 4 5 6 
#
# 1 86.3141 6.9294 28.0596 0.0000 -10.5979 0.0000
# 2 6.9294 51.8481 30.9222 0.0000 0.3547 0.0000
# 3 28.0596 30.9222 102.1300 0.0000 4.3076 0.0000
# 4 0.0000 0.0000 0.0000 33.3301 0.0000 -0.0377
# 5 -10.5979 0.3547 4.3076 0.0000 31.5996 0.0000
# 6 0.0000 0.0000 0.0000 -0.0377 0.0000 36.2545
#
#
#
# Elastic Compliance Matrix: (Units=1/GPa)
#
#
# Indices 1 2 3 4 5 6 
#
# 1 0.013495 0.000611 -0.004107 0.000000 0.005079 0.000000
# 2 0.000611 0.023581 -0.007347 0.000000 0.000942 0.000000
# 3 -0.004107 -0.007347 0.013275 0.000000 -0.003105 0.000000
# 4 0.000000 0.000000 0.000000 0.030003 0.000000 0.000031
# 5 0.005079 0.000942 -0.003105 0.000000 0.033762 0.000000
# 6 0.000000 0.000000 0.000000 0.000031 0.000000 0.027583
#
#
# Mechanical properties :
#
#
# Convention : Reuss Voigt Hill
#
# Bulk Modulus (GPa) = 34.88565 41.34607 38.11586
# Shear Modulus (GPa) = 28.91164 31.86224 30.38694
#
# Velocity S-wave (km/s) = 3.66179 3.84410 3.75405
# Velocity P-wave (km/s) = 5.83589 6.23525 6.03887
#
# Compressibility (1/GPa) = 0.02866509
#
# Stress axis : x y z
#
# Youngs Moduli (GPa) = 74.10002 42.40723 75.32789
#
# Poissons Ratio (x) = -0.02591 0.30937
# Poissons Ratio (y) = -0.04528 0.55345
# Poissons Ratio (z) = 0.30433 0.31158
#
# Static dielectric constant tensor:
#      x y z
#    x 1.739170 0.000000 0.003270 
#    y 0.000000 1.802830 0.000000 
#    z 0.003270 0.000000 1.818490 
# 
# From -- ./inp_files/108446.got.cif
#   From: 2010.05.17/outbox.cif.g08.bks.cpg/sg15_55_cif.got.tgz:108446.got - 2010.06.03 18:47:42.
