data_PCOD9303966
_publ_section_title
;
Structure prediction by ZEFSAII (Michael W. Deem and Ramdas Pophale) SiO2 
 PCOD9303966
Probable space group: C 2/C
;
_chemical_formula_sum "Si O2"
_cell_formula_units_Z 52
_cell_length_a 26.352435
_cell_length_b 9.859855
_cell_length_c 11.902635
_cell_angle_alpha 90.000000
_cell_angle_beta 54.226954
_cell_angle_gamma 90.000000
_cell_volume 2509.208220
_symmetry_space_group_name_H-M "C 2/C"
_symmetry_group_IT_number 15
_symmetry_cell_setting 'monoclinic'
loop_
_space_group_symop_operation_xyz
x,y,z
-x,y,1/2-z
-x,-y,-z
x,-y,1/2+z
1/2+x,1/2+y,z
1/2-x,1/2+y,1/2-z
1/2-x,1/2-y,-z
1/2+x,1/2-y,1/2+z
loop_
_atom_site_type_symbol
_atom_site_label
_atom_site_fract_x
_atom_site_fract_y
_atom_site_fract_z
Si Si1 0.607047 0.352194 0.323332
Si Si2 0.058859 0.582504 0.469593
Si Si3 0.192316 0.924278 0.425356
Si Si4 0.687649 0.273535 0.009123
Si Si5 0.333495 0.125734 0.684614
Si Si6 0.101873 0.851372 0.750368
Si Si7 0.000000 0.313993 0.250000
O O1 0.560134 0.236093 0.423411
O O2 0.658090 0.369652 0.357467
O O3 0.635494 0.296740 0.170554
O O4 0.584411 0.503769 0.326252
O O5 0.123358 0.506972 0.356805
O O6 0.047289 0.594874 0.617183
O O7 0.000000 0.500000 0.500000
O O8 0.264896 0.883614 0.327749
O O9 0.153591 0.875065 0.584722
O O10 0.192044 0.087494 0.432402
O O11 0.750000 0.250000 0.000000
O O12 0.675256 0.155279 0.936355
O O13 0.369714 0.250178 0.694813
O O14 0.042434 0.780316 0.772453
#
# Coordination Sequence:
#
# PCOD9303966 Si02
#       7
#     8   8   8   8   8   8   4
#     4  11  24  47  70 100 142 182 239 296 358 422
#     4  12  28  48  70 101 144 192 238 297 358 431
#     4  11  23  43  73 105 141 187 234 297 362 423
#     4  11  23  41  67 105 142 180 234 287 358 434
#     4  12  25  43  74 105 146 186 237 296 362 429
#     4  11  25  47  73 104 137 189 242 292 354 429
#     4  12  26  50  72 102 144 188 244 288 362 426
#
# _framework density 20.723668
#
# number of rings (size 3 to 8) (size 9 to 14) (size 15 to 20)
#    0.000    0.615    6.154    1.385    2.154    1.846 
#    5.538    0.000    0.000    0.000    0.000    0.000 
#    0.000    0.000    0.000    0.000    0.000    0.000 
#
# Total GULP energy -145346.302813 kJ/mol
# GULP energy per Si atom -5590.242416 kJ/mol
# Density = 2.067650 g / cm^3
# Si number density = 20.723668 Si / 1000 Ang^3
#
#
#
# Elastic Constant Matrix: (Units=GPa)
#
#
# Indices 1 2 3 4 5 6 
#
# 1 119.2005 42.9221 26.7769 0.0000 -0.0951 0.0000
# 2 42.9221 97.6458 43.7741 0.0000 -4.0940 0.0000
# 3 26.7769 43.7741 69.8062 0.0000 -0.7419 0.0000
# 4 0.0000 0.0000 0.0000 37.7341 0.0000 0.9884
# 5 -0.0951 -4.0940 -0.7419 0.0000 28.3021 0.0000
# 6 0.0000 0.0000 0.0000 0.9884 0.0000 32.6474
#
#
#
# Elastic Compliance Matrix: (Units=1/GPa)
#
#
# Indices 1 2 3 4 5 6 
#
# 1 0.010089 -0.003784 -0.001503 0.000000 -0.000553 0.000000
# 2 -0.003784 0.015760 -0.008410 0.000000 0.002047 0.000000
# 3 -0.001503 -0.008410 0.020168 0.000000 -0.000693 0.000000
# 4 0.000000 0.000000 0.000000 0.026522 0.000000 -0.000803
# 5 -0.000553 0.002047 -0.000693 0.000000 0.035609 0.000000
# 6 0.000000 0.000000 0.000000 -0.000803 0.000000 0.030655
#
#
# Mechanical properties :
#
#
# Convention : Reuss Voigt Hill
#
# Bulk Modulus (GPa) = 53.69473 57.06655 55.38064
# Shear Modulus (GPa) = 29.00147 31.28200 30.14174
#
# Velocity S-wave (km/s) = 3.74496 3.88942 3.81788
# Velocity P-wave (km/s) = 6.68325 6.91135 6.79826
#
# Compressibility (1/GPa) = 0.01862380
#
# Stress axis : x y z
#
# Youngs Moduli (GPa) = 99.11741 63.45022 49.58341
#
# Poissons Ratio (x) = 0.24011 0.07452
# Poissons Ratio (y) = 0.37509 0.41698
# Poissons Ratio (z) = 0.14896 0.53360
#
# Static dielectric constant tensor:
#      x y z
#    x 1.709600 0.000000 0.001650 
#    y 0.000000 1.743850 0.000000 
#    z 0.001650 0.000000 1.768080 
# 
# From -- ./inp_files/121837.got.cif
#   From: 2010.05.17/outbox.cif.g08.bks.cpg/sg15_61_cif.got.tgz:121837.got - 2010.06.03 18:47:42.
