data_PCOD9303080
_publ_section_title
;
Structure prediction by ZEFSAII (Michael W. Deem and Ramdas Pophale) SiO2 
 PCOD9303080
Probable space group: C 2/C
;
_chemical_formula_sum "Si O2"
_cell_formula_units_Z 40
_cell_length_a 33.607614
_cell_length_b 7.406003
_cell_length_c 23.243521
_cell_angle_alpha 90.000000
_cell_angle_beta 161.825210
_cell_angle_gamma 90.000000
_cell_volume 1804.522872
_symmetry_space_group_name_H-M "C 2/C"
_symmetry_group_IT_number 15
_symmetry_cell_setting 'monoclinic'
loop_
_space_group_symop_operation_xyz
x,y,z
-x,y,1/2-z
-x,-y,-z
x,-y,1/2+z
1/2+x,1/2+y,z
1/2-x,1/2+y,1/2-z
1/2-x,1/2-y,-z
1/2+x,1/2-y,1/2+z
loop_
_atom_site_type_symbol
_atom_site_label
_atom_site_fract_x
_atom_site_fract_y
_atom_site_fract_z
Si Si1 0.047865 0.222865 0.129092
Si Si2 0.323608 0.933485 0.666126
Si Si3 0.471451 0.181185 0.144937
Si Si4 0.196926 0.103142 0.777328
Si Si5 0.548604 0.585820 0.257037
O O1 0.099871 0.422852 0.190099
O O2 0.147267 0.080505 0.238002
O O3 0.041119 0.198277 0.188680
O O4 0.912017 0.172560 0.915473
O O5 0.414162 0.879546 0.738180
O O6 0.292273 0.753937 0.658215
O O7 0.194287 0.025382 0.466859
O O8 0.500000 0.132587 0.250000
O O9 0.468341 0.400247 0.138106
O O10 0.336773 0.095599 0.941948
O O11 0.500000 0.671887 0.250000
#
# Coordination Sequence:
#
# PCOD9303080 Si02
#       5
#     8   8   8   8   8
#     4  11  26  42  68 102 135 175 223 281 332 401
#     4  12  23  44  70  95 133 180 226 272 339 398
#     4  11  22  41  72  94 131 182 219 272 337 396
#     4  11  24  47  65  98 142 175 219 279 342 396
#     4  11  22  43  70  97 133 173 227 277 327 398
#
# _framework density 22.166525
#
# number of rings (size 3 to 8) (size 9 to 14) (size 15 to 20)
#    0.000    0.800    6.000    3.000    0.000    4.000 
#    3.600    0.000    0.000    0.000    0.000    0.000 
#    0.000    0.000    0.000    0.000    0.000    0.000 
#
# Total GULP energy -112008.440457 kJ/mol
# GULP energy per Si atom -5600.422023 kJ/mol
# Density = 2.211607 g / cm^3
# Si number density = 22.166525 Si / 1000 Ang^3
#
#
#
# Elastic Constant Matrix: (Units=GPa)
#
#
# Indices 1 2 3 4 5 6 
#
# 1 83.7857 -2.8039 26.6965 0.0000 17.6525 0.0000
# 2 -2.8039 47.7143 -11.5455 0.0000 -4.3036 0.0000
# 3 26.6965 -11.5455 88.4574 0.0000 17.4896 0.0000
# 4 0.0000 0.0000 0.0000 17.9372 0.0000 -3.1392
# 5 17.6525 -4.3036 17.4896 0.0000 35.9575 0.0000
# 6 0.0000 0.0000 0.0000 -3.1392 0.0000 4.8618
#
#
#
# Elastic Compliance Matrix: (Units=1/GPa)
#
#
# Indices 1 2 3 4 5 6 
#
# 1 0.014090 -0.000443 -0.003244 0.000000 -0.005392 0.000000
# 2 -0.000443 0.021715 0.002668 0.000000 0.001519 0.000000
# 3 -0.003244 0.002668 0.013558 0.000000 -0.004683 0.000000
# 4 0.000000 0.000000 0.000000 0.062853 0.000000 0.040584
# 5 -0.005392 0.001519 -0.004683 0.000000 0.032917 0.000000
# 6 0.000000 0.000000 0.000000 0.040584 0.000000 0.231889
#
#
# Mechanical properties :
#
#
# Convention : Reuss Voigt Hill
#
# Bulk Modulus (GPa) = 21.13136 27.18351 24.15744
# Shear Modulus (GPa) = 12.66351 25.59199 19.12775
#
# Velocity S-wave (km/s) = 2.39276 3.40153 2.94072
# Velocity P-wave (km/s) = 4.14577 5.26471 4.73838
#
# Compressibility (1/GPa) = 0.04732303
#
# Stress axis : x y z
#
# Youngs Moduli (GPa) = 70.97162 46.05216 73.75732
#
# Poissons Ratio (x) = 0.02042 0.23928
# Poissons Ratio (y) = 0.03146 -0.19676
# Poissons Ratio (z) = 0.23024 -0.12285
#
# Static dielectric constant tensor:
#      x y z
#    x 1.800990 0.000000 0.014490 
#    y 0.000000 1.834050 0.000000 
#    z 0.014490 0.000000 1.814270 
# 
# From -- ./inp_files/102695.got.cif
#   From: 2010.05.17/outbox.cif.g08.bks.cpg/sg15_52_cif.got.tgz:102695.got - 2010.06.03 18:47:42.
