data_PCOD9303900
_publ_section_title
;
Structure prediction by ZEFSAII (Michael W. Deem and Ramdas Pophale) SiO2 
 PCOD9303900
Probable space group: C 2/C
;
_chemical_formula_sum "Si O2"
_cell_formula_units_Z 48
_cell_length_a 17.706667
_cell_length_b 20.229938
_cell_length_c 8.337338
_cell_angle_alpha 90.000000
_cell_angle_beta 50.797811
_cell_angle_gamma 90.000000
_cell_volume 2314.279674
_symmetry_space_group_name_H-M "C 2/C"
_symmetry_group_IT_number 15
_symmetry_cell_setting 'monoclinic'
loop_
_space_group_symop_operation_xyz
x,y,z
-x,y,1/2-z
-x,-y,-z
x,-y,1/2+z
1/2+x,1/2+y,z
1/2-x,1/2+y,1/2-z
1/2-x,1/2-y,-z
1/2+x,1/2-y,1/2+z
loop_
_atom_site_type_symbol
_atom_site_label
_atom_site_fract_x
_atom_site_fract_y
_atom_site_fract_z
Si Si1 0.531177 0.272157 0.947445
Si Si2 0.849063 0.182623 0.525340
Si Si3 0.280239 0.935978 0.229163
Si Si4 0.284466 0.718304 0.120666
Si Si5 0.487184 0.884431 0.077832
Si Si6 0.805468 0.578868 0.317588
O O1 0.597357 0.296488 0.708897
O O2 0.599699 0.281931 0.008968
O O3 0.510282 0.194264 0.956710
O O4 0.429702 0.309973 0.058137
O O5 0.802113 0.110596 0.584128
O O6 0.763543 0.233960 0.682316
O O7 0.384574 0.913048 0.158357
O O8 0.267553 0.012716 0.284994
O O9 0.282066 0.923541 0.036901
O O10 0.241055 0.645190 0.192081
O O11 0.250000 0.750000 0.000000
O O12 0.500000 0.895908 0.250000
O O13 0.578313 0.916545 0.864431
#
# Coordination Sequence:
#
# PCOD9303900 Si02
#       6
#     8   8   8   8   8   8
#     4  11  23  40  71 103 133 176 233 286 338 413
#     4  11  23  43  68 101 135 178 230 280 342 408
#     4  12  27  44  66  97 143 182 228 281 355 420
#     4  12  23  42  69  99 134 177 230 287 341 399
#     4  12  22  41  69 104 138 174 225 287 348 415
#     4  12  26  44  66 101 137 184 228 282 349 414
#
# _framework density 20.740794000000001
#
# number of rings (size 3 to 8) (size 9 to 14) (size 15 to 20)
#    0.000    0.333    6.667    2.500    4.667    0.667 
#    0.000    0.833    0.000    0.000    0.000    0.000 
#    0.000    0.000    0.000    0.000    0.000    0.000 
#
# Total GULP energy -134397.750684 kJ/mol
# GULP energy per Si atom -5599.906279 kJ/mol
# Density = 2.069359 g / cm^3
# Si number density = 20.740794 Si / 1000 Ang^3
#
#
#
# Elastic Constant Matrix: (Units=GPa)
#
#
# Indices 1 2 3 4 5 6 
#
# 1 95.8447 5.3983 6.7013 0.0000 -18.3483 0.0000
# 2 5.3983 136.4514 22.4254 0.0000 -20.2144 0.0000
# 3 6.7013 22.4254 43.1628 0.0000 -7.1577 0.0000
# 4 0.0000 0.0000 0.0000 20.3520 0.0000 -2.7650
# 5 -18.3483 -20.2144 -7.1577 0.0000 34.2049 0.0000
# 6 0.0000 0.0000 0.0000 -2.7650 0.0000 25.7967
#
#
#
# Elastic Compliance Matrix: (Units=1/GPa)
#
#
# Indices 1 2 3 4 5 6 
#
# 1 0.011707 0.000672 -0.001098 0.000000 0.006447 0.000000
# 2 0.000672 0.008618 -0.003810 0.000000 0.004657 0.000000
# 3 -0.001098 -0.003810 0.025740 0.000000 0.002546 0.000000
# 4 0.000000 0.000000 0.000000 0.049861 0.000000 0.005344
# 5 0.006447 0.004657 0.002546 0.000000 0.035979 0.000000
# 6 0.000000 0.000000 0.000000 0.005344 0.000000 0.039337
#
#
# Mechanical properties :
#
#
# Convention : Reuss Voigt Hill
#
# Bulk Modulus (GPa) = 26.59948 38.27878 32.43913
# Shear Modulus (GPa) = 26.00860 32.13297 29.07078
#
# Velocity S-wave (km/s) = 3.54500 3.94034 3.74789
# Velocity P-wave (km/s) = 5.44138 6.26080 5.86542
#
# Compressibility (1/GPa) = 0.03759472
#
# Stress axis : x y z
#
# Youngs Moduli (GPa) = 85.42114 116.03673 38.84986
#
# Poissons Ratio (x) = -0.07802 0.04265
# Poissons Ratio (y) = -0.05744 0.14801
# Poissons Ratio (z) = 0.09377 0.44207
#
# Static dielectric constant tensor:
#      x y z
#    x 1.764120 0.000000 0.019190 
#    y 0.000000 1.705190 0.000000 
#    z 0.019190 0.000000 1.819710 
# 
# From -- ./inp_files/50060.got.cif
#   From: 2010.05.17/outbox.cif.g08.bks.cpg/sg15_26_cif.got.tgz:50060.got - 2010.06.03 18:47:42.
