data_PCOD9303296
_publ_section_title
;
Structure prediction by ZEFSAII (Michael W. Deem and Ramdas Pophale) SiO2 
 PCOD9303296
Probable space group: C 2/C
;
_chemical_formula_sum "Si O2"
_cell_formula_units_Z 40
_cell_length_a 9.862432
_cell_length_b 17.810194
_cell_length_c 24.619808
_cell_angle_alpha 90.000000
_cell_angle_beta 25.604150
_cell_angle_gamma 90.000000
_cell_volume 1868.843459
_symmetry_space_group_name_H-M "C 2/C"
_symmetry_group_IT_number 15
_symmetry_cell_setting 'monoclinic'
loop_
_space_group_symop_operation_xyz
x,y,z
-x,y,1/2-z
-x,-y,-z
x,-y,1/2+z
1/2+x,1/2+y,z
1/2-x,1/2+y,1/2-z
1/2-x,1/2-y,-z
1/2+x,1/2-y,1/2+z
loop_
_atom_site_type_symbol
_atom_site_label
_atom_site_fract_x
_atom_site_fract_y
_atom_site_fract_z
Si Si1 0.245706 0.225248 0.293566
Si Si2 0.709425 0.133460 0.539070
Si Si3 0.643030 0.999633 0.387457
Si Si4 0.001507 0.333236 0.586688
Si Si5 0.150464 0.181042 0.896930
O O1 0.500000 0.223141 0.250000
O O2 0.398081 0.203547 0.181182
O O3 0.969360 0.165578 0.404417
O O4 0.074059 0.305957 0.355251
O O5 0.577784 0.053906 0.568617
O O6 0.874757 0.137081 0.537915
O O7 0.000000 0.971748 0.250000
O O8 0.500000 0.000000 0.500000
O O9 0.640330 0.085824 0.369857
O O10 0.376567 0.342517 0.454864
O O11 0.901943 0.271286 0.578079
O O12 0.500000 0.168992 0.750000
#
# Coordination Sequence:
#
# PCOD9303296 Si02
#       5
#     8   8   8   8   8
#     4  11  22  43  68  98 133 178 233 280 340 414
#     4  11  25  41  71 100 133 179 233 283 340 417
#     4  12  29  47  70 101 144 184 227 294 362 417
#     4  11  25  44  68  99 139 180 230 286 351 411
#     4  11  23  41  69  99 131 179 230 283 331 411
#
# _framework density 21.403611000000001
#
# number of rings (size 3 to 8) (size 9 to 14) (size 15 to 20)
#    0.000    0.800    4.000    2.400    8.400    0.800 
#    0.000    0.000    0.000    0.000    0.000    0.000 
#    0.000    0.000    0.000    0.000    0.000    0.000 
#
# Total GULP energy -111866.834938 kJ/mol
# GULP energy per Si atom -5593.341747 kJ/mol
# Density = 2.135490 g / cm^3
# Si number density = 21.403611 Si / 1000 Ang^3
#
#
#
# Elastic Constant Matrix: (Units=GPa)
#
#
# Indices 1 2 3 4 5 6 
#
# 1 87.6735 20.0171 27.1504 0.0595 7.7704 -0.0492
# 2 20.0171 74.1348 -6.8281 -0.0469 5.6229 -0.0542
# 3 27.1504 -6.8281 113.3191 0.0273 -1.4158 -0.0732
# 4 0.0595 -0.0469 0.0273 20.0162 -0.1152 -9.2839
# 5 7.7704 5.6229 -1.4158 -0.1152 29.7281 0.0453
# 6 -0.0492 -0.0542 -0.0732 -9.2839 0.0453 41.1393
#
#
#
# Elastic Compliance Matrix: (Units=1/GPa)
#
#
# Indices 1 2 3 4 5 6 
#
# 1 0.013629 -0.003776 -0.003531 -0.000065 -0.003016 -0.000006
# 2 -0.003776 0.014803 0.001775 0.000048 -0.001728 0.000031
# 3 -0.003531 0.001775 0.009791 0.000016 0.001053 0.000018
# 4 -0.000065 0.000048 0.000016 0.055802 0.000206 0.012593
# 5 -0.003016 -0.001728 0.001053 0.000206 0.034804 0.000004
# 6 -0.000006 0.000031 0.000018 0.012593 0.000004 0.027149
#
#
# Mechanical properties :
#
#
# Convention : Reuss Voigt Hill
#
# Bulk Modulus (GPa) = 36.81993 39.53404 38.17699
# Shear Modulus (GPa) = 28.39377 33.82925 31.11151
#
# Velocity S-wave (km/s) = 3.64619 3.97991 3.81670
# Velocity P-wave (km/s) = 5.91323 6.29527 6.10724
#
# Compressibility (1/GPa) = 0.02715920
#
# Stress axis : x y z
#
# Youngs Moduli (GPa) = 73.37354 67.55283 102.13795
#
# Poissons Ratio (x) = 0.25510 0.36061
# Poissons Ratio (y) = 0.27709 -0.18131
# Poissons Ratio (z) = 0.25905 -0.11992
#
# Static dielectric constant tensor:
#      x y z
#    x 1.803380 0.000000 0.008850 
#    y 0.000000 1.736480 -0.000080 
#    z 0.008850 -0.000080 1.819530 
# 
# From -- ./inp_files/265669.got.cif
#   From: 2010.05.17/outbox.cif.g08.bks.cpg/sg15_133_cif.got.tgz:265669.got - 2010.06.03 18:47:42.
