data_PCOD9303745
_publ_section_title
;
Structure prediction by ZEFSAII (Michael W. Deem and Ramdas Pophale) SiO2 
 PCOD9303745
Probable space group: C 2/C
;
_chemical_formula_sum "Si O2"
_cell_formula_units_Z 48
_cell_length_a 12.917099
_cell_length_b 13.419175
_cell_length_c 25.729607
_cell_angle_alpha 90.000000
_cell_angle_beta 151.760070
_cell_angle_gamma 90.000000
_cell_volume 2110.262212
_symmetry_space_group_name_H-M "C 2/C"
_symmetry_group_IT_number 15
_symmetry_cell_setting 'monoclinic'
loop_
_space_group_symop_operation_xyz
x,y,z
-x,y,1/2-z
-x,-y,-z
x,-y,1/2+z
1/2+x,1/2+y,z
1/2-x,1/2+y,1/2-z
1/2-x,1/2-y,-z
1/2+x,1/2-y,1/2+z
loop_
_atom_site_type_symbol
_atom_site_label
_atom_site_fract_x
_atom_site_fract_y
_atom_site_fract_z
Si Si1 0.865991 0.346306 0.271446
Si Si2 0.291338 0.556196 0.965484
Si Si3 0.236255 0.485342 0.177444
Si Si4 0.387269 0.636394 0.121132
Si Si5 0.448145 0.868638 0.496660
Si Si6 0.956476 0.151725 0.514874
O O1 0.785026 0.400877 0.288040
O O2 0.981367 0.239242 0.328055
O O3 0.672485 0.337126 0.145268
O O4 0.059476 0.418007 0.338125
O O5 0.474153 0.611034 0.011263
O O6 0.304503 0.601220 0.028587
O O7 0.323713 0.438707 0.980359
O O8 0.441834 0.555267 0.281284
O O9 0.030068 0.562293 0.080262
O O10 0.215192 0.428309 0.113078
O O11 0.175595 0.649755 0.064594
O O12 0.353667 0.760993 0.468126
#
# Coordination Sequence:
#
# PCOD9303745 Si02
#       6
#     8   8   8   8   8   8
#     4  12  22  41  66  98 127 175 219 261 329 384
#     4  11  23  38  65 101 131 164 214 276 318 382
#     4  11  24  38  68  97 131 165 223 276 313 379
#     4  12  22  42  71  95 124 176 225 265 318 389
#     4  11  23  44  67  95 127 174 223 266 319 384
#     4  11  23  40  65  97 133 167 217 266 323 381
#
# _framework density 22.745989000000002
#
# number of rings (size 3 to 8) (size 9 to 14) (size 15 to 20)
#    0.000    0.667    6.667    2.500    0.000    0.000 
#    0.000    0.833   11.000    0.000    0.000    0.000 
#    0.000    0.000    0.000    0.000    0.000    0.000 
#
# Total GULP energy -134311.314552 kJ/mol
# GULP energy per Si atom -5596.304773 kJ/mol
# Density = 2.269422 g / cm^3
# Si number density = 22.745989 Si / 1000 Ang^3
#
#
#
# Elastic Constant Matrix: (Units=GPa)
#
#
# Indices 1 2 3 4 5 6 
#
# 1 66.2272 23.4630 15.0327 -0.0001 -12.3461 0.0000
# 2 23.4630 197.1539 44.1990 -0.0001 3.3118 0.0003
# 3 15.0327 44.1990 78.7889 0.0008 -15.0711 -0.0001
# 4 -0.0001 -0.0001 0.0008 37.9630 0.0000 0.2115
# 5 -12.3461 3.3118 -15.0711 0.0000 25.4451 -0.0002
# 6 0.0000 0.0003 -0.0001 0.2115 -0.0002 19.2309
#
#
#
# Elastic Compliance Matrix: (Units=1/GPa)
#
#
# Indices 1 2 3 4 5 6 
#
# 1 0.017549 -0.002108 -0.000546 0.000000 0.008466 0.000000
# 2 -0.002108 0.006269 -0.003909 0.000000 -0.004154 0.000000
# 3 -0.000546 -0.003909 0.016957 0.000000 0.010288 0.000000
# 4 0.000000 0.000000 0.000000 0.026343 0.000000 -0.000290
# 5 0.008466 -0.004154 0.010288 0.000000 0.050042 0.000001
# 6 0.000000 0.000000 0.000000 -0.000290 0.000001 0.052003
#
#
# Mechanical properties :
#
#
# Convention : Reuss Voigt Hill
#
# Bulk Modulus (GPa) = 36.16960 56.39549 46.28254
# Shear Modulus (GPa) = 26.10878 33.82615 29.96746
#
# Velocity S-wave (km/s) = 3.39166 3.86051 3.63365
# Velocity P-wave (km/s) = 5.59230 6.68721 6.16412
#
# Compressibility (1/GPa) = 0.02764753
#
# Stress axis : x y z
#
# Youngs Moduli (GPa) = 56.98478 159.50787 58.97157
#
# Poissons Ratio (x) = 0.33627 0.03221
# Poissons Ratio (y) = 0.12013 0.23054
# Poissons Ratio (z) = 0.03113 0.62358
#
# Static dielectric constant tensor:
#      x y z
#    x 1.918130 0.000000 0.014200 
#    y 0.000000 1.847570 0.000000 
#    z 0.014200 0.000000 1.800470 
# 
# From -- ./inp_files/296192.got.cif
#   From: 2010.05.17/outbox.cif.g08.bks.cpg/sg15_149_cif.got.tgz:296192.got - 2010.06.03 18:47:42.
