data_PCOD9303730
_publ_section_title
;
Structure prediction by ZEFSAII (Michael W. Deem and Ramdas Pophale) SiO2 
 PCOD9303730
Probable space group: C 2/C
;
_chemical_formula_sum "Si O2"
_cell_formula_units_Z 44
_cell_length_a 17.416780
_cell_length_b 14.417180
_cell_length_c 8.790665
_cell_angle_alpha 90.000000
_cell_angle_beta 67.073947
_cell_angle_gamma 90.000000
_cell_volume 2032.981818
_symmetry_space_group_name_H-M "C 2/C"
_symmetry_group_IT_number 15
_symmetry_cell_setting 'monoclinic'
loop_
_space_group_symop_operation_xyz
x,y,z
-x,y,1/2-z
-x,-y,-z
x,-y,1/2+z
1/2+x,1/2+y,z
1/2-x,1/2+y,1/2-z
1/2-x,1/2-y,-z
1/2+x,1/2-y,1/2+z
loop_
_atom_site_type_symbol
_atom_site_label
_atom_site_fract_x
_atom_site_fract_y
_atom_site_fract_z
Si Si1 0.000000 0.768879 0.250000
Si Si2 0.275065 0.319253 0.846478
Si Si3 0.932161 0.562130 0.690532
Si Si4 0.461561 0.728959 0.112924
Si Si5 0.817386 0.481352 0.522675
Si Si6 0.819399 0.317156 0.876836
O O1 0.998786 0.812078 0.425216
O O2 0.913868 0.713059 0.326147
O O3 0.363446 0.293879 0.704612
O O4 0.269486 0.430120 0.880139
O O5 0.200008 0.312645 0.785086
O O6 0.250000 0.250000 0.000000
O O7 0.968605 0.657992 0.599214
O O8 0.885807 0.499220 0.602577
O O9 0.000000 0.514830 0.750000
O O10 0.859110 0.584929 0.865092
O O11 0.500000 0.703068 0.250000
O O12 0.805328 0.581956 0.458953
O O13 0.750000 0.250000 0.000000
#
# Coordination Sequence:
#
# PCOD9303730 Si02
#       6
#     4   8   8   8   8   8
#     4  12  24  42  72 104 144 182 242 296 360 438
#     4  12  24  45  70  98 145 194 238 293 360 442
#     4  11  23  38  61 100 145 178 232 284 363 435
#     4  11  24  45  70 105 138 192 245 298 361 432
#     4  12  24  40  67 102 141 189 229 295 360 436
#     4  12  26  44  69 103 142 187 242 299 363 432
#
# _framework density 21.643087000000001
#
# number of rings (size 3 to 8) (size 9 to 14) (size 15 to 20)
#    0.000    0.364    7.273    1.636    3.818    0.000 
#    0.000    0.000    2.000    2.182    0.000    0.000 
#    0.000    0.000    0.000    0.000    0.000    0.000 
#
# Total GULP energy -122606.844616 kJ/mol
# GULP energy per Si atom -5573.038392 kJ/mol
# Density = 2.159383 g / cm^3
# Si number density = 21.643087 Si / 1000 Ang^3
#
#
#
# Elastic Constant Matrix: (Units=GPa)
#
#
# Indices 1 2 3 4 5 6 
#
# 1 113.1440 44.7233 40.2262 0.0000 13.2498 0.0000
# 2 44.7233 64.2280 30.1512 0.0000 -2.6236 0.0000
# 3 40.2262 30.1512 137.3640 0.0000 15.3221 0.0000
# 4 0.0000 0.0000 0.0000 24.7109 0.0000 -10.2779
# 5 13.2498 -2.6236 15.3221 0.0000 51.3587 0.0000
# 6 0.0000 0.0000 0.0000 -10.2779 0.0000 24.0551
#
#
#
# Elastic Compliance Matrix: (Units=1/GPa)
#
#
# Indices 1 2 3 4 5 6 
#
# 1 0.013190 -0.008567 -0.001607 0.000000 -0.003361 0.000000
# 2 -0.008567 0.023143 -0.003051 0.000000 0.004303 0.000000
# 3 -0.001607 -0.003051 0.008680 0.000000 -0.002331 0.000000
# 4 0.000000 0.000000 0.000000 0.049214 0.000000 0.021027
# 5 -0.003361 0.004303 -0.002331 0.000000 0.021253 0.000000
# 6 0.000000 0.000000 0.000000 0.021027 0.000000 0.050555
#
#
# Mechanical properties :
#
#
# Convention : Reuss Voigt Hill
#
# Bulk Modulus (GPa) = 53.87210 60.54863 57.21036
# Shear Modulus (GPa) = 25.16699 33.33394 29.25046
#
# Velocity S-wave (km/s) = 3.41371 3.92875 3.68025
# Velocity P-wave (km/s) = 6.36263 6.97258 6.67458
#
# Compressibility (1/GPa) = 0.01856248
#
# Stress axis : x y z
#
# Youngs Moduli (GPa) = 75.81711 43.20969 115.20406
#
# Poissons Ratio (x) = 0.37018 0.18515
# Poissons Ratio (y) = 0.64953 0.35148
# Poissons Ratio (z) = 0.12185 0.13183
#
# Static dielectric constant tensor:
#      x y z
#    x 1.803860 0.000000 0.054810 
#    y 0.000000 1.862960 0.000000 
#    z 0.054810 0.000000 1.982060 
# 
# From -- ./inp_files/47019.got.cif
#   From: 2010.05.17/outbox.cif.g08.bks.cpg/sg15_24_cif.got.tgz:47019.got - 2010.06.03 18:47:42.
