data_PCOD9303052
_publ_section_title
;
Structure prediction by ZEFSAII (Michael W. Deem and Ramdas Pophale) SiO2 
 PCOD9303052
Probable space group: C 2/C
;
_chemical_formula_sum "Si O2"
_cell_formula_units_Z 56
_cell_length_a 16.651632
_cell_length_b 6.631489
_cell_length_c 26.000486
_cell_angle_alpha 90.000000
_cell_angle_beta 72.771387
_cell_angle_gamma 90.000000
_cell_volume 2742.281721
_symmetry_space_group_name_H-M "C 2/C"
_symmetry_group_IT_number 15
_symmetry_cell_setting 'monoclinic'
loop_
_space_group_symop_operation_xyz
x,y,z
-x,y,1/2-z
-x,-y,-z
x,-y,1/2+z
1/2+x,1/2+y,z
1/2-x,1/2+y,1/2-z
1/2-x,1/2-y,-z
1/2+x,1/2-y,1/2+z
loop_
_atom_site_type_symbol
_atom_site_label
_atom_site_fract_x
_atom_site_fract_y
_atom_site_fract_z
Si Si1 0.266001 0.960208 0.832133
Si Si2 0.697826 0.121766 0.787133
Si Si3 0.581270 0.881726 0.127998
Si Si4 0.537522 0.810225 0.024176
Si Si5 0.093971 0.963383 0.425053
Si Si6 0.934839 0.302470 0.664481
Si Si7 0.034859 0.105260 0.297758
O O1 0.263601 0.726368 0.813300
O O2 0.182908 0.989527 0.882177
O O3 0.269179 0.072992 0.776172
O O4 0.340583 0.046097 0.853106
O O5 0.620522 0.279879 0.795920
O O6 0.652870 0.922467 0.817703
O O7 0.587649 0.882604 0.065119
O O8 0.542047 0.664612 0.150252
O O9 0.506869 0.034478 0.157017
O O10 0.459516 0.666727 0.056346
O O11 0.593627 0.666134 0.977265
O O12 0.500000 0.000000 0.000000
O O13 0.051946 0.815495 0.391207
O O14 0.943343 0.129700 0.705236
O O15 0.000000 0.174350 0.250000
#
# Coordination Sequence:
#
# PCOD9303052 Si02
#       7
#     8   8   8   8   8   8   8
#     4  12  25  44  63 101 140 174 211 282 336 402
#     4  11  25  41  64  97 145 175 214 263 346 408
#     4  11  24  42  66 101 134 168 230 279 331 393
#     4  11  23  45  73  92 123 178 227 282 328 404
#     4  11  23  43  71  93 126 174 227 267 343 395
#     4  11  22  42  68  97 128 182 223 264 323 418
#     4  11  22  41  69  99 129 179 224 272 322 413
#
# _framework density 20.420950999999999
#
# number of rings (size 3 to 8) (size 9 to 14) (size 15 to 20)
#    0.000    0.857    5.714    1.714    2.000    0.571 
#    2.571    0.714    0.000    0.000    0.000    0.000 
#    0.000    0.000    0.000    0.000    0.000    0.000 
#
# Total GULP energy -156310.946874 kJ/mol
# GULP energy per Si atom -5582.533817 kJ/mol
# Density = 2.037447 g / cm^3
# Si number density = 20.420951 Si / 1000 Ang^3
#
#
#
# Elastic Constant Matrix: (Units=GPa)
#
#
# Indices 1 2 3 4 5 6 
#
# 1 76.9017 47.3827 51.8135 0.0000 2.8607 0.0000
# 2 47.3827 114.5448 41.6389 -0.0001 -1.6138 0.0000
# 3 51.8135 41.6389 127.8389 0.0000 0.5389 0.0000
# 4 0.0000 -0.0001 0.0000 42.4665 0.0000 -1.7623
# 5 2.8607 -1.6138 0.5389 0.0000 38.3626 0.0000
# 6 0.0000 0.0000 0.0000 -1.7623 0.0000 9.2257
#
#
#
# Elastic Compliance Matrix: (Units=1/GPa)
#
#
# Indices 1 2 3 4 5 6 
#
# 1 0.021542 -0.006539 -0.006593 0.000000 -0.001789 0.000000
# 2 -0.006539 0.011896 -0.001229 0.000000 0.001005 0.000000
# 3 -0.006593 -0.001229 0.010894 0.000000 0.000287 0.000000
# 4 0.000000 0.000000 0.000000 0.023736 0.000000 0.004534
# 5 -0.001789 0.001005 0.000287 0.000000 0.026239 0.000000
# 6 0.000000 0.000000 0.000000 0.004534 0.000000 0.109259
#
#
# Mechanical properties :
#
#
# Convention : Reuss Voigt Hill
#
# Bulk Modulus (GPa) = 64.06651 66.77284 65.41967
# Shear Modulus (GPa) = 21.05346 29.90764 25.48055
#
# Velocity S-wave (km/s) = 3.21436 3.83110 3.53620
# Velocity P-wave (km/s) = 6.72437 7.23457 6.98413
#
# Compressibility (1/GPa) = 0.01560878
#
# Stress axis : x y z
#
# Youngs Moduli (GPa) = 46.42141 84.06152 91.79690
#
# Poissons Ratio (x) = 0.54971 0.60526
# Poissons Ratio (y) = 0.30357 0.11277
# Poissons Ratio (z) = 0.30608 0.10327
#
# Static dielectric constant tensor:
#      x y z
#    x 1.714120 0.000000 -0.005950 
#    y 0.000000 1.786310 0.000000 
#    z -0.005950 0.000000 1.764200 
# 
# From -- ./inp_files/297728.got.cif
#   From: 2010.05.17/outbox.cif.g08.bks.cpg/sg15_149_cif.got.tgz:297728.got - 2010.06.03 18:47:42.
