data_PCOD9303693
_publ_section_title
;
Structure prediction by ZEFSAII (Michael W. Deem and Ramdas Pophale) SiO2 
 PCOD9303693
Probable space group: C 2/C
;
_chemical_formula_sum "Si O2"
_cell_formula_units_Z 48
_cell_length_a 13.227586
_cell_length_b 12.203712
_cell_length_c 18.667558
_cell_angle_alpha 90.000000
_cell_angle_beta 58.609760
_cell_angle_gamma 90.000000
_cell_volume 2572.376741
_symmetry_space_group_name_H-M "C 2/C"
_symmetry_group_IT_number 15
_symmetry_cell_setting 'monoclinic'
loop_
_space_group_symop_operation_xyz
x,y,z
-x,y,1/2-z
-x,-y,-z
x,-y,1/2+z
1/2+x,1/2+y,z
1/2-x,1/2+y,1/2-z
1/2-x,1/2-y,-z
1/2+x,1/2-y,1/2+z
loop_
_atom_site_type_symbol
_atom_site_label
_atom_site_fract_x
_atom_site_fract_y
_atom_site_fract_z
Si Si1 0.438809 0.526433 0.946527
Si Si2 0.031724 0.160744 0.321370
Si Si3 0.795926 0.410902 0.751502
Si Si4 0.008457 0.231005 0.832633
Si Si5 0.520204 0.089039 0.829135
Si Si6 0.677128 0.917888 0.586939
O O1 0.444632 0.416035 0.898183
O O2 0.509098 0.620799 0.877845
O O3 0.500000 0.500000 0.000000
O O4 0.304654 0.568011 0.005061
O O5 0.162129 0.109786 0.280093
O O6 0.029019 0.285919 0.349697
O O7 0.000000 0.161652 0.250000
O O8 0.860907 0.520005 0.699214
O O9 0.802796 0.419633 0.834894
O O10 0.876900 0.307599 0.699329
O O11 0.896888 0.306520 0.897813
O O12 0.000000 0.209356 0.750000
O O13 0.500000 0.089024 0.750000
O O14 0.410251 0.018809 0.899622
#
# Coordination Sequence:
#
# PCOD9303693 Si02
#       6
#     8   8   8   8   8   8
#     4  12  23  35  56  89 122 149 187 240 298 331
#     4  11  23  36  56  88 117 153 188 235 287 343
#     4   9  18  37  62  83 109 154 199 233 279 338
#     4   9  20  38  63  86 108 154 201 239 275 336
#     4   8  18  36  59  80 112 153 194 232 281 343
#     4   9  18  39  60  82 114 151 191 238 289 339
#
# _framework density 18.659787000000001
#
# number of rings (size 3 to 8) (size 9 to 14) (size 15 to 20)
#    0.000    2.333    1.667    3.000    2.333    2.000 
#    0.000    0.000    0.000    4.000    0.000    0.000 
#    0.000    0.000    0.000    0.000    0.000    0.000 
#
# Total GULP energy -133891.986680 kJ/mol
# GULP energy per Si atom -5578.832778 kJ/mol
# Density = 1.861732 g / cm^3
# Si number density = 18.659787 Si / 1000 Ang^3
#
#
#
# Elastic Constant Matrix: (Units=GPa)
#
#
# Indices 1 2 3 4 5 6 
#
# 1 71.2541 26.2840 8.2270 0.0000 -14.6294 0.0000
# 2 26.2840 145.0913 51.1618 0.0000 -4.0686 0.0000
# 3 8.2270 51.1618 56.0502 0.0000 -15.2185 0.0000
# 4 0.0000 0.0000 0.0000 23.0865 0.0000 7.2761
# 5 -14.6294 -4.0686 -15.2185 0.0000 25.9527 0.0000
# 6 0.0000 0.0000 0.0000 7.2761 0.0000 8.5638
#
#
#
# Elastic Compliance Matrix: (Units=1/GPa)
#
#
# Indices 1 2 3 4 5 6 
#
# 1 0.017639 -0.004571 0.004863 0.000000 0.012078 0.000000
# 2 -0.004571 0.011827 -0.012275 0.000000 -0.007921 0.000000
# 3 0.004863 -0.012275 0.033960 0.000000 0.020731 0.000000
# 4 0.000000 0.000000 0.000000 0.059156 0.000000 -0.050261
# 5 0.012078 -0.007921 0.020731 0.000000 0.056255 0.000000
# 6 0.000000 0.000000 0.000000 -0.050261 0.000000 0.159475
#
#
# Mechanical properties :
#
#
# Convention : Reuss Voigt Hill
#
# Bulk Modulus (GPa) = 25.34241 49.30459 37.32350
# Shear Modulus (GPa) = 13.31806 23.96879 18.64342
#
# Velocity S-wave (km/s) = 2.67447 3.58790 3.16432
# Velocity P-wave (km/s) = 4.81122 6.60639 5.77893
#
# Compressibility (1/GPa) = 0.03945955
#
# Stress axis : x y z
#
# Youngs Moduli (GPa) = 56.69304 84.55580 29.44622
#
# Poissons Ratio (x) = 0.38655 -0.14320
# Poissons Ratio (y) = 0.25917 0.36144
# Poissons Ratio (z) = -0.27570 1.03789
#
# Static dielectric constant tensor:
#      x y z
#    x 1.630400 0.000000 -0.011670 
#    y 0.000000 1.651270 0.000000 
#    z -0.011670 0.000000 1.640090 
# 
# From -- ./inp_files/152084.got.cif
#   From: 2010.05.17/outbox.cif.g08.bks.cpg/sg15_77_cif.got.tgz:152084.got - 2010.06.03 18:47:42.
