data_PCOD9303457
_publ_section_title
;
Structure prediction by ZEFSAII (Michael W. Deem and Ramdas Pophale) SiO2 
 PCOD9303457
Probable space group: C 2/C
;
_chemical_formula_sum "Si O2"
_cell_formula_units_Z 40
_cell_length_a 30.283257
_cell_length_b 7.830674
_cell_length_c 10.439716
_cell_angle_alpha 90.000000
_cell_angle_beta 133.527690
_cell_angle_gamma 90.000000
_cell_volume 1794.954096
_symmetry_space_group_name_H-M "C 2/C"
_symmetry_group_IT_number 15
_symmetry_cell_setting 'monoclinic'
loop_
_space_group_symop_operation_xyz
x,y,z
-x,y,1/2-z
-x,-y,-z
x,-y,1/2+z
1/2+x,1/2+y,z
1/2-x,1/2+y,1/2-z
1/2-x,1/2-y,-z
1/2+x,1/2-y,1/2+z
loop_
_atom_site_type_symbol
_atom_site_label
_atom_site_fract_x
_atom_site_fract_y
_atom_site_fract_z
Si Si1 0.570714 0.844063 0.402880
Si Si2 0.541130 0.492230 0.456415
Si Si3 0.322832 0.912561 0.330660
Si Si4 0.282761 0.357255 0.952802
Si Si5 0.358716 0.314442 0.698004
O O1 0.500000 0.896074 0.250000
O O2 0.569354 0.678791 0.490720
O O3 0.601746 0.774331 0.334315
O O4 0.613156 0.991246 0.540173
O O5 0.500000 0.453086 0.250000
O O6 0.500000 0.500000 0.500000
O O7 0.595172 0.364952 0.595824
O O8 0.317445 0.777988 0.433936
O O9 0.270093 0.053790 0.236828
O O10 0.314407 0.820215 0.176965
O O11 0.326003 0.512552 0.085537
O O12 0.250000 0.250000 0.000000
#
# Coordination Sequence:
#
# PCOD9303457 Si02
#       5
#     8   8   8   8   8
#     4  11  24  45  68 108 149 191 242 297 363 445
#     4  11  22  44  72 104 149 195 238 294 361 441
#     4  12  26  44  73 105 143 194 246 310 368 437
#     4  12  25  47  71 103 144 190 252 307 368 436
#     4  12  24  45  73 104 144 191 245 304 373 438
#
# _framework density 22.284690000000001
#
# number of rings (size 3 to 8) (size 9 to 14) (size 15 to 20)
#    0.000    0.400    4.000    6.600    0.000    1.600 
#    0.000    0.000    0.000    0.000    0.000    0.000 
#    0.000    0.000    0.000    0.000    0.000    0.000 
#
# Total GULP energy -111956.590368 kJ/mol
# GULP energy per Si atom -5597.829518 kJ/mol
# Density = 2.223397 g / cm^3
# Si number density = 22.284690 Si / 1000 Ang^3
#
#
#
# Elastic Constant Matrix: (Units=GPa)
#
#
# Indices 1 2 3 4 5 6 
#
# 1 102.2138 28.0133 41.6738 0.0000 -20.7318 0.0000
# 2 28.0133 95.5690 54.6805 0.0000 3.1889 0.0000
# 3 41.6738 54.6805 91.0479 0.0000 1.6507 0.0000
# 4 0.0000 0.0000 0.0000 54.9169 0.0000 1.5025
# 5 -20.7318 3.1889 1.6507 0.0000 45.1719 0.0000
# 6 0.0000 0.0000 0.0000 1.5025 0.0000 28.7110
#
#
#
# Elastic Compliance Matrix: (Units=1/GPa)
#
#
# Indices 1 2 3 4 5 6 
#
# 1 0.013764 -0.000886 -0.005888 0.000000 0.006595 0.000000
# 2 -0.000886 0.016026 -0.009197 0.000000 -0.001202 0.000000
# 3 -0.005888 -0.009197 0.019252 0.000000 -0.002756 0.000000
# 4 0.000000 0.000000 0.000000 0.018235 0.000000 -0.000954
# 5 0.006595 -0.001202 -0.002756 0.000000 0.025350 0.000000
# 6 0.000000 0.000000 0.000000 -0.000954 0.000000 0.034880
#
#
# Mechanical properties :
#
#
# Convention : Reuss Voigt Hill
#
# Bulk Modulus (GPa) = 58.47955 59.72956 59.10455
# Shear Modulus (GPa) = 30.27583 36.72419 33.50001
#
# Velocity S-wave (km/s) = 3.68991 4.06391 3.88141
# Velocity P-wave (km/s) = 6.66730 6.99154 6.83134
#
# Compressibility (1/GPa) = 0.01709999
#
# Stress axis : x y z
#
# Youngs Moduli (GPa) = 72.65176 62.39970 51.94386
#
# Poissons Ratio (x) = 0.05529 0.30582
# Poissons Ratio (y) = 0.06437 0.47774
# Poissons Ratio (z) = 0.42774 0.57390
#
# Static dielectric constant tensor:
#      x y z
#    x 1.791130 0.000000 0.050210 
#    y 0.000000 1.791920 0.000000 
#    z 0.050210 0.000000 1.818560 
# 
# From -- ./inp_files/68437.got.cif
#   From: 2010.05.17/outbox.cif.g08.bks.cpg/sg15_35_cif.got.tgz:68437.got - 2010.06.03 18:47:42.
