data_PCOD9303767
_publ_section_title
;
Structure prediction by ZEFSAII (Michael W. Deem and Ramdas Pophale) SiO2 
 PCOD9303767
Probable space group: C 2/C
;
_chemical_formula_sum "Si O2"
_cell_formula_units_Z 48
_cell_length_a 8.874756
_cell_length_b 29.076338
_cell_length_c 8.332897
_cell_angle_alpha 90.000000
_cell_angle_beta 91.522619
_cell_angle_gamma 90.000000
_cell_volume 2149.506551
_symmetry_space_group_name_H-M "C 2/C"
_symmetry_group_IT_number 15
_symmetry_cell_setting 'monoclinic'
loop_
_space_group_symop_operation_xyz
x,y,z
-x,y,1/2-z
-x,-y,-z
x,-y,1/2+z
1/2+x,1/2+y,z
1/2-x,1/2+y,1/2-z
1/2-x,1/2-y,-z
1/2+x,1/2-y,1/2+z
loop_
_atom_site_type_symbol
_atom_site_label
_atom_site_fract_x
_atom_site_fract_y
_atom_site_fract_z
Si Si1 0.328042 0.441524 0.295693
Si Si2 0.836354 0.642014 0.818809
Si Si3 0.330518 0.105752 0.181218
Si Si4 0.165464 0.813095 0.832532
Si Si5 0.667377 0.723930 0.697899
Si Si6 0.824277 0.512584 0.010682
O O1 0.500000 0.447668 0.250000
O O2 0.282463 0.388425 0.285889
O O3 0.276751 0.468237 0.452455
O O4 0.225300 0.464404 0.155632
O O5 0.791517 0.694390 0.794603
O O6 0.000000 0.632267 0.750000
O O7 0.825462 0.628483 0.004147
O O8 0.500000 0.108400 0.250000
O O9 0.223015 0.135485 0.293935
O O10 0.296687 0.052029 0.145021
O O11 0.287873 0.776746 0.769558
O O12 0.000000 0.807506 0.750000
O O13 0.166335 0.795678 0.016158
O O14 0.500000 0.715373 0.750000
O O15 0.000000 0.500000 0.000000
#
# Coordination Sequence:
#
# PCOD9303767 Si02
#       6
#     8   8   8   8   8   8
#     4  11  23  39  61  92 126 164 213 268 327 390
#     4  11  23  40  64  91 124 169 216 265 326 393
#     4  11  23  40  63  93 126 165 215 268 322 387
#     4  11  25  42  64  95 129 169 216 268 329 392
#     4  11  24  43  66  93 129 171 217 270 327 393
#     4  11  23  42  65  92 128 172 217 267 330 399
#
# _framework density 22.330708000000001
#
# number of rings (size 3 to 8) (size 9 to 14) (size 15 to 20)
#    0.000    1.000    0.000    7.500    0.000    8.667 
#    0.000    0.000    0.000    0.000    0.000    0.000 
#    0.000    0.000    0.000    0.000    0.000    0.000 
#
# Total GULP energy -134214.728433 kJ/mol
# GULP energy per Si atom -5592.280351 kJ/mol
# Density = 2.227988 g / cm^3
# Si number density = 22.330708 Si / 1000 Ang^3
#
#
#
# Elastic Constant Matrix: (Units=GPa)
#
#
# Indices 1 2 3 4 5 6 
#
# 1 80.8785 1.1177 -5.5346 0.0000 -8.8432 0.0000
# 2 1.1177 91.3533 13.5142 0.0000 -5.2787 0.0000
# 3 -5.5346 13.5142 39.7289 0.0000 1.1693 0.0000
# 4 0.0000 0.0000 0.0000 -37.2847 0.0000 -44.0371
# 5 -8.8432 -5.2787 1.1693 0.0000 36.9523 0.0000
# 6 0.0000 0.0000 0.0000 -44.0371 0.0000 5.7541
#
#
#
# Elastic Compliance Matrix: (Units=1/GPa)
#
#
# Indices 1 2 3 4 5 6 
#
# 1 0.012815 -0.000249 0.001782 0.000000 0.002975 0.000000
# 2 -0.000249 0.011648 -0.004048 0.000000 0.001733 0.000000
# 3 0.001782 -0.004048 0.026825 0.000000 -0.001001 0.000000
# 4 0.000000 0.000000 0.000000 -0.002672 0.000000 -0.020446
# 5 0.002975 0.001733 -0.001001 0.000000 0.028053 0.000000
# 6 0.000000 0.000000 0.000000 -0.020446 0.000000 0.017311
#
#
# Mechanical properties :
#
#
# Convention : Reuss Voigt Hill
#
# Bulk Modulus (GPa) = 21.61691 25.57282 23.59486
# Shear Modulus (GPa) = 43.69492 14.60856 29.15174
#
# Velocity S-wave (km/s) = 4.42828 2.56049 3.61703
# Velocity P-wave (km/s) = 5.98729 4.49647 5.29461
#
# Compressibility (1/GPa) = 0.04626009
#
# Stress axis : x y z
#
# Youngs Moduli (GPa) = 78.03415 85.84799 37.27828
#
# Poissons Ratio (x) = 0.02134 -0.06644
# Poissons Ratio (y) = 0.01940 0.15090
# Poissons Ratio (z) = -0.13908 0.34751
#
# Static dielectric constant tensor:
#      x y z
#    x 1.743830 0.000000 0.006840 
#    y 0.000000 1.848970 0.000000 
#    z 0.006840 0.000000 1.653120 
# 
# From -- ./inp_files/26101.got.cif
#   From: 2010.05.17/outbox.cif.g08.bks.cpg/sg15_14_cif.got.tgz:26101.got - 2010.06.03 18:47:42.
