data_PCOD9303690
_publ_section_title
;
Structure prediction by ZEFSAII (Michael W. Deem and Ramdas Pophale) SiO2 
 PCOD9303690
Probable space group: C 2/C
;
_chemical_formula_sum "Si O2"
_cell_formula_units_Z 64
_cell_length_a 13.706340
_cell_length_b 13.963943
_cell_length_c 18.688433
_cell_angle_alpha 90.000000
_cell_angle_beta 53.266697
_cell_angle_gamma 90.000000
_cell_volume 2866.599653
_symmetry_space_group_name_H-M "C 2/C"
_symmetry_group_IT_number 15
_symmetry_cell_setting 'monoclinic'
loop_
_space_group_symop_operation_xyz
x,y,z
-x,y,1/2-z
-x,-y,-z
x,-y,1/2+z
1/2+x,1/2+y,z
1/2-x,1/2+y,1/2-z
1/2-x,1/2-y,-z
1/2+x,1/2-y,1/2+z
loop_
_atom_site_type_symbol
_atom_site_label
_atom_site_fract_x
_atom_site_fract_y
_atom_site_fract_z
Si Si1 0.059465 0.715230 0.616259
Si Si2 0.672314 0.817317 0.634102
Si Si3 0.331910 0.372907 0.137959
Si Si4 0.692936 0.820383 0.327542
Si Si5 0.233666 0.679707 0.402714
Si Si6 0.596935 0.653615 0.572334
Si Si7 0.348533 0.977613 0.381412
Si Si8 0.282014 0.031947 0.570331
O O1 0.143442 0.699023 0.509482
O O2 0.130057 0.794190 0.631017
O O3 0.063930 0.613630 0.655389
O O4 0.922646 0.734006 0.653598
O O5 0.708406 0.753757 0.685875
O O6 0.586554 0.753447 0.620438
O O7 0.798964 0.830024 0.533383
O O8 0.627750 0.923769 0.669692
O O9 0.253254 0.391105 0.243444
O O10 0.305022 0.260706 0.135471
O O11 0.473638 0.382622 0.091247
O O12 0.276829 0.432918 0.096035
O O13 0.652250 0.887057 0.412019
O O14 0.225251 0.569127 0.386810
O O15 0.652402 0.578021 0.604773
O O16 0.340680 0.010352 0.467575
#
# Coordination Sequence:
#
# PCOD9303690 Si02
#       8
#     8   8   8   8   8   8   8   8
#     4   9  19  37  58  80 110 144 185 232 273 330
#     4   9  19  36  58  81 105 144 190 227 274 332
#     4  11  23  36  54  84 117 146 183 235 286 328
#     4  11  23  36  54  84 117 146 183 235 286 328
#     4   9  19  36  58  81 105 144 190 227 274 332
#     4   9  19  37  58  80 110 144 185 232 273 330
#     4   9  20  37  57  82 108 142 187 228 274 333
#     4   9  20  37  57  82 108 142 187 228 274 333
#
# _framework density 22.326103
#
# number of rings (size 3 to 8) (size 9 to 14) (size 15 to 20)
#    0.000    2.500    0.000    2.250    0.000   11.000 
#    0.000    2.500    0.000    0.000    0.000    0.000 
#    0.000    0.000    0.000    0.000    0.000    0.000 
#
# Total GULP energy -178608.592884 kJ/mol
# GULP energy per Si atom -5581.518528 kJ/mol
# Density = 2.227529 g / cm^3
# Si number density = 22.326103 Si / 1000 Ang^3
#
#
#
# Elastic Constant Matrix: (Units=GPa)
#
#
# Indices 1 2 3 4 5 6 
#
# 1 44.3748 -36.2832 6.4286 0.0000 -18.4258 0.0000
# 2 -36.2832 68.1070 -19.0385 0.0000 -9.1973 0.0000
# 3 6.4286 -19.0385 38.9677 0.0000 -17.1072 0.0000
# 4 0.0000 0.0000 0.0000 5.6989 0.0000 13.3504
# 5 -18.4258 -9.1973 -17.1072 0.0000 6.6696 0.0000
# 6 0.0000 0.0000 0.0000 13.3504 0.0000 1.1170
#
#
#
# Elastic Compliance Matrix: (Units=1/GPa)
#
#
# Indices 1 2 3 4 5 6 
#
# 1 0.007602 -0.005231 -0.017803 0.000000 -0.031874 0.000000
# 2 -0.005231 0.005950 -0.008153 0.000000 -0.027158 0.000000
# 3 -0.017803 -0.008153 0.015164 0.000000 -0.021530 0.000000
# 4 0.000000 0.000000 0.000000 -0.006499 0.000000 0.077678
# 5 -0.031874 -0.027158 -0.021530 0.000000 -0.030796 0.000000
# 6 0.000000 0.000000 0.000000 0.077678 0.000000 -0.033158
#
#
# Mechanical properties :
#
#
# Convention : Reuss Voigt Hill
#
# Bulk Modulus (GPa) = -29.71213 5.96259 -11.87477
# Shear Modulus (GPa) = 530.97855 16.05326 273.51590
#
# Velocity S-wave (km/s) = 15.43842 2.68439 11.08041
# Velocity P-wave (km/s) = 17.44867 3.50492 12.58452
#
# Compressibility (1/GPa) = -0.03365629
#
# Stress axis : x y z
#
# Youngs Moduli (GPa) = 131.53793 168.07547 65.94441
#
# Poissons Ratio (x) = 0.87917 1.17400
# Poissons Ratio (y) = 0.68805 0.53762
# Poissons Ratio (z) = 2.34175 1.37027
#
# Static dielectric constant tensor:
#      x y z
#    x 1.772890 0.000000 -0.042900 
#    y 0.000000 1.827610 0.000000 
#    z -0.042900 0.000000 1.735070 
# 
# From -- ./inp_files/238723.got.cif
#   From: 2010.05.17/outbox.cif.g08.bks.cpg/sg15_120_cif.got.tgz:238723.got - 2010.06.03 18:47:42.
