data_PCOD9303229
_publ_section_title
;
Structure prediction by ZEFSAII (Michael W. Deem and Ramdas Pophale) SiO2 
 PCOD9303229
Probable space group: C 2/C
;
_chemical_formula_sum "Si O2"
_cell_formula_units_Z 48
_cell_length_a 19.060571
_cell_length_b 16.264192
_cell_length_c 15.749210
_cell_angle_alpha 90.000000
_cell_angle_beta 153.462796
_cell_angle_gamma 90.000000
_cell_volume 2181.321894
_symmetry_space_group_name_H-M "C 2/C"
_symmetry_group_IT_number 15
_symmetry_cell_setting 'monoclinic'
loop_
_space_group_symop_operation_xyz
x,y,z
-x,y,1/2-z
-x,-y,-z
x,-y,1/2+z
1/2+x,1/2+y,z
1/2-x,1/2+y,1/2-z
1/2-x,1/2-y,-z
1/2+x,1/2-y,1/2+z
loop_
_atom_site_type_symbol
_atom_site_label
_atom_site_fract_x
_atom_site_fract_y
_atom_site_fract_z
Si Si1 0.267246 0.230915 0.219703
Si Si2 0.454102 0.670601 0.798222
Si Si3 0.090763 0.828906 0.972470
Si Si4 0.578942 0.928892 0.531311
Si Si5 0.407755 0.488781 0.812188
Si Si6 0.889991 0.318132 0.211989
O O1 0.316292 0.271621 0.183745
O O2 0.302274 0.300705 0.330174
O O3 0.364302 0.149775 0.352166
O O4 0.093172 0.197085 0.014161
O O5 0.500000 0.682937 0.750000
O O6 0.412297 0.574961 0.768031
O O7 0.202801 0.816919 0.011945
O O8 0.011166 0.917032 0.882419
O O9 0.950282 0.764129 0.822501
O O10 0.731293 0.959505 0.643588
O O11 0.442201 0.896240 0.322891
O O12 0.500000 0.000000 0.500000
O O13 0.500000 0.500000 0.000000
O O14 0.000000 0.325295 0.250000
#
# Coordination Sequence:
#
# PCOD9303229 Si02
#       6
#     8   8   8   8   8   8
#     4  11  22  44  68  96 130 179 229 265 325 409
#     4  12  27  43  68 102 139 176 222 281 344 394
#     4  11  22  42  72  97 133 180 223 271 327 413
#     4  11  24  43  68  96 128 178 227 277 331 403
#     4  12  23  44  69  97 132 172 228 277 331 403
#     4  11  24  40  65 101 137 171 216 276 339 393
#
# _framework density 22.005005000000001
#
# number of rings (size 3 to 8) (size 9 to 14) (size 15 to 20)
#    0.000    0.667    3.333    6.000    2.333    2.000 
#    0.000    0.000    0.000    0.000    0.000    0.000 
#    0.000    0.000    0.000    0.000    0.000    0.000 
#
# Total GULP energy -134136.301989 kJ/mol
# GULP energy per Si atom -5589.012583 kJ/mol
# Density = 2.195492 g / cm^3
# Si number density = 22.005005 Si / 1000 Ang^3
#
#
#
# Elastic Constant Matrix: (Units=GPa)
#
#
# Indices 1 2 3 4 5 6 
#
# 1 126.3148 56.0713 14.9829 -0.0004 22.3903 -0.0003
# 2 56.0713 134.5791 27.9242 -0.0001 24.1094 -0.0003
# 3 14.9829 27.9242 59.7399 -0.0008 18.2938 -0.0012
# 4 -0.0004 -0.0001 -0.0008 26.0503 -0.0007 11.7341
# 5 22.3903 24.1094 18.2938 -0.0007 45.3046 -0.0008
# 6 -0.0003 -0.0003 -0.0012 11.7341 -0.0008 40.5919
#
#
#
# Elastic Compliance Matrix: (Units=1/GPa)
#
#
# Indices 1 2 3 4 5 6 
#
# 1 0.010078 -0.003675 0.000133 0.000000 -0.003079 0.000000
# 2 -0.003675 0.010003 -0.003058 0.000000 -0.002272 0.000000
# 3 0.000133 -0.003058 0.020149 0.000000 -0.006574 0.000000
# 4 0.000000 0.000000 0.000000 0.044134 0.000000 -0.012758
# 5 -0.003079 -0.002272 -0.006574 0.000000 0.027458 0.000000
# 6 0.000000 0.000000 0.000000 -0.012758 0.000000 0.028324
#
#
# Mechanical properties :
#
#
# Convention : Reuss Voigt Hill
#
# Bulk Modulus (GPa) = 36.99693 57.62118 47.30905
# Shear Modulus (GPa) = 30.79651 37.16639 33.98145
#
# Velocity S-wave (km/s) = 3.74508 4.11420 3.93397
# Velocity P-wave (km/s) = 5.96241 6.98650 6.49467
#
# Compressibility (1/GPa) = 0.02702927
#
# Stress axis : x y z
#
# Youngs Moduli (GPa) = 99.22597 99.96632 49.63125
#
# Poissons Ratio (x) = 0.36737 -0.00660
# Poissons Ratio (y) = 0.36465 0.15179
# Poissons Ratio (z) = -0.01319 0.30573
#
# Static dielectric constant tensor:
#      x y z
#    x 1.916690 0.000000 0.053670 
#    y 0.000000 1.826920 0.000000 
#    z 0.053670 0.000000 1.918540 
# 
# From -- ./inp_files/163319.got.cif
#   From: 2010.05.17/outbox.cif.g08.bks.cpg/sg15_82_cif.got.tgz:163319.got - 2010.06.03 18:47:42.
