data_PCOD9303654
_publ_section_title
;
Structure prediction by ZEFSAII (Michael W. Deem and Ramdas Pophale) SiO2 
 PCOD9303654
Probable space group: C 2/C
;
_chemical_formula_sum "Si O2"
_cell_formula_units_Z 56
_cell_length_a 17.454363
_cell_length_b 14.026775
_cell_length_c 10.413641
_cell_angle_alpha 90.000000
_cell_angle_beta 121.433824
_cell_angle_gamma 90.000000
_cell_volume 2175.390405
_symmetry_space_group_name_H-M "C 2/C"
_symmetry_group_IT_number 15
_symmetry_cell_setting 'monoclinic'
loop_
_space_group_symop_operation_xyz
x,y,z
-x,y,1/2-z
-x,-y,-z
x,-y,1/2+z
1/2+x,1/2+y,z
1/2-x,1/2+y,1/2-z
1/2-x,1/2-y,-z
1/2+x,1/2-y,1/2+z
loop_
_atom_site_type_symbol
_atom_site_label
_atom_site_fract_x
_atom_site_fract_y
_atom_site_fract_z
Si Si1 0.406232 0.209920 0.538269
Si Si2 0.206290 0.946689 0.309938
Si Si3 0.358363 0.103985 0.116510
Si Si4 0.560423 0.733204 0.979483
Si Si5 0.758123 0.268693 0.727746
Si Si6 0.000000 0.537625 0.750000
Si Si7 0.902031 0.981912 0.030179
Si Si8 0.000000 0.868339 0.750000
O O1 0.471762 0.240505 0.478756
O O2 0.305976 0.204317 0.400782
O O3 0.445202 0.109495 0.614276
O O4 0.420426 0.291685 0.657726
O O5 0.308383 0.949574 0.454526
O O6 0.200420 0.832602 0.280674
O O7 0.150882 0.987561 0.381202
O O8 0.166000 0.994095 0.145968
O O9 0.285381 0.153098 0.144826
O O10 0.425068 0.031459 0.245334
O O11 0.415525 0.191101 0.109057
O O12 0.651904 0.739875 0.143142
O O13 0.558637 0.624073 0.935456
O O14 0.018681 0.939921 0.884956
#
# Coordination Sequence:
#
# PCOD9303654 Si02
#       8
#     8   8   8   8   8   4   8   4
#     4  11  26  48  67 104 151 191 247 316 379 442
#     4  11  24  42  71 107 147 188 243 302 368 448
#     4  11  23  45  71 103 142 191 251 308 363 446
#     4  11  24  42  73 104 141 192 243 306 375 438
#     4  11  22  47  72 102 145 195 246 312 363 450
#     4  11  28  45  68 104 144 199 248 315 378 444
#     4  12  24  43  72 110 142 193 242 302 376 448
#     4  11  26  45  66 102 154 187 246 309 382 444
#
# _framework density 25.742505000000001
#
# number of rings (size 3 to 8) (size 9 to 14) (size 15 to 20)
#    0.000    0.857    4.286    2.571    4.000    6.286 
#    0.000    1.429    0.000    0.000    0.000    0.000 
#    0.000    0.000    0.000    0.000    0.000    0.000 
#
# Total GULP energy -156677.279493 kJ/mol
# GULP energy per Si atom -5595.617125 kJ/mol
# Density = 2.568391 g / cm^3
# Si number density = 25.742505 Si / 1000 Ang^3
#
#
#
# Elastic Constant Matrix: (Units=GPa)
#
#
# Indices 1 2 3 4 5 6 
#
# 1 63.7222 18.3684 14.2301 0.0000 -5.7004 0.0000
# 2 18.3684 152.6518 43.1329 0.0000 -2.7449 0.0000
# 3 14.2301 43.1329 160.5750 0.0000 13.5579 0.0000
# 4 0.0000 0.0000 0.0000 34.3208 0.0000 8.0935
# 5 -5.7004 -2.7449 13.5579 0.0000 41.6000 0.0000
# 6 0.0000 0.0000 0.0000 8.0935 0.0000 13.4286
#
#
#
# Elastic Compliance Matrix: (Units=1/GPa)
#
#
# Indices 1 2 3 4 5 6 
#
# 1 0.016669 -0.001602 -0.001266 0.000000 0.002591 0.000000
# 2 -0.001602 0.007294 -0.001891 0.000000 0.000878 0.000000
# 3 -0.001266 -0.001891 0.007068 0.000000 -0.002602 0.000000
# 4 0.000000 0.000000 0.000000 0.033964 0.000000 -0.020470
# 5 0.002591 0.000878 -0.002602 0.000000 0.025299 0.000000
# 6 0.000000 0.000000 0.000000 -0.020470 0.000000 0.086806
#
#
# Mechanical properties :
#
#
# Convention : Reuss Voigt Hill
#
# Bulk Modulus (GPa) = 46.48354 58.71244 52.59799
# Shear Modulus (GPa) = 25.80136 37.95106 31.87621
#
# Velocity S-wave (km/s) = 3.16933 3.84377 3.52273
# Velocity P-wave (km/s) = 5.61152 6.52354 6.08464
#
# Compressibility (1/GPa) = 0.02151299
#
# Stress axis : x y z
#
# Youngs Moduli (GPa) = 59.99077 137.10269 141.49209
#
# Poissons Ratio (x) = 0.21958 0.17910
# Poissons Ratio (y) = 0.09608 0.26763
# Poissons Ratio (z) = 0.07594 0.25932
#
# Static dielectric constant tensor:
#      x y z
#    x 2.019460 0.000000 -0.013540 
#    y 0.000000 2.008150 0.000000 
#    z -0.013540 0.000000 2.093730 
# 
# From -- ./inp_files/105842.got.cif
#   From: 2010.05.17/outbox.cif.g08.bks.cpg/sg15_53_cif.got.tgz:105842.got - 2010.06.03 18:47:42.
