data_PCOD9303589
_publ_section_title
;
Structure prediction by ZEFSAII (Michael W. Deem and Ramdas Pophale) SiO2 
 PCOD9303589
Probable space group: C 2/C
;
_chemical_formula_sum "Si O2"
_cell_formula_units_Z 40
_cell_length_a 11.394939
_cell_length_b 12.929330
_cell_length_c 18.858759
_cell_angle_alpha 90.000000
_cell_angle_beta 34.702548
_cell_angle_gamma 90.000000
_cell_volume 1581.810992
_symmetry_space_group_name_H-M "C 2/C"
_symmetry_group_IT_number 15
_symmetry_cell_setting 'monoclinic'
loop_
_space_group_symop_operation_xyz
x,y,z
-x,y,1/2-z
-x,-y,-z
x,-y,1/2+z
1/2+x,1/2+y,z
1/2-x,1/2+y,1/2-z
1/2-x,1/2-y,-z
1/2+x,1/2-y,1/2+z
loop_
_atom_site_type_symbol
_atom_site_label
_atom_site_fract_x
_atom_site_fract_y
_atom_site_fract_z
Si Si1 0.470933 0.618568 0.496514
Si Si2 0.100629 0.425529 0.081719
Si Si3 0.650710 0.649513 0.784259
Si Si4 0.707498 0.559153 0.166218
Si Si5 0.404453 0.862051 0.705391
O O1 0.500000 0.500000 0.500000
O O2 0.279864 0.628634 0.537548
O O3 0.425097 0.656972 0.597441
O O4 0.686607 0.644992 0.353772
O O5 0.900915 0.353495 0.169098
O O6 0.033270 0.533217 0.154570
O O7 0.179087 0.457939 0.964474
O O8 0.630819 0.543186 0.748630
O O9 0.520909 0.745963 0.817704
O O10 0.500000 0.619355 0.250000
O O11 0.846335 0.621325 0.151851
#
# Coordination Sequence:
#
# PCOD9303589 Si02
#       5
#     8   8   8   8   8
#     4  12  23  45  68  98 136 173 224 271 326 395
#     4  11  24  45  70  91 138 179 213 275 336 384
#     4  11  25  41  66 104 130 170 224 272 326 394
#     4  11  22  46  65  93 133 177 217 269 331 393
#     4  11  25  42  68  99 132 172 222 272 330 389
#
# _framework density 25.287472999999999
#
# number of rings (size 3 to 8) (size 9 to 14) (size 15 to 20)
#    0.000    0.800    6.000    3.000    5.600    2.400 
#    3.600    2.000    0.000    0.000    0.000    0.000 
#    0.000    0.000    0.000    0.000    0.000    0.000 
#
# Total GULP energy -111603.123512 kJ/mol
# GULP energy per Si atom -5580.156176 kJ/mol
# Density = 2.522992 g / cm^3
# Si number density = 25.287473 Si / 1000 Ang^3
#
#
#
# Elastic Constant Matrix: (Units=GPa)
#
#
# Indices 1 2 3 4 5 6 
#
# 1 101.9916 -22.4972 37.3845 -0.0004 35.7448 0.0003
# 2 -22.4972 102.7761 13.8944 -0.0013 22.0194 0.0006
# 3 37.3845 13.8944 178.2621 -0.0036 34.6229 0.0020
# 4 -0.0004 -0.0013 -0.0036 -21.3141 0.0010 -6.7563
# 5 35.7448 22.0194 34.6229 0.0010 45.6586 -0.0005
# 6 0.0003 0.0006 0.0020 -6.7563 -0.0005 -31.3597
#
#
#
# Elastic Compliance Matrix: (Units=1/GPa)
#
#
# Indices 1 2 3 4 5 6 
#
# 1 0.017751 0.007622 -0.001060 -0.000002 -0.016769 0.000001
# 2 0.007622 0.014130 -0.000255 -0.000002 -0.012588 0.000001
# 3 -0.001060 -0.000255 0.006646 -0.000002 -0.004087 0.000001
# 4 -0.000002 -0.000002 -0.000002 -0.050356 0.000005 0.010849
# 5 -0.016769 -0.012588 -0.004087 0.000005 0.044199 -0.000002
# 6 0.000001 0.000001 0.000001 0.010849 -0.000002 -0.034225
#
#
# Mechanical properties :
#
#
# Convention : Reuss Voigt Hill
#
# Bulk Modulus (GPa) = 19.55404 48.95479 34.25442
# Shear Modulus (GPa) = 1940.45040 22.21350 981.33195
#
# Velocity S-wave (km/s) = 27.73125 2.96706 19.72087
# Velocity P-wave (km/s) = 32.14207 5.58026 23.06785
#
# Compressibility (1/GPa) = 0.05114032
#
# Stress axis : x y z
#
# Youngs Moduli (GPa) = 56.33369 70.77372 150.47569
#
# Poissons Ratio (x) = -0.53941 0.15949
# Poissons Ratio (y) = -0.42936 0.03835
# Poissons Ratio (z) = 0.05971 0.01804
#
# Static dielectric constant tensor:
#      x y z
#    x 2.424140 -0.000040 0.192310 
#    y -0.000040 1.613730 -0.000030 
#    z 0.192310 -0.000030 2.011970 
# 
# From -- ./inp_files/118681.got.cif
#   From: 2010.05.17/outbox.cif.g08.bks.cpg/sg15_60_cif.got.tgz:118681.got - 2010.06.03 18:47:42.
