data_PCOD9303609
_publ_section_title
;
Structure prediction by ZEFSAII (Michael W. Deem and Ramdas Pophale) SiO2 
 PCOD9303609
Probable space group: C 2/C
;
_chemical_formula_sum "Si O2"
_cell_formula_units_Z 40
_cell_length_a 7.216904
_cell_length_b 14.189581
_cell_length_c 14.681195
_cell_angle_alpha 90.000000
_cell_angle_beta 89.430547
_cell_angle_gamma 90.000000
_cell_volume 1503.351228
_symmetry_space_group_name_H-M "C 2/C"
_symmetry_group_IT_number 15
_symmetry_cell_setting 'monoclinic'
loop_
_space_group_symop_operation_xyz
x,y,z
-x,y,1/2-z
-x,-y,-z
x,-y,1/2+z
1/2+x,1/2+y,z
1/2-x,1/2+y,1/2-z
1/2-x,1/2-y,-z
1/2+x,1/2-y,1/2+z
loop_
_atom_site_type_symbol
_atom_site_label
_atom_site_fract_x
_atom_site_fract_y
_atom_site_fract_z
Si Si1 0.316449 0.356993 0.526449
Si Si2 0.698504 0.006020 0.375508
Si Si3 0.755930 0.860751 0.014620
Si Si4 0.721735 0.366325 0.273804
Si Si5 0.721791 0.851982 0.735491
O O1 0.250000 0.250000 0.500000
O O2 0.244683 0.431177 0.453638
O O3 0.534013 0.378626 0.515236
O O4 0.266074 0.372536 0.631362
O O5 0.619482 0.087078 0.445032
O O6 0.811788 0.078446 0.308417
O O7 0.663312 0.930361 0.295645
O O8 0.738615 0.887838 0.120466
O O9 0.750000 0.750000 0.000000
O O10 0.500000 0.377105 0.250000
O O11 0.764274 0.256291 0.257476
O O12 0.500000 0.866609 0.750000
#
# Coordination Sequence:
#
# PCOD9303609 Si02
#       5
#     8   8   8   8   8
#     4  12  25  46  74 102 141 189 236 292 363 421
#     4  12  25  43  76 100 142 191 239 292 353 426
#     4  12  26  46  73 107 144 184 241 295 351 431
#     4  11  22  46  70  96 145 187 231 296 356 416
#     4  11  25  47  68 102 146 191 236 299 357 419
#
# _framework density 26.607222
#
# number of rings (size 3 to 8) (size 9 to 14) (size 15 to 20)
#    0.000    0.400    6.000    3.000    2.800    0.800 
#    3.600    0.000    0.000    0.000    0.000    0.000 
#    0.000    0.000    0.000    0.000    0.000    0.000 
#
# Total GULP energy -111680.855085 kJ/mol
# GULP energy per Si atom -5584.042754 kJ/mol
# Density = 2.654666 g / cm^3
# Si number density = 26.607222 Si / 1000 Ang^3
#
#
#
# Elastic Constant Matrix: (Units=GPa)
#
#
# Indices 1 2 3 4 5 6 
#
# 1 99.0506 13.6420 65.9396 0.0000 -18.3865 0.0000
# 2 13.6420 216.3589 90.3005 0.0000 2.2661 0.0000
# 3 65.9396 90.3005 341.1216 0.0000 -25.5982 0.0000
# 4 0.0000 0.0000 0.0000 72.8873 0.0000 -1.4193
# 5 -18.3865 2.2661 -25.5982 0.0000 27.2111 0.0000
# 6 0.0000 0.0000 0.0000 -1.4193 0.0000 -1.4117
#
#
#
# Elastic Compliance Matrix: (Units=1/GPa)
#
#
# Indices 1 2 3 4 5 6 
#
# 1 0.012633 -0.000066 -0.001919 0.000000 0.006736 0.000000
# 2 -0.000066 0.005285 -0.001531 0.000000 -0.001925 0.000000
# 3 -0.001919 -0.001531 0.003895 0.000000 0.002495 0.000000
# 4 0.000000 0.000000 0.000000 0.013456 0.000000 -0.013529
# 5 0.006736 -0.001925 0.002495 0.000000 0.043809 0.000000
# 6 0.000000 0.000000 0.000000 -0.013529 0.000000 -0.694781
#
#
# Mechanical properties :
#
#
# Convention : Reuss Voigt Hill
#
# Bulk Modulus (GPa) = 67.65349 110.69949 89.17649
# Shear Modulus (GPa) = -8.28165 52.18060 21.94948
#
# Velocity S-wave (km/s) = -1.76616 4.43329 2.87530
# Velocity P-wave (km/s) = 4.61767 8.24019 6.67921
#
# Compressibility (1/GPa) = 0.01478120
#
# Stress axis : x y z
#
# Youngs Moduli (GPa) = 79.15843 189.20933 256.74837
#
# Poissons Ratio (x) = 0.01253 0.49268
# Poissons Ratio (y) = 0.00524 0.39301
# Poissons Ratio (z) = 0.15190 0.28963
#
# Static dielectric constant tensor:
#      x y z
#    x 2.237960 0.000000 0.079130 
#    y 0.000000 1.911270 0.000000 
#    z 0.079130 0.000000 1.993290 
# 
# From -- ./inp_files/133199.got.cif
#   From: 2010.05.17/outbox.cif.g08.bks.cpg/sg15_67_cif.got.tgz:133199.got - 2010.06.03 18:47:42.
