data_PCOD9303110
_publ_section_title
;
Structure prediction by ZEFSAII (Michael W. Deem and Ramdas Pophale) SiO2 
 PCOD9303110
Probable space group: C 2/C
;
_chemical_formula_sum "Si O2"
_cell_formula_units_Z 40
_cell_length_a 9.942598
_cell_length_b 21.809970
_cell_length_c 9.137946
_cell_angle_alpha 90.000000
_cell_angle_beta 98.724211
_cell_angle_gamma 90.000000
_cell_volume 1958.616469
_symmetry_space_group_name_H-M "C 2/C"
_symmetry_group_IT_number 15
_symmetry_cell_setting 'monoclinic'
loop_
_space_group_symop_operation_xyz
x,y,z
-x,y,1/2-z
-x,-y,-z
x,-y,1/2+z
1/2+x,1/2+y,z
1/2-x,1/2+y,1/2-z
1/2-x,1/2-y,-z
1/2+x,1/2-y,1/2+z
loop_
_atom_site_type_symbol
_atom_site_label
_atom_site_fract_x
_atom_site_fract_y
_atom_site_fract_z
Si Si1 0.490030 0.835913 0.073913
Si Si2 0.257131 0.105466 0.378718
Si Si3 0.960763 0.200522 0.071444
Si Si4 0.734335 0.359769 0.538471
Si Si5 0.602921 0.520898 0.891604
O O1 0.500000 0.844192 0.250000
O O2 0.421450 0.769873 0.027193
O O3 0.400972 0.888638 0.983243
O O4 0.639516 0.833137 0.029047
O O5 0.268231 0.131345 0.215804
O O6 0.153789 0.148530 0.454578
O O7 0.190506 0.038311 0.358941
O O8 0.096097 0.179758 0.009004
O O9 0.000000 0.202022 0.250000
O O10 0.698557 0.425650 0.464754
O O11 0.500000 0.543228 0.750000
O O12 0.500000 0.500000 0.000000
#
# Coordination Sequence:
#
# PCOD9303110 Si02
#       5
#     8   8   8   8   8
#     4  11  25  39  60  95 130 162 207 255 305 364
#     4  11  22  42  65  90 126 166 200 255 314 365
#     4   9  19  40  65  91 123 164 208 253 303 364
#     4  11  23  41  66  91 126 164 204 252 312 368
#     4  12  23  42  68  95 119 158 210 258 305 369
#
# _framework density 20.42258
#
# number of rings (size 3 to 8) (size 9 to 14) (size 15 to 20)
#    0.000    1.200    4.000    2.400    2.800    0.800 
#    0.000    4.000    0.000    0.000    0.000    0.000 
#    0.000    0.000    0.000    0.000    0.000    0.000 
#
# Total GULP energy -111743.370513 kJ/mol
# GULP energy per Si atom -5587.168526 kJ/mol
# Density = 2.037610 g / cm^3
# Si number density = 20.422580 Si / 1000 Ang^3
#
#
#
# Elastic Constant Matrix: (Units=GPa)
#
#
# Indices 1 2 3 4 5 6 
#
# 1 99.5984 15.5363 30.4074 0.0000 -15.6873 0.0000
# 2 15.5363 68.9393 6.6214 0.0000 2.5536 0.0000
# 3 30.4074 6.6214 81.4579 0.0000 -6.4643 0.0000
# 4 0.0000 0.0000 0.0000 22.7232 0.0000 4.6551
# 5 -15.6873 2.5536 -6.4643 0.0000 30.8671 0.0000
# 6 0.0000 0.0000 0.0000 4.6551 0.0000 17.5143
#
#
#
# Elastic Compliance Matrix: (Units=1/GPa)
#
#
# Indices 1 2 3 4 5 6 
#
# 1 0.012596 -0.002666 -0.004027 0.000000 0.005779 0.000000
# 2 -0.002666 0.015251 -0.000460 0.000000 -0.002713 0.000000
# 3 -0.004027 -0.000460 0.013888 0.000000 0.000900 0.000000
# 4 0.000000 0.000000 0.000000 0.046542 0.000000 -0.012370
# 5 0.005779 -0.002713 0.000900 0.000000 0.035747 0.000000
# 6 0.000000 0.000000 0.000000 -0.012370 0.000000 0.060384
#
#
# Mechanical properties :
#
#
# Convention : Reuss Voigt Hill
#
# Bulk Modulus (GPa) = 36.45612 39.45841 37.95726
# Shear Modulus (GPa) = 24.05516 27.38296 25.71906
#
# Velocity S-wave (km/s) = 3.43574 3.66569 3.55257
# Velocity P-wave (km/s) = 5.79902 6.10568 5.95433
#
# Compressibility (1/GPa) = 0.02743024
#
# Stress axis : x y z
#
# Youngs Moduli (GPa) = 79.39242 65.56963 72.00378
#
# Poissons Ratio (x) = 0.17480 0.28993
# Poissons Ratio (y) = 0.21165 0.03311
# Poissons Ratio (z) = 0.31968 0.03015
#
# Static dielectric constant tensor:
#      x y z
#    x 1.711220 0.000000 -0.028410 
#    y 0.000000 1.771520 0.000000 
#    z -0.028410 0.000000 1.619650 
# 
# From -- ./inp_files/23423.got.cif
#   From: 2010.05.17/outbox.cif.g08.bks.cpg/sg15_12_cif.got.tgz:23423.got - 2010.06.03 18:47:42.
