data_PCOD9303262
_publ_section_title
;
Structure prediction by ZEFSAII (Michael W. Deem and Ramdas Pophale) SiO2 
 PCOD9303262
Probable space group: C 2/C
;
_chemical_formula_sum "Si O2"
_cell_formula_units_Z 52
_cell_length_a 10.291114
_cell_length_b 9.204169
_cell_length_c 27.897222
_cell_angle_alpha 90.000000
_cell_angle_beta 125.049610
_cell_angle_gamma 90.000000
_cell_volume 2163.260919
_symmetry_space_group_name_H-M "C 2/C"
_symmetry_group_IT_number 15
_symmetry_cell_setting 'monoclinic'
loop_
_space_group_symop_operation_xyz
x,y,z
-x,y,1/2-z
-x,-y,-z
x,-y,1/2+z
1/2+x,1/2+y,z
1/2-x,1/2+y,1/2-z
1/2-x,1/2-y,-z
1/2+x,1/2-y,1/2+z
loop_
_atom_site_type_symbol
_atom_site_label
_atom_site_fract_x
_atom_site_fract_y
_atom_site_fract_z
Si Si1 0.679340 0.004900 0.879649
Si Si2 0.283919 0.343481 0.583653
Si Si3 0.047281 0.014902 0.205927
Si Si4 0.499032 0.827856 0.583153
Si Si5 0.213651 0.733889 0.217405
Si Si6 0.500000 0.053715 0.750000
Si Si7 0.029542 0.999250 0.449676
O O1 0.635098 0.921628 0.919211
O O2 0.553109 0.976514 0.810504
O O3 0.850736 0.963541 0.894448
O O4 0.685757 0.175800 0.895096
O O5 0.405841 0.439338 0.641215
O O6 0.100201 0.375122 0.557909
O O7 0.341403 0.389184 0.542965
O O8 0.204153 0.114307 0.231734
O O9 0.000000 0.047959 0.250000
O O10 0.086493 0.845467 0.211596
O O11 0.637003 0.827599 0.652859
O O12 0.437724 0.664947 0.560683
O O13 0.355131 0.841008 0.232152
O O14 0.000000 0.000000 0.500000
#
# Coordination Sequence:
#
# PCOD9303262 Si02
#       7
#     8   8   8   8   8   4   8
#     4  11  24  42  68 101 136 175 217 271 329 396
#     4  11  22  43  64  93 131 171 214 273 331 389
#     4  12  22  38  59  93 132 173 211 257 324 397
#     4  11  23  42  65  98 129 168 219 271 328 389
#     4  12  21  39  62  93 136 175 209 260 322 395
#     4  12  18  40  64  94 136 176 204 256 326 396
#     4  11  26  49  70  92 129 176 227 279 332 387
#
# _framework density 24.037785
#
# number of rings (size 3 to 8) (size 9 to 14) (size 15 to 20)
#    0.000    0.615    8.462    0.923    0.000    4.308 
#    8.308    1.538    0.000    0.000    0.000    0.000 
#    0.000    0.000    0.000    0.000    0.000    0.000 
#
# Total GULP energy -145426.975412 kJ/mol
# GULP energy per Si atom -5593.345208 kJ/mol
# Density = 2.398307 g / cm^3
# Si number density = 24.037785 Si / 1000 Ang^3
#
#
#
# Elastic Constant Matrix: (Units=GPa)
#
#
# Indices 1 2 3 4 5 6 
#
# 1 129.7632 65.2973 0.6846 0.0000 -26.1011 0.0000
# 2 65.2973 100.0187 12.2618 0.0000 -14.7239 0.0000
# 3 0.6846 12.2618 66.5243 0.0000 -15.1550 0.0000
# 4 0.0000 0.0000 0.0000 30.0628 0.0000 -9.9234
# 5 -26.1011 -14.7239 -15.1550 0.0000 36.4260 0.0000
# 6 0.0000 0.0000 0.0000 -9.9234 0.0000 42.3761
#
#
#
# Elastic Compliance Matrix: (Units=1/GPa)
#
#
# Indices 1 2 3 4 5 6 
#
# 1 0.013151 -0.007851 0.003022 0.000000 0.007507 0.000000
# 2 -0.007851 0.015389 -0.002895 0.000000 -0.000610 0.000000
# 3 0.003022 -0.002895 0.017412 0.000000 0.008240 0.000000
# 4 0.000000 0.000000 0.000000 0.036050 0.000000 0.008442
# 5 0.007507 -0.000610 0.008240 0.000000 0.036014 0.000000
# 6 0.000000 0.000000 0.000000 0.008442 0.000000 0.025575
#
#
# Mechanical properties :
#
#
# Convention : Reuss Voigt Hill
#
# Bulk Modulus (GPa) = 32.78218 50.31039 41.54629
# Shear Modulus (GPa) = 29.54973 36.31047 32.93010
#
# Velocity S-wave (km/s) = 3.50995 3.89081 3.70527
# Velocity P-wave (km/s) = 5.48577 6.41558 5.96881
#
# Compressibility (1/GPa) = 0.03050438
#
# Stress axis : x y z
#
# Youngs Moduli (GPa) = 76.03912 64.98221 57.43302
#
# Poissons Ratio (x) = 0.51018 -0.17356
# Poissons Ratio (y) = 0.59699 0.16624
# Poissons Ratio (z) = -0.22979 0.18809
#
# Static dielectric constant tensor:
#      x y z
#    x 2.009680 0.000000 -0.018770 
#    y 0.000000 1.891200 0.000000 
#    z -0.018770 0.000000 1.990630 
# 
# From -- ./inp_files/291255.got.cif
#   From: 2010.05.17/outbox.cif.g08.bks.cpg/sg15_146_cif.got.tgz:291255.got - 2010.06.03 18:47:42.
