data_PCOD9303819
_publ_section_title
;
Structure prediction by ZEFSAII (Michael W. Deem and Ramdas Pophale) SiO2 
 PCOD9303819
Probable space group: C 2/C
;
_chemical_formula_sum "Si O2"
_cell_formula_units_Z 40
_cell_length_a 6.992271
_cell_length_b 11.838777
_cell_length_c 25.110699
_cell_angle_alpha 90.000000
_cell_angle_beta 65.492886
_cell_angle_gamma 90.000000
_cell_volume 1891.394948
_symmetry_space_group_name_H-M "C 2/C"
_symmetry_group_IT_number 15
_symmetry_cell_setting 'monoclinic'
loop_
_space_group_symop_operation_xyz
x,y,z
-x,y,1/2-z
-x,-y,-z
x,-y,1/2+z
1/2+x,1/2+y,z
1/2-x,1/2+y,1/2-z
1/2-x,1/2-y,-z
1/2+x,1/2-y,1/2+z
loop_
_atom_site_type_symbol
_atom_site_label
_atom_site_fract_x
_atom_site_fract_y
_atom_site_fract_z
Si Si1 0.678473 0.958235 0.685574
Si Si2 0.747112 0.340485 0.402298
Si Si3 0.884379 0.905081 0.878435
Si Si4 0.270137 0.001481 0.499585
Si Si5 0.562088 0.836227 0.598294
O O1 0.500000 0.957072 0.750000
O O2 0.647056 0.855842 0.647148
O O3 0.917269 0.943961 0.678388
O O4 0.672173 0.072138 0.651102
O O5 0.891101 0.228732 0.390210
O O6 0.741217 0.403059 0.459370
O O7 0.527202 0.284855 0.407993
O O8 0.652148 0.913799 0.879684
O O9 0.883728 0.974812 0.933808
O O10 0.500000 0.000000 0.500000
O O11 0.275760 0.114971 0.463752
#
# Coordination Sequence:
#
# PCOD9303819 Si02
#       5
#     8   8   8   8   8
#     4  11  23  40  56  78 114 152 199 243 276 333
#     4   9  20  38  59  86 116 150 187 237 291 342
#     4   9  20  38  60  83 118 149 186 231 294 338
#     4   9  16  34  62  89 120 150 178 232 293 356
#     4   8  20  38  58  87 114 143 193 235 287 348
#
# _framework density 21.148413000000001
#
# number of rings (size 3 to 8) (size 9 to 14) (size 15 to 20)
#    1.200    1.600    0.000    0.600    0.000    5.600 
#   10.800    2.000    0.000    0.000    0.000    0.000 
#    0.000    0.000    0.000    0.000    0.000    0.000 
#
# Total GULP energy -111426.527114 kJ/mol
# GULP energy per Si atom -5571.326356 kJ/mol
# Density = 2.110028 g / cm^3
# Si number density = 21.148413 Si / 1000 Ang^3
#
#
#
# Elastic Constant Matrix: (Units=GPa)
#
#
# Indices 1 2 3 4 5 6 
#
# 1 72.6372 17.3895 14.3872 0.0000 -9.7166 0.0000
# 2 17.3895 103.6580 25.8281 0.0000 -3.6759 0.0000
# 3 14.3872 25.8281 72.8922 0.0000 -25.1269 0.0000
# 4 0.0000 0.0000 0.0000 10.8959 0.0000 -3.3442
# 5 -9.7166 -3.6759 -25.1269 0.0000 31.8817 0.0000
# 6 0.0000 0.0000 0.0000 -3.3442 0.0000 28.3230
#
#
#
# Elastic Compliance Matrix: (Units=1/GPa)
#
#
# Indices 1 2 3 4 5 6 
#
# 1 0.014946 -0.002140 -0.000970 0.000000 0.003544 0.000000
# 2 -0.002140 0.011021 -0.004489 0.000000 -0.002920 0.000000
# 3 -0.000970 -0.004489 0.020898 0.000000 0.015657 0.000000
# 4 0.000000 0.000000 0.000000 0.095228 0.000000 0.011244
# 5 0.003544 -0.002920 0.015657 0.000000 0.044449 0.000000
# 6 0.000000 0.000000 0.000000 0.011244 0.000000 0.036635
#
#
# Mechanical properties :
#
#
# Convention : Reuss Voigt Hill
#
# Bulk Modulus (GPa) = 31.57897 40.48854 36.03376
# Shear Modulus (GPa) = 20.08588 26.99230 23.53909
#
# Velocity S-wave (km/s) = 3.08516 3.57645 3.33985
# Velocity P-wave (km/s) = 5.25884 6.02006 5.65228
#
# Compressibility (1/GPa) = 0.03166664
#
# Stress axis : x y z
#
# Youngs Moduli (GPa) = 66.90969 90.73497 47.85077
#
# Poissons Ratio (x) = 0.19416 0.04642
# Poissons Ratio (y) = 0.14318 0.21481
# Poissons Ratio (z) = 0.06491 0.40732
#
# Static dielectric constant tensor:
#      x y z
#    x 1.820700 0.000000 -0.036110 
#    y 0.000000 1.776740 0.000000 
#    z -0.036110 0.000000 1.734090 
# 
# From -- ./inp_files/229904.got.cif
#   From: 2010.05.17/outbox.cif.g08.bks.cpg/sg15_115_cif.got.tgz:229904.got - 2010.06.03 18:47:42.
