data_PCOD9303031
_publ_section_title
;
Structure prediction by ZEFSAII (Michael W. Deem and Ramdas Pophale) SiO2 
 PCOD9303031
Probable space group: C 2/C
;
_chemical_formula_sum "Si O2"
_cell_formula_units_Z 64
_cell_length_a 15.351958
_cell_length_b 16.105436
_cell_length_c 16.318847
_cell_angle_alpha 90.000000
_cell_angle_beta 50.598304
_cell_angle_gamma 90.000000
_cell_volume 3117.776307
_symmetry_space_group_name_H-M "C 2/C"
_symmetry_group_IT_number 15
_symmetry_cell_setting 'monoclinic'
loop_
_space_group_symop_operation_xyz
x,y,z
-x,y,1/2-z
-x,-y,-z
x,-y,1/2+z
1/2+x,1/2+y,z
1/2-x,1/2+y,1/2-z
1/2-x,1/2-y,-z
1/2+x,1/2-y,1/2+z
loop_
_atom_site_type_symbol
_atom_site_label
_atom_site_fract_x
_atom_site_fract_y
_atom_site_fract_z
Si Si1 0.995158 0.505960 0.847632
Si Si2 0.770510 0.786920 0.229052
Si Si3 0.066541 0.960063 0.885472
Si Si4 0.197706 0.401022 0.794804
Si Si5 0.253855 0.960120 0.551664
Si Si6 0.630972 0.335520 0.504320
Si Si7 0.986340 0.704085 0.663430
Si Si8 0.388476 0.593766 0.781285
O O1 0.000000 0.480310 0.750000
O O2 0.089547 0.456375 0.840216
O O3 0.015496 0.604661 0.839669
O O4 0.870549 0.497724 0.956913
O O5 0.823597 0.695799 0.206422
O O6 0.636885 0.772778 0.297258
O O7 0.803175 0.844756 0.286103
O O8 0.819765 0.829507 0.116718
O O9 0.195366 0.932276 0.822621
O O10 0.989048 0.881424 0.911843
O O11 0.072037 0.027339 0.810451
O O12 0.000000 0.000000 0.000000
O O13 0.233413 0.416102 0.867702
O O14 0.213672 0.891511 0.510160
O O15 0.168027 0.036153 0.616042
O O16 0.595189 0.243309 0.553869
O O17 0.000000 0.729956 0.750000
O O18 0.500000 0.636991 0.750000
#
# Coordination Sequence:
#
# PCOD9303031 Si02
#       8
#     8   8   8   8   8   8   8   8
#     4  11  25  44  67  93 135 182 220 266 326 406
#     4  12  25  42  64 100 132 175 223 271 334 393
#     4  11  22  41  68  96 125 173 222 270 330 390
#     4  11  25  43  66  96 138 177 221 273 331 397
#     4  11  24  41  68 100 129 175 217 273 348 398
#     4  12  23  39  70  98 133 165 214 280 339 396
#     4  11  23  40  64 101 136 165 215 273 336 398
#     4  11  24  41  66  93 132 172 227 282 322 392
#
# _framework density 20.527450999999999
#
# number of rings (size 3 to 8) (size 9 to 14) (size 15 to 20)
#    0.000    0.750    3.750    4.875    3.500    3.000 
#    0.000    0.000    0.000    3.000    0.000    0.000 
#    0.000    0.000    0.000    0.000    0.000    0.000 
#
# Total GULP energy -178847.163745 kJ/mol
# GULP energy per Si atom -5588.973867 kJ/mol
# Density = 2.048073 g / cm^3
# Si number density = 20.527451 Si / 1000 Ang^3
#
#
#
# Elastic Constant Matrix: (Units=GPa)
#
#
# Indices 1 2 3 4 5 6 
#
# 1 96.4416 48.2284 17.0298 0.0000 -24.7994 0.0000
# 2 48.2284 77.5863 16.9171 0.0000 -6.3107 0.0000
# 3 17.0298 16.9171 80.6006 0.0000 -20.6016 0.0000
# 4 0.0000 0.0000 0.0000 26.2295 0.0000 -7.0946
# 5 -24.7994 -6.3107 -20.6016 0.0000 29.6845 0.0000
# 6 0.0000 0.0000 0.0000 -7.0946 0.0000 3.7505
#
#
#
# Elastic Compliance Matrix: (Units=1/GPa)
#
#
# Indices 1 2 3 4 5 6 
#
# 1 0.019722 -0.011477 0.002224 0.000000 0.015580 0.000000
# 2 -0.011477 0.020216 -0.003854 0.000000 -0.007965 0.000000
# 3 0.002224 -0.003854 0.015817 0.000000 0.012016 0.000000
# 4 0.000000 0.000000 0.000000 0.078070 0.000000 0.147682
# 5 0.015580 -0.007965 0.012016 0.000000 0.053350 0.000000
# 6 0.000000 0.000000 0.000000 0.147682 0.000000 0.545997
#
#
# Mechanical properties :
#
#
# Convention : Reuss Voigt Hill
#
# Bulk Modulus (GPa) = 33.85130 46.55323 40.20226
# Shear Modulus (GPa) = 6.49998 23.42977 14.96488
#
# Velocity S-wave (km/s) = 1.78139 3.38211 2.70296
# Velocity P-wave (km/s) = 4.55606 6.16273 5.41927
#
# Compressibility (1/GPa) = 0.02954096
#
# Stress axis : x y z
#
# Youngs Moduli (GPa) = 50.70475 49.46674 63.22225
#
# Poissons Ratio (x) = 0.56774 -0.14062
# Poissons Ratio (y) = 0.58194 0.24366
# Poissons Ratio (z) = -0.11278 0.19065
#
# Static dielectric constant tensor:
#      x y z
#    x 1.757690 0.000000 -0.012330 
#    y 0.000000 1.814020 0.000000 
#    z -0.012330 0.000000 1.750020 
# 
# From -- ./inp_files/205689.got.cif
#   From: 2010.05.17/outbox.cif.g08.bks.cpg/sg15_103_cif.got.tgz:205689.got - 2010.06.03 18:47:42.
