data_PCOD9303429
_publ_section_title
;
Structure prediction by ZEFSAII (Michael W. Deem and Ramdas Pophale) SiO2 
 PCOD9303429
Probable space group: C 2/C
;
_chemical_formula_sum "Si O2"
_cell_formula_units_Z 56
_cell_length_a 23.277497
_cell_length_b 7.668762
_cell_length_c 22.005253
_cell_angle_alpha 90.000000
_cell_angle_beta 38.173627
_cell_angle_gamma 90.000000
_cell_volume 2427.778880
_symmetry_space_group_name_H-M "C 2/C"
_symmetry_group_IT_number 15
_symmetry_cell_setting 'monoclinic'
loop_
_space_group_symop_operation_xyz
x,y,z
-x,y,1/2-z
-x,-y,-z
x,-y,1/2+z
1/2+x,1/2+y,z
1/2-x,1/2+y,1/2-z
1/2-x,1/2-y,-z
1/2+x,1/2-y,1/2+z
loop_
_atom_site_type_symbol
_atom_site_label
_atom_site_fract_x
_atom_site_fract_y
_atom_site_fract_z
Si Si1 0.916468 0.221990 0.192353
Si Si2 0.859689 0.590799 0.627102
Si Si3 0.694443 0.815123 0.729804
Si Si4 0.750513 0.044718 0.986558
Si Si5 0.727439 0.374949 0.402130
Si Si6 0.911727 0.577481 0.964115
Si Si7 0.423572 0.605456 0.762870
O O1 0.903324 0.253920 0.131186
O O2 0.816071 0.269099 0.303157
O O3 0.952409 0.040297 0.189363
O O4 0.991654 0.369705 0.145902
O O5 0.753776 0.646617 0.699469
O O6 0.851527 0.419774 0.676592
O O7 0.914415 0.547548 0.520288
O O8 0.620944 0.761484 0.739167
O O9 0.769579 0.946901 0.638106
O O10 0.840410 0.017766 0.870240
O O11 0.658595 0.000398 0.025994
O O12 0.750000 0.250000 0.000000
O O13 0.757910 0.930199 0.040542
O O14 0.637256 0.255875 0.472015
O O15 0.500000 0.652570 0.750000
#
# Coordination Sequence:
#
# PCOD9303429 Si02
#       7
#     8   8   8   8   8   8   8
#     4  11  26  42  70 105 134 188 228 287 353 416
#     4  11  22  44  70 103 142 180 241 283 348 432
#     4  11  22  44  73 101 137 190 230 292 363 409
#     4  12  24  44  69  99 143 187 229 287 353 414
#     4  11  23  43  69 103 137 186 232 288 354 418
#     4  12  24  44  71 103 143 183 236 291 350 423
#     4  12  25  45  68 105 144 180 236 289 355 422
#
# _framework density 23.066351000000001
#
# number of rings (size 3 to 8) (size 9 to 14) (size 15 to 20)
#    0.000    0.571    4.286    4.286    2.000    2.286 
#    0.000    7.143    0.000    0.000    0.000    0.000 
#    0.000    0.000    0.000    0.000    0.000    0.000 
#
# Total GULP energy -156687.393584 kJ/mol
# GULP energy per Si atom -5595.978342 kJ/mol
# Density = 2.301385 g / cm^3
# Si number density = 23.066351 Si / 1000 Ang^3
#
#
#
# Elastic Constant Matrix: (Units=GPa)
#
#
# Indices 1 2 3 4 5 6 
#
# 1 113.5347 27.9115 -8.4593 0.0012 -0.8483 0.0001
# 2 27.9115 77.3656 -0.4331 0.0025 6.9828 -0.0050
# 3 -8.4593 -0.4331 27.8268 0.0023 0.6619 -0.0016
# 4 0.0012 0.0025 0.0023 29.0183 -0.0005 11.3280
# 5 -0.8483 6.9828 0.6619 -0.0005 41.0413 0.0015
# 6 0.0001 -0.0050 -0.0016 11.3280 0.0015 42.7990
#
#
#
# Elastic Compliance Matrix: (Units=1/GPa)
#
#
# Indices 1 2 3 4 5 6 
#
# 1 0.009927 -0.003635 0.002943 0.000000 0.000776 0.000000
# 2 -0.003635 0.014460 -0.000820 -0.000002 -0.002522 0.000002
# 3 0.002943 -0.000820 0.036828 -0.000004 -0.000394 0.000002
# 4 0.000000 -0.000002 -0.000004 0.038432 0.000001 -0.010172
# 5 0.000776 -0.002522 -0.000394 0.000001 0.024817 -0.000002
# 6 0.000000 0.000002 0.000002 -0.010172 -0.000002 0.026057
#
#
# Mechanical properties :
#
#
# Convention : Reuss Voigt Hill
#
# Bulk Modulus (GPa) = 17.18506 28.52948 22.85727
# Shear Modulus (GPa) = 28.91146 35.88558 32.39852
#
# Velocity S-wave (km/s) = 3.54419 3.94858 3.75184
# Velocity P-wave (km/s) = 4.92085 5.76053 5.35717
#
# Compressibility (1/GPa) = 0.05819006
#
# Stress axis : x y z
#
# Youngs Moduli (GPa) = 100.74023 69.15605 27.15343
#
# Poissons Ratio (x) = 0.25137 -0.07990
# Poissons Ratio (y) = 0.36617 0.02226
# Poissons Ratio (z) = -0.29644 0.05670
#
# Static dielectric constant tensor:
#      x y z
#    x 1.890590 0.000000 -0.008000 
#    y 0.000000 1.940070 0.000000 
#    z -0.008000 0.000000 1.858690 
# 
# From -- ./inp_files/281471.got.cif
#   From: 2010.05.17/outbox.cif.g08.bks.cpg/sg15_141_cif.got.tgz:281471.got - 2010.06.03 18:47:42.
