data_PCOD9303175
_publ_section_title
;
Structure prediction by ZEFSAII (Michael W. Deem and Ramdas Pophale) SiO2 
 PCOD9303175
Probable space group: C 2/C
;
_chemical_formula_sum "Si O2"
_cell_formula_units_Z 60
_cell_length_a 21.439104
_cell_length_b 8.655767
_cell_length_c 15.412720
_cell_angle_alpha 90.000000
_cell_angle_beta 80.899864
_cell_angle_gamma 90.000000
_cell_volume 2824.167868
_symmetry_space_group_name_H-M "C 2/C"
_symmetry_group_IT_number 15
_symmetry_cell_setting 'monoclinic'
loop_
_space_group_symop_operation_xyz
x,y,z
-x,y,1/2-z
-x,-y,-z
x,-y,1/2+z
1/2+x,1/2+y,z
1/2-x,1/2+y,1/2-z
1/2-x,1/2-y,-z
1/2+x,1/2-y,1/2+z
loop_
_atom_site_type_symbol
_atom_site_label
_atom_site_fract_x
_atom_site_fract_y
_atom_site_fract_z
Si Si1 0.839243 0.128820 0.203337
Si Si2 0.912318 0.983535 0.850827
Si Si3 0.901145 0.667181 0.541860
Si Si4 0.776218 0.192700 0.736540
Si Si5 0.812388 0.786962 0.430286
Si Si6 0.000000 0.236894 0.750000
Si Si7 0.896759 0.655287 0.140184
Si Si8 0.970639 0.167115 0.488662
O O1 0.890791 0.070855 0.260781
O O2 0.869122 0.201217 0.110444
O O3 0.795799 0.258292 0.258715
O O4 0.794533 0.978734 0.201057
O O5 0.943313 0.846922 0.898292
O O6 0.853291 0.052832 0.919218
O O7 0.961218 0.123448 0.823022
O O8 0.863441 0.668671 0.459543
O O9 0.897964 0.507255 0.592462
O O10 0.973612 0.710973 0.513868
O O11 0.790424 0.214485 0.835785
O O12 0.825591 0.308700 0.682679
O O13 0.750000 0.750000 0.500000
O O14 0.947075 0.331000 0.708104
O O15 0.917690 0.788555 0.068821
O O16 0.000000 0.000000 0.500000
#
# Coordination Sequence:
#
# PCOD9303175 Si02
#       8
#     8   8   8   8   8   4   8   8
#     4  11  23  45  69  99 134 182 229 280 337 399
#     4  11  24  41  73 102 130 183 230 275 343 402
#     4  12  25  44  67 101 139 176 228 282 341 407
#     4  11  24  44  69  97 136 177 231 277 341 404
#     4  11  22  42  69  94 131 183 222 271 342 402
#     4  12  20  44  70  98 140 186 220 276 346 408
#     4  12  26  41  68 103 139 178 224 278 343 406
#     4  12  23  44  69  97 135 175 229 279 332 408
#
# _framework density 21.245194000000001
#
# number of rings (size 3 to 8) (size 9 to 14) (size 15 to 20)
#    0.000    0.533    6.667    2.800    1.867    1.067 
#    4.800    0.667    0.000    0.000    0.000    0.000 
#    0.000    0.000    0.000    0.000    0.000    0.000 
#
# Total GULP energy -167620.920162 kJ/mol
# GULP energy per Si atom -5587.364005 kJ/mol
# Density = 2.119684 g / cm^3
# Si number density = 21.245194 Si / 1000 Ang^3
#
#
#
# Elastic Constant Matrix: (Units=GPa)
#
#
# Indices 1 2 3 4 5 6 
#
# 1 59.3999 -8.7466 -0.0859 0.0000 -9.3969 0.0000
# 2 -8.7466 50.7535 15.7436 0.0000 7.5087 0.0000
# 3 -0.0859 15.7436 54.9435 0.0000 -16.5918 0.0000
# 4 0.0000 0.0000 0.0000 38.3169 0.0000 -6.8157
# 5 -9.3969 7.5087 -16.5918 0.0000 36.2738 0.0000
# 6 0.0000 0.0000 0.0000 -6.8157 0.0000 28.4562
#
#
#
# Elastic Compliance Matrix: (Units=1/GPa)
#
#
# Indices 1 2 3 4 5 6 
#
# 1 0.017873 0.002168 0.000777 0.000000 0.004537 0.000000
# 2 0.002168 0.024399 -0.009681 0.000000 -0.008917 0.000000
# 3 0.000777 -0.009681 0.025110 0.000000 0.013690 0.000000
# 4 0.000000 0.000000 0.000000 0.027260 0.000000 0.006529
# 5 0.004537 -0.008917 0.013690 0.000000 0.036851 0.000000
# 6 0.000000 0.000000 0.000000 0.006529 0.000000 0.036706
#
#
# Mechanical properties :
#
#
# Convention : Reuss Voigt Hill
#
# Bulk Modulus (GPa) = 18.54943 19.87990 19.21466
# Shear Modulus (GPa) = 25.04510 31.15511 28.10010
#
# Velocity S-wave (km/s) = 3.43718 3.83359 3.64078
# Velocity P-wave (km/s) = 4.94998 5.38264 5.17084
#
# Compressibility (1/GPa) = 0.05391001
#
# Stress axis : x y z
#
# Youngs Moduli (GPa) = 55.95009 40.98561 39.82495
#
# Poissons Ratio (x) = -0.08886 -0.03093
# Poissons Ratio (y) = -0.12130 0.38553
# Poissons Ratio (z) = -0.04345 0.39677
#
# Static dielectric constant tensor:
#      x y z
#    x 1.807750 0.000000 0.006330 
#    y 0.000000 1.754730 0.000000 
#    z 0.006330 0.000000 1.775950 
# 
# From -- ./inp_files/171868.got.cif
#   From: 2010.05.17/outbox.cif.g08.bks.cpg/sg15_86_cif.got.tgz:171868.got - 2010.06.03 18:47:42.
