data_PCOD9303255
_publ_section_title
;
Structure prediction by ZEFSAII (Michael W. Deem and Ramdas Pophale) SiO2 
 PCOD9303255
Probable space group: C 2/C
;
_chemical_formula_sum "Si O2"
_cell_formula_units_Z 40
_cell_length_a 6.776947
_cell_length_b 12.565615
_cell_length_c 23.897518
_cell_angle_alpha 90.000000
_cell_angle_beta 122.289468
_cell_angle_gamma 90.000000
_cell_volume 1720.332334
_symmetry_space_group_name_H-M "C 2/C"
_symmetry_group_IT_number 15
_symmetry_cell_setting 'monoclinic'
loop_
_space_group_symop_operation_xyz
x,y,z
-x,y,1/2-z
-x,-y,-z
x,-y,1/2+z
1/2+x,1/2+y,z
1/2-x,1/2+y,1/2-z
1/2-x,1/2-y,-z
1/2+x,1/2-y,1/2+z
loop_
_atom_site_type_symbol
_atom_site_label
_atom_site_fract_x
_atom_site_fract_y
_atom_site_fract_z
Si Si1 0.550117 0.898118 0.822361
Si Si2 0.570333 0.761339 0.551517
Si Si3 0.849331 0.529446 0.393989
Si Si4 0.420925 0.221884 0.901949
Si Si5 0.982485 0.029136 0.931429
O O1 0.500000 0.913045 0.750000
O O2 0.324521 0.921075 0.827669
O O3 0.687271 0.785644 0.850333
O O4 0.165468 0.975866 0.917056
O O5 0.480487 0.876738 0.557222
O O6 0.493357 0.748118 0.476019
O O7 0.851898 0.757124 0.599036
O O8 0.492496 0.655823 0.571437
O O9 0.910494 0.405687 0.396904
O O10 0.235844 0.515130 0.372582
O O11 0.000000 0.000000 0.000000
#
# Coordination Sequence:
#
# PCOD9303255 Si02
#       5
#     8   8   8   8   8
#     4  12  28  50  69 105 150 196 248 295 363 446
#     4  11  22  42  76 111 143 178 238 309 361 431
#     4  12  26  44  77 105 145 193 233 302 373 427
#     4  11  23  45  72 108 146 183 235 302 369 429
#     4  12  24  46  75 109 147 184 243 304 363 437
#
# _framework density 23.251322999999999
#
# number of rings (size 3 to 8) (size 9 to 14) (size 15 to 20)
#    0.000    0.400    6.000    3.000    2.800    2.400 
#    7.200    0.000    0.000    0.000    0.000    0.000 
#    0.000    0.000    0.000    0.000    0.000    0.000 
#
# Total GULP energy -111645.930525 kJ/mol
# GULP energy per Si atom -5582.296526 kJ/mol
# Density = 2.319840 g / cm^3
# Si number density = 23.251323 Si / 1000 Ang^3
#
#
#
# Elastic Constant Matrix: (Units=GPa)
#
#
# Indices 1 2 3 4 5 6 
#
# 1 131.8274 65.0264 49.5925 0.0000 -30.9372 0.0000
# 2 65.0264 198.5660 34.1873 0.0000 -3.7949 0.0000
# 3 49.5925 34.1873 140.6558 0.0000 -35.0917 0.0000
# 4 0.0000 0.0000 0.0000 20.3757 0.0000 -7.0569
# 5 -30.9372 -3.7949 -35.0917 0.0000 34.3645 0.0000
# 6 0.0000 0.0000 0.0000 -7.0569 0.0000 35.0657
#
#
#
# Elastic Compliance Matrix: (Units=1/GPa)
#
#
# Indices 1 2 3 4 5 6 
#
# 1 0.011893 -0.003542 -0.001018 0.000000 0.009276 0.000000
# 2 -0.003542 0.006335 -0.001224 0.000000 -0.003739 0.000000
# 3 -0.001018 -0.001224 0.010069 0.000000 0.009230 0.000000
# 4 0.000000 0.000000 0.000000 0.052755 0.000000 0.010617
# 5 0.009276 -0.003739 0.009230 0.000000 0.046463 0.000000
# 6 0.000000 0.000000 0.000000 0.010617 0.000000 0.030654
#
#
# Mechanical properties :
#
#
# Convention : Reuss Voigt Hill
#
# Bulk Modulus (GPa) = 59.77632 85.40684 72.59158
# Shear Modulus (GPa) = 28.52036 39.44406 33.98221
#
# Velocity S-wave (km/s) = 3.50610 4.12323 3.82713
# Velocity P-wave (km/s) = 6.49268 7.71232 7.12863
#
# Compressibility (1/GPa) = 0.01672903
#
# Stress axis : x y z
#
# Youngs Moduli (GPa) = 84.08532 157.84563 99.31751
#
# Poissons Ratio (x) = 0.55910 0.10111
# Poissons Ratio (y) = 0.29784 0.12154
# Poissons Ratio (z) = 0.08560 0.19316
#
# Static dielectric constant tensor:
#      x y z
#    x 2.065130 0.000000 -0.017410 
#    y 0.000000 1.880750 0.000000 
#    z -0.017410 0.000000 1.838450 
# 
# From -- ./inp_files/287419.got.cif
#   From: 2010.05.17/outbox.cif.g08.bks.cpg/sg15_144_cif.got.tgz:287419.got - 2010.06.03 18:47:42.
