data_PCOD9303338
_publ_section_title
;
Structure prediction by ZEFSAII (Michael W. Deem and Ramdas Pophale) SiO2 
 PCOD9303338
Probable space group: C 2/C
;
_chemical_formula_sum "Si O2"
_cell_formula_units_Z 60
_cell_length_a 22.059417
_cell_length_b 18.124054
_cell_length_c 8.010554
_cell_angle_alpha 90.000000
_cell_angle_beta 120.552355
_cell_angle_gamma 90.000000
_cell_volume 2758.025743
_symmetry_space_group_name_H-M "C 2/C"
_symmetry_group_IT_number 15
_symmetry_cell_setting 'monoclinic'
loop_
_space_group_symop_operation_xyz
x,y,z
-x,y,1/2-z
-x,-y,-z
x,-y,1/2+z
1/2+x,1/2+y,z
1/2-x,1/2+y,1/2-z
1/2-x,1/2-y,-z
1/2+x,1/2-y,1/2+z
loop_
_atom_site_type_symbol
_atom_site_label
_atom_site_fract_x
_atom_site_fract_y
_atom_site_fract_z
Si Si1 0.500000 0.800401 0.250000
Si Si2 0.668326 0.134648 0.504855
Si Si3 0.678174 0.480317 0.968093
Si Si4 0.854825 0.665096 0.417702
Si Si5 0.172449 0.167444 0.654433
Si Si6 0.279661 0.981041 0.856285
Si Si7 0.416683 0.618552 0.653858
Si Si8 0.442160 0.243779 0.016647
O O1 0.566964 0.846265 0.404551
O O2 0.477543 0.755741 0.384749
O O3 0.650207 0.155717 0.289440
O O4 0.749172 0.158065 0.657505
O O5 0.612892 0.177350 0.542433
O O6 0.667072 0.047184 0.533551
O O7 0.664019 0.397959 0.008759
O O8 0.758049 0.505286 0.132195
O O9 0.697833 0.486324 0.800200
O O10 0.618604 0.539792 0.912727
O O11 0.834955 0.750002 0.425758
O O12 0.806445 0.600908 0.424023
O O13 0.114302 0.152926 0.717505
O O14 0.500000 0.609099 0.750000
O O15 0.399895 0.680823 0.493067
O O16 0.500000 0.236996 0.250000
#
# Coordination Sequence:
#
# PCOD9303338 Si02
#       8
#     4   8   8   8   8   8   8   8
#     4  12  28  46  66 114 146 182 254 292 360 444
#     4  11  22  44  76  98 137 195 240 297 371 423
#     4  11  23  43  64 104 142 173 239 301 344 431
#     4  12  24  45  71 101 144 188 240 305 355 435
#     4  11  24  43  72 109 136 189 252 288 365 434
#     4  11  24  42  68 101 139 178 234 306 359 413
#     4  11  22  43  72 100 142 200 234 276 369 438
#     4  11  24  46  73 105 148 196 239 296 360 439
#
# _framework density 21.75469
#
# number of rings (size 3 to 8) (size 9 to 14) (size 15 to 20)
#    0.000    0.800    6.667    1.200    5.600    2.133 
#    2.400    1.333    0.000    0.000    0.000    0.000 
#    0.000    0.000    0.000    0.000    0.000    0.000 
#
# Total GULP energy -167374.422926 kJ/mol
# GULP energy per Si atom -5579.147431 kJ/mol
# Density = 2.170518 g / cm^3
# Si number density = 21.754690 Si / 1000 Ang^3
#
#
#
# Elastic Constant Matrix: (Units=GPa)
#
#
# Indices 1 2 3 4 5 6 
#
# 1 103.3124 64.9823 17.3554 0.0000 2.5755 0.0000
# 2 64.9823 196.3918 32.8820 0.0000 11.9462 0.0000
# 3 17.3554 32.8820 39.6093 0.0000 16.1066 0.0000
# 4 0.0000 0.0000 0.0000 2.0821 0.0000 7.2831
# 5 2.5755 11.9462 16.1066 0.0000 26.0897 0.0000
# 6 0.0000 0.0000 0.0000 7.2831 0.0000 38.4692
#
#
#
# Elastic Compliance Matrix: (Units=1/GPa)
#
#
# Indices 1 2 3 4 5 6 
#
# 1 0.012541 -0.003729 -0.003458 0.000000 0.002605 0.000000
# 2 -0.003729 0.007026 -0.004060 0.000000 -0.000343 0.000000
# 3 -0.003458 -0.004060 0.039037 0.000000 -0.021900 0.000000
# 4 0.000000 0.000000 0.000000 1.421998 0.000000 -0.269217
# 5 0.002605 -0.000343 -0.021900 0.000000 0.051749 0.000000
# 6 0.000000 0.000000 0.000000 -0.269217 0.000000 0.076964
#
#
# Mechanical properties :
#
#
# Convention : Reuss Voigt Hill
#
# Bulk Modulus (GPa) = 27.69277 63.30586 45.49932
# Shear Modulus (GPa) = 3.04165 28.26780 15.65472
#
# Velocity S-wave (km/s) = 1.18372 3.60861 2.68545
# Velocity P-wave (km/s) = 3.82432 6.82098 5.52952
#
# Compressibility (1/GPa) = 0.03611050
#
# Stress axis : x y z
#
# Youngs Moduli (GPa) = 79.73916 142.32356 25.61654
#
# Poissons Ratio (x) = 0.53071 0.08859
# Poissons Ratio (y) = 0.29734 0.10399
# Poissons Ratio (z) = 0.27578 0.57777
#
# Static dielectric constant tensor:
#      x y z
#    x 1.810500 0.000000 -0.049490 
#    y 0.000000 1.836690 0.000000 
#    z -0.049490 0.000000 1.833420 
# 
# From -- ./inp_files/57030.got.cif
#   From: 2010.05.17/outbox.cif.g08.bks.cpg/sg15_29_cif.got.tgz:57030.got - 2010.06.03 18:47:42.
