data_PCOD9303756
_publ_section_title
;
Structure prediction by ZEFSAII (Michael W. Deem and Ramdas Pophale) SiO2 
 PCOD9303756
Probable space group: C 2/C
;
_chemical_formula_sum "Si O2"
_cell_formula_units_Z 64
_cell_length_a 14.692857
_cell_length_b 27.178637
_cell_length_c 9.758744
_cell_angle_alpha 90.000000
_cell_angle_beta 129.590205
_cell_angle_gamma 90.000000
_cell_volume 3003.097052
_symmetry_space_group_name_H-M "C 2/C"
_symmetry_group_IT_number 15
_symmetry_cell_setting 'monoclinic'
loop_
_space_group_symop_operation_xyz
x,y,z
-x,y,1/2-z
-x,-y,-z
x,-y,1/2+z
1/2+x,1/2+y,z
1/2-x,1/2+y,1/2-z
1/2-x,1/2-y,-z
1/2+x,1/2-y,1/2+z
loop_
_atom_site_type_symbol
_atom_site_label
_atom_site_fract_x
_atom_site_fract_y
_atom_site_fract_z
Si Si1 0.224951 0.141091 0.233952
Si Si2 0.873106 0.021718 0.920262
Si Si3 0.361131 0.713112 0.121494
Si Si4 0.868666 0.410169 0.111953
Si Si5 0.359694 0.874426 0.594362
Si Si6 0.222999 0.512048 0.517848
Si Si7 0.991300 0.104844 0.892338
Si Si8 0.706749 0.361308 0.188952
O O1 0.164701 0.185157 0.259707
O O2 0.305758 0.111841 0.418201
O O3 0.297749 0.150598 0.166260
O O4 0.115248 0.107301 0.080874
O O5 0.770695 0.007725 0.717596
O O6 0.896523 0.079469 0.906865
O O7 0.834374 0.004680 0.030812
O O8 0.000000 0.000000 0.000000
O O9 0.500000 0.729942 0.250000
O O10 0.250000 0.750000 0.000000
O O11 0.341114 0.674564 0.978567
O O12 0.869615 0.469310 0.098248
O O13 0.791465 0.396347 0.168687
O O14 0.000000 0.390550 0.250000
O O15 0.500000 0.873168 0.750000
O O16 0.317250 0.932537 0.550985
O O17 0.310346 0.853159 0.404704
O O18 0.906006 0.150696 0.805907
O O19 0.000000 0.082908 0.750000
#
# Coordination Sequence:
#
# PCOD9303756 Si02
#       8
#     8   8   8   8   8   8   8   8
#     4  11  24  41  70  97 126 176 216 266 334 391
#     4  12  23  33  53  86 127 171 229 283 321 366
#     4  11  26  48  78 108 135 165 207 267 339 417
#     4  11  23  39  58  88 132 180 231 278 320 377
#     4  12  24  41  64  95 135 181 229 275 323 389
#     4  12  22  38  52  87 128 179 232 274 329 371
#     4  12  20  40  67  93 131 170 223 274 323 383
#     4  11  23  43  68  95 128 176 215 263 333 391
#
# _framework density 21.311333000000001
#
# number of rings (size 3 to 8) (size 9 to 14) (size 15 to 20)
#    0.000    0.500    5.000    4.500    0.000    3.000 
#    0.000    4.375    0.000    0.000    0.000    0.000 
#    0.000    0.000    0.000    0.000    0.000    0.000 
#
# Total GULP energy -178145.902670 kJ/mol
# GULP energy per Si atom -5567.059458 kJ/mol
# Density = 2.126283 g / cm^3
# Si number density = 21.311333 Si / 1000 Ang^3
#
#
#
# Elastic Constant Matrix: (Units=GPa)
#
#
# Indices 1 2 3 4 5 6 
#
# 1 101.4882 21.8065 57.4497 0.0000 19.1086 0.0000
# 2 21.8065 26.4351 20.0207 0.0000 1.8467 0.0000
# 3 57.4497 20.0207 145.2098 0.0000 20.8044 0.0000
# 4 0.0000 0.0000 0.0000 12.6669 0.0000 9.8764
# 5 19.1086 1.8467 20.8044 0.0000 48.8233 0.0000
# 6 0.0000 0.0000 0.0000 9.8764 0.0000 5.8703
#
#
#
# Elastic Compliance Matrix: (Units=1/GPa)
#
#
# Indices 1 2 3 4 5 6 
#
# 1 0.014763 -0.008818 -0.004095 0.000000 -0.003699 0.000000
# 2 -0.008818 0.047547 -0.003518 0.000000 0.003152 0.000000
# 3 -0.004095 -0.003518 0.009311 0.000000 -0.002232 0.000000
# 4 0.000000 0.000000 0.000000 -0.253195 0.000000 0.425986
# 5 -0.003699 0.003152 -0.002232 0.000000 0.022762 0.000000
# 6 0.000000 0.000000 0.000000 0.425986 0.000000 -0.546345
#
#
# Mechanical properties :
#
#
# Convention : Reuss Voigt Hill
#
# Bulk Modulus (GPa) = 25.80067 52.40965 39.10516
# Shear Modulus (GPa) = -7.58294 25.06250 8.73978
#
# Velocity S-wave (km/s) = -1.88836 3.43303 2.02729
# Velocity P-wave (km/s) = 2.71630 6.35296 4.88561
#
# Compressibility (1/GPa) = 0.03875869
#
# Stress axis : x y z
#
# Youngs Moduli (GPa) = 67.73892 21.03171 107.39435
#
# Poissons Ratio (x) = 0.18546 0.43975
# Poissons Ratio (y) = 0.59733 0.37786
# Poissons Ratio (z) = 0.27737 0.07400
#
# Static dielectric constant tensor:
#      x y z
#    x 1.718800 0.000000 -0.042350 
#    y 0.000000 1.687450 0.000000 
#    z -0.042350 0.000000 1.734690 
# 
# From -- ./inp_files/44887.got.cif
#   From: 2010.05.17/outbox.cif.g08.bks.cpg/sg15_23_cif.got.tgz:44887.got - 2010.06.03 18:47:42.
