data_PCOD9303514
_publ_section_title
;
Structure prediction by ZEFSAII (Michael W. Deem and Ramdas Pophale) SiO2 
 PCOD9303514
Probable space group: C 2/C
;
_chemical_formula_sum "Si O2"
_cell_formula_units_Z 40
_cell_length_a 14.129914
_cell_length_b 11.147021
_cell_length_c 18.355669
_cell_angle_alpha 90.000000
_cell_angle_beta 43.329679
_cell_angle_gamma 90.000000
_cell_volume 1983.883930
_symmetry_space_group_name_H-M "C 2/C"
_symmetry_group_IT_number 15
_symmetry_cell_setting 'monoclinic'
loop_
_space_group_symop_operation_xyz
x,y,z
-x,y,1/2-z
-x,-y,-z
x,-y,1/2+z
1/2+x,1/2+y,z
1/2-x,1/2+y,1/2-z
1/2-x,1/2-y,-z
1/2+x,1/2-y,1/2+z
loop_
_atom_site_type_symbol
_atom_site_label
_atom_site_fract_x
_atom_site_fract_y
_atom_site_fract_z
Si Si1 0.168828 0.569758 0.595149
Si Si2 0.366837 0.794979 0.883397
Si Si3 0.116188 0.172977 0.778185
Si Si4 0.390590 0.819075 0.216245
Si Si5 0.467388 0.428949 0.854405
O O1 0.157875 0.431266 0.626532
O O2 0.159883 0.654869 0.671920
O O3 0.308951 0.584482 0.469889
O O4 0.028073 0.600030 0.630565
O O5 0.509459 0.782949 0.848943
O O6 0.359859 0.699836 0.820815
O O7 0.250000 0.750000 0.000000
O O8 0.259287 0.163084 0.739060
O O9 0.029578 0.054568 0.846113
O O10 0.445593 0.685747 0.169687
O O11 0.500000 0.431090 0.750000
#
# Coordination Sequence:
#
# PCOD9303514 Si02
#       5
#     8   8   8   8   8
#     4  11  24  46  67  93 137 179 213 270 340 393
#     4  11  22  45  67  92 131 176 219 269 327 391
#     4  11  24  41  66  99 129 167 225 273 323 391
#     4  11  26  40  67 100 131 173 220 271 328 400
#     4  12  23  45  66  93 135 173 218 274 330 388
#
# _framework density 20.162469999999999
#
# number of rings (size 3 to 8) (size 9 to 14) (size 15 to 20)
#    0.000    0.800    6.000    3.000    5.600    2.400 
#    0.000    2.000    0.000    0.000    0.000    0.000 
#    0.000    0.000    0.000    0.000    0.000    0.000 
#
# Total GULP energy -111401.849452 kJ/mol
# GULP energy per Si atom -5570.092473 kJ/mol
# Density = 2.011658 g / cm^3
# Si number density = 20.162470 Si / 1000 Ang^3
#
#
#
# Elastic Constant Matrix: (Units=GPa)
#
#
# Indices 1 2 3 4 5 6 
#
# 1 104.0374 18.1122 66.0133 0.0000 -39.0745 0.0000
# 2 18.1122 92.0666 34.5249 0.0000 -2.7908 0.0000
# 3 66.0133 34.5249 194.7086 0.0000 -19.1071 0.0000
# 4 0.0000 0.0000 0.0000 39.9014 0.0000 -5.6074
# 5 -39.0745 -2.7908 -19.1071 0.0000 28.9554 0.0000
# 6 0.0000 0.0000 0.0000 -5.6074 0.0000 10.3201
#
#
#
# Elastic Compliance Matrix: (Units=1/GPa)
#
#
# Indices 1 2 3 4 5 6 
#
# 1 0.023907 -0.001982 -0.004926 0.000000 0.028820 0.000000
# 2 -0.001982 0.011802 -0.001680 0.000000 -0.002647 0.000000
# 3 -0.004926 -0.001680 0.006881 0.000000 -0.002268 0.000000
# 4 0.000000 0.000000 0.000000 0.027134 0.000000 0.014743
# 5 0.028820 -0.002647 -0.002268 0.000000 0.071676 0.000000
# 6 0.000000 0.000000 0.000000 0.014743 0.000000 0.104909
#
#
# Mechanical properties :
#
#
# Convention : Reuss Voigt Hill
#
# Bulk Modulus (GPa) = 39.34992 69.79037 54.57014
# Shear Modulus (GPa) = 18.38539 33.97953 26.18246
#
# Velocity S-wave (km/s) = 3.02298 4.10968 3.60748
# Velocity P-wave (km/s) = 5.63412 7.56362 6.66902
#
# Compressibility (1/GPa) = 0.02541302
#
# Stress axis : x y z
#
# Youngs Moduli (GPa) = 41.82930 84.73456 145.32409
#
# Poissons Ratio (x) = 0.16798 0.71580
# Poissons Ratio (y) = 0.08293 0.24417
# Poissons Ratio (z) = 0.20603 0.14237
#
# Static dielectric constant tensor:
#      x y z
#    x 1.493460 0.000000 -0.450790 
#    y 0.000000 1.751490 0.000000 
#    z -0.450790 0.000000 0.838630 
# 
# From -- ./inp_files/273747.got.cif
#   From: 2010.05.17/outbox.cif.g08.bks.cpg/sg15_137_cif.got.tgz:273747.got - 2010.06.03 18:47:42.
