data_PCOD9303244
_publ_section_title
;
Structure prediction by ZEFSAII (Michael W. Deem and Ramdas Pophale) SiO2 
 PCOD9303244
Probable space group: C 2/C
;
_chemical_formula_sum "Si O2"
_cell_formula_units_Z 64
_cell_length_a 10.429821
_cell_length_b 23.361095
_cell_length_c 11.666599
_cell_angle_alpha 90.000000
_cell_angle_beta 95.784652
_cell_angle_gamma 90.000000
_cell_volume 2828.115436
_symmetry_space_group_name_H-M "C 2/C"
_symmetry_group_IT_number 15
_symmetry_cell_setting 'monoclinic'
loop_
_space_group_symop_operation_xyz
x,y,z
-x,y,1/2-z
-x,-y,-z
x,-y,1/2+z
1/2+x,1/2+y,z
1/2-x,1/2+y,1/2-z
1/2-x,1/2-y,-z
1/2+x,1/2-y,1/2+z
loop_
_atom_site_type_symbol
_atom_site_label
_atom_site_fract_x
_atom_site_fract_y
_atom_site_fract_z
Si Si1 0.827721 0.085355 0.972458
Si Si2 0.959035 0.722128 0.937185
Si Si3 0.605609 0.005404 0.662089
Si Si4 0.959396 0.595787 0.505280
Si Si5 0.145784 0.127866 0.269242
Si Si6 0.539390 0.309107 0.122153
Si Si7 0.699794 0.751541 0.292087
Si Si8 0.632682 0.510798 0.190449
O O1 0.926747 0.128752 0.922700
O O2 0.861570 0.023226 0.927481
O O3 0.675655 0.097773 0.934851
O O4 0.843237 0.096326 0.108190
O O5 0.082970 0.739614 0.870846
O O6 0.844023 0.721341 0.833327
O O7 0.987851 0.660179 0.995580
O O8 0.947742 0.771488 0.032065
O O9 0.500000 0.012151 0.750000
O O10 0.567940 0.054720 0.569358
O O11 0.748202 0.012315 0.723516
O O12 0.583349 0.941731 0.608539
O O13 0.228913 0.184501 0.272999
O O14 0.000000 0.150159 0.250000
O O15 0.160780 0.078351 0.177619
O O16 0.500000 0.312288 0.250000
O O17 0.676638 0.277627 0.137548
O O18 0.500000 0.504713 0.250000
#
# Coordination Sequence:
#
# PCOD9303244 Si02
#       8
#     8   8   8   8   8   8   8   8
#     4  12  22  44  67  99 136 180 238 287 345 430
#     4  11  23  43  73 104 127 183 238 288 349 426
#     4  11  24  45  68  99 148 180 232 296 346 408
#     4  11  24  41  73 102 134 184 236 286 351 421
#     4  11  22  43  67  96 136 177 237 289 349 416
#     4  12  26  42  68 101 145 181 222 299 362 424
#     4  11  22  42  74  99 129 182 236 290 343 418
#     4  11  26  41  67 101 137 187 231 286 351 416
#
# _framework density 22.629911
#
# number of rings (size 3 to 8) (size 9 to 14) (size 15 to 20)
#    0.000    0.750    6.250    1.500    3.500    3.000 
#    0.000    1.250    0.000    0.000    0.000    0.000 
#    0.000    0.000    0.000    0.000    0.000    0.000 
#
# Total GULP energy -178856.437357 kJ/mol
# GULP energy per Si atom -5589.263667 kJ/mol
# Density = 2.257840 g / cm^3
# Si number density = 22.629911 Si / 1000 Ang^3
#
#
#
# Elastic Constant Matrix: (Units=GPa)
#
#
# Indices 1 2 3 4 5 6 
#
# 1 52.0051 -22.4803 5.5912 0.0000 17.3698 0.0000
# 2 -22.4803 122.7081 18.1953 0.0000 0.6685 0.0000
# 3 5.5912 18.1953 63.1859 0.0000 17.5099 0.0000
# 4 0.0000 0.0000 0.0000 15.6662 0.0000 -11.4314
# 5 17.3698 0.6685 17.5099 0.0000 23.8916 0.0000
# 6 0.0000 0.0000 0.0000 -11.4314 0.0000 12.0266
#
#
#
# Elastic Compliance Matrix: (Units=1/GPa)
#
#
# Indices 1 2 3 4 5 6 
#
# 1 0.028759 0.005051 0.002301 0.000000 -0.022736 0.000000
# 2 0.005051 0.009474 -0.002615 0.000000 -0.002021 0.000000
# 3 0.002301 -0.002615 0.021106 0.000000 -0.017068 0.000000
# 4 0.000000 0.000000 0.000000 0.208311 0.000000 0.198002
# 5 -0.022736 -0.002021 -0.017068 0.000000 0.070951 0.000000
# 6 0.000000 0.000000 0.000000 0.198002 0.000000 0.271353
#
#
# Mechanical properties :
#
#
# Convention : Reuss Voigt Hill
#
# Bulk Modulus (GPa) = 14.53207 26.72352 20.62780
# Shear Modulus (GPa) = 8.02032 26.08972 17.05502
#
# Velocity S-wave (km/s) = 1.88463 3.39910 2.74825
# Velocity P-wave (km/s) = 3.34235 5.21917 4.38241
#
# Compressibility (1/GPa) = 0.06881330
#
# Stress axis : x y z
#
# Youngs Moduli (GPa) = 34.77166 105.55655 47.38089
#
# Poissons Ratio (x) = -0.53320 -0.10903
# Poissons Ratio (y) = -0.17564 0.12390
# Poissons Ratio (z) = -0.08002 0.27603
#
# Static dielectric constant tensor:
#      x y z
#    x 1.860070 0.000000 0.004140 
#    y 0.000000 1.847930 0.000000 
#    z 0.004140 0.000000 1.852450 
# 
# From -- ./inp_files/90842.got.cif
#   From: 2010.05.17/outbox.cif.g08.bks.cpg/sg15_46_cif.got.tgz:90842.got - 2010.06.03 18:47:42.
