data_PCOD9303650
_publ_section_title
;
Structure prediction by ZEFSAII (Michael W. Deem and Ramdas Pophale) SiO2 
 PCOD9303650
Probable space group: C 2/C
;
_chemical_formula_sum "Si O2"
_cell_formula_units_Z 56
_cell_length_a 17.967346
_cell_length_b 9.061677
_cell_length_c 26.669142
_cell_angle_alpha 90.000000
_cell_angle_beta 140.870371
_cell_angle_gamma 90.000000
_cell_volume 2740.210519
_symmetry_space_group_name_H-M "C 2/C"
_symmetry_group_IT_number 15
_symmetry_cell_setting 'monoclinic'
loop_
_space_group_symop_operation_xyz
x,y,z
-x,y,1/2-z
-x,-y,-z
x,-y,1/2+z
1/2+x,1/2+y,z
1/2-x,1/2+y,1/2-z
1/2-x,1/2-y,-z
1/2+x,1/2-y,1/2+z
loop_
_atom_site_type_symbol
_atom_site_label
_atom_site_fract_x
_atom_site_fract_y
_atom_site_fract_z
Si Si1 0.185034 0.371066 0.649652
Si Si2 0.593306 0.110347 0.211782
Si Si3 0.247046 0.314730 0.143613
Si Si4 0.213891 0.839350 0.030179
Si Si5 0.375296 0.811762 0.209811
Si Si6 0.991465 0.827486 0.508987
Si Si7 0.316512 0.834364 0.577996
O O1 0.139027 0.422198 0.679830
O O2 0.215432 0.514202 0.632425
O O3 0.309638 0.283985 0.717814
O O4 0.084080 0.266724 0.571559
O O5 0.663884 0.253833 0.267817
O O6 0.453454 0.136162 0.138614
O O7 0.617188 0.976759 0.263526
O O8 0.304258 0.263228 0.121427
O O9 0.122365 0.232284 0.081925
O O10 0.287838 0.791916 0.117402
O O11 0.079201 0.815143 0.975683
O O12 0.248607 0.010314 0.045498
O O13 0.250000 0.750000 0.000000
O O14 0.500000 0.771794 0.250000
O O15 0.000000 0.000000 0.500000
O O16 0.250000 0.750000 0.500000
#
# Coordination Sequence:
#
# PCOD9303650 Si02
#       7
#     8   8   8   8   8   8   8
#     4  11  27  41  69 108 136 185 238 293 357 423
#     4  12  24  47  72  99 140 191 236 290 361 419
#     4  12  24  45  68 102 141 181 233 300 354 421
#     4  11  25  43  70 104 134 187 237 287 351 426
#     4  11  22  47  70  96 140 185 235 289 351 420
#     4  11  23  46  70  97 144 184 232 290 357 424
#     4  12  26  44  71 102 143 186 234 290 359 421
#
# _framework density 20.436385000000001
#
# number of rings (size 3 to 8) (size 9 to 14) (size 15 to 20)
#    0.000    0.571    4.286    3.429    6.000    2.286 
#    0.000    0.000    0.000    0.000    0.000    0.000 
#    0.000    0.000    0.000    0.000    0.000    0.000 
#
# Total GULP energy -156434.389169 kJ/mol
# GULP energy per Si atom -5586.942470 kJ/mol
# Density = 2.038987 g / cm^3
# Si number density = 20.436385 Si / 1000 Ang^3
#
#
#
# Elastic Constant Matrix: (Units=GPa)
#
#
# Indices 1 2 3 4 5 6 
#
# 1 148.6602 20.1391 20.4458 0.0000 3.0999 0.0000
# 2 20.1391 99.6250 17.5476 0.0000 -1.5439 0.0000
# 3 20.4458 17.5476 52.2519 0.0000 6.9905 0.0000
# 4 0.0000 0.0000 0.0000 21.0249 0.0000 -2.7076
# 5 3.0999 -1.5439 6.9905 0.0000 42.0723 0.0000
# 6 0.0000 0.0000 0.0000 -2.7076 0.0000 27.9965
#
#
#
# Elastic Compliance Matrix: (Units=1/GPa)
#
#
# Indices 1 2 3 4 5 6 
#
# 1 0.007207 -0.001027 -0.002453 0.000000 -0.000161 0.000000
# 2 -0.001027 0.010857 -0.003383 0.000000 0.001036 0.000000
# 3 -0.002453 -0.003383 0.021709 0.000000 -0.003550 0.000000
# 4 0.000000 0.000000 0.000000 0.048162 0.000000 0.004658
# 5 -0.000161 0.001036 -0.003550 0.000000 0.024408 0.000000
# 6 0.000000 0.000000 0.000000 0.004658 0.000000 0.036169
#
#
# Mechanical properties :
#
#
# Convention : Reuss Voigt Hill
#
# Bulk Modulus (GPa) = 38.39343 46.31132 42.35237
# Shear Modulus (GPa) = 29.25310 34.37904 31.81607
#
# Velocity S-wave (km/s) = 3.78752 4.10597 3.94995
# Velocity P-wave (km/s) = 6.16073 6.72228 6.44762
#
# Compressibility (1/GPa) = 0.02604613
#
# Stress axis : x y z
#
# Youngs Moduli (GPa) = 138.75995 92.10489 46.06359
#
# Poissons Ratio (x) = 0.09461 0.11301
# Poissons Ratio (y) = 0.14253 0.15583
# Poissons Ratio (z) = 0.34044 0.31158
#
# Static dielectric constant tensor:
#      x y z
#    x 1.768480 0.000000 0.008860 
#    y 0.000000 1.826470 0.000000 
#    z 0.008860 0.000000 1.714220 
# 
# From -- ./inp_files/298568.got.cif
#   From: 2010.05.17/outbox.cif.g08.bks.cpg/sg15_150_cif.got.tgz:298568.got - 2010.06.03 18:47:42.
