data_PCOD9303248
_publ_section_title
;
Structure prediction by ZEFSAII (Michael W. Deem and Ramdas Pophale) SiO2 
 PCOD9303248
Probable space group: C 2/C
;
_chemical_formula_sum "Si O2"
_cell_formula_units_Z 56
_cell_length_a 15.022097
_cell_length_b 14.119636
_cell_length_c 12.468835
_cell_angle_alpha 90.000000
_cell_angle_beta 57.006824
_cell_angle_gamma 90.000000
_cell_volume 2218.221597
_symmetry_space_group_name_H-M "C 2/C"
_symmetry_group_IT_number 15
_symmetry_cell_setting 'monoclinic'
loop_
_space_group_symop_operation_xyz
x,y,z
-x,y,1/2-z
-x,-y,-z
x,-y,1/2+z
1/2+x,1/2+y,z
1/2-x,1/2+y,1/2-z
1/2-x,1/2-y,-z
1/2+x,1/2-y,1/2+z
loop_
_atom_site_type_symbol
_atom_site_label
_atom_site_fract_x
_atom_site_fract_y
_atom_site_fract_z
Si Si1 0.487033 0.911064 0.430074
Si Si2 0.199529 0.000974 0.548250
Si Si3 0.669018 0.133239 0.663105
Si Si4 0.610840 0.340990 0.744840
Si Si5 0.029086 0.101262 0.526792
Si Si6 0.664747 0.171066 0.081399
Si Si7 0.567824 0.779024 0.853969
O O1 0.412352 0.906166 0.374475
O O2 0.606746 0.891051 0.312526
O O3 0.431421 0.828277 0.533461
O O4 0.500000 0.000000 0.500000
O O5 0.107180 0.072316 0.571716
O O6 0.297871 0.072200 0.491091
O O7 0.225945 0.924531 0.436604
O O8 0.169182 0.936852 0.669048
O O9 0.674791 0.247223 0.666124
O O10 0.500000 0.337503 0.750000
O O11 0.584160 0.345107 0.889154
O O12 0.933636 0.166206 0.632995
O O13 0.000000 0.000000 0.500000
O O14 0.550402 0.198700 0.111864
O O15 0.649886 0.172989 0.219621
O O16 0.750000 0.250000 0.000000
#
# Coordination Sequence:
#
# PCOD9303248 Si02
#       7
#     8   8   8   8   8   8   8
#     4  11  22  42  75 103 146 190 241 293 365 436
#     4  12  27  44  71 110 143 183 251 306 363 439
#     4  11  24  47  70 106 147 192 242 303 367 429
#     4  12  24  49  73  99 146 195 241 302 369 441
#     4  12  26  45  73 105 138 198 242 295 374 442
#     4  11  25  45  73 108 147 189 236 309 373 436
#     4  11  24  47  74 103 149 191 243 299 373 443
#
# _framework density 25.245446999999999
#
# number of rings (size 3 to 8) (size 9 to 14) (size 15 to 20)
#    0.000    0.571    5.714    2.143    2.000    5.714 
#    2.571    0.000    0.000    0.000    0.000    0.000 
#    0.000    0.000    0.000    0.000    0.000    0.000 
#
# Total GULP energy -156700.031523 kJ/mol
# GULP energy per Si atom -5596.429697 kJ/mol
# Density = 2.518799 g / cm^3
# Si number density = 25.245447 Si / 1000 Ang^3
#
#
#
# Elastic Constant Matrix: (Units=GPa)
#
#
# Indices 1 2 3 4 5 6 
#
# 1 33.3625 9.0252 2.2853 0.0000 2.1111 0.0000
# 2 9.0252 145.1192 20.1656 0.0000 1.2589 0.0000
# 3 2.2853 20.1656 111.3921 0.0000 1.8995 0.0000
# 4 0.0000 0.0000 0.0000 54.5098 0.0000 -6.7757
# 5 2.1111 1.2589 1.8995 0.0000 25.7788 0.0000
# 6 0.0000 0.0000 0.0000 -6.7757 0.0000 36.4914
#
#
#
# Elastic Compliance Matrix: (Units=1/GPa)
#
#
# Indices 1 2 3 4 5 6 
#
# 1 0.030643 -0.001850 -0.000253 0.000000 -0.002400 0.000000
# 2 -0.001850 0.007182 -0.001260 0.000000 -0.000106 0.000000
# 3 -0.000253 -0.001260 0.009221 0.000000 -0.000597 0.000000
# 4 0.000000 0.000000 0.000000 0.018779 0.000000 0.003487
# 5 -0.002400 -0.000106 -0.000597 0.000000 0.039037 0.000000
# 6 0.000000 0.000000 0.000000 0.003487 0.000000 0.028051
#
#
# Mechanical properties :
#
#
# Convention : Reuss Voigt Hill
#
# Bulk Modulus (GPa) = 24.80154 39.20289 32.00221
# Shear Modulus (GPa) = 32.66275 40.58253 36.62264
#
# Velocity S-wave (km/s) = 3.60086 4.01374 3.81289
# Velocity P-wave (km/s) = 5.20900 6.08626 5.66464
#
# Compressibility (1/GPa) = 0.04032008
#
# Stress axis : x y z
#
# Youngs Moduli (GPa) = 32.63347 139.23708 108.44998
#
# Poissons Ratio (x) = 0.25756 0.02742
# Poissons Ratio (y) = 0.06037 0.13669
# Poissons Ratio (z) = 0.00825 0.17550
#
# Static dielectric constant tensor:
#      x y z
#    x 1650.625980 0.000000 221.535370 
#    y 0.000000 2.007980 0.000000 
#    z 221.535370 0.000000 31.734420 
# 
# From -- ./inp_files/105653.got.cif
#   From: 2010.05.17/outbox.cif.g08.bks.cpg/sg15_53_cif.got.tgz:105653.got - 2010.06.03 18:47:42.
