data_PCOD9303829
_publ_section_title
;
Structure prediction by ZEFSAII (Michael W. Deem and Ramdas Pophale) SiO2 
 PCOD9303829
Probable space group: C 2/C
;
_chemical_formula_sum "Si O2"
_cell_formula_units_Z 56
_cell_length_a 20.438651
_cell_length_b 17.683567
_cell_length_c 7.046292
_cell_angle_alpha 90.000000
_cell_angle_beta 114.229320
_cell_angle_gamma 90.000000
_cell_volume 2322.388235
_symmetry_space_group_name_H-M "C 2/C"
_symmetry_group_IT_number 15
_symmetry_cell_setting 'monoclinic'
loop_
_space_group_symop_operation_xyz
x,y,z
-x,y,1/2-z
-x,-y,-z
x,-y,1/2+z
1/2+x,1/2+y,z
1/2-x,1/2+y,1/2-z
1/2-x,1/2-y,-z
1/2+x,1/2-y,1/2+z
loop_
_atom_site_type_symbol
_atom_site_label
_atom_site_fract_x
_atom_site_fract_y
_atom_site_fract_z
Si Si1 0.401045 0.783499 0.814868
Si Si2 0.559214 0.200541 0.586367
Si Si3 0.191934 0.038866 0.314362
Si Si4 0.401931 0.390946 0.307380
Si Si5 0.059360 0.874893 0.595708
Si Si6 0.803680 0.414631 0.658653
Si Si7 0.171812 0.426439 0.254651
O O1 0.420516 0.793586 0.614341
O O2 0.382490 0.696292 0.830261
O O3 0.334895 0.837622 0.775257
O O4 0.473878 0.812263 0.001769
O O5 0.566566 0.287092 0.659362
O O6 0.612444 0.136572 0.729696
O O7 0.120979 0.083766 0.283534
O O8 0.259310 0.064414 0.526474
O O9 0.303219 0.911027 0.430853
O O10 0.226931 0.067377 0.157914
O O11 0.477773 0.403537 0.506546
O O12 0.343880 0.456570 0.266653
O O13 0.421237 0.386376 0.104665
O O14 0.854594 0.486047 0.773549
#
# Coordination Sequence:
#
# PCOD9303829 Si02
#       7
#     8   8   8   8   8   8   8
#     4   8  17  39  68  93 124 172 221 266 317 378
#     4   8  17  38  66  95 127 166 220 271 314 379
#     4  12  23  39  66  98 135 171 207 267 328 390
#     4   9  19  39  68  95 125 171 223 269 316 381
#     4   9  19  38  67  97 124 169 224 267 318 382
#     4  11  23  41  63  95 131 168 216 256 326 393
#     4  11  23  40  62  94 134 169 212 262 322 390
#
# _framework density 24.113109000000001
#
# number of rings (size 3 to 8) (size 9 to 14) (size 15 to 20)
#    0.000    2.286    1.429    3.000    0.000    1.143 
#    2.571    3.571    3.143    3.429    0.000    0.000 
#    0.000    0.000    0.000    0.000    0.000    0.000 
#
# Total GULP energy -156314.035976 kJ/mol
# GULP energy per Si atom -5582.644142 kJ/mol
# Density = 2.405823 g / cm^3
# Si number density = 24.113109 Si / 1000 Ang^3
#
#
#
# Elastic Constant Matrix: (Units=GPa)
#
#
# Indices 1 2 3 4 5 6 
#
# 1 119.0738 73.9408 45.5497 0.0000 18.0902 0.0000
# 2 73.9408 165.6931 101.4364 0.0000 56.9418 0.0000
# 3 45.5497 101.4364 149.0740 0.0000 22.0394 0.0000
# 4 0.0000 0.0000 0.0000 271.8942 0.0000 -0.3660
# 5 18.0902 56.9418 22.0394 0.0000 45.4949 0.0000
# 6 0.0000 0.0000 0.0000 -0.3660 0.0000 42.4243
#
#
#
# Elastic Compliance Matrix: (Units=1/GPa)
#
#
# Indices 1 2 3 4 5 6 
#
# 1 0.011923 -0.006863 0.000493 0.000000 0.003610 0.000000
# 2 -0.006863 0.022128 -0.009983 0.000000 -0.020130 0.000000
# 3 0.000493 -0.009983 0.012422 0.000000 0.006282 0.000000
# 4 0.000000 0.000000 0.000000 0.003678 0.000000 0.000032
# 5 0.003610 -0.020130 0.006282 0.000000 0.042696 0.000000
# 6 0.000000 0.000000 0.000000 0.000032 0.000000 0.023572
#
#
# Mechanical properties :
#
#
# Convention : Reuss Voigt Hill
#
# Bulk Modulus (GPa) = 72.64629 97.29938 84.97283
# Shear Modulus (GPa) = 32.52807 86.15694 59.34250
#
# Velocity S-wave (km/s) = 3.67683 5.98397 4.96623
# Velocity P-wave (km/s) = 6.94393 9.39056 8.25835
#
# Compressibility (1/GPa) = 0.01376533
#
# Stress axis : x y z
#
# Youngs Moduli (GPa) = 83.87283 45.19259 80.50340
#
# Poissons Ratio (x) = 0.31017 -0.03971
# Poissons Ratio (y) = 0.57564 0.80370
# Poissons Ratio (z) = -0.04137 0.45118
#
# Static dielectric constant tensor:
#      x y z
#    x 2.025570 0.000000 -0.144120 
#    y 0.000000 1.935700 0.000000 
#    z -0.144120 0.000000 2.058160 
# 
# From -- ./inp_files/119274.got.cif
#   From: 2010.05.17/outbox.cif.g08.bks.cpg/sg15_60_cif.got.tgz:119274.got - 2010.06.03 18:47:42.
