data_PCOD9303805
_publ_section_title
;
Structure prediction by ZEFSAII (Michael W. Deem and Ramdas Pophale) SiO2 
 PCOD9303805
Probable space group: C 2/C
;
_chemical_formula_sum "Si O2"
_cell_formula_units_Z 52
_cell_length_a 7.303574
_cell_length_b 12.556763
_cell_length_c 27.347420
_cell_angle_alpha 90.000000
_cell_angle_beta 69.181162
_cell_angle_gamma 90.000000
_cell_volume 2344.260429
_symmetry_space_group_name_H-M "C 2/C"
_symmetry_group_IT_number 15
_symmetry_cell_setting 'monoclinic'
loop_
_space_group_symop_operation_xyz
x,y,z
-x,y,1/2-z
-x,-y,-z
x,-y,1/2+z
1/2+x,1/2+y,z
1/2-x,1/2+y,1/2-z
1/2-x,1/2-y,-z
1/2+x,1/2-y,1/2+z
loop_
_atom_site_type_symbol
_atom_site_label
_atom_site_fract_x
_atom_site_fract_y
_atom_site_fract_z
Si Si1 0.321348 0.660583 0.121273
Si Si2 0.315966 0.378264 0.839006
Si Si3 0.982549 0.037440 0.572877
Si Si4 0.000000 0.040960 0.750000
Si Si5 0.953414 0.806266 0.166923
Si Si6 0.386695 0.925888 0.547951
Si Si7 0.469077 0.718411 0.495280
O O1 0.486645 0.647156 0.148118
O O2 0.299511 0.540007 0.102077
O O3 0.134259 0.724622 0.157836
O O4 0.401608 0.722709 0.065617
O O5 0.356713 0.461284 0.792332
O O6 0.154162 0.430194 0.890608
O O7 0.230073 0.267059 0.828983
O O8 0.004993 0.115751 0.616873
O O9 0.976703 0.111592 0.526195
O O10 0.163323 0.954668 0.552391
O O11 0.914257 0.118559 0.716831
O O12 0.502703 0.815109 0.529649
O O13 0.500000 0.000000 0.500000
O O14 0.250000 0.750000 0.500000
#
# Coordination Sequence:
#
# PCOD9303805 Si02
#       7
#     8   8   8   4   8   8   8
#     4  11  25  46  72 107 146 188 238 288 358 437
#     4  11  26  52  69 105 150 179 239 307 346 428
#     4  11  23  44  64 105 152 182 232 298 336 436
#     4  12  28  52  74 102 140 184 252 304 350 426
#     4  12  26  48  75 100 137 191 242 297 363 410
#     4  11  23  39  68 102 141 187 227 280 359 421
#     4  12  22  39  66 104 152 191 224 281 360 428
#
# _framework density 22.181837000000002
#
# number of rings (size 3 to 8) (size 9 to 14) (size 15 to 20)
#    0.000    0.615    7.692    1.385    4.308    1.231 
#    2.769    1.538    0.000    0.000    0.000    0.000 
#    0.000    0.000    0.000    0.000    0.000    0.000 
#
# Total GULP energy -145042.837802 kJ/mol
# GULP energy per Si atom -5578.570685 kJ/mol
# Density = 2.213135 g / cm^3
# Si number density = 22.181837 Si / 1000 Ang^3
#
#
#
# Elastic Constant Matrix: (Units=GPa)
#
#
# Indices 1 2 3 4 5 6 
#
# 1 55.2959 25.3791 19.6079 0.0000 7.7539 0.0000
# 2 25.3791 137.4683 52.8476 0.0000 -6.5840 0.0000
# 3 19.6079 52.8476 136.5216 0.0000 9.8060 0.0000
# 4 0.0000 0.0000 0.0000 59.8171 0.0000 8.2180
# 5 7.7539 -6.5840 9.8060 0.0000 17.5459 0.0000
# 6 0.0000 0.0000 0.0000 8.2180 0.0000 31.0683
#
#
#
# Elastic Compliance Matrix: (Units=1/GPa)
#
#
# Indices 1 2 3 4 5 6 
#
# 1 0.021819 -0.004280 -0.000697 0.000000 -0.010859 0.000000
# 2 -0.004280 0.009880 -0.003763 0.000000 0.007702 0.000000
# 3 -0.000697 -0.003763 0.009336 0.000000 -0.006322 0.000000
# 4 0.000000 0.000000 0.000000 0.017348 0.000000 -0.004589
# 5 -0.010859 0.007702 -0.006322 0.000000 0.068216 0.000000
# 6 0.000000 0.000000 0.000000 -0.004589 0.000000 0.033401
#
#
# Mechanical properties :
#
#
# Convention : Reuss Voigt Hill
#
# Bulk Modulus (GPa) = 42.45524 58.32834 50.39179
# Shear Modulus (GPa) = 26.97870 37.11634 32.04752
#
# Velocity S-wave (km/s) = 3.49126 4.09501 3.80513
# Velocity P-wave (km/s) = 5.95257 6.97936 6.48631
#
# Compressibility (1/GPa) = 0.02355422
#
# Stress axis : x y z
#
# Youngs Moduli (GPa) = 45.83181 101.21250 107.11574
#
# Poissons Ratio (x) = 0.43323 0.07464
# Poissons Ratio (y) = 0.19618 0.40309
# Poissons Ratio (z) = 0.03194 0.38087
#
# Static dielectric constant tensor:
#      x y z
#    x 1.960740 0.000000 0.029640 
#    y 0.000000 1.995450 0.000000 
#    z 0.029640 0.000000 1.733420 
# 
# From -- ./inp_files/287592.got.cif
#   From: 2010.05.17/outbox.cif.g08.bks.cpg/sg15_144_cif.got.tgz:287592.got - 2010.06.03 18:47:42.
