data_PCOD9303904
_publ_section_title
;
Structure prediction by ZEFSAII (Michael W. Deem and Ramdas Pophale) SiO2 
 PCOD9303904
Probable space group: C 2/C
;
_chemical_formula_sum "Si O2"
_cell_formula_units_Z 36
_cell_length_a 8.353732
_cell_length_b 12.670470
_cell_length_c 14.129234
_cell_angle_alpha 90.000000
_cell_angle_beta 117.316412
_cell_angle_gamma 90.000000
_cell_volume 1328.747259
_symmetry_space_group_name_H-M "C 2/C"
_symmetry_group_IT_number 15
_symmetry_cell_setting 'monoclinic'
loop_
_space_group_symop_operation_xyz
x,y,z
-x,y,1/2-z
-x,-y,-z
x,-y,1/2+z
1/2+x,1/2+y,z
1/2-x,1/2+y,1/2-z
1/2-x,1/2-y,-z
1/2+x,1/2-y,1/2+z
loop_
_atom_site_type_symbol
_atom_site_label
_atom_site_fract_x
_atom_site_fract_y
_atom_site_fract_z
Si Si1 0.053341 0.870640 0.127209
Si Si2 0.914959 0.902447 0.589154
Si Si3 0.000000 0.241336 0.250000
Si Si4 0.965942 0.638797 0.416018
Si Si5 0.907275 0.591046 0.849403
O O1 0.994700 0.748930 0.123843
O O2 0.225220 0.886048 0.242648
O O3 0.077263 0.880485 0.019459
O O4 0.934212 0.974043 0.114073
O O5 0.734675 0.859119 0.591042
O O6 0.071765 0.842231 0.690370
O O7 0.052523 0.330061 0.342300
O O8 0.969973 0.529989 0.359141
O O9 0.094091 0.621624 0.540996
#
# Coordination Sequence:
#
# PCOD9303904 Si02
#       5
#     8   8   4   8   8
#     4  11  23  41  70 103 131 184 235 287 342 431
#     4  11  23  40  71  97 132 179 238 276 354 411
#     4  12  20  42  68  96 130 186 220 288 332 426
#     4  11  23  45  63 102 140 180 226 298 339 420
#     4  11  24  38  68  96 140 179 230 287 354 402
#
# _framework density 27.093188999999999
#
# number of rings (size 3 to 8) (size 9 to 14) (size 15 to 20)
#    0.000    0.889    4.444    3.333    0.000    0.000 
#    0.000    7.778    0.000    0.000    0.000    0.000 
#    0.000    0.000    0.000    0.000    0.000    0.000 
#
# Total GULP energy -100467.094470 kJ/mol
# GULP energy per Si atom -5581.505248 kJ/mol
# Density = 2.703152 g / cm^3
# Si number density = 27.093189 Si / 1000 Ang^3
#
#
#
# Elastic Constant Matrix: (Units=GPa)
#
#
# Indices 1 2 3 4 5 6 
#
# 1 32.1486 30.8882 20.8792 0.0000 2.3396 0.0000
# 2 30.8882 312.9734 76.1904 0.0000 -2.3602 0.0000
# 3 20.8792 76.1904 214.4459 0.0000 8.9809 0.0000
# 4 0.0000 0.0000 0.0000 56.1302 0.0000 -14.8367
# 5 2.3396 -2.3602 8.9809 0.0000 32.5599 0.0000
# 6 0.0000 0.0000 0.0000 -14.8367 0.0000 32.0497
#
#
#
# Elastic Compliance Matrix: (Units=1/GPa)
#
#
# Indices 1 2 3 4 5 6 
#
# 1 0.035620 -0.002965 -0.002325 0.000000 -0.002133 0.000000
# 2 -0.002965 0.003756 -0.001079 0.000000 0.000783 0.000000
# 3 -0.002325 -0.001079 0.005331 0.000000 -0.001381 0.000000
# 4 0.000000 0.000000 0.000000 0.020300 0.000000 0.009397
# 5 -0.002133 0.000783 -0.001381 0.000000 0.031304 0.000000
# 6 0.000000 0.000000 0.000000 0.009397 0.000000 0.035552
#
#
# Mechanical properties :
#
#
# Convention : Reuss Voigt Hill
#
# Bulk Modulus (GPa) = 31.28081 90.60927 60.94504
# Shear Modulus (GPa) = 32.20467 52.92197 42.56332
#
# Velocity S-wave (km/s) = 3.45144 4.42445 3.96788
# Velocity P-wave (km/s) = 5.23965 7.72121 6.59815
#
# Compressibility (1/GPa) = 0.03196849
#
# Stress axis : x y z
#
# Youngs Moduli (GPa) = 28.07405 266.21799 187.59441
#
# Poissons Ratio (x) = 0.78947 0.43619
# Poissons Ratio (y) = 0.08325 0.20235
# Poissons Ratio (z) = 0.06528 0.28715
#
# Static dielectric constant tensor:
#      x y z
#    x 2.896130 0.000000 0.514430 
#    y 0.000000 2.062360 0.000000 
#    z 0.514430 0.000000 2.402270 
# 
# From -- ./inp_files/141650.got.cif
#   From: 2010.05.17/outbox.cif.g08.bks.cpg/sg15_71_cif.got.tgz:141650.got - 2010.06.03 18:47:42.
