data_PCOD9303983
_publ_section_title
;
Structure prediction by ZEFSAII (Michael W. Deem and Ramdas Pophale) SiO2 
 PCOD9303983
Probable space group: C 2/C
;
_chemical_formula_sum "Si O2"
_cell_formula_units_Z 48
_cell_length_a 15.216359
_cell_length_b 10.934406
_cell_length_c 20.106788
_cell_angle_alpha 90.000000
_cell_angle_beta 140.459551
_cell_angle_gamma 90.000000
_cell_volume 2129.760811
_symmetry_space_group_name_H-M "C 2/C"
_symmetry_group_IT_number 15
_symmetry_cell_setting 'monoclinic'
loop_
_space_group_symop_operation_xyz
x,y,z
-x,y,1/2-z
-x,-y,-z
x,-y,1/2+z
1/2+x,1/2+y,z
1/2-x,1/2+y,1/2-z
1/2-x,1/2-y,-z
1/2+x,1/2-y,1/2+z
loop_
_atom_site_type_symbol
_atom_site_label
_atom_site_fract_x
_atom_site_fract_y
_atom_site_fract_z
Si Si1 0.184676 0.951202 0.173986
Si Si2 0.145914 0.226543 0.169668
Si Si3 0.709443 0.910101 0.412420
Si Si4 0.089287 0.192613 0.985069
Si Si5 0.589843 0.856943 0.863300
Si Si6 0.082256 0.155534 0.359071
O O1 0.263063 0.843599 0.258775
O O2 0.226537 0.945422 0.121021
O O3 0.022708 0.916098 0.085802
O O4 0.213968 0.090322 0.213423
O O5 0.023055 0.215275 0.150429
O O6 0.090456 0.235522 0.062009
O O7 0.813199 0.921431 0.535405
O O8 0.667485 0.769408 0.379929
O O9 0.581481 0.996331 0.357474
O O10 0.048653 0.295631 0.907913
O O11 0.248226 0.164369 0.058578
O O12 0.500000 0.806799 0.750000
O O13 0.000000 0.094392 0.250000
#
# Coordination Sequence:
#
# PCOD9303983 Si02
#       6
#     8   8   8   8   8   8
#     4  12  25  46  75 103 146 190 239 292 359 421
#     4  12  25  44  72 106 141 189 240 293 356 422
#     4  11  23  43  72  99 145 194 236 294 358 427
#     4  11  24  44  70 106 142 182 235 299 352 420
#     4  11  24  44  73 101 140 187 236 289 362 425
#     4  11  23  41  68 105 142 190 243 289 354 424
#
# _framework density 22.537742999999999
#
# number of rings (size 3 to 8) (size 9 to 14) (size 15 to 20)
#    0.000    0.667    5.000    3.000    0.000    1.333 
#    0.000    5.833    0.000    0.000    0.000    0.000 
#    0.000    0.000    0.000    0.000    0.000    0.000 
#
# Total GULP energy -134188.633146 kJ/mol
# GULP energy per Si atom -5591.193048 kJ/mol
# Density = 2.248645 g / cm^3
# Si number density = 22.537743 Si / 1000 Ang^3
#
#
#
# Elastic Constant Matrix: (Units=GPa)
#
#
# Indices 1 2 3 4 5 6 
#
# 1 77.1480 26.5941 11.8466 0.0000 -11.6297 0.0000
# 2 26.5941 109.2217 54.8710 0.0000 -12.2881 0.0000
# 3 11.8466 54.8710 124.5719 0.0000 -27.2481 0.0000
# 4 0.0000 0.0000 0.0000 32.8534 0.0000 2.4411
# 5 -11.6297 -12.2881 -27.2481 0.0000 34.5859 0.0000
# 6 0.0000 0.0000 0.0000 2.4411 0.0000 36.7930
#
#
#
# Elastic Compliance Matrix: (Units=1/GPa)
#
#
# Indices 1 2 3 4 5 6 
#
# 1 0.014740 -0.003689 0.001233 0.000000 0.004617 0.000000
# 2 -0.003689 0.012681 -0.005462 0.000000 -0.001038 0.000000
# 3 0.001233 -0.005462 0.012061 0.000000 0.007976 0.000000
# 4 0.000000 0.000000 0.000000 0.030589 0.000000 -0.002029
# 5 0.004617 -0.001038 0.007976 0.000000 0.036381 0.000000
# 6 0.000000 0.000000 0.000000 -0.002029 0.000000 0.027314
#
#
# Mechanical properties :
#
#
# Convention : Reuss Voigt Hill
#
# Bulk Modulus (GPa) = 42.28975 55.28498 48.78736
# Shear Modulus (GPa) = 31.74922 35.35514 33.55218
#
# Velocity S-wave (km/s) = 3.75735 3.96499 3.86257
# Velocity P-wave (km/s) = 6.13419 6.74868 6.44876
#
# Compressibility (1/GPa) = 0.02364639
#
# Stress axis : x y z
#
# Youngs Moduli (GPa) = 67.84032 78.85718 82.91389
#
# Poissons Ratio (x) = 0.29092 -0.10225
# Poissons Ratio (y) = 0.25027 0.45288
# Poissons Ratio (z) = -0.08366 0.43072
#
# Static dielectric constant tensor:
#      x y z
#    x 1.796520 0.000000 0.039140 
#    y 0.000000 1.891380 0.000000 
#    z 0.039140 0.000000 1.875970 
# 
# From -- ./inp_files/243976.got.cif
#   From: 2010.05.17/outbox.cif.g08.bks.cpg/sg15_122_cif.got.tgz:243976.got - 2010.06.03 18:47:42.
