data_PCOD9303357
_publ_section_title
;
Structure prediction by ZEFSAII (Michael W. Deem and Ramdas Pophale) SiO2 
 PCOD9303357
Probable space group: C 2/C
;
_chemical_formula_sum "Si O2"
_cell_formula_units_Z 40
_cell_length_a 6.429738
_cell_length_b 16.458445
_cell_length_c 18.766490
_cell_angle_alpha 90.000000
_cell_angle_beta 75.477009
_cell_angle_gamma 90.000000
_cell_volume 1922.479041
_symmetry_space_group_name_H-M "C 2/C"
_symmetry_group_IT_number 15
_symmetry_cell_setting 'monoclinic'
loop_
_space_group_symop_operation_xyz
x,y,z
-x,y,1/2-z
-x,-y,-z
x,-y,1/2+z
1/2+x,1/2+y,z
1/2-x,1/2+y,1/2-z
1/2-x,1/2-y,-z
1/2+x,1/2-y,1/2+z
loop_
_atom_site_type_symbol
_atom_site_label
_atom_site_fract_x
_atom_site_fract_y
_atom_site_fract_z
Si Si1 0.545665 0.473404 0.077189
Si Si2 0.319430 0.065475 0.322014
Si Si3 0.681402 0.816043 0.446856
Si Si4 0.132900 0.383210 0.918517
Si Si5 0.521186 0.281721 0.826407
O O1 0.334490 0.492759 0.140931
O O2 0.632241 0.382758 0.074335
O O3 0.730781 0.534580 0.087854
O O4 0.500000 0.500000 0.000000
O O5 0.500000 0.042468 0.250000
O O6 0.438685 0.101337 0.380999
O O7 0.170587 0.138020 0.304910
O O8 0.750000 0.750000 0.500000
O O9 0.469686 0.859188 0.497329
O O10 0.627793 0.774779 0.376666
O O11 0.293736 0.314068 0.876145
O O12 0.500000 0.244032 0.750000
#
# Coordination Sequence:
#
# PCOD9303357 Si02
#       5
#     8   8   8   8   8
#     4  11  24  42  70 102 132 177 238 285 335 412
#     4  11  22  43  74  96 132 183 235 282 339 415
#     4  12  23  43  71 104 136 178 228 288 345 413
#     4  11  22  43  73  95 132 184 234 279 335 411
#     4  11  23  40  70 101 137 180 226 285 360 419
#
# _framework density 20.806469
#
# number of rings (size 3 to 8) (size 9 to 14) (size 15 to 20)
#    0.000    0.800    6.000    2.400    0.000    0.000 
#    0.000    1.000   13.200    0.000    0.000    0.000 
#    0.000    0.000    0.000    0.000    0.000    0.000 
#
# Total GULP energy -111934.189795 kJ/mol
# GULP energy per Si atom -5596.709490 kJ/mol
# Density = 2.075911 g / cm^3
# Si number density = 20.806469 Si / 1000 Ang^3
#
#
#
# Elastic Constant Matrix: (Units=GPa)
#
#
# Indices 1 2 3 4 5 6 
#
# 1 104.3884 53.2529 56.7258 0.0000 -11.8160 0.0000
# 2 53.2529 114.6594 67.3146 0.0000 -6.7253 0.0000
# 3 56.7258 67.3146 151.9374 0.0000 -8.7179 0.0000
# 4 0.0000 0.0000 0.0000 27.0298 0.0000 2.7904
# 5 -11.8160 -6.7253 -8.7179 0.0000 59.1387 0.0000
# 6 0.0000 0.0000 0.0000 2.7904 0.0000 24.8687
#
#
#
# Elastic Compliance Matrix: (Units=1/GPa)
#
#
# Indices 1 2 3 4 5 6 
#
# 1 0.013718 -0.004487 -0.003031 0.000000 0.001784 0.000000
# 2 -0.004487 0.013274 -0.004206 0.000000 -0.000007 0.000000
# 3 -0.003031 -0.004206 0.009596 0.000000 0.000331 0.000000
# 4 0.000000 0.000000 0.000000 0.037430 0.000000 -0.004200
# 5 0.001784 -0.000007 0.000331 0.000000 0.017314 0.000000
# 6 0.000000 0.000000 0.000000 -0.004200 0.000000 0.040682
#
#
# Mechanical properties :
#
#
# Convention : Reuss Voigt Hill
#
# Bulk Modulus (GPa) = 76.10890 80.61909 78.36399
# Shear Modulus (GPa) = 31.28076 35.12023 33.20049
#
# Velocity S-wave (km/s) = 3.88160 4.11292 3.99893
# Velocity P-wave (km/s) = 7.53312 7.83493 7.68550
#
# Compressibility (1/GPa) = 0.01313907
#
# Stress axis : x y z
#
# Youngs Moduli (GPa) = 72.89873 75.33261 104.21058
#
# Poissons Ratio (x) = 0.33801 0.31589
# Poissons Ratio (y) = 0.32709 0.43835
# Poissons Ratio (z) = 0.22098 0.31688
#
# Static dielectric constant tensor:
#      x y z
#    x 1.754140 0.000000 0.007820 
#    y 0.000000 1.739680 0.000000 
#    z 0.007820 0.000000 1.754380 
# 
# From -- ./inp_files/184208.got.cif
#   From: 2010.05.17/outbox.cif.g08.bks.cpg/sg15_93_cif.got.tgz:184208.got - 2010.06.03 18:47:42.
