data_PCOD9303789
_publ_section_title
;
Structure prediction by ZEFSAII (Michael W. Deem and Ramdas Pophale) SiO2 
 PCOD9303789
Probable space group: C 2/C
;
_chemical_formula_sum "Si O2"
_cell_formula_units_Z 32
_cell_length_a 9.666330
_cell_length_b 11.408412
_cell_length_c 12.647171
_cell_angle_alpha 90.000000
_cell_angle_beta 73.233896
_cell_angle_gamma 90.000000
_cell_volume 1335.409917
_symmetry_space_group_name_H-M "C 2/C"
_symmetry_group_IT_number 15
_symmetry_cell_setting 'monoclinic'
loop_
_space_group_symop_operation_xyz
x,y,z
-x,y,1/2-z
-x,-y,-z
x,-y,1/2+z
1/2+x,1/2+y,z
1/2-x,1/2+y,1/2-z
1/2-x,1/2-y,-z
1/2+x,1/2-y,1/2+z
loop_
_atom_site_type_symbol
_atom_site_label
_atom_site_fract_x
_atom_site_fract_y
_atom_site_fract_z
Si Si1 0.344513 0.711254 0.151461
Si Si2 0.353496 0.361229 0.978583
Si Si3 0.329447 0.093158 0.502676
Si Si4 0.920382 0.728953 0.157315
O O1 0.270326 0.655961 0.063938
O O2 0.240260 0.692411 0.272910
O O3 0.504557 0.660180 0.122806
O O4 0.340298 0.847854 0.116233
O O5 0.250756 0.469634 0.978354
O O6 0.415796 0.344785 0.085026
O O7 0.250000 0.250000 0.000000
O O8 0.488354 0.124822 0.419516
O O9 0.000000 0.755431 0.250000
#
# Coordination Sequence:
#
# PCOD9303789 Si02
#       4
#     8   8   8   8
#     4   9  19  39  64  90 128 172 216 256 324 386
#     4  11  23  39  64  98 136 164 213 272 322 386
#     4   9  19  40  67  88 125 173 211 263 324 384
#     4   9  20  41  63  93 128 173 218 260 320 389
#
# _framework density 23.962681
#
# number of rings (size 3 to 8) (size 9 to 14) (size 15 to 20)
#    0.000    2.500    0.000    2.250    0.000    5.000 
#   22.500    0.000   11.000    0.000    0.000    0.000 
#    0.000    0.000    0.000    0.000    0.000    0.000 
#
# Total GULP energy -89254.216282 kJ/mol
# GULP energy per Si atom -5578.388518 kJ/mol
# Density = 2.390814 g / cm^3
# Si number density = 23.962681 Si / 1000 Ang^3
#
#
#
# Elastic Constant Matrix: (Units=GPa)
#
#
# Indices 1 2 3 4 5 6 
#
# 1 166.8314 57.9018 73.6527 0.0000 -35.4739 0.0000
# 2 57.9018 153.0771 48.2051 0.0000 -26.6180 0.0000
# 3 73.6527 48.2051 122.2193 0.0000 -35.0465 0.0000
# 4 0.0000 0.0000 0.0000 11.7886 0.0000 -2.8033
# 5 -35.4739 -26.6180 -35.0465 0.0000 40.3382 0.0000
# 6 0.0000 0.0000 0.0000 -2.8033 0.0000 46.7401
#
#
#
# Elastic Compliance Matrix: (Units=1/GPa)
#
#
# Indices 1 2 3 4 5 6 
#
# 1 0.008960 -0.001587 -0.003748 0.000000 0.003576 0.000000
# 2 -0.001587 0.008054 -0.001460 0.000000 0.002650 0.000000
# 3 -0.003748 -0.001460 0.013045 0.000000 0.007074 0.000000
# 4 0.000000 0.000000 0.000000 0.086055 0.000000 0.005161
# 5 0.003576 0.002650 0.007074 0.000000 0.035830 0.000000
# 6 0.000000 0.000000 0.000000 0.005161 0.000000 0.021704
#
#
# Mechanical properties :
#
#
# Convention : Reuss Voigt Hill
#
# Bulk Modulus (GPa) = 60.72392 89.07190 74.89791
# Shear Modulus (GPa) = 25.94325 37.26458 31.60391
#
# Velocity S-wave (km/s) = 3.29394 3.94777 3.63558
# Velocity P-wave (km/s) = 6.31370 7.61785 6.99623
#
# Compressibility (1/GPa) = 0.01646797
#
# Stress axis : x y z
#
# Youngs Moduli (GPa) = 111.60748 124.16845 76.65636
#
# Poissons Ratio (x) = 0.19706 0.28733
# Poissons Ratio (y) = 0.17712 0.11193
# Poissons Ratio (z) = 0.41833 0.18131
#
# Static dielectric constant tensor:
#      x y z
#    x 2.060730 0.000000 0.056070 
#    y 0.000000 2.033540 0.000000 
#    z 0.056070 0.000000 1.971780 
# 
# From -- ./inp_files/131746.got.cif
#   From: 2010.05.17/outbox.cif.g08.bks.cpg/sg15_66_cif.got.tgz:131746.got - 2010.06.03 18:47:42.
