data_PCOD9303775
_publ_section_title
;
Structure prediction by ZEFSAII (Michael W. Deem and Ramdas Pophale) SiO2 
 PCOD9303775
Probable space group: C 2/C
;
_chemical_formula_sum "Si O2"
_cell_formula_units_Z 64
_cell_length_a 11.949441
_cell_length_b 28.110375
_cell_length_c 8.734648
_cell_angle_alpha 90.000000
_cell_angle_beta 90.730024
_cell_angle_gamma 90.000000
_cell_volume 2933.758653
_symmetry_space_group_name_H-M "C 2/C"
_symmetry_group_IT_number 15
_symmetry_cell_setting 'monoclinic'
loop_
_space_group_symop_operation_xyz
x,y,z
-x,y,1/2-z
-x,-y,-z
x,-y,1/2+z
1/2+x,1/2+y,z
1/2-x,1/2+y,1/2-z
1/2-x,1/2-y,-z
1/2+x,1/2-y,1/2+z
loop_
_atom_site_type_symbol
_atom_site_label
_atom_site_fract_x
_atom_site_fract_y
_atom_site_fract_z
Si Si1 0.677493 0.643870 0.502049
Si Si2 0.475276 0.696168 0.415828
Si Si3 0.616536 0.454626 0.845645
Si Si4 0.197117 0.143531 0.868021
Si Si5 0.782940 0.953624 0.978222
Si Si6 0.569922 0.196721 0.607215
Si Si7 0.475765 0.949751 0.568910
Si Si8 0.577241 0.856268 0.602265
O O1 0.599829 0.690376 0.483788
O O2 0.619424 0.594500 0.442791
O O3 0.699530 0.641144 0.684002
O O4 0.790041 0.648975 0.402068
O O5 0.500000 0.671833 0.250000
O O6 0.396258 0.673630 0.543187
O O7 0.419018 0.746740 0.375830
O O8 0.500000 0.462796 0.750000
O O9 0.698654 0.450636 0.702919
O O10 0.662254 0.498222 0.951502
O O11 0.169750 0.090931 0.928897
O O12 0.316427 0.167672 0.914953
O O13 0.651240 0.943561 0.985113
O O14 0.500000 0.177873 0.750000
O O15 0.481835 0.188945 0.471266
O O16 0.500000 0.954992 0.750000
O O17 0.550461 0.905635 0.513007
O O18 0.500000 0.000000 0.500000
O O19 0.500000 0.862854 0.750000
#
# Coordination Sequence:
#
# PCOD9303775 Si02
#       8
#     8   8   8   8   8   8   8   8
#     4  12  25  45  72 106 145 188 244 296 363 433
#     4  11  27  46  72 101 139 187 239 297 363 425
#     4  12  26  45  69 105 145 194 242 288 351 431
#     4  12  25  46  74 103 146 190 238 300 359 434
#     4  12  24  43  70 100 145 189 238 293 354 420
#     4  11  24  49  70 105 139 181 237 301 366 431
#     4  11  23  39  62  96 134 178 229 285 350 418
#     4  11  24  42  69 101 141 182 233 293 364 427
#
# _framework density 21.815018999999999
#
# number of rings (size 3 to 8) (size 9 to 14) (size 15 to 20)
#    0.000    0.500    2.500    6.750    1.750    4.000 
#    0.000    0.000    0.000    0.000    0.000    0.000 
#    0.000    0.000    0.000    0.000    0.000    0.000 
#
# Total GULP energy -178309.286842 kJ/mol
# GULP energy per Si atom -5572.165214 kJ/mol
# Density = 2.176537 g / cm^3
# Si number density = 21.815019 Si / 1000 Ang^3
#
#
#
# Elastic Constant Matrix: (Units=GPa)
#
#
# Indices 1 2 3 4 5 6 
#
# 1 117.5799 25.7265 0.8202 0.0000 -14.1189 0.0000
# 2 25.7265 57.6594 29.6543 0.0000 -3.1884 0.0000
# 3 0.8202 29.6543 73.4002 0.0000 -9.3287 0.0000
# 4 0.0000 0.0000 0.0000 71.4183 0.0000 -23.4042
# 5 -14.1189 -3.1884 -9.3287 0.0000 40.2412 0.0000
# 6 0.0000 0.0000 0.0000 -23.4042 0.0000 47.0785
#
#
#
# Elastic Compliance Matrix: (Units=1/GPa)
#
#
# Indices 1 2 3 4 5 6 
#
# 1 0.010185 -0.005710 0.002668 0.000000 0.003739 0.000000
# 2 -0.005710 0.025097 -0.010383 0.000000 -0.002422 0.000000
# 3 0.002668 -0.010383 0.018344 0.000000 0.004366 0.000000
# 4 0.000000 0.000000 0.000000 0.016727 0.000000 0.008316
# 5 0.003739 -0.002422 0.004366 0.000000 0.026982 0.000000
# 6 0.000000 0.000000 0.000000 0.008316 0.000000 0.025375
#
#
# Mechanical properties :
#
#
# Convention : Reuss Voigt Hill
#
# Bulk Modulus (GPa) = 37.34704 40.11573 38.73139
# Shear Modulus (GPa) = 31.54871 44.57684 38.06278
#
# Velocity S-wave (km/s) = 3.80701 4.52530 4.18161
# Velocity P-wave (km/s) = 6.03999 6.76265 6.41151
#
# Compressibility (1/GPa) = 0.02677588
#
# Stress axis : x y z
#
# Youngs Moduli (GPa) = 98.18797 39.84534 54.51374
#
# Poissons Ratio (x) = 0.22750 -0.14545
# Poissons Ratio (y) = 0.56062 0.56604
# Poissons Ratio (z) = -0.26199 0.41373
#
# Static dielectric constant tensor:
#      x y z
#    x 1.209850 0.000000 0.067950 
#    y 0.000000 1.866370 0.000000 
#    z 0.067950 0.000000 1.807890 
# 
# From -- ./inp_files/35695.got.cif
#   From: 2010.05.17/outbox.cif.g08.bks.cpg/sg15_18_cif.got.tgz:35695.got - 2010.06.03 18:47:42.
