data_PCOD9303553
_publ_section_title
;
Structure prediction by ZEFSAII (Michael W. Deem and Ramdas Pophale) SiO2 
 PCOD9303553
Probable space group: C 2/C
;
_chemical_formula_sum "Si O2"
_cell_formula_units_Z 60
_cell_length_a 18.250901
_cell_length_b 6.782431
_cell_length_c 26.062090
_cell_angle_alpha 90.000000
_cell_angle_beta 63.366752
_cell_angle_gamma 90.000000
_cell_volume 2883.799625
_symmetry_space_group_name_H-M "C 2/C"
_symmetry_group_IT_number 15
_symmetry_cell_setting 'monoclinic'
loop_
_space_group_symop_operation_xyz
x,y,z
-x,y,1/2-z
-x,-y,-z
x,-y,1/2+z
1/2+x,1/2+y,z
1/2-x,1/2+y,1/2-z
1/2-x,1/2-y,-z
1/2+x,1/2-y,1/2+z
loop_
_atom_site_type_symbol
_atom_site_label
_atom_site_fract_x
_atom_site_fract_y
_atom_site_fract_z
Si Si1 0.500000 0.742318 0.250000
Si Si2 0.643247 0.196343 0.860810
Si Si3 0.931553 0.305032 0.648524
Si Si4 0.329795 0.294993 0.941356
Si Si5 0.696851 0.398427 0.142235
Si Si6 0.586731 0.026530 0.154108
Si Si7 0.132932 0.046726 0.268678
Si Si8 0.007873 0.966018 0.557805
O O1 0.540158 0.611145 0.281791
O O2 0.572058 0.879067 0.205920
O O3 0.716841 0.212282 0.877784
O O4 0.666007 0.292021 0.798429
O O5 0.561953 0.310742 0.903559
O O6 0.622343 0.967084 0.862633
O O7 0.995944 0.423521 0.662878
O O8 0.875783 0.159282 0.699197
O O9 0.984443 0.167832 0.594182
O O10 0.307921 0.450390 0.903236
O O11 0.404047 0.386857 0.951484
O O12 0.363446 0.095593 0.904043
O O13 0.250000 0.250000 0.000000
O O14 0.629275 0.229143 0.156072
O O15 0.680082 0.511935 0.200985
O O16 0.000000 0.000000 0.500000
#
# Coordination Sequence:
#
# PCOD9303553 Si02
#       8
#     4   8   8   8   8   8   8   8
#     4  12  20  42  74 102 132 184 230 284 340 420
#     4  11  27  45  68 105 141 183 234 285 352 424
#     4  11  22  45  71  98 137 182 230 282 350 417
#     4  12  28  48  71 105 142 183 241 295 347 420
#     4  12  28  44  69 105 145 183 228 292 358 414
#     4  12  23  44  71 101 138 181 230 283 348 413
#     4  11  24  41  70 103 143 175 233 284 350 423
#     4  11  26  49  73  99 134 184 241 294 342 418
#
# _framework density 20.805885
#
# number of rings (size 3 to 8) (size 9 to 14) (size 15 to 20)
#    0.000    0.533    5.333    2.400    5.600    3.200 
#    0.000    0.000    0.000    0.000    0.000    0.000 
#    0.000    0.000    0.000    0.000    0.000    0.000 
#
# Total GULP energy -167860.939737 kJ/mol
# GULP energy per Si atom -5595.364658 kJ/mol
# Density = 2.075853 g / cm^3
# Si number density = 20.805885 Si / 1000 Ang^3
#
#
#
# Elastic Constant Matrix: (Units=GPa)
#
#
# Indices 1 2 3 4 5 6 
#
# 1 83.3903 -3.5033 27.8527 -0.0001 3.4647 0.0007
# 2 -3.5033 76.2938 36.5416 0.0004 -1.8940 0.0029
# 3 27.8527 36.5416 128.5240 0.0001 0.2083 -0.0002
# 4 -0.0001 0.0004 0.0001 14.7810 0.0002 2.9394
# 5 3.4647 -1.8940 0.2083 0.0002 31.4573 0.0000
# 6 0.0007 0.0029 -0.0002 2.9394 0.0000 22.9847
#
#
#
# Elastic Compliance Matrix: (Units=1/GPa)
#
#
# Indices 1 2 3 4 5 6 
#
# 1 0.013321 0.002270 -0.003530 0.000000 -0.001307 -0.000001
# 2 0.002270 0.015588 -0.004925 0.000000 0.000721 -0.000002
# 3 -0.003530 -0.004925 0.009946 0.000000 0.000026 0.000001
# 4 0.000000 0.000000 0.000000 0.069420 0.000000 -0.008878
# 5 -0.001307 0.000721 0.000026 0.000000 0.031976 0.000000
# 6 -0.000001 -0.000002 0.000001 -0.008878 0.000000 0.044643
#
#
# Mechanical properties :
#
#
# Convention : Reuss Voigt Hill
#
# Bulk Modulus (GPa) = 37.75813 45.55445 41.65629
# Shear Modulus (GPa) = 24.26101 28.99906 26.63004
#
# Velocity S-wave (km/s) = 3.41847 3.73740 3.58149
# Velocity P-wave (km/s) = 5.81107 6.36920 6.09653
#
# Compressibility (1/GPa) = 0.02648436
#
# Stress axis : x y z
#
# Youngs Moduli (GPa) = 75.07221 64.15075 100.54400
#
# Poissons Ratio (x) = -0.14562 0.35492
# Poissons Ratio (y) = -0.17041 0.49519
# Poissons Ratio (z) = 0.26500 0.31595
#
# Static dielectric constant tensor:
#      x y z
#    x 1.755510 0.000000 0.001230 
#    y 0.000000 1.729430 0.000000 
#    z 0.001230 0.000000 1.757290 
# 
# From -- ./inp_files/300097.got.cif
#   From: 2010.05.17/outbox.cif.g08.bks.cpg/sg15_151_cif.got.tgz:300097.got - 2010.06.03 18:47:42.
