data_PCOD9303882
_publ_section_title
;
Structure prediction by ZEFSAII (Michael W. Deem and Ramdas Pophale) SiO2 
 PCOD9303882
Probable space group: C 2/C
;
_chemical_formula_sum "Si O2"
_cell_formula_units_Z 56
_cell_length_a 27.932796
_cell_length_b 11.584223
_cell_length_c 7.463646
_cell_angle_alpha 90.000000
_cell_angle_beta 68.024486
_cell_angle_gamma 90.000000
_cell_volume 2239.613896
_symmetry_space_group_name_H-M "C 2/C"
_symmetry_group_IT_number 15
_symmetry_cell_setting 'monoclinic'
loop_
_space_group_symop_operation_xyz
x,y,z
-x,y,1/2-z
-x,-y,-z
x,-y,1/2+z
1/2+x,1/2+y,z
1/2-x,1/2+y,1/2-z
1/2-x,1/2-y,-z
1/2+x,1/2-y,1/2+z
loop_
_atom_site_type_symbol
_atom_site_label
_atom_site_fract_x
_atom_site_fract_y
_atom_site_fract_z
Si Si1 0.285724 0.581870 0.775708
Si Si2 0.339964 0.194697 0.085938
Si Si3 0.165399 0.136110 0.439158
Si Si4 0.442864 0.721389 0.849603
Si Si5 0.055302 0.689779 0.749211
Si Si6 0.099002 0.552980 0.265832
Si Si7 0.177761 0.390741 0.270176
O O1 0.305501 0.693367 0.641340
O O2 0.323477 0.472698 0.702247
O O3 0.229158 0.558949 0.780891
O O4 0.290760 0.621208 0.972269
O O5 0.397447 0.230637 0.940823
O O6 0.321821 0.114435 0.946415
O O7 0.348861 0.133637 0.267377
O O8 0.107842 0.141532 0.604620
O O9 0.173177 0.258246 0.333337
O O10 0.500000 0.669407 0.750000
O O11 0.437344 0.836655 0.733578
O O12 0.439827 0.759700 0.060849
O O13 0.063874 0.551177 0.737978
O O14 0.000000 0.718563 0.750000
O O15 0.125237 0.462163 0.388734
#
# Coordination Sequence:
#
# PCOD9303882 Si02
#       7
#     8   8   8   8   8   8   8
#     4  12  28  45  75  97 148 196 242 293 361 415
#     4  11  23  42  68 102 145 185 239 294 353 439
#     4  12  27  50  70 108 141 191 250 298 348 440
#     4  12  25  47  72 106 148 190 237 302 369 429
#     4  11  23  40  69 105 147 181 239 300 375 431
#     4  11  23  41  71 110 146 183 230 300 364 438
#     4  11  26  44  72 106 146 186 240 299 360 431
#
# _framework density 25.004308000000002
#
# number of rings (size 3 to 8) (size 9 to 14) (size 15 to 20)
#    0.000    0.571    4.286    4.714    4.000    1.714 
#    0.000    1.429    0.000    0.000    0.000    0.000 
#    0.000    0.000    0.000    0.000    0.000    0.000 
#
# Total GULP energy -155969.517327 kJ/mol
# GULP energy per Si atom -5570.339905 kJ/mol
# Density = 2.494740 g / cm^3
# Si number density = 25.004308 Si / 1000 Ang^3
#
#
#
# Elastic Constant Matrix: (Units=GPa)
#
#
# Indices 1 2 3 4 5 6 
#
# 1 164.3064 10.3547 13.9656 0.0000 -4.2566 0.0000
# 2 10.3547 29.6105 6.0249 0.0000 -9.8337 0.0000
# 3 13.9656 6.0249 49.2981 0.0000 0.9593 0.0000
# 4 0.0000 0.0000 0.0000 32.8469 0.0000 -24.0749
# 5 -4.2566 -9.8337 0.9593 0.0000 40.8538 0.0000
# 6 0.0000 0.0000 0.0000 -24.0749 0.0000 -44.5102
#
#
#
# Elastic Compliance Matrix: (Units=1/GPa)
#
#
# Indices 1 2 3 4 5 6 
#
# 1 0.006341 -0.001809 -0.001580 0.000000 0.000262 0.000000
# 2 -0.001809 0.038324 -0.004349 0.000000 0.009138 0.000000
# 3 -0.001580 -0.004349 0.021297 0.000000 -0.001712 0.000000
# 4 0.000000 0.000000 0.000000 0.021801 0.000000 -0.011792
# 5 0.000262 0.009138 -0.001712 0.000000 0.026745 0.000000
# 6 0.000000 0.000000 0.000000 -0.011792 0.000000 -0.016089
#
#
# Mechanical properties :
#
#
# Convention : Reuss Voigt Hill
#
# Bulk Modulus (GPa) = 19.80746 33.76725 26.78736
# Shear Modulus (GPa) = 38.24800 20.02942 29.13871
#
# Velocity S-wave (km/s) = 3.91533 2.83333 3.41742
# Velocity P-wave (km/s) = 5.32715 4.92317 5.12914
#
# Compressibility (1/GPa) = 0.05048602
#
# Stress axis : x y z
#
# Youngs Moduli (GPa) = 157.69597 26.09320 46.95424
#
# Poissons Ratio (x) = 0.04720 0.07421
# Poissons Ratio (y) = 0.28524 0.20421
# Poissons Ratio (z) = 0.24923 0.11348
#
# Static dielectric constant tensor:
#      x y z
#    x 1.964590 0.000000 0.062280 
#    y 0.000000 1.912970 0.000000 
#    z 0.062280 0.000000 2.433520 
# 
# From -- ./inp_files/65414.got.cif
#   From: 2010.05.17/outbox.cif.g08.bks.cpg/sg15_33_cif.got.tgz:65414.got - 2010.06.03 18:47:42.
