data_PCOD9303538
_publ_section_title
;
Structure prediction by ZEFSAII (Michael W. Deem and Ramdas Pophale) SiO2 
 PCOD9303538
Probable space group: C 2/C
;
_chemical_formula_sum "Si O2"
_cell_formula_units_Z 52
_cell_length_a 16.477610
_cell_length_b 9.344129
_cell_length_c 15.975203
_cell_angle_alpha 90.000000
_cell_angle_beta 117.971354
_cell_angle_gamma 90.000000
_cell_volume 2172.349706
_symmetry_space_group_name_H-M "C 2/C"
_symmetry_group_IT_number 15
_symmetry_cell_setting 'monoclinic'
loop_
_space_group_symop_operation_xyz
x,y,z
-x,y,1/2-z
-x,-y,-z
x,-y,1/2+z
1/2+x,1/2+y,z
1/2-x,1/2+y,1/2-z
1/2-x,1/2-y,-z
1/2+x,1/2-y,1/2+z
loop_
_atom_site_type_symbol
_atom_site_label
_atom_site_fract_x
_atom_site_fract_y
_atom_site_fract_z
Si Si1 0.000000 0.424786 0.250000
Si Si2 0.936537 0.437299 0.544247
Si Si3 0.975013 0.152712 0.949176
Si Si4 0.270573 0.410856 0.037378
Si Si5 0.673046 0.558014 0.756357
Si Si6 0.689209 0.323759 0.038755
Si Si7 0.326103 0.773090 0.252266
O O1 0.033439 0.516213 0.346986
O O2 0.082459 0.331050 0.248813
O O3 0.829455 0.474514 0.486818
O O4 0.000000 0.500000 0.500000
O O5 0.948418 0.265695 0.538752
O O6 0.907180 0.133696 0.836265
O O7 0.914693 0.220509 0.996152
O O8 0.000000 0.000000 0.000000
O O9 0.338649 0.429944 0.149168
O O10 0.250000 0.250000 0.000000
O O11 0.307354 0.507904 0.979553
O O12 0.667657 0.393608 0.722917
O O13 0.776488 0.624712 0.795828
O O14 0.745396 0.284419 0.146638
O O15 0.750000 0.250000 0.000000
#
# Coordination Sequence:
#
# PCOD9303538 Si02
#       7
#     4   8   8   8   8   8   8
#     4  12  28  46  76 114 152 196 256 314 376 448
#     4  12  28  48  76 107 152 196 250 307 379 443
#     4  11  28  48  72 109 148 188 244 311 373 438
#     4  12  26  46  74 105 142 193 247 300 368 450
#     4  11  28  47  78 103 149 195 244 305 382 448
#     4  11  22  45  70 100 140 185 236 294 359 433
#     4  11  26  46  74 105 144 193 248 297 374 443
#
# _framework density 23.937213
#
# number of rings (size 3 to 8) (size 9 to 14) (size 15 to 20)
#    0.000    0.615    3.077    2.769   17.231    0.000 
#    2.769    0.000    0.000    0.000    0.000    0.000 
#    0.000    0.000    0.000    0.000    0.000    0.000 
#
# Total GULP energy -145225.442577 kJ/mol
# GULP energy per Si atom -5585.593945 kJ/mol
# Density = 2.388273 g / cm^3
# Si number density = 23.937213 Si / 1000 Ang^3
#
#
#
# Elastic Constant Matrix: (Units=GPa)
#
#
# Indices 1 2 3 4 5 6 
#
# 1 84.6994 27.0051 5.6806 0.0000 8.2326 0.0000
# 2 27.0051 126.3485 -4.4874 0.0000 1.0860 0.0000
# 3 5.6806 -4.4874 88.6434 0.0000 -3.9729 0.0000
# 4 0.0000 0.0000 0.0000 15.3228 0.0000 -18.5823
# 5 8.2326 1.0860 -3.9729 0.0000 23.4712 0.0000
# 6 0.0000 0.0000 0.0000 -18.5823 0.0000 29.6576
#
#
#
# Elastic Compliance Matrix: (Units=1/GPa)
#
#
# Indices 1 2 3 4 5 6 
#
# 1 0.013250 -0.002834 -0.001204 0.000000 -0.004720 0.000000
# 2 -0.002834 0.008537 0.000646 0.000000 0.000708 0.000000
# 3 -0.001204 0.000646 0.011496 0.000000 0.002338 0.000000
# 4 0.000000 0.000000 0.000000 0.271750 0.000000 0.170268
# 5 -0.004720 0.000708 0.002338 0.000000 0.044624 0.000000
# 6 0.000000 0.000000 0.000000 0.170268 0.000000 0.140401
#
#
# Mechanical properties :
#
#
# Convention : Reuss Voigt Hill
#
# Bulk Modulus (GPa) = 37.73971 39.56533 38.65252
# Shear Modulus (GPa) = 9.88775 31.78985 20.83880
#
# Velocity S-wave (km/s) = 2.03462 3.64820 2.95373
# Velocity P-wave (km/s) = 4.61735 5.85751 5.27401
#
# Compressibility (1/GPa) = 0.02649729
#
# Stress axis : x y z
#
# Youngs Moduli (GPa) = 75.47393 117.13440 86.98835
#
# Poissons Ratio (x) = 0.33197 0.10474
# Poissons Ratio (y) = 0.21390 -0.05615
# Poissons Ratio (z) = 0.09088 -0.07562
#
# Static dielectric constant tensor:
#      x y z
#    x 1.434000 0.000000 0.364430 
#    y 0.000000 1.926130 0.000000 
#    z 0.364430 0.000000 1.583490 
# 
# From -- ./inp_files/209704.got.cif
#   From: 2010.05.17/outbox.cif.g08.bks.cpg/sg15_105_cif.got.tgz:209704.got - 2010.06.03 18:47:42.
