data_PCOD9303616
_publ_section_title
;
Structure prediction by ZEFSAII (Michael W. Deem and Ramdas Pophale) SiO2 
 PCOD9303616
Probable space group: C 2/C
;
_chemical_formula_sum "Si O2"
_cell_formula_units_Z 60
_cell_length_a 18.753812
_cell_length_b 11.509262
_cell_length_c 22.644586
_cell_angle_alpha 90.000000
_cell_angle_beta 142.352179
_cell_angle_gamma 90.000000
_cell_volume 2985.416116
_symmetry_space_group_name_H-M "C 2/C"
_symmetry_group_IT_number 15
_symmetry_cell_setting 'monoclinic'
loop_
_space_group_symop_operation_xyz
x,y,z
-x,y,1/2-z
-x,-y,-z
x,-y,1/2+z
1/2+x,1/2+y,z
1/2-x,1/2+y,1/2-z
1/2-x,1/2-y,-z
1/2+x,1/2-y,1/2+z
loop_
_atom_site_type_symbol
_atom_site_label
_atom_site_fract_x
_atom_site_fract_y
_atom_site_fract_z
Si Si1 0.000000 0.053252 0.250000
Si Si2 0.307807 0.627895 0.585844
Si Si3 0.038791 0.129855 0.041407
Si Si4 0.386943 0.154887 0.428972
Si Si5 0.242085 0.864890 0.581941
Si Si6 0.948672 0.533989 0.059574
Si Si7 0.589511 0.059811 0.757861
Si Si8 0.121909 0.811062 0.727836
O O1 0.967797 0.131666 0.284910
O O2 0.890916 0.969489 0.166360
O O3 0.327883 0.754870 0.627456
O O4 0.318701 0.624354 0.522036
O O5 0.172721 0.599492 0.510790
O O6 0.145064 0.161726 0.067420
O O7 0.082947 0.153654 0.136733
O O8 0.928231 0.213058 0.959460
O O9 0.000000 0.000000 0.000000
O O10 0.466746 0.096403 0.431234
O O11 0.251862 0.141808 0.325177
O O12 0.416293 0.090171 0.509439
O O13 0.309798 0.981058 0.646588
O O14 0.016849 0.519469 0.165005
O O15 0.500000 0.098279 0.750000
O O16 0.627903 0.173362 0.746294
#
# Coordination Sequence:
#
# PCOD9303616 Si02
#       8
#     4   8   8   8   8   8   8   8
#     4  12  26  44  68 102 134 182 230 284 348 406
#     4  11  24  45  71  99 141 179 230 288 343 414
#     4  12  25  47  67 104 144 180 232 289 349 414
#     4  11  24  44  72  97 137 186 229 285 346 416
#     4  11  25  44  69 104 135 180 232 283 348 411
#     4  11  22  46  71  96 137 184 227 285 343 415
#     4  12  24  43  71 102 137 180 233 280 342 416
#     4  12  26  46  69 102 140 182 236 285 348 415
#
# _framework density 20.097698999999999
#
# number of rings (size 3 to 8) (size 9 to 14) (size 15 to 20)
#    0.000    0.533    6.000    2.400    0.933    0.000 
#    9.600    2.667    0.000    0.000    0.000    0.000 
#    0.000    0.000    0.000    0.000    0.000    0.000 
#
# Total GULP energy -167700.602292 kJ/mol
# GULP energy per Si atom -5590.020076 kJ/mol
# Density = 2.005196 g / cm^3
# Si number density = 20.097699 Si / 1000 Ang^3
#
#
#
# Elastic Constant Matrix: (Units=GPa)
#
#
# Indices 1 2 3 4 5 6 
#
# 1 113.4967 17.7083 37.2392 0.0000 -20.4457 0.0000
# 2 17.7083 121.0097 31.9932 0.0000 -14.0277 0.0000
# 3 37.2392 31.9932 75.2636 0.0000 -10.5341 0.0000
# 4 0.0000 0.0000 0.0000 24.0521 0.0000 -2.9418
# 5 -20.4457 -14.0277 -10.5341 0.0000 32.6014 0.0000
# 6 0.0000 0.0000 0.0000 -2.9418 0.0000 26.9296
#
#
#
# Elastic Compliance Matrix: (Units=1/GPa)
#
#
# Indices 1 2 3 4 5 6 
#
# 1 0.011423 0.000306 -0.004986 0.000000 0.005684 0.000000
# 2 0.000306 0.009579 -0.003791 0.000000 0.003089 0.000000
# 3 -0.004986 -0.003791 0.017490 0.000000 0.000893 0.000000
# 4 0.000000 0.000000 0.000000 0.042139 0.000000 0.004603
# 5 0.005684 0.003089 0.000893 0.000000 0.035856 0.000000
# 6 0.000000 0.000000 0.000000 0.004603 0.000000 0.037637
#
#
# Mechanical properties :
#
#
# Convention : Reuss Voigt Hill
#
# Bulk Modulus (GPa) = 46.40486 53.73905 50.07195
# Shear Modulus (GPa) = 28.05028 31.57191 29.81109
#
# Velocity S-wave (km/s) = 3.73995 3.96779 3.85555
# Velocity P-wave (km/s) = 6.46448 6.91289 6.69244
#
# Compressibility (1/GPa) = 0.02154947
#
# Stress axis : x y z
#
# Youngs Moduli (GPa) = 87.54117 104.39088 57.17466
#
# Poissons Ratio (x) = -0.03190 0.28509
# Poissons Ratio (y) = -0.02675 0.21675
# Poissons Ratio (z) = 0.43651 0.39574
#
# Static dielectric constant tensor:
#      x y z
#    x 1.693590 0.000000 -0.000570 
#    y 0.000000 1.741600 0.000000 
#    z -0.000570 0.000000 1.681910 
# 
# From -- ./inp_files/248786.got.cif
#   From: 2010.05.17/outbox.cif.g08.bks.cpg/sg15_125_cif.got.tgz:248786.got - 2010.06.03 18:47:42.
