data_PCOD9303619
_publ_section_title
;
Structure prediction by ZEFSAII (Michael W. Deem and Ramdas Pophale) SiO2 
 PCOD9303619
Probable space group: C 2/C
;
_chemical_formula_sum "Si O2"
_cell_formula_units_Z 36
_cell_length_a 18.024837
_cell_length_b 8.004493
_cell_length_c 12.636621
_cell_angle_alpha 90.000000
_cell_angle_beta 63.238573
_cell_angle_gamma 90.000000
_cell_volume 1627.922348
_symmetry_space_group_name_H-M "C 2/C"
_symmetry_group_IT_number 15
_symmetry_cell_setting 'monoclinic'
loop_
_space_group_symop_operation_xyz
x,y,z
-x,y,1/2-z
-x,-y,-z
x,-y,1/2+z
1/2+x,1/2+y,z
1/2-x,1/2+y,1/2-z
1/2-x,1/2-y,-z
1/2+x,1/2-y,1/2+z
loop_
_atom_site_type_symbol
_atom_site_label
_atom_site_fract_x
_atom_site_fract_y
_atom_site_fract_z
Si Si1 0.698290 0.373644 0.272209
Si Si2 0.561181 0.382706 0.527896
Si Si3 0.173578 0.454399 0.660423
Si Si4 0.713462 0.573630 0.068666
Si Si5 0.000000 0.367180 0.250000
O O1 0.623003 0.318219 0.397042
O O2 0.776251 0.416729 0.295838
O O3 0.691198 0.540915 0.204519
O O4 0.697218 0.224297 0.190547
O O5 0.500000 0.500000 0.500000
O O6 0.628934 0.471541 0.560628
O O7 0.518216 0.249876 0.634853
O O8 0.210492 0.460350 0.518510
O O9 0.079598 0.516413 0.718446
O O10 0.750000 0.750000 0.000000
#
# Coordination Sequence:
#
# PCOD9303619 Si02
#       5
#     8   8   8   8   4
#     4  11  25  46  70 105 135 195 238 287 360 420
#     4  11  25  41  73 102 141 185 237 295 353 426
#     4  11  26  42  73  99 145 184 240 293 350 431
#     4  11  22  46  72 100 142 184 237 292 357 418
#     4  12  26  46  66 108 146 190 232 304 358 410
#
# _framework density 22.114076000000001
#
# number of rings (size 3 to 8) (size 9 to 14) (size 15 to 20)
#    0.000    0.889    2.222    4.667    6.222    2.667 
#    0.000    0.000    0.000    0.000    0.000    0.000 
#    0.000    0.000    0.000    0.000    0.000    0.000 
#
# Total GULP energy -100262.408816 kJ/mol
# GULP energy per Si atom -5570.133823 kJ/mol
# Density = 2.206374 g / cm^3
# Si number density = 22.114076 Si / 1000 Ang^3
#
#
#
# Elastic Constant Matrix: (Units=GPa)
#
#
# Indices 1 2 3 4 5 6 
#
# 1 153.2869 29.7185 22.7237 0.0000 -4.4551 0.0000
# 2 29.7185 98.8084 34.5657 0.0000 -1.5945 0.0000
# 3 22.7237 34.5657 124.5455 0.0000 0.3049 0.0000
# 4 0.0000 0.0000 0.0000 33.5430 0.0000 3.5691
# 5 -4.4551 -1.5945 0.3049 0.0000 39.1342 0.0000
# 6 0.0000 0.0000 0.0000 3.5691 0.0000 18.0433
#
#
#
# Elastic Compliance Matrix: (Units=1/GPa)
#
#
# Indices 1 2 3 4 5 6 
#
# 1 0.007014 -0.001827 -0.000774 0.000000 0.000730 0.000000
# 2 -0.001827 0.011694 -0.002913 0.000000 0.000291 0.000000
# 3 -0.000774 -0.002913 0.008980 0.000000 -0.000277 0.000000
# 4 0.000000 0.000000 0.000000 0.030453 0.000000 -0.006024
# 5 0.000730 0.000291 -0.000277 0.000000 0.025650 0.000000
# 6 0.000000 0.000000 0.000000 -0.006024 0.000000 0.056614
#
#
# Mechanical properties :
#
#
# Convention : Reuss Voigt Hill
#
# Bulk Modulus (GPa) = 60.02783 61.18406 60.60595
# Shear Modulus (GPa) = 31.84998 37.45296 34.65147
#
# Velocity S-wave (km/s) = 3.79919 4.11983 3.96276
# Velocity P-wave (km/s) = 6.81533 7.09635 6.95726
#
# Compressibility (1/GPa) = 0.01665894
#
# Stress axis : x y z
#
# Youngs Moduli (GPa) = 142.57351 85.51589 111.36368
#
# Poissons Ratio (x) = 0.15622 0.08625
# Poissons Ratio (y) = 0.26046 0.32438
# Poissons Ratio (z) = 0.11042 0.24909
#
# Static dielectric constant tensor:
#      x y z
#    x 1.810220 0.000000 0.003020 
#    y 0.000000 1.971640 0.000000 
#    z 0.003020 0.000000 1.915150 
# 
# From -- ./inp_files/102639.got.cif
#   From: 2010.05.17/outbox.cif.g08.bks.cpg/sg15_52_cif.got.tgz:102639.got - 2010.06.03 18:47:42.
