data_PCOD9303317
_publ_section_title
;
Structure prediction by ZEFSAII (Michael W. Deem and Ramdas Pophale) SiO2 
 PCOD9303317
Probable space group: C 2/C
;
_chemical_formula_sum "Si O2"
_cell_formula_units_Z 64
_cell_length_a 11.703768
_cell_length_b 23.544008
_cell_length_c 11.261806
_cell_angle_alpha 90.000000
_cell_angle_beta 109.855469
_cell_angle_gamma 90.000000
_cell_volume 2918.751588
_symmetry_space_group_name_H-M "C 2/C"
_symmetry_group_IT_number 15
_symmetry_cell_setting 'monoclinic'
loop_
_space_group_symop_operation_xyz
x,y,z
-x,y,1/2-z
-x,-y,-z
x,-y,1/2+z
1/2+x,1/2+y,z
1/2-x,1/2+y,1/2-z
1/2-x,1/2-y,-z
1/2+x,1/2-y,1/2+z
loop_
_atom_site_type_symbol
_atom_site_label
_atom_site_fract_x
_atom_site_fract_y
_atom_site_fract_z
Si Si1 0.091039 0.209442 0.110190
Si Si2 0.637744 0.107606 0.002537
Si Si3 0.826331 0.203803 0.098053
Si Si4 0.879443 0.475777 0.788097
Si Si5 0.267075 0.397806 0.941798
Si Si6 0.746912 0.088172 0.788045
Si Si7 0.507961 0.537479 0.883445
Si Si8 0.114343 0.665321 0.574415
O O1 0.133957 0.224176 0.258477
O O2 0.164666 0.155862 0.090497
O O3 0.111597 0.267859 0.047016
O O4 0.949650 0.192931 0.069029
O O5 0.744137 0.148429 0.087155
O O6 0.602980 0.060231 0.086088
O O7 0.691006 0.083786 0.899663
O O8 0.519691 0.145692 0.935442
O O9 0.750000 0.250000 0.000000
O O10 0.782693 0.441486 0.673087
O O11 0.821638 0.536183 0.801092
O O12 0.000000 0.481853 0.750000
O O13 0.365641 0.429058 0.059578
O O14 0.156705 0.371083 0.976595
O O15 0.706816 0.146155 0.710792
O O16 0.890322 0.078197 0.843199
O O17 0.500000 0.507940 0.750000
O O18 0.500000 0.500000 0.000000
#
# Coordination Sequence:
#
# PCOD9303317 Si02
#       8
#     8   8   8   8   8   8   8   8
#     4  11  25  43  71 103 138 191 239 295 357 433
#     4  12  25  44  73 104 138 188 231 295 365 423
#     4  11  22  43  70 101 142 181 240 296 355 426
#     4  12  26  45  70 105 143 185 237 290 356 436
#     4  12  25  47  68 105 142 188 237 291 363 432
#     4  12  28  45  73 105 138 185 239 297 360 429
#     4  12  27  50  76 106 149 194 243 307 363 438
#     4  12  25  46  72 102 146 180 238 294 359 425
#
# _framework density 21.927184
#
# number of rings (size 3 to 8) (size 9 to 14) (size 15 to 20)
#    0.000    0.250    6.250    3.000    5.250    1.000 
#    2.250    0.000    0.000    0.000    0.000    0.000 
#    0.000    0.000    0.000    0.000    0.000    0.000 
#
# Total GULP energy -179107.505693 kJ/mol
# GULP energy per Si atom -5597.109553 kJ/mol
# Density = 2.187728 g / cm^3
# Si number density = 21.927184 Si / 1000 Ang^3
#
#
#
# Elastic Constant Matrix: (Units=GPa)
#
#
# Indices 1 2 3 4 5 6 
#
# 1 95.9284 3.1971 -2.5855 0.0000 7.1641 0.0000
# 2 3.1971 56.4858 -10.7749 0.0000 2.9006 0.0000
# 3 -2.5855 -10.7749 63.4950 0.0000 -1.9551 0.0000
# 4 0.0000 0.0000 0.0000 34.8206 0.0000 -3.1341
# 5 7.1641 2.9006 -1.9551 0.0000 38.6730 0.0000
# 6 0.0000 0.0000 0.0000 -3.1341 0.0000 27.6215
#
#
#
# Elastic Compliance Matrix: (Units=1/GPa)
#
#
# Indices 1 2 3 4 5 6 
#
# 1 0.010590 -0.000445 0.000297 0.000000 -0.001913 0.000000
# 2 -0.000445 0.018372 0.003064 0.000000 -0.001141 0.000000
# 3 0.000297 0.003064 0.016298 0.000000 0.000539 0.000000
# 4 0.000000 0.000000 0.000000 0.029015 0.000000 0.003292
# 5 -0.001913 -0.001141 0.000539 0.000000 0.026325 0.000000
# 6 0.000000 0.000000 0.000000 0.003292 0.000000 0.036577
#
#
# Mechanical properties :
#
#
# Convention : Reuss Voigt Hill
#
# Bulk Modulus (GPa) = 19.57194 21.73140 20.65167
# Shear Modulus (GPa) = 33.69842 35.29452 34.49647
#
# Velocity S-wave (km/s) = 3.92450 4.01636 3.97070
# Velocity P-wave (km/s) = 5.42963 5.60718 5.51912
#
# Compressibility (1/GPa) = 0.05109356
#
# Stress axis : x y z
#
# Youngs Moduli (GPa) = 94.42730 54.43110 61.35726
#
# Poissons Ratio (x) = 0.02420 -0.01822
# Poissons Ratio (y) = 0.04197 -0.18802
# Poissons Ratio (z) = -0.02803 -0.16680
#
# Static dielectric constant tensor:
#      x y z
#    x 1.786580 0.000000 -0.010370 
#    y 0.000000 1.692980 0.000000 
#    z -0.010370 0.000000 1.826720 
# 
# From -- ./inp_files/91286.got.cif
#   From: 2010.05.17/outbox.cif.g08.bks.cpg/sg15_46_cif.got.tgz:91286.got - 2010.06.03 18:47:42.
