data_PCOD9303453
_publ_section_title
;
Structure prediction by ZEFSAII (Michael W. Deem and Ramdas Pophale) SiO2 
 PCOD9303453
Probable space group: C 2/C
;
_chemical_formula_sum "Si O2"
_cell_formula_units_Z 48
_cell_length_a 34.856555
_cell_length_b 14.319444
_cell_length_c 17.035396
_cell_angle_alpha 90.000000
_cell_angle_beta 163.697210
_cell_angle_gamma 90.000000
_cell_volume 2386.855164
_symmetry_space_group_name_H-M "C 2/C"
_symmetry_group_IT_number 15
_symmetry_cell_setting 'monoclinic'
loop_
_space_group_symop_operation_xyz
x,y,z
-x,y,1/2-z
-x,-y,-z
x,-y,1/2+z
1/2+x,1/2+y,z
1/2-x,1/2+y,1/2-z
1/2-x,1/2-y,-z
1/2+x,1/2-y,1/2+z
loop_
_atom_site_type_symbol
_atom_site_label
_atom_site_fract_x
_atom_site_fract_y
_atom_site_fract_z
Si Si1 0.358094 0.781817 0.797285
Si Si2 0.380435 0.631155 0.957322
Si Si3 0.649862 0.002132 0.258182
Si Si4 0.035505 0.227292 0.655871
Si Si5 0.890485 0.967297 0.848353
Si Si6 0.388186 0.882826 0.469638
O O1 0.415969 0.730888 0.987566
O O2 0.197928 0.751361 0.486594
O O3 0.461628 0.747975 0.931980
O O4 0.331601 0.890091 0.728423
O O5 0.367155 0.549939 0.865513
O O6 0.242689 0.641603 0.736063
O O7 0.500000 0.601502 0.250000
O O8 0.752612 0.960683 0.525301
O O9 0.656692 0.948580 0.189671
O O10 0.500000 0.000000 0.000000
O O11 0.961024 0.126927 0.520724
O O12 0.957554 0.296400 0.560825
O O13 0.000000 0.000000 0.000000
O O14 0.500000 0.923754 0.750000
#
# Coordination Sequence:
#
# PCOD9303453 Si02
#       6
#     8   8   8   8   8   8
#     4  11  22  44  72 100 138 185 232 287 351 423
#     4  12  27  44  69 107 145 176 234 309 351 404
#     4  12  25  43  73 105 139 186 235 290 351 422
#     4  11  23  43  75  98 135 189 239 277 349 437
#     4  12  23  44  75 102 134 190 244 282 342 438
#     4  12  26  45  68 105 144 180 229 300 360 406
#
# _framework density 20.110143999999998
#
# number of rings (size 3 to 8) (size 9 to 14) (size 15 to 20)
#    0.000    0.333    6.667    3.000    0.000    4.667 
#    0.000    0.000    0.000    0.000    0.000    0.000 
#    0.000    0.000    0.000    0.000    0.000    0.000 
#
# Total GULP energy -133737.357125 kJ/mol
# GULP energy per Si atom -5572.389880 kJ/mol
# Density = 2.006437 g / cm^3
# Si number density = 20.110144 Si / 1000 Ang^3
#
#
#
# Elastic Constant Matrix: (Units=GPa)
#
#
# Indices 1 2 3 4 5 6 
#
# 1 135.2674 24.8442 37.9143 0.0000 15.2640 0.0000
# 2 24.8442 68.9369 -4.6134 0.0000 5.7780 0.0000
# 3 37.9143 -4.6134 89.3519 0.0000 -1.8422 0.0000
# 4 0.0000 0.0000 0.0000 27.6705 0.0000 -1.1429
# 5 15.2640 5.7780 -1.8422 0.0000 43.7942 0.0000
# 6 0.0000 0.0000 0.0000 -1.1429 0.0000 18.2169
#
#
#
# Elastic Compliance Matrix: (Units=1/GPa)
#
#
# Indices 1 2 3 4 5 6 
#
# 1 0.009587 -0.003487 -0.004311 0.000000 -0.003063 0.000000
# 2 -0.003487 0.015983 0.002288 0.000000 -0.000797 0.000000
# 3 -0.004311 0.002288 0.013175 0.000000 0.001755 0.000000
# 4 0.000000 0.000000 0.000000 0.036234 0.000000 0.002273
# 5 -0.003063 -0.000797 0.001755 0.000000 0.024081 0.000000
# 6 0.000000 0.000000 0.000000 0.002273 0.000000 0.055037
#
#
# Mechanical properties :
#
#
# Convention : Reuss Voigt Hill
#
# Bulk Modulus (GPa) = 36.06777 45.53848 40.80313
# Shear Modulus (GPa) = 28.67668 33.63039 31.15354
#
# Velocity S-wave (km/s) = 3.78031 4.09383 3.94019
# Velocity P-wave (km/s) = 6.08510 6.71115 6.40578
#
# Compressibility (1/GPa) = 0.02772558
#
# Stress axis : x y z
#
# Youngs Moduli (GPa) = 104.30518 62.56787 75.89876
#
# Poissons Ratio (x) = 0.21817 0.32722
# Poissons Ratio (y) = 0.36371 -0.17369
# Poissons Ratio (z) = 0.44969 -0.14318
#
# Static dielectric constant tensor:
#      x y z
#    x 1.676360 0.000000 -0.022890 
#    y 0.000000 1.557550 0.000000 
#    z -0.022890 0.000000 1.807210 
# 
# From -- ./inp_files/182521.got.cif
#   From: 2010.05.17/outbox.cif.g08.bks.cpg/sg15_92_cif.got.tgz:182521.got - 2010.06.03 18:47:42.
