data_PCOD9303630
_publ_section_title
;
Structure prediction by ZEFSAII (Michael W. Deem and Ramdas Pophale) SiO2 
 PCOD9303630
Probable space group: C 2/C
;
_chemical_formula_sum "Si O2"
_cell_formula_units_Z 64
_cell_length_a 10.825051
_cell_length_b 30.877442
_cell_length_c 12.338856
_cell_angle_alpha 90.000000
_cell_angle_beta 42.376741
_cell_angle_gamma 90.000000
_cell_volume 2779.762597
_symmetry_space_group_name_H-M "C 2/C"
_symmetry_group_IT_number 15
_symmetry_cell_setting 'monoclinic'
loop_
_space_group_symop_operation_xyz
x,y,z
-x,y,1/2-z
-x,-y,-z
x,-y,1/2+z
1/2+x,1/2+y,z
1/2-x,1/2+y,1/2-z
1/2-x,1/2-y,-z
1/2+x,1/2-y,1/2+z
loop_
_atom_site_type_symbol
_atom_site_label
_atom_site_fract_x
_atom_site_fract_y
_atom_site_fract_z
Si Si1 0.666658 0.737603 0.224623
Si Si2 0.159851 0.453297 0.058885
Si Si3 0.667330 0.375797 0.917495
Si Si4 0.504909 0.102393 0.461651
Si Si5 0.818142 0.048758 0.936847
Si Si6 0.782217 0.288251 0.894071
Si Si7 0.471619 0.182449 0.911855
Si Si8 0.873584 0.871988 0.938319
O O1 0.697011 0.722783 0.330055
O O2 0.630149 0.789010 0.254853
O O3 0.847950 0.719633 0.049106
O O4 0.496283 0.640528 0.458998
O O5 0.500000 0.367790 0.750000
O O6 0.092806 0.432410 0.988624
O O7 0.223348 0.502626 0.016118
O O8 0.326042 0.422280 0.983291
O O9 0.841205 0.383227 0.724981
O O10 0.709784 0.336162 0.970483
O O11 0.000000 0.551870 0.750000
O O12 0.630033 0.422336 0.993288
O O13 0.332806 0.078864 0.522244
O O14 0.449515 0.146412 0.558939
O O15 0.000000 0.042111 0.750000
O O16 0.000000 0.292463 0.750000
O O17 0.750000 0.250000 0.000000
O O18 0.317380 0.153404 0.950771
O O19 0.000000 0.776763 0.750000
#
# Coordination Sequence:
#
# PCOD9303630 Si02
#       8
#     8   8   8   8   8   8   8   8
#     4  12  25  45  71 106 142 198 260 316 381 457
#     4  11  25  47  79 113 149 188 246 309 385 446
#     4  12  25  48  78 100 151 203 251 301 388 457
#     4  11  24  50  75 103 150 203 245 307 381 454
#     4  12  29  47  72 112 150 193 250 303 374 471
#     4  12  27  46  72 105 149 200 256 321 387 458
#     4  11  24  44  73 104 146 191 257 310 377 438
#     4  11  22  46  76 110 144 194 249 314 377 448
#
# _framework density 23.023548000000002
#
# number of rings (size 3 to 8) (size 9 to 14) (size 15 to 20)
#    0.000    0.500    3.750    4.875    3.500    4.000 
#    2.250    0.000    0.000    0.000    0.000    0.000 
#    0.000    0.000    0.000    0.000    0.000    0.000 
#
# Total GULP energy -178928.356032 kJ/mol
# GULP energy per Si atom -5591.511126 kJ/mol
# Density = 2.297115 g / cm^3
# Si number density = 23.023548 Si / 1000 Ang^3
#
#
#
# Elastic Constant Matrix: (Units=GPa)
#
#
# Indices 1 2 3 4 5 6 
#
# 1 116.6345 38.1643 14.3476 0.0000 -2.3986 0.0000
# 2 38.1643 180.0756 41.0998 0.0000 10.3942 0.0000
# 3 14.3476 41.0998 28.1873 0.0000 9.8338 0.0000
# 4 0.0000 0.0000 0.0000 54.5059 0.0000 -0.4800
# 5 -2.3986 10.3942 9.8338 0.0000 27.0264 0.0000
# 6 0.0000 0.0000 0.0000 -0.4800 0.0000 35.0823
#
#
#
# Elastic Compliance Matrix: (Units=1/GPa)
#
#
# Indices 1 2 3 4 5 6 
#
# 1 0.009536 -0.001277 -0.003961 0.000000 0.002779 0.000000
# 2 -0.001277 0.008540 -0.012160 0.000000 0.001027 0.000000
# 3 -0.003961 -0.012160 0.061525 0.000000 -0.018061 0.000000
# 4 0.000000 0.000000 0.000000 0.018349 0.000000 0.000251
# 5 0.002779 0.001027 -0.018061 0.000000 0.043424 0.000000
# 6 0.000000 0.000000 0.000000 0.000251 0.000000 0.028508
#
#
# Mechanical properties :
#
#
# Convention : Reuss Voigt Hill
#
# Bulk Modulus (GPa) = 22.31935 56.90231 39.61083
# Shear Modulus (GPa) = 22.76719 38.74196 30.75457
#
# Velocity S-wave (km/s) = 3.14803 4.10654 3.65881
# Velocity P-wave (km/s) = 4.78839 6.87411 5.92377
#
# Compressibility (1/GPa) = 0.04480417
#
# Stress axis : x y z
#
# Youngs Moduli (GPa) = 104.86395 117.09456 16.25354
#
# Poissons Ratio (x) = 0.14958 0.06438
# Poissons Ratio (y) = 0.13396 0.19765
# Poissons Ratio (z) = 0.41535 1.42390
#
# Static dielectric constant tensor:
#      x y z
#    x 1.897310 0.000000 0.053890 
#    y 0.000000 1.842640 0.000000 
#    z 0.053890 0.000000 1.867650 
# 
# From -- ./inp_files/148772.got.cif
#   From: 2010.05.17/outbox.cif.g08.bks.cpg/sg15_75_cif.got.tgz:148772.got - 2010.06.03 18:47:42.
