data_PCOD9303741
_publ_section_title
;
Structure prediction by ZEFSAII (Michael W. Deem and Ramdas Pophale) SiO2 
 PCOD9303741
Probable space group: C 2/C
;
_chemical_formula_sum "Si O2"
_cell_formula_units_Z 32
_cell_length_a 25.549879
_cell_length_b 7.441204
_cell_length_c 17.964402
_cell_angle_alpha 90.000000
_cell_angle_beta 24.942876
_cell_angle_gamma 90.000000
_cell_volume 1440.334348
_symmetry_space_group_name_H-M "C 2/C"
_symmetry_group_IT_number 15
_symmetry_cell_setting 'monoclinic'
loop_
_space_group_symop_operation_xyz
x,y,z
-x,y,1/2-z
-x,-y,-z
x,-y,1/2+z
1/2+x,1/2+y,z
1/2-x,1/2+y,1/2-z
1/2-x,1/2-y,-z
1/2+x,1/2-y,1/2+z
loop_
_atom_site_type_symbol
_atom_site_label
_atom_site_fract_x
_atom_site_fract_y
_atom_site_fract_z
Si Si1 0.616705 0.551743 0.942074
Si Si2 0.110322 0.347778 0.057969
Si Si3 0.155441 0.033251 0.720603
Si Si4 0.488971 0.217917 0.352565
O O1 0.669743 0.697087 0.929683
O O2 0.467276 0.589898 0.130449
O O3 0.614139 0.351998 0.979758
O O4 0.666738 0.560763 0.794592
O O5 0.048073 0.511124 0.092018
O O6 0.000000 0.268276 0.250000
O O7 0.217910 0.441898 0.967728
O O8 0.113796 0.214340 0.732455
O O9 0.500000 0.251273 0.250000
#
# Coordination Sequence:
#
# PCOD9303741 Si02
#       4
#     8   8   8   8
#     4   9  21  42  57  88 125 156 201 249 293 358
#     4  11  23  38  63  92 119 160 205 238 305 361
#     4   9  22  41  59  91 123 155 205 244 299 359
#     4   9  20  40  59  87 124 154 199 248 294 355
#
# _framework density 22.217065000000002
#
# number of rings (size 3 to 8) (size 9 to 14) (size 15 to 20)
#    1.500    1.000    0.000    0.750    3.500    6.000 
#    4.500    0.000    0.000    0.000    0.000    0.000 
#    0.000    0.000    0.000    0.000    0.000    0.000 
#
# Total GULP energy -89159.867291 kJ/mol
# GULP energy per Si atom -5572.491706 kJ/mol
# Density = 2.216650 g / cm^3
# Si number density = 22.217065 Si / 1000 Ang^3
#
#
#
# Elastic Constant Matrix: (Units=GPa)
#
#
# Indices 1 2 3 4 5 6 
#
# 1 30.1903 19.1727 -1.8321 -0.0001 24.2684 0.0001
# 2 19.1727 59.7655 -18.2404 -0.0012 16.7384 0.0007
# 3 -1.8321 -18.2404 62.5178 -0.0005 -6.1129 0.0004
# 4 -0.0001 -0.0012 -0.0005 16.9076 0.0003 -2.4044
# 5 24.2684 16.7384 -6.1129 0.0003 37.1232 -0.0001
# 6 0.0001 0.0007 0.0004 -2.4044 -0.0001 31.5519
#
#
#
# Elastic Compliance Matrix: (Units=1/GPa)
#
#
# Indices 1 2 3 4 5 6 
#
# 1 0.079016 -0.014350 -0.006392 0.000000 -0.046237 0.000000
# 2 -0.014350 0.023301 0.006370 0.000002 -0.000076 0.000000
# 3 -0.006392 0.006370 0.018086 0.000001 0.004284 0.000000
# 4 0.000000 0.000002 0.000001 0.059793 -0.000001 0.004556
# 5 -0.046237 -0.000076 0.004284 -0.000001 0.057904 0.000000
# 6 0.000000 0.000000 0.000000 0.004556 0.000000 0.032041
#
#
# Mechanical properties :
#
#
# Convention : Reuss Voigt Hill
#
# Bulk Modulus (GPa) = 10.90986 16.74155 13.82570
# Shear Modulus (GPa) = 15.17744 27.34144 21.25944
#
# Velocity S-wave (km/s) = 2.61654 3.51187 3.09673
# Velocity P-wave (km/s) = 3.74828 4.89858 4.36152
#
# Compressibility (1/GPa) = 0.09166020
#
# Stress axis : x y z
#
# Youngs Moduli (GPa) = 12.65567 42.91652 55.29232
#
# Poissons Ratio (x) = 0.61583 0.35343
# Poissons Ratio (y) = 0.18160 -0.35223
# Poissons Ratio (z) = 0.08090 -0.27339
#
# Static dielectric constant tensor:
#      x y z
#    x 1.811930 0.000000 -0.021450 
#    y 0.000000 1.801500 0.000000 
#    z -0.021450 0.000000 1.882470 
# 
# From -- ./inp_files/109174.got.cif
#   From: 2010.05.17/outbox.cif.g08.bks.cpg/sg15_55_cif.got.tgz:109174.got - 2010.06.03 18:47:42.
