data_PCOD9303079
_publ_section_title
;
Structure prediction by ZEFSAII (Michael W. Deem and Ramdas Pophale) SiO2 
 PCOD9303079
Probable space group: C 2/C
;
_chemical_formula_sum "Si O2"
_cell_formula_units_Z 64
_cell_length_a 22.745747
_cell_length_b 11.436364
_cell_length_c 12.327699
_cell_angle_alpha 90.000000
_cell_angle_beta 119.930364
_cell_angle_gamma 90.000000
_cell_volume 2779.106205
_symmetry_space_group_name_H-M "C 2/C"
_symmetry_group_IT_number 15
_symmetry_cell_setting 'monoclinic'
loop_
_space_group_symop_operation_xyz
x,y,z
-x,y,1/2-z
-x,-y,-z
x,-y,1/2+z
1/2+x,1/2+y,z
1/2-x,1/2+y,1/2-z
1/2-x,1/2-y,-z
1/2+x,1/2-y,1/2+z
loop_
_atom_site_type_symbol
_atom_site_label
_atom_site_fract_x
_atom_site_fract_y
_atom_site_fract_z
Si Si1 0.242264 0.814578 0.687143
Si Si2 0.173874 0.087489 0.333372
Si Si3 0.925720 0.866029 0.225268
Si Si4 0.399444 0.802711 0.891013
Si Si5 0.369710 0.166030 0.011907
Si Si6 0.294580 0.005967 0.583354
Si Si7 0.592614 0.933642 0.168849
Si Si8 0.432143 0.764278 0.170410
O O1 0.195187 0.881212 0.730597
O O2 0.317432 0.791695 0.802654
O O3 0.202639 0.703688 0.604938
O O4 0.253910 0.898259 0.595718
O O5 0.131039 0.192953 0.342834
O O6 0.127628 0.971657 0.306395
O O7 0.243865 0.077482 0.463666
O O8 0.931134 0.796973 0.344323
O O9 0.000000 0.901377 0.250000
O O10 0.896733 0.769331 0.113163
O O11 0.420586 0.930388 0.865744
O O12 0.418634 0.793157 0.033772
O O13 0.415478 0.136043 0.950396
O O14 0.354944 0.049845 0.067478
O O15 0.329049 0.069050 0.716852
O O16 0.556158 0.870582 0.234210
O O17 0.500000 0.689232 0.250000
#
# Coordination Sequence:
#
# PCOD9303079 Si02
#       8
#     8   8   8   8   8   8   8   8
#     4  11  22  41  72 106 141 181 236 308 366 417
#     4  12  26  45  70 109 146 194 235 303 366 433
#     4  12  28  48  75 106 150 202 245 286 352 453
#     4  11  27  46  75 108 138 190 244 306 363 426
#     4  12  22  45  71 107 145 185 240 295 367 423
#     4  11  22  42  71 108 141 178 237 304 369 423
#     4  11  24  45  72 106 138 185 238 308 369 421
#     4  12  29  49  68 104 148 194 244 290 358 440
#
# _framework density 23.028987999999998
#
# number of rings (size 3 to 8) (size 9 to 14) (size 15 to 20)
#    0.000    0.500    5.000    4.500    5.250    2.000 
#    0.000    1.875    0.000    0.000    0.000    0.000 
#    0.000    0.000    0.000    0.000    0.000    0.000 
#
# Total GULP energy -179083.987075 kJ/mol
# GULP energy per Si atom -5596.374596 kJ/mol
# Density = 2.297657 g / cm^3
# Si number density = 23.028988 Si / 1000 Ang^3
#
#
#
# Elastic Constant Matrix: (Units=GPa)
#
#
# Indices 1 2 3 4 5 6 
#
# 1 91.7117 32.8016 47.5497 0.0000 -20.6913 0.0000
# 2 32.8016 74.2686 34.7943 0.0000 -14.1217 0.0000
# 3 47.5497 34.7943 117.6739 0.0000 -28.3440 0.0000
# 4 0.0000 0.0000 0.0000 28.6142 0.0000 -6.1475
# 5 -20.6913 -14.1217 -28.3440 0.0000 46.5692 0.0000
# 6 0.0000 0.0000 0.0000 -6.1475 0.0000 22.7084
#
#
#
# Elastic Compliance Matrix: (Units=1/GPa)
#
#
# Indices 1 2 3 4 5 6 
#
# 1 0.015255 -0.004205 -0.004213 0.000000 0.002939 0.000000
# 2 -0.004205 0.016994 -0.002970 0.000000 0.001477 0.000000
# 3 -0.004213 -0.002970 0.012199 0.000000 0.004652 0.000000
# 4 0.000000 0.000000 0.000000 0.037106 0.000000 0.010045
# 5 0.002939 0.001477 0.004652 0.000000 0.026059 0.000000
# 6 0.000000 0.000000 0.000000 0.010045 0.000000 0.046756
#
#
# Mechanical properties :
#
#
# Convention : Reuss Voigt Hill
#
# Bulk Modulus (GPa) = 46.14145 57.10505 51.62325
# Shear Modulus (GPa) = 27.11953 30.81228 28.96591
#
# Velocity S-wave (km/s) = 3.43538 3.66181 3.55040
# Velocity P-wave (km/s) = 5.98461 6.53677 6.26677
#
# Compressibility (1/GPa) = 0.02167249
#
# Stress axis : x y z
#
# Youngs Moduli (GPa) = 65.55213 58.84390 81.97217
#
# Poissons Ratio (x) = 0.24744 0.34536
# Poissons Ratio (y) = 0.27565 0.24345
# Poissons Ratio (z) = 0.27618 0.17476
#
# Static dielectric constant tensor:
#      x y z
#    x 1.958660 0.000000 0.014020 
#    y 0.000000 1.858450 0.000000 
#    z 0.014020 0.000000 1.807990 
# 
# From -- ./inp_files/118025.got.cif
#   From: 2010.05.17/outbox.cif.g08.bks.cpg/sg15_60_cif.got.tgz:118025.got - 2010.06.03 18:47:42.
