data_PCOD9303923
_publ_section_title
;
Structure prediction by ZEFSAII (Michael W. Deem and Ramdas Pophale) SiO2 
 PCOD9303923
Probable space group: C 2/C
;
_chemical_formula_sum "Si O2"
_cell_formula_units_Z 40
_cell_length_a 8.771282
_cell_length_b 28.248955
_cell_length_c 8.793533
_cell_angle_alpha 90.000000
_cell_angle_beta 66.495342
_cell_angle_gamma 90.000000
_cell_volume 1998.072723
_symmetry_space_group_name_H-M "C 2/C"
_symmetry_group_IT_number 15
_symmetry_cell_setting 'monoclinic'
loop_
_space_group_symop_operation_xyz
x,y,z
-x,y,1/2-z
-x,-y,-z
x,-y,1/2+z
1/2+x,1/2+y,z
1/2-x,1/2+y,1/2-z
1/2-x,1/2-y,-z
1/2+x,1/2-y,1/2+z
loop_
_atom_site_type_symbol
_atom_site_label
_atom_site_fract_x
_atom_site_fract_y
_atom_site_fract_z
Si Si1 0.174158 0.106956 0.591226
Si Si2 0.002475 0.552772 0.565712
Si Si3 0.629504 0.707887 0.087471
Si Si4 0.312629 0.606987 0.283065
Si Si5 0.383033 0.710709 0.916584
O O1 0.330823 0.078278 0.589080
O O2 0.187140 0.103186 0.401086
O O3 0.196323 0.162845 0.615507
O O4 0.000000 0.093979 0.750000
O O5 0.000000 0.552071 0.750000
O O6 0.000000 0.500000 0.500000
O O7 0.163051 0.578865 0.425418
O O8 0.500000 0.732327 0.250000
O O9 0.698026 0.661204 0.146035
O O10 0.750000 0.750000 0.000000
O O11 0.511934 0.693514 0.994201
O O12 0.500000 0.590458 0.250000
O O13 0.500000 0.735430 0.750000
O O14 0.250000 0.750000 0.000000
#
# Coordination Sequence:
#
# PCOD9303923 Si02
#       5
#     8   8   8   8   8
#     4  11  24  46  71 101 143 182 233 287 349 414
#     4  12  28  48  76 108 136 179 232 287 356 420
#     4  11  23  41  63  97 138 183 234 280 342 404
#     4  11  23  46  71 101 143 184 229 289 346 414
#     4  11  24  39  63  98 137 184 234 279 339 403
#
# _framework density 20.019292
#
# number of rings (size 3 to 8) (size 9 to 14) (size 15 to 20)
#    0.000    0.800    4.000    4.200    5.600    1.600 
#    0.000    4.000    0.000    0.000    0.000    0.000 
#    0.000    0.000    0.000    0.000    0.000    0.000 
#
# Total GULP energy -111431.694473 kJ/mol
# GULP energy per Si atom -5571.584724 kJ/mol
# Density = 1.997373 g / cm^3
# Si number density = 20.019292 Si / 1000 Ang^3
#
#
#
# Elastic Constant Matrix: (Units=GPa)
#
#
# Indices 1 2 3 4 5 6 
#
# 1 142.6299 103.1462 96.1669 0.0000 -12.6940 0.0000
# 2 103.1462 139.6271 87.5715 0.0000 -30.7519 0.0000
# 3 96.1669 87.5715 218.1117 0.0000 -23.5279 0.0000
# 4 0.0000 0.0000 0.0000 37.3103 0.0000 7.8683
# 5 -12.6940 -30.7519 -23.5279 0.0000 57.0308 0.0000
# 6 0.0000 0.0000 0.0000 7.8683 0.0000 76.5094
#
#
#
# Elastic Compliance Matrix: (Units=1/GPa)
#
#
# Indices 1 2 3 4 5 6 
#
# 1 0.017236 -0.011408 -0.003421 0.000000 -0.003726 0.000000
# 2 -0.011408 0.017952 -0.001473 0.000000 0.006533 0.000000
# 3 -0.003421 -0.001473 0.006820 0.000000 0.001258 0.000000
# 4 0.000000 0.000000 0.000000 0.027396 0.000000 -0.002817
# 5 -0.003726 0.006533 0.001258 0.000000 0.020747 0.000000
# 6 0.000000 0.000000 0.000000 -0.002817 0.000000 0.013360
#
#
# Mechanical properties :
#
#
# Convention : Reuss Voigt Hill
#
# Bulk Modulus (GPa) = 106.33659 119.34866 112.84262
# Shear Modulus (GPa) = 35.90665 48.40238 42.15451
#
# Velocity S-wave (km/s) = 4.23969 4.92243 4.59376
# Velocity P-wave (km/s) = 8.78630 9.59445 9.19925
#
# Compressibility (1/GPa) = 0.00940410
#
# Stress axis : x y z
#
# Youngs Moduli (GPa) = 58.01846 55.70473 146.61758
#
# Poissons Ratio (x) = 0.63545 0.50162
# Poissons Ratio (y) = 0.66185 0.21600
# Poissons Ratio (z) = 0.19850 0.08207
#
# Static dielectric constant tensor:
#      x y z
#    x 1.571260 0.000000 -0.006910 
#    y 0.000000 1.682910 0.000000 
#    z -0.006910 0.000000 1.672450 
# 
# From -- ./inp_files/25386.got.cif
#   From: 2010.05.17/outbox.cif.g08.bks.cpg/sg15_13_cif.got.tgz:25386.got - 2010.06.03 18:47:42.
