data_PCOD9303271
_publ_section_title
;
Structure prediction by ZEFSAII (Michael W. Deem and Ramdas Pophale) SiO2 
 PCOD9303271
Probable space group: C 2/C
;
_chemical_formula_sum "Si O2"
_cell_formula_units_Z 48
_cell_length_a 14.338543
_cell_length_b 13.717219
_cell_length_c 19.454697
_cell_angle_alpha 90.000000
_cell_angle_beta 39.104562
_cell_angle_gamma 90.000000
_cell_volume 2413.483227
_symmetry_space_group_name_H-M "C 2/C"
_symmetry_group_IT_number 15
_symmetry_cell_setting 'monoclinic'
loop_
_space_group_symop_operation_xyz
x,y,z
-x,y,1/2-z
-x,-y,-z
x,-y,1/2+z
1/2+x,1/2+y,z
1/2-x,1/2+y,1/2-z
1/2-x,1/2-y,-z
1/2+x,1/2-y,1/2+z
loop_
_atom_site_type_symbol
_atom_site_label
_atom_site_fract_x
_atom_site_fract_y
_atom_site_fract_z
Si Si1 0.140892 0.054952 0.448827
Si Si2 0.000000 0.950618 0.250000
Si Si3 0.642717 0.058112 0.571866
Si Si4 0.104326 0.390990 0.805117
Si Si5 0.000000 0.719321 0.750000
Si Si6 0.910501 0.796421 0.410830
Si Si7 0.725016 0.388795 0.652035
O O1 0.259638 0.084279 0.322892
O O2 0.079208 0.150698 0.522004
O O3 0.228531 0.987748 0.453959
O O4 0.000000 0.000000 0.500000
O O5 0.080306 0.880244 0.151102
O O6 0.112099 0.021001 0.225859
O O7 0.568813 0.148990 0.653121
O O8 0.702765 0.092573 0.463783
O O9 0.520478 0.973533 0.632766
O O10 0.160537 0.388200 0.851244
O O11 0.031606 0.286770 0.829359
O O12 0.127733 0.790563 0.705545
O O13 0.750000 0.750000 0.500000
#
# Coordination Sequence:
#
# PCOD9303271 Si02
#       7
#     8   4   8   8   4   8   8
#     4  12  26  45  73 102 143 188 233 285 360 413
#     4  11  22  43  66  94 144 179 228 287 350 406
#     4  12  24  49  71  98 145 185 227 294 355 417
#     4  12  26  44  74 105 140 181 239 287 352 418
#     4  11  26  43  74  96 142 181 232 283 350 420
#     4  12  24  42  71 104 137 184 230 292 345 416
#     4  11  26  44  69 104 134 185 232 286 345 421
#
# _framework density 19.888266999999999
#
# number of rings (size 3 to 8) (size 9 to 14) (size 15 to 20)
#    0.000    0.333    5.000    3.000    4.667    2.667 
#    0.000    0.000    0.000    0.000    0.000    0.000 
#    0.000    0.000    0.000    0.000    0.000    0.000 
#
# Total GULP energy -134324.592483 kJ/mol
# GULP energy per Si atom -5596.858020 kJ/mol
# Density = 1.984300 g / cm^3
# Si number density = 19.888267 Si / 1000 Ang^3
#
#
#
# Elastic Constant Matrix: (Units=GPa)
#
#
# Indices 1 2 3 4 5 6 
#
# 1 129.1467 56.2302 27.9442 -0.0001 -8.6178 0.0000
# 2 56.2302 145.7714 43.9175 0.0000 -9.7296 0.0000
# 3 27.9442 43.9175 98.1837 -0.0002 4.2206 0.0001
# 4 -0.0001 0.0000 -0.0002 -436.3005 0.0001 -49.9874
# 5 -8.6178 -9.7296 4.2206 0.0001 33.9353 0.0000
# 6 0.0000 0.0000 0.0001 -49.9874 0.0000 17.5215
#
#
#
# Elastic Compliance Matrix: (Units=1/GPa)
#
#
# Indices 1 2 3 4 5 6 
#
# 1 0.009523 -0.003147 -0.001376 0.000000 0.001687 0.000000
# 2 -0.003147 0.009228 -0.003329 0.000000 0.002261 0.000000
# 3 -0.001376 -0.003329 0.012187 0.000000 -0.002820 0.000000
# 4 0.000000 0.000000 0.000000 -0.001727 0.000000 -0.004928
# 5 0.001687 0.002261 -0.002820 0.000000 0.030895 0.000000
# 6 0.000000 0.000000 0.000000 -0.004928 0.000000 0.043013
#
#
# Mechanical properties :
#
#
# Convention : Reuss Voigt Hill
#
# Bulk Modulus (GPa) = 65.63674 69.92062 67.77868
# Shear Modulus (GPa) = 40.35512 -60.63475 -10.13981
#
# Velocity S-wave (km/s) = 4.50943 -5.52756 -2.26041
# Velocity P-wave (km/s) = 7.75807 2.34637 5.22887
#
# Compressibility (1/GPa) = 0.01523537
#
# Stress axis : x y z
#
# Youngs Moduli (GPa) = 105.00500 108.36939 82.05574
#
# Poissons Ratio (x) = 0.34099 0.11287
# Poissons Ratio (y) = 0.33040 0.27318
# Poissons Ratio (z) = 0.14444 0.36078
#
# Static dielectric constant tensor:
#      x y z
#    x 1.674300 0.000000 0.016990 
#    y 0.000000 1.665160 0.000000 
#    z 0.016990 0.000000 1.699620 
# 
# From -- ./inp_files/243954.got.cif
#   From: 2010.05.17/outbox.cif.g08.bks.cpg/sg15_122_cif.got.tgz:243954.got - 2010.06.03 18:47:42.
