data_PCOD9303600
_publ_section_title
;
Structure prediction by ZEFSAII (Michael W. Deem and Ramdas Pophale) SiO2 
 PCOD9303600
Probable space group: C 2/C
;
_chemical_formula_sum "Si O2"
_cell_formula_units_Z 48
_cell_length_a 25.692904
_cell_length_b 9.915603
_cell_length_c 16.014521
_cell_angle_alpha 90.000000
_cell_angle_beta 31.972934
_cell_angle_gamma 90.000000
_cell_volume 2160.366794
_symmetry_space_group_name_H-M "C 2/C"
_symmetry_group_IT_number 15
_symmetry_cell_setting 'monoclinic'
loop_
_space_group_symop_operation_xyz
x,y,z
-x,y,1/2-z
-x,-y,-z
x,-y,1/2+z
1/2+x,1/2+y,z
1/2-x,1/2+y,1/2-z
1/2-x,1/2-y,-z
1/2+x,1/2-y,1/2+z
loop_
_atom_site_type_symbol
_atom_site_label
_atom_site_fract_x
_atom_site_fract_y
_atom_site_fract_z
Si Si1 0.812904 0.229815 0.686413
Si Si2 0.024460 0.156215 0.456617
Si Si3 0.191185 0.485599 0.902350
Si Si4 0.295307 0.609523 0.411953
Si Si5 0.777924 0.624491 0.403858
Si Si6 0.998414 0.659250 0.351133
O O1 0.796587 0.328435 0.632558
O O2 0.761972 0.084859 0.754402
O O3 0.769245 0.312995 0.823452
O O4 0.928300 0.219354 0.545662
O O5 0.112618 0.150771 0.270265
O O6 0.035102 0.230118 0.532768
O O7 0.000000 0.000000 0.500000
O O8 0.227443 0.488760 0.947455
O O9 0.082299 0.540640 0.037752
O O10 0.250000 0.750000 0.500000
O O11 0.295528 0.503974 0.488645
O O12 0.750000 0.750000 0.500000
O O13 0.895398 0.605252 0.261926
O O14 0.000000 0.704426 0.250000
#
# Coordination Sequence:
#
# PCOD9303600 Si02
#       6
#     8   8   8   8   8   8
#     4  11  26  43  72  99 140 185 239 285 355 418
#     4  11  24  47  70 102 143 185 231 286 353 424
#     4  12  25  45  69 106 138 179 239 294 345 423
#     4  12  26  43  70 102 146 178 229 294 351 410
#     4  11  22  46  68  96 136 188 229 283 351 423
#     4  11  23  42  75 100 134 182 242 286 341 417
#
# _framework density 22.218449
#
# number of rings (size 3 to 8) (size 9 to 14) (size 15 to 20)
#    0.000    0.667    5.000    2.000    7.000    1.333 
#    0.000    1.667    0.000    0.000    0.000    0.000 
#    0.000    0.000    0.000    0.000    0.000    0.000 
#
# Total GULP energy -133887.593206 kJ/mol
# GULP energy per Si atom -5578.649717 kJ/mol
# Density = 2.216788 g / cm^3
# Si number density = 22.218449 Si / 1000 Ang^3
#
#
#
# Elastic Constant Matrix: (Units=GPa)
#
#
# Indices 1 2 3 4 5 6 
#
# 1 24.6020 -2.0957 7.7449 0.0000 -8.3816 0.0000
# 2 -2.0957 130.3777 52.9489 0.0000 6.2154 0.0000
# 3 7.7449 52.9489 148.1743 0.0000 6.3769 0.0000
# 4 0.0000 0.0000 0.0000 44.3949 0.0000 7.6448
# 5 -8.3816 6.2154 6.3769 0.0000 24.9805 0.0000
# 6 0.0000 0.0000 0.0000 7.6448 0.0000 40.8474
#
#
#
# Elastic Compliance Matrix: (Units=1/GPa)
#
#
# Indices 1 2 3 4 5 6 
#
# 1 0.047587 0.001492 -0.003733 0.000000 0.016548 0.000000
# 2 0.001492 0.009070 -0.003279 0.000000 -0.000919 0.000000
# 3 -0.003733 -0.003279 0.008225 0.000000 -0.002536 0.000000
# 4 0.000000 0.000000 0.000000 0.023275 0.000000 -0.004356
# 5 0.016548 -0.000919 -0.002536 0.000000 0.046460 0.000000
# 6 0.000000 0.000000 0.000000 -0.004356 0.000000 0.025297
#
#
# Mechanical properties :
#
#
# Convention : Reuss Voigt Hill
#
# Bulk Modulus (GPa) = 18.57308 46.70558 32.63933
# Shear Modulus (GPa) = 26.46898 38.34829 32.40864
#
# Velocity S-wave (km/s) = 3.45528 4.15898 3.82335
# Velocity P-wave (km/s) = 4.92910 6.64301 5.84917
#
# Compressibility (1/GPa) = 0.05384136
#
# Stress axis : x y z
#
# Youngs Moduli (GPa) = 21.01414 110.25805 121.58176
#
# Poissons Ratio (x) = -0.16450 0.45382
# Poissons Ratio (y) = -0.03135 0.39871
# Poissons Ratio (z) = 0.07844 0.36158
#
# Static dielectric constant tensor:
#      x y z
#    x 1.929020 0.000000 0.051850 
#    y 0.000000 2.370060 0.000000 
#    z 0.051850 0.000000 1.901530 
# 
# From -- ./inp_files/224526.got.cif
#   From: 2010.05.17/outbox.cif.g08.bks.cpg/sg15_113_cif.got.tgz:224526.got - 2010.06.03 18:47:42.
