data_PCOD9303343
_publ_section_title
;
Structure prediction by ZEFSAII (Michael W. Deem and Ramdas Pophale) SiO2 
 PCOD9303343
Probable space group: C 2/C
;
_chemical_formula_sum "Si O2"
_cell_formula_units_Z 64
_cell_length_a 23.935013
_cell_length_b 10.167000
_cell_length_c 19.397120
_cell_angle_alpha 90.000000
_cell_angle_beta 31.615969
_cell_angle_gamma 90.000000
_cell_volume 2474.457736
_symmetry_space_group_name_H-M "C 2/C"
_symmetry_group_IT_number 15
_symmetry_cell_setting 'monoclinic'
loop_
_space_group_symop_operation_xyz
x,y,z
-x,y,1/2-z
-x,-y,-z
x,-y,1/2+z
1/2+x,1/2+y,z
1/2-x,1/2+y,1/2-z
1/2-x,1/2-y,-z
1/2+x,1/2-y,1/2+z
loop_
_atom_site_type_symbol
_atom_site_label
_atom_site_fract_x
_atom_site_fract_y
_atom_site_fract_z
Si Si1 0.961260 0.427858 0.972613
Si Si2 0.674450 0.304935 0.875368
Si Si3 0.371711 0.003400 0.815074
Si Si4 0.555517 0.554312 0.753468
Si Si5 0.347780 0.712627 0.348063
Si Si6 0.221871 0.657124 0.966377
Si Si7 0.150195 0.050766 0.963416
Si Si8 0.692303 0.831822 0.889756
O O1 0.049668 0.423897 0.818767
O O2 0.925368 0.285586 0.039270
O O3 0.865355 0.526900 0.048335
O O4 0.000000 0.500000 0.000000
O O5 0.683944 0.245249 0.942822
O O6 0.673500 0.463154 0.871502
O O7 0.773091 0.279158 0.721696
O O8 0.255701 0.019995 0.899105
O O9 0.413716 0.153306 0.773540
O O10 0.351741 0.947196 0.913389
O O11 0.500000 0.636152 0.750000
O O12 0.597369 0.415494 0.679261
O O13 0.660459 0.608732 0.677623
O O14 0.458425 0.520618 0.902996
O O15 0.250000 0.750000 0.500000
O O16 0.297860 0.671261 0.326839
O O17 0.250000 0.750000 0.000000
O O18 0.128571 0.205134 0.984632
#
# Coordination Sequence:
#
# PCOD9303343 Si02
#       8
#     8   8   8   8   8   8   8   8
#     4  12  27  46  75 107 144 196 242 298 369 430
#     4  12  26  47  73 104 143 193 241 299 363 434
#     4  11  23  45  66 102 147 182 236 300 354 430
#     4  12  22  42  70 106 142 183 236 291 365 421
#     4  11  22  43  72 102 140 183 237 297 364 424
#     4  12  25  44  70 101 145 187 234 303 358 429
#     4  11  24  44  70 104 141 190 233 297 352 429
#     4  11  25  50  72 104 147 190 240 301 367 436
#
# _framework density 25.864253000000001
#
# number of rings (size 3 to 8) (size 9 to 14) (size 15 to 20)
#    0.000    0.500    3.750    5.250    1.750    0.500 
#    0.000    1.875    0.000    0.000    0.000    0.000 
#    0.000    0.000    0.000    0.000    0.000    0.000 
#
# Total GULP energy -178660.491668 kJ/mol
# GULP energy per Si atom -5583.140365 kJ/mol
# Density = 2.580538 g / cm^3
# Si number density = 25.864253 Si / 1000 Ang^3
#
#
#
# Elastic Constant Matrix: (Units=GPa)
#
#
# Indices 1 2 3 4 5 6 
#
# 1 54.3502 0.3762 5.2500 0.0002 6.7456 -0.0002
# 2 0.3762 104.4982 0.8769 0.0004 -11.7445 -0.0004
# 3 5.2500 0.8769 124.6284 0.0002 0.7718 -0.0002
# 4 0.0002 0.0004 0.0002 35.4938 -0.0001 3.1295
# 5 6.7456 -11.7445 0.7718 -0.0001 30.9460 0.0000
# 6 -0.0002 -0.0004 -0.0002 3.1295 0.0000 34.6382
#
#
#
# Elastic Compliance Matrix: (Units=1/GPa)
#
#
# Indices 1 2 3 4 5 6 
#
# 1 0.019015 -0.000549 -0.000770 0.000000 -0.004334 0.000000
# 2 -0.000549 0.010013 -0.000072 0.000000 0.003922 0.000000
# 3 -0.000770 -0.000072 0.008057 0.000000 -0.000060 0.000000
# 4 0.000000 0.000000 0.000000 0.028400 0.000000 -0.002566
# 5 -0.004334 0.003922 -0.000060 0.000000 0.034749 0.000000
# 6 0.000000 0.000000 0.000000 -0.002566 0.000000 0.029102
#
#
# Mechanical properties :
#
#
# Convention : Reuss Voigt Hill
#
# Bulk Modulus (GPa) = 29.15171 32.94256 31.04713
# Shear Modulus (GPa) = 34.83045 38.68053 36.75549
#
# Velocity S-wave (km/s) = 3.67367 3.87139 3.77383
# Velocity P-wave (km/s) = 5.41202 5.72258 5.56947
#
# Compressibility (1/GPa) = 0.03430331
#
# Stress axis : x y z
#
# Youngs Moduli (GPa) = 52.58912 99.87158 124.11294
#
# Poissons Ratio (x) = 0.05484 0.09561
# Poissons Ratio (y) = 0.02888 0.00889
# Poissons Ratio (z) = 0.04051 0.00715
#
# Static dielectric constant tensor:
#      x y z
#    x 1.600520 0.000000 0.236240 
#    y 0.000000 2.184630 0.000000 
#    z 0.236240 0.000000 2.129200 
# 
# From -- ./inp_files/257504.got.cif
#   From: 2010.05.17/outbox.cif.g08.bks.cpg/sg15_129_cif.got.tgz:257504.got - 2010.06.03 18:47:42.
