data_PCOD9303351
_publ_section_title
;
Structure prediction by ZEFSAII (Michael W. Deem and Ramdas Pophale) SiO2 
 PCOD9303351
Probable space group: C 2/C
;
_chemical_formula_sum "Si O2"
_cell_formula_units_Z 52
_cell_length_a 8.586795
_cell_length_b 19.554131
_cell_length_c 17.488778
_cell_angle_alpha 90.000000
_cell_angle_beta 57.059098
_cell_angle_gamma 90.000000
_cell_volume 2464.399202
_symmetry_space_group_name_H-M "C 2/C"
_symmetry_group_IT_number 15
_symmetry_cell_setting 'monoclinic'
loop_
_space_group_symop_operation_xyz
x,y,z
-x,y,1/2-z
-x,-y,-z
x,-y,1/2+z
1/2+x,1/2+y,z
1/2-x,1/2+y,1/2-z
1/2-x,1/2-y,-z
1/2+x,1/2-y,1/2+z
loop_
_atom_site_type_symbol
_atom_site_label
_atom_site_fract_x
_atom_site_fract_y
_atom_site_fract_z
Si Si1 0.500000 0.654164 0.750000
Si Si2 0.575955 0.574632 0.459016
Si Si3 0.234581 0.575933 0.939403
Si Si4 0.820234 0.577006 0.082146
Si Si5 0.683283 0.107684 0.250908
Si Si6 0.110233 0.190790 0.054628
Si Si7 0.828278 0.745807 0.734125
O O1 0.373827 0.610862 0.842835
O O2 0.657140 0.695261 0.758769
O O3 0.500000 0.500000 0.500000
O O4 0.720864 0.595298 0.485445
O O5 0.666626 0.579580 0.350279
O O6 0.425974 0.635765 0.501846
O O7 0.256217 0.494097 0.929196
O O8 0.016349 0.591146 0.988061
O O9 0.842840 0.562954 0.166443
O O10 0.686933 0.640114 0.099357
O O11 0.500000 0.114358 0.250000
O O12 0.733802 0.180898 0.274022
O O13 0.930761 0.233149 0.128004
O O14 0.250000 0.250000 0.000000
O O15 0.000000 0.729920 0.750000
#
# Coordination Sequence:
#
# PCOD9303351 Si02
#       7
#     4   8   8   8   8   8   8
#     4  12  28  46  68 104 154 188 240 298 380 430
#     4  11  24  42  67 102 139 180 237 293 359 436
#     4  11  26  44  67 101 145 188 235 304 357 450
#     4  11  23  46  71 101 138 185 248 289 372 438
#     4  11  22  43  72  98 135 186 237 299 357 434
#     4  11  24  42  73 103 139 185 241 304 367 433
#     4  11  24  44  67 103 140 185 242 299 359 442
#
# _framework density 21.100477999999999
#
# number of rings (size 3 to 8) (size 9 to 14) (size 15 to 20)
#    0.000    0.923    5.385    0.923    4.308    0.000 
#    0.000    3.846    0.000    0.000    0.000    0.000 
#    0.000    0.000    0.000    0.000    0.000    0.000 
#
# Total GULP energy -144791.871536 kJ/mol
# GULP energy per Si atom -5568.918136 kJ/mol
# Density = 2.105245 g / cm^3
# Si number density = 21.100478 Si / 1000 Ang^3
#
#
#
# Elastic Constant Matrix: (Units=GPa)
#
#
# Indices 1 2 3 4 5 6 
#
# 1 140.7530 57.8693 41.9265 0.0000 2.5383 0.0000
# 2 57.8693 100.8476 39.0021 0.0000 -10.3823 0.0000
# 3 41.9265 39.0021 99.8910 0.0000 -6.4546 0.0000
# 4 0.0000 0.0000 0.0000 24.0141 0.0000 -12.0672
# 5 2.5383 -10.3823 -6.4546 0.0000 38.5645 0.0000
# 6 0.0000 0.0000 0.0000 -12.0672 0.0000 37.1402
#
#
#
# Elastic Compliance Matrix: (Units=1/GPa)
#
#
# Indices 1 2 3 4 5 6 
#
# 1 0.009916 -0.005027 -0.002354 0.000000 -0.002400 0.000000
# 2 -0.005027 0.014453 -0.003296 0.000000 0.003670 0.000000
# 3 -0.002354 -0.003296 0.012373 0.000000 0.001338 0.000000
# 4 0.000000 0.000000 0.000000 0.049768 0.000000 0.016170
# 5 -0.002400 0.003670 0.001338 0.000000 0.027301 0.000000
# 6 0.000000 0.000000 0.000000 0.016170 0.000000 0.032179
#
#
# Mechanical properties :
#
#
# Convention : Reuss Voigt Hill
#
# Bulk Modulus (GPa) = 64.98939 68.78748 66.88843
# Shear Modulus (GPa) = 28.99021 33.45667 31.22344
#
# Velocity S-wave (km/s) = 3.71065 3.98626 3.85093
# Velocity P-wave (km/s) = 7.01608 7.33879 7.17925
#
# Compressibility (1/GPa) = 0.01538713
#
# Stress axis : x y z
#
# Youngs Moduli (GPa) = 100.84867 69.19002 80.82397
#
# Poissons Ratio (x) = 0.34779 0.19029
# Poissons Ratio (y) = 0.50692 0.26641
# Poissons Ratio (z) = 0.23744 0.22806
#
# Static dielectric constant tensor:
#      x y z
#    x 1.870710 0.000000 0.024190 
#    y 0.000000 1.780910 0.000000 
#    z 0.024190 0.000000 1.797590 
# 
# From -- ./inp_files/190824.got.cif
#   From: 2010.05.17/outbox.cif.g08.bks.cpg/sg15_96_cif.got.tgz:190824.got - 2010.06.03 18:47:42.
