data_PCOD9303731
_publ_section_title
;
Structure prediction by ZEFSAII (Michael W. Deem and Ramdas Pophale) SiO2 
 PCOD9303731
Probable space group: C 2/C
;
_chemical_formula_sum "Si O2"
_cell_formula_units_Z 48
_cell_length_a 20.063382
_cell_length_b 14.218777
_cell_length_c 20.212279
_cell_angle_alpha 90.000000
_cell_angle_beta 29.312328
_cell_angle_gamma 90.000000
_cell_volume 2822.906776
_symmetry_space_group_name_H-M "C 2/C"
_symmetry_group_IT_number 15
_symmetry_cell_setting 'monoclinic'
loop_
_space_group_symop_operation_xyz
x,y,z
-x,y,1/2-z
-x,-y,-z
x,-y,1/2+z
1/2+x,1/2+y,z
1/2-x,1/2+y,1/2-z
1/2-x,1/2-y,-z
1/2+x,1/2-y,1/2+z
loop_
_atom_site_type_symbol
_atom_site_label
_atom_site_fract_x
_atom_site_fract_y
_atom_site_fract_z
Si Si1 0.638122 0.948852 0.403432
Si Si2 0.849004 0.962788 0.618117
Si Si3 0.694998 0.937541 0.134219
Si Si4 0.868882 0.758675 0.648247
Si Si5 0.169072 0.251831 0.944137
Si Si6 0.378889 0.049952 0.948667
O O1 0.629967 0.839210 0.392292
O O2 0.500000 0.000000 0.500000
O O3 0.756628 0.995966 0.257367
O O4 0.651413 0.972799 0.469214
O O5 0.849765 0.850331 0.620233
O O6 0.787334 0.001474 0.603336
O O7 0.000000 0.000000 0.500000
O O8 0.758350 0.832988 0.080232
O O9 0.683708 0.971420 0.068695
O O10 0.541860 0.937911 0.296701
O O11 0.748206 0.757242 0.806145
O O12 0.011407 0.768168 0.564219
O O13 0.175266 0.350597 0.976667
#
# Coordination Sequence:
#
# PCOD9303731 Si02
#       6
#     8   8   8   8   8   8
#     4  12  20  40  61  85 117 161 202 236 285 362
#     4  12  22  38  59  88 125 150 193 253 297 340
#     4  11  23  39  57  91 123 156 195 248 301 351
#     4  12  22  34  64  90 116 148 209 244 285 353
#     4  12  19  38  58  89 119 153 189 252 300 345
#     4  11  23  38  61  86 123 159 199 240 297 364
#
# _framework density 17.00375
#
# number of rings (size 3 to 8) (size 9 to 14) (size 15 to 20)
#    0.000    0.333   10.000    0.500    0.000    0.000 
#    0.000    3.333    0.000    0.000    0.000    0.000 
#    0.000    0.000    0.000    0.000    0.000    0.000 
#
# Total GULP energy -134100.824600 kJ/mol
# GULP energy per Si atom -5587.534358 kJ/mol
# Density = 1.696505 g / cm^3
# Si number density = 17.003750 Si / 1000 Ang^3
#
#
#
# Elastic Constant Matrix: (Units=GPa)
#
#
# Indices 1 2 3 4 5 6 
#
# 1 125.6503 53.4093 41.3676 -0.0002 16.5710 0.0001
# 2 53.4093 124.9207 38.7292 -0.0003 10.2579 0.0002
# 3 41.3676 38.7292 88.6426 -0.0009 2.0434 0.0004
# 4 -0.0002 -0.0003 -0.0009 24.8138 0.0004 6.3129
# 5 16.5710 10.2579 2.0434 0.0004 28.2617 -0.0001
# 6 0.0001 0.0002 0.0004 6.3129 -0.0001 25.4722
#
#
#
# Elastic Compliance Matrix: (Units=1/GPa)
#
#
# Indices 1 2 3 4 5 6 
#
# 1 0.011232 -0.003229 -0.003712 0.000000 -0.005145 0.000000
# 2 -0.003229 0.010462 -0.003025 0.000000 -0.001685 0.000000
# 3 -0.003712 -0.003025 0.014284 0.000001 0.002242 0.000000
# 4 0.000000 0.000000 0.000001 0.043012 -0.000001 -0.010660
# 5 -0.005145 -0.001685 0.002242 -0.000001 0.038850 0.000000
# 6 0.000000 0.000000 0.000000 -0.010660 0.000000 0.041900
#
#
# Mechanical properties :
#
#
# Convention : Reuss Voigt Hill
#
# Bulk Modulus (GPa) = 62.32558 67.35841 64.84199
# Shear Modulus (GPa) = 27.02399 29.42340 28.22370
#
# Velocity S-wave (km/s) = 3.99092 4.16433 4.07855
# Velocity P-wave (km/s) = 7.61382 7.92604 7.77149
#
# Compressibility (1/GPa) = 0.01604478
#
# Stress axis : x y z
#
# Youngs Moduli (GPa) = 89.03324 95.58583 70.00908
#
# Poissons Ratio (x) = 0.30861 0.25990
# Poissons Ratio (y) = 0.28746 0.21180
# Poissons Ratio (z) = 0.33052 0.28918
#
# Static dielectric constant tensor:
#      x y z
#    x 1.563820 0.000000 -0.002620 
#    y 0.000000 1.580430 0.000000 
#    z -0.002620 0.000000 1.554000 
# 
# From -- ./inp_files/66395.got.cif
#   From: 2010.05.17/outbox.cif.g08.bks.cpg/sg15_34_cif.got.tgz:66395.got - 2010.06.03 18:47:42.
