data_PCOD9303458
_publ_section_title
;
Structure prediction by ZEFSAII (Michael W. Deem and Ramdas Pophale) SiO2 
 PCOD9303458
Probable space group: C 2/C
;
_chemical_formula_sum "Si O2"
_cell_formula_units_Z 48
_cell_length_a 12.626227
_cell_length_b 12.285467
_cell_length_c 17.098122
_cell_angle_alpha 90.000000
_cell_angle_beta 121.650950
_cell_angle_gamma 90.000000
_cell_volume 2257.751972
_symmetry_space_group_name_H-M "C 2/C"
_symmetry_group_IT_number 15
_symmetry_cell_setting 'monoclinic'
loop_
_space_group_symop_operation_xyz
x,y,z
-x,y,1/2-z
-x,-y,-z
x,-y,1/2+z
1/2+x,1/2+y,z
1/2-x,1/2+y,1/2-z
1/2-x,1/2-y,-z
1/2+x,1/2-y,1/2+z
loop_
_atom_site_type_symbol
_atom_site_label
_atom_site_fract_x
_atom_site_fract_y
_atom_site_fract_z
Si Si1 0.570591 0.838867 0.583557
Si Si2 0.470145 0.031320 0.650925
Si Si3 0.883028 0.280501 0.375098
Si Si4 0.112100 0.830894 0.235072
Si Si5 0.245864 0.121093 0.481388
Si Si6 0.527832 0.426152 0.671473
O O1 0.466976 0.789844 0.484958
O O2 0.615135 0.747437 0.661176
O O3 0.680761 0.887166 0.572454
O O4 0.511232 0.937246 0.608297
O O5 0.500000 0.998662 0.750000
O O6 0.548885 0.138899 0.659671
O O7 0.327463 0.060905 0.578249
O O8 0.742568 0.319808 0.330281
O O9 0.887965 0.160318 0.340975
O O10 0.000000 0.800316 0.250000
O O11 0.086581 0.954585 0.198776
O O12 0.250000 0.250000 0.500000
O O13 0.107243 0.076692 0.421767
O O14 0.500000 0.390336 0.750000
#
# Coordination Sequence:
#
# PCOD9303458 Si02
#       6
#     8   8   8   8   8   8
#     4  11  25  46  69 100 143 181 223 281 352 411
#     4  11  25  42  73 103 136 185 228 281 345 408
#     4  11  24  44  71  99 135 180 230 285 338 402
#     4  11  28  44  66 102 139 183 228 281 347 417
#     4  11  22  44  72 105 132 175 238 284 330 405
#     4  11  24  43  72 101 135 179 226 289 335 401
#
# _framework density 21.260086000000001
#
# number of rings (size 3 to 8) (size 9 to 14) (size 15 to 20)
#    0.000    1.000    3.333    4.000   14.000    1.333 
#    3.000    0.000    0.000    0.000    0.000    0.000 
#    0.000    0.000    0.000    0.000    0.000    0.000 
#
# Total GULP energy -134372.861513 kJ/mol
# GULP energy per Si atom -5598.869230 kJ/mol
# Density = 2.121170 g / cm^3
# Si number density = 21.260086 Si / 1000 Ang^3
#
#
#
# Elastic Constant Matrix: (Units=GPa)
#
#
# Indices 1 2 3 4 5 6 
#
# 1 68.2954 6.0765 36.9506 0.0000 25.2205 0.0000
# 2 6.0765 66.1827 28.1543 0.0000 -12.8832 0.0000
# 3 36.9506 28.1543 65.6547 0.0000 3.0035 0.0000
# 4 0.0000 0.0000 0.0000 311.9552 0.0000 -379.6883
# 5 25.2205 -12.8832 3.0035 0.0000 27.6693 0.0000
# 6 0.0000 0.0000 0.0000 -379.6883 0.0000 496.5793
#
#
#
# Elastic Compliance Matrix: (Units=1/GPa)
#
#
# Indices 1 2 3 4 5 6 
#
# 1 0.036667 -0.001835 -0.018373 0.000000 -0.032282 0.000000
# 2 -0.001835 0.021452 -0.008744 0.000000 0.012610 0.000000
# 3 -0.018373 -0.008744 0.028884 0.000000 0.009540 0.000000
# 4 0.000000 0.000000 0.000000 0.046205 0.000000 0.035329
# 5 -0.032282 0.012610 0.009540 0.000000 0.070402 0.000000
# 6 0.000000 0.000000 0.000000 0.035329 0.000000 0.029026
#
#
# Mechanical properties :
#
#
# Convention : Reuss Voigt Hill
#
# Bulk Modulus (GPa) = 34.36210 38.05507 36.20858
# Shear Modulus (GPa) = 16.65330 175.83751 96.24540
#
# Velocity S-wave (km/s) = 2.80181 9.10425 6.73563
# Velocity P-wave (km/s) = 5.16378 11.33380 8.80681
#
# Compressibility (1/GPa) = 0.02910183
#
# Stress axis : x y z
#
# Youngs Moduli (GPa) = 27.27223 46.61492 34.62071
#
# Poissons Ratio (x) = 0.08553 0.63608
# Poissons Ratio (y) = 0.05004 0.30271
# Poissons Ratio (z) = 0.50107 0.40758
#
# Static dielectric constant tensor:
#      x y z
#    x 1.780310 0.000000 0.000640 
#    y 0.000000 1.746470 0.000000 
#    z 0.000640 0.000000 1.765300 
# 
# From -- ./inp_files/144390.got.cif
#   From: 2010.05.17/outbox.cif.g08.bks.cpg/sg15_73_cif.got.tgz:144390.got - 2010.06.03 18:47:42.
