data_PCOD9303184
_publ_section_title
;
Structure prediction by ZEFSAII (Michael W. Deem and Ramdas Pophale) SiO2 
 PCOD9303184
Probable space group: C 2/C
;
_chemical_formula_sum "Si O2"
_cell_formula_units_Z 56
_cell_length_a 26.533133
_cell_length_b 8.825005
_cell_length_c 14.252868
_cell_angle_alpha 90.000000
_cell_angle_beta 121.347479
_cell_angle_gamma 90.000000
_cell_volume 2850.216709
_symmetry_space_group_name_H-M "C 2/C"
_symmetry_group_IT_number 15
_symmetry_cell_setting 'monoclinic'
loop_
_space_group_symop_operation_xyz
x,y,z
-x,y,1/2-z
-x,-y,-z
x,-y,1/2+z
1/2+x,1/2+y,z
1/2-x,1/2+y,1/2-z
1/2-x,1/2-y,-z
1/2+x,1/2-y,1/2+z
loop_
_atom_site_type_symbol
_atom_site_label
_atom_site_fract_x
_atom_site_fract_y
_atom_site_fract_z
Si Si1 0.753492 0.319009 0.149475
Si Si2 0.814621 0.271526 0.515050
Si Si3 0.066125 0.152312 0.773798
Si Si4 0.317376 0.573548 0.331260
Si Si5 0.063941 0.808424 0.848523
Si Si6 0.439081 0.409650 0.440718
Si Si7 0.827667 0.393126 0.051825
O O1 0.723280 0.424727 0.197389
O O2 0.793024 0.186570 0.230302
O O3 0.792373 0.414334 0.114538
O O4 0.703614 0.236971 0.039632
O O5 0.750000 0.250000 0.500000
O O6 0.874078 0.231995 0.631564
O O7 0.815004 0.160879 0.427128
O O8 0.823645 0.447071 0.496298
O O9 0.062593 0.179679 0.658769
O O10 0.000000 0.190835 0.750000
O O11 0.075424 0.974236 0.812492
O O12 0.383807 0.522166 0.379594
O O13 0.109260 0.677630 0.865478
O O14 0.000000 0.764805 0.750000
O O15 0.065614 0.827702 0.963283
O O16 0.500000 0.500000 0.500000
#
# Coordination Sequence:
#
# PCOD9303184 Si02
#       7
#     8   8   8   8   8   8   8
#     4  11  24  40  64  95 131 177 212 279 330 394
#     4  12  25  42  65  96 137 181 221 277 337 403
#     4  11  23  43  70  93 132 175 228 274 342 403
#     4  12  24  41  66  98 135 169 230 263 341 398
#     4  11  22  42  69  98 127 175 228 275 336 392
#     4  12  22  40  69 100 126 169 225 278 322 403
#     4  11  24  43  63  92 138 172 221 274 335 391
#
# _framework density 19.647627
#
# number of rings (size 3 to 8) (size 9 to 14) (size 15 to 20)
#    0.000    0.571    7.143    1.714    6.000    0.571 
#    2.571    0.000    0.000    2.571    0.000    0.000 
#    0.000    0.000    0.000    0.000    0.000    0.000 
#
# Total GULP energy -156338.732904 kJ/mol
# GULP energy per Si atom -5583.526175 kJ/mol
# Density = 1.960291 g / cm^3
# Si number density = 19.647627 Si / 1000 Ang^3
#
#
#
# Elastic Constant Matrix: (Units=GPa)
#
#
# Indices 1 2 3 4 5 6 
#
# 1 103.4740 31.0176 28.0007 0.0000 23.6492 0.0000
# 2 31.0176 55.7791 -3.3038 0.0000 17.0896 0.0000
# 3 28.0007 -3.3038 74.7386 0.0000 8.2148 0.0000
# 4 0.0000 0.0000 0.0000 27.6788 0.0000 2.9792
# 5 23.6492 17.0896 8.2148 0.0000 39.5634 0.0000
# 6 0.0000 0.0000 0.0000 2.9792 0.0000 20.1465
#
#
#
# Elastic Compliance Matrix: (Units=1/GPa)
#
#
# Indices 1 2 3 4 5 6 
#
# 1 0.014086 -0.006775 -0.005089 0.000000 -0.004437 0.000000
# 2 -0.006775 0.024199 0.004413 0.000000 -0.007319 0.000000
# 3 -0.005089 0.004413 0.015715 0.000000 -0.002127 0.000000
# 4 0.000000 0.000000 0.000000 0.036713 0.000000 -0.005429
# 5 -0.004437 -0.007319 -0.002127 0.000000 0.031531 0.000000
# 6 0.000000 0.000000 0.000000 -0.005429 0.000000 0.050439
#
#
# Mechanical properties :
#
#
# Convention : Reuss Voigt Hill
#
# Bulk Modulus (GPa) = 25.57728 38.38008 31.97868
# Shear Modulus (GPa) = 24.92257 29.36288 27.14272
#
# Velocity S-wave (km/s) = 3.56543 3.87004 3.72085
# Velocity P-wave (km/s) = 5.47686 6.28858 5.89670
#
# Compressibility (1/GPa) = 0.03909720
#
# Stress axis : x y z
#
# Youngs Moduli (GPa) = 70.99000 41.32360 63.63149
#
# Poissons Ratio (x) = 0.27998 0.32384
# Poissons Ratio (y) = 0.48097 -0.28078
# Poissons Ratio (z) = 0.36129 -0.18234
#
# Static dielectric constant tensor:
#      x y z
#    x 1.677590 0.000000 -0.051610 
#    y 0.000000 1.635500 0.000000 
#    z -0.051610 0.000000 1.665620 
# 
# From -- ./inp_files/172278.got.cif
#   From: 2010.05.17/outbox.cif.g08.bks.cpg/sg15_87_cif.got.tgz:172278.got - 2010.06.03 18:47:42.
