data_PCOD9303834
_publ_section_title
;
Structure prediction by ZEFSAII (Michael W. Deem and Ramdas Pophale) SiO2 
 PCOD9303834
Probable space group: C 2/C
;
_chemical_formula_sum "Si O2"
_cell_formula_units_Z 60
_cell_length_a 11.737040
_cell_length_b 31.241048
_cell_length_c 10.800985
_cell_angle_alpha 90.000000
_cell_angle_beta 51.229646
_cell_angle_gamma 90.000000
_cell_volume 3087.834057
_symmetry_space_group_name_H-M "C 2/C"
_symmetry_group_IT_number 15
_symmetry_cell_setting 'monoclinic'
loop_
_space_group_symop_operation_xyz
x,y,z
-x,y,1/2-z
-x,-y,-z
x,-y,1/2+z
1/2+x,1/2+y,z
1/2-x,1/2+y,1/2-z
1/2-x,1/2-y,-z
1/2+x,1/2-y,1/2+z
loop_
_atom_site_type_symbol
_atom_site_label
_atom_site_fract_x
_atom_site_fract_y
_atom_site_fract_z
Si Si1 0.097585 0.703039 0.996192
Si Si2 0.094424 0.457099 0.395328
Si Si3 0.847982 0.012469 0.540797
Si Si4 0.275234 0.785832 0.818001
Si Si5 0.479366 0.130494 0.905186
Si Si6 0.292080 0.629309 0.235458
Si Si7 0.834112 0.569564 0.393176
Si Si8 0.000000 0.927779 0.750000
O O1 0.177692 0.699296 0.075138
O O2 0.930007 0.716340 0.140959
O O3 0.189286 0.741408 0.873132
O O4 0.082188 0.660433 0.923253
O O5 0.231013 0.469456 0.217601
O O6 0.155703 0.428095 0.466720
O O7 0.000000 0.500000 0.500000
O O8 0.999773 0.421004 0.392633
O O9 0.882241 0.042817 0.401125
O O10 0.777184 0.968542 0.547830
O O11 0.000000 0.000000 0.500000
O O12 0.173730 0.823247 0.833294
O O13 0.500000 0.145038 0.750000
O O14 0.320574 0.135155 0.074854
O O15 0.210978 0.605869 0.174528
O O16 0.422882 0.600821 0.197806
O O17 0.000000 0.556619 0.250000
#
# Coordination Sequence:
#
# PCOD9303834 Si02
#       8
#     8   8   8   8   8   8   8   4
#     4   9  19  40  66  97 123 159 205 262 323 386
#     4  12  25  39  66  96 124 168 223 274 319 381
#     4  12  25  43  60  89 130 171 212 270 330 381
#     4   9  19  39  70  92 123 160 205 262 321 383
#     4  11  23  40  63  94 128 167 219 269 314 379
#     4  11  23  43  64  93 125 176 209 264 330 390
#     4  12  23  40  68  93 120 167 225 269 313 387
#     4  12  26  44  60  88 138 174 214 262 338 396
#
# _framework density 19.431096
#
# number of rings (size 3 to 8) (size 9 to 14) (size 15 to 20)
#    0.000    1.067    4.000    2.400    5.600    0.000 
#    6.000    1.333    2.933    0.000    0.000    0.000 
#    0.000    0.000    0.000    0.000    0.000    0.000 
#
# Total GULP energy -167206.422602 kJ/mol
# GULP energy per Si atom -5573.547420 kJ/mol
# Density = 1.938687 g / cm^3
# Si number density = 19.431096 Si / 1000 Ang^3
#
#
#
# Elastic Constant Matrix: (Units=GPa)
#
#
# Indices 1 2 3 4 5 6 
#
# 1 43.2764 37.7436 7.3919 0.0000 -1.9177 0.0000
# 2 37.7436 127.8922 48.5673 0.0000 -5.5501 0.0000
# 3 7.3919 48.5673 99.2489 0.0000 7.9973 0.0000
# 4 0.0000 0.0000 0.0000 19.9763 0.0000 2.7978
# 5 -1.9177 -5.5501 7.9973 0.0000 26.9876 0.0000
# 6 0.0000 0.0000 0.0000 2.7978 0.0000 29.2695
#
#
#
# Elastic Compliance Matrix: (Units=1/GPa)
#
#
# Indices 1 2 3 4 5 6 
#
# 1 0.031718 -0.010462 0.002816 0.000000 -0.000732 0.000000
# 2 -0.010462 0.013379 -0.006074 0.000000 0.003808 0.000000
# 3 0.002816 -0.006074 0.013239 0.000000 -0.004972 0.000000
# 4 0.000000 0.000000 0.000000 0.050739 0.000000 -0.004850
# 5 -0.000732 0.003808 -0.004972 0.000000 0.039259 0.000000
# 6 0.000000 0.000000 0.000000 -0.004850 0.000000 0.034629
#
#
# Mechanical properties :
#
#
# Convention : Reuss Voigt Hill
#
# Bulk Modulus (GPa) = 32.36713 50.86927 41.61820
# Shear Modulus (GPa) = 22.65510 27.02766 24.84138
#
# Velocity S-wave (km/s) = 3.41826 3.73359 3.57940
# Velocity P-wave (km/s) = 5.68092 6.69495 6.20867
#
# Compressibility (1/GPa) = 0.03089554
#
# Stress axis : x y z
#
# Youngs Moduli (GPa) = 31.52768 74.74592 75.53374
#
# Poissons Ratio (x) = 0.78199 -0.21272
# Poissons Ratio (y) = 0.32984 0.45883
# Poissons Ratio (z) = -0.08879 0.45404
#
# Static dielectric constant tensor:
#      x y z
#    x 1.740970 0.000000 0.046160 
#    y 0.000000 1.655820 0.000000 
#    z 0.046160 0.000000 1.694990 
# 
# From -- ./inp_files/92605.got.cif
#   From: 2010.05.17/outbox.cif.g08.bks.cpg/sg15_47_cif.got.tgz:92605.got - 2010.06.03 18:47:42.
