data_PCOD9303083
_publ_section_title
;
Structure prediction by ZEFSAII (Michael W. Deem and Ramdas Pophale) SiO2 
 PCOD9303083
Probable space group: C 2/C
;
_chemical_formula_sum "Si O2"
_cell_formula_units_Z 48
_cell_length_a 9.927534
_cell_length_b 15.934848
_cell_length_c 12.650599
_cell_angle_alpha 90.000000
_cell_angle_beta 105.007362
_cell_angle_gamma 90.000000
_cell_volume 1932.988275
_symmetry_space_group_name_H-M "C 2/C"
_symmetry_group_IT_number 15
_symmetry_cell_setting 'monoclinic'
loop_
_space_group_symop_operation_xyz
x,y,z
-x,y,1/2-z
-x,-y,-z
x,-y,1/2+z
1/2+x,1/2+y,z
1/2-x,1/2+y,1/2-z
1/2-x,1/2-y,-z
1/2+x,1/2-y,1/2+z
loop_
_atom_site_type_symbol
_atom_site_label
_atom_site_fract_x
_atom_site_fract_y
_atom_site_fract_z
Si Si1 0.500000 0.467313 0.250000
Si Si2 0.245305 0.842287 0.331084
Si Si3 0.425511 0.608395 0.088005
Si Si4 0.695655 0.825428 0.706573
Si Si5 0.330240 0.097830 0.616625
Si Si6 0.493955 0.222324 0.983703
Si Si7 0.500000 0.034517 0.250000
O O1 0.617453 0.404516 0.317808
O O2 0.514407 0.532753 0.155348
O O3 0.215417 0.745522 0.297846
O O4 0.308058 0.878188 0.234088
O O5 0.354922 0.833008 0.447888
O O6 0.330432 0.649601 0.163502
O O7 0.517287 0.681661 0.054822
O O8 0.310618 0.581339 0.977226
O O9 0.577123 0.784072 0.608334
O O10 0.627305 0.909425 0.736321
O O11 0.401957 0.177543 0.577687
O O12 0.437684 0.021363 0.642600
#
# Coordination Sequence:
#
# PCOD9303083 Si02
#       7
#     4   8   8   8   8   8   4
#     4  12  29  39  64 102 140 174 212 287 339 380
#     4  12  23  46  64  99 137 175 220 276 331 396
#     4  11  23  45  71 100 126 178 232 271 317 394
#     4  11  24  44  68  98 135 178 224 261 337 403
#     4  11  22  41  72  99 131 170 225 276 324 388
#     4  11  22  43  77  95 124 181 231 271 312 399
#     4  12  25  39  64 106 142 174 206 277 341 392
#
# _framework density 24.832017
#
# number of rings (size 3 to 8) (size 9 to 14) (size 15 to 20)
#    0.000    0.667    5.000    3.500    2.333    2.000 
#    3.000    1.667    0.000    0.000    0.000    0.000 
#    0.000    0.000    0.000    0.000    0.000    0.000 
#
# Total GULP energy -134320.663201 kJ/mol
# GULP energy per Si atom -5596.694300 kJ/mol
# Density = 2.477550 g / cm^3
# Si number density = 24.832017 Si / 1000 Ang^3
#
#
#
# Elastic Constant Matrix: (Units=GPa)
#
#
# Indices 1 2 3 4 5 6 
#
# 1 45.0024 29.2666 15.9902 0.0000 20.8651 0.0000
# 2 29.2666 116.6282 32.1388 0.0000 20.8165 0.0000
# 3 15.9902 32.1388 70.8423 0.0000 34.5994 0.0000
# 4 0.0000 0.0000 0.0000 -327.0318 0.0000 -319.0168
# 5 20.8651 20.8165 34.5994 0.0000 38.2646 0.0000
# 6 0.0000 0.0000 0.0000 -319.0168 0.0000 -284.3372
#
#
#
# Elastic Compliance Matrix: (Units=1/GPa)
#
#
# Indices 1 2 3 4 5 6 
#
# 1 0.033468 -0.006269 0.004544 0.000000 -0.018948 0.000000
# 2 -0.006269 0.011093 -0.004190 0.000000 0.001172 0.000000
# 3 0.004544 -0.004190 0.027021 0.000000 -0.024631 0.000000
# 4 0.000000 0.000000 0.000000 0.032368 0.000000 -0.036316
# 5 -0.018948 0.001172 -0.024631 0.000000 0.058100 0.000000
# 6 0.000000 0.000000 0.000000 -0.036316 0.000000 0.037229
#
#
# Mechanical properties :
#
#
# Convention : Reuss Voigt Hill
#
# Bulk Modulus (GPa) = 16.73578 43.02934 29.88256
# Shear Modulus (GPa) = 21.64262 -104.28239 -41.31989
#
# Velocity S-wave (km/s) = 2.95542 -6.48740 -4.08361
# Velocity P-wave (km/s) = 4.28955 6.22489 3.18975
#
# Compressibility (1/GPa) = 0.05975223
#
# Stress axis : x y z
#
# Youngs Moduli (GPa) = 29.87892 90.14939 37.00851
#
# Poissons Ratio (x) = 0.56512 -0.16816
# Poissons Ratio (y) = 0.18730 0.15506
# Poissons Ratio (z) = -0.13576 0.37772
#
# Static dielectric constant tensor:
#      x y z
#    x 2.029450 0.000000 0.016460 
#    y 0.000000 1.966520 0.000000 
#    z 0.016460 0.000000 1.952070 
# 
# From -- ./inp_files/144417.got.cif
#   From: 2010.05.17/outbox.cif.g08.bks.cpg/sg15_73_cif.got.tgz:144417.got - 2010.06.03 18:47:42.
