data_PCOD9303679
_publ_section_title
;
Structure prediction by ZEFSAII (Michael W. Deem and Ramdas Pophale) SiO2 
 PCOD9303679
Probable space group: C 2/C
;
_chemical_formula_sum "Si O2"
_cell_formula_units_Z 48
_cell_length_a 25.549828
_cell_length_b 12.294419
_cell_length_c 21.183615
_cell_angle_alpha 90.000000
_cell_angle_beta 158.403417
_cell_angle_gamma 90.000000
_cell_volume 2449.206635
_symmetry_space_group_name_H-M "C 2/C"
_symmetry_group_IT_number 15
_symmetry_cell_setting 'monoclinic'
loop_
_space_group_symop_operation_xyz
x,y,z
-x,y,1/2-z
-x,-y,-z
x,-y,1/2+z
1/2+x,1/2+y,z
1/2-x,1/2+y,1/2-z
1/2-x,1/2-y,-z
1/2+x,1/2-y,1/2+z
loop_
_atom_site_type_symbol
_atom_site_label
_atom_site_fract_x
_atom_site_fract_y
_atom_site_fract_z
Si Si1 0.405138 0.347575 0.208545
Si Si2 0.653781 0.095480 0.349623
Si Si3 0.838198 0.050242 0.437545
Si Si4 0.914723 0.527160 0.004660
Si Si5 0.408884 0.160615 0.403001
Si Si6 0.620972 0.589899 0.626669
O O1 0.500000 0.339118 0.250000
O O2 0.370750 0.224470 0.190099
O O3 0.504625 0.409647 0.369325
O O4 0.255728 0.404906 0.024720
O O5 0.751882 0.043693 0.405460
O O6 0.500573 0.041913 0.166050
O O7 0.753635 0.139226 0.301414
O O8 0.825520 0.940008 0.383905
O O9 0.925593 0.406742 0.986630
O O10 0.752571 0.567133 0.820993
O O11 0.994489 0.603105 0.041915
O O12 0.433529 0.288066 0.432655
O O13 0.500000 0.500000 0.500000
#
# Coordination Sequence:
#
# PCOD9303679 Si02
#       6
#     8   8   8   8   8   8
#     4   9  17  30  52  81 109 135 180 226 275 322
#     4   9  17  32  53  75 103 145 174 220 276 316
#     4   9  19  33  50  77 108 144 173 223 266 320
#     4   9  19  35  53  75 107 145 173 223 271 323
#     4   9  19  34  53  75 108 143 181 214 270 328
#     4  11  23  32  51  81 109 145 184 224 267 322
#
# _framework density 19.598182000000001
#
# number of rings (size 3 to 8) (size 9 to 14) (size 15 to 20)
#    0.000    2.667    0.000    2.000    9.333    0.000 
#    3.000    0.000    0.000    1.000    0.000    3.500 
#    0.000    0.000    0.000    0.000    0.000    0.000 
#
# Total GULP energy -133853.360763 kJ/mol
# GULP energy per Si atom -5577.223365 kJ/mol
# Density = 1.955358 g / cm^3
# Si number density = 19.598182 Si / 1000 Ang^3
#
#
#
# Elastic Constant Matrix: (Units=GPa)
#
#
# Indices 1 2 3 4 5 6 
#
# 1 42.4566 11.7587 15.2604 0.0000 6.6232 0.0000
# 2 11.7587 109.2930 40.0055 0.0003 1.1363 0.0002
# 3 15.2604 40.0055 185.2704 0.0001 -8.3674 0.0002
# 4 0.0000 0.0003 0.0001 22.2366 0.0001 1.1165
# 5 6.6232 1.1363 -8.3674 0.0001 28.5127 0.0001
# 6 0.0000 0.0002 0.0002 1.1165 0.0001 17.1513
#
#
#
# Elastic Compliance Matrix: (Units=1/GPa)
#
#
# Indices 1 2 3 4 5 6 
#
# 1 0.025834 -0.001982 -0.001994 0.000000 -0.006507 0.000000
# 2 -0.001982 0.010117 -0.002046 0.000000 -0.000543 0.000000
# 3 -0.001994 -0.002046 0.006109 0.000000 0.002337 0.000000
# 4 0.000000 0.000000 0.000000 0.045118 0.000000 -0.002937
# 5 -0.006507 -0.000543 0.002337 0.000000 0.037291 0.000000
# 6 0.000000 0.000000 0.000000 -0.002937 0.000000 0.058496
#
#
# Mechanical properties :
#
#
# Convention : Reuss Voigt Hill
#
# Bulk Modulus (GPa) = 33.31423 52.34102 42.82762
# Shear Modulus (GPa) = 24.38844 31.57984 27.98414
#
# Velocity S-wave (km/s) = 3.53147 4.01854 3.78285
# Velocity P-wave (km/s) = 5.80206 6.94957 6.40158
#
# Compressibility (1/GPa) = 0.03001721
#
# Stress axis : x y z
#
# Youngs Moduli (GPa) = 38.70847 98.83865 163.69035
#
# Poissons Ratio (x) = 0.19590 0.32637
# Poissons Ratio (y) = 0.07672 0.33490
# Poissons Ratio (z) = 0.07718 0.20222
#
# Static dielectric constant tensor:
#      x y z
#    x 1.779120 0.000000 0.030360 
#    y 0.000000 1.638900 0.000000 
#    z 0.030360 0.000000 1.761650 
# 
# From -- ./inp_files/279919.got.cif
#   From: 2010.05.17/outbox.cif.g08.bks.cpg/sg15_140_cif.got.tgz:279919.got - 2010.06.03 18:47:42.
