data_PCOD9303732
_publ_section_title
;
Structure prediction by ZEFSAII (Michael W. Deem and Ramdas Pophale) SiO2 
 PCOD9303732
Probable space group: C 2/C
;
_chemical_formula_sum "Si O2"
_cell_formula_units_Z 40
_cell_length_a 8.959787
_cell_length_b 28.436486
_cell_length_c 15.307123
_cell_angle_alpha 90.000000
_cell_angle_beta 149.025016
_cell_angle_gamma 90.000000
_cell_volume 2007.200645
_symmetry_space_group_name_H-M "C 2/C"
_symmetry_group_IT_number 15
_symmetry_cell_setting 'monoclinic'
loop_
_space_group_symop_operation_xyz
x,y,z
-x,y,1/2-z
-x,-y,-z
x,-y,1/2+z
1/2+x,1/2+y,z
1/2-x,1/2+y,1/2-z
1/2-x,1/2-y,-z
1/2+x,1/2-y,1/2+z
loop_
_atom_site_type_symbol
_atom_site_label
_atom_site_fract_x
_atom_site_fract_y
_atom_site_fract_z
Si Si1 0.643873 0.115528 0.224288
Si Si2 0.855487 0.551505 0.928218
Si Si3 0.341243 0.106768 0.575396
Si Si4 0.475729 0.789495 0.134355
Si Si5 0.468014 0.221810 0.333110
O O1 0.500000 0.111191 0.250000
O O2 0.614494 0.169889 0.171981
O O3 0.989077 0.102439 0.404030
O O4 0.476806 0.081505 0.072205
O O5 0.500000 0.550714 0.750000
O O6 0.990538 0.574019 0.908036
O O7 0.000000 0.500000 0.000000
O O8 0.500000 0.102721 0.750000
O O9 0.394695 0.159074 0.564411
O O10 0.500000 0.792885 0.250000
O O11 0.750490 0.764929 0.232755
O O12 0.250000 0.750000 0.000000
O O13 0.500000 0.208627 0.250000
O O14 0.750000 0.250000 0.500000
#
# Coordination Sequence:
#
# PCOD9303732 Si02
#       5
#     8   8   8   8   8
#     4  11  25  45  69 104 143 184 233 290 347 416
#     4  12  28  50  78 105 136 179 234 294 359 417
#     4  11  25  44  71 103 143 183 235 287 349 415
#     4  11  23  38  61  95 136 185 229 275 339 400
#     4  11  25  38  61  95 138 183 233 279 337 406
#
# _framework density 19.928252000000001
#
# number of rings (size 3 to 8) (size 9 to 14) (size 15 to 20)
#    0.000    0.800    2.000    4.200   16.800    0.800 
#    0.000    4.000    0.000    0.000    0.000    0.000 
#    0.000    0.000    0.000    0.000    0.000    0.000 
#
# Total GULP energy -111360.936726 kJ/mol
# GULP energy per Si atom -5568.046836 kJ/mol
# Density = 1.988289 g / cm^3
# Si number density = 19.928252 Si / 1000 Ang^3
#
#
#
# Elastic Constant Matrix: (Units=GPa)
#
#
# Indices 1 2 3 4 5 6 
#
# 1 127.6145 68.5088 68.6328 0.0000 18.8449 0.0000
# 2 68.5088 158.6889 68.7409 0.0000 1.1145 0.0000
# 3 68.6328 68.7409 178.2504 0.0000 36.0527 0.0000
# 4 0.0000 0.0000 0.0000 30.6873 0.0000 -4.8780
# 5 18.8449 1.1145 36.0527 0.0000 51.8582 0.0000
# 6 0.0000 0.0000 0.0000 -4.8780 0.0000 36.7802
#
#
#
# Elastic Compliance Matrix: (Units=1/GPa)
#
#
# Indices 1 2 3 4 5 6 
#
# 1 0.011637 -0.003936 -0.002472 0.000000 -0.002425 0.000000
# 2 -0.003936 0.009113 -0.002616 0.000000 0.003053 0.000000
# 3 -0.002472 -0.002616 0.008585 0.000000 -0.005014 0.000000
# 4 0.000000 0.000000 0.000000 0.033289 0.000000 0.004415
# 5 -0.002425 0.003053 -0.005014 0.000000 0.023585 0.000000
# 6 0.000000 0.000000 0.000000 0.004415 0.000000 0.027774
#
#
# Mechanical properties :
#
#
# Convention : Reuss Voigt Hill
#
# Bulk Modulus (GPa) = 88.60755 97.36876 92.98816
# Shear Modulus (GPa) = 36.82082 41.10992 38.96537
#
# Velocity S-wave (km/s) = 4.30312 4.54684 4.42666
# Velocity P-wave (km/s) = 8.32159 8.74818 8.53755
#
# Compressibility (1/GPa) = 0.01128572
#
# Stress axis : x y z
#
# Youngs Moduli (GPa) = 85.93446 109.73638 116.48165
#
# Poissons Ratio (x) = 0.43191 0.28796
# Poissons Ratio (y) = 0.33823 0.30476
# Poissons Ratio (z) = 0.21244 0.28711
#
# Static dielectric constant tensor:
#      x y z
#    x 1.701520 0.000000 -0.025680 
#    y 0.000000 1.761140 0.000000 
#    z -0.025680 0.000000 1.670500 
# 
# From -- ./inp_files/25345.got.cif
#   From: 2010.05.17/outbox.cif.g08.bks.cpg/sg15_13_cif.got.tgz:25345.got - 2010.06.03 18:47:42.
