data_PCOD9303285
_publ_section_title
;
Structure prediction by ZEFSAII (Michael W. Deem and Ramdas Pophale) SiO2 
 PCOD9303285
Probable space group: C 2/C
;
_chemical_formula_sum "Si O2"
_cell_formula_units_Z 40
_cell_length_a 10.280097
_cell_length_b 17.586053
_cell_length_c 13.096788
_cell_angle_alpha 90.000000
_cell_angle_beta 54.857291
_cell_angle_gamma 90.000000
_cell_volume 1936.134269
_symmetry_space_group_name_H-M "C 2/C"
_symmetry_group_IT_number 15
_symmetry_cell_setting 'monoclinic'
loop_
_space_group_symop_operation_xyz
x,y,z
-x,y,1/2-z
-x,-y,-z
x,-y,1/2+z
1/2+x,1/2+y,z
1/2-x,1/2+y,1/2-z
1/2-x,1/2-y,-z
1/2+x,1/2-y,1/2+z
loop_
_atom_site_type_symbol
_atom_site_label
_atom_site_fract_x
_atom_site_fract_y
_atom_site_fract_z
Si Si1 0.338993 0.947330 0.566298
Si Si2 0.679703 0.223584 0.356010
Si Si3 0.329918 0.587369 0.782673
Si Si4 0.325041 0.229840 0.573733
Si Si5 0.317193 0.871113 0.360183
O O1 0.333892 0.866901 0.626622
O O2 0.295612 0.918677 0.472362
O O3 0.500000 0.000000 0.500000
O O4 0.203983 0.001586 0.672301
O O5 0.508265 0.250830 0.476040
O O6 0.732454 0.237297 0.214336
O O7 0.796661 0.279074 0.367886
O O8 0.500000 0.612163 0.750000
O O9 0.197422 0.640165 0.896546
O O10 0.300138 0.600726 0.676460
O O11 0.250000 0.250000 0.500000
O O12 0.500000 0.885822 0.250000
#
# Coordination Sequence:
#
# PCOD9303285 Si02
#       5
#     8   8   8   8   8
#     4  12  23  43  67 101 140 191 241 297 364 435
#     4  11  24  42  71 103 140 189 247 296 361 434
#     4  11  25  43  65  99 143 181 235 310 361 417
#     4  11  22  43  68 101 144 189 239 296 361 435
#     4  11  23  44  71  98 145 190 241 302 363 431
#
# _framework density 20.659723
#
# number of rings (size 3 to 8) (size 9 to 14) (size 15 to 20)
#    0.000    0.800    4.000    4.800    0.000    4.800 
#    3.600    0.000    0.000    0.000    0.000    0.000 
#    0.000    0.000    0.000    0.000    0.000    0.000 
#
# Total GULP energy -111453.542636 kJ/mol
# GULP energy per Si atom -5572.677132 kJ/mol
# Density = 2.061270 g / cm^3
# Si number density = 20.659723 Si / 1000 Ang^3
#
#
#
# Elastic Constant Matrix: (Units=GPa)
#
#
# Indices 1 2 3 4 5 6 
#
# 1 98.4485 33.7199 58.9989 0.0000 16.5124 0.0000
# 2 33.7199 146.4822 54.7624 0.0000 22.3269 0.0000
# 3 58.9989 54.7624 129.6430 0.0000 14.8076 0.0000
# 4 0.0000 0.0000 0.0000 35.1273 0.0000 -1.3755
# 5 16.5124 22.3269 14.8076 0.0000 41.4099 0.0000
# 6 0.0000 0.0000 0.0000 -1.3755 0.0000 31.4854
#
#
#
# Elastic Compliance Matrix: (Units=1/GPa)
#
#
# Indices 1 2 3 4 5 6 
#
# 1 0.014494 -0.000601 -0.005963 0.000000 -0.003324 0.000000
# 2 -0.000601 0.008583 -0.002972 0.000000 -0.003325 0.000000
# 3 -0.005963 -0.002972 0.011706 0.000000 -0.000206 0.000000
# 4 0.000000 0.000000 0.000000 0.028517 0.000000 0.001246
# 5 -0.003324 -0.003325 -0.000206 0.000000 0.027341 0.000000
# 6 0.000000 0.000000 0.000000 0.001246 0.000000 0.031815
#
#
# Mechanical properties :
#
#
# Convention : Reuss Voigt Hill
#
# Bulk Modulus (GPa) = 63.64712 74.39292 69.02002
# Shear Modulus (GPa) = 34.06810 36.74402 35.40606
#
# Velocity S-wave (km/s) = 4.06521 4.22184 4.14426
# Velocity P-wave (km/s) = 7.27384 7.73641 7.50869
#
# Compressibility (1/GPa) = 0.01571163
#
# Stress axis : x y z
#
# Youngs Moduli (GPa) = 68.99299 116.50754 85.42545
#
# Poissons Ratio (x) = 0.07000 0.50937
# Poissons Ratio (y) = 0.04145 0.25392
# Poissons Ratio (z) = 0.41139 0.34630
#
# Static dielectric constant tensor:
#      x y z
#    x 1.846770 0.000000 -0.003760 
#    y 0.000000 1.766030 0.000000 
#    z -0.003760 0.000000 1.770880 
# 
# From -- ./inp_files/144912.got.cif
#   From: 2010.05.17/outbox.cif.g08.bks.cpg/sg15_73_cif.got.tgz:144912.got - 2010.06.03 18:47:42.
