data_PCOD9303066
_publ_section_title
;
Structure prediction by ZEFSAII (Michael W. Deem and Ramdas Pophale) SiO2 
 PCOD9303066
Probable space group: C 2/C
;
_chemical_formula_sum "Si O2"
_cell_formula_units_Z 64
_cell_length_a 23.032099
_cell_length_b 15.869956
_cell_length_c 17.160771
_cell_angle_alpha 90.000000
_cell_angle_beta 29.227038
_cell_angle_gamma 90.000000
_cell_volume 3062.721076
_symmetry_space_group_name_H-M "C 2/C"
_symmetry_group_IT_number 15
_symmetry_cell_setting 'monoclinic'
loop_
_space_group_symop_operation_xyz
x,y,z
-x,y,1/2-z
-x,-y,-z
x,-y,1/2+z
1/2+x,1/2+y,z
1/2-x,1/2+y,1/2-z
1/2-x,1/2-y,-z
1/2+x,1/2-y,1/2+z
loop_
_atom_site_type_symbol
_atom_site_label
_atom_site_fract_x
_atom_site_fract_y
_atom_site_fract_z
Si Si1 0.229001 0.981702 0.441584
Si Si2 0.464733 0.370686 0.906832
Si Si3 0.920104 0.132320 0.920956
Si Si4 0.063648 0.588894 0.909232
Si Si5 0.865684 0.694203 0.051788
Si Si6 0.778341 0.933427 0.878167
Si Si7 0.608731 0.591394 0.829438
Si Si8 0.305658 0.212639 0.628305
O O1 0.106367 0.932694 0.566278
O O2 0.258708 0.976637 0.497726
O O3 0.198616 0.076539 0.451123
O O4 0.329387 0.934867 0.274442
O O5 0.605417 0.378346 0.738160
O O6 0.419522 0.276331 0.947696
O O7 0.428897 0.396990 0.037191
O O8 0.000000 0.125381 0.750000
O O9 0.997325 0.096423 0.902331
O O10 0.885557 0.227343 0.982333
O O11 0.967613 0.652081 0.984731
O O12 0.000000 0.500000 0.000000
O O13 0.121598 0.638242 0.914195
O O14 0.818901 0.625218 0.046690
O O15 0.756700 0.728487 0.232683
O O16 0.822338 0.004960 0.766900
O O17 0.698688 0.668113 0.707310
#
# Coordination Sequence:
#
# PCOD9303066 Si02
#       8
#     8   8   8   8   8   8   8   8
#     4  12  25  46  67 100 142 175 226 295 350 413
#     4  11  23  42  69 100 133 176 240 283 337 414
#     4  12  24  44  70 104 143 180 229 298 351 407
#     4  12  25  47  70  98 138 185 231 287 347 419
#     4  11  24  42  68 100 135 183 234 283 341 412
#     4  12  24  43  68 101 137 183 229 284 357 415
#     4  11  22  41  70  98 132 180 235 275 340 420
#     4  11  24  45  69 106 136 182 244 286 341 417
#
# _framework density 20.896450999999999
#
# number of rings (size 3 to 8) (size 9 to 14) (size 15 to 20)
#    0.000    0.500    5.000    5.250    1.750    1.500 
#    4.500    0.000    0.000    0.000    0.000    0.000 
#    0.000    0.000    0.000    0.000    0.000    0.000 
#
# Total GULP energy -179096.502769 kJ/mol
# GULP energy per Si atom -5596.765712 kJ/mol
# Density = 2.084889 g / cm^3
# Si number density = 20.896451 Si / 1000 Ang^3
#
#
#
# Elastic Constant Matrix: (Units=GPa)
#
#
# Indices 1 2 3 4 5 6 
#
# 1 71.5977 21.0589 9.7867 0.0000 -2.4976 0.0000
# 2 21.0589 101.2480 17.4457 0.0000 2.5379 0.0000
# 3 9.7867 17.4457 38.3107 0.0000 -1.8937 0.0000
# 4 0.0000 0.0000 0.0000 37.7612 0.0000 -22.8331
# 5 -2.4976 2.5379 -1.8937 0.0000 20.8964 0.0000
# 6 0.0000 0.0000 0.0000 -22.8331 0.0000 30.7898
#
#
#
# Elastic Compliance Matrix: (Units=1/GPa)
#
#
# Indices 1 2 3 4 5 6 
#
# 1 0.015195 -0.002774 -0.002523 0.000000 0.001924 0.000000
# 2 -0.002774 0.011288 -0.004536 0.000000 -0.002114 0.000000
# 3 -0.002523 -0.004536 0.028955 0.000000 0.002873 0.000000
# 4 0.000000 0.000000 0.000000 0.048011 0.000000 0.035604
# 5 0.001924 -0.002114 0.002873 0.000000 0.048602 0.000000
# 6 0.000000 0.000000 0.000000 0.035604 0.000000 0.058882
#
#
# Mechanical properties :
#
#
# Convention : Reuss Voigt Hill
#
# Bulk Modulus (GPa) = 27.95570 34.19323 31.07446
# Shear Modulus (GPa) = 20.61658 28.74714 24.68186
#
# Velocity S-wave (km/s) = 3.14444 3.71306 3.44052
# Velocity P-wave (km/s) = 5.15660 5.89755 5.53948
#
# Compressibility (1/GPa) = 0.03577088
#
# Stress axis : x y z
#
# Youngs Moduli (GPa) = 65.81179 88.58728 34.53664
#
# Poissons Ratio (x) = 0.24573 0.08715
# Poissons Ratio (y) = 0.18255 0.15667
# Poissons Ratio (z) = 0.16607 0.40186
#
# Static dielectric constant tensor:
#      x y z
#    x 1.726990 0.000000 0.010710 
#    y 0.000000 1.756210 0.000000 
#    z 0.010710 0.000000 1.753000 
# 
# From -- ./inp_files/219723.got.cif
#   From: 2010.05.17/outbox.cif.g08.bks.cpg/sg15_110_cif.got.tgz:219723.got - 2010.06.03 18:47:42.
