data_PCOD9303470
_publ_section_title
;
Structure prediction by ZEFSAII (Michael W. Deem and Ramdas Pophale) SiO2 
 PCOD9303470
Probable space group: C 2/C
;
_chemical_formula_sum "Si O2"
_cell_formula_units_Z 60
_cell_length_a 25.292854
_cell_length_b 8.299709
_cell_length_c 23.278093
_cell_angle_alpha 90.000000
_cell_angle_beta 34.367988
_cell_angle_gamma 90.000000
_cell_volume 2758.522918
_symmetry_space_group_name_H-M "C 2/C"
_symmetry_group_IT_number 15
_symmetry_cell_setting 'monoclinic'
loop_
_space_group_symop_operation_xyz
x,y,z
-x,y,1/2-z
-x,-y,-z
x,-y,1/2+z
1/2+x,1/2+y,z
1/2-x,1/2+y,1/2-z
1/2-x,1/2-y,-z
1/2+x,1/2-y,1/2+z
loop_
_atom_site_type_symbol
_atom_site_label
_atom_site_fract_x
_atom_site_fract_y
_atom_site_fract_z
Si Si1 0.112417 0.019573 0.720706
Si Si2 0.386293 0.107805 0.254496
Si Si3 0.942968 0.903265 0.949537
Si Si4 0.351019 0.321805 0.923880
Si Si5 0.234981 0.401445 0.832706
Si Si6 0.500000 0.073634 0.750000
Si Si7 0.708795 0.476471 0.342539
Si Si8 0.470235 0.039653 0.962272
O O1 0.129556 0.207934 0.713800
O O2 0.118943 0.956845 0.649613
O O3 0.189391 0.918033 0.685805
O O4 0.017756 0.982787 0.840357
O O5 0.428366 0.021761 0.273429
O O6 0.291643 0.044824 0.308694
O O7 0.468084 0.070231 0.134852
O O8 0.854622 0.877489 0.986041
O O9 0.982072 0.730655 0.936461
O O10 0.897086 0.011528 0.040616
O O11 0.431881 0.186535 0.848194
O O12 0.250000 0.250000 0.000000
O O13 0.272561 0.471658 0.739292
O O14 0.212675 0.216641 0.840240
O O15 0.141066 0.487793 0.939148
O O16 0.500000 0.000000 0.000000
#
# Coordination Sequence:
#
# PCOD9303470 Si02
#       8
#     8   8   8   8   8   4   8   8
#     4  12  27  43  70 104 144 178 235 290 351 418
#     4  12  26  45  67 107 142 184 230 296 350 422
#     4  11  24  45  70 100 138 187 229 290 354 418
#     4  12  23  47  75 101 134 187 238 284 346 427
#     4  11  24  41  72  99 138 187 232 291 350 418
#     4  12  24  44  76  94 142 182 230 284 348 408
#     4  11  24  46  68 101 139 181 237 287 354 423
#     4  11  22  44  73 101 141 184 237 286 353 423
#
# _framework density 21.750769999999999
#
# number of rings (size 3 to 8) (size 9 to 14) (size 15 to 20)
#    0.000    0.533    4.000    4.800    3.733    2.667 
#    0.000    1.333    0.000    0.000    0.000    0.000 
#    0.000    0.000    0.000    0.000    0.000    0.000 
#
# Total GULP energy -167717.995845 kJ/mol
# GULP energy per Si atom -5590.599861 kJ/mol
# Density = 2.170126 g / cm^3
# Si number density = 21.750770 Si / 1000 Ang^3
#
#
#
# Elastic Constant Matrix: (Units=GPa)
#
#
# Indices 1 2 3 4 5 6 
#
# 1 47.1596 -13.0878 -12.2699 0.0016 12.3876 -0.0015
# 2 -13.0878 48.1053 14.2148 0.0039 18.4131 -0.0037
# 3 -12.2699 14.2148 110.1333 0.0020 9.7206 -0.0020
# 4 0.0016 0.0039 0.0020 26.7783 -0.0012 3.0889
# 5 12.3876 18.4131 9.7206 -0.0012 41.8435 0.0010
# 6 -0.0015 -0.0037 -0.0020 3.0889 0.0010 26.4344
#
#
#
# Elastic Compliance Matrix: (Units=1/GPa)
#
#
# Indices 1 2 3 4 5 6 
#
# 1 0.029545 0.012959 0.002955 -0.000005 -0.015136 0.000005
# 2 0.012959 0.031267 -0.001061 -0.000007 -0.017349 0.000006
# 3 0.002955 -0.001061 0.009783 -0.000001 -0.002681 0.000001
# 4 -0.000005 -0.000007 -0.000001 0.037854 0.000006 -0.004423
# 5 -0.015136 -0.017349 -0.002681 0.000006 0.036637 -0.000006
# 6 0.000005 0.000006 0.000001 -0.004423 -0.000006 0.038346
#
#
# Mechanical properties :
#
#
# Convention : Reuss Voigt Hill
#
# Bulk Modulus (GPa) = 9.96998 20.34581 15.15789
# Shear Modulus (GPa) = 26.71509 33.44732 30.08121
#
# Velocity S-wave (km/s) = 3.50842 3.92567 3.72290
# Velocity P-wave (km/s) = 4.58320 5.47012 5.04619
#
# Compressibility (1/GPa) = 0.10030113
#
# Stress axis : x y z
#
# Youngs Moduli (GPa) = 33.84620 31.98224 102.22209
#
# Poissons Ratio (x) = -0.41444 -0.30207
# Poissons Ratio (y) = -0.43860 0.10842
# Poissons Ratio (z) = -0.10002 0.03392
#
# Static dielectric constant tensor:
#      x y z
#    x 1.810270 0.000000 0.018290 
#    y 0.000000 1.785790 0.000000 
#    z 0.018290 0.000000 1.910270 
# 
# From -- ./inp_files/255152.got.cif
#   From: 2010.05.17/outbox.cif.g08.bks.cpg/sg15_128_cif.got.tgz:255152.got - 2010.06.03 18:47:42.
