data_PCOD9303860
_publ_section_title
;
Structure prediction by ZEFSAII (Michael W. Deem and Ramdas Pophale) SiO2 
 PCOD9303860
Probable space group: C 2/C
;
_chemical_formula_sum "Si O2"
_cell_formula_units_Z 60
_cell_length_a 17.880065
_cell_length_b 10.739261
_cell_length_c 24.362495
_cell_angle_alpha 90.000000
_cell_angle_beta 42.784056
_cell_angle_gamma 90.000000
_cell_volume 3177.507996
_symmetry_space_group_name_H-M "C 2/C"
_symmetry_group_IT_number 15
_symmetry_cell_setting 'monoclinic'
loop_
_space_group_symop_operation_xyz
x,y,z
-x,y,1/2-z
-x,-y,-z
x,-y,1/2+z
1/2+x,1/2+y,z
1/2-x,1/2+y,1/2-z
1/2-x,1/2-y,-z
1/2+x,1/2-y,1/2+z
loop_
_atom_site_type_symbol
_atom_site_label
_atom_site_fract_x
_atom_site_fract_y
_atom_site_fract_z
Si Si1 0.548566 0.048470 0.782526
Si Si2 0.500000 0.500000 0.000000
Si Si3 0.918973 0.331758 0.906229
Si Si4 0.583369 0.617909 0.843014
Si Si5 0.269397 0.382089 0.656985
Si Si6 0.268570 0.668237 0.906229
Si Si7 0.113618 0.951527 0.717475
Si Si8 0.807386 0.250003 0.249998
O O1 0.500000 0.088805 0.750000
O O2 0.585626 0.162692 0.801018
O O3 0.458785 0.960438 0.859136
O O4 0.658572 0.964160 0.714288
O O5 0.516036 0.552495 0.927888
O O6 0.628188 0.447504 0.927890
O O7 0.848981 0.249993 0.901021
O O8 0.024858 0.248918 0.862269
O O9 0.843452 0.350793 0.999999
O O10 0.587146 0.535839 0.785713
O O11 0.704263 0.657296 0.799260
O O12 0.249392 0.251083 0.637731
O O13 0.302787 0.342697 0.700735
O O14 0.322938 0.539555 0.859137
O O15 0.000000 0.911194 0.750000
O O16 0.187658 0.837303 0.698987
#
# Coordination Sequence:
#
# PCOD9303860 Si02
#       8
#     8   4   8   8   8   8   8   8
#     4  12  24  43  66  95 130 176 217 273 331 396
#     4  12  24  44  62 104 134 180 218 280 346 396
#     4  11  23  40  66  98 127 165 224 275 326 390
#     4  12  23  40  69  92 130 176 221 268 328 401
#     4  12  23  40  69  92 130 176 221 268 328 401
#     4  11  23  40  66  98 127 165 224 275 326 390
#     4  12  24  43  66  95 130 176 217 273 331 396
#     4  12  25  42  63  96 132 174 216 266 331 402
#
# _framework density 18.882722000000001
#
# number of rings (size 3 to 8) (size 9 to 14) (size 15 to 20)
#    0.000    0.267    9.333    0.400    0.000    0.000 
#    2.400    1.333    0.000    3.200    0.000    0.000 
#    0.000    0.000    0.000    0.000    0.000    0.000 
#
# Total GULP energy -167024.129652 kJ/mol
# GULP energy per Si atom -5567.470988 kJ/mol
# Density = 1.883974 g / cm^3
# Si number density = 18.882722 Si / 1000 Ang^3
#
#
#
# Elastic Constant Matrix: (Units=GPa)
#
#
# Indices 1 2 3 4 5 6 
#
# 1 106.9405 20.6833 19.8205 0.0000 -2.8301 0.0000
# 2 20.6833 36.8196 10.6877 0.0000 -0.7918 0.0000
# 3 19.8205 10.6877 73.9459 0.0000 0.2168 0.0000
# 4 0.0000 0.0000 0.0000 9.9430 0.0000 -2.5662
# 5 -2.8301 -0.7918 0.2168 0.0000 25.9508 0.0000
# 6 0.0000 0.0000 0.0000 -2.5662 0.0000 42.2913
#
#
#
# Elastic Compliance Matrix: (Units=1/GPa)
#
#
# Indices 1 2 3 4 5 6 
#
# 1 0.010824 -0.005443 -0.002117 0.000000 0.001032 0.000000
# 2 -0.005443 0.031107 -0.003038 0.000000 0.000381 0.000000
# 3 -0.002117 -0.003038 0.014531 0.000000 -0.000445 0.000000
# 4 0.000000 0.000000 0.000000 0.102174 0.000000 0.006200
# 5 0.001032 0.000381 -0.000445 0.000000 0.038662 0.000000
# 6 0.000000 0.000000 0.000000 0.006200 0.000000 0.024022
#
#
# Mechanical properties :
#
#
# Convention : Reuss Voigt Hill
#
# Bulk Modulus (GPa) = 28.35715 35.56543 31.96129
# Shear Modulus (GPa) = 19.66394 26.73798 23.20096
#
# Velocity S-wave (km/s) = 3.23053 3.76706 3.50907
# Velocity P-wave (km/s) = 5.38193 6.14791 5.77763
#
# Compressibility (1/GPa) = 0.03526448
#
# Stress axis : x y z
#
# Youngs Moduli (GPa) = 92.39129 32.14683 68.81653
#
# Poissons Ratio (x) = 0.17498 0.14571
# Poissons Ratio (y) = 0.50291 0.20908
# Poissons Ratio (z) = 0.19563 0.09767
#
# Static dielectric constant tensor:
#      x y z
#    x 1.695710 0.000000 -0.006600 
#    y 0.000000 1.679860 0.000000 
#    z -0.006600 0.000000 1.612630 
# 
# From -- ./inp_files/298767.got.cif
#   From: 2010.05.17/outbox.cif.g08.bks.cpg/sg15_150_cif.got.tgz:298767.got - 2010.06.03 18:47:42.
