data_PCOD9303078
_publ_section_title
;
Structure prediction by ZEFSAII (Michael W. Deem and Ramdas Pophale) SiO2 
 PCOD9303078
Probable space group: C 2/C
;
_chemical_formula_sum "Si O2"
_cell_formula_units_Z 52
_cell_length_a 5.207014
_cell_length_b 17.909129
_cell_length_c 25.313458
_cell_angle_alpha 90.000000
_cell_angle_beta 115.683235
_cell_angle_gamma 90.000000
_cell_volume 2127.344068
_symmetry_space_group_name_H-M "C 2/C"
_symmetry_group_IT_number 15
_symmetry_cell_setting 'monoclinic'
loop_
_space_group_symop_operation_xyz
x,y,z
-x,y,1/2-z
-x,-y,-z
x,-y,1/2+z
1/2+x,1/2+y,z
1/2-x,1/2+y,1/2-z
1/2-x,1/2-y,-z
1/2+x,1/2-y,1/2+z
loop_
_atom_site_type_symbol
_atom_site_label
_atom_site_fract_x
_atom_site_fract_y
_atom_site_fract_z
Si Si1 0.327434 0.401038 0.922903
Si Si2 0.580392 0.176234 0.028497
Si Si3 0.661996 0.058952 0.869742
Si Si4 0.724885 0.313496 0.314006
Si Si5 0.000000 0.472585 0.750000
Si Si6 0.212412 0.835783 0.699170
Si Si7 0.450846 0.696351 0.589707
O O1 0.107005 0.367346 0.944659
O O2 0.290767 0.368164 0.860139
O O3 0.647615 0.372666 0.963957
O O4 0.755498 0.511908 0.087172
O O5 0.631961 0.253023 0.065151
O O6 0.367443 0.196029 0.962436
O O7 0.398539 0.115928 0.852286
O O8 0.590584 0.022964 0.806634
O O9 0.928480 0.113463 0.897407
O O10 0.500000 0.341545 0.250000
O O11 0.938189 0.245637 0.313416
O O12 0.569425 0.278979 0.351454
O O13 0.733964 0.413974 0.733984
O O14 0.500000 0.802977 0.750000
#
# Coordination Sequence:
#
# PCOD9303078 Si02
#       7
#     8   8   8   8   4   8   8
#     4  11  24  47  71 105 144 191 239 297 361 432
#     4  11  27  47  74 103 147 196 249 293 356 441
#     4  11  24  41  69 101 152 183 243 302 375 430
#     4  11  22  41  72 105 141 186 239 307 363 436
#     4   8  18  40  64  98 136 192 228 300 362 446
#     4   8  17  39  69  96 140 181 243 282 363 427
#     4  11  26  43  72 105 141 196 244 305 359 432
#
# _framework density 24.443625000000001
#
# number of rings (size 3 to 8) (size 9 to 14) (size 15 to 20)
#    0.462    1.231    1.538    1.846    4.308    2.462 
#    0.000    0.769    0.000    0.000    0.000    0.000 
#    0.000    0.000    0.000    0.000    0.000    0.000 
#
# Total GULP energy -144740.167073 kJ/mol
# GULP energy per Si atom -5566.929503 kJ/mol
# Density = 2.438799 g / cm^3
# Si number density = 24.443625 Si / 1000 Ang^3
#
#
#
# Elastic Constant Matrix: (Units=GPa)
#
#
# Indices 1 2 3 4 5 6 
#
# 1 87.1606 56.1604 25.2222 0.0000 7.7127 0.0000
# 2 56.1604 168.4329 21.3680 0.0000 -0.8694 0.0000
# 3 25.2222 21.3680 121.8640 0.0000 8.7408 0.0000
# 4 0.0000 0.0000 0.0000 41.6526 0.0000 24.0368
# 5 7.7127 -0.8694 8.7408 0.0000 15.5057 0.0000
# 6 0.0000 0.0000 0.0000 24.0368 0.0000 86.9802
#
#
#
# Elastic Compliance Matrix: (Units=1/GPa)
#
#
# Indices 1 2 3 4 5 6 
#
# 1 0.015949 -0.005115 -0.001891 0.000000 -0.007154 0.000000
# 2 -0.005115 0.007727 -0.000531 0.000000 0.003277 0.000000
# 3 -0.001891 -0.000531 0.008989 0.000000 -0.004156 0.000000
# 4 0.000000 0.000000 0.000000 0.028563 0.000000 -0.007893
# 5 -0.007154 0.003277 -0.004156 0.000000 0.070578 0.000000
# 6 0.000000 0.000000 0.000000 -0.007893 0.000000 0.013678
#
#
# Mechanical properties :
#
#
# Convention : Reuss Voigt Hill
#
# Bulk Modulus (GPa) = 56.85015 64.77320 60.81167
# Shear Modulus (GPa) = 30.04429 47.14149 38.59289
#
# Velocity S-wave (km/s) = 3.50969 4.39632 3.97779
# Velocity P-wave (km/s) = 6.30334 7.23372 6.78450
#
# Compressibility (1/GPa) = 0.01759010
#
# Stress axis : x y z
#
# Youngs Moduli (GPa) = 62.69978 129.41886 111.25325
#
# Poissons Ratio (x) = 0.66196 0.21038
# Poissons Ratio (y) = 0.32070 0.05910
# Poissons Ratio (z) = 0.11856 0.06876
#
# Static dielectric constant tensor:
#      x y z
#    x 2.083050 0.000000 -0.006620 
#    y 0.000000 2.102340 0.000000 
#    z -0.006620 0.000000 1.800720 
# 
# From -- ./inp_files/261443.got.cif
#   From: 2010.05.17/outbox.cif.g08.bks.cpg/sg15_131_cif.got.tgz:261443.got - 2010.06.03 18:47:42.
