data_PCOD9303550
_publ_section_title
;
Structure prediction by ZEFSAII (Michael W. Deem and Ramdas Pophale) SiO2 
 PCOD9303550
Probable space group: C 2/C
;
_chemical_formula_sum "Si O2"
_cell_formula_units_Z 44
_cell_length_a 15.854738
_cell_length_b 14.302208
_cell_length_c 8.260198
_cell_angle_alpha 90.000000
_cell_angle_beta 72.271919
_cell_angle_gamma 90.000000
_cell_volume 1784.116609
_symmetry_space_group_name_H-M "C 2/C"
_symmetry_group_IT_number 15
_symmetry_cell_setting 'monoclinic'
loop_
_space_group_symop_operation_xyz
x,y,z
-x,y,1/2-z
-x,-y,-z
x,-y,1/2+z
1/2+x,1/2+y,z
1/2-x,1/2+y,1/2-z
1/2-x,1/2-y,-z
1/2+x,1/2-y,1/2+z
loop_
_atom_site_type_symbol
_atom_site_label
_atom_site_fract_x
_atom_site_fract_y
_atom_site_fract_z
Si Si1 0.000000 0.750734 0.250000
Si Si2 0.404523 0.415721 0.819825
Si Si3 0.812780 0.614992 0.569665
Si Si4 0.565432 0.208548 0.561750
Si Si5 0.790335 0.437304 0.443331
Si Si6 0.852051 0.178862 0.027847
O O1 0.027856 0.697287 0.399755
O O2 0.083189 0.815319 0.160904
O O3 0.500000 0.466534 0.750000
O O4 0.420253 0.319535 0.913209
O O5 0.309968 0.454045 0.935103
O O6 0.385964 0.386370 0.647146
O O7 0.852818 0.524842 0.457111
O O8 0.853663 0.714729 0.591546
O O9 0.742648 0.648619 0.477204
O O10 0.781541 0.574592 0.757772
O O11 0.500000 0.177413 0.750000
O O12 0.658696 0.153695 0.518721
#
# Coordination Sequence:
#
# PCOD9303550 Si02
#       6
#     4   8   8   8   8   8
#     4  12  22  40  74 102 134 182 232 286 348 398
#     4  11  22  45  71 101 137 178 236 286 341 412
#     4  11  26  43  68 102 138 182 237 277 355 414
#     4  11  23  44  71 105 140 181 233 282 344 423
#     4  12  25  46  69 102 142 184 223 299 345 406
#     4  11  24  44  70 101 135 185 234 283 342 427
#
# _framework density 24.662064000000001
#
# number of rings (size 3 to 8) (size 9 to 14) (size 15 to 20)
#    0.000    0.727    5.455    2.727    7.636    0.000 
#    3.273    3.636    2.000    0.000    0.000    0.000 
#    0.000    0.000    0.000    0.000    0.000    0.000 
#
# Total GULP energy -122771.250787 kJ/mol
# GULP energy per Si atom -5580.511399 kJ/mol
# Density = 2.460593 g / cm^3
# Si number density = 24.662064 Si / 1000 Ang^3
#
#
#
# Elastic Constant Matrix: (Units=GPa)
#
#
# Indices 1 2 3 4 5 6 
#
# 1 72.7167 -2.5178 21.8811 0.0000 26.2625 0.0000
# 2 -2.5178 69.7245 10.6942 0.0000 -3.2154 0.0000
# 3 21.8811 10.6942 117.6975 0.0000 25.5688 0.0000
# 4 0.0000 0.0000 0.0000 32.6851 0.0000 -7.6050
# 5 26.2625 -3.2154 25.5688 0.0000 47.0255 0.0000
# 6 0.0000 0.0000 0.0000 -7.6050 0.0000 17.2850
#
#
#
# Elastic Compliance Matrix: (Units=1/GPa)
#
#
# Indices 1 2 3 4 5 6 
#
# 1 0.017405 0.000418 -0.001325 0.000000 -0.008971 0.000000
# 2 0.000418 0.014713 -0.001794 0.000000 0.001748 0.000000
# 3 -0.001325 -0.001794 0.009946 0.000000 -0.004791 0.000000
# 4 0.000000 0.000000 0.000000 0.034084 0.000000 0.014996
# 5 -0.008971 0.001748 -0.004791 0.000000 0.029000 0.000000
# 6 0.000000 0.000000 0.000000 0.014996 0.000000 0.064452
#
#
# Mechanical properties :
#
#
# Convention : Reuss Voigt Hill
#
# Bulk Modulus (GPa) = 27.27584 35.58375 31.42980
# Shear Modulus (GPa) = 26.70601 34.73786 30.72194
#
# Velocity S-wave (km/s) = 3.29428 3.75714 3.53330
# Velocity P-wave (km/s) = 5.05505 5.76900 5.42379
#
# Compressibility (1/GPa) = 0.03666248
#
# Stress axis : x y z
#
# Youngs Moduli (GPa) = 57.45385 67.96675 100.53810
#
# Poissons Ratio (x) = -0.02841 0.13319
# Poissons Ratio (y) = -0.02401 0.18040
# Poissons Ratio (z) = 0.07612 0.12196
#
# Static dielectric constant tensor:
#      x y z
#    x 2.031050 0.000000 -0.049410 
#    y 0.000000 1.976630 0.000000 
#    z -0.049410 0.000000 1.938080 
# 
# From -- ./inp_files/47018.got.cif
#   From: 2010.05.17/outbox.cif.g08.bks.cpg/sg15_24_cif.got.tgz:47018.got - 2010.06.03 18:47:42.
