data_PCOD9303897
_publ_section_title
;
Structure prediction by ZEFSAII (Michael W. Deem and Ramdas Pophale) SiO2 
 PCOD9303897
Probable space group: C 2/C
;
_chemical_formula_sum "Si O2"
_cell_formula_units_Z 56
_cell_length_a 11.220209
_cell_length_b 9.446886
_cell_length_c 25.735507
_cell_angle_alpha 90.000000
_cell_angle_beta 67.534541
_cell_angle_gamma 90.000000
_cell_volume 2520.844466
_symmetry_space_group_name_H-M "C 2/C"
_symmetry_group_IT_number 15
_symmetry_cell_setting 'monoclinic'
loop_
_space_group_symop_operation_xyz
x,y,z
-x,y,1/2-z
-x,-y,-z
x,-y,1/2+z
1/2+x,1/2+y,z
1/2-x,1/2+y,1/2-z
1/2-x,1/2-y,-z
1/2+x,1/2-y,1/2+z
loop_
_atom_site_type_symbol
_atom_site_label
_atom_site_fract_x
_atom_site_fract_y
_atom_site_fract_z
Si Si1 0.199817 0.495725 0.150183
Si Si2 0.303084 0.388392 0.236076
Si Si3 0.500000 0.580215 0.250000
Si Si4 0.911397 0.389089 0.065232
Si Si5 0.799719 0.405716 0.513616
Si Si6 0.538427 0.197747 0.829755
Si Si7 0.370344 0.407387 0.525029
Si Si8 0.500000 0.821362 0.750000
O O1 0.297374 0.440108 0.178039
O O2 0.283108 0.552872 0.089171
O O3 0.097891 0.381096 0.146771
O O4 0.102267 0.600473 0.196199
O O5 0.367224 0.494516 0.266836
O O6 0.153715 0.362920 0.274579
O O7 0.402597 0.260360 0.227381
O O8 0.497793 0.661976 0.195831
O O9 0.899596 0.314639 0.123563
O O10 0.892358 0.260439 0.026915
O O11 0.061620 0.426396 0.035596
O O12 0.831813 0.534197 0.066894
O O13 0.750000 0.250000 0.500000
O O14 0.704872 0.528021 0.510726
O O15 0.500000 0.500000 0.500000
#
# Coordination Sequence:
#
# PCOD9303897 Si02
#       8
#     8   8   4   8   8   8   8   4
#     4  12  24  44  71 100 142 184 232 291 352 420
#     4  11  23  42  66 104 133 180 228 280 354 428
#     4  11  23  40  70  94 143 179 220 286 346 435
#     4  11  25  45  73 101 141 188 236 300 357 424
#     4  11  24  48  71 100 137 183 240 295 358 418
#     4  12  23  43  71 102 141 183 226 293 356 423
#     4  12  25  48  74 103 144 192 240 299 356 429
#     4  11  23  44  68  98 139 177 230 286 354 429
#
# _framework density 22.214777999999999
#
# number of rings (size 3 to 8) (size 9 to 14) (size 15 to 20)
#    0.000    0.571    5.714    3.000    0.000    1.143 
#   12.857    0.000    0.000    0.000    0.000    0.000 
#    0.000    0.000    0.000    0.000    0.000    0.000 
#
# Total GULP energy -155886.087008 kJ/mol
# GULP energy per Si atom -5567.360250 kJ/mol
# Density = 2.216422 g / cm^3
# Si number density = 22.214778 Si / 1000 Ang^3
#
#
#
# Elastic Constant Matrix: (Units=GPa)
#
#
# Indices 1 2 3 4 5 6 
#
# 1 117.7402 35.2060 12.8853 0.0000 2.9179 0.0000
# 2 35.2060 75.2296 -1.6488 0.0000 8.0148 0.0000
# 3 12.8853 -1.6488 45.0513 0.0000 1.2432 0.0000
# 4 0.0000 0.0000 0.0000 15.9929 0.0000 1.0439
# 5 2.9179 8.0148 1.2432 0.0000 45.6942 0.0000
# 6 0.0000 0.0000 0.0000 1.0439 0.0000 54.3881
#
#
#
# Elastic Compliance Matrix: (Units=1/GPa)
#
#
# Indices 1 2 3 4 5 6 
#
# 1 0.010300 -0.004920 -0.003134 0.000000 0.000290 0.000000
# 2 -0.004920 0.015910 0.002059 0.000000 -0.002532 0.000000
# 3 -0.003134 0.002059 0.023191 0.000000 -0.000792 0.000000
# 4 0.000000 0.000000 0.000000 0.062606 0.000000 -0.001202
# 5 0.000290 -0.002532 -0.000792 0.000000 0.022332 0.000000
# 6 0.000000 0.000000 0.000000 -0.001202 0.000000 0.018409
#
#
# Mechanical properties :
#
#
# Convention : Reuss Voigt Hill
#
# Bulk Modulus (GPa) = 26.72982 36.76733 31.74858
# Shear Modulus (GPa) = 28.21542 35.98693 32.10118
#
# Velocity S-wave (km/s) = 3.56774 4.02923 3.80549
# Velocity P-wave (km/s) = 5.38797 6.18329 5.79928
#
# Compressibility (1/GPa) = 0.03741139
#
# Stress axis : x y z
#
# Youngs Moduli (GPa) = 97.08553 62.85348 43.12106
#
# Poissons Ratio (x) = 0.30923 0.13514
# Poissons Ratio (y) = 0.47765 -0.08880
# Poissons Ratio (z) = 0.30427 -0.12944
#
# Static dielectric constant tensor:
#      x y z
#    x 1.823690 0.000000 0.050020 
#    y 0.000000 1.982440 0.000000 
#    z 0.050020 0.000000 1.839040 
# 
# From -- ./inp_files/291561.got.cif
#   From: 2010.05.17/outbox.cif.g08.bks.cpg/sg15_146_cif.got.tgz:291561.got - 2010.06.03 18:47:42.
