data_PCOD9303017
_publ_section_title
;
Structure prediction by ZEFSAII (Michael W. Deem and Ramdas Pophale) SiO2 
 PCOD9303017
Probable space group: C 2/C
;
_chemical_formula_sum "Si O2"
_cell_formula_units_Z 56
_cell_length_a 19.388350
_cell_length_b 26.629359
_cell_length_c 8.825041
_cell_angle_alpha 90.000000
_cell_angle_beta 147.010145
_cell_angle_gamma 90.000000
_cell_volume 2480.896377
_symmetry_space_group_name_H-M "C 2/C"
_symmetry_group_IT_number 15
_symmetry_cell_setting 'monoclinic'
loop_
_space_group_symop_operation_xyz
x,y,z
-x,y,1/2-z
-x,-y,-z
x,-y,1/2+z
1/2+x,1/2+y,z
1/2-x,1/2+y,1/2-z
1/2-x,1/2-y,-z
1/2+x,1/2-y,1/2+z
loop_
_atom_site_type_symbol
_atom_site_label
_atom_site_fract_x
_atom_site_fract_y
_atom_site_fract_z
Si Si1 0.875497 0.215721 0.231817
Si Si2 0.126059 0.441250 0.400928
Si Si3 0.093425 0.984659 0.302891
Si Si4 0.260792 0.652889 0.267187
Si Si5 0.500000 0.787035 0.250000
Si Si6 0.701158 0.393207 0.349237
Si Si7 0.500000 0.358476 0.750000
Si Si8 0.686727 0.046273 0.675210
O O1 0.866865 0.184614 0.372083
O O2 0.986022 0.253030 0.377140
O O3 0.888143 0.174313 0.122113
O O4 0.750000 0.250000 0.000000
O O5 0.237544 0.401922 0.646987
O O6 0.146931 0.496480 0.510434
O O7 0.113425 0.445675 0.196750
O O8 0.000000 0.421861 0.250000
O O9 0.193586 0.946122 0.422722
O O10 0.000000 0.959410 0.250000
O O11 0.169303 0.031708 0.509469
O O12 0.000000 0.000000 0.000000
O O13 0.282579 0.646304 0.486585
O O14 0.127727 0.681392 0.998309
O O15 0.808183 0.404719 0.421117
O O16 0.570574 0.385177 0.018484
#
# Coordination Sequence:
#
# PCOD9303017 Si02
#       8
#     8   8   8   8   4   8   4   8
#     4   9  21  44  73  94 126 166 202 273 349 406
#     4  12  23  40  65  89 131 178 226 269 321 373
#     4  12  22  36  57  83 125 183 219 256 313 362
#     4  11  22  41  68 100 128 166 219 270 325 396
#     4   9  20  46  74  96 130 164 210 268 352 405
#     4  12  25  39  63  97 137 173 226 268 316 381
#     4  11  24  42  62  98 132 168 220 274 328 389
#     4  12  23  42  57  91 138 182 222 271 311 372
#
# _framework density 22.572486000000001
#
# number of rings (size 3 to 8) (size 9 to 14) (size 15 to 20)
#    0.000    0.857    5.000    2.143    2.000    0.000 
#    0.000    7.857    0.000    0.000    0.000    0.000 
#    0.000    0.000    0.000    0.000    0.000    0.000 
#
# Total GULP energy -156258.401907 kJ/mol
# GULP energy per Si atom -5580.657211 kJ/mol
# Density = 2.252111 g / cm^3
# Si number density = 22.572486 Si / 1000 Ang^3
#
#
#
# Elastic Constant Matrix: (Units=GPa)
#
#
# Indices 1 2 3 4 5 6 
#
# 1 182.5978 50.8530 32.1101 0.0000 -20.5855 0.0000
# 2 50.8530 75.7850 23.8802 0.0000 -15.3295 0.0000
# 3 32.1101 23.8802 57.1431 0.0000 -18.8510 0.0000
# 4 0.0000 0.0000 0.0000 1.8921 0.0000 -3.1573
# 5 -20.5855 -15.3295 -18.8510 0.0000 35.0136 0.0000
# 6 0.0000 0.0000 0.0000 -3.1573 0.0000 48.6980
#
#
#
# Elastic Compliance Matrix: (Units=1/GPa)
#
#
# Indices 1 2 3 4 5 6 
#
# 1 0.007039 -0.003840 -0.001872 0.000000 0.001449 0.000000
# 2 -0.003840 0.017750 -0.004184 0.000000 0.003261 0.000000
# 3 -0.001872 -0.004184 0.023509 0.000000 0.009724 0.000000
# 4 0.000000 0.000000 0.000000 0.592643 0.000000 0.038424
# 5 0.001449 0.003261 0.009724 0.000000 0.036075 0.000000
# 6 0.000000 0.000000 0.000000 0.038424 0.000000 0.023026
#
#
# Mechanical properties :
#
#
# Convention : Reuss Voigt Hill
#
# Bulk Modulus (GPa) = 35.08307 58.80139 46.94223
# Shear Modulus (GPa) = 6.85556 31.03289 18.94422
#
# Velocity S-wave (km/s) = 1.74463 3.71187 2.90014
# Velocity P-wave (km/s) = 4.43108 6.66912 5.66179
#
# Compressibility (1/GPa) = 0.02850378
#
# Stress axis : x y z
#
# Youngs Moduli (GPa) = 142.07509 56.33827 42.53768
#
# Poissons Ratio (x) = 0.21633 0.07965
# Poissons Ratio (y) = 0.54555 0.17799
# Poissons Ratio (z) = 0.26603 0.23574
#
# Static dielectric constant tensor:
#      x y z
#    x 1.811580 0.000000 0.004540 
#    y 0.000000 1.881820 0.000000 
#    z 0.004540 0.000000 1.855050 
# 
# From -- ./inp_files/52407.got.cif
#   From: 2010.05.17/outbox.cif.g08.bks.cpg/sg15_27_cif.got.tgz:52407.got - 2010.06.03 18:47:42.
