data_PCOD9303687
_publ_section_title
;
Structure prediction by ZEFSAII (Michael W. Deem and Ramdas Pophale) SiO2 
 PCOD9303687
Probable space group: C 2/C
;
_chemical_formula_sum "Si O2"
_cell_formula_units_Z 40
_cell_length_a 13.647629
_cell_length_b 28.971709
_cell_length_c 5.126037
_cell_angle_alpha 90.000000
_cell_angle_beta 84.939034
_cell_angle_gamma 90.000000
_cell_volume 2018.908365
_symmetry_space_group_name_H-M "C 2/C"
_symmetry_group_IT_number 15
_symmetry_cell_setting 'monoclinic'
loop_
_space_group_symop_operation_xyz
x,y,z
-x,y,1/2-z
-x,-y,-z
x,-y,1/2+z
1/2+x,1/2+y,z
1/2-x,1/2+y,1/2-z
1/2-x,1/2-y,-z
1/2+x,1/2-y,1/2+z
loop_
_atom_site_type_symbol
_atom_site_label
_atom_site_fract_x
_atom_site_fract_y
_atom_site_fract_z
Si Si1 0.107723 0.215292 0.613009
Si Si2 0.108271 0.678757 0.140069
Si Si3 0.234748 0.668774 0.633164
Si Si4 0.880803 0.974178 0.737724
Si Si5 0.617027 0.372076 0.747550
O O1 0.098728 0.268464 0.534542
O O2 0.198182 0.212022 0.792693
O O3 0.133775 0.175529 0.400329
O O4 0.000000 0.203053 0.750000
O O5 0.170265 0.677483 0.392181
O O6 0.000000 0.662622 0.250000
O O7 0.165483 0.654203 0.890370
O O8 0.320815 0.633184 0.531850
O O9 0.855061 0.922420 0.653301
O O10 0.000000 0.975792 0.750000
O O11 0.845731 0.010366 0.530244
O O12 0.500000 0.373420 0.750000
#
# Coordination Sequence:
#
# PCOD9303687 Si02
#       5
#     8   8   8   8   8
#     4  11  23  36  57  83 117 153 193 236 280 334
#     4  11  26  40  56  77 113 155 202 241 285 326
#     4  12  23  39  58  81 111 154 195 239 286 326
#     4   9  20  35  53  77 114 154 182 216 273 340
#     4  11  23  35  59  87 119 150 194 232 277 341
#
# _framework density 19.812687
#
# number of rings (size 3 to 8) (size 9 to 14) (size 15 to 20)
#    0.000    1.200    4.000    1.800    5.600    0.800 
#    0.000    0.000    0.000    0.000    0.000    0.000 
#    0.000   16.000    0.000    0.000    0.000    0.000 
#
# Total GULP energy -111462.826252 kJ/mol
# GULP energy per Si atom -5573.141313 kJ/mol
# Density = 1.976759 g / cm^3
# Si number density = 19.812687 Si / 1000 Ang^3
#
#
#
# Elastic Constant Matrix: (Units=GPa)
#
#
# Indices 1 2 3 4 5 6 
#
# 1 118.7549 -1.1226 52.1637 0.0000 -30.7158 0.0000
# 2 -1.1226 39.0899 22.9697 0.0000 -7.0923 0.0000
# 3 52.1637 22.9697 125.7758 0.0000 -19.2662 0.0000
# 4 0.0000 0.0000 0.0000 19.0314 0.0000 7.8345
# 5 -30.7158 -7.0923 -19.2662 0.0000 32.8067 0.0000
# 6 0.0000 0.0000 0.0000 7.8345 0.0000 -1.4495
#
#
#
# Elastic Compliance Matrix: (Units=1/GPa)
#
#
# Indices 1 2 3 4 5 6 
#
# 1 0.013398 0.005197 -0.004848 0.000000 0.010821 0.000000
# 2 0.005197 0.031029 -0.006647 0.000000 0.007670 0.000000
# 3 -0.004848 -0.006647 0.011274 0.000000 0.000645 0.000000
# 4 0.000000 0.000000 0.000000 0.016293 0.000000 0.088062
# 5 0.010821 0.007670 0.000645 0.000000 0.042649 0.000000
# 6 0.000000 0.000000 0.000000 0.088062 0.000000 -0.213917
#
#
# Mechanical properties :
#
#
# Convention : Reuss Voigt Hill
#
# Bulk Modulus (GPa) = 23.19960 47.96025 35.57993
# Shear Modulus (GPa) = -69.14806 24.05169 -22.54818
#
# Velocity S-wave (km/s) = -5.91411 3.48796 -3.37719
# Velocity P-wave (km/s) = 5.90768 6.36243 1.67032
#
# Compressibility (1/GPa) = 0.04310419
#
# Stress axis : x y z
#
# Youngs Moduli (GPa) = 74.63695 32.22808 88.69907
#
# Poissons Ratio (x) = -0.16749 0.43004
# Poissons Ratio (y) = -0.38788 0.58959
# Poissons Ratio (z) = 0.36186 0.21422
#
# Static dielectric constant tensor:
#      x y z
#    x 1.730970 0.000000 -0.003050 
#    y 0.000000 1.710480 0.000000 
#    z -0.003050 0.000000 1.816720 
# 
# From -- ./inp_files/7299.got.cif
#   From: 2010.05.17/outbox.cif.g08.bks.cpg/sg15_4_cif.got.tgz:7299.got - 2010.06.03 18:47:42.
