data_PCOD9303189
_publ_section_title
;
Structure prediction by ZEFSAII (Michael W. Deem and Ramdas Pophale) SiO2 
 PCOD9303189
Probable space group: C 2/C
;
_chemical_formula_sum "Si O2"
_cell_formula_units_Z 40
_cell_length_a 20.527336
_cell_length_b 10.211668
_cell_length_c 8.709945
_cell_angle_alpha 90.000000
_cell_angle_beta 56.128068
_cell_angle_gamma 90.000000
_cell_volume 1515.905394
_symmetry_space_group_name_H-M "C 2/C"
_symmetry_group_IT_number 15
_symmetry_cell_setting 'monoclinic'
loop_
_space_group_symop_operation_xyz
x,y,z
-x,y,1/2-z
-x,-y,-z
x,-y,1/2+z
1/2+x,1/2+y,z
1/2-x,1/2+y,1/2-z
1/2-x,1/2-y,-z
1/2+x,1/2-y,1/2+z
loop_
_atom_site_type_symbol
_atom_site_label
_atom_site_fract_x
_atom_site_fract_y
_atom_site_fract_z
Si Si1 0.198676 0.368268 0.503362
Si Si2 0.354173 0.186983 0.105418
Si Si3 0.809183 0.107367 0.256926
Si Si4 0.442137 0.949067 0.945715
Si Si5 0.410640 0.438542 0.911544
O O1 0.250000 0.250000 0.500000
O O2 0.152248 0.391472 0.724925
O O3 0.257789 0.479747 0.373298
O O4 0.133861 0.355231 0.453365
O O5 0.263835 0.206657 0.170666
O O6 0.402103 0.084858 0.937903
O O7 0.401237 0.322371 0.049949
O O8 0.868485 0.125605 0.319042
O O9 0.860210 0.059618 0.043503
O O10 0.500000 0.883014 0.750000
O O11 0.500000 0.000000 0.000000
O O12 0.500000 0.468975 0.750000
#
# Coordination Sequence:
#
# PCOD9303189 Si02
#       5
#     8   8   8   8   8
#     4  11  22  42  70 101 135 187 241 288 354 440
#     4  11  23  43  70  99 135 185 242 289 359 441
#     4  11  24  44  69  98 140 188 240 291 362 441
#     4  11  23  43  69 102 143 178 232 305 365 417
#     4  12  25  45  68 102 140 179 239 299 367 427
#
# _framework density 26.386870999999999
#
# number of rings (size 3 to 8) (size 9 to 14) (size 15 to 20)
#    0.000    0.800    6.000    1.800    0.000    0.000 
#    7.200    1.000    0.000    0.000    0.000    0.000 
#    0.000    0.000    0.000    0.000    0.000    0.000 
#
# Total GULP energy -111636.278973 kJ/mol
# GULP energy per Si atom -5581.813949 kJ/mol
# Density = 2.632681 g / cm^3
# Si number density = 26.386871 Si / 1000 Ang^3
#
#
#
# Elastic Constant Matrix: (Units=GPa)
#
#
# Indices 1 2 3 4 5 6 
#
# 1 187.6096 1.2728 45.1335 0.0000 -22.5010 0.0000
# 2 1.2728 68.2901 6.5333 0.0000 -22.2012 0.0000
# 3 45.1335 6.5333 118.7590 0.0000 -30.0779 0.0000
# 4 0.0000 0.0000 0.0000 33.7208 0.0000 -7.8728
# 5 -22.5010 -22.2012 -30.0779 0.0000 61.8157 0.0000
# 6 0.0000 0.0000 0.0000 -7.8728 0.0000 37.6213
#
#
#
# Elastic Compliance Matrix: (Units=1/GPa)
#
#
# Indices 1 2 3 4 5 6 
#
# 1 0.005963 0.000536 -0.001936 0.000000 0.001421 0.000000
# 2 0.000536 0.016676 0.000508 0.000000 0.006431 0.000000
# 3 -0.001936 0.000508 0.010260 0.000000 0.004470 0.000000
# 4 0.000000 0.000000 0.000000 0.031179 0.000000 0.006525
# 5 0.001421 0.006431 0.004470 0.000000 0.021179 0.000000
# 6 0.000000 0.000000 0.000000 0.006525 0.000000 0.027946
#
#
# Mechanical properties :
#
#
# Convention : Reuss Voigt Hill
#
# Bulk Modulus (GPa) = 32.13897 53.39310 42.76603
# Shear Modulus (GPa) = 39.88581 48.07949 43.98265
#
# Velocity S-wave (km/s) = 3.89212 4.27324 4.08712
# Velocity P-wave (km/s) = 5.69249 6.68027 6.20607
#
# Compressibility (1/GPa) = 0.03111488
#
# Stress axis : x y z
#
# Youngs Moduli (GPa) = 167.70974 59.96768 97.46347
#
# Poissons Ratio (x) = -0.03215 0.18865
# Poissons Ratio (y) = -0.08990 -0.04949
# Poissons Ratio (z) = 0.32463 -0.03045
#
# Static dielectric constant tensor:
#      x y z
#    x 2.139290 0.000000 0.138640 
#    y 0.000000 2.121210 0.000000 
#    z 0.138640 0.000000 2.349030 
# 
# From -- ./inp_files/55157.got.cif
#   From: 2010.05.17/outbox.cif.g08.bks.cpg/sg15_28_cif.got.tgz:55157.got - 2010.06.03 18:47:42.
