data_PCOD9303889
_publ_section_title
;
Structure prediction by ZEFSAII (Michael W. Deem and Ramdas Pophale) SiO2 
 PCOD9303889
Probable space group: C 2/C
;
_chemical_formula_sum "Si O2"
_cell_formula_units_Z 32
_cell_length_a 25.174241
_cell_length_b 8.559011
_cell_length_c 19.100230
_cell_angle_alpha 90.000000
_cell_angle_beta 21.213611
_cell_angle_gamma 90.000000
_cell_volume 1489.163527
_symmetry_space_group_name_H-M "C 2/C"
_symmetry_group_IT_number 15
_symmetry_cell_setting 'monoclinic'
loop_
_space_group_symop_operation_xyz
x,y,z
-x,y,1/2-z
-x,-y,-z
x,-y,1/2+z
1/2+x,1/2+y,z
1/2-x,1/2+y,1/2-z
1/2-x,1/2-y,-z
1/2+x,1/2-y,1/2+z
loop_
_atom_site_type_symbol
_atom_site_label
_atom_site_fract_x
_atom_site_fract_y
_atom_site_fract_z
Si Si1 0.333356 0.585068 0.268968
Si Si2 0.555772 0.893733 0.609044
Si Si3 0.884140 0.086184 0.041065
Si Si4 0.884943 0.556581 0.701908
O O1 0.169491 0.531802 0.488149
O O2 0.340147 0.572518 0.176195
O O3 0.388509 0.760257 0.214636
O O4 0.447336 0.468251 0.166033
O O5 0.500000 0.823007 0.750000
O O6 0.632737 0.760430 0.467880
O O7 0.427142 0.961044 0.718892
O O8 0.776110 0.979609 0.129111
O O9 0.000000 0.500000 0.500000
#
# Coordination Sequence:
#
# PCOD9303889 Si02
#       4
#     8   8   8   8
#     4  11  23  42  69 102 133 176 231 278 330 402
#     4  12  27  45  67 101 143 179 221 283 347 396
#     4  11  23  40  70 101 135 176 228 279 332 403
#     4  12  23  41  71 101 132 178 227 279 331 403
#
# _framework density 21.488575000000001
#
# number of rings (size 3 to 8) (size 9 to 14) (size 15 to 20)
#    0.000    0.500    5.000    3.000    3.500    5.000 
#    0.000    2.500    0.000    0.000    0.000    0.000 
#    0.000    0.000    0.000    0.000    0.000    0.000 
#
# Total GULP energy -89465.122605 kJ/mol
# GULP energy per Si atom -5591.570163 kJ/mol
# Density = 2.143967 g / cm^3
# Si number density = 21.488575 Si / 1000 Ang^3
#
#
#
# Elastic Constant Matrix: (Units=GPa)
#
#
# Indices 1 2 3 4 5 6 
#
# 1 90.4835 -4.6027 26.4964 0.0000 -7.5945 0.0000
# 2 -4.6027 77.3116 -8.5577 0.0002 4.6719 0.0001
# 3 26.4964 -8.5577 40.1635 0.0001 -13.0183 0.0001
# 4 0.0000 0.0002 0.0001 16.8187 0.0000 -18.1237
# 5 -7.5945 4.6719 -13.0183 0.0000 18.4634 0.0000
# 6 0.0000 0.0001 0.0001 -18.1237 0.0000 26.6443
#
#
#
# Elastic Compliance Matrix: (Units=1/GPa)
#
#
# Indices 1 2 3 4 5 6 
#
# 1 0.013713 -0.000166 -0.009385 0.000000 -0.000935 0.000000
# 2 -0.000166 0.013294 0.002372 -0.000001 -0.001760 -0.000001
# 3 -0.009385 0.002372 0.039081 -0.000001 0.023095 -0.000001
# 4 0.000000 -0.000001 -0.000001 0.222680 -0.000001 0.151469
# 5 -0.000935 -0.001760 0.023095 -0.000001 0.070506 0.000000
# 6 0.000000 -0.000001 -0.000001 0.151469 0.000000 0.140562
#
#
# Mechanical properties :
#
#
# Convention : Reuss Voigt Hill
#
# Bulk Modulus (GPa) = 19.33169 26.07006 22.70088
# Shear Modulus (GPa) = 9.40846 25.36013 17.38429
#
# Velocity S-wave (km/s) = 2.09472 3.43908 2.84738
# Velocity P-wave (km/s) = 3.85568 5.28471 4.62571
#
# Compressibility (1/GPa) = 0.05172854
#
# Stress axis : x y z
#
# Youngs Moduli (GPa) = 72.92307 75.22395 25.58810
#
# Poissons Ratio (x) = 0.01248 0.24014
# Poissons Ratio (y) = 0.01210 -0.06068
# Poissons Ratio (z) = 0.68438 -0.17840
#
# Static dielectric constant tensor:
#      x y z
#    x 1.727980 0.000000 0.015520 
#    y 0.000000 1.801680 0.000000 
#    z 0.015520 0.000000 1.766420 
# 
# From -- ./inp_files/53467.got.cif
#   From: 2010.05.17/outbox.cif.g08.bks.cpg/sg15_27_cif.got.tgz:53467.got - 2010.06.03 18:47:42.
