data_PCOD9303062
_publ_section_title
;
Structure prediction by ZEFSAII (Michael W. Deem and Ramdas Pophale) SiO2 
 PCOD9303062
Probable space group: C 2/C
;
_chemical_formula_sum "Si O2"
_cell_formula_units_Z 48
_cell_length_a 9.032533
_cell_length_b 27.144770
_cell_length_c 16.365030
_cell_angle_alpha 90.000000
_cell_angle_beta 144.937828
_cell_angle_gamma 90.000000
_cell_volume 2305.027317
_symmetry_space_group_name_H-M "C 2/C"
_symmetry_group_IT_number 15
_symmetry_cell_setting 'monoclinic'
loop_
_space_group_symop_operation_xyz
x,y,z
-x,y,1/2-z
-x,-y,-z
x,-y,1/2+z
1/2+x,1/2+y,z
1/2-x,1/2+y,1/2-z
1/2-x,1/2-y,-z
1/2+x,1/2-y,1/2+z
loop_
_atom_site_type_symbol
_atom_site_label
_atom_site_fract_x
_atom_site_fract_y
_atom_site_fract_z
Si Si1 0.049194 0.693994 0.144805
Si Si2 0.226597 0.461608 0.088578
Si Si3 0.774038 0.960875 0.914790
Si Si4 0.192565 0.648743 0.623582
Si Si5 0.376999 0.651173 0.422442
Si Si6 0.719362 0.206527 0.795362
O O1 0.306919 0.671710 0.301850
O O2 0.090671 0.752163 0.155125
O O3 0.828367 0.675764 0.107274
O O4 0.969370 0.672853 0.021869
O O5 0.500000 0.478483 0.250000
O O6 0.161689 0.409949 0.103306
O O7 0.250500 0.453727 0.001925
O O8 0.000000 0.500000 0.000000
O O9 0.500000 0.975660 0.750000
O O10 0.845017 0.907312 0.910780
O O11 0.000000 0.000000 0.000000
O O12 0.500000 0.657478 0.750000
O O13 0.120965 0.674045 0.675897
O O14 0.641681 0.669906 0.579062
O O15 0.500000 0.232438 0.750000
#
# Coordination Sequence:
#
# PCOD9303062 Si02
#       6
#     8   8   8   8   8   8
#     4  11  22  41  70  94 130 178 231 266 325 410
#     4  11  23  43  66  99 134 175 224 278 338 407
#     4  12  24  44  71 103 134 175 226 284 340 401
#     4  11  22  42  68  93 129 179 231 269 323 415
#     4  11  22  43  69  97 133 178 231 266 327 421
#     4  12  27  42  64 102 139 172 224 290 342 379
#
# _framework density 20.824048999999999
#
# number of rings (size 3 to 8) (size 9 to 14) (size 15 to 20)
#    0.000    0.667    5.000    3.500    2.333    4.667 
#    0.000    0.833    0.000    0.000    0.000    0.000 
#    0.000    0.000    0.000    0.000    0.000    0.000 
#
# Total GULP energy -134178.987183 kJ/mol
# GULP energy per Si atom -5590.791133 kJ/mol
# Density = 2.077665 g / cm^3
# Si number density = 20.824049 Si / 1000 Ang^3
#
#
#
# Elastic Constant Matrix: (Units=GPa)
#
#
# Indices 1 2 3 4 5 6 
#
# 1 47.9835 47.8038 29.3901 0.0000 -5.5402 0.0000
# 2 47.8038 147.2359 61.2731 0.0000 4.7646 0.0000
# 3 29.3901 61.2731 185.2447 0.0000 -29.9488 0.0000
# 4 0.0000 0.0000 0.0000 46.3592 0.0000 6.8957
# 5 -5.5402 4.7646 -29.9488 0.0000 21.0061 0.0000
# 6 0.0000 0.0000 0.0000 6.8957 0.0000 20.5303
#
#
#
# Elastic Compliance Matrix: (Units=1/GPa)
#
#
# Indices 1 2 3 4 5 6 
#
# 1 0.033292 -0.011365 0.000407 0.000000 0.011939 0.000000
# 2 -0.011365 0.012678 -0.004340 0.000000 -0.012061 0.000000
# 3 0.000407 -0.004340 0.009026 0.000000 0.013961 0.000000
# 4 0.000000 0.000000 0.000000 0.022705 0.000000 -0.007626
# 5 0.011939 -0.012061 0.013961 0.000000 0.073395 0.000000
# 6 0.000000 0.000000 0.000000 -0.007626 0.000000 0.051270
#
#
# Mechanical properties :
#
#
# Convention : Reuss Voigt Hill
#
# Bulk Modulus (GPa) = 40.98255 73.04424 57.01340
# Shear Modulus (GPa) = 20.73867 33.71226 27.22547
#
# Velocity S-wave (km/s) = 3.15921 4.02793 3.61973
# Velocity P-wave (km/s) = 5.74723 7.53560 6.70134
#
# Compressibility (1/GPa) = 0.02440063
#
# Stress axis : x y z
#
# Youngs Moduli (GPa) = 30.03753 78.87471 110.78574
#
# Poissons Ratio (x) = 0.89640 -0.04514
# Poissons Ratio (y) = 0.34137 0.48086
# Poissons Ratio (z) = -0.01224 0.34235
#
# Static dielectric constant tensor:
#      x y z
#    x 1.852280 0.000000 0.068800 
#    y 0.000000 1.723490 0.000000 
#    z 0.068800 0.000000 1.785100 
# 
# From -- ./inp_files/139047.got.cif
#   From: 2010.05.17/outbox.cif.g08.bks.cpg/sg15_70_cif.got.tgz:139047.got - 2010.06.03 18:47:42.
