data_PCOD9303552
_publ_section_title
;
Structure prediction by ZEFSAII (Michael W. Deem and Ramdas Pophale) SiO2 
 PCOD9303552
Probable space group: C 2/C
;
_chemical_formula_sum "Si O2"
_cell_formula_units_Z 56
_cell_length_a 11.504957
_cell_length_b 16.320410
_cell_length_c 11.595813
_cell_angle_alpha 90.000000
_cell_angle_beta 87.818603
_cell_angle_gamma 90.000000
_cell_volume 2175.717137
_symmetry_space_group_name_H-M "C 2/C"
_symmetry_group_IT_number 15
_symmetry_cell_setting 'monoclinic'
loop_
_space_group_symop_operation_xyz
x,y,z
-x,y,1/2-z
-x,-y,-z
x,-y,1/2+z
1/2+x,1/2+y,z
1/2-x,1/2+y,1/2-z
1/2-x,1/2-y,-z
1/2+x,1/2-y,1/2+z
loop_
_atom_site_type_symbol
_atom_site_label
_atom_site_fract_x
_atom_site_fract_y
_atom_site_fract_z
Si Si1 0.133695 0.801646 0.032541
Si Si2 0.000000 0.983796 0.750000
Si Si3 0.206159 0.570815 0.042562
Si Si4 0.914311 0.155926 0.423898
Si Si5 0.794842 0.911001 0.149188
Si Si6 0.808619 0.372368 0.700935
Si Si7 0.885464 0.558368 0.678436
Si Si8 0.000000 0.262124 0.750000
O O1 0.029030 0.790214 0.943823
O O2 0.250000 0.750000 0.000000
O O3 0.176197 0.895644 0.019806
O O4 0.083014 0.787476 0.161692
O O5 0.961825 0.925747 0.857839
O O6 0.894605 0.038324 0.709786
O O7 0.104590 0.585316 0.954238
O O8 0.220648 0.477542 0.079067
O O9 0.195711 0.620783 0.160643
O O10 0.856994 0.144262 0.552259
O O11 0.803609 0.172687 0.346348
O O12 0.701919 0.882625 0.247635
O O13 0.826510 0.467811 0.667796
O O14 0.922327 0.320174 0.671860
O O15 0.000000 0.549414 0.750000
#
# Coordination Sequence:
#
# PCOD9303552 Si02
#       8
#     8   4   8   8   8   8   8   4
#     4  12  28  49  71  98 144 198 248 303 358 431
#     4  12  20  37  68 108 137 178 214 296 366 440
#     4  11  22  45  71 105 142 183 241 292 374 418
#     4  12  24  42  74 108 138 182 240 300 363 436
#     4  11  23  38  69 114 144 173 233 301 376 426
#     4  11  23  45  75 105 144 195 241 292 369 450
#     4  11  24  41  70 109 151 188 226 300 368 444
#     4  12  28  49  70 100 143 202 250 296 354 432
#
# _framework density 25.738641999999999
#
# number of rings (size 3 to 8) (size 9 to 14) (size 15 to 20)
#    0.000    0.571    7.857    0.429    4.000    4.000 
#    0.000    1.429    0.000    0.000    0.000    0.000 
#    0.000    0.000    0.000    0.000    0.000    0.000 
#
# Total GULP energy -156664.130888 kJ/mol
# GULP energy per Si atom -5595.147532 kJ/mol
# Density = 2.568006 g / cm^3
# Si number density = 25.738642 Si / 1000 Ang^3
#
#
#
# Elastic Constant Matrix: (Units=GPa)
#
#
# Indices 1 2 3 4 5 6 
#
# 1 148.6703 23.6451 62.4536 0.0000 29.9951 0.0000
# 2 23.6451 44.5888 19.0806 0.0000 -3.0871 0.0000
# 3 62.4536 19.0806 161.8853 0.0000 18.8537 0.0000
# 4 0.0000 0.0000 0.0000 4.7739 0.0000 6.8448
# 5 29.9951 -3.0871 18.8537 0.0000 65.7645 0.0000
# 6 0.0000 0.0000 0.0000 6.8448 0.0000 42.2429
#
#
#
# Elastic Compliance Matrix: (Units=1/GPa)
#
#
# Indices 1 2 3 4 5 6 
#
# 1 0.009211 -0.003997 -0.002660 0.000000 -0.003626 0.000000
# 2 -0.003997 0.025603 -0.001891 0.000000 0.003567 0.000000
# 3 -0.002660 -0.001891 0.007547 0.000000 -0.001039 0.000000
# 4 0.000000 0.000000 0.000000 0.272870 0.000000 -0.044214
# 5 -0.003626 0.003567 -0.001039 0.000000 0.017325 0.000000
# 6 0.000000 0.000000 0.000000 -0.044214 0.000000 0.030837
#
#
# Mechanical properties :
#
#
# Convention : Reuss Voigt Hill
#
# Bulk Modulus (GPa) = 39.58094 62.83366 51.20730
# Shear Modulus (GPa) = 12.85639 39.22060 26.03849
#
# Velocity S-wave (km/s) = 2.23737 3.90783 3.18409
# Velocity P-wave (km/s) = 4.69956 6.69527 5.78414
#
# Compressibility (1/GPa) = 0.02526468
#
# Stress axis : x y z
#
# Youngs Moduli (GPa) = 108.56459 39.05782 132.49665
#
# Poissons Ratio (x) = 0.15613 0.35245
# Poissons Ratio (y) = 0.43397 0.25055
# Poissons Ratio (z) = 0.28879 0.07386
#
# Static dielectric constant tensor:
#      x y z
#    x 2.059970 0.000000 -0.007800 
#    y 0.000000 2.097100 0.000000 
#    z -0.007800 0.000000 2.078470 
# 
# From -- ./inp_files/89078.got.cif
#   From: 2010.05.17/outbox.cif.g08.bks.cpg/sg15_45_cif.got.tgz:89078.got - 2010.06.03 18:47:42.
