data_PCOD9303297
_publ_section_title
;
Structure prediction by ZEFSAII (Michael W. Deem and Ramdas Pophale) SiO2 
 PCOD9303297
Probable space group: C 2/C
;
_chemical_formula_sum "Si O2"
_cell_formula_units_Z 56
_cell_length_a 24.095961
_cell_length_b 6.694312
_cell_length_c 17.827517
_cell_angle_alpha 90.000000
_cell_angle_beta 70.367951
_cell_angle_gamma 90.000000
_cell_volume 2708.518904
_symmetry_space_group_name_H-M "C 2/C"
_symmetry_group_IT_number 15
_symmetry_cell_setting 'monoclinic'
loop_
_space_group_symop_operation_xyz
x,y,z
-x,y,1/2-z
-x,-y,-z
x,-y,1/2+z
1/2+x,1/2+y,z
1/2-x,1/2+y,1/2-z
1/2-x,1/2-y,-z
1/2+x,1/2-y,1/2+z
loop_
_atom_site_type_symbol
_atom_site_label
_atom_site_fract_x
_atom_site_fract_y
_atom_site_fract_z
Si Si1 0.848466 0.505447 0.619659
Si Si2 0.566466 0.733782 0.010484
Si Si3 0.761492 0.101167 0.926196
Si Si4 0.139323 0.781505 0.625937
Si Si5 0.562464 0.581820 0.761331
Si Si6 0.164457 0.609499 0.209897
Si Si7 0.563540 0.357729 0.917407
O O1 0.899239 0.357007 0.568088
O O2 0.799236 0.516998 0.578299
O O3 0.820784 0.438952 0.710907
O O4 0.880305 0.717398 0.616895
O O5 0.598797 0.775147 0.073891
O O6 0.496534 0.768439 0.046741
O O7 0.571326 0.500194 0.985729
O O8 0.791183 0.233651 0.847220
O O9 0.806485 0.922087 0.924233
O O10 0.750000 0.250000 0.000000
O O11 0.161611 0.588214 0.660561
O O12 0.099304 0.915117 0.699282
O O13 0.500000 0.609104 0.750000
O O14 0.600620 0.783454 0.741014
O O15 0.555533 0.498418 0.848532
#
# Coordination Sequence:
#
# PCOD9303297 Si02
#       7
#     8   8   8   8   8   8   8
#     4  12  25  42  69  98 135 177 223 279 331 402
#     4  11  24  42  69  99 133 176 218 274 335 399
#     4  11  27  47  67  98 135 177 228 283 334 397
#     4  11  24  45  70  98 132 178 228 273 338 400
#     4  11  22  43  68  98 140 175 220 278 335 403
#     4  11  26  42  67 101 130 178 229 271 336 400
#     4  11  23  42  67 101 136 172 219 273 339 399
#
# _framework density 20.675508000000001
#
# number of rings (size 3 to 8) (size 9 to 14) (size 15 to 20)
#    0.000    0.857    4.286    2.143    2.000    6.286 
#    0.000    0.000    0.000    0.000    0.000    0.000 
#    0.000    0.000    0.000    0.000    0.000    0.000 
#
# Total GULP energy -156645.982157 kJ/mol
# GULP energy per Si atom -5594.499363 kJ/mol
# Density = 2.062845 g / cm^3
# Si number density = 20.675508 Si / 1000 Ang^3
#
#
#
# Elastic Constant Matrix: (Units=GPa)
#
#
# Indices 1 2 3 4 5 6 
#
# 1 69.1010 4.0031 -7.7469 0.0000 -12.5623 0.0000
# 2 4.0031 50.2139 -5.6630 0.0000 -8.1905 0.0000
# 3 -7.7469 -5.6630 66.0117 0.0000 -2.6704 0.0000
# 4 0.0000 0.0000 0.0000 39.7322 0.0000 -2.2216
# 5 -12.5623 -8.1905 -2.6704 0.0000 32.0571 0.0000
# 6 0.0000 0.0000 0.0000 -2.2216 0.0000 25.9305
#
#
#
# Elastic Compliance Matrix: (Units=1/GPa)
#
#
# Indices 1 2 3 4 5 6 
#
# 1 0.015872 0.000018 0.002123 0.000000 0.006401 0.000000
# 2 0.000018 0.021049 0.002033 0.000000 0.005554 0.000000
# 3 0.002123 0.002033 0.015680 0.000000 0.002658 0.000000
# 4 0.000000 0.000000 0.000000 0.025290 0.000000 0.002167
# 5 0.006401 0.005554 0.002658 0.000000 0.035343 0.000000
# 6 0.000000 0.000000 0.000000 0.002167 0.000000 0.038750
#
#
# Mechanical properties :
#
#
# Convention : Reuss Voigt Hill
#
# Bulk Modulus (GPa) = 16.40719 18.50143 17.45431
# Shear Modulus (GPa) = 30.49670 32.52619 31.51145
#
# Velocity S-wave (km/s) = 3.84476 3.97063 3.90820
# Velocity P-wave (km/s) = 5.25950 5.47623 5.36896
#
# Compressibility (1/GPa) = 0.06094887
#
# Stress axis : x y z
#
# Youngs Moduli (GPa) = 63.00285 47.50918 63.77596
#
# Poissons Ratio (x) = -0.00087 -0.13541
# Poissons Ratio (y) = -0.00115 -0.12963
# Poissons Ratio (z) = -0.13377 -0.09656
#
# Static dielectric constant tensor:
#      x y z
#    x 1.697790 0.000000 -0.015750 
#    y 0.000000 1.724360 0.000000 
#    z -0.015750 0.000000 1.731670 
# 
# From -- ./inp_files/221196.got.cif
#   From: 2010.05.17/outbox.cif.g08.bks.cpg/sg15_111_cif.got.tgz:221196.got - 2010.06.03 18:47:42.
