data_PCOD9303524
_publ_section_title
;
Structure prediction by ZEFSAII (Michael W. Deem and Ramdas Pophale) SiO2 
 PCOD9303524
Probable space group: C 2/C
;
_chemical_formula_sum "Si O2"
_cell_formula_units_Z 40
_cell_length_a 22.432692
_cell_length_b 5.968208
_cell_length_c 12.877928
_cell_angle_alpha 90.000000
_cell_angle_beta 76.163316
_cell_angle_gamma 90.000000
_cell_volume 1674.103208
_symmetry_space_group_name_H-M "C 2/C"
_symmetry_group_IT_number 15
_symmetry_cell_setting 'monoclinic'
loop_
_space_group_symop_operation_xyz
x,y,z
-x,y,1/2-z
-x,-y,-z
x,-y,1/2+z
1/2+x,1/2+y,z
1/2-x,1/2+y,1/2-z
1/2-x,1/2-y,-z
1/2+x,1/2-y,1/2+z
loop_
_atom_site_type_symbol
_atom_site_label
_atom_site_fract_x
_atom_site_fract_y
_atom_site_fract_z
Si Si1 0.620972 0.645832 0.816173
Si Si2 0.493912 0.750139 0.948466
Si Si3 0.209999 0.549534 0.391377
Si Si4 0.670478 0.770021 0.215281
Si Si5 0.365743 0.853877 0.901391
O O1 0.552329 0.737013 0.847715
O O2 0.658334 0.758856 0.893793
O O3 0.628909 0.381545 0.807763
O O4 0.650367 0.710580 0.693004
O O5 0.427169 0.759594 0.925317
O O6 0.500000 0.500000 0.000000
O O7 0.500000 0.000000 0.000000
O O8 0.275946 0.659860 0.375495
O O9 0.208197 0.421321 0.281663
O O10 0.186979 0.389183 0.492021
O O11 0.626656 0.903213 0.155796
#
# Coordination Sequence:
#
# PCOD9303524 Si02
#       5
#     8   8   8   8   8
#     4  11  25  45  71 106 144 198 247 318 376 461
#     4  12  27  50  78 105 148 202 254 315 378 450
#     4  11  22  45  68 105 147 193 247 311 390 450
#     4  11  24  43  73 105 151 192 255 313 384 465
#     4  11  26  44  71 108 143 197 256 311 384 456
#
# _framework density 23.893388000000002
#
# number of rings (size 3 to 8) (size 9 to 14) (size 15 to 20)
#    0.000    0.800    4.000    2.400    5.600    2.400 
#    0.000    0.000    0.000    0.000    0.000    0.000 
#    0.000    0.000    0.000    0.000    0.000    0.000 
#
# Total GULP energy -111624.753929 kJ/mol
# GULP energy per Si atom -5581.237696 kJ/mol
# Density = 2.383901 g / cm^3
# Si number density = 23.893388 Si / 1000 Ang^3
#
#
#
# Elastic Constant Matrix: (Units=GPa)
#
#
# Indices 1 2 3 4 5 6 
#
# 1 96.9274 55.4499 14.6648 0.0000 -3.9930 0.0000
# 2 55.4499 94.1044 31.1782 0.0000 2.8017 0.0000
# 3 14.6648 31.1782 88.5426 0.0000 -4.1190 0.0000
# 4 0.0000 0.0000 0.0000 31.5745 0.0000 2.5367
# 5 -3.9930 2.8017 -4.1190 0.0000 31.5890 0.0000
# 6 0.0000 0.0000 0.0000 2.5367 0.0000 50.3019
#
#
#
# Elastic Compliance Matrix: (Units=1/GPa)
#
#
# Indices 1 2 3 4 5 6 
#
# 1 0.015881 -0.009760 0.000946 0.000000 0.002996 0.000000
# 2 -0.009760 0.018112 -0.004923 0.000000 -0.003482 0.000000
# 3 0.000946 -0.004923 0.012976 0.000000 0.002248 0.000000
# 4 0.000000 0.000000 0.000000 0.031800 0.000000 -0.001604
# 5 0.002996 -0.003482 0.002248 0.000000 0.032637 0.000000
# 6 0.000000 0.000000 0.000000 -0.001604 0.000000 0.019961
#
#
# Mechanical properties :
#
#
# Convention : Reuss Voigt Hill
#
# Bulk Modulus (GPa) = 51.29866 53.57336 52.43601
# Shear Modulus (GPa) = 30.24064 34.57850 32.40957
#
# Velocity S-wave (km/s) = 3.56146 3.80833 3.68696
# Velocity P-wave (km/s) = 6.19906 6.46594 6.33391
#
# Compressibility (1/GPa) = 0.01949369
#
# Stress axis : x y z
#
# Youngs Moduli (GPa) = 62.96846 55.21054 77.06803
#
# Poissons Ratio (x) = 0.53887 -0.07291
# Poissons Ratio (y) = 0.61459 0.37943
# Poissons Ratio (z) = -0.05957 0.27182
#
# Static dielectric constant tensor:
#      x y z
#    x 1.888110 0.000000 -0.069630 
#    y 0.000000 2.192130 0.000000 
#    z -0.069630 0.000000 1.940990 
# 
# From -- ./inp_files/170488.got.cif
#   From: 2010.05.17/outbox.cif.g08.bks.cpg/sg15_86_cif.got.tgz:170488.got - 2010.06.03 18:47:42.
