data_PCOD9303032
_publ_section_title
;
Structure prediction by ZEFSAII (Michael W. Deem and Ramdas Pophale) SiO2 
 PCOD9303032
Probable space group: C 2/C
;
_chemical_formula_sum "Si O2"
_cell_formula_units_Z 40
_cell_length_a 15.570980
_cell_length_b 25.255190
_cell_length_c 8.239815
_cell_angle_alpha 90.000000
_cell_angle_beta 37.275173
_cell_angle_gamma 90.000000
_cell_volume 1962.461834
_symmetry_space_group_name_H-M "C 2/C"
_symmetry_group_IT_number 15
_symmetry_cell_setting 'monoclinic'
loop_
_space_group_symop_operation_xyz
x,y,z
-x,y,1/2-z
-x,-y,-z
x,-y,1/2+z
1/2+x,1/2+y,z
1/2-x,1/2+y,1/2-z
1/2-x,1/2-y,-z
1/2+x,1/2-y,1/2+z
loop_
_atom_site_type_symbol
_atom_site_label
_atom_site_fract_x
_atom_site_fract_y
_atom_site_fract_z
Si Si1 0.838339 0.257985 0.031986
Si Si2 0.342720 0.928432 0.554471
Si Si3 0.182602 0.861037 0.326738
Si Si4 0.662269 0.041383 0.063075
Si Si5 0.130297 0.162038 0.285301
O O1 0.000000 0.249829 0.750000
O O2 0.750000 0.250000 0.000000
O O3 0.807245 0.318904 0.114385
O O4 0.815111 0.217505 0.218325
O O5 0.345721 0.945193 0.736419
O O6 0.228982 0.882050 0.716925
O O7 0.294536 0.980376 0.527584
O O8 0.500000 0.913580 0.250000
O O9 0.150493 0.850472 0.564156
O O10 0.039919 0.845810 0.440548
O O11 0.238619 0.918186 0.186195
O O12 0.500000 0.045568 0.250000
#
# Coordination Sequence:
#
# PCOD9303032 Si02
#       5
#     8   8   8   8   8
#     4  12  24  43  67  95 132 173 223 273 331 392
#     4  11  23  41  67  97 131 171 217 270 327 398
#     4  11  24  44  66  95 132 174 219 275 327 394
#     4  11  22  41  68  96 131 170 219 267 330 395
#     4  11  25  43  64  95 135 171 223 269 331 394
#
# _framework density 20.382560999999999
#
# number of rings (size 3 to 8) (size 9 to 14) (size 15 to 20)
#    0.000    0.800    2.000    7.200    0.000    2.400 
#    3.600    0.000    0.000    0.000    0.000    0.000 
#    0.000    0.000    0.000    0.000    0.000    0.000 
#
# Total GULP energy -111570.313277 kJ/mol
# GULP energy per Si atom -5578.515664 kJ/mol
# Density = 2.033617 g / cm^3
# Si number density = 20.382561 Si / 1000 Ang^3
#
#
#
# Elastic Constant Matrix: (Units=GPa)
#
#
# Indices 1 2 3 4 5 6 
#
# 1 74.4522 -2.8477 10.1117 0.0000 -2.5728 0.0000
# 2 -2.8477 70.9336 9.7961 0.0000 -10.3217 0.0000
# 3 10.1117 9.7961 57.6626 0.0000 6.7430 0.0000
# 4 0.0000 0.0000 0.0000 34.9685 0.0000 0.2216
# 5 -2.5728 -10.3217 6.7430 0.0000 22.4717 0.0000
# 6 0.0000 0.0000 0.0000 0.2216 0.0000 33.2497
#
#
#
# Elastic Compliance Matrix: (Units=1/GPa)
#
#
# Indices 1 2 3 4 5 6 
#
# 1 0.014016 0.001453 -0.003078 0.000000 0.003196 0.000000
# 2 0.001453 0.015972 -0.003985 0.000000 0.008699 0.000000
# 3 -0.003078 -0.003985 0.019499 0.000000 -0.008034 0.000000
# 4 0.000000 0.000000 0.000000 0.028598 0.000000 -0.000191
# 5 0.003196 0.008699 -0.008034 0.000000 0.051272 0.000000
# 6 0.000000 0.000000 0.000000 -0.000191 0.000000 0.030077
#
#
# Mechanical properties :
#
#
# Convention : Reuss Voigt Hill
#
# Bulk Modulus (GPa) = 26.13388 26.35205 26.24296
# Shear Modulus (GPa) = 27.26127 30.53721 28.89924
#
# Velocity S-wave (km/s) = 3.66113 3.87486 3.76951
# Velocity P-wave (km/s) = 5.54268 5.74249 5.64347
#
# Compressibility (1/GPa) = 0.03826451
#
# Stress axis : x y z
#
# Youngs Moduli (GPa) = 71.34953 62.60899 51.28569
#
# Poissons Ratio (x) = -0.09096 0.15787
# Poissons Ratio (y) = -0.10366 0.20439
# Poissons Ratio (z) = 0.21963 0.24952
#
# Static dielectric constant tensor:
#      x y z
#    x 1.655960 0.000000 -0.066660 
#    y 0.000000 1.739570 0.000000 
#    z -0.066660 0.000000 1.641630 
# 
# From -- ./inp_files/41928.got.cif
#   From: 2010.05.17/outbox.cif.g08.bks.cpg/sg15_21_cif.got.tgz:41928.got - 2010.06.03 18:47:42.
