data_PCOD9303551
_publ_section_title
;
Structure prediction by ZEFSAII (Michael W. Deem and Ramdas Pophale) SiO2 
 PCOD9303551
Probable space group: C 2/C
;
_chemical_formula_sum "Si O2"
_cell_formula_units_Z 40
_cell_length_a 7.383682
_cell_length_b 12.485815
_cell_length_c 15.373165
_cell_angle_alpha 90.000000
_cell_angle_beta 73.270053
_cell_angle_gamma 90.000000
_cell_volume 1357.281828
_symmetry_space_group_name_H-M "C 2/C"
_symmetry_group_IT_number 15
_symmetry_cell_setting 'monoclinic'
loop_
_space_group_symop_operation_xyz
x,y,z
-x,y,1/2-z
-x,-y,-z
x,-y,1/2+z
1/2+x,1/2+y,z
1/2-x,1/2+y,1/2-z
1/2-x,1/2-y,-z
1/2+x,1/2-y,1/2+z
loop_
_atom_site_type_symbol
_atom_site_label
_atom_site_fract_x
_atom_site_fract_y
_atom_site_fract_z
Si Si1 0.843885 0.464753 0.846046
Si Si2 0.018094 0.173203 0.464243
Si Si3 0.842330 0.402085 0.578269
Si Si4 0.761892 0.136782 0.890322
Si Si5 0.219856 0.295100 0.209222
O O1 0.657000 0.393184 0.880918
O O2 0.791703 0.586850 0.831759
O O3 0.000000 0.437283 0.750000
O O4 0.943862 0.445157 0.926868
O O5 0.096575 0.153813 0.550003
O O6 0.064783 0.299849 0.442600
O O7 0.807805 0.132678 0.476321
O O8 0.745744 0.511529 0.626215
O O9 0.817887 0.297778 0.641895
O O10 0.805337 0.189925 0.792645
O O11 0.000000 0.262666 0.250000
#
# Coordination Sequence:
#
# PCOD9303551 Si02
#       5
#     8   8   8   8   8
#     4  11  24  44  69 105 140 185 251 295 360 441
#     4  11  26  46  73 105 151 189 232 318 362 432
#     4  12  23  44  76 100 140 194 245 290 374 442
#     4  11  24  46  71 107 149 188 242 300 380 429
#     4  11  22  45  71 102 149 189 241 317 354 427
#
# _framework density 29.470666000000001
#
# number of rings (size 3 to 8) (size 9 to 14) (size 15 to 20)
#    0.000    0.800    6.000    1.800    0.000    2.400 
#    0.000    8.000    0.000    0.000    0.000    0.000 
#    0.000    0.000    0.000    0.000    0.000    0.000 
#
# Total GULP energy -112102.115904 kJ/mol
# GULP energy per Si atom -5605.105795 kJ/mol
# Density = 2.940359 g / cm^3
# Si number density = 29.470666 Si / 1000 Ang^3
#
#
#
# Elastic Constant Matrix: (Units=GPa)
#
#
# Indices 1 2 3 4 5 6 
#
# 1 218.7863 62.7944 63.8746 0.0000 10.2009 0.0000
# 2 62.7944 206.7246 33.9467 0.0000 22.3744 0.0000
# 3 63.8746 33.9467 152.9625 0.0000 41.9935 0.0000
# 4 0.0000 0.0000 0.0000 40.6707 0.0000 19.8310
# 5 10.2009 22.3744 41.9935 0.0000 44.5485 0.0000
# 6 0.0000 0.0000 0.0000 19.8310 0.0000 65.2013
#
#
#
# Elastic Compliance Matrix: (Units=1/GPa)
#
#
# Indices 1 2 3 4 5 6 
#
# 1 0.005656 -0.001502 -0.002536 0.000000 0.001850 0.000000
# 2 -0.001502 0.005553 0.000089 0.000000 -0.002529 0.000000
# 3 -0.002536 0.000089 0.010024 0.000000 -0.008913 0.000000
# 4 0.000000 0.000000 0.000000 0.028869 0.000000 -0.008781
# 5 0.001850 -0.002529 -0.008913 0.000000 0.031696 0.000000
# 6 0.000000 0.000000 0.000000 -0.008781 0.000000 0.018008
#
#
# Mechanical properties :
#
#
# Convention : Reuss Voigt Hill
#
# Bulk Modulus (GPa) = 74.99543 99.96720 87.48132
# Shear Modulus (GPa) = 44.58399 57.94128 51.26263
#
# Velocity S-wave (km/s) = 3.89373 4.43884 4.17519
# Velocity P-wave (km/s) = 6.76147 7.76310 7.27953
#
# Compressibility (1/GPa) = 0.01333415
#
# Stress axis : x y z
#
# Youngs Moduli (GPa) = 176.80465 180.09549 99.76194
#
# Poissons Ratio (x) = 0.27046 0.25304
# Poissons Ratio (y) = 0.26552 -0.00889
# Poissons Ratio (z) = 0.44846 -0.01605
#
# Static dielectric constant tensor:
#      x y z
#    x 2.326230 0.000000 -0.150450 
#    y 0.000000 2.194220 0.000000 
#    z -0.150450 0.000000 2.525500 
# 
# From -- ./inp_files/187907.got.cif
#   From: 2010.05.17/outbox.cif.g08.bks.cpg/sg15_94_cif.got.tgz:187907.got - 2010.06.03 18:47:42.
