data_PCOD9303217
_publ_section_title
;
Structure prediction by ZEFSAII (Michael W. Deem and Ramdas Pophale) SiO2 
 PCOD9303217
Probable space group: C 2/C
;
_chemical_formula_sum "Si O2"
_cell_formula_units_Z 56
_cell_length_a 27.861964
_cell_length_b 6.080290
_cell_length_c 17.860241
_cell_angle_alpha 90.000000
_cell_angle_beta 118.738457
_cell_angle_gamma 90.000000
_cell_volume 2652.989830
_symmetry_space_group_name_H-M "C 2/C"
_symmetry_group_IT_number 15
_symmetry_cell_setting 'monoclinic'
loop_
_space_group_symop_operation_xyz
x,y,z
-x,y,1/2-z
-x,-y,-z
x,-y,1/2+z
1/2+x,1/2+y,z
1/2-x,1/2+y,1/2-z
1/2-x,1/2-y,-z
1/2+x,1/2-y,1/2+z
loop_
_atom_site_type_symbol
_atom_site_label
_atom_site_fract_x
_atom_site_fract_y
_atom_site_fract_z
Si Si1 0.687624 0.405545 0.782181
Si Si2 0.803263 0.212660 0.850304
Si Si3 0.500000 0.500000 0.000000
Si Si4 0.094615 0.001184 0.321068
Si Si5 0.965895 0.309801 0.839871
Si Si6 0.000000 0.635925 0.750000
Si Si7 0.600805 0.532954 0.001221
Si Si8 0.384164 0.904403 0.375958
O O1 0.743035 0.268517 0.833885
O O2 0.700352 0.611468 0.736529
O O3 0.655017 0.460562 0.832799
O O4 0.644803 0.263055 0.702324
O O5 0.838089 0.435486 0.873017
O O6 0.839234 0.048298 0.927807
O O7 0.488014 0.616449 0.909073
O O8 0.445465 0.621849 0.996846
O O9 0.053268 0.208702 0.281769
O O10 0.068711 0.809084 0.251276
O O11 0.097672 0.946785 0.410738
O O12 0.927978 0.462139 0.862206
O O13 0.005666 0.476828 0.826176
O O14 0.588712 0.755496 0.039624
#
# Coordination Sequence:
#
# PCOD9303217 Si02
#       8
#     8   8   4   8   8   4   8   8
#     4  11  22  42  76  99 135 185 243 289 353 417
#     4  11  22  42  72 101 131 182 240 298 335 430
#     4  12  24  46  70 100 138 182 238 292 324 426
#     4  12  26  47  66 106 148 184 232 305 349 438
#     4  12  25  46  72 103 141 189 239 286 356 412
#     4  12  26  44  76 102 146 194 226 284 372 422
#     4  11  27  41  65 104 145 177 236 292 355 415
#     4  11  22  45  69 101 131 187 240 283 345 421
#
# _framework density 21.108260000000001
#
# number of rings (size 3 to 8) (size 9 to 14) (size 15 to 20)
#    0.000    0.571    5.714    3.000    2.000    3.429 
#    2.571    0.714    0.000    0.000    0.000    0.000 
#    0.000    0.000    0.000    0.000    0.000    0.000 
#
# Total GULP energy -156066.082270 kJ/mol
# GULP energy per Si atom -5573.788652 kJ/mol
# Density = 2.106022 g / cm^3
# Si number density = 21.108260 Si / 1000 Ang^3
#
#
#
# Elastic Constant Matrix: (Units=GPa)
#
#
# Indices 1 2 3 4 5 6 
#
# 1 235.2606 129.4418 95.1708 0.0000 4.0242 -0.0002
# 2 129.4418 182.3678 84.5070 0.0005 9.2303 0.0007
# 3 95.1708 84.5070 162.2901 0.0000 -16.1772 0.0000
# 4 0.0000 0.0005 0.0000 14.2990 0.0000 -30.1144
# 5 4.0242 9.2303 -16.1772 0.0000 40.4204 0.0000
# 6 -0.0002 0.0007 0.0000 -30.1144 0.0000 13.2819
#
#
#
# Elastic Compliance Matrix: (Units=1/GPa)
#
#
# Indices 1 2 3 4 5 6 
#
# 1 0.007517 -0.004253 -0.002262 0.000000 -0.000682 0.000000
# 2 -0.004253 0.010079 -0.003064 0.000000 -0.003104 0.000000
# 3 -0.002262 -0.003064 0.009557 0.000000 0.004750 0.000000
# 4 0.000000 0.000000 0.000000 -0.018525 0.000000 -0.042003
# 5 -0.000682 -0.003104 0.004750 0.000000 0.027418 0.000000
# 6 0.000000 0.000000 0.000000 -0.042003 0.000000 -0.019944
#
#
# Mechanical properties :
#
#
# Convention : Reuss Voigt Hill
#
# Bulk Modulus (GPa) = 125.05745 133.12863 129.09304
# Shear Modulus (GPa) = 131.84384 31.65352 81.74868
#
# Velocity S-wave (km/s) = 7.91179 3.87664 6.22996
# Velocity P-wave (km/s) = 11.95141 9.12382 10.63204
#
# Compressibility (1/GPa) = 0.00799632
#
# Stress axis : x y z
#
# Youngs Moduli (GPa) = 133.02714 99.21678 104.63728
#
# Poissons Ratio (x) = 0.42198 0.23666
# Poissons Ratio (y) = 0.56577 0.32057
# Poissons Ratio (z) = 0.30087 0.30396
#
# Static dielectric constant tensor:
#      x y z
#    x 1.813360 0.000000 0.064900 
#    y 0.000000 1.801470 0.000000 
#    z 0.064900 0.000000 1.720530 
# 
# From -- ./inp_files/221325.got.cif
#   From: 2010.05.17/outbox.cif.g08.bks.cpg/sg15_111_cif.got.tgz:221325.got - 2010.06.03 18:47:42.
