data_PCOD9303498
_publ_section_title
;
Structure prediction by ZEFSAII (Michael W. Deem and Ramdas Pophale) SiO2 
 PCOD9303498
Probable space group: C 2/C
;
_chemical_formula_sum "Si O2"
_cell_formula_units_Z 40
_cell_length_a 14.340180
_cell_length_b 11.647891
_cell_length_c 14.044321
_cell_angle_alpha 90.000000
_cell_angle_beta 63.889333
_cell_angle_gamma 90.000000
_cell_volume 2106.457499
_symmetry_space_group_name_H-M "C 2/C"
_symmetry_group_IT_number 15
_symmetry_cell_setting 'monoclinic'
loop_
_space_group_symop_operation_xyz
x,y,z
-x,y,1/2-z
-x,-y,-z
x,-y,1/2+z
1/2+x,1/2+y,z
1/2-x,1/2+y,1/2-z
1/2-x,1/2-y,-z
1/2+x,1/2-y,1/2+z
loop_
_atom_site_type_symbol
_atom_site_label
_atom_site_fract_x
_atom_site_fract_y
_atom_site_fract_z
Si Si1 0.475830 0.864995 0.503521
Si Si2 0.794564 0.761837 0.184654
Si Si3 0.810412 0.222097 0.068166
Si Si4 0.618078 0.533846 0.963913
Si Si5 0.402246 0.717465 0.362270
O O1 0.385130 0.828353 0.617610
O O2 0.579207 0.788955 0.476287
O O3 0.433362 0.822012 0.419349
O O4 0.500000 0.000000 0.500000
O O5 0.754199 0.754539 0.309302
O O6 0.841237 0.885635 0.138569
O O7 0.697217 0.743198 0.157608
O O8 0.823573 0.085456 0.060752
O O9 0.750000 0.250000 0.000000
O O10 0.500000 0.500000 0.000000
O O11 0.622917 0.610803 0.056995
O O12 0.500000 0.693265 0.250000
#
# Coordination Sequence:
#
# PCOD9303498 Si02
#       5
#     8   8   8   8   8
#     4  11  25  46  66 103 135 170 224 275 335 402
#     4  11  25  46  70  96 133 185 220 272 333 396
#     4  12  28  43  65 102 136 175 222 277 340 384
#     4  11  22  45  69  98 133 170 229 275 322 404
#     4  11  22  44  75  99 128 181 228 269 330 404
#
# _framework density 18.989227
#
# number of rings (size 3 to 8) (size 9 to 14) (size 15 to 20)
#    0.000    0.800    6.000    2.400    8.400    2.400 
#    0.000    0.000    0.000    0.000    0.000    0.000 
#    0.000    0.000    0.000    0.000    0.000    0.000 
#
# Total GULP energy -111793.460029 kJ/mol
# GULP energy per Si atom -5589.673001 kJ/mol
# Density = 1.894601 g / cm^3
# Si number density = 18.989227 Si / 1000 Ang^3
#
#
#
# Elastic Constant Matrix: (Units=GPa)
#
#
# Indices 1 2 3 4 5 6 
#
# 1 133.2577 63.2432 94.4838 0.0000 4.0566 0.0000
# 2 63.2432 183.1902 72.6746 0.0000 -0.2356 0.0000
# 3 94.4838 72.6746 173.3540 0.0000 0.0977 0.0000
# 4 0.0000 0.0000 0.0000 19.5554 0.0000 -16.4274
# 5 4.0566 -0.2356 0.0977 0.0000 38.5938 0.0000
# 6 0.0000 0.0000 0.0000 -16.4274 0.0000 29.4958
#
#
#
# Elastic Compliance Matrix: (Units=1/GPa)
#
#
# Indices 1 2 3 4 5 6 
#
# 1 0.012873 -0.001995 -0.006180 0.000000 -0.001350 0.000000
# 2 -0.001995 0.006857 -0.001788 0.000000 0.000256 0.000000
# 3 -0.006180 -0.001788 0.009886 0.000000 0.000614 0.000000
# 4 0.000000 0.000000 0.000000 0.096095 0.000000 0.053519
# 5 -0.001350 0.000256 0.000614 0.000000 0.026053 0.000000
# 6 0.000000 0.000000 0.000000 0.053519 0.000000 0.063710
#
#
# Mechanical properties :
#
#
# Convention : Reuss Voigt Hill
#
# Bulk Modulus (GPa) = 103.17180 105.62282 104.39731
# Shear Modulus (GPa) = 20.95305 34.82234 27.88770
#
# Velocity S-wave (km/s) = 3.32538 4.28693 3.83640
# Velocity P-wave (km/s) = 8.31829 8.95806 8.64410
#
# Compressibility (1/GPa) = 0.00969257
#
# Stress axis : x y z
#
# Youngs Moduli (GPa) = 77.67950 145.83836 101.15643
#
# Poissons Ratio (x) = 0.29088 0.62510
# Poissons Ratio (y) = 0.15493 0.18083
# Poissons Ratio (z) = 0.48002 0.26071
#
# Static dielectric constant tensor:
#      x y z
#    x 1.640320 0.000000 -0.003810 
#    y 0.000000 1.853910 0.000000 
#    z -0.003810 0.000000 1.642070 
# 
# From -- ./inp_files/151667.got.cif
#   From: 2010.05.17/outbox.cif.g08.bks.cpg/sg15_76_cif.got.tgz:151667.got - 2010.06.03 18:47:42.
