data_PCOD9303930
_publ_section_title
;
Structure prediction by ZEFSAII (Michael W. Deem and Ramdas Pophale) SiO2 
 PCOD9303930
Probable space group: C 2/C
;
_chemical_formula_sum "Si O2"
_cell_formula_units_Z 40
_cell_length_a 12.157152
_cell_length_b 11.607684
_cell_length_c 19.386817
_cell_angle_alpha 90.000000
_cell_angle_beta 40.217318
_cell_angle_gamma 90.000000
_cell_volume 1766.472982
_symmetry_space_group_name_H-M "C 2/C"
_symmetry_group_IT_number 15
_symmetry_cell_setting 'monoclinic'
loop_
_space_group_symop_operation_xyz
x,y,z
-x,y,1/2-z
-x,-y,-z
x,-y,1/2+z
1/2+x,1/2+y,z
1/2-x,1/2+y,1/2-z
1/2-x,1/2-y,-z
1/2+x,1/2-y,1/2+z
loop_
_atom_site_type_symbol
_atom_site_label
_atom_site_fract_x
_atom_site_fract_y
_atom_site_fract_z
Si Si1 0.095754 0.084573 0.901863
Si Si2 0.376067 0.410663 0.372616
Si Si3 0.681041 0.874209 0.009597
Si Si4 0.502728 0.171860 0.034942
Si Si5 0.549675 0.036548 0.299940
O O1 0.103371 0.211830 0.928578
O O2 0.271665 0.028512 0.794455
O O3 0.975326 0.112570 0.894885
O O4 0.000000 0.000000 0.000000
O O5 0.500000 0.394230 0.250000
O O6 0.324025 0.544870 0.406758
O O7 0.206903 0.333497 0.445580
O O8 0.533609 0.885039 0.022012
O O9 0.750000 0.750000 0.000000
O O10 0.600690 0.944483 0.112216
O O11 0.439824 0.116818 0.137341
O O12 0.500000 0.093422 0.250000
#
# Coordination Sequence:
#
# PCOD9303930 Si02
#       5
#     8   8   8   8   8
#     4  12  25  42  65  97 129 168 219 268 326 398
#     4  11  23  41  64  94 129 170 216 266 328 399
#     4  11  23  43  67  95 130 172 221 275 330 392
#     4  11  24  44  66  94 132 173 215 272 334 394
#     4  11  24  44  66  96 133 173 222 277 334 397
#
# _framework density 22.643992000000001
#
# number of rings (size 3 to 8) (size 9 to 14) (size 15 to 20)
#    0.000    0.800    0.000   10.200    0.000    8.000 
#    0.000    0.000    0.000    0.000    0.000    0.000 
#    0.000    0.000    0.000    0.000    0.000    0.000 
#
# Total GULP energy -111708.837026 kJ/mol
# GULP energy per Si atom -5585.441851 kJ/mol
# Density = 2.259245 g / cm^3
# Si number density = 22.643992 Si / 1000 Ang^3
#
#
#
# Elastic Constant Matrix: (Units=GPa)
#
#
# Indices 1 2 3 4 5 6 
#
# 1 130.4423 -1.9166 26.8440 0.0000 17.0049 0.0000
# 2 -1.9166 103.9434 53.1128 0.0000 3.1624 0.0000
# 3 26.8440 53.1128 160.6124 0.0000 11.3802 0.0000
# 4 0.0000 0.0000 0.0000 12.4971 0.0000 0.6123
# 5 17.0049 3.1624 11.3802 0.0000 38.1327 0.0000
# 6 0.0000 0.0000 0.0000 0.6123 0.0000 26.4398
#
#
#
# Elastic Compliance Matrix: (Units=1/GPa)
#
#
# Indices 1 2 3 4 5 6 
#
# 1 0.008435 0.001030 -0.001510 0.000000 -0.003396 0.000000
# 2 0.001030 0.011704 -0.004026 0.000000 -0.000228 0.000000
# 3 -0.001510 -0.004026 0.007906 0.000000 -0.001352 0.000000
# 4 0.000000 0.000000 0.000000 0.080109 0.000000 -0.001855
# 5 -0.003396 -0.000228 -0.001352 0.000000 0.028161 0.000000
# 6 0.000000 0.000000 0.000000 -0.001855 0.000000 0.037865
#
#
# Mechanical properties :
#
#
# Convention : Reuss Voigt Hill
#
# Bulk Modulus (GPa) = 52.54077 61.23095 56.88586
# Shear Modulus (GPa) = 26.38021 36.54445 31.46233
#
# Velocity S-wave (km/s) = 3.41691 4.02166 3.73156
# Velocity P-wave (km/s) = 6.23060 6.97599 6.61380
#
# Compressibility (1/GPa) = 0.01903284
#
# Stress axis : x y z
#
# Youngs Moduli (GPa) = 118.55608 85.44111 126.48926
#
# Poissons Ratio (x) = -0.08803 0.19098
# Poissons Ratio (y) = -0.12215 0.50930
# Poissons Ratio (z) = 0.17900 0.34402
#
# Static dielectric constant tensor:
#      x y z
#    x 1.991830 0.000000 0.026160 
#    y 0.000000 2.958700 0.000000 
#    z 0.026160 0.000000 1.772350 
# 
# From -- ./inp_files/122790.got.cif
#   From: 2010.05.17/outbox.cif.g08.bks.cpg/sg15_62_cif.got.tgz:122790.got - 2010.06.03 18:47:42.
