data_PCOD9303875
_publ_section_title
;
Structure prediction by ZEFSAII (Michael W. Deem and Ramdas Pophale) SiO2 
 PCOD9303875
Probable space group: C 2/C
;
_chemical_formula_sum "Si O2"
_cell_formula_units_Z 44
_cell_length_a 21.191678
_cell_length_b 16.043545
_cell_length_c 9.221294
_cell_angle_alpha 90.000000
_cell_angle_beta 37.055449
_cell_angle_gamma 90.000000
_cell_volume 1889.199263
_symmetry_space_group_name_H-M "C 2/C"
_symmetry_group_IT_number 15
_symmetry_cell_setting 'monoclinic'
loop_
_space_group_symop_operation_xyz
x,y,z
-x,y,1/2-z
-x,-y,-z
x,-y,1/2+z
1/2+x,1/2+y,z
1/2-x,1/2+y,1/2-z
1/2-x,1/2-y,-z
1/2+x,1/2-y,1/2+z
loop_
_atom_site_type_symbol
_atom_site_label
_atom_site_fract_x
_atom_site_fract_y
_atom_site_fract_z
Si Si1 0.500000 0.843082 0.750000
Si Si2 0.093461 0.950665 0.461948
Si Si3 0.708371 0.888750 0.244037
Si Si4 0.829553 0.124437 0.248783
Si Si5 0.528464 0.721339 0.961240
Si Si6 0.276668 0.774803 0.784372
O O1 0.590806 0.898851 0.513670
O O2 0.460061 0.778676 0.701324
O O3 0.204724 0.945860 0.340508
O O4 0.083788 0.869597 0.377008
O O5 0.099831 0.041315 0.380324
O O6 0.000000 0.943928 0.750000
O O7 0.739627 0.798230 0.246782
O O8 0.730429 0.889906 0.033717
O O9 0.786705 0.148426 0.168395
O O10 0.906096 0.194890 0.179752
O O11 0.596186 0.774403 0.953406
O O12 0.250000 0.750000 0.000000
#
# Coordination Sequence:
#
# PCOD9303875 Si02
#       6
#     4   8   8   8   8   8
#     4  12  24  44  76  92 152 192 240 298 350 412
#     4  11  26  42  73 109 147 181 233 300 376 428
#     4  11  25  45  65 108 139 192 243 291 351 433
#     4  12  25  44  73 105 152 180 236 304 365 417
#     4  11  23  42  69 107 135 186 235 293 359 423
#     4  11  23  40  68 104 140 187 236 285 353 429
#
# _framework density 23.290291
#
# number of rings (size 3 to 8) (size 9 to 14) (size 15 to 20)
#    0.000    0.727    5.455    1.091    3.818    1.455 
#    0.000    0.909    0.000    0.000    0.000    0.000 
#    0.000    0.000    0.000    0.000    0.000    0.000 
#
# Total GULP energy -122711.378797 kJ/mol
# GULP energy per Si atom -5577.789945 kJ/mol
# Density = 2.323728 g / cm^3
# Si number density = 23.290291 Si / 1000 Ang^3
#
#
#
# Elastic Constant Matrix: (Units=GPa)
#
#
# Indices 1 2 3 4 5 6 
#
# 1 109.1484 9.3256 39.1770 0.0000 -23.4426 0.0000
# 2 9.3256 52.9236 13.6991 0.0000 -6.0337 0.0000
# 3 39.1770 13.6991 167.7677 0.0000 -19.6960 0.0000
# 4 0.0000 0.0000 0.0000 20.2314 0.0000 -2.4572
# 5 -23.4426 -6.0337 -19.6960 0.0000 38.6676 0.0000
# 6 0.0000 0.0000 0.0000 -2.4572 0.0000 36.6380
#
#
#
# Elastic Compliance Matrix: (Units=1/GPa)
#
#
# Indices 1 2 3 4 5 6 
#
# 1 0.011118 -0.000831 -0.001864 0.000000 0.005661 0.000000
# 2 -0.000831 0.019568 -0.001175 0.000000 0.001951 0.000000
# 3 -0.001864 -0.001175 0.006741 0.000000 0.002120 0.000000
# 4 0.000000 0.000000 0.000000 0.049834 0.000000 0.003342
# 5 0.005661 0.001951 0.002120 0.000000 0.030678 0.000000
# 6 0.000000 0.000000 0.000000 0.003342 0.000000 0.027518
#
#
# Mechanical properties :
#
#
# Convention : Reuss Voigt Hill
#
# Bulk Modulus (GPa) = 33.68436 50.47145 42.07791
# Shear Modulus (GPa) = 30.65762 36.94995 33.80378
#
# Velocity S-wave (km/s) = 3.63206 3.98741 3.81387
# Velocity P-wave (km/s) = 5.66422 6.55109 6.12373
#
# Compressibility (1/GPa) = 0.02968736
#
# Stress axis : x y z
#
# Youngs Moduli (GPa) = 89.94671 51.10353 148.35308
#
# Poissons Ratio (x) = 0.04248 0.27649
# Poissons Ratio (y) = 0.07476 0.17427
# Poissons Ratio (z) = 0.16763 0.06003
#
# Static dielectric constant tensor:
#      x y z
#    x 1.989740 0.000000 -0.065840 
#    y 0.000000 1.898500 0.000000 
#    z -0.065840 0.000000 1.965410 
# 
# From -- ./inp_files/63757.got.cif
#   From: 2010.05.17/outbox.cif.g08.bks.cpg/sg15_32_cif.got.tgz:63757.got - 2010.06.03 18:47:42.
