data_PCOD9303198
_publ_section_title
;
Structure prediction by ZEFSAII (Michael W. Deem and Ramdas Pophale) SiO2 
 PCOD9303198
Probable space group: C 2/C
;
_chemical_formula_sum "Si O2"
_cell_formula_units_Z 48
_cell_length_a 16.401288
_cell_length_b 14.674162
_cell_length_c 9.443050
_cell_angle_alpha 90.000000
_cell_angle_beta 89.361115
_cell_angle_gamma 90.000000
_cell_volume 2272.566253
_symmetry_space_group_name_H-M "C 2/C"
_symmetry_group_IT_number 15
_symmetry_cell_setting 'monoclinic'
loop_
_space_group_symop_operation_xyz
x,y,z
-x,y,1/2-z
-x,-y,-z
x,-y,1/2+z
1/2+x,1/2+y,z
1/2-x,1/2+y,1/2-z
1/2-x,1/2-y,-z
1/2+x,1/2-y,1/2+z
loop_
_atom_site_type_symbol
_atom_site_label
_atom_site_fract_x
_atom_site_fract_y
_atom_site_fract_z
Si Si1 0.938289 0.820251 0.628614
Si Si2 0.324080 0.192157 0.067584
Si Si3 0.162486 0.011215 0.478931
Si Si4 0.227742 0.509902 0.275606
Si Si5 0.596175 0.863760 0.229010
Si Si6 0.444020 0.341813 0.120558
O O1 0.880511 0.899690 0.578764
O O2 0.892612 0.732781 0.691368
O O3 0.000000 0.852653 0.750000
O O4 0.995305 0.797650 0.495072
O O5 0.293419 0.110114 0.166713
O O6 0.378068 0.264100 0.154811
O O7 0.250000 0.250000 0.000000
O O8 0.376079 0.152456 0.933978
O O9 0.245378 0.002784 0.387477
O O10 0.191275 0.019111 0.639298
O O11 0.103638 0.925690 0.451217
O O12 0.152789 0.441281 0.294877
O O13 0.500000 0.884571 0.250000
O O14 0.500000 0.371890 0.250000
#
# Coordination Sequence:
#
# PCOD9303198 Si02
#       6
#     8   8   8   8   8   8
#     4  11  22  42  70  94 139 183 218 286 346 394
#     4  12  23  47  70  97 142 182 224 281 343 407
#     4  12  24  42  67 105 136 173 232 279 349 410
#     4  12  25  42  70  97 137 184 220 285 340 401
#     4  11  24  46  68  97 136 180 238 275 334 410
#     4  12  24  42  69 105 136 175 230 283 341 410
#
# _framework density 21.121496
#
# number of rings (size 3 to 8) (size 9 to 14) (size 15 to 20)
#    0.000    0.333    6.667    4.000    0.000    3.333 
#    0.000    0.000    0.000    0.000    0.000    0.000 
#    0.000    0.000    0.000    0.000    0.000    0.000 
#
# Total GULP energy -134229.841903 kJ/mol
# GULP energy per Si atom -5592.910079 kJ/mol
# Density = 2.107342 g / cm^3
# Si number density = 21.121496 Si / 1000 Ang^3
#
#
#
# Elastic Constant Matrix: (Units=GPa)
#
#
# Indices 1 2 3 4 5 6 
#
# 1 80.3744 30.5533 -5.9796 0.0000 12.8865 0.0000
# 2 30.5533 94.6155 -19.6962 0.0000 18.3951 0.0000
# 3 -5.9796 -19.6962 37.0186 0.0000 -2.1145 0.0000
# 4 0.0000 0.0000 0.0000 -5.6613 0.0000 -13.4191
# 5 12.8865 18.3951 -2.1145 0.0000 40.3624 0.0000
# 6 0.0000 0.0000 0.0000 -13.4191 0.0000 20.3334
#
#
#
# Elastic Compliance Matrix: (Units=1/GPa)
#
#
# Indices 1 2 3 4 5 6 
#
# 1 0.014452 -0.004142 -0.000025 0.000000 -0.002728 0.000000
# 2 -0.004142 0.014221 0.006622 0.000000 -0.004812 0.000000
# 3 -0.000025 0.006622 0.030452 0.000000 -0.001415 0.000000
# 4 0.000000 0.000000 0.000000 -0.068883 0.000000 -0.045460
# 5 -0.002728 -0.004812 -0.001415 0.000000 0.027765 0.000000
# 6 0.000000 0.000000 0.000000 -0.045460 0.000000 0.019179
#
#
# Mechanical properties :
#
#
# Convention : Reuss Voigt Hill
#
# Bulk Modulus (GPa) = 15.61624 24.64038 20.12831
# Shear Modulus (GPa) = 93.25115 24.81565 59.03340
#
# Velocity S-wave (km/s) = 6.65175 3.43140 5.29246
# Velocity P-wave (km/s) = 8.14886 5.23361 6.84816
#
# Compressibility (1/GPa) = 0.06403592
#
# Stress axis : x y z
#
# Youngs Moduli (GPa) = 69.19630 70.32043 32.83845
#
# Poissons Ratio (x) = 0.29124 0.00082
# Poissons Ratio (y) = 0.28658 -0.21747
# Poissons Ratio (z) = 0.00173 -0.46569
#
# Static dielectric constant tensor:
#      x y z
#    x 1.801180 0.000000 -0.024160 
#    y 0.000000 1.746960 0.000000 
#    z -0.024160 0.000000 1.753560 
# 
# From -- ./inp_files/47448.got.cif
#   From: 2010.05.17/outbox.cif.g08.bks.cpg/sg15_24_cif.got.tgz:47448.got - 2010.06.03 18:47:42.
