data_PCOD9303943
_publ_section_title
;
Structure prediction by ZEFSAII (Michael W. Deem and Ramdas Pophale) SiO2 
 PCOD9303943
Probable space group: C 2/C
;
_chemical_formula_sum "Si O2"
_cell_formula_units_Z 40
_cell_length_a 9.463662
_cell_length_b 11.226379
_cell_length_c 18.450657
_cell_angle_alpha 90.000000
_cell_angle_beta 81.782349
_cell_angle_gamma 90.000000
_cell_volume 1940.119476
_symmetry_space_group_name_H-M "C 2/C"
_symmetry_group_IT_number 15
_symmetry_cell_setting 'monoclinic'
loop_
_space_group_symop_operation_xyz
x,y,z
-x,y,1/2-z
-x,-y,-z
x,-y,1/2+z
1/2+x,1/2+y,z
1/2-x,1/2+y,1/2-z
1/2-x,1/2-y,-z
1/2+x,1/2-y,1/2+z
loop_
_atom_site_type_symbol
_atom_site_label
_atom_site_fract_x
_atom_site_fract_y
_atom_site_fract_z
Si Si1 0.420114 0.523115 0.332720
Si Si2 0.878336 0.111044 0.051443
Si Si3 0.852524 0.252894 0.844914
Si Si4 0.673682 0.204059 0.319885
Si Si5 0.163314 0.845672 0.458701
O O1 0.500000 0.529963 0.250000
O O2 0.524617 0.572736 0.386682
O O3 0.382245 0.386633 0.349615
O O4 0.276753 0.600339 0.338913
O O5 0.758380 0.198414 0.089058
O O6 0.812096 0.986035 0.027919
O O7 0.994620 0.167814 0.989049
O O8 0.796753 0.270232 0.766481
O O9 0.004525 0.320490 0.838363
O O10 0.697181 0.315010 0.372700
O O11 0.250000 0.750000 0.500000
#
# Coordination Sequence:
#
# PCOD9303943 Si02
#       5
#     8   8   8   8   8
#     4  12  21  42  68  94 130 173 220 273 328 377
#     4  11  24  42  69  95 131 179 213 267 333 383
#     4  11  24  43  66  98 129 166 226 273 316 391
#     4  11  23  41  65  95 131 168 216 274 322 382
#     4  11  23  43  67  98 136 171 217 268 325 398
#
# _framework density 20.617287000000001
#
# number of rings (size 3 to 8) (size 9 to 14) (size 15 to 20)
#    0.000    0.800    8.000    0.000    0.000    2.400 
#    0.000    2.000    0.000    0.000    0.000    0.000 
#    0.000    0.000    0.000    0.000    0.000    0.000 
#
# Total GULP energy -111798.512520 kJ/mol
# GULP energy per Si atom -5589.925626 kJ/mol
# Density = 2.057036 g / cm^3
# Si number density = 20.617287 Si / 1000 Ang^3
#
#
#
# Elastic Constant Matrix: (Units=GPa)
#
#
# Indices 1 2 3 4 5 6 
#
# 1 81.2734 71.8399 17.2157 0.0000 -7.2670 0.0000
# 2 71.8399 90.7553 28.2814 0.0000 -11.2333 0.0000
# 3 17.2157 28.2814 86.1402 0.0000 -11.5626 0.0000
# 4 0.0000 0.0000 0.0000 38.4972 0.0000 -3.6972
# 5 -7.2670 -11.2333 -11.5626 0.0000 47.8805 0.0000
# 6 0.0000 0.0000 0.0000 -3.6972 0.0000 43.9172
#
#
#
# Elastic Compliance Matrix: (Units=1/GPa)
#
#
# Indices 1 2 3 4 5 6 
#
# 1 0.041606 -0.033892 0.002679 0.000000 -0.000990 0.000000
# 2 -0.033892 0.040065 -0.006004 0.000000 0.002806 0.000000
# 3 0.002679 -0.006004 0.013343 0.000000 0.002220 0.000000
# 4 0.000000 0.000000 0.000000 0.026188 0.000000 0.002205
# 5 -0.000990 0.002806 0.002220 0.000000 0.021930 0.000000
# 6 0.000000 0.000000 0.000000 0.002205 0.000000 0.022956
#
#
# Mechanical properties :
#
#
# Convention : Reuss Voigt Hill
#
# Bulk Modulus (GPa) = 48.58928 54.76031 51.67480
# Shear Modulus (GPa) = 20.21179 35.44777 27.82978
#
# Velocity S-wave (km/s) = 3.13442 4.15097 3.67799
# Velocity P-wave (km/s) = 6.05953 7.04217 6.56925
#
# Compressibility (1/GPa) = 0.02058067
#
# Stress axis : x y z
#
# Youngs Moduli (GPa) = 24.03489 24.95943 74.94721
#
# Poissons Ratio (x) = 0.84592 -0.20080
# Poissons Ratio (y) = 0.81459 0.44998
# Poissons Ratio (z) = -0.06439 0.14985
#
# Static dielectric constant tensor:
#      x y z
#    x 1.726440 0.000000 0.039010 
#    y 0.000000 1.713410 0.000000 
#    z 0.039010 0.000000 1.806800 
# 
# From -- ./inp_files/187832.got.cif
#   From: 2010.05.17/outbox.cif.g08.bks.cpg/sg15_94_cif.got.tgz:187832.got - 2010.06.03 18:47:42.
