data_PCOD9303028
_publ_section_title
;
Structure prediction by ZEFSAII (Michael W. Deem and Ramdas Pophale) SiO2 
 PCOD9303028
Probable space group: C 2/C
;
_chemical_formula_sum "Si O2"
_cell_formula_units_Z 56
_cell_length_a 16.163856
_cell_length_b 7.753864
_cell_length_c 22.921316
_cell_angle_alpha 90.000000
_cell_angle_beta 120.524755
_cell_angle_gamma 90.000000
_cell_volume 2474.642722
_symmetry_space_group_name_H-M "C 2/C"
_symmetry_group_IT_number 15
_symmetry_cell_setting 'monoclinic'
loop_
_space_group_symop_operation_xyz
x,y,z
-x,y,1/2-z
-x,-y,-z
x,-y,1/2+z
1/2+x,1/2+y,z
1/2-x,1/2+y,1/2-z
1/2-x,1/2-y,-z
1/2+x,1/2-y,1/2+z
loop_
_atom_site_type_symbol
_atom_site_label
_atom_site_fract_x
_atom_site_fract_y
_atom_site_fract_z
Si Si1 0.424400 0.838789 0.477892
Si Si2 0.473972 0.022061 0.678213
Si Si3 0.175424 0.793337 0.186229
Si Si4 0.351228 0.881057 0.327000
Si Si5 0.467371 0.323423 0.104674
Si Si6 0.235618 0.354272 0.403572
Si Si7 0.265830 0.510338 0.535843
O O1 0.390322 0.799153 0.400436
O O2 0.473296 0.695985 0.536427
O O3 0.500000 0.000000 0.500000
O O4 0.324567 0.877768 0.476045
O O5 0.500000 0.943519 0.750000
O O6 0.563738 0.133859 0.689368
O O7 0.377525 0.128971 0.647159
O O8 0.457175 0.870172 0.626173
O O9 0.252485 0.811376 0.265380
O O10 0.161854 0.588407 0.169123
O O11 0.214154 0.875510 0.140382
O O12 0.072602 0.877116 0.164311
O O13 0.372546 0.425081 0.089090
O O14 0.263749 0.484006 0.465392
O O15 0.254705 0.168452 0.438514
#
# Coordination Sequence:
#
# PCOD9303028 Si02
#       7
#     8   8   8   8   8   8   8
#     4  12  20  42  70  94 128 172 217 268 330 384
#     4  11  22  41  68  94 126 172 215 266 323 395
#     4  11  24  44  63  96 133 172 215 268 324 396
#     4  11  24  41  68  95 130 172 216 266 331 385
#     4  11  25  43  66 100 130 168 224 271 323 386
#     4  11  22  42  67  93 133 171 213 266 332 389
#     4  11  24  40  68  99 129 168 220 274 322 385
#
# _framework density 22.629529999999999
#
# number of rings (size 3 to 8) (size 9 to 14) (size 15 to 20)
#    0.000    0.857    7.143    0.429    0.000    6.286 
#    0.000    0.000    0.000    0.000    0.000    0.000 
#    0.000    0.000    0.000    0.000    0.000    0.000 
#
# Total GULP energy -156530.495765 kJ/mol
# GULP energy per Si atom -5590.374849 kJ/mol
# Density = 2.257802 g / cm^3
# Si number density = 22.629530 Si / 1000 Ang^3
#
#
#
# Elastic Constant Matrix: (Units=GPa)
#
#
# Indices 1 2 3 4 5 6 
#
# 1 88.6811 -1.9538 22.5211 0.0000 25.5285 0.0000
# 2 -1.9538 24.6923 -3.0534 0.0000 2.9255 0.0000
# 3 22.5211 -3.0534 125.0594 0.0000 6.3973 0.0000
# 4 0.0000 0.0000 0.0000 22.6509 0.0000 11.4967
# 5 25.5285 2.9255 6.3973 0.0000 46.1888 0.0000
# 6 0.0000 0.0000 0.0000 11.4967 0.0000 24.3587
#
#
#
# Elastic Compliance Matrix: (Units=1/GPa)
#
#
# Indices 1 2 3 4 5 6 
#
# 1 0.014027 0.001748 -0.002096 0.000000 -0.007573 0.000000
# 2 0.001748 0.041184 0.000880 0.000000 -0.003696 0.000000
# 3 -0.002096 0.000880 0.008398 0.000000 -0.000060 0.000000
# 4 0.000000 0.000000 0.000000 0.058056 0.000000 -0.027401
# 5 -0.007573 -0.003696 -0.000060 0.000000 0.026078 0.000000
# 6 0.000000 0.000000 0.000000 -0.027401 0.000000 0.053986
#
#
# Mechanical properties :
#
#
# Convention : Reuss Voigt Hill
#
# Bulk Modulus (GPa) = 15.46247 30.38451 22.92349
# Shear Modulus (GPa) = 22.49991 33.36760 27.93375
#
# Velocity S-wave (km/s) = 3.15663 3.84411 3.51721
# Velocity P-wave (km/s) = 4.48703 5.75838 5.16200
#
# Compressibility (1/GPa) = 0.06467271
#
# Stress axis : x y z
#
# Youngs Moduli (GPa) = 71.28977 24.28153 119.07270
#
# Poissons Ratio (x) = -0.04244 0.24958
# Poissons Ratio (y) = -0.12461 -0.10476
# Poissons Ratio (z) = 0.14942 -0.02136
#
# Static dielectric constant tensor:
#      x y z
#    x 1.828970 0.000000 -0.006150 
#    y 0.000000 1.878940 0.000000 
#    z -0.006150 0.000000 1.855360 
# 
# From -- ./inp_files/242791.got.cif
#   From: 2010.05.17/outbox.cif.g08.bks.cpg/sg15_122_cif.got.tgz:242791.got - 2010.06.03 18:47:42.
