data_PCOD9303944
_publ_section_title
;
Structure prediction by ZEFSAII (Michael W. Deem and Ramdas Pophale) SiO2 
 PCOD9303944
Probable space group: C 2/C
;
_chemical_formula_sum "Si O2"
_cell_formula_units_Z 32
_cell_length_a 13.804278
_cell_length_b 13.497967
_cell_length_c 18.942210
_cell_angle_alpha 90.000000
_cell_angle_beta 23.329387
_cell_angle_gamma 90.000000
_cell_volume 1397.738767
_symmetry_space_group_name_H-M "C 2/C"
_symmetry_group_IT_number 15
_symmetry_cell_setting 'monoclinic'
loop_
_space_group_symop_operation_xyz
x,y,z
-x,y,1/2-z
-x,-y,-z
x,-y,1/2+z
1/2+x,1/2+y,z
1/2-x,1/2+y,1/2-z
1/2-x,1/2-y,-z
1/2+x,1/2-y,1/2+z
loop_
_atom_site_type_symbol
_atom_site_label
_atom_site_fract_x
_atom_site_fract_y
_atom_site_fract_z
Si Si1 0.844345 0.846839 0.155112
Si Si2 0.621868 0.199881 0.243923
Si Si3 0.642605 0.044510 0.336673
Si Si4 0.500338 0.686345 0.326868
O O1 0.834123 0.799201 0.240545
O O2 0.709277 0.769708 0.194659
O O3 0.710038 0.950268 0.245005
O O4 0.122586 0.850941 0.946438
O O5 0.500000 0.216315 0.250000
O O6 0.501199 0.124862 0.382278
O O7 0.893419 0.100786 0.193408
O O8 0.500000 0.000000 0.500000
O O9 0.500000 0.640151 0.250000
O O10 0.250000 0.750000 0.500000
#
# Coordination Sequence:
#
# PCOD9303944 Si02
#       4
#     8   8   8   8
#     4  11  23  42  63  94 133 172 227 287 339 408
#     4  11  24  42  65  95 131 176 224 284 344 405
#     4  11  24  43  66  98 134 175 227 284 339 409
#     4  11  23  41  65  95 131 175 221 277 342 404
#
# _framework density 22.894120999999998
#
# number of rings (size 3 to 8) (size 9 to 14) (size 15 to 20)
#    0.000    1.000    0.000    9.000    0.000    6.000 
#    0.000    0.000    0.000    0.000    0.000    0.000 
#    0.000    0.000    0.000    0.000    0.000    0.000 
#
# Total GULP energy -89334.526338 kJ/mol
# GULP energy per Si atom -5583.407896 kJ/mol
# Density = 2.284201 g / cm^3
# Si number density = 22.894121 Si / 1000 Ang^3
#
#
#
# Elastic Constant Matrix: (Units=GPa)
#
#
# Indices 1 2 3 4 5 6 
#
# 1 141.8192 7.2877 -18.8137 -0.0013 -2.2297 -0.0268
# 2 7.2877 90.3455 -21.7864 0.0113 -0.5412 -0.0409
# 3 -18.8137 -21.7864 55.3799 -0.0700 1.2275 0.0026
# 4 -0.0013 0.0113 -0.0700 34.0070 0.0213 8.2599
# 5 -2.2297 -0.5412 1.2275 0.0213 25.8164 -0.0249
# 6 -0.0268 -0.0409 0.0026 8.2599 -0.0249 21.4858
#
#
#
# Elastic Compliance Matrix: (Units=1/GPa)
#
#
# Indices 1 2 3 4 5 6 
#
# 1 0.007391 0.000011 0.002504 0.000003 0.000520 0.000008
# 2 0.000011 0.012229 0.004814 0.000000 0.000028 0.000023
# 3 0.002504 0.004814 0.020816 0.000044 -0.000673 -0.000008
# 4 0.000003 0.000000 0.000044 0.032434 -0.000041 -0.012469
# 5 0.000520 0.000028 -0.000673 -0.000041 0.038813 0.000061
# 6 0.000008 0.000023 -0.000008 -0.012469 0.000061 0.051336
#
#
# Mechanical properties :
#
#
# Convention : Reuss Voigt Hill
#
# Bulk Modulus (GPa) = 18.15148 24.54665 21.34907
# Shear Modulus (GPa) = 29.98914 37.65231 33.82072
#
# Velocity S-wave (km/s) = 3.62319 4.05980 3.84769
# Velocity P-wave (km/s) = 5.04470 5.72023 5.39305
#
# Compressibility (1/GPa) = 0.05509191
#
# Stress axis : x y z
#
# Youngs Moduli (GPa) = 135.30016 81.77447 48.03931
#
# Poissons Ratio (x) = -0.00087 -0.12027
# Poissons Ratio (y) = -0.00144 -0.23125
# Poissons Ratio (z) = -0.33873 -0.39364
#
# Static dielectric constant tensor:
#      x y z
#    x 1.902750 -0.000100 0.009130 
#    y -0.000100 1.793730 0.000090 
#    z 0.009130 0.000090 1.921740 
# 
# From -- ./inp_files/27878.got.cif
#   From: 2010.05.17/outbox.cif.g08.bks.cpg/sg15_14_cif.got.tgz:27878.got - 2010.06.03 18:47:42.
