data_PCOD9303349
_publ_section_title
;
Structure prediction by ZEFSAII (Michael W. Deem and Ramdas Pophale) SiO2 
 PCOD9303349
Probable space group: C 2/C
;
_chemical_formula_sum "Si O2"
_cell_formula_units_Z 44
_cell_length_a 9.551069
_cell_length_b 16.402223
_cell_length_c 14.035015
_cell_angle_alpha 90.000000
_cell_angle_beta 64.471580
_cell_angle_gamma 90.000000
_cell_volume 1984.051810
_symmetry_space_group_name_H-M "C 2/C"
_symmetry_group_IT_number 15
_symmetry_cell_setting 'monoclinic'
loop_
_space_group_symop_operation_xyz
x,y,z
-x,y,1/2-z
-x,-y,-z
x,-y,1/2+z
1/2+x,1/2+y,z
1/2-x,1/2+y,1/2-z
1/2-x,1/2-y,-z
1/2+x,1/2-y,1/2+z
loop_
_atom_site_type_symbol
_atom_site_label
_atom_site_fract_x
_atom_site_fract_y
_atom_site_fract_z
Si Si1 0.054681 0.673590 0.902437
Si Si2 0.716450 0.764253 0.791336
Si Si3 0.000000 0.387323 0.750000
Si Si4 0.723760 0.368240 0.538946
Si Si5 0.457117 0.674737 0.975834
Si Si6 0.822261 0.553869 0.488234
O O1 0.148231 0.706804 0.786522
O O2 0.098330 0.588685 0.939126
O O3 0.870246 0.673242 0.941887
O O4 0.103172 0.738324 0.969927
O O5 0.641089 0.828080 0.739390
O O6 0.770039 0.823192 0.861533
O O7 0.578451 0.702118 0.859780
O O8 0.935849 0.436098 0.862078
O O9 0.562854 0.356719 0.532208
O O10 0.763706 0.463306 0.525838
O O11 0.328234 0.610384 0.986497
#
# Coordination Sequence:
#
# PCOD9303349 Si02
#       6
#     8   8   4   8   8   8
#     4  11  22  43  72  95 133 182 231 272 330 408
#     4  11  23  42  71 100 130 185 232 273 332 404
#     4  12  22  40  74  98 132 176 234 266 344 394
#     4  11  26  44  67 102 145 168 224 291 340 390
#     4  11  23  43  67  98 140 180 223 277 336 406
#     4  12  24  45  69 103 139 177 223 287 335 401
#
# _framework density 22.176839999999999
#
# number of rings (size 3 to 8) (size 9 to 14) (size 15 to 20)
#    0.000    0.727    5.455    4.909    0.000    4.364 
#    0.000    1.818    0.000    0.000    0.000    0.000 
#    0.000    0.000    0.000    0.000    0.000    0.000 
#
# Total GULP energy -122998.092387 kJ/mol
# GULP energy per Si atom -5590.822381 kJ/mol
# Density = 2.212637 g / cm^3
# Si number density = 22.176840 Si / 1000 Ang^3
#
#
#
# Elastic Constant Matrix: (Units=GPa)
#
#
# Indices 1 2 3 4 5 6 
#
# 1 109.4666 28.4945 9.6314 0.0000 9.9784 0.0000
# 2 28.4945 116.1353 18.9698 0.0000 5.1734 0.0000
# 3 9.6314 18.9698 106.1380 0.0000 -7.0972 0.0000
# 4 0.0000 0.0000 0.0000 19.5700 0.0000 1.4449
# 5 9.9784 5.1734 -7.0972 0.0000 21.8887 0.0000
# 6 0.0000 0.0000 0.0000 1.4449 0.0000 32.0712
#
#
#
# Elastic Compliance Matrix: (Units=1/GPa)
#
#
# Indices 1 2 3 4 5 6 
#
# 1 0.010172 -0.002164 -0.000830 0.000000 -0.004395 0.000000
# 2 -0.002164 0.009485 -0.001618 0.000000 -0.001780 0.000000
# 3 -0.000830 -0.001618 0.010055 0.000000 0.004021 0.000000
# 4 0.000000 0.000000 0.000000 0.051269 0.000000 -0.002310
# 5 -0.004395 -0.001780 0.004021 0.000000 0.049414 0.000000
# 6 0.000000 0.000000 0.000000 -0.002310 0.000000 0.031285
#
#
# Mechanical properties :
#
#
# Convention : Reuss Voigt Hill
#
# Bulk Modulus (GPa) = 48.80971 49.54791 49.17881
# Shear Modulus (GPa) = 28.13192 33.01560 30.57376
#
# Velocity S-wave (km/s) = 3.56550 3.86261 3.71703
# Velocity P-wave (km/s) = 6.24560 6.50259 6.37539
#
# Compressibility (1/GPa) = 0.02048773
#
# Stress axis : x y z
#
# Youngs Moduli (GPa) = 98.30651 105.42675 99.45242
#
# Poissons Ratio (x) = 0.22819 0.08255
# Poissons Ratio (y) = 0.21278 0.16090
# Poissons Ratio (z) = 0.08160 0.17057
#
# Static dielectric constant tensor:
#      x y z
#    x 1.826350 0.000000 0.017910 
#    y 0.000000 1.804210 0.000000 
#    z 0.017910 0.000000 1.904680 
# 
# From -- ./inp_files/134718.got.cif
#   From: 2010.05.17/outbox.cif.g08.bks.cpg/sg15_68_cif.got.tgz:134718.got - 2010.06.03 18:47:42.
