data_PCOD9303781
_publ_section_title
;
Structure prediction by ZEFSAII (Michael W. Deem and Ramdas Pophale) SiO2 
 PCOD9303781
Probable space group: C 2/C
;
_chemical_formula_sum "Si O2"
_cell_formula_units_Z 32
_cell_length_a 13.220436
_cell_length_b 18.729022
_cell_length_c 9.566887
_cell_angle_alpha 90.000000
_cell_angle_beta 140.472777
_cell_angle_gamma 90.000000
_cell_volume 1507.621232
_symmetry_space_group_name_H-M "C 2/C"
_symmetry_group_IT_number 15
_symmetry_cell_setting 'monoclinic'
loop_
_space_group_symop_operation_xyz
x,y,z
-x,y,1/2-z
-x,-y,-z
x,-y,1/2+z
1/2+x,1/2+y,z
1/2-x,1/2+y,1/2-z
1/2-x,1/2-y,-z
1/2+x,1/2-y,1/2+z
loop_
_atom_site_type_symbol
_atom_site_label
_atom_site_fract_x
_atom_site_fract_y
_atom_site_fract_z
Si Si1 0.331066 0.524341 0.754407
Si Si2 0.162614 0.806638 0.002605
Si Si3 0.337751 0.950585 0.162783
Si Si4 0.852453 0.191023 0.695087
O O1 0.298031 0.477289 0.585795
O O2 0.194846 0.509837 0.725887
O O3 0.312362 0.606822 0.682368
O O4 0.500000 0.500000 0.000000
O O5 0.000000 0.827663 0.750000
O O6 0.250000 0.750000 0.000000
O O7 0.291217 0.869814 0.147127
O O8 0.123800 0.781860 0.119742
O O9 0.500000 0.958781 0.250000
O O10 0.750000 0.250000 0.500000
O O11 0.000000 0.185002 0.750000
#
# Coordination Sequence:
#
# PCOD9303781 Si02
#       4
#     8   8   8   8
#     4  11  23  43  67  93 129 177 225 273 337 414
#     4  11  23  41  64  91 127 175 224 277 342 417
#     4  11  23  39  63  95 127 167 221 281 338 403
#     4  11  24  41  63  95 131 171 218 275 338 402
#
# _framework density 21.225491000000002
#
# number of rings (size 3 to 8) (size 9 to 14) (size 15 to 20)
#    0.000    1.000    0.000    8.250    0.000    5.000 
#    0.000    0.000    0.000    0.000    0.000    0.000 
#    0.000    0.000    0.000    0.000    0.000    0.000 
#
# Total GULP energy -89107.017665 kJ/mol
# GULP energy per Si atom -5569.188604 kJ/mol
# Density = 2.117718 g / cm^3
# Si number density = 21.225491 Si / 1000 Ang^3
#
#
#
# Elastic Constant Matrix: (Units=GPa)
#
#
# Indices 1 2 3 4 5 6 
#
# 1 193.8231 24.6772 44.2858 0.0000 -30.3103 0.0000
# 2 24.6772 64.7549 22.1534 0.0000 -12.8078 0.0000
# 3 44.2858 22.1534 95.7929 0.0000 -25.2319 0.0000
# 4 0.0000 0.0000 0.0000 31.1931 0.0000 -6.8686
# 5 -30.3103 -12.8078 -25.2319 0.0000 49.3852 0.0000
# 6 0.0000 0.0000 0.0000 -6.8686 0.0000 31.9952
#
#
#
# Elastic Compliance Matrix: (Units=1/GPa)
#
#
# Indices 1 2 3 4 5 6 
#
# 1 0.006135 -0.001195 -0.001906 0.000000 0.002482 0.000000
# 2 -0.001195 0.017328 -0.002848 0.000000 0.002306 0.000000
# 3 -0.001906 -0.002848 0.013261 0.000000 0.004867 0.000000
# 4 0.000000 0.000000 0.000000 0.033649 0.000000 0.007224
# 5 0.002482 0.002306 0.004867 0.000000 0.024857 0.000000
# 6 0.000000 0.000000 0.000000 0.007224 0.000000 0.032805
#
#
# Mechanical properties :
#
#
# Convention : Reuss Voigt Hill
#
# Bulk Modulus (GPa) = 40.27935 59.62262 49.95099
# Shear Modulus (GPa) = 33.73614 40.06501 36.90058
#
# Velocity S-wave (km/s) = 3.99107 4.34935 4.17406
# Velocity P-wave (km/s) = 6.34479 7.30572 6.84214
#
# Compressibility (1/GPa) = 0.02482662
#
# Stress axis : x y z
#
# Youngs Moduli (GPa) = 162.99596 57.70842 75.40933
#
# Poissons Ratio (x) = 0.06896 0.14375
# Poissons Ratio (y) = 0.19478 0.21474
# Poissons Ratio (z) = 0.31072 0.16433
#
# Static dielectric constant tensor:
#      x y z
#    x 1.780340 0.000000 0.005190 
#    y 0.000000 1.189990 0.000000 
#    z 0.005190 0.000000 1.800040 
# 
# From -- ./inp_files/30034.got.cif
#   From: 2010.05.17/outbox.cif.g08.bks.cpg/sg15_16_cif.got.tgz:30034.got - 2010.06.03 18:47:42.
