data_PCOD9303348
_publ_section_title
;
Structure prediction by ZEFSAII (Michael W. Deem and Ramdas Pophale) SiO2 
 PCOD9303348
Probable space group: C 2/C
;
_chemical_formula_sum "Si O2"
_cell_formula_units_Z 56
_cell_length_a 19.720476
_cell_length_b 7.853867
_cell_length_c 17.765566
_cell_angle_alpha 90.000000
_cell_angle_beta 114.287830
_cell_angle_gamma 90.000000
_cell_volume 2508.027010
_symmetry_space_group_name_H-M "C 2/C"
_symmetry_group_IT_number 15
_symmetry_cell_setting 'monoclinic'
loop_
_space_group_symop_operation_xyz
x,y,z
-x,y,1/2-z
-x,-y,-z
x,-y,1/2+z
1/2+x,1/2+y,z
1/2-x,1/2+y,1/2-z
1/2-x,1/2-y,-z
1/2+x,1/2-y,1/2+z
loop_
_atom_site_type_symbol
_atom_site_label
_atom_site_fract_x
_atom_site_fract_y
_atom_site_fract_z
Si Si1 0.680679 0.445793 0.439645
Si Si2 0.046197 0.243830 0.196017
Si Si3 0.926450 0.623037 0.253353
Si Si4 0.661670 0.297755 0.155034
Si Si5 0.583426 0.269554 0.965628
Si Si6 0.201241 0.055290 0.285667
Si Si7 0.849544 0.427633 0.563204
O O1 0.635296 0.615110 0.436035
O O2 0.690060 0.436073 0.353711
O O3 0.762182 0.462151 0.512829
O O4 0.642241 0.273348 0.452869
O O5 0.048696 0.448059 0.196439
O O6 0.128159 0.170066 0.241686
O O7 0.000000 0.194643 0.250000
O O8 0.999827 0.193682 0.100789
O O9 0.887978 0.737328 0.297613
O O10 0.874281 0.564278 0.161045
O O11 0.000000 0.705797 0.250000
O O12 0.724141 0.159236 0.164370
O O13 0.706805 0.456668 0.209279
O O14 0.607849 0.322006 0.060042
O O15 0.604909 0.071106 0.961163
#
# Coordination Sequence:
#
# PCOD9303348 Si02
#       7
#     8   8   8   8   8   8   8
#     4  11  24  41  75 103 144 194 245 286 350 443
#     4  11  23  44  74 102 142 190 242 289 355 434
#     4  11  23  46  73 101 137 192 235 286 363 440
#     4  12  29  44  73 107 145 185 235 307 366 409
#     4  12  25  46  71 109 144 188 238 307 355 413
#     4  12  25  45  68 108 147 187 240 298 357 436
#     4  11  22  43  72 107 137 191 246 285 350 431
#
# _framework density 22.328309000000001
#
# number of rings (size 3 to 8) (size 9 to 14) (size 15 to 20)
#    0.000    0.571    7.143    1.286    4.000    2.857 
#    2.571    0.000    0.000    0.000    0.000    0.000 
#    0.000    0.000    0.000    0.000    0.000    0.000 
#
# Total GULP energy -156567.579531 kJ/mol
# GULP energy per Si atom -5591.699269 kJ/mol
# Density = 2.227749 g / cm^3
# Si number density = 22.328309 Si / 1000 Ang^3
#
#
#
# Elastic Constant Matrix: (Units=GPa)
#
#
# Indices 1 2 3 4 5 6 
#
# 1 49.7278 10.3873 18.3804 0.0000 12.9941 0.0000
# 2 10.3873 42.4308 -5.3507 0.0000 3.2451 0.0000
# 3 18.3804 -5.3507 161.2890 0.0000 25.8485 0.0000
# 4 0.0000 0.0000 0.0000 27.4362 0.0000 3.1454
# 5 12.9941 3.2451 25.8485 0.0000 33.0155 0.0000
# 6 0.0000 0.0000 0.0000 3.1454 0.0000 20.8958
#
#
#
# Elastic Compliance Matrix: (Units=1/GPa)
#
#
# Indices 1 2 3 4 5 6 
#
# 1 0.023844 -0.005476 -0.001694 0.000000 -0.007520 0.000000
# 2 -0.005476 0.025255 0.001732 0.000000 -0.001683 0.000000
# 3 -0.001694 0.001732 0.007285 0.000000 -0.005207 0.000000
# 4 0.000000 0.000000 0.000000 0.037088 0.000000 -0.005583
# 5 -0.007520 -0.001683 -0.005207 0.000000 0.037491 0.000000
# 6 0.000000 0.000000 0.000000 -0.005583 0.000000 0.048697
#
#
# Mechanical properties :
#
#
# Convention : Reuss Voigt Hill
#
# Bulk Modulus (GPa) = 21.97366 33.36463 27.66914
# Shear Modulus (GPa) = 24.30652 31.60486 27.95569
#
# Velocity S-wave (km/s) = 3.30297 3.76634 3.54224
# Velocity P-wave (km/s) = 4.94051 5.82142 5.39896
#
# Compressibility (1/GPa) = 0.04550903
#
# Stress axis : x y z
#
# Youngs Moduli (GPa) = 41.93861 39.59559 137.26786
#
# Poissons Ratio (x) = 0.21681 0.23249
# Poissons Ratio (y) = 0.22964 -0.23769
# Poissons Ratio (z) = 0.07103 -0.06856
#
# Static dielectric constant tensor:
#      x y z
#    x 1.812260 0.000000 0.005270 
#    y 0.000000 1.870400 0.000000 
#    z 0.005270 0.000000 1.814200 
# 
# From -- ./inp_files/214020.got.cif
#   From: 2010.05.17/outbox.cif.g08.bks.cpg/sg15_108_cif.got.tgz:214020.got - 2010.06.03 18:47:42.
