data_PCOD9303393
_publ_section_title
;
Structure prediction by ZEFSAII (Michael W. Deem and Ramdas Pophale) SiO2 
 PCOD9303393
Probable space group: C 2/C
;
_chemical_formula_sum "Si O2"
_cell_formula_units_Z 48
_cell_length_a 26.886440
_cell_length_b 8.387242
_cell_length_c 16.832729
_cell_angle_alpha 90.000000
_cell_angle_beta 29.870533
_cell_angle_gamma 90.000000
_cell_volume 1890.483231
_symmetry_space_group_name_H-M "C 2/C"
_symmetry_group_IT_number 15
_symmetry_cell_setting 'monoclinic'
loop_
_space_group_symop_operation_xyz
x,y,z
-x,y,1/2-z
-x,-y,-z
x,-y,1/2+z
1/2+x,1/2+y,z
1/2-x,1/2+y,1/2-z
1/2-x,1/2-y,-z
1/2+x,1/2-y,1/2+z
loop_
_atom_site_type_symbol
_atom_site_label
_atom_site_fract_x
_atom_site_fract_y
_atom_site_fract_z
Si Si1 0.090152 0.022130 0.688257
Si Si2 0.580201 0.925704 0.076374
Si Si3 0.546981 0.830013 0.836397
Si Si4 0.239737 0.902331 0.202702
Si Si5 0.727607 0.032621 0.170434
Si Si6 0.474086 0.671913 0.476323
O O1 0.000000 0.035622 0.750000
O O2 0.053832 0.909156 0.809506
O O3 0.105940 0.194298 0.706865
O O4 0.186185 0.968843 0.506428
O O5 0.500000 0.860167 0.250000
O O6 0.529783 0.088171 0.115485
O O7 0.578637 0.805688 0.005279
O O8 0.691790 0.978350 0.944409
O O9 0.624115 0.956986 0.766098
O O10 0.494076 0.750362 0.985410
O O11 0.252590 0.719062 0.157318
O O12 0.121263 0.937383 0.368197
O O13 0.274019 0.934475 0.245876
#
# Coordination Sequence:
#
# PCOD9303393 Si02
#       6
#     8   8   8   8   8   8
#     4  12  23  43  69 103 133 177 230 277 332 401
#     4  12  25  44  70 100 136 180 227 278 336 399
#     4  11  24  44  65 101 137 183 218 281 336 400
#     4  11  22  44  66  99 133 182 220 281 334 403
#     4  11  24  42  70  98 138 175 230 277 337 405
#     4  11  25  44  70  98 137 177 231 275 337 398
#
# _framework density 25.390335
#
# number of rings (size 3 to 8) (size 9 to 14) (size 15 to 20)
#    0.000    0.667    5.000    4.500    0.000    1.333 
#    0.000    2.500    0.000    0.000    0.000    0.000 
#    0.000    0.000    0.000    0.000    0.000    0.000 
#
# Total GULP energy -134479.097149 kJ/mol
# GULP energy per Si atom -5603.295715 kJ/mol
# Density = 2.533255 g / cm^3
# Si number density = 25.390335 Si / 1000 Ang^3
#
#
#
# Elastic Constant Matrix: (Units=GPa)
#
#
# Indices 1 2 3 4 5 6 
#
# 1 60.7314 3.0779 18.7838 -0.0002 25.4218 0.0004
# 2 3.0779 33.3948 18.5273 -0.0001 -6.7657 -0.0010
# 3 18.7838 18.5273 148.0619 -0.0001 12.6994 -0.0009
# 4 -0.0002 -0.0001 -0.0001 39.6636 0.0000 13.8514
# 5 25.4218 -6.7657 12.6994 0.0000 24.6147 0.0002
# 6 0.0004 -0.0010 -0.0009 13.8514 0.0002 38.0708
#
#
#
# Elastic Compliance Matrix: (Units=1/GPa)
#
#
# Indices 1 2 3 4 5 6 
#
# 1 0.032001 -0.010455 0.000345 0.000000 -0.036102 0.000000
# 2 -0.010455 0.038991 -0.005648 0.000000 0.024429 0.000001
# 3 0.000345 -0.005648 0.007932 0.000000 -0.006001 0.000000
# 4 0.000000 0.000000 0.000000 0.028882 0.000000 -0.010508
# 5 -0.036102 0.024429 -0.006001 0.000000 0.087723 0.000000
# 6 0.000000 0.000001 0.000000 -0.010508 0.000000 0.030090
#
#
# Mechanical properties :
#
#
# Convention : Reuss Voigt Hill
#
# Bulk Modulus (GPa) = 21.09356 35.88511 28.48933
# Shear Modulus (GPa) = 18.31920 33.92310 26.12115
#
# Velocity S-wave (km/s) = 2.68899 3.65919 3.21094
# Velocity P-wave (km/s) = 4.23871 5.65835 4.99918
#
# Compressibility (1/GPa) = 0.04740784
#
# Stress axis : x y z
#
# Youngs Moduli (GPa) = 31.24870 25.64683 126.07776
#
# Poissons Ratio (x) = 0.26814 -0.04349
# Poissons Ratio (y) = 0.32671 0.71209
# Poissons Ratio (z) = -0.01078 0.14485
#
# Static dielectric constant tensor:
#      x y z
#    x 1.954600 0.000000 -0.020180 
#    y 0.000000 2.017580 0.000000 
#    z -0.020180 0.000000 2.047120 
# 
# From -- ./inp_files/224544.got.cif
#   From: 2010.05.17/outbox.cif.g08.bks.cpg/sg15_113_cif.got.tgz:224544.got - 2010.06.03 18:47:42.
