data_PCOD9303369
_publ_section_title
;
Structure prediction by ZEFSAII (Michael W. Deem and Ramdas Pophale) SiO2 
 PCOD9303369
Probable space group: C 2/C
;
_chemical_formula_sum "Si O2"
_cell_formula_units_Z 52
_cell_length_a 14.224150
_cell_length_b 24.387311
_cell_length_c 6.550437
_cell_angle_alpha 90.000000
_cell_angle_beta 66.302835
_cell_angle_gamma 90.000000
_cell_volume 2080.680607
_symmetry_space_group_name_H-M "C 2/C"
_symmetry_group_IT_number 15
_symmetry_cell_setting 'monoclinic'
loop_
_space_group_symop_operation_xyz
x,y,z
-x,y,1/2-z
-x,-y,-z
x,-y,1/2+z
1/2+x,1/2+y,z
1/2-x,1/2+y,1/2-z
1/2-x,1/2-y,-z
1/2+x,1/2-y,1/2+z
loop_
_atom_site_type_symbol
_atom_site_label
_atom_site_fract_x
_atom_site_fract_y
_atom_site_fract_z
Si Si1 0.500000 0.420704 0.250000
Si Si2 0.220158 0.945829 0.920935
Si Si3 0.077184 0.517752 0.829091
Si Si4 0.147260 0.275976 0.682601
Si Si5 0.262386 0.856809 0.562611
Si Si6 0.934062 0.176625 0.507471
Si Si7 0.866148 0.625147 0.576008
O O1 0.397037 0.455019 0.399494
O O2 0.526802 0.377936 0.410721
O O3 0.301764 0.995005 0.805895
O O4 0.217001 0.908923 0.719365
O O5 0.270095 0.902079 0.038480
O O6 0.057626 0.516093 0.581414
O O7 0.059687 0.574697 0.978965
O O8 0.250000 0.250000 0.500000
O O9 0.103669 0.318342 0.553374
O O10 0.189937 0.313752 0.825472
O O11 0.077616 0.227730 0.830926
O O12 0.177753 0.832145 0.488011
O O13 0.349787 0.871012 0.329648
O O14 0.000000 0.189311 0.250000
#
# Coordination Sequence:
#
# PCOD9303369 Si02
#       7
#     4   8   8   8   8   8   8
#     4  12  24  46  74 116 162 206 252 324 394 484
#     4  11  24  45  75 113 150 205 261 320 398 477
#     4  12  25  49  81 106 150 206 257 328 404 458
#     4  11  24  44  74 105 149 203 260 321 380 469
#     4  11  22  43  75 108 148 202 261 312 388 472
#     4  12  24  41  72 111 159 210 253 315 399 475
#     4  11  24  45  76 108 151 197 261 328 388 469
#
# _framework density 24.991821999999999
#
# number of rings (size 3 to 8) (size 9 to 14) (size 15 to 20)
#    0.000    0.615    6.154    2.308    0.000    0.000 
#    0.000   10.769    1.692    0.000    0.000    0.000 
#    0.000    0.000    0.000    0.000    0.000    0.000 
#
# Total GULP energy -144898.154655 kJ/mol
# GULP energy per Si atom -5573.005948 kJ/mol
# Density = 2.493494 g / cm^3
# Si number density = 24.991822 Si / 1000 Ang^3
#
#
#
# Elastic Constant Matrix: (Units=GPa)
#
#
# Indices 1 2 3 4 5 6 
#
# 1 95.0614 21.8723 31.1224 0.0000 -7.9324 0.0000
# 2 21.8723 78.3774 27.8041 0.0000 -5.3759 0.0000
# 3 31.1224 27.8041 146.0851 0.0000 -13.7902 0.0000
# 4 0.0000 0.0000 0.0000 -96.1993 0.0000 58.7003
# 5 -7.9324 -5.3759 -13.7902 0.0000 50.3602 0.0000
# 6 0.0000 0.0000 0.0000 58.7003 0.0000 23.4921
#
#
#
# Elastic Compliance Matrix: (Units=1/GPa)
#
#
# Indices 1 2 3 4 5 6 
#
# 1 0.011826 -0.002541 -0.001936 0.000000 0.001062 0.000000
# 2 -0.002541 0.014257 -0.002121 0.000000 0.000541 0.000000
# 3 -0.001936 -0.002121 0.007813 0.000000 0.001608 0.000000
# 4 0.000000 0.000000 0.000000 -0.004117 0.000000 0.010288
# 5 0.001062 0.000541 0.001608 0.000000 0.020522 0.000000
# 6 0.000000 0.000000 0.000000 0.010288 0.000000 0.016860
#
#
# Mechanical properties :
#
#
# Convention : Reuss Voigt Hill
#
# Bulk Modulus (GPa) = 48.30558 53.45795 50.88176
# Shear Modulus (GPa) = 57.30097 11.44561 34.37329
#
# Velocity S-wave (km/s) = 4.79350 2.14235 3.71264
# Velocity P-wave (km/s) = 7.07159 5.24940 6.22750
#
# Compressibility (1/GPa) = 0.02070154
#
# Stress axis : x y z
#
# Youngs Moduli (GPa) = 84.55615 70.13887 127.98759
#
# Poissons Ratio (x) = 0.17821 0.24775
# Poissons Ratio (y) = 0.21484 0.27149
# Poissons Ratio (z) = 0.16368 0.14878
#
# Static dielectric constant tensor:
#      x y z
#    x 1.652750 0.000000 0.524690 
#    y 0.000000 1.627930 0.000000 
#    z 0.524690 0.000000 1.221780 
# 
# From -- ./inp_files/11932.got.cif
#   From: 2010.05.17/outbox.cif.g08.bks.cpg/sg15_6_cif.got.tgz:11932.got - 2010.06.03 18:47:42.
