data_PCOD9303996
_publ_section_title
;
Structure prediction by ZEFSAII (Michael W. Deem and Ramdas Pophale) SiO2 
 PCOD9303996
Probable space group: C 2/C
;
_chemical_formula_sum "Si O2"
_cell_formula_units_Z 56
_cell_length_a 13.174787
_cell_length_b 12.867129
_cell_length_c 21.226565
_cell_angle_alpha 90.000000
_cell_angle_beta 136.702156
_cell_angle_gamma 90.000000
_cell_volume 2467.724870
_symmetry_space_group_name_H-M "C 2/C"
_symmetry_group_IT_number 15
_symmetry_cell_setting 'monoclinic'
loop_
_space_group_symop_operation_xyz
x,y,z
-x,y,1/2-z
-x,-y,-z
x,-y,1/2+z
1/2+x,1/2+y,z
1/2-x,1/2+y,1/2-z
1/2-x,1/2-y,-z
1/2+x,1/2-y,1/2+z
loop_
_atom_site_type_symbol
_atom_site_label
_atom_site_fract_x
_atom_site_fract_y
_atom_site_fract_z
Si Si1 0.550190 0.381484 0.003694
Si Si2 0.364797 0.375201 0.237806
Si Si3 0.093523 0.978600 0.898275
Si Si4 0.158067 0.624949 0.427316
Si Si5 0.843895 0.299682 0.451179
Si Si6 0.295176 0.183150 0.714424
Si Si7 0.000000 0.488879 0.250000
Si Si8 0.000000 0.147538 0.250000
O O1 0.592022 0.391196 0.950283
O O2 0.427657 0.293598 0.955340
O O3 0.500000 0.500000 0.000000
O O4 0.680279 0.340459 0.106527
O O5 0.500000 0.348928 0.250000
O O6 0.435868 0.466398 0.312635
O O7 0.224452 0.382475 0.127648
O O8 0.296643 0.304019 0.262456
O O9 0.205337 0.062523 0.978268
O O10 0.114626 0.922653 0.841271
O O11 0.066700 0.651965 0.449534
O O12 0.209029 0.734015 0.421173
O O13 0.093630 0.559070 0.340838
O O14 0.403284 0.083289 0.753505
O O15 0.401211 0.280325 0.749824
#
# Coordination Sequence:
#
# PCOD9303996 Si02
#       8
#     8   8   8   8   8   8   4   4
#     4  12  22  43  70  98 140 190 233 281 359 427
#     4  12  24  44  73 103 143 178 238 292 352 424
#     4  12  22  46  73 100 142 194 227 285 366 428
#     4  11  23  41  68  99 136 180 230 290 357 408
#     4  11  24  40  66 106 135 176 234 294 348 422
#     4  11  25  46  68 105 139 190 239 285 349 434
#     4  11  24  46  69  98 146 182 235 294 354 419
#     4  11  26  46  73 106 144 184 241 294 346 431
#
# _framework density 22.692968
#
# number of rings (size 3 to 8) (size 9 to 14) (size 15 to 20)
#    0.000    0.571    6.429    0.857    3.000    0.571 
#    5.143    0.714    0.000    0.000    0.000    0.000 
#    0.000    0.000    0.000    0.000    0.000    0.000 
#
# Total GULP energy -156002.222026 kJ/mol
# GULP energy per Si atom -5571.507930 kJ/mol
# Density = 2.264132 g / cm^3
# Si number density = 22.692968 Si / 1000 Ang^3
#
#
#
# Elastic Constant Matrix: (Units=GPa)
#
#
# Indices 1 2 3 4 5 6 
#
# 1 81.5984 16.8431 8.1750 0.0000 -18.4406 0.0000
# 2 16.8431 88.7287 39.7951 0.0000 -4.5480 0.0000
# 3 8.1750 39.7951 126.7810 0.0000 -24.3407 0.0000
# 4 0.0000 0.0000 0.0000 38.9493 0.0000 7.9344
# 5 -18.4406 -4.5480 -24.3407 0.0000 30.8996 0.0000
# 6 0.0000 0.0000 0.0000 7.9344 0.0000 19.9235
#
#
#
# Elastic Compliance Matrix: (Units=1/GPa)
#
#
# Indices 1 2 3 4 5 6 
#
# 1 0.014986 -0.003213 0.001966 0.000000 0.010019 0.000000
# 2 -0.003213 0.013869 -0.004857 0.000000 -0.003702 0.000000
# 3 0.001966 -0.004857 0.011044 0.000000 0.009158 0.000000
# 4 0.000000 0.000000 0.000000 0.027941 0.000000 -0.011127
# 5 0.010019 -0.003702 0.009158 0.000000 0.045011 0.000000
# 6 0.000000 0.000000 0.000000 -0.011127 0.000000 0.054623
#
#
# Mechanical properties :
#
#
# Convention : Reuss Voigt Hill
#
# Bulk Modulus (GPa) = 36.11407 47.41494 41.76450
# Shear Modulus (GPa) = 26.46750 33.44080 29.95415
#
# Velocity S-wave (km/s) = 3.41886 3.84294 3.63709
# Velocity P-wave (km/s) = 5.61548 6.37420 6.00683
#
# Compressibility (1/GPa) = 0.02769004
#
# Stress axis : x y z
#
# Youngs Moduli (GPa) = 66.73104 72.10482 90.55081
#
# Poissons Ratio (x) = 0.23165 -0.17799
# Poissons Ratio (y) = 0.21439 0.43979
# Poissons Ratio (z) = -0.13117 0.35020
#
# Static dielectric constant tensor:
#      x y z
#    x 1.307150 0.000000 -0.086870 
#    y 0.000000 1.802250 0.000000 
#    z -0.086870 0.000000 1.841180 
# 
# From -- ./inp_files/244594.got.cif
#   From: 2010.05.17/outbox.cif.g08.bks.cpg/sg15_123_cif.got.tgz:244594.got - 2010.06.03 18:47:42.
