data_PCOD9303321
_publ_section_title
;
Structure prediction by ZEFSAII (Michael W. Deem and Ramdas Pophale) SiO2 
 PCOD9303321
Probable space group: C 2/C
;
_chemical_formula_sum "Si O2"
_cell_formula_units_Z 52
_cell_length_a 13.827602
_cell_length_b 25.683281
_cell_length_c 9.777543
_cell_angle_alpha 90.000000
_cell_angle_beta 45.000058
_cell_angle_gamma 90.000000
_cell_volume 2455.345154
_symmetry_space_group_name_H-M "C 2/C"
_symmetry_group_IT_number 15
_symmetry_cell_setting 'monoclinic'
loop_
_space_group_symop_operation_xyz
x,y,z
-x,y,1/2-z
-x,-y,-z
x,-y,1/2+z
1/2+x,1/2+y,z
1/2-x,1/2+y,1/2-z
1/2-x,1/2-y,-z
1/2+x,1/2-y,1/2+z
loop_
_atom_site_type_symbol
_atom_site_label
_atom_site_fract_x
_atom_site_fract_y
_atom_site_fract_z
Si Si1 0.700670 0.351693 0.100779
Si Si2 0.843031 0.545412 0.360958
Si Si3 0.000000 0.875001 0.750000
Si Si4 0.448552 0.101693 0.002119
Si Si5 0.282233 0.927941 0.408182
Si Si6 0.559586 0.322060 0.972646
Si Si7 0.453986 0.795412 0.952985
O O1 0.562228 0.351407 0.325230
O O2 0.766485 0.408351 0.015965
O O3 0.678287 0.329666 0.968614
O O4 0.799002 0.314609 0.090113
O O5 0.775190 0.489526 0.442567
O O6 0.000000 0.540738 0.250000
O O7 0.860885 0.564610 0.188118
O O8 0.935067 0.843658 0.686269
O O9 0.128665 0.906343 0.556402
O O10 0.603098 0.079665 0.825189
O O11 0.362542 0.101408 0.949686
O O12 0.467554 0.158351 0.048931
O O13 0.532247 0.260474 0.992940
O O14 0.500000 0.790737 0.750000
#
# Coordination Sequence:
#
# PCOD9303321 Si02
#       7
#     8   8   4   8   8   8   8
#     4  11  22  43  70 106 129 169 235 286 330 401
#     4  12  22  41  74  99 127 170 226 288 336 388
#     4  12  28  48  60  96 148 196 216 264 348 426
#     4  11  22  43  70 106 129 169 235 286 330 401
#     4  11  27  43  67  96 144 181 219 279 342 404
#     4  11  27  43  67  96 144 181 219 279 342 404
#     4  12  22  41  74  99 127 170 226 288 336 388
#
# _framework density 21.178286
#
# number of rings (size 3 to 8) (size 9 to 14) (size 15 to 20)
#    0.000    0.615    6.154    2.769    0.000    2.462 
#    0.000    4.615    0.000    0.000    0.000    0.000 
#    0.000    0.000    0.000    0.000    0.000    0.000 
#
# Total GULP energy -145196.111047 kJ/mol
# GULP energy per Si atom -5584.465809 kJ/mol
# Density = 2.113008 g / cm^3
# Si number density = 21.178286 Si / 1000 Ang^3
#
#
#
# Elastic Constant Matrix: (Units=GPa)
#
#
# Indices 1 2 3 4 5 6 
#
# 1 68.5446 32.9391 18.7182 0.0000 10.5435 0.0000
# 2 32.9391 146.5420 32.9365 0.0000 -0.0002 0.0000
# 3 18.7182 32.9365 68.5396 0.0000 -10.5462 0.0000
# 4 0.0000 0.0000 0.0000 23.1560 0.0000 -0.0009
# 5 10.5435 -0.0002 -10.5462 0.0000 21.6439 0.0000
# 6 0.0000 0.0000 0.0000 -0.0009 0.0000 23.1559
#
#
#
# Elastic Compliance Matrix: (Units=1/GPa)
#
#
# Indices 1 2 3 4 5 6 
#
# 1 0.019542 -0.003102 -0.005742 0.000000 -0.012318 0.000000
# 2 -0.003102 0.008219 -0.003102 0.000000 0.000000 0.000000
# 3 -0.005742 -0.003102 0.019545 0.000000 0.012320 0.000000
# 4 0.000000 0.000000 0.000000 0.043185 0.000000 0.000002
# 5 -0.012318 0.000000 0.012320 0.000000 0.058206 0.000000
# 6 0.000000 0.000000 0.000000 0.000002 0.000000 0.043186
#
#
# Mechanical properties :
#
#
# Convention : Reuss Voigt Hill
#
# Bulk Modulus (GPa) = 42.71034 50.31263 46.51149
# Shear Modulus (GPa) = 22.36344 26.85996 24.61170
#
# Velocity S-wave (km/s) = 3.25308 3.56515 3.41269
# Velocity P-wave (km/s) = 5.85840 6.38399 6.12684
#
# Compressibility (1/GPa) = 0.02341353
#
# Stress axis : x y z
#
# Youngs Moduli (GPa) = 51.17079 121.67622 51.16496
#
# Poissons Ratio (x) = 0.37746 0.29377
# Poissons Ratio (y) = 0.15874 0.15873
# Poissons Ratio (z) = 0.29380 0.37747
#
# Static dielectric constant tensor:
#      x y z
#    x 1.842380 0.000000 0.000010 
#    y 0.000000 1.726390 0.000000 
#    z 0.000010 0.000000 1.842380 
# 
# From -- ./inp_files/43415.got.cif
#   From: 2010.05.17/outbox.cif.g08.bks.cpg/sg15_22_cif.got.tgz:43415.got - 2010.06.03 18:47:42.
