data_PCOD9303326
_publ_section_title
;
Structure prediction by ZEFSAII (Michael W. Deem and Ramdas Pophale) SiO2 
 PCOD9303326
Probable space group: C 2/C
;
_chemical_formula_sum "Si O2"
_cell_formula_units_Z 60
_cell_length_a 9.460015
_cell_length_b 28.490748
_cell_length_c 11.695941
_cell_angle_alpha 90.000000
_cell_angle_beta 95.806583
_cell_angle_gamma 90.000000
_cell_volume 3136.149691
_symmetry_space_group_name_H-M "C 2/C"
_symmetry_group_IT_number 15
_symmetry_cell_setting 'monoclinic'
loop_
_space_group_symop_operation_xyz
x,y,z
-x,y,1/2-z
-x,-y,-z
x,-y,1/2+z
1/2+x,1/2+y,z
1/2-x,1/2+y,1/2-z
1/2-x,1/2-y,-z
1/2+x,1/2-y,1/2+z
loop_
_atom_site_type_symbol
_atom_site_label
_atom_site_fract_x
_atom_site_fract_y
_atom_site_fract_z
Si Si1 0.886045 0.525281 0.348982
Si Si2 0.747080 0.717462 0.106623
Si Si3 0.500000 0.855659 0.250000
Si Si4 0.652537 0.605285 0.313070
Si Si5 0.232202 0.722831 0.829071
Si Si6 0.579100 0.307190 0.955758
Si Si7 0.420378 0.927709 0.446054
Si Si8 0.129727 0.630650 0.345269
O O1 0.748856 0.558266 0.322209
O O2 0.849689 0.471381 0.374799
O O3 0.000000 0.524236 0.250000
O O4 0.953517 0.548248 0.469431
O O5 0.770533 0.749355 0.218514
O O6 0.588373 0.695267 0.082697
O O7 0.879658 0.681938 0.104008
O O8 0.750000 0.750000 0.000000
O O9 0.370440 0.820920 0.208471
O O10 0.466191 0.889196 0.356457
O O11 0.500000 0.593632 0.250000
O O12 0.634991 0.641474 0.417328
O O13 0.739238 0.635506 0.228493
O O14 0.147205 0.763293 0.892049
O O15 0.364666 0.703102 0.912325
O O16 0.340536 0.903605 0.546681
O O17 0.000000 0.619143 0.250000
#
# Coordination Sequence:
#
# PCOD9303326 Si02
#       8
#     8   8   4   8   8   8   8   8
#     4  11  22  43  70  98 122 164 223 284 337 395
#     4  12  25  40  61  92 136 178 225 274 317 387
#     4  12  22  38  64 100 136 176 212 278 332 394
#     4  12  21  42  68  96 131 173 215 274 340 399
#     4  11  23  38  61  93 130 174 225 258 329 394
#     4  11  23  40  62  92 135 177 217 274 324 395
#     4  11  23  40  67  97 129 162 222 279 336 389
#     4  12  24  40  67  97 128 168 229 275 325 396
#
# _framework density 19.131741000000002
#
# number of rings (size 3 to 8) (size 9 to 14) (size 15 to 20)
#    0.000    0.533    7.333    1.600    1.867    0.000 
#    0.000    0.667    2.933    0.000    0.000    0.000 
#    0.000    0.000    0.000    0.000    0.000    0.000 
#
# Total GULP energy -167034.624528 kJ/mol
# GULP energy per Si atom -5567.820818 kJ/mol
# Density = 1.908820 g / cm^3
# Si number density = 19.131741 Si / 1000 Ang^3
#
#
#
# Elastic Constant Matrix: (Units=GPa)
#
#
# Indices 1 2 3 4 5 6 
#
# 1 68.9806 24.4142 30.6162 0.0000 15.7969 0.0000
# 2 24.4142 120.5296 36.6675 0.0000 16.5766 0.0000
# 3 30.6162 36.6675 94.1270 0.0000 19.2006 0.0000
# 4 0.0000 0.0000 0.0000 45.6643 0.0000 0.6449
# 5 15.7969 16.5766 19.2006 0.0000 22.5375 0.0000
# 6 0.0000 0.0000 0.0000 0.6449 0.0000 22.3326
#
#
#
# Elastic Compliance Matrix: (Units=1/GPa)
#
#
# Indices 1 2 3 4 5 6 
#
# 1 0.018684 -0.001435 -0.003706 0.000000 -0.008883 0.000000
# 2 -0.001435 0.009933 -0.002563 0.000000 -0.004116 0.000000
# 3 -0.003706 -0.002563 0.014419 0.000000 -0.007802 0.000000
# 4 0.000000 0.000000 0.000000 0.021908 0.000000 -0.000633
# 5 -0.008883 -0.004116 -0.007802 0.000000 0.060271 0.000000
# 6 0.000000 0.000000 0.000000 -0.000633 0.000000 0.044796
#
#
# Mechanical properties :
#
#
# Convention : Reuss Voigt Hill
#
# Bulk Modulus (GPa) = 36.19577 51.89257 44.04417
# Shear Modulus (GPa) = 25.68987 30.90284 28.29635
#
# Velocity S-wave (km/s) = 3.66838 4.02340 3.84998
# Velocity P-wave (km/s) = 6.07478 6.98329 6.54482
#
# Compressibility (1/GPa) = 0.02762753
#
# Stress axis : x y z
#
# Youngs Moduli (GPa) = 53.52175 100.67124 69.35186
#
# Poissons Ratio (x) = 0.14451 0.25703
# Poissons Ratio (y) = 0.07683 0.17775
# Poissons Ratio (z) = 0.19836 0.25802
#
# Static dielectric constant tensor:
#      x y z
#    x 1.664490 0.000000 -0.009640 
#    y 0.000000 1.773350 0.000000 
#    z -0.009640 0.000000 1.698500 
# 
# From -- ./inp_files/81353.got.cif
#   From: 2010.05.17/outbox.cif.g08.bks.cpg/sg15_41_cif.got.tgz:81353.got - 2010.06.03 18:47:42.
