data_PCOD9303605
_publ_section_title
;
Structure prediction by ZEFSAII (Michael W. Deem and Ramdas Pophale) SiO2 
 PCOD9303605
Probable space group: C 2/C
;
_chemical_formula_sum "Si O2"
_cell_formula_units_Z 44
_cell_length_a 6.228626
_cell_length_b 27.498512
_cell_length_c 11.564500
_cell_angle_alpha 90.000000
_cell_angle_beta 102.237666
_cell_angle_gamma 90.000000
_cell_volume 1935.734897
_symmetry_space_group_name_H-M "C 2/C"
_symmetry_group_IT_number 15
_symmetry_cell_setting 'monoclinic'
loop_
_space_group_symop_operation_xyz
x,y,z
-x,y,1/2-z
-x,-y,-z
x,-y,1/2+z
1/2+x,1/2+y,z
1/2-x,1/2+y,1/2-z
1/2-x,1/2-y,-z
1/2+x,1/2-y,1/2+z
loop_
_atom_site_type_symbol
_atom_site_label
_atom_site_fract_x
_atom_site_fract_y
_atom_site_fract_z
Si Si1 0.161253 0.675812 0.434092
Si Si2 0.548324 0.721742 0.622879
Si Si3 0.885820 0.353591 0.115976
Si Si4 0.070066 0.939514 0.126057
Si Si5 0.345031 0.027174 0.069649
Si Si6 0.500000 0.894631 0.750000
O O1 0.382015 0.697615 0.512218
O O2 0.000288 0.721150 0.388246
O O3 0.181526 0.642550 0.322175
O O4 0.046828 0.646869 0.526078
O O5 0.500000 0.705871 0.750000
O O6 0.784702 0.700566 0.617920
O O7 0.695655 0.393546 0.086129
O O8 0.000000 0.365514 0.250000
O O9 0.000000 0.929839 0.250000
O O10 0.229648 0.986891 0.139241
O O11 0.857112 0.949620 0.023723
O O12 0.502304 0.066644 0.147380
O O13 0.500000 0.000000 0.000000
#
# Coordination Sequence:
#
# PCOD9303605 Si02
#       6
#     8   8   8   8   8   4
#     4  11  25  44  68 102 142 182 238 299 364 426
#     4  11  22  46  69  98 142 188 242 298 359 430
#     4  12  25  40  69 101 136 185 241 289 356 433
#     4  11  26  43  68 102 134 184 238 293 356 435
#     4  11  25  47  71  98 142 184 238 297 362 433
#     4  12  24  42  72 102 138 184 224 296 364 418
#
# _framework density 22.730383
#
# number of rings (size 3 to 8) (size 9 to 14) (size 15 to 20)
#    0.000    0.727    2.727    4.364    6.364    1.455 
#    0.000    6.364    0.000    0.000    0.000    0.000 
#    0.000    0.000    0.000    0.000    0.000    0.000 
#
# Total GULP energy -122905.059714 kJ/mol
# GULP energy per Si atom -5586.593623 kJ/mol
# Density = 2.267865 g / cm^3
# Si number density = 22.730383 Si / 1000 Ang^3
#
#
#
# Elastic Constant Matrix: (Units=GPa)
#
#
# Indices 1 2 3 4 5 6 
#
# 1 51.0379 13.0903 10.7144 0.0000 -3.2706 0.0000
# 2 13.0903 108.0944 36.6222 0.0000 8.8443 0.0000
# 3 10.7144 36.6222 92.5212 0.0000 10.6114 0.0000
# 4 0.0000 0.0000 0.0000 56.0818 0.0000 9.9414
# 5 -3.2706 8.8443 10.6114 0.0000 22.1618 0.0000
# 6 0.0000 0.0000 0.0000 9.9414 0.0000 38.0716
#
#
#
# Elastic Compliance Matrix: (Units=1/GPa)
#
#
# Indices 1 2 3 4 5 6 
#
# 1 0.020928 -0.002226 -0.002115 0.000000 0.004989 0.000000
# 2 -0.002226 0.011040 -0.003776 0.000000 -0.002926 0.000000
# 3 -0.002115 -0.003776 0.013132 0.000000 -0.005093 0.000000
# 4 0.000000 0.000000 0.000000 0.018697 0.000000 -0.004882
# 5 0.004989 -0.002926 -0.005093 0.000000 0.049465 0.000000
# 6 0.000000 0.000000 0.000000 -0.004882 0.000000 0.027541
#
#
# Mechanical properties :
#
#
# Convention : Reuss Voigt Hill
#
# Bulk Modulus (GPa) = 34.64370 41.38972 38.01671
# Shear Modulus (GPa) = 30.00141 36.01147 33.00644
#
# Velocity S-wave (km/s) = 3.63696 3.98463 3.81476
# Velocity P-wave (km/s) = 5.73680 6.27839 6.01370
#
# Compressibility (1/GPa) = 0.02886528
#
# Stress axis : x y z
#
# Youngs Moduli (GPa) = 47.78302 90.58304 76.14924
#
# Poissons Ratio (x) = 0.20166 0.16103
# Poissons Ratio (y) = 0.10637 0.28757
# Poissons Ratio (z) = 0.10104 0.34207
#
# Static dielectric constant tensor:
#      x y z
#    x 1.810050 0.000000 0.000560 
#    y 0.000000 1.893440 0.000000 
#    z 0.000560 0.000000 1.904650 
# 
# From -- ./inp_files/73984.got.cif
#   From: 2010.05.17/outbox.cif.g08.bks.cpg/sg15_37_cif.got.tgz:73984.got - 2010.06.03 18:47:42.
