data_PCOD9303023
_publ_section_title
;
Structure prediction by ZEFSAII (Michael W. Deem and Ramdas Pophale) SiO2 
 PCOD9303023
Probable space group: C 2/C
;
_chemical_formula_sum "Si O2"
_cell_formula_units_Z 44
_cell_length_a 15.570770
_cell_length_b 5.966642
_cell_length_c 23.522706
_cell_angle_alpha 90.000000
_cell_angle_beta 61.489682
_cell_angle_gamma 90.000000
_cell_volume 1920.363235
_symmetry_space_group_name_H-M "C 2/C"
_symmetry_group_IT_number 15
_symmetry_cell_setting 'monoclinic'
loop_
_space_group_symop_operation_xyz
x,y,z
-x,y,1/2-z
-x,-y,-z
x,-y,1/2+z
1/2+x,1/2+y,z
1/2-x,1/2+y,1/2-z
1/2-x,1/2-y,-z
1/2+x,1/2-y,1/2+z
loop_
_atom_site_type_symbol
_atom_site_label
_atom_site_fract_x
_atom_site_fract_y
_atom_site_fract_z
Si Si1 0.999024 0.070965 0.629410
Si Si2 0.365128 0.940561 0.649996
Si Si3 0.700137 0.498397 0.508788
Si Si4 0.500000 0.621790 0.250000
Si Si5 0.816737 0.604642 0.789562
Si Si6 0.834490 0.849854 0.603606
O O1 0.969704 0.323362 0.622195
O O2 0.108197 0.007265 0.579821
O O3 0.977723 0.027284 0.702134
O O4 0.923160 0.929032 0.615679
O O5 0.277594 0.762871 0.678236
O O6 0.347483 0.070286 0.714755
O O7 0.352120 0.085242 0.597522
O O8 0.750000 0.750000 0.500000
O O9 0.663707 0.517279 0.455178
O O10 0.750000 0.250000 0.500000
O O11 0.592350 0.781018 0.208647
O O12 0.772198 0.385581 0.833675
#
# Coordination Sequence:
#
# PCOD9303023 Si02
#       6
#     8   8   8   4   8   8
#     4  11  27  45  71 107 146 197 252 304 384 451
#     4  11  22  42  71 103 141 199 245 310 368 466
#     4  12  31  52  77 110 152 196 254 322 381 449
#     4  12  24  42  68 108 150 182 242 316 380 450
#     4  11  22  41  68 109 145 185 248 303 387 442
#     4  11  25  47  77 100 148 199 250 304 379 458
#
# _framework density 22.912331999999999
#
# number of rings (size 3 to 8) (size 9 to 14) (size 15 to 20)
#    0.000    0.727    3.636    2.727   10.182    2.909 
#    0.000    0.000    0.000    0.000    0.000    0.000 
#    0.000    0.000    0.000    0.000    0.000    0.000 
#
# Total GULP energy -122849.636296 kJ/mol
# GULP energy per Si atom -5584.074377 kJ/mol
# Density = 2.286018 g / cm^3
# Si number density = 22.912332 Si / 1000 Ang^3
#
#
#
# Elastic Constant Matrix: (Units=GPa)
#
#
# Indices 1 2 3 4 5 6 
#
# 1 84.2098 45.2375 23.7691 -0.0012 0.4506 -0.0023
# 2 45.2375 117.6588 27.0953 -0.0053 -8.3216 -0.0026
# 3 23.7691 27.0953 71.8835 -0.0015 -3.0266 -0.0017
# 4 -0.0012 -0.0053 -0.0015 23.3938 -0.0028 -3.7275
# 5 0.4506 -8.3216 -3.0266 -0.0028 36.5584 -0.0022
# 6 -0.0023 -0.0026 -0.0017 -3.7275 -0.0022 32.3616
#
#
#
# Elastic Compliance Matrix: (Units=1/GPa)
#
#
# Indices 1 2 3 4 5 6 
#
# 1 0.015703 -0.005415 -0.003222 -0.000001 -0.001693 0.000000
# 2 -0.005415 0.011299 -0.002365 0.000003 0.002443 0.000001
# 3 -0.003222 -0.002365 0.015903 0.000000 0.000818 0.000001
# 4 -0.000001 0.000003 0.000000 0.043546 0.000004 0.005016
# 5 -0.001693 0.002443 0.000818 0.000004 0.027998 0.000003
# 6 0.000000 0.000001 0.000001 0.005016 0.000003 0.031479
#
#
# Mechanical properties :
#
#
# Convention : Reuss Voigt Hill
#
# Bulk Modulus (GPa) = 47.85037 51.77287 49.81162
# Shear Modulus (GPa) = 28.58802 30.30611 29.44707
#
# Velocity S-wave (km/s) = 3.53613 3.64084 3.58887
# Velocity P-wave (km/s) = 6.13203 6.34976 6.24184
#
# Compressibility (1/GPa) = 0.02089848
#
# Stress axis : x y z
#
# Youngs Moduli (GPa) = 63.68343 88.50642 62.88126
#
# Poissons Ratio (x) = 0.47926 0.20263
# Poissons Ratio (y) = 0.34485 0.14874
# Poissons Ratio (z) = 0.20522 0.20936
#
# Static dielectric constant tensor:
#      x y z
#    x 1.848410 0.000000 0.046330 
#    y 0.000000 2.084310 0.000000 
#    z 0.046330 0.000000 1.850860 
# 
# From -- ./inp_files/294383.got.cif
#   From: 2010.05.17/outbox.cif.g08.bks.cpg/sg15_148_cif.got.tgz:294383.got - 2010.06.03 18:47:42.
