data_PCOD9303104
_publ_section_title
;
Structure prediction by ZEFSAII (Michael W. Deem and Ramdas Pophale) SiO2 
 PCOD9303104
Probable space group: C 2/C
;
_chemical_formula_sum "Si O2"
_cell_formula_units_Z 56
_cell_length_a 24.061768
_cell_length_b 13.964166
_cell_length_c 23.289371
_cell_angle_alpha 90.000000
_cell_angle_beta 159.747700
_cell_angle_gamma 90.000000
_cell_volume 2708.760157
_symmetry_space_group_name_H-M "C 2/C"
_symmetry_group_IT_number 15
_symmetry_cell_setting 'monoclinic'
loop_
_space_group_symop_operation_xyz
x,y,z
-x,y,1/2-z
-x,-y,-z
x,-y,1/2+z
1/2+x,1/2+y,z
1/2-x,1/2+y,1/2-z
1/2-x,1/2-y,-z
1/2+x,1/2-y,1/2+z
loop_
_atom_site_type_symbol
_atom_site_label
_atom_site_fract_x
_atom_site_fract_y
_atom_site_fract_z
Si Si1 0.000000 0.474205 0.250000
Si Si2 0.309927 0.868779 0.511067
Si Si3 0.337674 0.409752 0.869250
Si Si4 0.291547 0.284295 0.715404
Si Si5 0.025513 0.621971 0.897319
Si Si6 0.675086 0.623827 0.683428
Si Si7 0.479833 0.081055 0.057302
Si Si8 0.500000 0.698292 0.750000
O O1 0.853435 0.548575 0.099117
O O2 0.988355 0.414068 0.297228
O O3 0.401034 0.894033 0.541569
O O4 0.388071 0.768328 0.604810
O O5 0.119320 0.860236 0.325261
O O6 0.344002 0.365018 0.811449
O O7 0.337455 0.524518 0.863976
O O8 0.162932 0.382507 0.725994
O O9 0.510029 0.375085 0.061239
O O10 0.416701 0.210310 0.810637
O O11 0.180564 0.215062 0.647252
O O12 0.204094 0.338727 0.579055
O O13 0.008719 0.534724 0.926712
O O14 0.845134 0.617094 0.881881
#
# Coordination Sequence:
#
# PCOD9303104 Si02
#       8
#     4   8   8   8   8   8   8   4
#     4   9  22  44  64  93 122 174 228 269 334 381
#     4   9  20  40  67  93 126 171 207 281 341 385
#     4  11  23  39  61  93 131 171 219 262 316 405
#     4  12  22  40  64  89 129 178 210 266 335 382
#     4  11  23  42  66  89 127 172 218 275 331 381
#     4  11  23  39  60  95 127 174 217 259 322 403
#     4  11  22  42  64  91 135 170 213 274 329 385
#     4   9  18  42  64  91 130 158 218 267 340 401
#
# _framework density 20.673666000000001
#
# number of rings (size 3 to 8) (size 9 to 14) (size 15 to 20)
#    0.000    1.429    4.286    1.286    0.000    1.714 
#   10.286    1.429    0.000    0.000    0.000    0.000 
#    0.000    0.000    0.000    0.000    0.000    0.000 
#
# Total GULP energy -156075.949430 kJ/mol
# GULP energy per Si atom -5574.141051 kJ/mol
# Density = 2.062661 g / cm^3
# Si number density = 20.673666 Si / 1000 Ang^3
#
#
#
# Elastic Constant Matrix: (Units=GPa)
#
#
# Indices 1 2 3 4 5 6 
#
# 1 69.3113 24.4825 56.2893 0.0008 6.0146 0.0000
# 2 24.4825 70.6478 23.6056 -0.0016 -3.5336 0.0045
# 3 56.2893 23.6056 120.5079 0.0026 25.6490 0.0023
# 4 0.0008 -0.0016 0.0026 6.0627 0.0004 -14.3456
# 5 6.0146 -3.5336 25.6490 0.0004 35.9721 -0.0001
# 6 0.0000 0.0045 0.0023 -14.3456 -0.0001 41.5102
#
#
#
# Elastic Compliance Matrix: (Units=1/GPa)
#
#
# Indices 1 2 3 4 5 6 
#
# 1 0.025208 -0.004668 -0.011631 0.000015 0.003620 0.000006
# 2 -0.004668 0.016582 -0.001863 0.000009 0.003738 0.000002
# 3 -0.011631 -0.001863 0.016176 -0.000038 -0.009772 -0.000014
# 4 0.000015 0.000009 -0.000038 0.905016 0.000016 0.312766
# 5 0.003620 0.003738 -0.009772 0.000016 0.034529 0.000006
# 6 0.000006 0.000002 -0.000014 0.312766 0.000006 0.132180
#
#
# Mechanical properties :
#
#
# Convention : Reuss Voigt Hill
#
# Bulk Modulus (GPa) = 46.20756 52.13575 49.17165
# Shear Modulus (GPa) = 4.26174 27.11497 15.68835
#
# Velocity S-wave (km/s) = 1.43733 3.62549 2.75772
# Velocity P-wave (km/s) = 5.01538 6.54208 5.82893
#
# Compressibility (1/GPa) = 0.02164148
#
# Stress axis : x y z
#
# Youngs Moduli (GPa) = 39.66974 60.30633 61.82096
#
# Poissons Ratio (x) = 0.28154 0.71902
# Poissons Ratio (y) = 0.18520 0.11518
# Poissons Ratio (z) = 0.46138 0.11235
#
# Static dielectric constant tensor:
#      x y z
#    x 1.744230 0.000000 0.022580 
#    y 0.000000 1.759700 -0.000010 
#    z 0.022580 -0.000010 1.832960 
# 
# From -- ./inp_files/282133.got.cif
#   From: 2010.05.17/outbox.cif.g08.bks.cpg/sg15_142_cif.got.tgz:282133.got - 2010.06.03 18:47:42.
