data_PCOD9303051
_publ_section_title
;
Structure prediction by ZEFSAII (Michael W. Deem and Ramdas Pophale) SiO2 
 PCOD9303051
Probable space group: C 2/C
;
_chemical_formula_sum "Si O2"
_cell_formula_units_Z 48
_cell_length_a 14.233818
_cell_length_b 20.594626
_cell_length_c 11.008064
_cell_angle_alpha 90.000000
_cell_angle_beta 42.479004
_cell_angle_gamma 90.000000
_cell_volume 2179.193865
_symmetry_space_group_name_H-M "C 2/C"
_symmetry_group_IT_number 15
_symmetry_cell_setting 'monoclinic'
loop_
_space_group_symop_operation_xyz
x,y,z
-x,y,1/2-z
-x,-y,-z
x,-y,1/2+z
1/2+x,1/2+y,z
1/2-x,1/2+y,1/2-z
1/2-x,1/2-y,-z
1/2+x,1/2-y,1/2+z
loop_
_atom_site_type_symbol
_atom_site_label
_atom_site_fract_x
_atom_site_fract_y
_atom_site_fract_z
Si Si1 0.190100 0.678122 0.906135
Si Si2 0.596044 0.228314 0.407401
Si Si3 0.500000 0.185962 0.750000
Si Si4 0.500000 0.023385 0.250000
Si Si5 0.359497 0.075999 0.738200
Si Si6 0.417108 0.507976 0.954244
Si Si7 0.731821 0.125116 0.116883
O O1 0.315564 0.709861 0.713212
O O2 0.153737 0.607288 0.882735
O O3 0.235113 0.674071 0.001781
O O4 0.051483 0.720769 0.020097
O O5 0.565820 0.226125 0.578482
O O6 0.681076 0.164150 0.282759
O O7 0.386883 0.138795 0.795678
O O8 0.620252 0.072458 0.175254
O O9 0.510524 0.971809 0.353059
O O10 0.219191 0.038098 0.906365
O O11 0.500000 0.494884 0.750000
O O12 0.500000 0.500000 0.000000
O O13 0.369040 0.583100 0.000003
#
# Coordination Sequence:
#
# PCOD9303051 Si02
#       7
#     8   8   4   4   8   8   8
#     4  11  23  43  65 103 133 184 227 289 346 415
#     4  11  24  41  68  97 141 177 238 276 353 405
#     4   9  22  44  64  98 122 182 237 280 332 411
#     4   9  18  40  66  96 120 168 223 290 316 409
#     4   9  21  40  64  93 128 172 228 278 340 400
#     4  11  25  42  64 101 143 179 224 279 356 419
#     4  11  22  41  69  97 133 171 228 282 346 406
#
# _framework density 22.026492999999999
#
# number of rings (size 3 to 8) (size 9 to 14) (size 15 to 20)
#    0.000    1.667    1.667    1.500    2.333    6.000 
#    7.500    0.000    0.000    0.000    0.000    0.000 
#    0.000    0.000    0.000    0.000    0.000    0.000 
#
# Total GULP energy -133975.669129 kJ/mol
# GULP energy per Si atom -5582.319547 kJ/mol
# Density = 2.197636 g / cm^3
# Si number density = 22.026493 Si / 1000 Ang^3
#
#
#
# Elastic Constant Matrix: (Units=GPa)
#
#
# Indices 1 2 3 4 5 6 
#
# 1 58.8847 10.0195 22.4604 -0.0006 13.0300 0.0007
# 2 10.0195 65.0069 24.7085 -0.0001 6.1469 0.0002
# 3 22.4604 24.7085 87.3080 -0.0004 14.9407 0.0005
# 4 -0.0006 -0.0001 -0.0004 43.1154 0.0004 -4.7228
# 5 13.0300 6.1469 14.9407 0.0004 21.1376 -0.0005
# 6 0.0007 0.0002 0.0005 -4.7228 -0.0005 16.7298
#
#
#
# Elastic Compliance Matrix: (Units=1/GPa)
#
#
# Indices 1 2 3 4 5 6 
#
# 1 0.020645 -0.000969 -0.003307 0.000000 -0.010107 -0.000001
# 2 -0.000969 0.017342 -0.004434 0.000000 -0.001311 0.000000
# 3 -0.003307 -0.004434 0.014777 0.000000 -0.007117 0.000000
# 4 0.000000 0.000000 0.000000 0.023934 0.000000 0.006756
# 5 -0.010107 -0.001311 -0.007117 0.000000 0.058951 0.000002
# 6 -0.000001 0.000000 0.000000 0.006756 0.000002 0.061681
#
#
# Mechanical properties :
#
#
# Convention : Reuss Voigt Hill
#
# Bulk Modulus (GPa) = 28.29404 36.17515 32.23459
# Shear Modulus (GPa) = 22.07197 26.46399 24.26798
#
# Velocity S-wave (km/s) = 3.16897 3.46997 3.32288
# Velocity P-wave (km/s) = 5.12476 5.70205 5.42110
#
# Compressibility (1/GPa) = 0.03534314
#
# Stress axis : x y z
#
# Youngs Moduli (GPa) = 48.43739 57.66443 67.67181
#
# Poissons Ratio (x) = 0.05590 0.22380
# Poissons Ratio (y) = 0.04695 0.30006
# Poissons Ratio (z) = 0.16019 0.25568
#
# Static dielectric constant tensor:
#      x y z
#    x 1.916200 0.000000 -0.012840 
#    y 0.000000 1.826920 0.000000 
#    z -0.012840 0.000000 1.804450 
# 
# From -- ./inp_files/100031.got.cif
#   From: 2010.05.17/outbox.cif.g08.bks.cpg/sg15_51_cif.got.tgz:100031.got - 2010.06.03 18:47:42.
