data_PCOD9303807
_publ_section_title
;
Structure prediction by ZEFSAII (Michael W. Deem and Ramdas Pophale) SiO2 
 PCOD9303807
Probable space group: C 2/C
;
_chemical_formula_sum "Si O2"
_cell_formula_units_Z 56
_cell_length_a 25.809073
_cell_length_b 17.410614
_cell_length_c 9.307789
_cell_angle_alpha 90.000000
_cell_angle_beta 140.990475
_cell_angle_gamma 90.000000
_cell_volume 2632.655114
_symmetry_space_group_name_H-M "C 2/C"
_symmetry_group_IT_number 15
_symmetry_cell_setting 'monoclinic'
loop_
_space_group_symop_operation_xyz
x,y,z
-x,y,1/2-z
-x,-y,-z
x,-y,1/2+z
1/2+x,1/2+y,z
1/2-x,1/2+y,1/2-z
1/2-x,1/2-y,-z
1/2+x,1/2-y,1/2+z
loop_
_atom_site_type_symbol
_atom_site_label
_atom_site_fract_x
_atom_site_fract_y
_atom_site_fract_z
Si Si1 0.403574 0.319387 0.074162
Si Si2 0.584453 0.145704 0.341298
Si Si3 0.630659 0.541318 0.803905
Si Si4 0.589521 0.592466 0.400093
Si Si5 0.197853 0.535313 0.753808
Si Si6 0.790366 0.167145 0.063441
Si Si7 0.455579 0.063365 0.504439
O O1 0.500000 0.321845 0.250000
O O2 0.382763 0.230233 0.055812
O O3 0.386746 0.375557 0.168711
O O4 0.352209 0.347445 0.827050
O O5 0.500000 0.131301 0.250000
O O6 0.654010 0.082206 0.528949
O O7 0.556132 0.138226 0.116652
O O8 0.626713 0.552733 0.624119
O O9 0.572700 0.475224 0.747291
O O10 0.716810 0.510563 0.056116
O O11 0.500000 0.626178 0.250000
O O12 0.655180 0.649862 0.463912
O O13 0.131651 0.473530 0.653140
O O14 0.217174 0.604841 0.905081
O O15 0.750000 0.250000 0.000000
O O16 0.500000 0.000000 0.500000
O O17 0.500000 0.075640 0.750000
#
# Coordination Sequence:
#
# PCOD9303807 Si02
#       7
#     8   8   8   8   8   8   8
#     4  11  24  45  69  97 140 189 232 289 363 430
#     4  11  23  44  67  96 133 180 234 289 349 429
#     4  11  24  40  68 103 136 182 235 298 360 424
#     4  11  23  43  70 101 139 186 248 296 349 435
#     4  11  23  39  68  96 136 174 236 286 352 414
#     4  11  24  42  69 101 138 189 235 296 369 426
#     4  12  23  40  68  98 131 177 235 285 347 423
#
# _framework density 21.2713
#
# number of rings (size 3 to 8) (size 9 to 14) (size 15 to 20)
#    0.000    0.857    4.286    3.429    6.000    0.000 
#    0.000    7.857    0.000    0.857    0.000    0.000 
#    0.000    0.000    0.000    0.000    0.000    0.000 
#
# Total GULP energy -156271.535456 kJ/mol
# GULP energy per Si atom -5581.126266 kJ/mol
# Density = 2.122289 g / cm^3
# Si number density = 21.271300 Si / 1000 Ang^3
#
#
#
# Elastic Constant Matrix: (Units=GPa)
#
#
# Indices 1 2 3 4 5 6 
#
# 1 83.4966 43.9282 47.0002 0.0000 -17.1613 0.0000
# 2 43.9282 78.9264 25.3442 0.0000 -10.2323 0.0000
# 3 47.0002 25.3442 124.1774 0.0000 -21.5230 0.0000
# 4 0.0000 0.0000 0.0000 31.7015 0.0000 -4.3641
# 5 -17.1613 -10.2323 -21.5230 0.0000 42.9890 0.0000
# 6 0.0000 0.0000 0.0000 -4.3641 0.0000 10.5873
#
#
#
# Elastic Compliance Matrix: (Units=1/GPa)
#
#
# Indices 1 2 3 4 5 6 
#
# 1 0.020534 -0.009295 -0.005297 0.000000 0.003332 0.000000
# 2 -0.009295 0.017928 -0.000049 0.000000 0.000532 0.000000
# 3 -0.005297 -0.000049 0.010621 0.000000 0.003191 0.000000
# 4 0.000000 0.000000 0.000000 0.033442 0.000000 0.013785
# 5 0.003332 0.000532 0.003191 0.000000 0.026317 0.000000
# 6 0.000000 0.000000 0.000000 0.013785 0.000000 0.100135
#
#
# Mechanical properties :
#
#
# Convention : Reuss Voigt Hill
#
# Bulk Modulus (GPa) = 50.50348 57.68285 54.09317
# Shear Modulus (GPa) = 20.41998 28.41075 24.41537
#
# Velocity S-wave (km/s) = 3.10171 3.65860 3.39161
# Velocity P-wave (km/s) = 6.05158 6.70997 6.38926
#
# Compressibility (1/GPa) = 0.01980062
#
# Stress axis : x y z
#
# Youngs Moduli (GPa) = 48.70071 55.77800 94.15363
#
# Poissons Ratio (x) = 0.51848 0.49873
# Poissons Ratio (y) = 0.45269 0.00457
# Poissons Ratio (z) = 0.25797 0.00271
#
# Static dielectric constant tensor:
#      x y z
#    x 1.841180 0.000000 0.065230 
#    y 0.000000 1.767640 0.000000 
#    z 0.065230 0.000000 1.860320 
# 
# From -- ./inp_files/67189.got.cif
#   From: 2010.05.17/outbox.cif.g08.bks.cpg/sg15_34_cif.got.tgz:67189.got - 2010.06.03 18:47:42.
