data_PCOD9303503
_publ_section_title
;
Structure prediction by ZEFSAII (Michael W. Deem and Ramdas Pophale) SiO2 
 PCOD9303503
Probable space group: C 2/C
;
_chemical_formula_sum "Si O2"
_cell_formula_units_Z 40
_cell_length_a 26.290700
_cell_length_b 4.746195
_cell_length_c 12.899020
_cell_angle_alpha 90.000000
_cell_angle_beta 92.757971
_cell_angle_gamma 90.000000
_cell_volume 1607.685553
_symmetry_space_group_name_H-M "C 2/C"
_symmetry_group_IT_number 15
_symmetry_cell_setting 'monoclinic'
loop_
_space_group_symop_operation_xyz
x,y,z
-x,y,1/2-z
-x,-y,-z
x,-y,1/2+z
1/2+x,1/2+y,z
1/2-x,1/2+y,1/2-z
1/2-x,1/2-y,-z
1/2+x,1/2-y,1/2+z
loop_
_atom_site_type_symbol
_atom_site_label
_atom_site_fract_x
_atom_site_fract_y
_atom_site_fract_z
Si Si1 0.695243 0.208852 0.622351
Si Si2 0.209389 0.921864 0.928388
Si Si3 0.889440 0.536728 0.613549
Si Si4 0.940029 0.981998 0.009507
Si Si5 0.369964 0.305841 0.319169
O O1 0.753800 0.109721 0.643044
O O2 0.662223 0.931305 0.625997
O O3 0.688816 0.351079 0.508955
O O4 0.669710 0.435363 0.696678
O O5 0.165768 0.696142 0.897306
O O6 0.112092 0.347819 0.782984
O O7 0.250000 0.750000 0.000000
O O8 0.915632 0.320507 0.534241
O O9 0.925376 0.808652 0.602589
O O10 0.913508 0.088285 0.900688
O O11 0.000000 0.000000 0.000000
#
# Coordination Sequence:
#
# PCOD9303503 Si02
#       5
#     8   8   8   8   8
#     4  11  23  43  77 110 157 209 247 330 379 482
#     4  11  22  44  78 108 158 208 264 309 397 469
#     4  12  28  48  83 118 156 212 267 331 405 486
#     4  12  27  51  82 114 157 209 268 342 418 470
#     4  12  25  50  77 115 162 204 267 328 401 472
#
# _framework density 24.880488
#
# number of rings (size 3 to 8) (size 9 to 14) (size 15 to 20)
#    0.000    0.400    4.000    4.200    2.800    0.800 
#    3.600    2.000    4.400    0.000    0.000    0.000 
#    0.000    0.000    0.000    0.000    0.000    0.000 
#
# Total GULP energy -111840.916737 kJ/mol
# GULP energy per Si atom -5592.045837 kJ/mol
# Density = 2.482386 g / cm^3
# Si number density = 24.880488 Si / 1000 Ang^3
#
#
#
# Elastic Constant Matrix: (Units=GPa)
#
#
# Indices 1 2 3 4 5 6 
#
# 1 211.1473 82.8033 68.9690 0.0000 11.4175 0.0000
# 2 82.8033 196.5727 50.3688 0.0000 1.0044 0.0000
# 3 68.9690 50.3688 107.7661 0.0000 -1.8231 0.0000
# 4 0.0000 0.0000 0.0000 42.6643 0.0000 -14.5131
# 5 11.4175 1.0044 -1.8231 0.0000 26.0992 0.0000
# 6 0.0000 0.0000 0.0000 -14.5131 0.0000 42.0616
#
#
#
# Elastic Compliance Matrix: (Units=1/GPa)
#
#
# Indices 1 2 3 4 5 6 
#
# 1 0.006818 -0.001959 -0.003501 0.000000 -0.003152 0.000000
# 2 -0.001959 0.006346 -0.001704 0.000000 0.000494 0.000000
# 3 -0.003501 -0.001704 0.012358 0.000000 0.002461 0.000000
# 4 0.000000 0.000000 0.000000 0.026556 0.000000 0.009163
# 5 -0.003152 0.000494 0.002461 0.000000 0.039847 0.000000
# 6 0.000000 0.000000 0.000000 0.009163 0.000000 0.026936
#
#
# Mechanical properties :
#
#
# Convention : Reuss Voigt Hill
#
# Bulk Modulus (GPa) = 89.33266 102.19648 95.76457
# Shear Modulus (GPa) = 36.51687 43.05467 39.78577
#
# Velocity S-wave (km/s) = 3.83520 4.16439 4.00318
# Velocity P-wave (km/s) = 7.45616 8.01792 7.74214
#
# Compressibility (1/GPa) = 0.01119411
#
# Stress axis : x y z
#
# Youngs Moduli (GPa) = 146.66297 157.56752 80.91628
#
# Poissons Ratio (x) = 0.30865 0.28332
# Poissons Ratio (y) = 0.28729 0.13791
# Poissons Ratio (z) = 0.51353 0.26854
#
# Static dielectric constant tensor:
#      x y z
#    x 1.994290 0.000000 0.018310 
#    y 0.000000 2.002570 0.000000 
#    z 0.018310 0.000000 2.224780 
# 
# From -- ./inp_files/170912.got.cif
#   From: 2010.05.17/outbox.cif.g08.bks.cpg/sg15_86_cif.got.tgz:170912.got - 2010.06.03 18:47:42.
