data_PCOD9303890
_publ_section_title
;
Structure prediction by ZEFSAII (Michael W. Deem and Ramdas Pophale) SiO2 
 PCOD9303890
Probable space group: C 2/C
;
_chemical_formula_sum "Si O2"
_cell_formula_units_Z 52
_cell_length_a 27.123937
_cell_length_b 9.121277
_cell_length_c 10.556767
_cell_angle_alpha 90.000000
_cell_angle_beta 57.017437
_cell_angle_gamma 90.000000
_cell_volume 2190.869524
_symmetry_space_group_name_H-M "C 2/C"
_symmetry_group_IT_number 15
_symmetry_cell_setting 'monoclinic'
loop_
_space_group_symop_operation_xyz
x,y,z
-x,y,1/2-z
-x,-y,-z
x,-y,1/2+z
1/2+x,1/2+y,z
1/2-x,1/2+y,1/2-z
1/2-x,1/2-y,-z
1/2+x,1/2-y,1/2+z
loop_
_atom_site_type_symbol
_atom_site_label
_atom_site_fract_x
_atom_site_fract_y
_atom_site_fract_z
Si Si1 0.500000 0.007665 0.750000
Si Si2 0.080669 0.765651 0.586016
Si Si3 0.614001 0.553692 0.644921
Si Si4 0.334482 0.621189 0.198569
Si Si5 0.799810 0.610328 0.069123
Si Si6 0.151970 0.438606 0.268972
Si Si7 0.446457 0.184004 0.141091
O O1 0.554959 0.116481 0.680890
O O2 0.499912 0.903200 0.871851
O O3 0.150731 0.735739 0.478242
O O4 0.047448 0.770294 0.498191
O O5 0.072711 0.915287 0.670920
O O6 0.651823 0.577436 0.464548
O O7 0.648845 0.504184 0.722821
O O8 0.579170 0.701400 0.723012
O O9 0.266245 0.659526 0.314431
O O10 0.368618 0.771127 0.185480
O O11 0.814260 0.484490 0.150611
O O12 0.808671 0.557238 0.912931
O O13 0.102177 0.560851 0.321773
#
# Coordination Sequence:
#
# PCOD9303890 Si02
#       7
#     4   8   8   8   8   8   8
#     4  12  24  50  78  98 132 184 228 294 358 408
#     4  11  25  47  70 103 141 179 234 293 343 410
#     4  12  25  47  69 109 144 182 230 286 350 414
#     4  12  25  41  72 100 150 192 223 282 347 408
#     4  11  23  40  70 102 142 186 239 276 337 414
#     4  11  23  43  67 100 142 186 234 284 332 415
#     4  11  25  47  73 105 135 178 242 284 346 418
#
# _framework density 23.734869
#
# number of rings (size 3 to 8) (size 9 to 14) (size 15 to 20)
#    0.000    0.615    4.615    2.769    4.308    0.615 
#    2.769    5.385    0.000    0.000    0.000    0.000 
#    0.000    0.000    0.000    0.000    0.000    0.000 
#
# Total GULP energy -145484.095176 kJ/mol
# GULP energy per Si atom -5595.542122 kJ/mol
# Density = 2.368085 g / cm^3
# Si number density = 23.734869 Si / 1000 Ang^3
#
#
#
# Elastic Constant Matrix: (Units=GPa)
#
#
# Indices 1 2 3 4 5 6 
#
# 1 64.9167 42.5987 29.9431 0.0000 3.8388 0.0000
# 2 42.5987 114.4062 36.5832 0.0000 -6.5624 0.0000
# 3 29.9431 36.5832 123.9519 0.0000 27.4234 0.0000
# 4 0.0000 0.0000 0.0000 27.0874 0.0000 10.2023
# 5 3.8388 -6.5624 27.4234 0.0000 41.5963 0.0000
# 6 0.0000 0.0000 0.0000 10.2023 0.0000 31.2047
#
#
#
# Elastic Compliance Matrix: (Units=1/GPa)
#
#
# Indices 1 2 3 4 5 6 
#
# 1 0.021476 -0.007179 -0.002787 0.000000 -0.001277 0.000000
# 2 -0.007179 0.012649 -0.003029 0.000000 0.004655 0.000000
# 3 -0.002787 -0.003029 0.011337 0.000000 -0.007695 0.000000
# 4 0.000000 0.000000 0.000000 0.042102 0.000000 -0.013765
# 5 -0.001277 0.004655 -0.007695 0.000000 0.029966 0.000000
# 6 0.000000 0.000000 0.000000 -0.013765 0.000000 0.036547
#
#
# Mechanical properties :
#
#
# Convention : Reuss Voigt Hill
#
# Bulk Modulus (GPa) = 51.35106 57.94719 54.64913
# Shear Modulus (GPa) = 26.80137 32.92101 29.86119
#
# Velocity S-wave (km/s) = 3.36400 3.72833 3.55084
# Velocity P-wave (km/s) = 6.06390 6.55754 6.31554
#
# Compressibility (1/GPa) = 0.01947379
#
# Stress axis : x y z
#
# Youngs Moduli (GPa) = 46.56383 79.05542 88.20435
#
# Poissons Ratio (x) = 0.56751 0.24579
# Poissons Ratio (y) = 0.33427 0.26718
# Poissons Ratio (z) = 0.12976 0.23947
#
# Static dielectric constant tensor:
#      x y z
#    x 1.945770 0.000000 0.037630 
#    y 0.000000 1.910600 0.000000 
#    z 0.037630 0.000000 1.930140 
# 
# From -- ./inp_files/121834.got.cif
#   From: 2010.05.17/outbox.cif.g08.bks.cpg/sg15_61_cif.got.tgz:121834.got - 2010.06.03 18:47:42.
