data_PCOD9303521
_publ_section_title
;
Structure prediction by ZEFSAII (Michael W. Deem and Ramdas Pophale) SiO2 
 PCOD9303521
Probable space group: C 2/C
;
_chemical_formula_sum "Si O2"
_cell_formula_units_Z 56
_cell_length_a 19.882033
_cell_length_b 14.757615
_cell_length_c 8.435131
_cell_angle_alpha 90.000000
_cell_angle_beta 84.372305
_cell_angle_gamma 90.000000
_cell_volume 2463.034459
_symmetry_space_group_name_H-M "C 2/C"
_symmetry_group_IT_number 15
_symmetry_cell_setting 'monoclinic'
loop_
_space_group_symop_operation_xyz
x,y,z
-x,y,1/2-z
-x,-y,-z
x,-y,1/2+z
1/2+x,1/2+y,z
1/2-x,1/2+y,1/2-z
1/2-x,1/2-y,-z
1/2+x,1/2-y,1/2+z
loop_
_atom_site_type_symbol
_atom_site_label
_atom_site_fract_x
_atom_site_fract_y
_atom_site_fract_z
Si Si1 0.835897 0.590795 0.300018
Si Si2 0.446508 0.706137 0.473266
Si Si3 0.000000 0.354023 0.250000
Si Si4 0.923018 0.471986 0.063988
Si Si5 0.798971 0.766323 0.139657
Si Si6 0.789714 0.967107 0.098102
Si Si7 0.000000 0.089235 0.750000
Si Si8 0.383258 0.555233 0.294026
O O1 0.875461 0.553737 0.134833
O O2 0.889016 0.587217 0.433263
O O3 0.798948 0.685929 0.268662
O O4 0.779454 0.518412 0.364565
O O5 0.487099 0.791279 0.403260
O O6 0.375843 0.735830 0.563072
O O7 0.483480 0.648087 0.598925
O O8 0.424895 0.644248 0.328074
O O9 0.935147 0.413378 0.220921
O O10 0.000000 0.500000 0.000000
O O11 0.787740 0.871414 0.193433
O O12 0.750000 0.750000 0.000000
O O13 0.850525 0.033991 0.134309
O O14 0.815615 0.942207 0.917634
O O15 0.063705 0.025874 0.695779
#
# Coordination Sequence:
#
# PCOD9303521 Si02
#       8
#     8   8   4   8   8   8   4   8
#     4  12  25  47  75 102 143 192 235 299 360 421
#     4  11  26  42  68 104 139 182 228 289 354 419
#     4  12  27  42  69 108 138 178 240 295 337 436
#     4  12  25  47  72 105 143 185 239 295 359 422
#     4  11  24  46  73  98 139 186 233 289 357 419
#     4  11  25  45  71 101 135 185 234 290 345 436
#     4  12  23  44  69  98 144 186 222 293 359 420
#     4  11  22  45  68 100 141 178 231 280 354 420
#
# _framework density 22.736180999999998
#
# number of rings (size 3 to 8) (size 9 to 14) (size 15 to 20)
#    0.000    0.571    4.286    5.143    6.000    0.000 
#    0.000    1.429    0.000    0.000    0.000    0.000 
#    0.000    0.000    0.000    0.000    0.000    0.000 
#
# Total GULP energy -156423.846468 kJ/mol
# GULP energy per Si atom -5586.565945 kJ/mol
# Density = 2.268443 g / cm^3
# Si number density = 22.736181 Si / 1000 Ang^3
#
#
#
# Elastic Constant Matrix: (Units=GPa)
#
#
# Indices 1 2 3 4 5 6 
#
# 1 112.0701 23.6998 9.2722 0.0000 1.6846 0.0000
# 2 23.6998 102.2667 13.9150 0.0000 5.5006 0.0000
# 3 9.2722 13.9150 41.8307 0.0000 16.3310 0.0000
# 4 0.0000 0.0000 0.0000 29.9937 0.0000 -10.5113
# 5 1.6846 5.5006 16.3310 0.0000 48.5068 0.0000
# 6 0.0000 0.0000 0.0000 -10.5113 0.0000 18.0289
#
#
#
# Elastic Compliance Matrix: (Units=1/GPa)
#
#
# Indices 1 2 3 4 5 6 
#
# 1 0.009472 -0.002000 -0.001605 0.000000 0.000438 0.000000
# 2 -0.002000 0.010664 -0.003062 0.000000 -0.000109 0.000000
# 3 -0.001605 -0.003062 0.028925 0.000000 -0.009335 0.000000
# 4 0.000000 0.000000 0.000000 0.041902 0.000000 0.024430
# 5 0.000438 -0.000109 -0.009335 0.000000 0.023756 0.000000
# 6 0.000000 0.000000 0.000000 0.024430 0.000000 0.069710
#
#
# Mechanical properties :
#
#
# Convention : Reuss Voigt Hill
#
# Bulk Modulus (GPa) = 27.99005 38.88239 33.43622
# Shear Modulus (GPa) = 23.84673 33.25790 28.55231
#
# Velocity S-wave (km/s) = 3.24210 3.82877 3.54758
# Velocity P-wave (km/s) = 5.13347 6.05679 5.61414
#
# Compressibility (1/GPa) = 0.03572698
#
# Stress axis : x y z
#
# Youngs Moduli (GPa) = 105.57186 93.77039 34.57248
#
# Poissons Ratio (x) = 0.18757 0.05550
# Poissons Ratio (y) = 0.21117 0.10584
# Poissons Ratio (z) = 0.16948 0.28708
#
# Static dielectric constant tensor:
#      x y z
#    x 1.946290 0.000000 0.187370 
#    y 0.000000 1.889750 0.000000 
#    z 0.187370 0.000000 2.089030 
# 
# From -- ./inp_files/55667.got.cif
#   From: 2010.05.17/outbox.cif.g08.bks.cpg/sg15_28_cif.got.tgz:55667.got - 2010.06.03 18:47:42.
