data_PCOD9303265
_publ_section_title
;
Structure prediction by ZEFSAII (Michael W. Deem and Ramdas Pophale) SiO2 
 PCOD9303265
Probable space group: C 2/C
;
_chemical_formula_sum "Si O2"
_cell_formula_units_Z 56
_cell_length_a 28.748608
_cell_length_b 10.680276
_cell_length_c 9.655969
_cell_angle_alpha 90.000000
_cell_angle_beta 119.742678
_cell_angle_gamma 90.000000
_cell_volume 2574.222396
_symmetry_space_group_name_H-M "C 2/C"
_symmetry_group_IT_number 15
_symmetry_cell_setting 'monoclinic'
loop_
_space_group_symop_operation_xyz
x,y,z
-x,y,1/2-z
-x,-y,-z
x,-y,1/2+z
1/2+x,1/2+y,z
1/2-x,1/2+y,1/2-z
1/2-x,1/2-y,-z
1/2+x,1/2-y,1/2+z
loop_
_atom_site_type_symbol
_atom_site_label
_atom_site_fract_x
_atom_site_fract_y
_atom_site_fract_z
Si Si1 0.703084 0.875425 0.679008
Si Si2 0.867035 0.023223 0.332391
Si Si3 0.321915 0.223394 0.653455
Si Si4 0.263920 0.372603 0.263282
Si Si5 0.608359 0.022309 0.607911
Si Si6 0.056328 0.397523 0.761620
Si Si7 0.562153 0.602256 0.801464
O O1 0.679156 0.806337 0.509673
O O2 0.738375 0.767788 0.804841
O O3 0.731421 0.003184 0.671737
O O4 0.655097 0.921580 0.702403
O O5 0.831877 0.132921 0.208151
O O6 0.900722 0.077418 0.510326
O O7 0.824693 0.920948 0.329263
O O8 0.909593 0.970942 0.283432
O O9 0.268193 0.161568 0.640953
O O10 0.371299 0.150757 0.796748
O O11 0.598791 0.043717 0.432240
O O12 0.559901 0.965755 0.621165
O O13 0.063527 0.248775 0.764451
O O14 0.000000 0.419710 0.750000
O O15 0.500000 0.570040 0.750000
#
# Coordination Sequence:
#
# PCOD9303265 Si02
#       7
#     8   8   8   8   8   8   8
#     4  11  23  42  66  95 140 175 227 277 340 432
#     4  12  24  45  73  97 143 190 226 290 365 400
#     4  11  23  43  65  96 142 178 222 284 341 430
#     4  11  24  40  66 101 130 181 225 279 340 422
#     4  11  22  43  65  97 133 180 221 284 357 409
#     4  11  23  43  68  97 133 175 236 297 350 414
#     4  11  26  46  70 103 138 182 243 294 347 421
#
# _framework density 21.754144
#
# number of rings (size 3 to 8) (size 9 to 14) (size 15 to 20)
#    0.000    0.857    4.286    3.000    2.000    0.000 
#    0.000    2.857    0.000    0.000    0.000    0.000 
#    0.000    0.000    0.000    0.000    0.000    0.000 
#
# Total GULP energy -156136.494240 kJ/mol
# GULP energy per Si atom -5576.303366 kJ/mol
# Density = 2.170463 g / cm^3
# Si number density = 21.754144 Si / 1000 Ang^3
#
#
#
# Elastic Constant Matrix: (Units=GPa)
#
#
# Indices 1 2 3 4 5 6 
#
# 1 123.1689 53.3001 11.7812 0.0000 -9.3259 0.0000
# 2 53.3001 131.5242 20.7636 0.0000 -8.2783 0.0000
# 3 11.7812 20.7636 57.3614 0.0000 -8.2753 0.0000
# 4 0.0000 0.0000 0.0000 23.4564 0.0000 -1.8479
# 5 -9.3259 -8.2783 -8.2753 0.0000 28.3556 0.0000
# 6 0.0000 0.0000 0.0000 -1.8479 0.0000 38.4666
#
#
#
# Elastic Compliance Matrix: (Units=1/GPa)
#
#
# Indices 1 2 3 4 5 6 
#
# 1 0.009978 -0.003858 -0.000357 0.000000 0.002051 0.000000
# 2 -0.003858 0.009623 -0.002577 0.000000 0.000788 0.000000
# 3 -0.000357 -0.002577 0.019119 0.000000 0.004710 0.000000
# 4 0.000000 0.000000 0.000000 0.042794 0.000000 0.002056
# 5 0.002051 0.000788 0.004710 0.000000 0.037546 0.000000
# 6 0.000000 0.000000 0.000000 0.002056 0.000000 0.026095
#
#
# Mechanical properties :
#
#
# Convention : Reuss Voigt Hill
#
# Bulk Modulus (GPa) = 39.78408 53.74935 46.76672
# Shear Modulus (GPa) = 29.91892 33.13635 31.52763
#
# Velocity S-wave (km/s) = 3.71255 3.90708 3.81106
# Velocity P-wave (km/s) = 6.05848 6.71677 6.39610
#
# Compressibility (1/GPa) = 0.02513568
#
# Stress axis : x y z
#
# Youngs Moduli (GPa) = 100.22119 103.91607 52.30395
#
# Poissons Ratio (x) = 0.40092 0.01867
# Poissons Ratio (y) = 0.38666 0.13480
# Poissons Ratio (z) = 0.03577 0.26782
#
# Static dielectric constant tensor:
#      x y z
#    x 1.835030 0.000000 0.024150 
#    y 0.000000 1.827850 0.000000 
#    z 0.024150 0.000000 1.831410 
# 
# From -- ./inp_files/65531.got.cif
#   From: 2010.05.17/outbox.cif.g08.bks.cpg/sg15_33_cif.got.tgz:65531.got - 2010.06.03 18:47:42.
