data_PCOD9303653
_publ_section_title
;
Structure prediction by ZEFSAII (Michael W. Deem and Ramdas Pophale) SiO2 
 PCOD9303653
Probable space group: C 2/C
;
_chemical_formula_sum "Si O2"
_cell_formula_units_Z 44
_cell_length_a 17.576836
_cell_length_b 14.740076
_cell_length_c 22.418071
_cell_angle_alpha 90.000000
_cell_angle_beta 19.616822
_cell_angle_gamma 90.000000
_cell_volume 1949.963183
_symmetry_space_group_name_H-M "C 2/C"
_symmetry_group_IT_number 15
_symmetry_cell_setting 'monoclinic'
loop_
_space_group_symop_operation_xyz
x,y,z
-x,y,1/2-z
-x,-y,-z
x,-y,1/2+z
1/2+x,1/2+y,z
1/2-x,1/2+y,1/2-z
1/2-x,1/2-y,-z
1/2+x,1/2-y,1/2+z
loop_
_atom_site_type_symbol
_atom_site_label
_atom_site_fract_x
_atom_site_fract_y
_atom_site_fract_z
Si Si1 0.208691 0.871059 0.757076
Si Si2 0.904189 0.007482 0.264848
Si Si3 0.367550 0.813758 0.140017
Si Si4 0.000000 0.449540 0.750000
Si Si5 0.924790 0.488237 0.175224
Si Si6 0.110802 0.827577 0.068319
O O1 0.078516 0.938310 0.808703
O O2 0.438588 0.841680 0.550938
O O3 0.073479 0.781060 0.872957
O O4 0.259811 0.930454 0.777873
O O5 0.645160 0.991048 0.472059
O O6 0.000000 0.062610 0.250000
O O7 0.030100 0.912177 0.167753
O O8 0.343094 0.893024 0.207595
O O9 0.120963 0.797219 0.291946
O O10 0.996963 0.507474 0.691130
O O11 0.208413 0.379983 0.605626
O O12 0.250000 0.750000 0.000000
#
# Coordination Sequence:
#
# PCOD9303653 Si02
#       6
#     8   8   8   4   8   8
#     4  11  24  46  71  99 137 190 232 284 346 424
#     4  11  22  47  71  93 139 188 226 281 355 415
#     4  11  25  44  73 101 137 191 236 281 349 423
#     4  12  28  38  66 104 136 180 226 304 348 396
#     4  11  23  48  68  99 142 187 235 278 357 418
#     4  12  26  41  66 106 139 177 230 295 350 411
#
# _framework density 22.564527999999999
#
# number of rings (size 3 to 8) (size 9 to 14) (size 15 to 20)
#    0.000    0.727    5.455    2.182    6.364    2.182 
#    1.636    1.818    0.000    0.000    0.000    0.000 
#    0.000    0.000    0.000    0.000    0.000    0.000 
#
# Total GULP energy -122866.199798 kJ/mol
# GULP energy per Si atom -5584.827264 kJ/mol
# Density = 2.251317 g / cm^3
# Si number density = 22.564528 Si / 1000 Ang^3
#
#
#
# Elastic Constant Matrix: (Units=GPa)
#
#
# Indices 1 2 3 4 5 6 
#
# 1 143.4635 69.6422 2.1877 -0.0903 1.8431 0.0803
# 2 69.6422 148.4384 15.2421 0.2593 -0.9139 -0.2700
# 3 2.1877 15.2421 33.3836 -0.2691 -8.9636 0.1616
# 4 -0.0903 0.2593 -0.2691 33.5100 0.1077 -2.8479
# 5 1.8431 -0.9139 -8.9636 0.1077 28.0579 -0.1249
# 6 0.0803 -0.2700 0.1616 -2.8479 -0.1249 29.3823
#
#
#
# Elastic Compliance Matrix: (Units=1/GPa)
#
#
# Indices 1 2 3 4 5 6 
#
# 1 0.009092 -0.004405 0.001331 0.000065 -0.000316 -0.000068
# 2 -0.004405 0.009222 -0.004118 -0.000105 -0.000725 0.000106
# 3 0.001331 -0.004118 0.034664 0.000265 0.010851 -0.000160
# 4 0.000065 -0.000105 0.000265 0.030093 -0.000025 0.002914
# 5 -0.000316 -0.000725 0.010851 -0.000025 0.039105 0.000098
# 6 -0.000068 0.000106 -0.000160 0.002914 0.000098 0.034319
#
#
# Mechanical properties :
#
#
# Convention : Reuss Voigt Hill
#
# Bulk Modulus (GPa) = 25.90952 55.49216 40.70084
# Shear Modulus (GPa) = 27.21186 34.07093 30.64139
#
# Velocity S-wave (km/s) = 3.47646 3.89000 3.68903
# Velocity P-wave (km/s) = 5.25563 6.69494 6.01847
#
# Compressibility (1/GPa) = 0.03859585
#
# Stress axis : x y z
#
# Youngs Moduli (GPa) = 109.98108 108.43505 28.84825
#
# Poissons Ratio (x) = 0.47763 -0.03840
# Poissons Ratio (y) = 0.48444 0.11880
# Poissons Ratio (z) = -0.14641 0.44653
#
# Static dielectric constant tensor:
#      x y z
#    x 1.872330 -0.000010 -0.032430 
#    y -0.000010 1.830400 0.000080 
#    z -0.032430 0.000080 1.946650 
# 
# From -- ./inp_files/47406.got.cif
#   From: 2010.05.17/outbox.cif.g08.bks.cpg/sg15_24_cif.got.tgz:47406.got - 2010.06.03 18:47:42.
