data_PCOD9303644
_publ_section_title
;
Structure prediction by ZEFSAII (Michael W. Deem and Ramdas Pophale) SiO2 
 PCOD9303644
Probable space group: C 2/C
;
_chemical_formula_sum "Si O2"
_cell_formula_units_Z 56
_cell_length_a 11.622954
_cell_length_b 14.309690
_cell_length_c 18.102247
_cell_angle_alpha 90.000000
_cell_angle_beta 116.672932
_cell_angle_gamma 90.000000
_cell_volume 2690.384798
_symmetry_space_group_name_H-M "C 2/C"
_symmetry_group_IT_number 15
_symmetry_cell_setting 'monoclinic'
loop_
_space_group_symop_operation_xyz
x,y,z
-x,y,1/2-z
-x,-y,-z
x,-y,1/2+z
1/2+x,1/2+y,z
1/2-x,1/2+y,1/2-z
1/2-x,1/2-y,-z
1/2+x,1/2-y,1/2+z
loop_
_atom_site_type_symbol
_atom_site_label
_atom_site_fract_x
_atom_site_fract_y
_atom_site_fract_z
Si Si1 0.331874 0.898610 0.320681
Si Si2 0.724478 0.318819 0.058963
Si Si3 0.759396 0.353416 0.466593
Si Si4 0.550584 0.397399 0.512913
Si Si5 0.642203 0.282562 0.766450
Si Si6 0.253360 0.560375 0.300044
Si Si7 0.101019 0.495736 0.892755
O O1 0.277352 0.869213 0.384931
O O2 0.375884 0.802000 0.296291
O O3 0.459195 0.963283 0.362510
O O4 0.237088 0.959915 0.239846
O O5 0.786557 0.268461 0.146476
O O6 0.796300 0.418689 0.069225
O O7 0.750000 0.250000 0.000000
O O8 0.571127 0.330453 0.020217
O O9 0.750000 0.250000 0.500000
O O10 0.625142 0.391671 0.457648
O O11 0.867360 0.414871 0.539501
O O12 0.500000 0.500000 0.500000
O O13 0.642741 0.397424 0.611184
O O14 0.500000 0.317714 0.750000
O O15 0.734291 0.362878 0.760461
O O16 0.132857 0.545267 0.320492
#
# Coordination Sequence:
#
# PCOD9303644 Si02
#       7
#     8   8   8   8   8   8   8
#     4  12  23  45  71 103 142 183 237 285 352 421
#     4  12  25  42  75 103 133 186 243 279 347 423
#     4  11  26  42  69 106 141 187 230 288 354 413
#     4  11  22  47  68  94 142 184 225 284 348 417
#     4  12  24  45  71 103 138 184 237 292 343 417
#     4  11  24  41  69 104 137 175 231 294 350 396
#     4  11  23  47  70 100 142 187 228 292 347 423
#
# _framework density 20.814867
#
# number of rings (size 3 to 8) (size 9 to 14) (size 15 to 20)
#    0.000    0.571    5.714    3.429    4.000    2.286 
#    0.000    3.571    0.000    0.000    0.000    0.000 
#    0.000    0.000    0.000    0.000    0.000    0.000 
#
# Total GULP energy -156184.656805 kJ/mol
# GULP energy per Si atom -5578.023457 kJ/mol
# Density = 2.076749 g / cm^3
# Si number density = 20.814867 Si / 1000 Ang^3
#
#
#
# Elastic Constant Matrix: (Units=GPa)
#
#
# Indices 1 2 3 4 5 6 
#
# 1 128.6920 28.9143 52.3315 0.0000 -12.0522 0.0000
# 2 28.9143 68.7986 15.6260 0.0000 -11.3505 0.0000
# 3 52.3315 15.6260 101.8702 0.0000 -23.8458 0.0000
# 4 0.0000 0.0000 0.0000 17.6336 0.0000 -11.6523
# 5 -12.0522 -11.3505 -23.8458 0.0000 39.9332 0.0000
# 6 0.0000 0.0000 0.0000 -11.6523 0.0000 37.6463
#
#
#
# Elastic Compliance Matrix: (Units=1/GPa)
#
#
# Indices 1 2 3 4 5 6 
#
# 1 0.010523 -0.003405 -0.005076 0.000000 -0.000823 0.000000
# 2 -0.003405 0.016563 0.000082 0.000000 0.003729 0.000000
# 3 -0.005076 0.000082 0.014018 0.000000 0.006862 0.000000
# 4 0.000000 0.000000 0.000000 0.071291 0.000000 0.022066
# 5 -0.000823 0.003729 0.006862 0.000000 0.029951 0.000000
# 6 0.000000 0.000000 0.000000 0.022066 0.000000 0.033393
#
#
# Mechanical properties :
#
#
# Convention : Reuss Voigt Hill
#
# Bulk Modulus (GPa) = 41.14560 54.78938 47.96749
# Shear Modulus (GPa) = 24.92044 32.54188 28.73116
#
# Velocity S-wave (km/s) = 3.46387 3.95827 3.71930
# Velocity P-wave (km/s) = 5.98400 6.87531 6.44508
#
# Compressibility (1/GPa) = 0.02430393
#
# Stress axis : x y z
#
# Youngs Moduli (GPa) = 95.03404 60.37554 71.33892
#
# Poissons Ratio (x) = 0.20560 0.36210
# Poissons Ratio (y) = 0.32362 -0.00582
# Poissons Ratio (z) = 0.48238 -0.00492
#
# Static dielectric constant tensor:
#      x y z
#    x 1.776910 0.000000 0.001970 
#    y 0.000000 1.746150 0.000000 
#    z 0.001970 0.000000 1.616770 
# 
# From -- ./inp_files/197930.got.cif
#   From: 2010.05.17/outbox.cif.g08.bks.cpg/sg15_99_cif.got.tgz:197930.got - 2010.06.03 18:47:42.
