data_PCOD9303645
_publ_section_title
;
Structure prediction by ZEFSAII (Michael W. Deem and Ramdas Pophale) SiO2 
 PCOD9303645
Probable space group: C 2/C
;
_chemical_formula_sum "Si O2"
_cell_formula_units_Z 32
_cell_length_a 17.007235
_cell_length_b 7.486486
_cell_length_c 27.859893
_cell_angle_alpha 90.000000
_cell_angle_beta 157.966261
_cell_angle_gamma 90.000000
_cell_volume 1330.757818
_symmetry_space_group_name_H-M "C 2/C"
_symmetry_group_IT_number 15
_symmetry_cell_setting 'monoclinic'
loop_
_space_group_symop_operation_xyz
x,y,z
-x,y,1/2-z
-x,-y,-z
x,-y,1/2+z
1/2+x,1/2+y,z
1/2-x,1/2+y,1/2-z
1/2-x,1/2-y,-z
1/2+x,1/2-y,1/2+z
loop_
_atom_site_type_symbol
_atom_site_label
_atom_site_fract_x
_atom_site_fract_y
_atom_site_fract_z
Si Si1 0.541406 0.234732 0.427543
Si Si2 0.274882 0.354719 0.563860
Si Si3 0.717541 0.222417 0.829464
Si Si4 0.511794 0.157437 0.308613
O O1 0.387107 0.260558 0.384045
O O2 0.438776 0.249437 0.316693
O O3 0.738898 0.366828 0.542670
O O4 0.648286 0.039027 0.490581
O O5 0.250000 0.250000 0.500000
O O6 0.527012 0.360649 0.712775
O O7 0.199442 0.256147 0.569946
O O8 0.612833 0.026879 0.767034
O O9 0.500000 0.251094 0.250000
#
# Coordination Sequence:
#
# PCOD9303645 Si02
#       4
#     8   8   8   8
#     4  11  26  43  73 105 137 188 233 287 355 414
#     4  11  22  47  69 105 142 179 236 292 346 426
#     4  11  24  45  70 102 140 185 228 291 355 403
#     4  11  24  48  67 104 139 183 238 288 339 424
#
# _framework density 24.046448000000002
#
# number of rings (size 3 to 8) (size 9 to 14) (size 15 to 20)
#    0.000    1.000    5.000    0.750    3.500    7.000 
#    0.000    0.000    0.000    0.000    0.000    0.000 
#    0.000    0.000    0.000    0.000    0.000    0.000 
#
# Total GULP energy -89503.049116 kJ/mol
# GULP energy per Si atom -5593.940570 kJ/mol
# Density = 2.399172 g / cm^3
# Si number density = 24.046448 Si / 1000 Ang^3
#
#
#
# Elastic Constant Matrix: (Units=GPa)
#
#
# Indices 1 2 3 4 5 6 
#
# 1 319.3884 68.7551 82.1555 0.0004 -5.4096 0.0000
# 2 68.7551 105.1921 29.9721 0.0005 -10.7355 0.0000
# 3 82.1555 29.9721 52.3295 0.0082 -15.6084 -0.0021
# 4 0.0004 0.0005 0.0082 39.0138 -0.0020 -6.7282
# 5 -5.4096 -10.7355 -15.6084 -0.0020 62.7686 0.0003
# 6 0.0000 0.0000 -0.0021 -6.7282 0.0003 27.0342
#
#
#
# Elastic Compliance Matrix: (Units=1/GPa)
#
#
# Indices 1 2 3 4 5 6 
#
# 1 0.005603 -0.001420 -0.008545 0.000002 -0.001885 0.000000
# 2 -0.001420 0.011727 -0.004241 0.000001 0.000829 0.000000
# 3 -0.008545 -0.004241 0.037284 -0.000007 0.007809 0.000001
# 4 0.000002 0.000001 -0.000007 0.026781 -0.000001 0.006665
# 5 -0.001885 0.000829 0.007809 -0.000001 0.017853 0.000000
# 6 0.000000 0.000000 0.000001 0.006665 0.000000 0.038649
#
#
# Mechanical properties :
#
#
# Convention : Reuss Voigt Hill
#
# Bulk Modulus (GPa) = 38.16477 93.18614 65.67546
# Shear Modulus (GPa) = 28.56456 45.49848 37.03152
#
# Velocity S-wave (km/s) = 3.45032 4.35456 3.92854
# Velocity P-wave (km/s) = 5.63726 8.00747 6.92453
#
# Compressibility (1/GPa) = 0.02620217
#
# Stress axis : x y z
#
# Youngs Moduli (GPa) = 178.48520 85.27158 26.82151
#
# Poissons Ratio (x) = 0.12105 0.22919
# Poissons Ratio (y) = 0.25338 0.11375
# Poissons Ratio (z) = 1.52518 0.36163
#
# Static dielectric constant tensor:
#      x y z
#    x 1.941360 0.000000 -0.064150 
#    y 0.000000 1.958810 0.000000 
#    z -0.064150 0.000000 1.932710 
# 
# From -- ./inp_files/158597.got.cif
#   From: 2010.05.17/outbox.cif.g08.bks.cpg/sg15_80_cif.got.tgz:158597.got - 2010.06.03 18:47:42.
