data_PCOD9303620
_publ_section_title
;
Structure prediction by ZEFSAII (Michael W. Deem and Ramdas Pophale) SiO2 
 PCOD9303620
Probable space group: C 2/C
;
_chemical_formula_sum "Si O2"
_cell_formula_units_Z 60
_cell_length_a 14.570047
_cell_length_b 20.447583
_cell_length_c 13.757535
_cell_angle_alpha 90.000000
_cell_angle_beta 134.476952
_cell_angle_gamma 90.000000
_cell_volume 2924.537682
_symmetry_space_group_name_H-M "C 2/C"
_symmetry_group_IT_number 15
_symmetry_cell_setting 'monoclinic'
loop_
_space_group_symop_operation_xyz
x,y,z
-x,y,1/2-z
-x,-y,-z
x,-y,1/2+z
1/2+x,1/2+y,z
1/2-x,1/2+y,1/2-z
1/2-x,1/2-y,-z
1/2+x,1/2-y,1/2+z
loop_
_atom_site_type_symbol
_atom_site_label
_atom_site_fract_x
_atom_site_fract_y
_atom_site_fract_z
Si Si1 0.639039 0.269497 0.494443
Si Si2 0.148881 0.804365 0.881620
Si Si3 0.760653 0.857294 0.761840
Si Si4 0.748197 0.957970 0.059752
Si Si5 0.141156 0.991349 0.682349
Si Si6 0.624430 0.440383 0.976852
Si Si7 0.981789 0.359656 0.624043
Si Si8 0.500000 0.365007 0.250000
O O1 0.750000 0.250000 0.500000
O O2 0.703065 0.301943 0.634707
O O3 0.572526 0.202310 0.473124
O O4 0.535972 0.317665 0.366934
O O5 0.203278 0.833876 0.819850
O O6 0.133989 0.867093 0.943455
O O7 0.000000 0.781175 0.750000
O O8 0.250000 0.750000 0.000000
O O9 0.838138 0.921648 0.852212
O O10 0.614011 0.876431 0.670935
O O11 0.871315 0.909148 0.162498
O O12 0.745302 0.995649 0.159352
O O13 0.771808 0.012426 0.995828
O O14 0.622283 0.916422 0.949189
O O15 0.011896 0.975778 0.646550
O O16 0.131848 0.049174 0.598253
O O17 0.000000 0.338580 0.750000
#
# Coordination Sequence:
#
# PCOD9303620 Si02
#       8
#     8   8   8   8   8   8   8   4
#     4  12  23  42  67 100 143 183 225 289 357 436
#     4  12  28  53  75 105 151 201 256 309 364 447
#     4  12  26  46  71 102 144 193 236 296 373 431
#     4  12  23  40  69 100 137 178 230 300 352 420
#     4  11  23  41  76 104 131 186 245 297 370 414
#     4  11  22  46  72 106 141 180 247 314 353 430
#     4  12  25  43  64 105 148 182 225 289 369 432
#     4  12  20  36  64 104 136 172 222 286 356 416
#
# _framework density 20.516062999999999
#
# number of rings (size 3 to 8) (size 9 to 14) (size 15 to 20)
#    0.000    0.267    7.333    1.600    3.733    1.600 
#    0.000    0.667    0.000    0.000    0.000    0.000 
#    0.000    0.000    0.000    0.000    0.000    0.000 
#
# Total GULP energy -167515.294162 kJ/mol
# GULP energy per Si atom -5583.843139 kJ/mol
# Density = 2.046937 g / cm^3
# Si number density = 20.516063 Si / 1000 Ang^3
#
#
#
# Elastic Constant Matrix: (Units=GPa)
#
#
# Indices 1 2 3 4 5 6 
#
# 1 95.8836 41.0379 43.4668 0.0000 8.4219 0.0000
# 2 41.0379 103.0330 41.3225 0.0000 -0.1746 0.0000
# 3 43.4668 41.3225 75.7717 0.0000 10.2975 0.0000
# 4 0.0000 0.0000 0.0000 39.0464 0.0000 -0.8230
# 5 8.4219 -0.1746 10.2975 0.0000 37.8140 0.0000
# 6 0.0000 0.0000 0.0000 -0.8230 0.0000 31.1544
#
#
#
# Elastic Compliance Matrix: (Units=1/GPa)
#
#
# Indices 1 2 3 4 5 6 
#
# 1 0.014965 -0.003335 -0.006554 0.000000 -0.001564 0.000000
# 2 -0.003335 0.013310 -0.005664 0.000000 0.002347 0.000000
# 3 -0.006554 -0.005664 0.020614 0.000000 -0.004180 0.000000
# 4 0.000000 0.000000 0.000000 0.025625 0.000000 0.000677
# 5 -0.001564 0.002347 -0.004180 0.000000 0.027943 0.000000
# 6 0.000000 0.000000 0.000000 0.000677 0.000000 0.032116
#
#
# Mechanical properties :
#
#
# Convention : Reuss Voigt Hill
#
# Bulk Modulus (GPa) = 56.23247 58.48252 57.35749
# Shear Modulus (GPa) = 29.13664 31.52704 30.33184
#
# Velocity S-wave (km/s) = 3.77262 3.92433 3.84922
# Velocity P-wave (km/s) = 6.81509 7.00724 6.91183
#
# Compressibility (1/GPa) = 0.01778332
#
# Stress axis : x y z
#
# Youngs Moduli (GPa) = 66.82339 75.13374 48.51025
#
# Poissons Ratio (x) = 0.25055 0.31791
# Poissons Ratio (y) = 0.22284 0.27478
# Poissons Ratio (z) = 0.43793 0.42559
#
# Static dielectric constant tensor:
#      x y z
#    x 1.816270 0.000000 0.026590 
#    y 0.000000 1.776840 0.000000 
#    z 0.026590 0.000000 1.797410 
# 
# From -- ./inp_files/156388.got.cif
#   From: 2010.05.17/outbox.cif.g08.bks.cpg/sg15_79_cif.got.tgz:156388.got - 2010.06.03 18:47:42.
