data_PCOD9303902
_publ_section_title
;
Structure prediction by ZEFSAII (Michael W. Deem and Ramdas Pophale) SiO2 
 PCOD9303902
Probable space group: C 2/C
;
_chemical_formula_sum "Si O2"
_cell_formula_units_Z 40
_cell_length_a 18.168431
_cell_length_b 10.104722
_cell_length_c 14.731179
_cell_angle_alpha 90.000000
_cell_angle_beta 42.895897
_cell_angle_gamma 90.000000
_cell_volume 1840.835136
_symmetry_space_group_name_H-M "C 2/C"
_symmetry_group_IT_number 15
_symmetry_cell_setting 'monoclinic'
loop_
_space_group_symop_operation_xyz
x,y,z
-x,y,1/2-z
-x,-y,-z
x,-y,1/2+z
1/2+x,1/2+y,z
1/2-x,1/2+y,1/2-z
1/2-x,1/2-y,-z
1/2+x,1/2-y,1/2+z
loop_
_atom_site_type_symbol
_atom_site_label
_atom_site_fract_x
_atom_site_fract_y
_atom_site_fract_z
Si Si1 0.948513 0.641728 0.464824
Si Si2 0.903582 0.894812 0.594622
Si Si3 0.660379 0.064737 0.572604
Si Si4 0.394198 0.348941 0.808973
Si Si5 0.336658 0.976960 0.723118
O O1 0.909319 0.791716 0.505894
O O2 0.910122 0.541771 0.419874
O O3 0.895925 0.576731 0.601714
O O4 0.078665 0.644583 0.354397
O O5 0.912368 0.826307 0.685733
O O6 0.784164 0.954973 0.700202
O O7 0.000000 0.000000 0.500000
O O8 0.615049 0.214986 0.621346
O O9 0.780716 0.076375 0.423382
O O10 0.668432 0.023205 0.669342
O O11 0.500000 0.423251 0.750000
#
# Coordination Sequence:
#
# PCOD9303902 Si02
#       5
#     8   8   8   8   8
#     4  11  25  43  71 105 144 188 239 296 358 435
#     4  12  27  45  72 107 148 186 238 304 363 427
#     4  11  23  44  69 103 140 189 241 299 352 435
#     4  11  23  40  71 103 140 182 248 296 356 426
#     4  11  24  44  71 102 142 187 238 294 364 420
#
# _framework density 21.729268000000001
#
# number of rings (size 3 to 8) (size 9 to 14) (size 15 to 20)
#    0.000    0.800    4.000    3.000    5.600    0.800 
#    0.000    4.000    0.000    0.000    0.000    0.000 
#    0.000    0.000    0.000    0.000    0.000    0.000 
#
# Total GULP energy -111655.368446 kJ/mol
# GULP energy per Si atom -5582.768422 kJ/mol
# Density = 2.167981 g / cm^3
# Si number density = 21.729268 Si / 1000 Ang^3
#
#
#
# Elastic Constant Matrix: (Units=GPa)
#
#
# Indices 1 2 3 4 5 6 
#
# 1 121.1319 25.9411 63.8536 0.0000 -4.7923 0.0000
# 2 25.9411 60.6998 41.5115 0.0000 -4.1778 0.0000
# 3 63.8536 41.5115 106.8087 0.0000 -29.7843 0.0000
# 4 0.0000 0.0000 0.0000 6.8692 0.0000 8.9047
# 5 -4.7923 -4.1778 -29.7843 0.0000 62.6601 0.0000
# 6 0.0000 0.0000 0.0000 8.9047 0.0000 21.6430
#
#
#
# Elastic Compliance Matrix: (Units=1/GPa)
#
#
# Indices 1 2 3 4 5 6 
#
# 1 0.012526 0.000186 -0.008404 0.000000 -0.003024 0.000000
# 2 0.000186 0.022960 -0.009918 0.000000 -0.003170 0.000000
# 3 -0.008404 -0.009918 0.020610 0.000000 0.008492 0.000000
# 4 0.000000 0.000000 0.000000 0.311967 0.000000 -0.128355
# 5 -0.003024 -0.003170 0.008492 0.000000 0.019553 0.000000
# 6 0.000000 0.000000 0.000000 -0.128355 0.000000 0.099014
#
#
# Mechanical properties :
#
#
# Convention : Reuss Voigt Hill
#
# Bulk Modulus (GPa) = 50.44740 61.25031 55.84885
# Shear Modulus (GPa) = 9.44267 28.72341 19.08304
#
# Velocity S-wave (km/s) = 2.08687 3.63971 2.96669
# Velocity P-wave (km/s) = 5.39198 6.77587 6.12315
#
# Compressibility (1/GPa) = 0.01982263
#
# Stress axis : x y z
#
# Youngs Moduli (GPa) = 79.83282 43.55415 48.52047
#
# Poissons Ratio (x) = -0.00810 0.40778
# Poissons Ratio (y) = -0.01485 0.48125
# Poissons Ratio (z) = 0.67093 0.43199
#
# Static dielectric constant tensor:
#      x y z
#    x 1.823670 0.000000 -0.002240 
#    y 0.000000 1.869400 0.000000 
#    z -0.002240 0.000000 1.779780 
# 
# From -- ./inp_files/160673.got.cif
#   From: 2010.05.17/outbox.cif.g08.bks.cpg/sg15_81_cif.got.tgz:160673.got - 2010.06.03 18:47:42.
