data_PCOD9303986
_publ_section_title
;
Structure prediction by ZEFSAII (Michael W. Deem and Ramdas Pophale) SiO2 
 PCOD9303986
Probable space group: C 2/C
;
_chemical_formula_sum "Si O2"
_cell_formula_units_Z 40
_cell_length_a 18.680751
_cell_length_b 11.778385
_cell_length_c 13.451124
_cell_angle_alpha 90.000000
_cell_angle_beta 30.349373
_cell_angle_gamma 90.000000
_cell_volume 1495.420766
_symmetry_space_group_name_H-M "C 2/C"
_symmetry_group_IT_number 15
_symmetry_cell_setting 'monoclinic'
loop_
_space_group_symop_operation_xyz
x,y,z
-x,y,1/2-z
-x,-y,-z
x,-y,1/2+z
1/2+x,1/2+y,z
1/2-x,1/2+y,1/2-z
1/2-x,1/2-y,-z
1/2+x,1/2-y,1/2+z
loop_
_atom_site_type_symbol
_atom_site_label
_atom_site_fract_x
_atom_site_fract_y
_atom_site_fract_z
Si Si1 0.500000 0.917065 0.750000
Si Si2 0.000000 0.000000 0.500000
Si Si3 0.361500 0.641273 0.483953
Si Si4 0.720778 0.096892 0.459688
Si Si5 0.858450 0.827906 0.620078
Si Si6 0.949765 0.375615 0.598423
O O1 0.436735 0.855464 0.732387
O O2 0.613659 0.999508 0.563771
O O3 0.014913 0.098541 0.574947
O O4 0.881477 0.090191 0.568162
O O5 0.500000 0.625171 0.250000
O O6 0.244276 0.590991 0.548807
O O7 0.206233 0.342283 0.754685
O O8 0.854287 0.084879 0.224332
O O9 0.665918 0.221618 0.493381
O O10 0.920122 0.709797 0.582780
O O11 0.000000 0.500000 0.500000
#
# Coordination Sequence:
#
# PCOD9303986 Si02
#       6
#     4   4   8   8   8   8
#     4  12  26  50  78 116 162 214 278 340 424 492
#     4  12  26  46  74 116 158 212 260 342 416 496
#     4  11  23  41  68 109 144 195 263 327 399 470
#     4  11  24  42  79 109 151 205 269 338 394 491
#     4  12  28  49  79 113 169 208 274 335 426 492
#     4  12  30  51  81 122 163 218 275 351 419 506
#
# _framework density 26.748325999999999
#
# number of rings (size 3 to 8) (size 9 to 14) (size 15 to 20)
#    0.000    0.400    5.000    2.400   11.200    0.800 
#    1.800    0.000    0.000    0.000    0.000    0.000 
#    0.000    0.000    0.000    0.000    0.000    0.000 
#
# Total GULP energy -111352.806312 kJ/mol
# GULP energy per Si atom -5567.640316 kJ/mol
# Density = 2.668745 g / cm^3
# Si number density = 26.748326 Si / 1000 Ang^3
#
#
#
# Elastic Constant Matrix: (Units=GPa)
#
#
# Indices 1 2 3 4 5 6 
#
# 1 260.3092 85.2535 47.0938 0.0000 10.7102 0.0000
# 2 85.2535 164.7931 45.5901 0.0000 -24.0801 0.0000
# 3 47.0938 45.5901 90.3149 0.0000 13.8641 0.0000
# 4 0.0000 0.0000 0.0000 26.8319 0.0000 -11.7817
# 5 10.7102 -24.0801 13.8641 0.0000 41.3222 0.0000
# 6 0.0000 0.0000 0.0000 -11.7817 0.0000 38.0965
#
#
#
# Elastic Compliance Matrix: (Units=1/GPa)
#
#
# Indices 1 2 3 4 5 6 
#
# 1 0.004995 -0.002739 -0.000820 0.000000 -0.002616 0.000000
# 2 -0.002739 0.010039 -0.004899 0.000000 0.008204 0.000000
# 3 -0.000820 -0.004899 0.015159 0.000000 -0.007728 0.000000
# 4 0.000000 0.000000 0.000000 0.043125 0.000000 0.013337
# 5 -0.002616 0.008204 -0.007728 0.000000 0.032252 0.000000
# 6 0.000000 0.000000 0.000000 0.013337 0.000000 0.030374
#
#
# Mechanical properties :
#
#
# Convention : Reuss Voigt Hill
#
# Bulk Modulus (GPa) = 75.31872 96.81021 86.06447
# Shear Modulus (GPa) = 31.78925 43.74879 37.76902
#
# Velocity S-wave (km/s) = 3.45114 4.04861 3.76175
# Velocity P-wave (km/s) = 6.64078 7.62408 7.14935
#
# Compressibility (1/GPa) = 0.01327691
#
# Stress axis : x y z
#
# Youngs Moduli (GPa) = 200.21155 99.60789 65.96631
#
# Poissons Ratio (x) = 0.27285 0.05410
# Poissons Ratio (y) = 0.54843 0.32315
# Poissons Ratio (z) = 0.16421 0.48796
#
# Static dielectric constant tensor:
#      x y z
#    x 2.225260 0.000000 -0.155600 
#    y 0.000000 2.279970 0.000000 
#    z -0.155600 0.000000 2.446160 
# 
# From -- ./inp_files/181376.got.cif
#   From: 2010.05.17/outbox.cif.g08.bks.cpg/sg15_91_cif.got.tgz:181376.got - 2010.06.03 18:47:42.
