data_PCOD9303228
_publ_section_title
;
Structure prediction by ZEFSAII (Michael W. Deem and Ramdas Pophale) SiO2 
 PCOD9303228
Probable space group: C 2/C
;
_chemical_formula_sum "Si O2"
_cell_formula_units_Z 40
_cell_length_a 17.916903
_cell_length_b 7.897734
_cell_length_c 12.213732
_cell_angle_alpha 90.000000
_cell_angle_beta 77.402984
_cell_angle_gamma 90.000000
_cell_volume 1686.675993
_symmetry_space_group_name_H-M "C 2/C"
_symmetry_group_IT_number 15
_symmetry_cell_setting 'monoclinic'
loop_
_space_group_symop_operation_xyz
x,y,z
-x,y,1/2-z
-x,-y,-z
x,-y,1/2+z
1/2+x,1/2+y,z
1/2-x,1/2+y,1/2-z
1/2-x,1/2-y,-z
1/2+x,1/2-y,1/2+z
loop_
_atom_site_type_symbol
_atom_site_label
_atom_site_fract_x
_atom_site_fract_y
_atom_site_fract_z
Si Si1 0.674705 0.088776 0.837670
Si Si2 0.936592 0.628789 0.419829
Si Si3 0.921555 0.262372 0.321558
Si Si4 0.934184 0.865034 0.041810
Si Si5 0.159631 0.784203 0.236997
O O1 0.639506 0.205213 0.752652
O O2 0.761002 0.144674 0.832053
O O3 0.673286 0.897110 0.792149
O O4 0.621793 0.111061 0.960731
O O5 0.944869 0.448219 0.359301
O O6 0.900114 0.752997 0.341213
O O7 0.017147 0.700919 0.434766
O O8 0.893700 0.166628 0.438755
O O9 0.000000 0.183493 0.250000
O O10 0.876115 0.902981 0.157558
O O11 0.000000 0.000000 0.000000
#
# Coordination Sequence:
#
# PCOD9303228 Si02
#       5
#     8   8   8   8   8
#     4  11  24  43  71  98 138 174 222 275 337 400
#     4  11  22  46  70  94 131 180 223 273 332 403
#     4  11  22  42  72  95 128 177 223 273 333 399
#     4  12  26  43  69 100 135 173 226 280 328 395
#     4  11  26  44  67 103 134 176 221 276 337 397
#
# _framework density 23.715284
#
# number of rings (size 3 to 8) (size 9 to 14) (size 15 to 20)
#    0.000    0.800    4.000    4.200    2.800    4.000 
#    0.000    0.000    0.000    0.000    0.000    0.000 
#    0.000    0.000    0.000    0.000    0.000    0.000 
#
# Total GULP energy -112130.492182 kJ/mol
# GULP energy per Si atom -5606.524609 kJ/mol
# Density = 2.366131 g / cm^3
# Si number density = 23.715284 Si / 1000 Ang^3
#
#
#
# Elastic Constant Matrix: (Units=GPa)
#
#
# Indices 1 2 3 4 5 6 
#
# 1 72.1315 -2.9314 32.7499 0.0000 -11.0538 0.0000
# 2 -2.9314 53.1302 10.7443 0.0000 0.3358 0.0000
# 3 32.7499 10.7443 151.2502 0.0000 -4.0738 0.0000
# 4 0.0000 0.0000 0.0000 6.7733 0.0000 -5.9409
# 5 -11.0538 0.3358 -4.0738 0.0000 44.4046 0.0000
# 6 0.0000 0.0000 0.0000 -5.9409 0.0000 34.5648
#
#
#
# Elastic Compliance Matrix: (Units=1/GPa)
#
#
# Indices 1 2 3 4 5 6 
#
# 1 0.016076 0.001570 -0.003494 0.000000 0.003669 0.000000
# 2 0.001570 0.019253 -0.001705 0.000000 0.000089 0.000000
# 3 -0.003494 -0.001705 0.007485 0.000000 -0.000170 0.000000
# 4 0.000000 0.000000 0.000000 0.173846 0.000000 0.029880
# 5 0.003669 0.000089 -0.000170 0.000000 0.023417 0.000000
# 6 0.000000 0.000000 0.000000 0.029880 0.000000 0.034067
#
#
# Mechanical properties :
#
#
# Convention : Reuss Voigt Hill
#
# Bulk Modulus (GPa) = 28.12469 39.73751 33.93110
# Shear Modulus (GPa) = 17.05017 32.87850 24.96433
#
# Velocity S-wave (km/s) = 2.68424 3.72746 3.24801
# Velocity P-wave (km/s) = 4.63594 5.94287 5.32962
#
# Compressibility (1/GPa) = 0.03555595
#
# Stress axis : x y z
#
# Youngs Moduli (GPa) = 62.20484 51.94096 133.60807
#
# Poissons Ratio (x) = -0.08156 0.46677
# Poissons Ratio (y) = -0.09768 0.22784
# Poissons Ratio (z) = 0.21732 0.08857
#
# Static dielectric constant tensor:
#      x y z
#    x 1.814450 0.000000 0.005550 
#    y 0.000000 1.961020 0.000000 
#    z 0.005550 0.000000 1.866910 
# 
# From -- ./inp_files/102663.got.cif
#   From: 2010.05.17/outbox.cif.g08.bks.cpg/sg15_52_cif.got.tgz:102663.got - 2010.06.03 18:47:42.
