data_PCOD9303556
_publ_section_title
;
Structure prediction by ZEFSAII (Michael W. Deem and Ramdas Pophale) SiO2 
 PCOD9303556
Probable space group: C 2/C
;
_chemical_formula_sum "Si O2"
_cell_formula_units_Z 48
_cell_length_a 20.803787
_cell_length_b 12.308060
_cell_length_c 9.313277
_cell_angle_alpha 90.000000
_cell_angle_beta 58.888138
_cell_angle_gamma 90.000000
_cell_volume 2041.688685
_symmetry_space_group_name_H-M "C 2/C"
_symmetry_group_IT_number 15
_symmetry_cell_setting 'monoclinic'
loop_
_space_group_symop_operation_xyz
x,y,z
-x,y,1/2-z
-x,-y,-z
x,-y,1/2+z
1/2+x,1/2+y,z
1/2-x,1/2+y,1/2-z
1/2-x,1/2-y,-z
1/2+x,1/2-y,1/2+z
loop_
_atom_site_type_symbol
_atom_site_label
_atom_site_fract_x
_atom_site_fract_y
_atom_site_fract_z
Si Si1 0.617179 0.372737 0.692518
Si Si2 0.035562 0.883080 0.493642
Si Si3 0.678342 0.019241 0.179010
Si Si4 0.919001 0.714035 0.295199
Si Si5 0.320582 0.203583 0.687061
Si Si6 0.223369 0.969514 0.202949
O O1 0.597956 0.386738 0.547539
O O2 0.539642 0.329818 0.850933
O O3 0.678381 0.289136 0.684900
O O4 0.647883 0.486723 0.720535
O O5 0.062236 0.815631 0.326848
O O6 0.000000 0.000000 0.500000
O O7 0.624612 0.121199 0.241441
O O8 0.755301 0.036501 0.179547
O O9 0.646271 0.908600 0.283164
O O10 0.708710 0.002243 0.984353
O O11 0.868706 0.740453 0.493733
O O12 0.000000 0.670209 0.250000
O O13 0.240516 0.156818 0.721349
#
# Coordination Sequence:
#
# PCOD9303556 Si02
#       6
#     8   8   8   8   8   8
#     4  11  24  46  70  98 142 191 236 301 354 433
#     4  11  28  45  69 103 137 194 247 289 364 435
#     4   9  22  44  66 111 137 183 239 291 378 422
#     4  11  22  45  71  99 145 185 236 312 355 433
#     4   9  22  44  69 109 138 184 247 288 382 428
#     4   9  22  44  67 100 147 177 239 302 351 442
#
# _framework density 23.509948999999999
#
# number of rings (size 3 to 8) (size 9 to 14) (size 15 to 20)
#    1.000    1.000    1.667    0.000    7.000    1.333 
#    6.000    1.667    0.000    0.000    0.000    0.000 
#    0.000    0.000    0.000    0.000    0.000    0.000 
#
# Total GULP energy -133889.291169 kJ/mol
# GULP energy per Si atom -5578.720465 kJ/mol
# Density = 2.345644 g / cm^3
# Si number density = 23.509949 Si / 1000 Ang^3
#
#
#
# Elastic Constant Matrix: (Units=GPa)
#
#
# Indices 1 2 3 4 5 6 
#
# 1 107.3715 34.8485 40.7093 0.0000 -3.0846 0.0000
# 2 34.8485 107.6403 53.9076 0.0000 1.0835 0.0000
# 3 40.7093 53.9076 100.0115 0.0000 7.5466 0.0000
# 4 0.0000 0.0000 0.0000 33.0992 0.0000 -0.9151
# 5 -3.0846 1.0835 7.5466 0.0000 42.1552 0.0000
# 6 0.0000 0.0000 0.0000 -0.9151 0.0000 40.5176
#
#
#
# Elastic Compliance Matrix: (Units=1/GPa)
#
#
# Indices 1 2 3 4 5 6 
#
# 1 0.011376 -0.001809 -0.003773 0.000000 0.001554 0.000000
# 2 -0.001809 0.013048 -0.006347 0.000000 0.000668 0.000000
# 3 -0.003773 -0.006347 0.015169 0.000000 -0.002828 0.000000
# 4 0.000000 0.000000 0.000000 0.030231 0.000000 0.000683
# 5 0.001554 0.000668 -0.002828 0.000000 0.024325 0.000000
# 6 0.000000 0.000000 0.000000 0.000683 0.000000 0.024696
#
#
# Mechanical properties :
#
#
# Convention : Reuss Voigt Hill
#
# Bulk Modulus (GPa) = 63.55224 63.77267 63.66245
# Shear Modulus (GPa) = 33.79594 35.52493 34.66043
#
# Velocity S-wave (km/s) = 3.79557 3.89145 3.84381
# Velocity P-wave (km/s) = 6.80435 6.88302 6.84380
#
# Compressibility (1/GPa) = 0.01573509
#
# Stress axis : x y z
#
# Youngs Moduli (GPa) = 87.90729 76.64089 65.92394
#
# Poissons Ratio (x) = 0.13866 0.24870
# Poissons Ratio (y) = 0.15904 0.41842
# Poissons Ratio (z) = 0.33163 0.48644
#
# Static dielectric constant tensor:
#      x y z
#    x 1.935110 0.000000 -0.016410 
#    y 0.000000 1.918890 0.000000 
#    z -0.016410 0.000000 1.927470 
# 
# From -- ./inp_files/60838.got.cif
#   From: 2010.05.17/outbox.cif.g08.bks.cpg/sg15_31_cif.got.tgz:60838.got - 2010.06.03 18:47:42.
