data_PCOD9303328
_publ_section_title
;
Structure prediction by ZEFSAII (Michael W. Deem and Ramdas Pophale) SiO2 
 PCOD9303328
Probable space group: C 2/C
;
_chemical_formula_sum "Si O2"
_cell_formula_units_Z 44
_cell_length_a 18.653086
_cell_length_b 6.783740
_cell_length_c 16.093890
_cell_angle_alpha 90.000000
_cell_angle_beta 76.160949
_cell_angle_gamma 90.000000
_cell_volume 1977.367483
_symmetry_space_group_name_H-M "C 2/C"
_symmetry_group_IT_number 15
_symmetry_cell_setting 'monoclinic'
loop_
_space_group_symop_operation_xyz
x,y,z
-x,y,1/2-z
-x,-y,-z
x,-y,1/2+z
1/2+x,1/2+y,z
1/2-x,1/2+y,1/2-z
1/2-x,1/2-y,-z
1/2+x,1/2-y,1/2+z
loop_
_atom_site_type_symbol
_atom_site_label
_atom_site_fract_x
_atom_site_fract_y
_atom_site_fract_z
Si Si1 0.389474 0.931839 0.609595
Si Si2 0.166945 0.752763 0.991363
Si Si3 0.203466 0.044613 0.834570
Si Si4 0.000000 0.091245 0.250000
Si Si5 0.354545 0.221627 0.766790
Si Si6 0.486908 0.367826 0.420861
O O1 0.337648 0.751919 0.651790
O O2 0.469069 0.834376 0.576302
O O3 0.356652 0.041195 0.538582
O O4 0.387213 0.096150 0.681300
O O5 0.170544 0.911362 0.916239
O O6 0.250000 0.750000 0.000000
O O7 0.099944 0.824946 0.067408
O O8 0.290193 0.088267 0.823469
O O9 0.186853 0.917802 0.756454
O O10 0.072630 0.214682 0.204813
O O11 0.982498 0.965938 0.172112
O O12 0.500000 0.500000 0.500000
#
# Coordination Sequence:
#
# PCOD9303328 Si02
#       6
#     8   8   8   4   8   8
#     4  11  23  45  74  96 143 202 231 289 380 421
#     4  11  27  42  68 108 136 186 249 297 362 429
#     4  11  22  43  70  98 143 189 234 295 367 431
#     4  12  28  44  74 114 142 188 254 300 354 436
#     4  11  24  43  70 107 139 183 246 297 355 433
#     4  12  25  50  73 100 154 191 236 301 363 435
#
# _framework density 22.251808
#
# number of rings (size 3 to 8) (size 9 to 14) (size 15 to 20)
#    0.000    0.727    5.455    1.636    2.545    5.818 
#    0.000    0.000    0.000    0.000    0.000    0.000 
#    0.000    0.000    0.000    0.000    0.000    0.000 
#
# Total GULP energy -122943.770769 kJ/mol
# GULP energy per Si atom -5588.353217 kJ/mol
# Density = 2.220116 g / cm^3
# Si number density = 22.251808 Si / 1000 Ang^3
#
#
#
# Elastic Constant Matrix: (Units=GPa)
#
#
# Indices 1 2 3 4 5 6 
#
# 1 146.0513 35.2768 15.0250 0.0000 -32.1946 0.0000
# 2 35.2768 107.1900 17.7674 0.0000 -1.9091 0.0000
# 3 15.0250 17.7674 51.9234 0.0000 -10.9396 0.0000
# 4 0.0000 0.0000 0.0000 20.1643 0.0000 -10.0439
# 5 -32.1946 -1.9091 -10.9396 0.0000 39.9869 0.0000
# 6 0.0000 0.0000 0.0000 -10.0439 0.0000 49.6150
#
#
#
# Elastic Compliance Matrix: (Units=1/GPa)
#
#
# Indices 1 2 3 4 5 6 
#
# 1 0.009133 -0.002852 -0.000155 0.000000 0.007175 0.000000
# 2 -0.002852 0.010790 -0.003440 0.000000 -0.002723 0.000000
# 3 -0.000155 -0.003440 0.021669 0.000000 0.005639 0.000000
# 4 0.000000 0.000000 0.000000 0.055154 0.000000 0.011165
# 5 0.007175 -0.002723 0.005639 0.000000 0.032198 0.000000
# 6 0.000000 0.000000 0.000000 0.011165 0.000000 0.022415
#
#
# Mechanical properties :
#
#
# Convention : Reuss Voigt Hill
#
# Bulk Modulus (GPa) = 34.84718 49.03369 41.94043
# Shear Modulus (GPa) = 28.76524 37.75959 33.26241
#
# Velocity S-wave (km/s) = 3.59933 4.12384 3.87048
# Velocity P-wave (km/s) = 5.74178 6.69017 6.23404
#
# Compressibility (1/GPa) = 0.02869673
#
# Stress axis : x y z
#
# Youngs Moduli (GPa) = 109.48798 92.68084 46.14806
#
# Poissons Ratio (x) = 0.26436 0.00716
# Poissons Ratio (y) = 0.31230 0.15876
# Poissons Ratio (z) = 0.01700 0.31885
#
# Static dielectric constant tensor:
#      x y z
#    x 1.859800 0.000000 -0.000570 
#    y 0.000000 1.820060 0.000000 
#    z -0.000570 0.000000 1.855950 
# 
# From -- ./inp_files/246398.got.cif
#   From: 2010.05.17/outbox.cif.g08.bks.cpg/sg15_124_cif.got.tgz:246398.got - 2010.06.03 18:47:42.
