data_PCOD9303345
_publ_section_title
;
Structure prediction by ZEFSAII (Michael W. Deem and Ramdas Pophale) SiO2 
 PCOD9303345
Probable space group: C 2/C
;
_chemical_formula_sum "Si O2"
_cell_formula_units_Z 48
_cell_length_a 20.865352
_cell_length_b 19.976386
_cell_length_c 11.453975
_cell_angle_alpha 90.000000
_cell_angle_beta 25.221737
_cell_angle_gamma 90.000000
_cell_volume 2034.386058
_symmetry_space_group_name_H-M "C 2/C"
_symmetry_group_IT_number 15
_symmetry_cell_setting 'monoclinic'
loop_
_space_group_symop_operation_xyz
x,y,z
-x,y,1/2-z
-x,-y,-z
x,-y,1/2+z
1/2+x,1/2+y,z
1/2-x,1/2+y,1/2-z
1/2-x,1/2-y,-z
1/2+x,1/2-y,1/2+z
loop_
_atom_site_type_symbol
_atom_site_label
_atom_site_fract_x
_atom_site_fract_y
_atom_site_fract_z
Si Si1 0.818136 0.506512 0.283927
Si Si2 0.636956 0.210529 0.270789
Si Si3 0.418507 0.674551 0.208808
Si Si4 0.841937 0.122308 0.084061
Si Si5 0.373651 0.094608 0.383583
Si Si6 0.301237 0.368013 0.115267
O O1 0.754033 0.556456 0.290828
O O2 0.770672 0.541743 0.484929
O O3 0.748640 0.435478 0.367707
O O4 0.000000 0.500000 0.000000
O O5 0.506552 0.259118 0.526838
O O6 0.577781 0.145497 0.298286
O O7 0.750000 0.250000 0.000000
O O8 0.739855 0.182858 0.204712
O O9 0.366354 0.635971 0.179999
O O10 0.542460 0.629160 0.071381
O O11 0.193887 0.814078 0.497009
O O12 0.000000 0.121002 0.750000
O O13 0.500000 0.056621 0.250000
O O14 0.306414 0.140668 0.596253
#
# Coordination Sequence:
#
# PCOD9303345 Si02
#       6
#     8   8   8   8   8   8
#     4  11  25  45  73 110 151 198 254 314 381 468
#     4  11  22  43  72 103 142 189 256 310 370 450
#     4  11  25  45  70 110 151 189 251 314 380 447
#     4  11  24  44  75 111 144 200 258 314 380 458
#     4  11  23  43  74 101 142 199 249 302 383 451
#     4  11  25  45  71 109 153 195 243 319 384 454
#
# _framework density 23.594341
#
# number of rings (size 3 to 8) (size 9 to 14) (size 15 to 20)
#    0.000    1.000    5.000    1.000    7.000    0.667 
#    0.000    7.500    0.000    0.000    0.000    0.000 
#    0.000    0.000    0.000    0.000    0.000    0.000 
#
# Total GULP energy -133954.262579 kJ/mol
# GULP energy per Si atom -5581.427607 kJ/mol
# Density = 2.354064 g / cm^3
# Si number density = 23.594341 Si / 1000 Ang^3
#
#
#
# Elastic Constant Matrix: (Units=GPa)
#
#
# Indices 1 2 3 4 5 6 
#
# 1 229.2589 58.8096 56.2795 -0.0020 -7.2895 -0.0003
# 2 58.8096 105.5232 33.3589 -0.0004 -2.6529 0.0010
# 3 56.2795 33.3589 78.3995 0.0038 -3.3835 0.0011
# 4 -0.0020 -0.0004 0.0038 33.8070 0.0006 -13.6932
# 5 -7.2895 -2.6529 -3.3835 0.0006 51.1833 -0.0001
# 6 -0.0003 0.0010 0.0011 -13.6932 -0.0001 31.5146
#
#
#
# Elastic Compliance Matrix: (Units=1/GPa)
#
#
# Indices 1 2 3 4 5 6 
#
# 1 0.005709 -0.002173 -0.003152 0.000001 0.000492 0.000001
# 2 -0.002173 0.011780 -0.003449 0.000000 0.000073 0.000000
# 3 -0.003152 -0.003449 0.016506 -0.000003 0.000463 -0.000002
# 4 0.000001 0.000000 -0.000003 0.035897 0.000000 0.015597
# 5 0.000492 0.000073 0.000463 0.000000 0.019642 0.000000
# 6 0.000001 0.000000 -0.000002 0.015597 0.000000 0.038509
#
#
# Mechanical properties :
#
#
# Convention : Reuss Voigt Hill
#
# Bulk Modulus (GPa) = 60.80724 78.89752 69.85238
# Shear Modulus (GPa) = 33.09662 40.94988 37.02325
#
# Velocity S-wave (km/s) = 3.74937 4.17055 3.96556
# Velocity P-wave (km/s) = 6.67620 7.53014 7.11599
#
# Compressibility (1/GPa) = 0.01644541
#
# Stress axis : x y z
#
# Youngs Moduli (GPa) = 175.17123 84.89149 60.58460
#
# Poissons Ratio (x) = 0.18444 0.19098
# Poissons Ratio (y) = 0.38058 0.20898
# Poissons Ratio (z) = 0.55220 0.29283
#
# Static dielectric constant tensor:
#      x y z
#    x 1.810590 -0.000010 0.058420 
#    y -0.000010 1.892620 0.000000 
#    z 0.058420 0.000000 2.166230 
# 
# From -- ./inp_files/168836.got.cif
#   From: 2010.05.17/outbox.cif.g08.bks.cpg/sg15_85_cif.got.tgz:168836.got - 2010.06.03 18:47:42.
