data_PCOD9303382
_publ_section_title
;
Structure prediction by ZEFSAII (Michael W. Deem and Ramdas Pophale) SiO2 
 PCOD9303382
Probable space group: C 2/C
;
_chemical_formula_sum "Si O2"
_cell_formula_units_Z 56
_cell_length_a 8.927775
_cell_length_b 17.031850
_cell_length_c 19.352102
_cell_angle_alpha 90.000000
_cell_angle_beta 63.477269
_cell_angle_gamma 90.000000
_cell_volume 2632.924712
_symmetry_space_group_name_H-M "C 2/C"
_symmetry_group_IT_number 15
_symmetry_cell_setting 'monoclinic'
loop_
_space_group_symop_operation_xyz
x,y,z
-x,y,1/2-z
-x,-y,-z
x,-y,1/2+z
1/2+x,1/2+y,z
1/2-x,1/2+y,1/2-z
1/2-x,1/2-y,-z
1/2+x,1/2-y,1/2+z
loop_
_atom_site_type_symbol
_atom_site_label
_atom_site_fract_x
_atom_site_fract_y
_atom_site_fract_z
Si Si1 0.551015 0.887724 0.021038
Si Si2 0.144287 0.121694 0.809107
Si Si3 0.874447 0.073377 0.531982
Si Si4 0.493910 0.286439 0.914237
Si Si5 0.770230 0.120552 0.354118
Si Si6 0.185587 0.708770 0.240054
Si Si7 0.291817 0.556073 0.846498
O O1 0.704085 0.935945 0.023393
O O2 0.559034 0.799861 0.050686
O O3 0.374628 0.924242 0.077387
O O4 0.593786 0.881557 0.931396
O O5 0.177001 0.091654 0.878918
O O6 0.188801 0.211535 0.784770
O O7 0.233341 0.072817 0.729697
O O8 0.945267 0.110485 0.838021
O O9 0.964042 0.149880 0.480408
O O10 0.000000 0.000000 0.500000
O O11 0.383759 0.317567 0.872318
O O12 0.683886 0.283478 0.849087
O O13 0.745090 0.141958 0.280258
O O14 0.845280 0.033712 0.345402
O O15 0.000000 0.696338 0.250000
#
# Coordination Sequence:
#
# PCOD9303382 Si02
#       7
#     8   8   8   8   8   8   8
#     4  11  22  46  66  99 126 169 221 261 324 388
#     4  11  22  44  64  93 132 173 213 256 334 377
#     4  11  25  40  68  97 135 167 216 276 323 378
#     4  11  23  44  67  96 128 173 221 260 321 391
#     4  11  25  40  69  93 130 169 214 265 321 384
#     4  12  24  42  64  98 130 171 219 267 318 385
#     4  11  24  42  68  93 132 172 214 263 326 393
#
# _framework density 21.269121999999999
#
# number of rings (size 3 to 8) (size 9 to 14) (size 15 to 20)
#    0.000    0.857    2.857    6.000    6.000    2.857 
#    0.000    2.857    0.000    0.000    0.000    0.000 
#    0.000    0.000    0.000    0.000    0.000    0.000 
#
# Total GULP energy -156669.495561 kJ/mol
# GULP energy per Si atom -5595.339127 kJ/mol
# Density = 2.122071 g / cm^3
# Si number density = 21.269122 Si / 1000 Ang^3
#
#
#
# Elastic Constant Matrix: (Units=GPa)
#
#
# Indices 1 2 3 4 5 6 
#
# 1 17.0251 11.3688 11.3892 0.0000 -12.4422 0.0000
# 2 11.3688 78.6911 -11.1986 0.0000 -7.1297 0.0000
# 3 11.3892 -11.1986 90.9238 0.0000 -13.6403 0.0000
# 4 0.0000 0.0000 0.0000 32.1893 0.0000 1.7780
# 5 -12.4422 -7.1297 -13.6403 0.0000 46.1192 0.0000
# 6 0.0000 0.0000 0.0000 1.7780 0.0000 23.3891
#
#
#
# Elastic Compliance Matrix: (Units=1/GPa)
#
#
# Indices 1 2 3 4 5 6 
#
# 1 0.087033 -0.012241 -0.009597 0.000000 0.018749 0.000000
# 2 -0.012241 0.014958 0.003377 0.000000 0.000009 0.000000
# 3 -0.009597 0.003377 0.012878 0.000000 0.001742 0.000000
# 4 0.000000 0.000000 0.000000 0.031197 0.000000 -0.002372
# 5 0.018749 0.000009 0.001742 0.000000 0.027258 0.000000
# 6 0.000000 0.000000 0.000000 -0.002372 0.000000 0.042935
#
#
# Mechanical properties :
#
#
# Convention : Reuss Voigt Hill
#
# Bulk Modulus (GPa) = 12.82924 23.30654 18.06789
# Shear Modulus (GPa) = 17.91069 32.01154 24.96112
#
# Velocity S-wave (km/s) = 2.90504 3.88373 3.42948
# Velocity P-wave (km/s) = 4.15900 5.57610 4.91885
#
# Compressibility (1/GPa) = 0.07794696
#
# Stress axis : x y z
#
# Youngs Moduli (GPa) = 11.48985 66.85488 77.65478
#
# Poissons Ratio (x) = 0.81837 0.74523
# Poissons Ratio (y) = 0.14065 -0.26223
# Poissons Ratio (z) = 0.11027 -0.22576
#
# Static dielectric constant tensor:
#      x y z
#    x 1.760110 0.000000 0.010390 
#    y 0.000000 1.764270 0.000000 
#    z 0.010390 0.000000 1.788730 
# 
# From -- ./inp_files/232578.got.cif
#   From: 2010.05.17/outbox.cif.g08.bks.cpg/sg15_117_cif.got.tgz:232578.got - 2010.06.03 18:47:42.
