data_PCOD9303940
_publ_section_title
;
Structure prediction by ZEFSAII (Michael W. Deem and Ramdas Pophale) SiO2 
 PCOD9303940
Probable space group: C 2/C
;
_chemical_formula_sum "Si O2"
_cell_formula_units_Z 48
_cell_length_a 21.455106
_cell_length_b 16.407745
_cell_length_c 17.782014
_cell_angle_alpha 90.000000
_cell_angle_beta 19.241428
_cell_angle_gamma 90.000000
_cell_volume 2062.913563
_symmetry_space_group_name_H-M "C 2/C"
_symmetry_group_IT_number 15
_symmetry_cell_setting 'monoclinic'
loop_
_space_group_symop_operation_xyz
x,y,z
-x,y,1/2-z
-x,-y,-z
x,-y,1/2+z
1/2+x,1/2+y,z
1/2-x,1/2+y,1/2-z
1/2-x,1/2-y,-z
1/2+x,1/2-y,1/2+z
loop_
_atom_site_type_symbol
_atom_site_label
_atom_site_fract_x
_atom_site_fract_y
_atom_site_fract_z
Si Si1 0.626936 0.897502 0.045006
Si Si2 0.588130 0.149120 0.293265
Si Si3 0.818255 0.829739 0.314338
Si Si4 0.076360 0.415560 0.379026
Si Si5 0.012756 0.092695 0.020000
Si Si6 0.310364 0.466944 0.440195
O O1 0.828296 0.878391 0.775876
O O2 0.690210 0.976197 0.022284
O O3 0.500000 0.846997 0.250000
O O4 0.487526 0.909859 0.133542
O O5 0.390364 0.145402 0.474617
O O6 0.681917 0.234861 0.167231
O O7 0.538282 0.147857 0.437953
O O8 0.704223 0.071828 0.132052
O O9 0.954487 0.850093 0.089490
O O10 0.870746 0.888307 0.322577
O O11 0.297968 0.406158 0.144653
O O12 0.000000 0.500000 0.500000
O O13 0.000000 0.000000 0.000000
O O14 0.500000 0.511594 0.250000
#
# Coordination Sequence:
#
# PCOD9303940 Si02
#       6
#     8   8   8   8   8   8
#     4  12  26  40  66  96 131 172 225 277 331 382
#     4  11  25  41  65  97 134 176 221 266 339 400
#     4  11  23  42  64  96 134 180 216 269 330 407
#     4  11  23  41  65  93 133 171 223 279 325 394
#     4  11  23  41  66  97 129 175 225 269 330 393
#     4  12  25  39  61  98 142 178 215 269 334 405
#
# _framework density 23.268062
#
# number of rings (size 3 to 8) (size 9 to 14) (size 15 to 20)
#    0.000    0.667    3.333    5.000    9.333    0.000 
#    0.000    0.000    0.000    1.000    0.000    0.000 
#    0.000    0.000    0.000    0.000    0.000    0.000 
#
# Total GULP energy -134223.995517 kJ/mol
# GULP energy per Si atom -5592.666480 kJ/mol
# Density = 2.321510 g / cm^3
# Si number density = 23.268062 Si / 1000 Ang^3
#
#
#
# Elastic Constant Matrix: (Units=GPa)
#
#
# Indices 1 2 3 4 5 6 
#
# 1 156.4969 -4.4418 54.2006 0.0004 -0.3624 -0.0052
# 2 -4.4418 20.6027 -10.8945 0.0084 1.0696 -0.0007
# 3 54.2006 -10.8945 157.0628 -0.0164 10.4658 0.0053
# 4 0.0004 0.0084 -0.0164 17.7512 0.0159 0.1020
# 5 -0.3624 1.0696 10.4658 0.0159 39.6382 -0.0054
# 6 -0.0052 -0.0007 0.0053 0.1020 -0.0054 19.3467
#
#
#
# Elastic Compliance Matrix: (Units=1/GPa)
#
#
# Indices 1 2 3 4 5 6 
#
# 1 0.007279 0.000184 -0.002548 -0.000003 0.000734 0.000003
# 2 0.000184 0.050601 0.003601 -0.000019 -0.002314 0.000000
# 3 -0.002548 0.003601 0.007638 0.000007 -0.002137 -0.000003
# 4 -0.000003 -0.000019 0.000007 0.056336 -0.000024 -0.000297
# 5 0.000734 -0.002314 -0.002137 -0.000024 0.025862 0.000008
# 6 0.000003 0.000000 -0.000003 -0.000297 0.000008 0.051690
#
#
# Mechanical properties :
#
#
# Convention : Reuss Voigt Hill
#
# Bulk Modulus (GPa) = 14.70773 45.76567 30.23670
# Shear Modulus (GPa) = 22.76890 35.03376 28.90133
#
# Velocity S-wave (km/s) = 3.13157 3.88449 3.52817
# Velocity P-wave (km/s) = 4.40572 6.31115 5.44247
#
# Compressibility (1/GPa) = 0.06799145
#
# Stress axis : x y z
#
# Youngs Moduli (GPa) = 137.37476 19.76239 130.91727
#
# Poissons Ratio (x) = -0.00363 0.33360
# Poissons Ratio (y) = -0.02525 -0.47139
# Poissons Ratio (z) = 0.35006 -0.07116
#
# Static dielectric constant tensor:
#      x y z
#    x 1.843920 -0.000020 0.107760 
#    y -0.000020 1.878560 0.000120 
#    z 0.107760 0.000120 1.852920 
# 
# From -- ./inp_files/216261.got.cif
#   From: 2010.05.17/outbox.cif.g08.bks.cpg/sg15_109_cif.got.tgz:216261.got - 2010.06.03 18:47:42.
