data_PCOD9303075
_publ_section_title
;
Structure prediction by ZEFSAII (Michael W. Deem and Ramdas Pophale) SiO2 
 PCOD9303075
Probable space group: C 2/C
;
_chemical_formula_sum "Si O2"
_cell_formula_units_Z 40
_cell_length_a 28.376325
_cell_length_b 10.063830
_cell_length_c 12.844939
_cell_angle_alpha 90.000000
_cell_angle_beta 25.319864
_cell_angle_gamma 90.000000
_cell_volume 1568.778288
_symmetry_space_group_name_H-M "C 2/C"
_symmetry_group_IT_number 15
_symmetry_cell_setting 'monoclinic'
loop_
_space_group_symop_operation_xyz
x,y,z
-x,y,1/2-z
-x,-y,-z
x,-y,1/2+z
1/2+x,1/2+y,z
1/2-x,1/2+y,1/2-z
1/2-x,1/2-y,-z
1/2+x,1/2-y,1/2+z
loop_
_atom_site_type_symbol
_atom_site_label
_atom_site_fract_x
_atom_site_fract_y
_atom_site_fract_z
Si Si1 0.374385 0.249995 0.298946
Si Si2 0.229766 0.910185 0.670754
Si Si3 0.536118 0.191300 0.791863
Si Si4 0.845345 0.949339 0.900384
Si Si5 0.701900 0.856154 0.350661
O O1 0.250000 0.250000 0.500000
O O2 0.391714 0.403631 0.296668
O O3 0.388331 0.166998 0.378501
O O4 0.448401 0.195684 0.058423
O O5 0.357793 0.892797 0.387110
O O6 0.163548 0.892249 0.698357
O O7 0.214322 0.794179 0.785508
O O8 0.211703 0.056461 0.752915
O O9 0.500000 0.142692 0.750000
O O10 0.578588 0.343253 0.693748
O O11 0.724464 0.938534 0.198350
#
# Coordination Sequence:
#
# PCOD9303075 Si02
#       5
#     8   8   8   8   8
#     4  12  23  43  73 103 141 192 237 290 363 416
#     4  11  24  46  72 103 146 183 238 294 358 420
#     4  11  26  44  69 109 143 185 237 299 351 426
#     4  11  24  47  73 101 145 191 241 290 352 436
#     4  11  22  41  72 100 139 188 230 287 356 417
#
# _framework density 25.497547000000001
#
# number of rings (size 3 to 8) (size 9 to 14) (size 15 to 20)
#    0.000    0.800    4.000    5.400    0.000    0.800 
#    0.000    6.000    0.000    0.000    0.000    0.000 
#    0.000    0.000    0.000    0.000    0.000    0.000 
#
# Total GULP energy -111518.429801 kJ/mol
# GULP energy per Si atom -5575.921490 kJ/mol
# Density = 2.543951 g / cm^3
# Si number density = 25.497547 Si / 1000 Ang^3
#
#
#
# Elastic Constant Matrix: (Units=GPa)
#
#
# Indices 1 2 3 4 5 6 
#
# 1 78.5420 12.8075 32.0358 0.0000 21.6632 0.0000
# 2 12.8075 98.3663 14.4312 0.0000 22.8592 0.0000
# 3 32.0358 14.4312 190.9562 0.0000 51.6134 0.0000
# 4 0.0000 0.0000 0.0000 24.3823 0.0000 15.2377
# 5 21.6632 22.8592 51.6134 0.0000 42.6407 0.0000
# 6 0.0000 0.0000 0.0000 15.2377 0.0000 29.9924
#
#
#
# Elastic Compliance Matrix: (Units=1/GPa)
#
#
# Indices 1 2 3 4 5 6 
#
# 1 0.014873 -0.000315 -0.000705 0.000000 -0.006534 0.000000
# 2 -0.000315 0.011806 0.001231 0.000000 -0.007659 0.000000
# 3 -0.000705 0.001231 0.007942 0.000000 -0.009914 0.000000
# 4 0.000000 0.000000 0.000000 0.060093 0.000000 -0.030530
# 5 -0.006534 -0.007659 -0.009914 0.000000 0.042878 0.000000
# 6 0.000000 0.000000 0.000000 -0.030530 0.000000 0.048853
#
#
# Mechanical properties :
#
#
# Convention : Reuss Voigt Hill
#
# Bulk Modulus (GPa) = 28.53673 54.04594 41.29133
# Shear Modulus (GPa) = 25.29019 39.97575 32.63297
#
# Velocity S-wave (km/s) = 3.15281 3.96388 3.58138
# Velocity P-wave (km/s) = 4.94670 6.49556 5.77331
#
# Compressibility (1/GPa) = 0.03504256
#
# Stress axis : x y z
#
# Youngs Moduli (GPa) = 67.23518 84.69989 125.91427
#
# Poissons Ratio (x) = 0.02665 0.08883
# Poissons Ratio (y) = 0.02116 -0.15496
# Poissons Ratio (z) = 0.04743 -0.10424
#
# Static dielectric constant tensor:
#      x y z
#    x 1.964070 0.000000 -0.001130 
#    y 0.000000 2.017830 0.000000 
#    z -0.001130 0.000000 2.120290 
# 
# From -- ./inp_files/126348.got.cif
#   From: 2010.05.17/outbox.cif.g08.bks.cpg/sg15_64_cif.got.tgz:126348.got - 2010.06.03 18:47:42.
