data_PCOD9303304
_publ_section_title
;
Structure prediction by ZEFSAII (Michael W. Deem and Ramdas Pophale) SiO2 
 PCOD9303304
Probable space group: C 2/C
;
_chemical_formula_sum "Si O2"
_cell_formula_units_Z 28
_cell_length_a 10.127206
_cell_length_b 18.877605
_cell_length_c 8.185823
_cell_angle_alpha 90.000000
_cell_angle_beta 47.923646
_cell_angle_gamma 90.000000
_cell_volume 1161.583772
_symmetry_space_group_name_H-M "C 2/C"
_symmetry_group_IT_number 15
_symmetry_cell_setting 'monoclinic'
loop_
_space_group_symop_operation_xyz
x,y,z
-x,y,1/2-z
-x,-y,-z
x,-y,1/2+z
1/2+x,1/2+y,z
1/2-x,1/2+y,1/2-z
1/2-x,1/2-y,-z
1/2+x,1/2-y,1/2+z
loop_
_atom_site_type_symbol
_atom_site_label
_atom_site_fract_x
_atom_site_fract_y
_atom_site_fract_z
Si Si1 0.379329 0.054200 0.003469
Si Si2 0.010312 0.685225 0.047338
Si Si3 0.000000 0.940682 0.750000
Si Si4 0.918036 0.845382 0.135403
O O1 0.500000 0.070760 0.750000
O O2 0.364127 0.129988 0.104067
O O3 0.187623 0.021104 0.124630
O O4 0.500000 0.000000 0.000000
O O5 0.000000 0.682442 0.250000
O O6 0.980570 0.766786 0.028311
O O7 0.205187 0.659757 0.832593
O O8 0.035636 0.897608 0.551977
O O9 0.000000 0.859401 0.250000
#
# Coordination Sequence:
#
# PCOD9303304 Si02
#       4
#     8   8   4   8
#     4  12  27  48  70 103 142 191 245 295 353 433
#     4  11  22  43  69 106 149 184 236 299 357 426
#     4  12  26  48  78 106 142 190 240 296 370 422
#     4  11  23  41  73 111 145 186 234 300 363 427
#
# _framework density 24.10502
#
# number of rings (size 3 to 8) (size 9 to 14) (size 15 to 20)
#    0.000    0.571    2.857    7.714    2.000    3.429 
#    2.571    0.000    0.000    0.000    0.000    0.000 
#    0.000    0.000    0.000    0.000    0.000    0.000 
#
# Total GULP energy -78380.135113 kJ/mol
# GULP energy per Si atom -5598.581079 kJ/mol
# Density = 2.405016 g / cm^3
# Si number density = 24.105020 Si / 1000 Ang^3
#
#
#
# Elastic Constant Matrix: (Units=GPa)
#
#
# Indices 1 2 3 4 5 6 
#
# 1 140.9773 46.9307 36.2360 0.0000 -33.8964 0.0000
# 2 46.9307 66.4098 8.9953 0.0000 6.8484 0.0000
# 3 36.2360 8.9953 95.2507 0.0000 -29.8459 0.0000
# 4 0.0000 0.0000 0.0000 -3.2252 0.0000 -11.4636
# 5 -33.8964 6.8484 -29.8459 0.0000 60.5605 0.0000
# 6 0.0000 0.0000 0.0000 -11.4636 0.0000 41.0888
#
#
#
# Elastic Compliance Matrix: (Units=1/GPa)
#
#
# Indices 1 2 3 4 5 6 
#
# 1 0.012274 -0.009198 -0.001564 0.000000 0.007139 0.000000
# 2 -0.009198 0.022583 -0.001238 0.000000 -0.008312 0.000000
# 3 -0.001564 -0.001238 0.012985 0.000000 0.005664 0.000000
# 4 0.000000 0.000000 0.000000 -0.155678 0.000000 -0.043433
# 5 0.007139 -0.008312 0.005664 0.000000 0.024240 0.000000
# 6 0.000000 0.000000 0.000000 -0.043433 0.000000 0.012220
#
#
# Mechanical properties :
#
#
# Convention : Reuss Voigt Hill
#
# Bulk Modulus (GPa) = 41.94178 54.10688 48.02433
# Shear Modulus (GPa) = -126.81217 33.71653 -46.54782
#
# Velocity S-wave (km/s) = -7.26102 3.74402 -4.39913
# Velocity P-wave (km/s) = 7.27043 6.41758 2.41597
#
# Compressibility (1/GPa) = 0.02384257
#
# Stress axis : x y z
#
# Youngs Moduli (GPa) = 81.47381 44.28082 77.01064
#
# Poissons Ratio (x) = 0.40730 0.12041
# Poissons Ratio (y) = 0.74941 0.09534
# Poissons Ratio (z) = 0.12739 0.05482
#
# Static dielectric constant tensor:
#      x y z
#    x 2.018200 0.000000 0.052140 
#    y 0.000000 1.846500 0.000000 
#    z 0.052140 0.000000 1.932430 
# 
# From -- ./inp_files/22458.got.cif
#   From: 2010.05.17/outbox.cif.g08.bks.cpg/sg15_12_cif.got.tgz:22458.got - 2010.06.03 18:47:42.
