data_PCOD9303777
_publ_section_title
;
Structure prediction by ZEFSAII (Michael W. Deem and Ramdas Pophale) SiO2 
 PCOD9303777
Probable space group: C 2/C
;
_chemical_formula_sum "Si O2"
_cell_formula_units_Z 48
_cell_length_a 17.000806
_cell_length_b 4.953299
_cell_length_c 24.881620
_cell_angle_alpha 90.000000
_cell_angle_beta 117.512125
_cell_angle_gamma 90.000000
_cell_volume 1858.334020
_symmetry_space_group_name_H-M "C 2/C"
_symmetry_group_IT_number 15
_symmetry_cell_setting 'monoclinic'
loop_
_space_group_symop_operation_xyz
x,y,z
-x,y,1/2-z
-x,-y,-z
x,-y,1/2+z
1/2+x,1/2+y,z
1/2-x,1/2+y,1/2-z
1/2-x,1/2-y,-z
1/2+x,1/2-y,1/2+z
loop_
_atom_site_type_symbol
_atom_site_label
_atom_site_fract_x
_atom_site_fract_y
_atom_site_fract_z
Si Si1 0.427266 0.317732 0.947960
Si Si2 0.533726 0.427578 0.662604
Si Si3 0.793123 0.294195 0.785743
Si Si4 0.822438 0.531793 0.000218
Si Si5 0.245869 0.173868 0.611766
Si Si6 0.576735 0.047645 0.357674
O O1 0.453668 0.314674 0.894118
O O2 0.400989 0.079121 0.980126
O O3 0.331685 0.459556 0.917373
O O4 0.500000 0.500000 0.000000
O O5 0.619426 0.617405 0.699265
O O6 0.502392 0.156634 0.682585
O O7 0.454841 0.644567 0.647824
O O8 0.783488 0.582029 0.755047
O O9 0.781030 0.349510 0.845223
O O10 0.760143 0.333850 0.946022
O O11 0.750000 0.750000 0.000000
O O12 0.883359 0.475296 0.070981
O O13 0.337877 0.020987 0.650980
#
# Coordination Sequence:
#
# PCOD9303777 Si02
#       6
#     8   8   8   8   8   8
#     4  11  23  39  63 101 142 194 230 278 336 430
#     4  11  26  43  71 103 140 178 238 294 349 421
#     4  11  27  52  76 100 133 180 243 309 363 416
#     4  12  24  40  67 105 156 195 233 275 360 441
#     4  11  27  42  71  99 143 192 237 288 361 422
#     4  12  24  44  67 107 148 184 225 283 351 440
#
# _framework density 25.829585000000002
#
# number of rings (size 3 to 8) (size 9 to 14) (size 15 to 20)
#    0.000    0.667    3.333    3.500    9.333    1.333 
#    0.000    5.000    0.000    0.000    0.000    0.000 
#    0.000    0.000    0.000    0.000    0.000    0.000 
#
# Total GULP energy -134069.264308 kJ/mol
# GULP energy per Si atom -5586.219346 kJ/mol
# Density = 2.577080 g / cm^3
# Si number density = 25.829585 Si / 1000 Ang^3
#
#
#
# Elastic Constant Matrix: (Units=GPa)
#
#
# Indices 1 2 3 4 5 6 
#
# 1 99.1744 17.9701 -14.6358 -0.0004 26.3963 -0.0004
# 2 17.9701 93.7456 -1.9705 -0.0010 -3.2179 -0.0016
# 3 -14.6358 -1.9705 47.3293 -0.0002 -7.1423 0.0002
# 4 -0.0004 -0.0010 -0.0002 35.3326 0.0002 5.5538
# 5 26.3963 -3.2179 -7.1423 0.0002 37.0964 -0.0002
# 6 -0.0004 -0.0016 0.0002 5.5538 -0.0002 55.8509
#
#
#
# Elastic Compliance Matrix: (Units=1/GPa)
#
#
# Indices 1 2 3 4 5 6 
#
# 1 0.013470 -0.002847 0.002640 0.000000 -0.009323 0.000000
# 2 -0.002847 0.011317 0.000046 0.000000 0.003016 0.000000
# 3 0.002640 0.000046 0.022312 0.000000 0.002421 0.000000
# 4 0.000000 0.000000 0.000000 0.028752 0.000000 -0.002859
# 5 -0.009323 0.003016 0.002421 0.000000 0.034319 0.000000
# 6 0.000000 0.000000 0.000000 -0.002859 0.000000 0.018189
#
#
# Mechanical properties :
#
#
# Convention : Reuss Voigt Hill
#
# Bulk Modulus (GPa) = 21.37737 26.99744 24.18740
# Shear Modulus (GPa) = 34.65635 41.58167 38.11901
#
# Velocity S-wave (km/s) = 3.66694 4.01664 3.84577
# Velocity P-wave (km/s) = 5.12083 5.65562 5.39485
#
# Compressibility (1/GPa) = 0.04677844
#
# Stress axis : x y z
#
# Youngs Moduli (GPa) = 74.23810 88.36002 44.81844
#
# Poissons Ratio (x) = 0.25153 -0.11832
# Poissons Ratio (y) = 0.21133 -0.00206
# Poissons Ratio (z) = -0.19598 -0.00407
#
# Static dielectric constant tensor:
#      x y z
#    x 2.368840 0.000000 -0.134580 
#    y 0.000000 2.184420 0.000000 
#    z -0.134580 0.000000 2.161010 
# 
# From -- ./inp_files/297542.got.cif
#   From: 2010.05.17/outbox.cif.g08.bks.cpg/sg15_149_cif.got.tgz:297542.got - 2010.06.03 18:47:42.
