data_PCOD9303827
_publ_section_title
;
Structure prediction by ZEFSAII (Michael W. Deem and Ramdas Pophale) SiO2 
 PCOD9303827
Probable space group: C 2/C
;
_chemical_formula_sum "Si O2"
_cell_formula_units_Z 40
_cell_length_a 13.832804
_cell_length_b 10.240443
_cell_length_c 15.753465
_cell_angle_alpha 90.000000
_cell_angle_beta 64.616973
_cell_angle_gamma 90.000000
_cell_volume 2016.114087
_symmetry_space_group_name_H-M "C 2/C"
_symmetry_group_IT_number 15
_symmetry_cell_setting 'monoclinic'
loop_
_space_group_symop_operation_xyz
x,y,z
-x,y,1/2-z
-x,-y,-z
x,-y,1/2+z
1/2+x,1/2+y,z
1/2-x,1/2+y,1/2-z
1/2-x,1/2-y,-z
1/2+x,1/2-y,1/2+z
loop_
_atom_site_type_symbol
_atom_site_label
_atom_site_fract_x
_atom_site_fract_y
_atom_site_fract_z
Si Si1 0.412519 0.218169 0.711653
Si Si2 0.096954 0.962290 0.903012
Si Si3 0.983774 0.451710 0.601718
Si Si4 0.332304 0.281133 0.209545
Si Si5 0.297891 0.161543 0.406880
O O1 0.500000 0.245817 0.750000
O O2 0.427775 0.324977 0.632378
O O3 0.287685 0.227888 0.782725
O O4 0.432341 0.072073 0.671466
O O5 0.206053 0.939544 0.914022
O O6 0.119508 0.076733 0.827003
O O7 0.000000 0.000000 0.000000
O O8 0.096039 0.410032 0.600923
O O9 0.000000 0.500000 0.500000
O O10 0.906472 0.327488 0.638328
O O11 0.324132 0.246476 0.312683
O O12 0.250000 0.250000 0.500000
#
# Coordination Sequence:
#
# PCOD9303827 Si02
#       5
#     8   8   8   8   8
#     4  11  23  40  62  91 123 163 208 260 318 375
#     4  11  24  41  63  95 128 163 213 265 316 378
#     4  12  24  42  66  93 127 171 215 260 318 386
#     4  11  23  43  64  90 127 169 210 261 317 381
#     4  11  24  42  67  95 129 172 216 260 321 386
#
# _framework density 19.840147000000002
#
# number of rings (size 3 to 8) (size 9 to 14) (size 15 to 20)
#    0.000    0.800    0.000   10.200    0.000    4.800 
#    0.000    4.000    0.000    0.000    0.000    0.000 
#    0.000    0.000    0.000    0.000    0.000    0.000 
#
# Total GULP energy -111912.475873 kJ/mol
# GULP energy per Si atom -5595.623794 kJ/mol
# Density = 1.979499 g / cm^3
# Si number density = 19.840147 Si / 1000 Ang^3
#
#
#
# Elastic Constant Matrix: (Units=GPa)
#
#
# Indices 1 2 3 4 5 6 
#
# 1 165.3936 49.7268 37.4847 0.0000 2.3734 0.0000
# 2 49.7268 114.5958 20.6822 0.0000 -8.0422 0.0000
# 3 37.4847 20.6822 81.8442 0.0000 -3.5890 0.0000
# 4 0.0000 0.0000 0.0000 45.1483 0.0000 -9.0897
# 5 2.3734 -8.0422 -3.5890 0.0000 28.8110 0.0000
# 6 0.0000 0.0000 0.0000 -9.0897 0.0000 37.4816
#
#
#
# Elastic Compliance Matrix: (Units=1/GPa)
#
#
# Indices 1 2 3 4 5 6 
#
# 1 0.007585 -0.002908 -0.002817 0.000000 -0.001788 0.000000
# 2 -0.002908 0.010409 -0.001167 0.000000 0.003000 0.000000
# 3 -0.002817 -0.001167 0.013875 0.000000 0.001635 0.000000
# 4 0.000000 0.000000 0.000000 0.023286 0.000000 0.005647
# 5 -0.001788 0.003000 0.001635 0.000000 0.035897 0.000000
# 6 0.000000 0.000000 0.000000 0.005647 0.000000 0.028049
#
#
# Mechanical properties :
#
#
# Convention : Reuss Voigt Hill
#
# Bulk Modulus (GPa) = 55.29616 64.18012 59.73814
# Shear Modulus (GPa) = 35.99320 39.21753 37.60537
#
# Velocity S-wave (km/s) = 4.26392 4.45080 4.35836
# Velocity P-wave (km/s) = 7.22306 7.67018 7.44998
#
# Compressibility (1/GPa) = 0.01808444
#
# Stress axis : x y z
#
# Youngs Moduli (GPa) = 131.84386 96.06662 72.07086
#
# Poissons Ratio (x) = 0.27939 0.20304
# Poissons Ratio (y) = 0.38343 0.08410
# Poissons Ratio (z) = 0.37144 0.11211
#
# Static dielectric constant tensor:
#      x y z
#    x 1.671470 0.000000 -0.009230 
#    y 0.000000 1.664930 0.000000 
#    z -0.009230 0.000000 1.682000 
# 
# From -- ./inp_files/150574.got.cif
#   From: 2010.05.17/outbox.cif.g08.bks.cpg/sg15_76_cif.got.tgz:150574.got - 2010.06.03 18:47:42.
