data_PCOD9303509
_publ_section_title
;
Structure prediction by ZEFSAII (Michael W. Deem and Ramdas Pophale) SiO2 
 PCOD9303509
Probable space group: C 2/C
;
_chemical_formula_sum "Si O2"
_cell_formula_units_Z 36
_cell_length_a 10.357735
_cell_length_b 27.299308
_cell_length_c 6.065435
_cell_angle_alpha 90.000000
_cell_angle_beta 108.498507
_cell_angle_gamma 90.000000
_cell_volume 1626.442661
_symmetry_space_group_name_H-M "C 2/C"
_symmetry_group_IT_number 15
_symmetry_cell_setting 'monoclinic'
loop_
_space_group_symop_operation_xyz
x,y,z
-x,y,1/2-z
-x,-y,-z
x,-y,1/2+z
1/2+x,1/2+y,z
1/2-x,1/2+y,1/2-z
1/2-x,1/2-y,-z
1/2+x,1/2-y,1/2+z
loop_
_atom_site_type_symbol
_atom_site_label
_atom_site_fract_x
_atom_site_fract_y
_atom_site_fract_z
Si Si1 0.147579 0.738440 0.146239
Si Si2 0.500000 0.373226 0.750000
Si Si3 0.500000 0.024885 0.750000
Si Si4 0.000000 0.684719 0.750000
Si Si5 0.675325 0.330037 0.475487
Si Si6 0.765872 0.604529 0.651655
O O1 0.204666 0.692654 0.313710
O O2 0.145294 0.786988 0.287938
O O3 0.250000 0.750000 0.000000
O O4 0.006842 0.720670 0.962020
O O5 0.554768 0.341320 0.577918
O O6 0.364530 0.399378 0.580179
O O7 0.363498 0.058018 0.686343
O O8 0.500000 0.000000 0.500000
O O9 0.131011 0.650047 0.838607
O O10 0.712066 0.379745 0.364609
#
# Coordination Sequence:
#
# PCOD9303509 Si02
#       6
#     8   4   4   4   8   8
#     4  11  23  42  60  99 149 206 272 315 362 416
#     4  12  24  47  69 110 148 202 250 307 386 461
#     4  11  30  58  93 126 154 186 250 333 416 501
#     4  11  22  45  64 102 140 208 262 312 362 438
#     4  11  24  44  65 101 153 208 257 315 366 447
#     4  11  26  48  79 108 151 199 247 316 398 470
#
# _framework density 22.134197
#
# number of rings (size 3 to 8) (size 9 to 14) (size 15 to 20)
#    0.000    0.889    4.444    0.667    3.111    6.222 
#    4.000    1.111    0.000    0.000    0.000    0.000 
#    0.000    0.000    0.000    0.000    0.000    0.000 
#
# Total GULP energy -100572.088755 kJ/mol
# GULP energy per Si atom -5587.338264 kJ/mol
# Density = 2.208382 g / cm^3
# Si number density = 22.134197 Si / 1000 Ang^3
#
#
#
# Elastic Constant Matrix: (Units=GPa)
#
#
# Indices 1 2 3 4 5 6 
#
# 1 146.1503 53.9867 81.8354 0.0000 -1.1761 0.0000
# 2 53.9867 98.9912 78.6954 0.0000 3.7169 0.0000
# 3 81.8354 78.6954 186.8511 0.0000 15.9918 0.0000
# 4 0.0000 0.0000 0.0000 30.2337 0.0000 4.1618
# 5 -1.1761 3.7169 15.9918 0.0000 66.3885 0.0000
# 6 0.0000 0.0000 0.0000 4.1618 0.0000 33.7701
#
#
#
# Elastic Compliance Matrix: (Units=1/GPa)
#
#
# Indices 1 2 3 4 5 6 
#
# 1 0.009643 -0.002809 -0.003133 0.000000 0.001083 0.000000
# 2 -0.002809 0.016037 -0.005558 0.000000 0.000391 0.000000
# 3 -0.003133 -0.005558 0.009233 0.000000 -0.001968 0.000000
# 4 0.000000 0.000000 0.000000 0.033646 0.000000 -0.004147
# 5 0.001083 0.000391 -0.001968 0.000000 0.015534 0.000000
# 6 0.000000 0.000000 0.000000 -0.004147 0.000000 0.030123
#
#
# Mechanical properties :
#
#
# Convention : Reuss Voigt Hill
#
# Bulk Modulus (GPa) = 83.93275 95.66974 89.80125
# Shear Modulus (GPa) = 35.41394 40.57681 37.99538
#
# Velocity S-wave (km/s) = 4.00430 4.28625 4.14767
# Velocity P-wave (km/s) = 7.70594 8.23483 7.97477
#
# Compressibility (1/GPa) = 0.01191430
#
# Stress axis : x y z
#
# Youngs Moduli (GPa) = 103.70396 62.35473 108.30578
#
# Poissons Ratio (x) = 0.17515 0.33931
# Poissons Ratio (y) = 0.29130 0.60192
# Poissons Ratio (z) = 0.32490 0.34654
#
# Static dielectric constant tensor:
#      x y z
#    x 1.913510 0.000000 0.018240 
#    y 0.000000 1.779310 0.000000 
#    z 0.018240 0.000000 1.917380 
# 
# From -- ./inp_files/4749.got.cif
#   From: 2010.05.17/outbox.cif.g08.bks.cpg/sg15_3_cif.got.tgz:4749.got - 2010.06.03 18:47:42.
