data_PCOD9303701
_publ_section_title
;
Structure prediction by ZEFSAII (Michael W. Deem and Ramdas Pophale) SiO2 
 PCOD9303701
Probable space group: C 2/C
;
_chemical_formula_sum "Si O2"
_cell_formula_units_Z 36
_cell_length_a 12.691892
_cell_length_b 20.606263
_cell_length_c 5.611724
_cell_angle_alpha 90.000000
_cell_angle_beta 90.476483
_cell_angle_gamma 90.000000
_cell_volume 1467.597258
_symmetry_space_group_name_H-M "C 2/C"
_symmetry_group_IT_number 15
_symmetry_cell_setting 'monoclinic'
loop_
_space_group_symop_operation_xyz
x,y,z
-x,y,1/2-z
-x,-y,-z
x,-y,1/2+z
1/2+x,1/2+y,z
1/2-x,1/2+y,1/2-z
1/2-x,1/2-y,-z
1/2+x,1/2-y,1/2+z
loop_
_atom_site_type_symbol
_atom_site_label
_atom_site_fract_x
_atom_site_fract_y
_atom_site_fract_z
Si Si1 0.126544 0.371509 0.750489
Si Si2 0.000000 0.166475 0.250000
Si Si3 0.269547 0.897295 0.255014
Si Si4 0.425491 0.559829 0.935455
Si Si5 0.881303 0.225197 0.644548
O O1 0.163771 0.392521 0.487186
O O2 0.159040 0.296165 0.791587
O O3 0.000000 0.376135 0.750000
O O4 0.171954 0.405949 0.991481
O O5 0.915675 0.213234 0.373423
O O6 0.081384 0.112443 0.359198
O O7 0.183259 0.953403 0.197172
O O8 0.198265 0.831418 0.277334
O O9 0.500000 0.596425 0.750000
O O10 0.500000 0.500000 0.000000
O O11 0.000000 0.223704 0.750000
#
# Coordination Sequence:
#
# PCOD9303701 Si02
#       5
#     8   4   8   8   8
#     4  11  27  42  65  95 141 197 249 281 329 408
#     4  12  20  40  62  98 154 182 218 282 368 410
#     4  12  23  44  65 100 138 193 232 295 351 421
#     4  12  25  41  69 103 144 173 222 300 379 437
#     4  11  23  36  64  98 147 186 232 283 354 426
#
# _framework density 24.529888
#
# number of rings (size 3 to 8) (size 9 to 14) (size 15 to 20)
#    0.000    0.444    5.556    3.333    6.222    0.000 
#    0.000    0.000    0.000    0.000    0.000   15.556 
#    0.000    0.000    0.000    0.000    0.000    0.000 
#
# Total GULP energy -100363.722216 kJ/mol
# GULP energy per Si atom -5575.762345 kJ/mol
# Density = 2.447406 g / cm^3
# Si number density = 24.529888 Si / 1000 Ang^3
#
#
#
# Elastic Constant Matrix: (Units=GPa)
#
#
# Indices 1 2 3 4 5 6 
#
# 1 155.9627 11.3690 69.6685 0.0000 5.2947 0.0000
# 2 11.3690 40.2905 16.1979 0.0000 6.7943 0.0000
# 3 69.6685 16.1979 129.9344 0.0000 -1.9088 0.0000
# 4 0.0000 0.0000 0.0000 13.8957 0.0000 8.2285
# 5 5.2947 6.7943 -1.9088 0.0000 62.5104 0.0000
# 6 0.0000 0.0000 0.0000 8.2285 0.0000 27.8336
#
#
#
# Elastic Compliance Matrix: (Units=1/GPa)
#
#
# Indices 1 2 3 4 5 6 
#
# 1 0.008484 -0.000447 -0.004505 0.000000 -0.000808 0.000000
# 2 -0.000447 0.026705 -0.003133 0.000000 -0.002960 0.000000
# 3 -0.004505 -0.003133 0.010518 0.000000 0.001043 0.000000
# 4 0.000000 0.000000 0.000000 0.087236 0.000000 -0.025790
# 5 -0.000808 -0.002960 0.001043 0.000000 0.016419 0.000000
# 6 0.000000 0.000000 0.000000 -0.025790 0.000000 0.043552
#
#
# Mechanical properties :
#
#
# Convention : Reuss Voigt Hill
#
# Bulk Modulus (GPa) = 33.85624 57.85090 45.85357
# Shear Modulus (GPa) = 22.83837 36.11143 29.47490
#
# Velocity S-wave (km/s) = 3.05461 3.84101 3.47016
# Velocity P-wave (km/s) = 5.12571 6.58074 5.89826
#
# Compressibility (1/GPa) = 0.02953665
#
# Stress axis : x y z
#
# Youngs Moduli (GPa) = 117.86499 37.44677 95.07725
#
# Poissons Ratio (x) = 0.01672 0.42835
# Poissons Ratio (y) = 0.05264 0.29788
# Poissons Ratio (z) = 0.53102 0.11732
#
# Static dielectric constant tensor:
#      x y z
#    x 1.976780 0.000000 0.130500 
#    y 0.000000 2.006880 0.000000 
#    z 0.130500 0.000000 2.783350 
# 
# From -- ./inp_files/4359.got.cif
#   From: 2010.05.17/outbox.cif.g08.bks.cpg/sg15_3_cif.got.tgz:4359.got - 2010.06.03 18:47:42.
