data_PCOD9303896
_publ_section_title
;
Structure prediction by ZEFSAII (Michael W. Deem and Ramdas Pophale) SiO2 
 PCOD9303896
Probable space group: C 2/C
;
_chemical_formula_sum "Si O2"
_cell_formula_units_Z 48
_cell_length_a 23.178975
_cell_length_b 10.642581
_cell_length_c 13.458346
_cell_angle_alpha 90.000000
_cell_angle_beta 46.290095
_cell_angle_gamma 90.000000
_cell_volume 2399.825609
_symmetry_space_group_name_H-M "C 2/C"
_symmetry_group_IT_number 15
_symmetry_cell_setting 'monoclinic'
loop_
_space_group_symop_operation_xyz
x,y,z
-x,y,1/2-z
-x,-y,-z
x,-y,1/2+z
1/2+x,1/2+y,z
1/2-x,1/2+y,1/2-z
1/2-x,1/2-y,-z
1/2+x,1/2-y,1/2+z
loop_
_atom_site_type_symbol
_atom_site_label
_atom_site_fract_x
_atom_site_fract_y
_atom_site_fract_z
Si Si1 0.660117 0.419131 0.092780
Si Si2 0.000000 0.629604 0.750000
Si Si3 0.685200 0.407998 0.296626
Si Si4 0.546000 0.063082 0.354285
Si Si5 0.579041 0.369617 0.596434
Si Si6 0.279124 0.136490 0.281815
Si Si7 0.000000 0.237111 0.750000
O O1 0.671210 0.411439 0.196298
O O2 0.649499 0.565588 0.074830
O O3 0.580207 0.344611 0.156739
O O4 0.729929 0.361596 0.943231
O O5 0.049785 0.544711 0.765948
O O6 0.062256 0.721220 0.619478
O O7 0.602147 0.411492 0.457993
O O8 0.723942 0.270813 0.269402
O O9 0.740315 0.523157 0.265388
O O10 0.630285 0.108819 0.295235
O O11 0.502935 0.176077 0.345622
O O12 0.500000 0.000000 0.500000
O O13 0.500000 0.414572 0.750000
#
# Coordination Sequence:
#
# PCOD9303896 Si02
#       7
#     8   4   8   8   8   8   4
#     4  11  23  44  67  97 130 175 225 281 326 400
#     4   9  21  40  62  94 131 163 220 276 320 403
#     4  11  24  43  67  93 137 178 218 278 336 403
#     4  11  24  40  65  97 132 177 219 273 334 398
#     4   9  21  42  62  94 128 163 221 268 334 390
#     4  11  26  43  65 101 135 176 225 271 341 399
#     4  11  23  40  70  94 127 173 228 276 322 391
#
# _framework density 20.001453000000001
#
# number of rings (size 3 to 8) (size 9 to 14) (size 15 to 20)
#    0.500    1.000    2.500    1.500    2.333    4.667 
#    3.000    3.333    0.000    0.000    0.000    0.000 
#    0.000    0.000    0.000    0.000    0.000    0.000 
#
# Total GULP energy -133768.870533 kJ/mol
# GULP energy per Si atom -5573.702939 kJ/mol
# Density = 1.995593 g / cm^3
# Si number density = 20.001453 Si / 1000 Ang^3
#
#
#
# Elastic Constant Matrix: (Units=GPa)
#
#
# Indices 1 2 3 4 5 6 
#
# 1 88.9429 42.7533 44.9569 0.0000 5.9548 0.0000
# 2 42.7533 108.4682 20.7250 0.0000 4.1813 0.0000
# 3 44.9569 20.7250 119.9674 0.0000 9.1225 0.0000
# 4 0.0000 0.0000 0.0000 16.0723 0.0000 4.2681
# 5 5.9548 4.1813 9.1225 0.0000 17.4717 0.0000
# 6 0.0000 0.0000 0.0000 4.2681 0.0000 25.6479
#
#
#
# Elastic Compliance Matrix: (Units=1/GPa)
#
#
# Indices 1 2 3 4 5 6 
#
# 1 0.016595 -0.005494 -0.005144 0.000000 -0.001655 0.000000
# 2 -0.005494 0.011390 0.000163 0.000000 -0.000938 0.000000
# 3 -0.005144 0.000163 0.010523 0.000000 -0.003780 0.000000
# 4 0.000000 0.000000 0.000000 0.065096 0.000000 -0.010833
# 5 -0.001655 -0.000938 -0.003780 0.000000 0.059998 0.000000
# 6 0.000000 0.000000 0.000000 -0.010833 0.000000 0.040792
#
#
# Mechanical properties :
#
#
# Convention : Reuss Voigt Hill
#
# Bulk Modulus (GPa) = 56.95903 59.36098 58.16000
# Shear Modulus (GPa) = 21.62664 25.76794 23.69729
#
# Velocity S-wave (km/s) = 3.29181 3.59319 3.44580
# Velocity P-wave (km/s) = 6.55647 6.85255 6.70614
#
# Compressibility (1/GPa) = 0.01755648
#
# Stress axis : x y z
#
# Youngs Moduli (GPa) = 60.25906 87.79613 95.03408
#
# Poissons Ratio (x) = 0.48238 0.48884
# Poissons Ratio (y) = 0.33109 -0.01546
# Poissons Ratio (z) = 0.30996 -0.01428
#
# Static dielectric constant tensor:
#      x y z
#    x 1.693180 0.000000 -0.040230 
#    y 0.000000 1.768770 0.000000 
#    z -0.040230 0.000000 1.826460 
# 
# From -- ./inp_files/117446.got.cif
#   From: 2010.05.17/outbox.cif.g08.bks.cpg/sg15_59_cif.got.tgz:117446.got - 2010.06.03 18:47:42.
