data_PCOD9303102
_publ_section_title
;
Structure prediction by ZEFSAII (Michael W. Deem and Ramdas Pophale) SiO2 
 PCOD9303102
Probable space group: C 2/C
;
_chemical_formula_sum "Si O2"
_cell_formula_units_Z 40
_cell_length_a 18.207985
_cell_length_b 19.518514
_cell_length_c 8.681721
_cell_angle_alpha 90.000000
_cell_angle_beta 35.139229
_cell_angle_gamma 90.000000
_cell_volume 1775.861343
_symmetry_space_group_name_H-M "C 2/C"
_symmetry_group_IT_number 15
_symmetry_cell_setting 'monoclinic'
loop_
_space_group_symop_operation_xyz
x,y,z
-x,y,1/2-z
-x,-y,-z
x,-y,1/2+z
1/2+x,1/2+y,z
1/2-x,1/2+y,1/2-z
1/2-x,1/2-y,-z
1/2+x,1/2-y,1/2+z
loop_
_atom_site_type_symbol
_atom_site_label
_atom_site_fract_x
_atom_site_fract_y
_atom_site_fract_z
Si Si1 0.515496 0.824219 0.062033
Si Si2 0.500000 0.241369 0.250000
Si Si3 0.304175 0.644335 0.989048
Si Si4 0.706777 0.560808 0.765006
Si Si5 0.000000 0.974191 0.250000
Si Si6 0.126534 0.459728 0.227126
O O1 0.500000 0.781609 0.250000
O O2 0.423856 0.888469 0.249155
O O3 0.480967 0.796730 0.947922
O O4 0.660794 0.849672 0.792843
O O5 0.619179 0.290597 0.083325
O O6 0.298524 0.632856 0.814497
O O7 0.384761 0.577186 0.902024
O O8 0.800499 0.510530 0.510735
O O9 0.771943 0.561821 0.818058
O O10 0.568859 0.526017 0.014612
O O11 0.000000 0.500000 0.500000
#
# Coordination Sequence:
#
# PCOD9303102 Si02
#       6
#     8   4   8   8   4   8
#     4  12  25  47  73 104 138 186 243 293 357 427
#     4  11  28  50  72  96 144 195 244 294 350 421
#     4  11  24  45  71  99 146 188 232 302 352 422
#     4  12  23  41  68 104 150 180 228 291 366 426
#     4  11  22  42  64 106 142 181 236 284 368 439
#     4  12  23  39  69 107 139 179 228 293 364 428
#
# _framework density 22.524281999999999
#
# number of rings (size 3 to 8) (size 9 to 14) (size 15 to 20)
#    0.000    0.400    4.000    5.400    0.000    0.800 
#    1.800    0.000    0.000    0.000    0.000    0.000 
#    0.000    0.000    0.000    0.000    0.000    0.000 
#
# Total GULP energy -111660.851549 kJ/mol
# GULP energy per Si atom -5583.042577 kJ/mol
# Density = 2.247302 g / cm^3
# Si number density = 22.524282 Si / 1000 Ang^3
#
#
#
# Elastic Constant Matrix: (Units=GPa)
#
#
# Indices 1 2 3 4 5 6 
#
# 1 127.7413 38.4584 18.2199 0.0000 -1.7191 0.0000
# 2 38.4584 65.3841 34.1868 0.0000 5.4009 0.0000
# 3 18.2199 34.1868 122.5595 0.0001 -2.1472 0.0000
# 4 0.0000 0.0000 0.0001 15.2725 0.0000 -5.8109
# 5 -1.7191 5.4009 -2.1472 0.0000 40.9925 0.0000
# 6 0.0000 0.0000 0.0000 -5.8109 0.0000 36.9233
#
#
#
# Elastic Compliance Matrix: (Units=1/GPa)
#
#
# Indices 1 2 3 4 5 6 
#
# 1 0.009572 -0.005848 0.000229 0.000000 0.001184 0.000000
# 2 -0.005848 0.021765 -0.005261 0.000000 -0.003388 0.000000
# 3 0.000229 -0.005261 0.009614 0.000000 0.001206 0.000000
# 4 0.000000 0.000000 0.000000 0.069648 0.000000 0.010961
# 5 0.001184 -0.003388 0.001206 0.000000 0.024954 0.000000
# 6 0.000000 0.000000 0.000000 0.010961 0.000000 0.028808
#
#
# Mechanical properties :
#
#
# Convention : Reuss Voigt Hill
#
# Bulk Modulus (GPa) = 52.10818 55.26835 53.68826
# Shear Modulus (GPa) = 25.97173 33.62566 29.79870
#
# Velocity S-wave (km/s) = 3.39935 3.86795 3.64120
# Velocity P-wave (km/s) = 6.21224 6.67372 6.44711
#
# Compressibility (1/GPa) = 0.01919085
#
# Stress axis : x y z
#
# Youngs Moduli (GPa) = 104.46973 45.94635 104.01584
#
# Poissons Ratio (x) = 0.26868 -0.02381
# Poissons Ratio (y) = 0.61091 0.54723
# Poissons Ratio (z) = -0.02391 0.24173
#
# Static dielectric constant tensor:
#      x y z
#    x 1.957690 0.000000 0.054950 
#    y 0.000000 1.839000 0.000000 
#    z 0.054950 0.000000 1.788400 
# 
# From -- ./inp_files/23681.got.cif
#   From: 2010.05.17/outbox.cif.g08.bks.cpg/sg15_12_cif.got.tgz:23681.got - 2010.06.03 18:47:42.
