data_PCOD9303780
_publ_section_title
;
Structure prediction by ZEFSAII (Michael W. Deem and Ramdas Pophale) SiO2 
 PCOD9303780
Probable space group: C 2/C
;
_chemical_formula_sum "Si O2"
_cell_formula_units_Z 56
_cell_length_a 8.862525
_cell_length_b 27.917906
_cell_length_c 9.988540
_cell_angle_alpha 90.000000
_cell_angle_beta 71.422672
_cell_angle_gamma 90.000000
_cell_volume 2342.622728
_symmetry_space_group_name_H-M "C 2/C"
_symmetry_group_IT_number 15
_symmetry_cell_setting 'monoclinic'
loop_
_space_group_symop_operation_xyz
x,y,z
-x,y,1/2-z
-x,-y,-z
x,-y,1/2+z
1/2+x,1/2+y,z
1/2-x,1/2+y,1/2-z
1/2-x,1/2-y,-z
1/2+x,1/2-y,1/2+z
loop_
_atom_site_type_symbol
_atom_site_label
_atom_site_fract_x
_atom_site_fract_y
_atom_site_fract_z
Si Si1 0.362054 0.476821 0.675977
Si Si2 0.005765 0.720092 0.026278
Si Si3 0.358687 0.123900 0.578762
Si Si4 0.587255 0.376206 0.967708
Si Si5 0.232970 0.211455 0.306438
Si Si6 0.067581 0.549618 0.428504
Si Si7 0.772594 0.082918 0.616958
O O1 0.500000 0.475916 0.750000
O O2 0.392347 0.432003 0.572008
O O3 0.349135 0.530478 0.624569
O O4 0.188619 0.464818 0.781295
O O5 0.132207 0.717333 0.115117
O O6 0.830988 0.724922 0.143888
O O7 0.027036 0.669157 0.947612
O O8 0.080701 0.758126 0.901271
O O9 0.185084 0.138099 0.572265
O O10 0.429367 0.087943 0.446993
O O11 0.329446 0.096847 0.724807
O O12 0.663909 0.342823 0.831215
O O13 0.400374 0.375291 0.051617
O O14 0.168469 0.574572 0.516599
O O15 0.000000 0.500000 0.500000
#
# Coordination Sequence:
#
# PCOD9303780 Si02
#       7
#     8   8   8   8   8   8   8
#     4  12  24  41  63  86 126 167 215 266 317 386
#     4   9  19  36  61  95 129 163 214 274 329 390
#     4  11  23  39  63  94 128 165 214 270 324 386
#     4  11  23  40  64  92 128 169 214 264 329 392
#     4   9  19  36  62  94 128 166 213 272 332 389
#     4  12  25  42  62  91 124 168 215 266 320 381
#     4  12  25  40  62  93 129 172 216 264 326 390
#
# _framework density 23.904831999999999
#
# number of rings (size 3 to 8) (size 9 to 14) (size 15 to 20)
#    0.000    1.143    2.857    3.857    2.000    2.857 
#    0.000    0.000    0.000    2.571    0.000    0.000 
#    0.000    0.000    0.000    0.000    0.000    0.000 
#
# Total GULP energy -156467.495922 kJ/mol
# GULP energy per Si atom -5588.124854 kJ/mol
# Density = 2.385042 g / cm^3
# Si number density = 23.904832 Si / 1000 Ang^3
#
#
#
# Elastic Constant Matrix: (Units=GPa)
#
#
# Indices 1 2 3 4 5 6 
#
# 1 75.9607 11.4490 27.8853 0.0000 -19.7206 0.0000
# 2 11.4490 98.0190 64.6103 0.0000 -31.1093 0.0000
# 3 27.8853 64.6103 115.2757 0.0000 -54.9948 0.0000
# 4 0.0000 0.0000 0.0000 26.9760 0.0000 -15.4493
# 5 -19.7206 -31.1093 -54.9948 0.0000 50.8975 0.0000
# 6 0.0000 0.0000 0.0000 -15.4493 0.0000 25.7060
#
#
#
# Elastic Compliance Matrix: (Units=1/GPa)
#
#
# Indices 1 2 3 4 5 6 
#
# 1 0.014869 0.001024 -0.002319 0.000000 0.003881 0.000000
# 2 0.001024 0.016251 -0.009139 0.000000 0.000455 0.000000
# 3 -0.002319 -0.009139 0.023249 0.000000 0.018636 0.000000
# 4 0.000000 0.000000 0.000000 0.056526 0.000000 0.033972
# 5 0.003881 0.000455 0.018636 0.000000 0.041565 0.000000
# 6 0.000000 0.000000 0.000000 0.033972 0.000000 0.059318
#
#
# Mechanical properties :
#
#
# Convention : Reuss Voigt Hill
#
# Bulk Modulus (GPa) = 29.85074 55.23827 42.54451
# Shear Modulus (GPa) = 20.50740 33.06996 26.78868
#
# Velocity S-wave (km/s) = 2.93213 3.72344 3.35123
# Velocity P-wave (km/s) = 4.89669 6.45315 5.72803
#
# Compressibility (1/GPa) = 0.03350000
#
# Stress axis : x y z
#
# Youngs Moduli (GPa) = 67.25238 61.53459 43.01289
#
# Poissons Ratio (x) = -0.06299 0.09975
# Poissons Ratio (y) = -0.06884 0.39310
# Poissons Ratio (z) = 0.15596 0.56238
#
# Static dielectric constant tensor:
#      x y z
#    x 1.868440 0.000000 -0.100470 
#    y 0.000000 1.925680 0.000000 
#    z -0.100470 0.000000 1.882620 
# 
# From -- ./inp_files/81293.got.cif
#   From: 2010.05.17/outbox.cif.g08.bks.cpg/sg15_41_cif.got.tgz:81293.got - 2010.06.03 18:47:42.
