data_PCOD9303816
_publ_section_title
;
Structure prediction by ZEFSAII (Michael W. Deem and Ramdas Pophale) SiO2 
 PCOD9303816
Probable space group: C 2/C
;
_chemical_formula_sum "Si O2"
_cell_formula_units_Z 56
_cell_length_a 12.772699
_cell_length_b 14.557052
_cell_length_c 12.254386
_cell_angle_alpha 90.000000
_cell_angle_beta 92.608636
_cell_angle_gamma 90.000000
_cell_volume 2276.131680
_symmetry_space_group_name_H-M "C 2/C"
_symmetry_group_IT_number 15
_symmetry_cell_setting 'monoclinic'
loop_
_space_group_symop_operation_xyz
x,y,z
-x,y,1/2-z
-x,-y,-z
x,-y,1/2+z
1/2+x,1/2+y,z
1/2-x,1/2+y,1/2-z
1/2-x,1/2-y,-z
1/2+x,1/2-y,1/2+z
loop_
_atom_site_type_symbol
_atom_site_label
_atom_site_fract_x
_atom_site_fract_y
_atom_site_fract_z
Si Si1 0.330506 0.177227 0.617189
Si Si2 0.338222 0.544117 0.571974
Si Si3 0.890877 0.843531 0.504305
Si Si4 0.925660 0.794326 0.151108
Si Si5 0.839689 0.492636 0.273864
Si Si6 0.475966 0.093623 0.439777
Si Si7 0.709552 0.143240 0.395306
O O1 0.207685 0.170924 0.582569
O O2 0.365474 0.284208 0.613360
O O3 0.360758 0.105383 0.715129
O O4 0.391239 0.142676 0.511214
O O5 0.391219 0.452158 0.530403
O O6 0.399999 0.598170 0.667824
O O7 0.229140 0.518962 0.622144
O O8 0.303153 0.622552 0.482553
O O9 0.995282 0.807785 0.449420
O O10 0.810468 0.743826 0.155042
O O11 0.000000 0.756370 0.250000
O O12 0.929657 0.558741 0.324404
O O13 0.782485 0.557143 0.184118
O O14 0.589788 0.140390 0.437002
O O15 0.500000 0.000000 0.500000
#
# Coordination Sequence:
#
# PCOD9303816 Si02
#       7
#     8   8   8   8   8   8   8
#     4  11  23  39  72 101 142 184 231 297 359 426
#     4  12  26  47  71 102 147 188 236 305 348 426
#     4  11  23  47  68 101 141 187 234 295 355 421
#     4  12  27  46  76 100 140 196 243 284 361 436
#     4  12  22  39  69 104 141 181 237 285 365 423
#     4  12  20  39  65 101 142 179 227 298 365 407
#     4  12  25  43  70 109 137 181 236 306 354 421
#
# _framework density 24.603145999999999
#
# number of rings (size 3 to 8) (size 9 to 14) (size 15 to 20)
#    0.000    0.286    7.143    3.000    0.000    1.143 
#    0.000    0.000    3.143    0.000    0.000    0.000 
#    0.000    0.000    0.000    0.000    0.000    0.000 
#
# Total GULP energy -156101.702187 kJ/mol
# GULP energy per Si atom -5575.060792 kJ/mol
# Density = 2.454715 g / cm^3
# Si number density = 24.603146 Si / 1000 Ang^3
#
#
#
# Elastic Constant Matrix: (Units=GPa)
#
#
# Indices 1 2 3 4 5 6 
#
# 1 84.2192 21.7135 12.8476 0.0000 0.9724 0.0000
# 2 21.7135 126.1839 7.4247 0.0000 11.9784 0.0000
# 3 12.8476 7.4247 36.2943 0.0000 5.2716 0.0000
# 4 0.0000 0.0000 0.0000 16.8914 0.0000 -9.8656
# 5 0.9724 11.9784 5.2716 0.0000 32.9171 0.0000
# 6 0.0000 0.0000 0.0000 -9.8656 0.0000 10.2038
#
#
#
# Elastic Compliance Matrix: (Units=1/GPa)
#
#
# Indices 1 2 3 4 5 6 
#
# 1 0.013065 -0.002094 -0.004352 0.000000 0.001073 0.000000
# 2 -0.002094 0.008602 -0.000586 0.000000 -0.002974 0.000000
# 3 -0.004352 -0.000586 0.029858 0.000000 -0.004440 0.000000
# 4 0.000000 0.000000 0.000000 0.136005 0.000000 0.131497
# 5 0.001073 -0.002974 -0.004440 0.000000 0.032141 0.000000
# 6 0.000000 0.000000 0.000000 0.131497 0.000000 0.225143
#
#
# Mechanical properties :
#
#
# Convention : Reuss Voigt Hill
#
# Bulk Modulus (GPa) = 26.69535 36.74101 31.71818
# Shear Modulus (GPa) = 10.60747 25.64988 18.12868
#
# Velocity S-wave (km/s) = 2.07865 3.23235 2.71743
# Velocity P-wave (km/s) = 4.07860 5.37556 4.77135
#
# Compressibility (1/GPa) = 0.03745970
#
# Stress axis : x y z
#
# Youngs Moduli (GPa) = 76.53912 116.25006 33.49184
#
# Poissons Ratio (x) = 0.24343 0.14577
# Poissons Ratio (y) = 0.16027 0.01964
# Poissons Ratio (z) = 0.33313 0.06818
#
# Static dielectric constant tensor:
#      x y z
#    x 1.993720 0.000000 -0.078700 
#    y 0.000000 1.725290 0.000000 
#    z -0.078700 0.000000 1.757810 
# 
# From -- ./inp_files/97057.got.cif
#   From: 2010.05.17/outbox.cif.g08.bks.cpg/sg15_49_cif.got.tgz:97057.got - 2010.06.03 18:47:42.
