data_PCOD9303613
_publ_section_title
;
Structure prediction by ZEFSAII (Michael W. Deem and Ramdas Pophale) SiO2 
 PCOD9303613
Probable space group: C 2/C
;
_chemical_formula_sum "Si O2"
_cell_formula_units_Z 48
_cell_length_a 26.858141
_cell_length_b 9.666115
_cell_length_c 13.537185
_cell_angle_alpha 90.000000
_cell_angle_beta 37.302559
_cell_angle_gamma 90.000000
_cell_volume 2129.835410
_symmetry_space_group_name_H-M "C 2/C"
_symmetry_group_IT_number 15
_symmetry_cell_setting 'monoclinic'
loop_
_space_group_symop_operation_xyz
x,y,z
-x,y,1/2-z
-x,-y,-z
x,-y,1/2+z
1/2+x,1/2+y,z
1/2-x,1/2+y,1/2-z
1/2-x,1/2-y,-z
1/2+x,1/2-y,1/2+z
loop_
_atom_site_type_symbol
_atom_site_label
_atom_site_fract_x
_atom_site_fract_y
_atom_site_fract_z
Si Si1 0.620852 0.612360 0.278691
Si Si2 0.130413 0.954532 0.543142
Si Si3 0.089256 0.568947 0.343094
Si Si4 0.303651 0.849761 0.224721
Si Si5 0.564124 0.346349 0.461280
Si Si6 0.596398 0.222720 0.122609
O O1 0.682462 0.698750 0.248831
O O2 0.617949 0.451808 0.312359
O O3 0.526326 0.661209 0.445731
O O4 0.633107 0.624721 0.142850
O O5 0.126359 0.117562 0.572811
O O6 0.211871 0.902713 0.358661
O O7 0.059978 0.914264 0.575759
O O8 0.154731 0.451902 0.261917
O O9 0.097954 0.692559 0.408351
O O10 0.102751 0.642542 0.216362
O O11 0.000000 0.500000 0.500000
O O12 0.353346 0.851668 0.043989
O O13 0.500000 0.225028 0.250000
#
# Coordination Sequence:
#
# PCOD9303613 Si02
#       6
#     8   8   8   8   8   8
#     4  11  22  46  71 103 145 190 242 297 357 441
#     4  12  27  43  74 109 148 191 244 306 381 432
#     4  12  25  47  73 106 142 190 246 304 368 436
#     4  12  28  46  70 110 151 184 243 316 369 438
#     4  11  23  42  77 104 137 191 254 287 354 453
#     4  12  24  49  78 101 145 201 247 304 370 444
#
# _framework density 22.536953
#
# number of rings (size 3 to 8) (size 9 to 14) (size 15 to 20)
#    0.000    0.333    6.667    2.000    2.333    3.333 
#    3.000    0.000    0.000    0.000    0.000    0.000 
#    0.000    0.000    0.000    0.000    0.000    0.000 
#
# Total GULP energy -134262.463674 kJ/mol
# GULP energy per Si atom -5594.269320 kJ/mol
# Density = 2.248566 g / cm^3
# Si number density = 22.536953 Si / 1000 Ang^3
#
#
#
# Elastic Constant Matrix: (Units=GPa)
#
#
# Indices 1 2 3 4 5 6 
#
# 1 72.9058 15.6326 25.7872 0.0000 25.5716 0.0000
# 2 15.6326 115.1675 29.2274 0.0000 9.3474 0.0000
# 3 25.7872 29.2274 93.7217 0.0000 22.9702 0.0000
# 4 0.0000 0.0000 0.0000 31.7191 0.0000 1.8896
# 5 25.5716 9.3474 22.9702 0.0000 45.3541 0.0000
# 6 0.0000 0.0000 0.0000 1.8896 0.0000 37.2478
#
#
#
# Elastic Compliance Matrix: (Units=1/GPa)
#
#
# Indices 1 2 3 4 5 6 
#
# 1 0.017832 -0.001100 -0.002460 0.000000 -0.008582 0.000000
# 2 -0.001100 0.009508 -0.002665 0.000000 0.000010 0.000000
# 3 -0.002460 -0.002665 0.013362 0.000000 -0.004831 0.000000
# 4 0.000000 0.000000 0.000000 0.031622 0.000000 -0.001604
# 5 -0.008582 0.000010 -0.004831 0.000000 0.029332 0.000000
# 6 0.000000 0.000000 0.000000 -0.001604 0.000000 0.026929
#
#
# Mechanical properties :
#
#
# Convention : Reuss Voigt Hill
#
# Bulk Modulus (GPa) = 35.39552 47.00994 41.20273
# Shear Modulus (GPa) = 33.23320 36.94071 35.08695
#
# Velocity S-wave (km/s) = 3.84423 4.05299 3.94999
# Velocity P-wave (km/s) = 5.95347 6.54268 6.25502
#
# Compressibility (1/GPa) = 0.02825216
#
# Stress axis : x y z
#
# Youngs Moduli (GPa) = 56.07796 105.17724 74.83957
#
# Poissons Ratio (x) = 0.11566 0.18413
# Poissons Ratio (y) = 0.06166 0.19944
# Poissons Ratio (z) = 0.13797 0.28029
#
# Static dielectric constant tensor:
#      x y z
#    x 1.880810 0.000000 -0.032060 
#    y 0.000000 1.810950 0.000000 
#    z -0.032060 0.000000 1.879230 
# 
# From -- ./inp_files/176867.got.cif
#   From: 2010.05.17/outbox.cif.g08.bks.cpg/sg15_89_cif.got.tgz:176867.got - 2010.06.03 18:47:42.
