data_PCOD9303186
_publ_section_title
;
Structure prediction by ZEFSAII (Michael W. Deem and Ramdas Pophale) SiO2 
 PCOD9303186
Probable space group: C 2/C
;
_chemical_formula_sum "Si O2"
_cell_formula_units_Z 40
_cell_length_a 9.040750
_cell_length_b 22.903930
_cell_length_c 9.492748
_cell_angle_alpha 90.000000
_cell_angle_beta 79.584185
_cell_angle_gamma 90.000000
_cell_volume 1933.260264
_symmetry_space_group_name_H-M "C 2/C"
_symmetry_group_IT_number 15
_symmetry_cell_setting 'monoclinic'
loop_
_space_group_symop_operation_xyz
x,y,z
-x,y,1/2-z
-x,-y,-z
x,-y,1/2+z
1/2+x,1/2+y,z
1/2-x,1/2+y,1/2-z
1/2-x,1/2-y,-z
1/2+x,1/2-y,1/2+z
loop_
_atom_site_type_symbol
_atom_site_label
_atom_site_fract_x
_atom_site_fract_y
_atom_site_fract_z
Si Si1 0.133642 0.600411 0.032046
Si Si2 0.892326 0.013707 0.887892
Si Si3 0.869232 0.273619 0.089342
Si Si4 0.870593 0.205253 0.362674
Si Si5 0.800408 0.402209 0.653731
O O1 0.182012 0.615357 0.184813
O O2 0.963787 0.576845 0.073745
O O3 0.256738 0.556151 0.952944
O O4 0.123270 0.657943 0.938097
O O5 0.817452 0.954004 0.844982
O O6 0.000000 0.039947 0.750000
O O7 0.000000 0.000000 0.000000
O O8 0.821842 0.253401 0.254972
O O9 0.750000 0.250000 0.000000
O O10 0.030711 0.240706 0.041615
O O11 0.751975 0.156182 0.419186
O O12 0.000000 0.171048 0.250000
#
# Coordination Sequence:
#
# PCOD9303186 Si02
#       5
#     8   8   8   8   8
#     4  11  23  42  68  98 138 177 230 284 346 413
#     4  12  26  46  69  97 132 181 236 286 345 408
#     4   9  18  36  62  94 134 170 222 272 332 407
#     4   8  19  35  64  96 133 177 224 271 339 416
#     4  11  22  42  69  99 133 182 225 286 349 415
#
# _framework density 20.690439000000001
#
# number of rings (size 3 to 8) (size 9 to 14) (size 15 to 20)
#    1.200    0.400    4.000    1.200    2.800    0.800 
#    7.200    2.000    0.000    0.000    0.000    0.000 
#    0.000    0.000    0.000    0.000    0.000    0.000 
#
# Total GULP energy -111476.960550 kJ/mol
# GULP energy per Si atom -5573.848028 kJ/mol
# Density = 2.064335 g / cm^3
# Si number density = 20.690439 Si / 1000 Ang^3
#
#
#
# Elastic Constant Matrix: (Units=GPa)
#
#
# Indices 1 2 3 4 5 6 
#
# 1 138.2291 55.4266 43.3147 0.0000 3.8448 0.0000
# 2 55.4266 101.3474 27.9167 0.0000 -15.0653 0.0000
# 3 43.3147 27.9167 66.8002 0.0000 -18.2639 0.0000
# 4 0.0000 0.0000 0.0000 24.8256 0.0000 -6.7573
# 5 3.8448 -15.0653 -18.2639 0.0000 33.3904 0.0000
# 6 0.0000 0.0000 0.0000 -6.7573 0.0000 48.6858
#
#
#
# Elastic Compliance Matrix: (Units=1/GPa)
#
#
# Indices 1 2 3 4 5 6 
#
# 1 0.012208 -0.005765 -0.007763 0.000000 -0.008253 0.000000
# 2 -0.005765 0.014120 -0.000282 0.000000 0.006881 0.000000
# 3 -0.007763 -0.000282 0.023907 0.000000 0.013843 0.000000
# 4 0.000000 0.000000 0.000000 0.041863 0.000000 0.005810
# 5 -0.008253 0.006881 0.013843 0.000000 0.041576 0.000000
# 6 0.000000 0.000000 0.000000 0.005810 0.000000 0.021346
#
#
# Mechanical properties :
#
#
# Convention : Reuss Voigt Hill
#
# Bulk Modulus (GPa) = 44.21830 62.18809 53.20319
# Shear Modulus (GPa) = 26.29116 33.36160 29.82638
#
# Velocity S-wave (km/s) = 3.56854 4.01985 3.80090
# Velocity P-wave (km/s) = 6.19654 7.18799 6.71060
#
# Compressibility (1/GPa) = 0.02261507
#
# Stress axis : x y z
#
# Youngs Moduli (GPa) = 81.91177 70.81991 41.82953
#
# Poissons Ratio (x) = 0.40828 0.32474
# Poissons Ratio (y) = 0.47223 0.01178
# Poissons Ratio (z) = 0.63591 0.01995
#
# Static dielectric constant tensor:
#      x y z
#    x 1.802590 0.000000 -0.014990 
#    y 0.000000 1.734220 0.000000 
#    z -0.014990 0.000000 1.811350 
# 
# From -- ./inp_files/78972.got.cif
#   From: 2010.05.17/outbox.cif.g08.bks.cpg/sg15_40_cif.got.tgz:78972.got - 2010.06.03 18:47:42.
