data_PCOD9303782
_publ_section_title
;
Structure prediction by ZEFSAII (Michael W. Deem and Ramdas Pophale) SiO2 
 PCOD9303782
Probable space group: C 2/C
;
_chemical_formula_sum "Si O2"
_cell_formula_units_Z 44
_cell_length_a 12.570763
_cell_length_b 23.761426
_cell_length_c 9.183142
_cell_angle_alpha 90.000000
_cell_angle_beta 50.328860
_cell_angle_gamma 90.000000
_cell_volume 2111.343476
_symmetry_space_group_name_H-M "C 2/C"
_symmetry_group_IT_number 15
_symmetry_cell_setting 'monoclinic'
loop_
_space_group_symop_operation_xyz
x,y,z
-x,y,1/2-z
-x,-y,-z
x,-y,1/2+z
1/2+x,1/2+y,z
1/2-x,1/2+y,1/2-z
1/2-x,1/2-y,-z
1/2+x,1/2-y,1/2+z
loop_
_atom_site_type_symbol
_atom_site_label
_atom_site_fract_x
_atom_site_fract_y
_atom_site_fract_z
Si Si1 0.082852 0.957140 0.030420
Si Si2 0.006421 0.860331 0.895008
Si Si3 0.776791 0.329908 0.213315
Si Si4 0.660212 0.105606 0.138360
Si Si5 0.274418 0.205426 0.189480
Si Si6 0.000000 0.689619 0.750000
O O1 0.000000 0.961050 0.250000
O O2 0.059634 0.896550 0.980581
O O3 0.248561 0.950809 0.908218
O O4 0.000000 0.000000 0.000000
O O5 0.122274 0.813221 0.766888
O O6 0.000000 0.894288 0.750000
O O7 0.856629 0.843333 0.075150
O O8 0.757383 0.263327 0.198171
O O9 0.905768 0.340103 0.208935
O O10 0.784675 0.365814 0.059491
O O11 0.500000 0.092191 0.250000
O O12 0.670675 0.154693 0.254479
O O13 0.381397 0.215394 0.962386
#
# Coordination Sequence:
#
# PCOD9303782 Si02
#       6
#     8   8   8   8   8   4
#     4  11  24  47  73  97 125 166 223 288 347 409
#     4  11  23  39  63  96 133 179 226 269 327 400
#     4  12  23  39  60  93 143 183 231 269 325 393
#     4  11  24  45  66  97 136 176 225 280 342 408
#     4  11  24  36  61  94 138 190 227 270 320 392
#     4  12  22  36  58  92 136 188 232 278 320 370
#
# _framework density 20.839811000000001
#
# number of rings (size 3 to 8) (size 9 to 14) (size 15 to 20)
#    0.000    0.727    5.455    2.727    2.545    0.000 
#    0.000    0.909    2.000    0.000    0.000    0.000 
#    0.000    0.000    0.000    0.000    0.000    0.000 
#
# Total GULP energy -122512.507654 kJ/mol
# GULP energy per Si atom -5568.750348 kJ/mol
# Density = 2.079238 g / cm^3
# Si number density = 20.839811 Si / 1000 Ang^3
#
#
#
# Elastic Constant Matrix: (Units=GPa)
#
#
# Indices 1 2 3 4 5 6 
#
# 1 125.2919 25.4089 64.4536 0.0000 -24.6321 0.0000
# 2 25.4089 45.0583 36.1550 0.0000 -8.4103 0.0000
# 3 64.4536 36.1550 158.8218 0.0000 -5.4052 0.0000
# 4 0.0000 0.0000 0.0000 4.7908 0.0000 -2.5170
# 5 -24.6321 -8.4103 -5.4052 0.0000 52.6850 0.0000
# 6 0.0000 0.0000 0.0000 -2.5170 0.0000 24.9119
#
#
#
# Elastic Compliance Matrix: (Units=1/GPa)
#
#
# Indices 1 2 3 4 5 6 
#
# 1 0.011376 -0.002433 -0.003909 0.000000 0.004529 0.000000
# 2 -0.002433 0.028418 -0.005385 0.000000 0.002846 0.000000
# 3 -0.003909 -0.005385 0.009048 0.000000 -0.001759 0.000000
# 4 0.000000 0.000000 0.000000 0.220436 0.000000 0.022272
# 5 0.004529 0.002846 -0.001759 0.000000 0.021372 0.000000
# 6 0.000000 0.000000 0.000000 0.022272 0.000000 0.042392
#
#
# Mechanical properties :
#
#
# Convention : Reuss Voigt Hill
#
# Bulk Modulus (GPa) = 39.38746 64.57856 51.98301
# Shear Modulus (GPa) = 13.70018 30.02116 21.86067
#
# Velocity S-wave (km/s) = 2.56677 3.79960 3.24232
# Velocity P-wave (km/s) = 5.26551 7.09257 6.24621
#
# Compressibility (1/GPa) = 0.02538879
#
# Stress axis : x y z
#
# Youngs Moduli (GPa) = 87.90485 35.18929 110.51559
#
# Poissons Ratio (x) = 0.08563 0.43195
# Poissons Ratio (y) = 0.21391 0.59510
# Poissons Ratio (z) = 0.34358 0.18949
#
# Static dielectric constant tensor:
#      x y z
#    x 1.870330 0.000000 -0.024720 
#    y 0.000000 1.830400 0.000000 
#    z -0.024720 0.000000 1.722630 
# 
# From -- ./inp_files/34011.got.cif
#   From: 2010.05.17/outbox.cif.g08.bks.cpg/sg15_18_cif.got.tgz:34011.got - 2010.06.03 18:47:42.
