data_PCOD9303136
_publ_section_title
;
Structure prediction by ZEFSAII (Michael W. Deem and Ramdas Pophale) SiO2 
 PCOD9303136
Probable space group: C 2/C
;
_chemical_formula_sum "Si O2"
_cell_formula_units_Z 48
_cell_length_a 17.312362
_cell_length_b 9.725200
_cell_length_c 26.263639
_cell_angle_alpha 90.000000
_cell_angle_beta 34.031218
_cell_angle_gamma 90.000000
_cell_volume 2474.696975
_symmetry_space_group_name_H-M "C 2/C"
_symmetry_group_IT_number 15
_symmetry_cell_setting 'monoclinic'
loop_
_space_group_symop_operation_xyz
x,y,z
-x,y,1/2-z
-x,-y,-z
x,-y,1/2+z
1/2+x,1/2+y,z
1/2-x,1/2+y,1/2-z
1/2-x,1/2-y,-z
1/2+x,1/2-y,1/2+z
loop_
_atom_site_type_symbol
_atom_site_label
_atom_site_fract_x
_atom_site_fract_y
_atom_site_fract_z
Si Si1 0.568753 0.075880 0.766599
Si Si2 0.807717 0.273651 0.658544
Si Si3 0.409066 0.279173 0.924897
Si Si4 0.071945 0.020020 0.264214
Si Si5 0.023494 0.160478 0.473183
Si Si6 0.330609 0.217044 0.267445
O O1 0.500000 0.110089 0.750000
O O2 0.721097 0.140986 0.686904
O O3 0.489409 0.151039 0.855739
O O4 0.576648 0.913874 0.769636
O O5 0.719010 0.402515 0.687391
O O6 0.806795 0.280286 0.719787
O O7 0.958536 0.254057 0.553139
O O8 0.474100 0.411402 0.860453
O O9 0.441134 0.300813 0.966555
O O10 0.250000 0.250000 0.000000
O O11 0.098772 0.859695 0.256590
O O12 0.000000 0.048139 0.250000
O O13 0.183114 0.194247 0.375169
O O14 0.000000 0.000000 0.500000
#
# Coordination Sequence:
#
# PCOD9303136 Si02
#       6
#     8   8   8   8   8   8
#     4  11  22  42  67  93 129 172 213 264 323 383
#     4  11  22  42  68  91 126 169 223 259 315 391
#     4  11  23  42  68  95 126 172 226 261 309 394
#     4  11  23  42  63  93 136 168 211 272 327 375
#     4  12  23  40  70  98 126 171 221 265 323 388
#     4  12  24  43  65  98 135 165 209 277 328 377
#
# _framework density 19.396314
#
# number of rings (size 3 to 8) (size 9 to 14) (size 15 to 20)
#    0.000    0.667    5.000    6.500    0.000    0.667 
#    3.000    0.833    0.000    0.000    0.000    0.000 
#    0.000    0.000    0.000    0.000    0.000    0.000 
#
# Total GULP energy -134162.576800 kJ/mol
# GULP energy per Si atom -5590.107367 kJ/mol
# Density = 1.935217 g / cm^3
# Si number density = 19.396314 Si / 1000 Ang^3
#
#
#
# Elastic Constant Matrix: (Units=GPa)
#
#
# Indices 1 2 3 4 5 6 
#
# 1 53.1986 8.5003 19.1746 0.0000 7.9573 0.0000
# 2 8.5003 140.2667 38.7283 0.0000 -1.8555 0.0000
# 3 19.1746 38.7283 135.6031 0.0000 -4.6417 0.0000
# 4 0.0000 0.0000 0.0000 31.4489 0.0000 15.0229
# 5 7.9573 -1.8555 -4.6417 0.0000 27.7885 0.0000
# 6 0.0000 0.0000 0.0000 15.0229 0.0000 53.9274
#
#
#
# Elastic Compliance Matrix: (Units=1/GPa)
#
#
# Indices 1 2 3 4 5 6 
#
# 1 0.020954 -0.000517 -0.003039 0.000000 -0.006542 0.000000
# 2 -0.000517 0.007753 -0.002130 0.000000 0.000310 0.000000
# 3 -0.003039 -0.002130 0.008486 0.000000 0.002146 0.000000
# 4 0.000000 0.000000 0.000000 0.036679 0.000000 -0.010218
# 5 -0.006542 0.000310 0.002146 0.000000 0.038239 0.000000
# 6 0.000000 0.000000 0.000000 -0.010218 0.000000 0.021390
#
#
# Mechanical properties :
#
#
# Convention : Reuss Voigt Hill
#
# Bulk Modulus (GPa) = 38.73063 51.31944 45.02503
# Shear Modulus (GPa) = 32.57737 40.14397 36.36067
#
# Velocity S-wave (km/s) = 4.10270 4.55430 4.33438
# Velocity P-wave (km/s) = 6.51569 7.36012 6.95074
#
# Compressibility (1/GPa) = 0.02581936
#
# Stress axis : x y z
#
# Youngs Moduli (GPa) = 47.72320 128.98296 117.83943
#
# Poissons Ratio (x) = 0.06672 0.35814
# Poissons Ratio (y) = 0.02469 0.25106
# Poissons Ratio (z) = 0.14504 0.27480
#
# Static dielectric constant tensor:
#      x y z
#    x 1.656030 0.000000 -0.007860 
#    y 0.000000 1.651790 0.000000 
#    z -0.007860 0.000000 1.699330 
# 
# From -- ./inp_files/300458.got.cif
#   From: 2010.05.17/outbox.cif.g08.bks.cpg/sg15_151_cif.got.tgz:300458.got - 2010.06.03 18:47:42.
