data_PCOD9303980
_publ_section_title
;
Structure prediction by ZEFSAII (Michael W. Deem and Ramdas Pophale) SiO2 
 PCOD9303980
Probable space group: C 2/C
;
_chemical_formula_sum "Si O2"
_cell_formula_units_Z 44
_cell_length_a 15.816959
_cell_length_b 14.446775
_cell_length_c 9.050435
_cell_angle_alpha 90.000000
_cell_angle_beta 113.115272
_cell_angle_gamma 90.000000
_cell_volume 1902.030658
_symmetry_space_group_name_H-M "C 2/C"
_symmetry_group_IT_number 15
_symmetry_cell_setting 'monoclinic'
loop_
_space_group_symop_operation_xyz
x,y,z
-x,y,1/2-z
-x,-y,-z
x,-y,1/2+z
1/2+x,1/2+y,z
1/2-x,1/2+y,1/2-z
1/2-x,1/2-y,-z
1/2+x,1/2-y,1/2+z
loop_
_atom_site_type_symbol
_atom_site_label
_atom_site_fract_x
_atom_site_fract_y
_atom_site_fract_z
Si Si1 0.277394 0.427870 0.929102
Si Si2 0.927457 0.784189 0.321475
Si Si3 0.750000 0.750000 0.000000
Si Si4 0.155364 0.517798 0.593775
Si Si5 0.560939 0.561849 0.433277
Si Si6 0.516683 0.132139 0.918343
O O1 0.308196 0.323657 0.925837
O O2 0.227456 0.475979 0.758588
O O3 0.204186 0.411194 0.013607
O O4 0.352159 0.497612 0.045184
O O5 0.833451 0.758610 0.177572
O O6 0.908914 0.853377 0.444009
O O7 0.000000 0.821574 0.250000
O O8 0.971555 0.694984 0.430415
O O9 0.072216 0.568506 0.617223
O O10 0.106673 0.433639 0.473752
O O11 0.500000 0.586264 0.250000
O O12 0.500000 0.500000 0.500000
O O13 0.500000 0.180869 0.750000
#
# Coordination Sequence:
#
# PCOD9303980 Si02
#       6
#     8   8   4   8   8   8
#     4  12  24  44  70 102 143 187 239 295 355 436
#     4  12  26  46  74 105 145 191 246 307 363 437
#     4  12  24  42  68 106 138 184 246 286 360 426
#     4  11  23  41  68 104 140 183 227 290 366 431
#     4  12  26  48  72 101 142 196 248 299 360 424
#     4  11  23  43  69 106 147 178 229 296 371 437
#
# _framework density 23.13317
#
# number of rings (size 3 to 8) (size 9 to 14) (size 15 to 20)
#    0.000    0.364    3.636    6.545    0.000    0.000 
#    0.000    2.727    0.000    0.000    0.000    0.000 
#    0.000    0.000    0.000    0.000    0.000    0.000 
#
# Total GULP energy -122636.794281 kJ/mol
# GULP energy per Si atom -5574.399740 kJ/mol
# Density = 2.308052 g / cm^3
# Si number density = 23.133170 Si / 1000 Ang^3
#
#
#
# Elastic Constant Matrix: (Units=GPa)
#
#
# Indices 1 2 3 4 5 6 
#
# 1 44.1479 -2.1110 42.1217 0.0000 13.4938 0.0000
# 2 -2.1110 58.3811 48.7764 0.0000 19.1834 0.0000
# 3 42.1217 48.7764 216.1461 0.0000 28.7434 0.0000
# 4 0.0000 0.0000 0.0000 48.0397 0.0000 -0.1092
# 5 13.4938 19.1834 28.7434 0.0000 35.5264 0.0000
# 6 0.0000 0.0000 0.0000 -0.1092 0.0000 17.2331
#
#
#
# Elastic Compliance Matrix: (Units=1/GPa)
#
#
# Indices 1 2 3 4 5 6 
#
# 1 0.034709 0.012128 -0.007706 0.000000 -0.013498 0.000000
# 2 0.012128 0.027885 -0.006770 0.000000 -0.014187 0.000000
# 3 -0.007706 -0.006770 0.007598 0.000000 0.000435 0.000000
# 4 0.000000 0.000000 0.000000 0.020816 0.000000 0.000132
# 5 -0.013498 -0.014187 0.000435 0.000000 0.040583 0.000000
# 6 0.000000 0.000000 0.000000 0.000132 0.000000 0.058029
#
#
# Mechanical properties :
#
#
# Convention : Reuss Voigt Hill
#
# Bulk Modulus (GPa) = 15.26780 55.13881 35.20331
# Shear Modulus (GPa) = 23.13245 35.48573 29.30909
#
# Velocity S-wave (km/s) = 3.16566 3.92085 3.56332
# Velocity P-wave (km/s) = 4.46947 6.66217 5.67277
#
# Compressibility (1/GPa) = 0.06549732
#
# Stress axis : x y z
#
# Youngs Moduli (GPa) = 28.81114 35.86188 131.61364
#
# Poissons Ratio (x) = -0.43494 1.01420
# Poissons Ratio (y) = -0.34943 0.89096
# Poissons Ratio (z) = 0.22202 0.24277
#
# Static dielectric constant tensor:
#      x y z
#    x 1.825100 0.000000 0.013190 
#    y 0.000000 1.471900 0.000000 
#    z 0.013190 0.000000 1.800170 
# 
# From -- ./inp_files/47563.got.cif
#   From: 2010.05.17/outbox.cif.g08.bks.cpg/sg15_24_cif.got.tgz:47563.got - 2010.06.03 18:47:42.
