data_PCOD9303746
_publ_section_title
;
Structure prediction by ZEFSAII (Michael W. Deem and Ramdas Pophale) SiO2 
 PCOD9303746
Probable space group: C 2/C
;
_chemical_formula_sum "Si O2"
_cell_formula_units_Z 40
_cell_length_a 21.508621
_cell_length_b 5.340570
_cell_length_c 24.925018
_cell_angle_alpha 90.000000
_cell_angle_beta 145.312256
_cell_angle_gamma 90.000000
_cell_volume 1629.397436
_symmetry_space_group_name_H-M "C 2/C"
_symmetry_group_IT_number 15
_symmetry_cell_setting 'monoclinic'
loop_
_space_group_symop_operation_xyz
x,y,z
-x,y,1/2-z
-x,-y,-z
x,-y,1/2+z
1/2+x,1/2+y,z
1/2-x,1/2+y,1/2-z
1/2-x,1/2-y,-z
1/2+x,1/2-y,1/2+z
loop_
_atom_site_type_symbol
_atom_site_label
_atom_site_fract_x
_atom_site_fract_y
_atom_site_fract_z
Si Si1 0.490010 0.329071 0.621222
Si Si2 0.827212 0.073837 0.589932
Si Si3 0.417480 0.962524 0.736737
Si Si4 0.799914 0.731083 0.418271
Si Si5 0.772885 0.026091 0.733703
O O1 0.417763 0.465539 0.614876
O O2 0.519199 0.049438 0.664345
O O3 0.419557 0.326000 0.517081
O O4 0.601270 0.481502 0.692783
O O5 0.750000 0.250000 0.500000
O O6 0.884525 0.211073 0.681212
O O7 0.745618 0.877054 0.558194
O O8 0.500000 0.080563 0.750000
O O9 0.296896 0.074257 0.662535
O O10 0.797866 0.528663 0.369648
O O11 0.745536 0.797752 0.754626
#
# Coordination Sequence:
#
# PCOD9303746 Si02
#       5
#     8   8   8   8   8
#     4  11  25  47  73 110 150 198 244 319 392 459
#     4  12  24  41  74 113 151 192 241 306 394 483
#     4  11  23  38  65 102 158 185 231 287 377 462
#     4  11  25  47  70 109 149 187 249 313 388 465
#     4  11  30  52  77 106 147 206 274 323 372 441
#
# _framework density 24.548952
#
# number of rings (size 3 to 8) (size 9 to 14) (size 15 to 20)
#    0.000    0.800    4.000    1.800   11.200    3.200 
#    0.000    0.000    0.000    0.000    0.000    0.000 
#    0.000    0.000    0.000    0.000    0.000    0.000 
#
# Total GULP energy -111801.039007 kJ/mol
# GULP energy per Si atom -5590.051950 kJ/mol
# Density = 2.449308 g / cm^3
# Si number density = 24.548952 Si / 1000 Ang^3
#
#
#
# Elastic Constant Matrix: (Units=GPa)
#
#
# Indices 1 2 3 4 5 6 
#
# 1 80.3496 37.5251 21.5098 0.0059 -13.4199 0.0534
# 2 37.5251 75.8322 18.1848 0.0112 4.8950 0.0708
# 3 21.5098 18.1848 146.6806 0.0051 10.9467 0.0254
# 4 0.0059 0.0112 0.0051 31.9673 -0.0057 -5.8513
# 5 -13.4199 4.8950 10.9467 -0.0057 21.5002 0.0138
# 6 0.0534 0.0708 0.0254 -5.8513 0.0138 51.4455
#
#
#
# Elastic Compliance Matrix: (Units=1/GPa)
#
#
# Indices 1 2 3 4 5 6 
#
# 1 0.021239 -0.010894 -0.003055 0.000002 0.017292 -0.000010
# 2 -0.010894 0.019291 0.000043 -0.000009 -0.011213 -0.000013
# 3 -0.003055 0.000043 0.007696 -0.000002 -0.005834 0.000001
# 4 0.000002 -0.000009 -0.000002 0.031947 0.000010 0.003634
# 5 0.017292 -0.011213 -0.005834 0.000010 0.062828 -0.000015
# 6 -0.000010 -0.000013 0.000001 0.003634 -0.000015 0.019851
#
#
# Mechanical properties :
#
#
# Convention : Reuss Voigt Hill
#
# Bulk Modulus (GPa) = 48.98403 50.81133 49.89768
# Shear Modulus (GPa) = 25.32047 36.02544 30.67295
#
# Velocity S-wave (km/s) = 3.21507 3.83494 3.53861
# Velocity P-wave (km/s) = 5.81198 6.35232 6.08815
#
# Compressibility (1/GPa) = 0.02041482
#
# Stress axis : x y z
#
# Youngs Moduli (GPa) = 47.08294 51.83675 129.94456
#
# Poissons Ratio (x) = 0.56470 0.39692
# Poissons Ratio (y) = 0.51291 -0.00555
# Poissons Ratio (z) = 0.14382 -0.00221
#
# Static dielectric constant tensor:
#      x y z
#    x 1.875950 -0.000040 0.111390 
#    y -0.000040 2.046060 0.000060 
#    z 0.111390 0.000060 1.719430 
# 
# From -- ./inp_files/170471.got.cif
#   From: 2010.05.17/outbox.cif.g08.bks.cpg/sg15_86_cif.got.tgz:170471.got - 2010.06.03 18:47:42.
