data_PCOD9303188
_publ_section_title
;
Structure prediction by ZEFSAII (Michael W. Deem and Ramdas Pophale) SiO2 
 PCOD9303188
Probable space group: C 2/C
;
_chemical_formula_sum "Si O2"
_cell_formula_units_Z 44
_cell_length_a 12.606391
_cell_length_b 11.174299
_cell_length_c 13.380375
_cell_angle_alpha 90.000000
_cell_angle_beta 109.282675
_cell_angle_gamma 90.000000
_cell_volume 1779.121971
_symmetry_space_group_name_H-M "C 2/C"
_symmetry_group_IT_number 15
_symmetry_cell_setting 'monoclinic'
loop_
_space_group_symop_operation_xyz
x,y,z
-x,y,1/2-z
-x,-y,-z
x,-y,1/2+z
1/2+x,1/2+y,z
1/2-x,1/2+y,1/2-z
1/2-x,1/2-y,-z
1/2+x,1/2-y,1/2+z
loop_
_atom_site_type_symbol
_atom_site_label
_atom_site_fract_x
_atom_site_fract_y
_atom_site_fract_z
Si Si1 0.933476 0.336298 0.922544
Si Si2 0.000000 0.429598 0.750000
Si Si3 0.874296 0.146172 0.751028
Si Si4 0.911354 0.222972 0.129843
Si Si5 0.754848 0.010505 0.566324
Si Si6 0.776204 0.546248 0.651414
O O1 0.861852 0.259768 0.818726
O O2 0.862696 0.449975 0.938202
O O3 0.026519 0.369798 0.867070
O O4 0.956966 0.259741 0.031502
O O5 0.110317 0.504646 0.761026
O O6 0.830920 0.043365 0.811051
O O7 0.000000 0.136695 0.750000
O O8 0.787515 0.129002 0.635389
O O9 0.850238 0.093773 0.110337
O O10 0.815541 0.324608 0.119575
O O11 0.000000 0.228011 0.250000
O O12 0.753955 0.034860 0.450174
#
# Coordination Sequence:
#
# PCOD9303188 Si02
#       6
#     8   4   8   8   8   8
#     4  11  23  43  69  98 137 174 224 285 338 382
#     4  12  24  44  72 106 134 172 220 302 328 386
#     4  12  24  43  68  97 137 181 220 274 344 402
#     4  11  22  42  70 101 134 184 227 268 334 413
#     4  11  23  43  69  97 137 183 221 276 333 406
#     4  11  23  43  71 100 133 175 233 270 336 404
#
# _framework density 24.731300000000001
#
# number of rings (size 3 to 8) (size 9 to 14) (size 15 to 20)
#    0.000    0.727    7.273    1.636    0.000    5.091 
#    3.273    0.909    0.000    0.000    0.000    0.000 
#    0.000    0.000    0.000    0.000    0.000    0.000 
#
# Total GULP energy -122569.584121 kJ/mol
# GULP energy per Si atom -5571.344733 kJ/mol
# Density = 2.467501 g / cm^3
# Si number density = 24.731300 Si / 1000 Ang^3
#
#
#
# Elastic Constant Matrix: (Units=GPa)
#
#
# Indices 1 2 3 4 5 6 
#
# 1 75.0330 9.2666 34.2958 0.0000 -35.4560 0.0000
# 2 9.2666 39.7462 25.0910 0.0000 1.5006 0.0000
# 3 34.2958 25.0910 81.1525 0.0000 -17.4680 0.0000
# 4 0.0000 0.0000 0.0000 37.8646 0.0000 6.3899
# 5 -35.4560 1.5006 -17.4680 0.0000 47.4083 0.0000
# 6 0.0000 0.0000 0.0000 6.3899 0.0000 16.9562
#
#
#
# Elastic Compliance Matrix: (Units=1/GPa)
#
#
# Indices 1 2 3 4 5 6 
#
# 1 0.023713 -0.002381 -0.005921 0.000000 0.015628 0.000000
# 2 -0.002381 0.032604 -0.010514 0.000000 -0.006686 0.000000
# 3 -0.005921 -0.010514 0.018675 0.000000 0.002785 0.000000
# 4 0.000000 0.000000 0.000000 0.028204 0.000000 -0.010628
# 5 0.015628 -0.006686 0.002785 0.000000 0.034019 0.000000
# 6 0.000000 0.000000 0.000000 -0.010628 0.000000 0.062981
#
#
# Mechanical properties :
#
#
# Convention : Reuss Voigt Hill
#
# Bulk Modulus (GPa) = 26.76604 37.02651 31.89628
# Shear Modulus (GPa) = 19.97756 28.93103 24.45430
#
# Velocity S-wave (km/s) = 2.84524 3.42397 3.14793
# Velocity P-wave (km/s) = 4.65189 5.53493 5.11251
#
# Compressibility (1/GPa) = 0.03736077
#
# Stress axis : x y z
#
# Youngs Moduli (GPa) = 42.17122 30.67082 53.54706
#
# Poissons Ratio (x) = 0.07301 0.31707
# Poissons Ratio (y) = 0.10039 0.56299
# Poissons Ratio (z) = 0.24971 0.32247
#
# Static dielectric constant tensor:
#      x y z
#    x 2.043760 0.000000 -0.016690 
#    y 0.000000 2.155940 0.000000 
#    z -0.016690 0.000000 2.015480 
# 
# From -- ./inp_files/95726.got.cif
#   From: 2010.05.17/outbox.cif.g08.bks.cpg/sg15_48_cif.got.tgz:95726.got - 2010.06.03 18:47:42.
