data_PCOD9303736
_publ_section_title
;
Structure prediction by ZEFSAII (Michael W. Deem and Ramdas Pophale) SiO2 
 PCOD9303736
Probable space group: C 2/C
;
_chemical_formula_sum "Si O2"
_cell_formula_units_Z 48
_cell_length_a 35.289265
_cell_length_b 8.414236
_cell_length_c 10.097530
_cell_angle_alpha 90.000000
_cell_angle_beta 53.453568
_cell_angle_gamma 90.000000
_cell_volume 2408.743345
_symmetry_space_group_name_H-M "C 2/C"
_symmetry_group_IT_number 15
_symmetry_cell_setting 'monoclinic'
loop_
_space_group_symop_operation_xyz
x,y,z
-x,y,1/2-z
-x,-y,-z
x,-y,1/2+z
1/2+x,1/2+y,z
1/2-x,1/2+y,1/2-z
1/2-x,1/2-y,-z
1/2+x,1/2-y,1/2+z
loop_
_atom_site_type_symbol
_atom_site_label
_atom_site_fract_x
_atom_site_fract_y
_atom_site_fract_z
Si Si1 0.733796 0.195590 0.678032
Si Si2 0.216030 0.326139 0.680835
Si Si3 0.863645 0.873637 0.549097
Si Si4 0.964065 0.817517 0.435751
Si Si5 0.979741 0.798008 0.929321
Si Si6 0.875753 0.176902 0.714475
O O1 0.750000 0.250000 0.500000
O O2 0.773236 0.235675 0.704953
O O3 0.726802 0.008255 0.685769
O O4 0.685287 0.283739 0.820876
O O5 0.250000 0.250000 0.500000
O O6 0.164041 0.305465 0.731761
O O7 0.910471 0.785484 0.506904
O O8 0.870920 0.889433 0.374969
O O9 0.865245 0.037333 0.629425
O O10 0.000000 0.758085 0.250000
O O11 0.981666 0.760205 0.540516
O O12 0.972235 0.009913 0.428130
O O13 0.000000 0.735825 0.750000
O O14 0.927511 0.750932 0.083389
#
# Coordination Sequence:
#
# PCOD9303736 Si02
#       6
#     8   8   8   8   8   8
#     4  12  27  44  68  95 125 169 212 260 321 379
#     4  12  25  46  67  92 128 166 210 265 316 384
#     4  11  23  38  62  95 129 167 214 261 316 375
#     4   9  16  30  52  85 124 165 208 255 308 358
#     4   9  18  30  53  87 126 166 209 260 308 362
#     4  11  23  38  62  94 130 168 212 265 315 373
#
# _framework density 19.927403000000002
#
# number of rings (size 3 to 8) (size 9 to 14) (size 15 to 20)
#    0.000    1.333    3.333    3.000    9.333    0.000 
#    0.000    0.000    0.000    2.000    0.000    0.000 
#    0.000    0.000    0.000    0.000    0.000    0.000 
#
# Total GULP energy -134016.324148 kJ/mol
# GULP energy per Si atom -5584.013506 kJ/mol
# Density = 1.988205 g / cm^3
# Si number density = 19.927403 Si / 1000 Ang^3
#
#
#
# Elastic Constant Matrix: (Units=GPa)
#
#
# Indices 1 2 3 4 5 6 
#
# 1 139.6318 14.3069 57.1093 0.0000 17.5532 0.0000
# 2 14.3069 50.9764 4.7333 0.0000 8.1915 0.0000
# 3 57.1093 4.7333 130.8911 0.0000 19.2126 0.0000
# 4 0.0000 0.0000 0.0000 12.6417 0.0000 1.0150
# 5 17.5532 8.1915 19.2126 0.0000 46.7949 0.0000
# 6 0.0000 0.0000 0.0000 1.0150 0.0000 23.5576
#
#
#
# Elastic Compliance Matrix: (Units=1/GPa)
#
#
# Indices 1 2 3 4 5 6 
#
# 1 0.009050 -0.001951 -0.003650 0.000000 -0.001555 0.000000
# 2 -0.001951 0.020612 0.000562 0.000000 -0.003107 0.000000
# 3 -0.003650 0.000562 0.009604 0.000000 -0.002673 0.000000
# 4 0.000000 0.000000 0.000000 0.079378 0.000000 -0.003420
# 5 -0.001555 -0.003107 -0.002673 0.000000 0.023594 0.000000
# 6 0.000000 0.000000 0.000000 -0.003420 0.000000 0.042597
#
#
# Mechanical properties :
#
#
# Convention : Reuss Voigt Hill
#
# Bulk Modulus (GPa) = 34.26083 52.64424 43.45253
# Shear Modulus (GPa) = 24.43293 32.95547 28.69420
#
# Velocity S-wave (km/s) = 3.50537 4.07108 3.79877
# Velocity P-wave (km/s) = 5.79772 6.96948 6.41043
#
# Compressibility (1/GPa) = 0.02918785
#
# Stress axis : x y z
#
# Youngs Moduli (GPa) = 110.49961 48.51631 104.11953
#
# Poissons Ratio (x) = 0.09466 0.38001
# Poissons Ratio (y) = 0.21561 -0.05852
# Poissons Ratio (z) = 0.40330 -0.02727
#
# Static dielectric constant tensor:
#      x y z
#    x 1.706000 0.000000 -0.049810 
#    y 0.000000 1.689680 0.000000 
#    z -0.049810 0.000000 1.414420 
# 
# From -- ./inp_files/66575.got.cif
#   From: 2010.05.17/outbox.cif.g08.bks.cpg/sg15_34_cif.got.tgz:66575.got - 2010.06.03 18:47:42.
