data_PCOD9303323
_publ_section_title
;
Structure prediction by ZEFSAII (Michael W. Deem and Ramdas Pophale) SiO2 
 PCOD9303323
Probable space group: C 2/C
;
_chemical_formula_sum "Si O2"
_cell_formula_units_Z 56
_cell_length_a 8.815384
_cell_length_b 11.403773
_cell_length_c 34.774674
_cell_angle_alpha 90.000000
_cell_angle_beta 134.350976
_cell_angle_gamma 90.000000
_cell_volume 2499.781644
_symmetry_space_group_name_H-M "C 2/C"
_symmetry_group_IT_number 15
_symmetry_cell_setting 'monoclinic'
loop_
_space_group_symop_operation_xyz
x,y,z
-x,y,1/2-z
-x,-y,-z
x,-y,1/2+z
1/2+x,1/2+y,z
1/2-x,1/2+y,1/2-z
1/2-x,1/2-y,-z
1/2+x,1/2-y,1/2+z
loop_
_atom_site_type_symbol
_atom_site_label
_atom_site_fract_x
_atom_site_fract_y
_atom_site_fract_z
Si Si1 0.932191 0.496508 0.878266
Si Si2 0.051974 0.151522 0.404573
Si Si3 0.039310 0.391399 0.478648
Si Si4 0.017341 0.681246 0.830924
Si Si5 0.461638 0.581902 0.288269
Si Si6 0.306282 0.777087 0.604150
Si Si7 0.859422 0.923316 0.333369
O O1 0.013626 0.564397 0.930357
O O2 0.909058 0.581485 0.837309
O O3 0.094840 0.393333 0.896477
O O4 0.701082 0.444163 0.845480
O O5 0.226828 0.149868 0.468566
O O6 0.126410 0.240278 0.384335
O O7 0.828416 0.194165 0.381888
O O8 0.997006 0.020953 0.380572
O O9 0.000000 0.500000 0.500000
O O10 0.860317 0.291989 0.452407
O O11 0.892475 0.785753 0.787057
O O12 0.169479 0.620476 0.826739
O O13 0.500000 0.572777 0.250000
O O14 0.314379 0.489344 0.284946
O O15 0.494741 0.688985 0.647694
#
# Coordination Sequence:
#
# PCOD9303323 Si02
#       7
#     8   8   8   8   8   8   8
#     4  12  25  43  67  95 134 176 218 273 334 389
#     4  11  23  41  64  96 134 178 223 265 314 379
#     4  12  24  41  62  97 139 180 226 271 313 381
#     4  11  23  43  71  95 129 173 217 273 329 391
#     4  11  25  46  71  96 127 165 215 278 339 400
#     4  12  23  40  66  91 132 179 219 262 321 382
#     4  11  22  43  70  95 130 172 218 267 328 389
#
# _framework density 22.401958
#
# number of rings (size 3 to 8) (size 9 to 14) (size 15 to 20)
#    0.000    0.571    7.143    1.286    0.000    3.429 
#    0.000    0.000    0.000    0.000    0.000    0.000 
#    0.000    0.000    0.000    0.000    0.000    0.000 
#
# Total GULP energy -156451.735638 kJ/mol
# GULP energy per Si atom -5587.561987 kJ/mol
# Density = 2.235097 g / cm^3
# Si number density = 22.401958 Si / 1000 Ang^3
#
#
#
# Elastic Constant Matrix: (Units=GPa)
#
#
# Indices 1 2 3 4 5 6 
#
# 1 118.0992 55.1510 16.5511 0.0000 -28.8840 0.0000
# 2 55.1510 128.3593 18.9335 0.0000 -14.2458 0.0000
# 3 16.5511 18.9335 66.4656 0.0000 -22.4945 0.0000
# 4 0.0000 0.0000 0.0000 15.8224 0.0000 -21.0623
# 5 -28.8840 -14.2458 -22.4945 0.0000 31.4995 0.0000
# 6 0.0000 0.0000 0.0000 -21.0623 0.0000 54.7334
#
#
#
# Elastic Compliance Matrix: (Units=1/GPa)
#
#
# Indices 1 2 3 4 5 6 
#
# 1 0.013146 -0.004673 0.001875 0.000000 0.011280 0.000000
# 2 -0.004673 0.009967 -0.002110 0.000000 -0.001284 0.000000
# 3 0.001875 -0.002110 0.020359 0.000000 0.015304 0.000000
# 4 0.000000 0.000000 0.000000 0.129579 0.000000 0.049864
# 5 0.011280 -0.001284 0.015304 0.000000 0.052438 0.000000
# 6 0.000000 0.000000 0.000000 0.049864 0.000000 0.037459
#
#
# Mechanical properties :
#
#
# Convention : Reuss Voigt Hill
#
# Bulk Modulus (GPa) = 29.71247 54.91059 42.31153
# Shear Modulus (GPa) = 17.60676 35.23030 26.41853
#
# Velocity S-wave (km/s) = 2.80652 3.96996 3.43781
# Velocity P-wave (km/s) = 4.87793 6.75121 5.88952
#
# Compressibility (1/GPa) = 0.03365590
#
# Stress axis : x y z
#
# Youngs Moduli (GPa) = 76.07098 100.32975 49.11834
#
# Poissons Ratio (x) = 0.46883 -0.09211
# Poissons Ratio (y) = 0.35547 0.10365
# Poissons Ratio (z) = -0.14265 0.21172
#
# Static dielectric constant tensor:
#      x y z
#    x 1.807230 0.000000 -0.021250 
#    y 0.000000 1.873510 0.000000 
#    z -0.021250 0.000000 1.877720 
# 
# From -- ./inp_files/307233.got.cif
#   From: 2010.05.17/outbox.cif.g08.bks.cpg/sg15_154_cif.got.tgz:307233.got - 2010.06.03 18:47:42.
