data_PCOD9303628
_publ_section_title
;
Structure prediction by ZEFSAII (Michael W. Deem and Ramdas Pophale) SiO2 
 PCOD9303628
Probable space group: C 2/C
;
_chemical_formula_sum "Si O2"
_cell_formula_units_Z 56
_cell_length_a 15.659448
_cell_length_b 13.568495
_cell_length_c 11.880269
_cell_angle_alpha 90.000000
_cell_angle_beta 87.707095
_cell_angle_gamma 90.000000
_cell_volume 2522.240809
_symmetry_space_group_name_H-M "C 2/C"
_symmetry_group_IT_number 15
_symmetry_cell_setting 'monoclinic'
loop_
_space_group_symop_operation_xyz
x,y,z
-x,y,1/2-z
-x,-y,-z
x,-y,1/2+z
1/2+x,1/2+y,z
1/2-x,1/2+y,1/2-z
1/2-x,1/2-y,-z
1/2+x,1/2-y,1/2+z
loop_
_atom_site_type_symbol
_atom_site_label
_atom_site_fract_x
_atom_site_fract_y
_atom_site_fract_z
Si Si1 0.000000 0.940333 0.250000
Si Si2 0.324734 0.459098 0.690438
Si Si3 0.000000 0.401589 0.750000
Si Si4 0.841223 0.475187 0.163256
Si Si5 0.615161 0.748387 0.339088
Si Si6 0.857521 0.244373 0.405669
Si Si7 0.003205 0.767102 0.067901
Si Si8 0.750610 0.083179 0.510981
O O1 0.008688 0.865531 0.143190
O O2 0.084326 0.007370 0.262066
O O3 0.244479 0.500665 0.763322
O O4 0.318910 0.342610 0.668975
O O5 0.315720 0.513572 0.571324
O O6 0.921431 0.471151 0.717533
O O7 0.976918 0.326838 0.853813
O O8 0.852673 0.359242 0.148885
O O9 0.824871 0.522437 0.042102
O O10 0.585722 0.747042 0.208878
O O11 0.559109 0.726473 0.452007
O O12 0.802247 0.145791 0.416355
O O13 0.792672 0.335540 0.406895
O O14 0.909120 0.247970 0.519656
#
# Coordination Sequence:
#
# PCOD9303628 Si02
#       8
#     4   8   4   8   8   8   8   8
#     4  11  28  51  74 106 156 195 242 307 382 440
#     4  12  28  49  74 110 149 196 247 310 375 437
#     4  11  28  51  74 106 156 195 242 307 382 440
#     4  12  28  49  74 110 149 196 247 310 375 437
#     4  12  29  42  74 109 149 188 259 305 362 446
#     4  11  22  46  74 110 146 195 251 295 375 446
#     4  11  26  47  75 111 148 194 249 305 372 443
#     4  11  24  47  76 102 152 199 240 307 374 442
#
# _framework density 22.202479
#
# number of rings (size 3 to 8) (size 9 to 14) (size 15 to 20)
#    0.000    0.571    5.714    0.429    8.000    4.000 
#    0.000    0.000    0.000    0.000    0.000    0.000 
#    0.000    0.000    0.000    0.000    0.000    0.000 
#
# Total GULP energy -156437.138789 kJ/mol
# GULP energy per Si atom -5587.040671 kJ/mol
# Density = 2.215194 g / cm^3
# Si number density = 22.202479 Si / 1000 Ang^3
#
#
#
# Elastic Constant Matrix: (Units=GPa)
#
#
# Indices 1 2 3 4 5 6 
#
# 1 81.7211 3.8162 15.7157 0.0000 12.4732 0.0000
# 2 3.8162 109.5863 17.0785 0.0000 18.8218 0.0000
# 3 15.7157 17.0785 101.6225 0.0000 -3.2812 0.0000
# 4 0.0000 0.0000 0.0000 12.4678 0.0000 -4.0846
# 5 12.4732 18.8218 -3.2812 0.0000 47.4479 0.0000
# 6 0.0000 0.0000 0.0000 -4.0846 0.0000 11.7256
#
#
#
# Elastic Compliance Matrix: (Units=1/GPa)
#
#
# Indices 1 2 3 4 5 6 
#
# 1 0.013235 0.000554 -0.002264 0.000000 -0.003856 0.000000
# 2 0.000554 0.010146 -0.001930 0.000000 -0.004304 0.000000
# 3 -0.002264 -0.001930 0.010582 0.000000 0.002093 0.000000
# 4 0.000000 0.000000 0.000000 0.090539 0.000000 0.031539
# 5 -0.003856 -0.004304 0.002093 0.000000 0.023941 0.000000
# 6 0.000000 0.000000 0.000000 0.031539 0.000000 0.096270
#
#
# Mechanical properties :
#
#
# Convention : Reuss Voigt Hill
#
# Bulk Modulus (GPa) = 37.47670 40.68342 39.08006
# Shear Modulus (GPa) = 19.16534 31.41624 25.29079
#
# Velocity S-wave (km/s) = 2.94123 3.76571 3.37871
# Velocity P-wave (km/s) = 5.33391 6.10500 5.73244
#
# Compressibility (1/GPa) = 0.02668325
#
# Stress axis : x y z
#
# Youngs Moduli (GPa) = 75.55828 98.56232 94.49653
#
# Poissons Ratio (x) = -0.05463 0.21398
# Poissons Ratio (y) = -0.04188 0.18236
# Poissons Ratio (z) = 0.17109 0.19020
#
# Static dielectric constant tensor:
#      x y z
#    x 1.809970 0.000000 -0.001560 
#    y 0.000000 1.792680 0.000000 
#    z -0.001560 0.000000 1.871160 
# 
# From -- ./inp_files/97064.got.cif
#   From: 2010.05.17/outbox.cif.g08.bks.cpg/sg15_49_cif.got.tgz:97064.got - 2010.06.03 18:47:42.
