data_PCOD9303924
_publ_section_title
;
Structure prediction by ZEFSAII (Michael W. Deem and Ramdas Pophale) SiO2 
 PCOD9303924
Probable space group: C 2/C
;
_chemical_formula_sum "Si O2"
_cell_formula_units_Z 40
_cell_length_a 32.660308
_cell_length_b 7.080629
_cell_length_c 9.640030
_cell_angle_alpha 90.000000
_cell_angle_beta 125.783838
_cell_angle_gamma 90.000000
_cell_volume 1808.480611
_symmetry_space_group_name_H-M "C 2/C"
_symmetry_group_IT_number 15
_symmetry_cell_setting 'monoclinic'
loop_
_space_group_symop_operation_xyz
x,y,z
-x,y,1/2-z
-x,-y,-z
x,-y,1/2+z
1/2+x,1/2+y,z
1/2-x,1/2+y,1/2-z
1/2-x,1/2-y,-z
1/2+x,1/2-y,1/2+z
loop_
_atom_site_type_symbol
_atom_site_label
_atom_site_fract_x
_atom_site_fract_y
_atom_site_fract_z
Si Si1 0.464779 0.417153 0.311443
Si Si2 0.773972 0.298097 0.900899
Si Si3 0.384615 0.247255 0.599563
Si Si4 0.604457 0.881048 0.692465
Si Si5 0.294760 0.222921 0.980193
O O1 0.500000 0.380887 0.250000
O O2 0.500000 0.500000 0.500000
O O3 0.422113 0.575057 0.190756
O O4 0.441487 0.224818 0.325265
O O5 0.727775 0.310475 0.702886
O O6 0.796568 0.504998 0.943074
O O7 0.750000 0.250000 0.000000
O O8 0.825756 0.182193 0.978718
O O9 0.395929 0.141069 0.475119
O O10 0.391634 0.095338 0.740081
O O11 0.652370 0.754304 0.839642
O O12 0.250000 0.250000 0.000000
#
# Coordination Sequence:
#
# PCOD9303924 Si02
#       5
#     8   8   8   8   8
#     4  12  28  50  75 107 137 185 248 300 359 416
#     4  11  25  39  66 102 140 186 230 281 347 419
#     4  11  27  47  71 106 144 187 239 293 359 426
#     4  11  27  46  72 104 147 186 236 297 357 427
#     4  11  23  41  64 100 139 185 230 275 346 419
#
# _framework density 22.118016000000001
#
# number of rings (size 3 to 8) (size 9 to 14) (size 15 to 20)
#    0.000    0.800    4.000    1.200   16.800    1.600 
#    0.000    0.000    0.000    0.000    0.000    0.000 
#    0.000    0.000    0.000    0.000    0.000    0.000 
#
# Total GULP energy -111624.534529 kJ/mol
# GULP energy per Si atom -5581.226726 kJ/mol
# Density = 2.206767 g / cm^3
# Si number density = 22.118016 Si / 1000 Ang^3
#
#
#
# Elastic Constant Matrix: (Units=GPa)
#
#
# Indices 1 2 3 4 5 6 
#
# 1 108.8937 -2.5849 10.0342 0.0000 -7.8806 0.0000
# 2 -2.5849 34.7327 -4.8719 0.0000 8.6307 0.0000
# 3 10.0342 -4.8719 84.2788 0.0000 -17.8603 0.0000
# 4 0.0000 0.0000 0.0000 31.3267 0.0000 8.4835
# 5 -7.8806 8.6307 -17.8603 0.0000 46.8982 0.0000
# 6 0.0000 0.0000 0.0000 8.4835 0.0000 34.8028
#
#
#
# Elastic Compliance Matrix: (Units=1/GPa)
#
#
# Indices 1 2 3 4 5 6 
#
# 1 0.009354 0.000280 -0.000843 0.000000 0.001199 0.000000
# 2 0.000280 0.030209 0.000593 0.000000 -0.005287 0.000000
# 3 -0.000843 0.000593 0.012996 0.000000 0.004698 0.000000
# 4 0.000000 0.000000 0.000000 0.034178 0.000000 -0.008331
# 5 0.001199 -0.005287 0.004698 0.000000 0.024287 0.000000
# 6 0.000000 0.000000 0.000000 -0.008331 0.000000 0.030764
#
#
# Mechanical properties :
#
#
# Convention : Reuss Voigt Hill
#
# Bulk Modulus (GPa) = 19.00516 25.89555 22.45035
# Shear Modulus (GPa) = 31.39354 37.62739 34.51047
#
# Velocity S-wave (km/s) = 3.77153 4.12905 3.95433
# Velocity P-wave (km/s) = 5.25140 5.87072 5.56968
#
# Compressibility (1/GPa) = 0.05261730
#
# Stress axis : x y z
#
# Youngs Moduli (GPa) = 106.90138 33.10277 76.94830
#
# Poissons Ratio (x) = -0.00926 0.06490
# Poissons Ratio (y) = -0.02992 -0.04560
# Poissons Ratio (z) = 0.09016 -0.01962
#
# Static dielectric constant tensor:
#      x y z
#    x 1.889540 0.000000 0.154560 
#    y 0.000000 1.964070 0.000000 
#    z 0.154560 0.000000 1.749530 
# 
# From -- ./inp_files/59941.got.cif
#   From: 2010.05.17/outbox.cif.g08.bks.cpg/sg15_30_cif.got.tgz:59941.got - 2010.06.03 18:47:42.
