data_PCOD9303544
_publ_section_title
;
Structure prediction by ZEFSAII (Michael W. Deem and Ramdas Pophale) SiO2 
 PCOD9303544
Probable space group: C 2/C
;
_chemical_formula_sum "Si O2"
_cell_formula_units_Z 40
_cell_length_a 8.281468
_cell_length_b 18.737149
_cell_length_c 9.894531
_cell_angle_alpha 90.000000
_cell_angle_beta 89.080570
_cell_angle_gamma 90.000000
_cell_volume 1535.147580
_symmetry_space_group_name_H-M "C 2/C"
_symmetry_group_IT_number 15
_symmetry_cell_setting 'monoclinic'
loop_
_space_group_symop_operation_xyz
x,y,z
-x,y,1/2-z
-x,-y,-z
x,-y,1/2+z
1/2+x,1/2+y,z
1/2-x,1/2+y,1/2-z
1/2-x,1/2-y,-z
1/2+x,1/2-y,1/2+z
loop_
_atom_site_type_symbol
_atom_site_label
_atom_site_fract_x
_atom_site_fract_y
_atom_site_fract_z
Si Si1 0.320604 0.522590 0.787251
Si Si2 0.411173 0.689484 0.109835
Si Si3 0.527053 0.159595 0.600650
Si Si4 0.168936 0.567722 0.069800
Si Si5 0.878865 0.825187 0.149087
O O1 0.500000 0.490626 0.750000
O O2 0.189111 0.481644 0.699106
O O3 0.337827 0.602413 0.728911
O O4 0.267495 0.530585 0.943770
O O5 0.500000 0.680941 0.250000
O O6 0.400059 0.774994 0.088852
O O7 0.254885 0.641195 0.112392
O O8 0.519700 0.661054 0.985862
O O9 0.500000 0.129039 0.750000
O O10 0.497452 0.097348 0.492926
O O11 0.701199 0.197720 0.603480
O O12 0.000000 0.783219 0.250000
#
# Coordination Sequence:
#
# PCOD9303544 Si02
#       5
#     8   8   8   8   8
#     4  11  23  41  72  95 136 179 227 271 334 398
#     4  11  24  42  71 101 134 177 226 273 333 405
#     4  11  23  44  68 103 137 174 222 281 339 397
#     4  12  24  43  70  99 136 177 224 279 334 393
#     4  11  22  45  70  97 134 181 220 276 338 396
#
# _framework density 26.05613
#
# number of rings (size 3 to 8) (size 9 to 14) (size 15 to 20)
#    0.000    0.800    6.000    2.400    2.800    2.400 
#    0.000    1.000    0.000    0.000    0.000    0.000 
#    0.000    0.000    0.000    0.000    0.000    0.000 
#
# Total GULP energy -111844.023290 kJ/mol
# GULP energy per Si atom -5592.201165 kJ/mol
# Density = 2.599683 g / cm^3
# Si number density = 26.056130 Si / 1000 Ang^3
#
#
#
# Elastic Constant Matrix: (Units=GPa)
#
#
# Indices 1 2 3 4 5 6 
#
# 1 85.3278 27.2042 25.1990 0.0000 26.8384 0.0000
# 2 27.2042 87.1636 25.7597 0.0000 18.1389 0.0000
# 3 25.1990 25.7597 141.5397 0.0000 23.2239 0.0000
# 4 0.0000 0.0000 0.0000 43.4858 0.0000 2.6352
# 5 26.8384 18.1389 23.2239 0.0000 35.9409 0.0000
# 6 0.0000 0.0000 0.0000 2.6352 0.0000 22.1895
#
#
#
# Elastic Compliance Matrix: (Units=1/GPa)
#
#
# Indices 1 2 3 4 5 6 
#
# 1 0.015959 -0.002669 -0.000695 0.000000 -0.010121 0.000000
# 2 -0.002669 0.013527 -0.001335 0.000000 -0.003971 0.000000
# 3 -0.000695 -0.001335 0.008094 0.000000 -0.004038 0.000000
# 4 0.000000 0.000000 0.000000 0.023163 0.000000 -0.002751
# 5 -0.010121 -0.003971 -0.004038 0.000000 0.039994 0.000000
# 6 0.000000 0.000000 0.000000 -0.002751 0.000000 0.045393
#
#
# Mechanical properties :
#
#
# Convention : Reuss Voigt Hill
#
# Bulk Modulus (GPa) = 35.48393 52.26189 43.87291
# Shear Modulus (GPa) = 30.31725 36.04778 33.18252
#
# Velocity S-wave (km/s) = 3.41477 3.72353 3.57249
# Velocity P-wave (km/s) = 5.40327 6.21186 5.82162
#
# Compressibility (1/GPa) = 0.02818177
#
# Stress axis : x y z
#
# Youngs Moduli (GPa) = 62.65987 73.92803 123.54312
#
# Poissons Ratio (x) = 0.19734 0.08584
# Poissons Ratio (y) = 0.16726 0.16494
# Poissons Ratio (z) = 0.04354 0.09870
#
# Static dielectric constant tensor:
#      x y z
#    x 2.295020 0.000000 0.054080 
#    y 0.000000 2.038380 0.000000 
#    z 0.054080 0.000000 2.039190 
# 
# From -- ./inp_files/23475.got.cif
#   From: 2010.05.17/outbox.cif.g08.bks.cpg/sg15_12_cif.got.tgz:23475.got - 2010.06.03 18:47:42.
