data_PCOD9303427
_publ_section_title
;
Structure prediction by ZEFSAII (Michael W. Deem and Ramdas Pophale) SiO2 
 PCOD9303427
Probable space group: C 2/C
;
_chemical_formula_sum "Si O2"
_cell_formula_units_Z 40
_cell_length_a 16.672300
_cell_length_b 6.063236
_cell_length_c 16.119839
_cell_angle_alpha 90.000000
_cell_angle_beta 88.794272
_cell_angle_gamma 90.000000
_cell_volume 1629.162927
_symmetry_space_group_name_H-M "C 2/C"
_symmetry_group_IT_number 15
_symmetry_cell_setting 'monoclinic'
loop_
_space_group_symop_operation_xyz
x,y,z
-x,y,1/2-z
-x,-y,-z
x,-y,1/2+z
1/2+x,1/2+y,z
1/2-x,1/2+y,1/2-z
1/2-x,1/2-y,-z
1/2+x,1/2-y,1/2+z
loop_
_atom_site_type_symbol
_atom_site_label
_atom_site_fract_x
_atom_site_fract_y
_atom_site_fract_z
Si Si1 0.638282 0.394314 0.430710
Si Si2 0.715089 0.817883 0.619584
Si Si3 0.965066 0.183540 0.170006
Si Si4 0.074019 0.555390 0.557408
Si Si5 0.182038 0.515759 0.304380
O O1 0.714804 0.555064 0.431454
O O2 0.559580 0.531239 0.406275
O O3 0.625216 0.244776 0.510969
O O4 0.650435 0.229597 0.352420
O O5 0.631726 0.851166 0.574794
O O6 0.706059 0.934688 0.709938
O O7 0.743702 0.575242 0.643073
O O8 0.885009 0.324125 0.190769
O O9 0.000000 0.062460 0.250000
O O10 0.033995 0.351552 0.140911
O O11 0.000000 0.500000 0.500000
#
# Coordination Sequence:
#
# PCOD9303427 Si02
#       5
#     8   8   8   8   8
#     4  11  25  45  66 101 139 180 224 285 350 406
#     4  11  24  43  71  98 136 181 231 283 336 419
#     4  11  24  44  72 100 136 183 234 284 341 415
#     4  12  25  46  68 101 142 179 224 290 351 406
#     4  11  22  44  70 103 133 178 239 281 342 406
#
# _framework density 24.552488
#
# number of rings (size 3 to 8) (size 9 to 14) (size 15 to 20)
#    0.000    0.800    6.000    1.200    0.000    3.200 
#    7.200    0.000    0.000    0.000    0.000    0.000 
#    0.000    0.000    0.000    0.000    0.000    0.000 
#
# Total GULP energy -112085.957382 kJ/mol
# GULP energy per Si atom -5604.297869 kJ/mol
# Density = 2.449661 g / cm^3
# Si number density = 24.552488 Si / 1000 Ang^3
#
#
#
# Elastic Constant Matrix: (Units=GPa)
#
#
# Indices 1 2 3 4 5 6 
#
# 1 97.2965 12.6843 34.2372 0.0000 15.0341 0.0000
# 2 12.6843 38.5560 -2.1463 0.0000 8.7885 0.0000
# 3 34.2372 -2.1463 64.9335 0.0000 15.1953 0.0000
# 4 0.0000 0.0000 0.0000 40.5899 0.0000 3.6159
# 5 15.0341 8.7885 15.1953 0.0000 51.3694 0.0000
# 6 0.0000 0.0000 0.0000 3.6159 0.0000 31.6447
#
#
#
# Elastic Compliance Matrix: (Units=1/GPa)
#
#
# Indices 1 2 3 4 5 6 
#
# 1 0.013516 -0.004588 -0.007022 0.000000 -0.001093 0.000000
# 2 -0.004588 0.028821 0.004525 0.000000 -0.004926 0.000000
# 3 -0.007022 0.004525 0.020362 0.000000 -0.004742 0.000000
# 4 0.000000 0.000000 0.000000 0.024890 0.000000 -0.002844
# 5 -0.001093 -0.004926 -0.004742 0.000000 0.022032 0.000000
# 6 0.000000 0.000000 0.000000 -0.002844 0.000000 0.031926
#
#
# Mechanical properties :
#
#
# Convention : Reuss Voigt Hill
#
# Bulk Modulus (GPa) = 20.60705 32.25962 26.43334
# Shear Modulus (GPa) = 29.08758 35.12150 32.10454
#
# Velocity S-wave (km/s) = 3.44570 3.78625 3.61998
# Velocity P-wave (km/s) = 4.92359 5.68171 5.31618
#
# Compressibility (1/GPa) = 0.04852707
#
# Stress axis : x y z
#
# Youngs Moduli (GPa) = 73.98619 34.69747 49.11045
#
# Poissons Ratio (x) = 0.15920 0.34487
# Poissons Ratio (y) = 0.33947 -0.22221
# Poissons Ratio (z) = 0.51955 -0.15699
#
# Static dielectric constant tensor:
#      x y z
#    x 1.914840 0.000000 0.018800 
#    y 0.000000 1.914690 0.000000 
#    z 0.018800 0.000000 1.971510 
# 
# From -- ./inp_files/207983.got.cif
#   From: 2010.05.17/outbox.cif.g08.bks.cpg/sg15_104_cif.got.tgz:207983.got - 2010.06.03 18:47:42.
