data_PCOD9303512
_publ_section_title
;
Structure prediction by ZEFSAII (Michael W. Deem and Ramdas Pophale) SiO2 
 PCOD9303512
Probable space group: C 2/C
;
_chemical_formula_sum "Si O2"
_cell_formula_units_Z 48
_cell_length_a 12.658581
_cell_length_b 13.861775
_cell_length_c 14.087907
_cell_angle_alpha 90.000000
_cell_angle_beta 64.951515
_cell_angle_gamma 90.000000
_cell_volume 2239.517681
_symmetry_space_group_name_H-M "C 2/C"
_symmetry_group_IT_number 15
_symmetry_cell_setting 'monoclinic'
loop_
_space_group_symop_operation_xyz
x,y,z
-x,y,1/2-z
-x,-y,-z
x,-y,1/2+z
1/2+x,1/2+y,z
1/2-x,1/2+y,1/2-z
1/2-x,1/2-y,-z
1/2+x,1/2-y,1/2+z
loop_
_atom_site_type_symbol
_atom_site_label
_atom_site_fract_x
_atom_site_fract_y
_atom_site_fract_z
Si Si1 0.703366 0.844687 0.251250
Si Si2 0.182382 0.188934 0.105648
Si Si3 0.364750 0.232425 0.518158
Si Si4 0.571405 0.233871 0.310382
Si Si5 0.969738 0.087253 0.079540
Si Si6 0.770446 0.563441 0.231885
O O1 0.645516 0.769148 0.199331
O O2 0.668045 0.820727 0.372465
O O3 0.839792 0.814769 0.185248
O O4 0.683683 0.958914 0.254293
O O5 0.264381 0.108945 0.127276
O O6 0.076661 0.133135 0.096426
O O7 0.250000 0.250000 0.000000
O O8 0.250000 0.250000 0.500000
O O9 0.474566 0.190837 0.418079
O O10 0.415249 0.333940 0.531181
O O11 0.500000 0.276139 0.250000
O O12 0.654943 0.146592 0.244874
O O13 0.865300 0.061344 0.189914
O O14 0.000000 0.000000 0.000000
#
# Coordination Sequence:
#
# PCOD9303512 Si02
#       6
#     8   8   8   8   8   8
#     4  11  25  47  71 103 145 191 244 298 375 440
#     4  11  24  47  71 106 153 189 242 315 371 433
#     4  12  24  44  72 100 143 190 239 307 364 435
#     4  11  22  45  66  97 142 183 239 300 360 434
#     4  12  24  43  75 106 138 192 251 300 364 436
#     4  11  24  44  67 106 140 187 242 296 364 439
#
# _framework density 21.433185999999999
#
# number of rings (size 3 to 8) (size 9 to 14) (size 15 to 20)
#    0.000    0.667    5.000    4.500    2.333    2.000 
#    6.000    0.000    0.000    0.000    0.000    0.000 
#    0.000    0.000    0.000    0.000    0.000    0.000 
#
# Total GULP energy -133930.486665 kJ/mol
# GULP energy per Si atom -5580.436944 kJ/mol
# Density = 2.138440 g / cm^3
# Si number density = 21.433186 Si / 1000 Ang^3
#
#
#
# Elastic Constant Matrix: (Units=GPa)
#
#
# Indices 1 2 3 4 5 6 
#
# 1 93.0054 9.9386 1.0512 0.0000 11.5643 0.0000
# 2 9.9386 95.6604 -23.0003 0.0000 14.7273 0.0000
# 3 1.0512 -23.0003 88.9546 0.0000 -3.6898 0.0000
# 4 0.0000 0.0000 0.0000 38.4655 0.0000 2.1388
# 5 11.5643 14.7273 -3.6898 0.0000 36.6672 0.0000
# 6 0.0000 0.0000 0.0000 2.1388 0.0000 19.8220
#
#
#
# Elastic Compliance Matrix: (Units=1/GPa)
#
#
# Indices 1 2 3 4 5 6 
#
# 1 0.011249 -0.000776 -0.000470 0.000000 -0.003283 0.000000
# 2 -0.000776 0.011885 0.002907 0.000000 -0.004236 0.000000
# 3 -0.000470 0.002907 0.012007 0.000000 0.000189 0.000000
# 4 0.000000 0.000000 0.000000 0.026154 0.000000 -0.002822
# 5 -0.003283 -0.004236 0.000189 0.000000 0.030028 0.000000
# 6 0.000000 0.000000 0.000000 -0.002822 0.000000 0.050753
#
#
# Mechanical properties :
#
#
# Convention : Reuss Voigt Hill
#
# Bulk Modulus (GPa) = 25.99993 28.17772 27.08882
# Shear Modulus (GPa) = 32.98677 38.29967 35.64322
#
# Velocity S-wave (km/s) = 3.92733 4.23180 4.08240
# Velocity P-wave (km/s) = 5.72034 6.08710 5.90657
#
# Compressibility (1/GPa) = 0.03846164
#
# Stress axis : x y z
#
# Youngs Moduli (GPa) = 88.90038 84.13732 83.28749
#
# Poissons Ratio (x) = 0.06530 0.03913
# Poissons Ratio (y) = 0.06900 -0.24208
# Poissons Ratio (z) = 0.04177 -0.24455
#
# Static dielectric constant tensor:
#      x y z
#    x 1.772400 0.000000 -0.058910 
#    y 0.000000 1.740000 0.000000 
#    z -0.058910 0.000000 1.847450 
# 
# From -- ./inp_files/144079.got.cif
#   From: 2010.05.17/outbox.cif.g08.bks.cpg/sg15_73_cif.got.tgz:144079.got - 2010.06.03 18:47:42.
