data_PCOD9303151
_publ_section_title
;
Structure prediction by ZEFSAII (Michael W. Deem and Ramdas Pophale) SiO2 
 PCOD9303151
Probable space group: C 2/C
;
_chemical_formula_sum "Si O2"
_cell_formula_units_Z 48
_cell_length_a 14.913119
_cell_length_b 9.935292
_cell_length_c 26.950880
_cell_angle_alpha 90.000000
_cell_angle_beta 38.893130
_cell_angle_gamma 90.000000
_cell_volume 2507.215253
_symmetry_space_group_name_H-M "C 2/C"
_symmetry_group_IT_number 15
_symmetry_cell_setting 'monoclinic'
loop_
_space_group_symop_operation_xyz
x,y,z
-x,y,1/2-z
-x,-y,-z
x,-y,1/2+z
1/2+x,1/2+y,z
1/2-x,1/2+y,1/2-z
1/2-x,1/2-y,-z
1/2+x,1/2-y,1/2+z
loop_
_atom_site_type_symbol
_atom_site_label
_atom_site_fract_x
_atom_site_fract_y
_atom_site_fract_z
Si Si1 0.390311 0.702728 0.664536
Si Si2 0.853513 0.517110 0.693590
Si Si3 0.817946 0.767187 0.415873
Si Si4 0.894487 0.525841 0.843322
Si Si5 0.094458 0.382063 0.436749
Si Si6 0.084672 0.140323 0.959594
O O1 0.270009 0.591433 0.723371
O O2 0.526341 0.672381 0.640367
O O3 0.432447 0.697480 0.588748
O O4 0.343119 0.854877 0.698420
O O5 0.845324 0.569590 0.641352
O O6 0.004105 0.558259 0.653611
O O7 0.750000 0.750000 0.500000
O O8 0.839179 0.624398 0.379285
O O9 0.717827 0.851548 0.423176
O O10 0.752454 0.615510 0.897964
O O11 0.000000 0.528152 0.750000
O O12 0.000000 0.500000 0.500000
O O13 0.995463 0.250280 0.472495
O O14 0.000000 0.000000 0.000000
#
# Coordination Sequence:
#
# PCOD9303151 Si02
#       6
#     8   8   8   8   8   8
#     4  11  24  45  66  98 134 174 223 272 327 403
#     4  11  26  43  67  96 135 174 218 275 334 390
#     4  11  22  42  68  94 129 178 222 265 327 403
#     4  11  23  42  68  95 130 177 221 268 332 402
#     4  12  24  43  66  98 135 168 217 281 330 380
#     4  12  23  42  71  96 129 174 224 268 327 401
#
# _framework density 19.144746000000001
#
# number of rings (size 3 to 8) (size 9 to 14) (size 15 to 20)
#    0.000    0.667    6.667    1.000    7.000    0.667 
#    3.000    1.667    0.000    0.000    0.000    0.000 
#    0.000    0.000    0.000    0.000    0.000    0.000 
#
# Total GULP energy -134080.402872 kJ/mol
# GULP energy per Si atom -5586.683453 kJ/mol
# Density = 1.910117 g / cm^3
# Si number density = 19.144746 Si / 1000 Ang^3
#
#
#
# Elastic Constant Matrix: (Units=GPa)
#
#
# Indices 1 2 3 4 5 6 
#
# 1 139.6971 31.4049 10.3378 0.0000 -23.3016 0.0000
# 2 31.4049 80.3883 20.0443 0.0000 -22.4403 0.0000
# 3 10.3378 20.0443 50.0465 0.0000 -7.9967 0.0000
# 4 0.0000 0.0000 0.0000 46.5734 0.0000 -3.5992
# 5 -23.3016 -22.4403 -7.9967 0.0000 42.5923 0.0000
# 6 0.0000 0.0000 0.0000 -3.5992 0.0000 34.6625
#
#
#
# Elastic Compliance Matrix: (Units=1/GPa)
#
#
# Indices 1 2 3 4 5 6 
#
# 1 0.008226 -0.002230 -0.000283 0.000000 0.003273 0.000000
# 2 -0.002230 0.016376 -0.005067 0.000000 0.006457 0.000000
# 3 -0.000283 -0.005067 0.022287 0.000000 0.001360 0.000000
# 4 0.000000 0.000000 0.000000 0.021645 0.000000 0.002248
# 5 0.003273 0.006457 0.001360 0.000000 0.028926 0.000000
# 6 0.000000 0.000000 0.000000 0.002248 0.000000 0.029083
#
#
# Mechanical properties :
#
#
# Convention : Reuss Voigt Hill
#
# Bulk Modulus (GPa) = 31.51579 43.74512 37.63045
# Shear Modulus (GPa) = 32.83430 38.65530 35.74480
#
# Velocity S-wave (km/s) = 4.14582 4.49832 4.32566
# Velocity P-wave (km/s) = 6.27811 7.06252 6.68183
#
# Compressibility (1/GPa) = 0.03173013
#
# Stress axis : x y z
#
# Youngs Moduli (GPa) = 121.55958 61.06315 44.87018
#
# Poissons Ratio (x) = 0.13614 0.01272
# Poissons Ratio (y) = 0.27102 0.22734
# Poissons Ratio (z) = 0.03445 0.30939
#
# Static dielectric constant tensor:
#      x y z
#    x 1.736070 0.000000 0.156630 
#    y 0.000000 1.671580 0.000000 
#    z 0.156630 0.000000 2.087900 
# 
# From -- ./inp_files/295393.got.cif
#   From: 2010.05.17/outbox.cif.g08.bks.cpg/sg15_148_cif.got.tgz:295393.got - 2010.06.03 18:47:42.
