data_PCOD9303795
_publ_section_title
;
Structure prediction by ZEFSAII (Michael W. Deem and Ramdas Pophale) SiO2 
 PCOD9303795
Probable space group: C 2/C
;
_chemical_formula_sum "Si O2"
_cell_formula_units_Z 60
_cell_length_a 16.635754
_cell_length_b 17.174515
_cell_length_c 17.294672
_cell_angle_alpha 90.000000
_cell_angle_beta 31.663033
_cell_angle_gamma 90.000000
_cell_volume 2593.788581
_symmetry_space_group_name_H-M "C 2/C"
_symmetry_group_IT_number 15
_symmetry_cell_setting 'monoclinic'
loop_
_space_group_symop_operation_xyz
x,y,z
-x,y,1/2-z
-x,-y,-z
x,-y,1/2+z
1/2+x,1/2+y,z
1/2-x,1/2+y,1/2-z
1/2-x,1/2-y,-z
1/2+x,1/2-y,1/2+z
loop_
_atom_site_type_symbol
_atom_site_label
_atom_site_fract_x
_atom_site_fract_y
_atom_site_fract_z
Si Si1 0.686013 0.889090 0.330377
Si Si2 0.166598 0.211823 0.286763
Si Si3 0.415229 0.881953 0.661601
Si Si4 0.507296 0.571532 0.837022
Si Si5 0.369256 0.235213 0.971351
Si Si6 0.915061 0.762834 0.399048
Si Si7 0.500000 0.118333 0.750000
Si Si8 0.763762 0.481982 0.368725
O O1 0.684918 0.795564 0.315145
O O2 0.521470 0.909194 0.503013
O O3 0.729806 0.932233 0.215254
O O4 0.816651 0.917558 0.282794
O O5 0.249179 0.146743 0.269455
O O6 0.990327 0.201843 0.405151
O O7 0.268115 0.212145 0.126431
O O8 0.510275 0.808394 0.616679
O O9 0.378089 0.946059 0.756063
O O10 0.500000 0.559364 0.750000
O O11 0.432436 0.654089 0.924658
O O12 0.403177 0.508372 0.966320
O O13 0.479905 0.170699 0.842728
O O14 0.250000 0.250000 0.000000
O O15 0.750000 0.750000 0.500000
O O16 0.000000 0.773311 0.250000
O O17 0.652209 0.068248 0.634612
#
# Coordination Sequence:
#
# PCOD9303795 Si02
#       8
#     8   8   8   8   8   8   4   8
#     4  12  25  49  70 106 154 184 248 313 365 451
#     4  12  24  44  74 110 143 188 250 312 368 435
#     4  12  26  43  76 105 144 196 245 298 375 441
#     4  11  26  47  71 103 146 190 247 302 364 445
#     4  12  23  47  76 104 143 190 243 316 369 431
#     4  11  23  39  66 103 135 177 237 294 339 422
#     4  12  26  48  74 108 156 184 252 312 372 452
#     4  12  28  47  73 105 149 203 234 303 391 450
#
# _framework density 23.132186000000001
#
# number of rings (size 3 to 8) (size 9 to 14) (size 15 to 20)
#    0.000    0.267    5.333    3.200    8.400    0.000 
#    2.400    0.000    0.000    0.000    0.000    0.000 
#    0.000    0.000    0.000    0.000    0.000    0.000 
#
# Total GULP energy -167738.787116 kJ/mol
# GULP energy per Si atom -5591.292904 kJ/mol
# Density = 2.307954 g / cm^3
# Si number density = 23.132186 Si / 1000 Ang^3
#
#
#
# Elastic Constant Matrix: (Units=GPa)
#
#
# Indices 1 2 3 4 5 6 
#
# 1 113.0275 10.2703 16.9331 -0.0009 -23.5898 0.0008
# 2 10.2703 61.5445 7.7261 0.0002 -2.3626 0.0014
# 3 16.9331 7.7261 103.0522 0.0009 1.2673 -0.0005
# 4 -0.0009 0.0002 0.0009 19.6624 -0.0003 -10.4629
# 5 -23.5898 -2.3626 1.2673 -0.0003 54.6938 -0.0007
# 6 0.0008 0.0014 -0.0005 -10.4629 -0.0007 23.4738
#
#
#
# Elastic Compliance Matrix: (Units=1/GPa)
#
#
# Indices 1 2 3 4 5 6 
#
# 1 0.010116 -0.001318 -0.001617 0.000001 0.004344 0.000000
# 2 -0.001318 0.016604 -0.001030 -0.000001 0.000172 -0.000001
# 3 -0.001617 -0.001030 0.010059 0.000000 -0.000975 0.000000
# 4 0.000001 -0.000001 0.000000 0.066672 0.000001 0.029718
# 5 0.004344 0.000172 -0.000975 0.000001 0.020187 0.000001
# 6 0.000000 -0.000001 0.000000 0.029718 0.000001 0.055847
#
#
# Mechanical properties :
#
#
# Convention : Reuss Voigt Hill
#
# Bulk Modulus (GPa) = 34.66449 38.60925 36.63687
# Shear Modulus (GPa) = 25.37660 35.74565 30.56113
#
# Velocity S-wave (km/s) = 3.31573 3.93527 3.63871
# Velocity P-wave (km/s) = 5.44763 6.11354 5.79017
#
# Compressibility (1/GPa) = 0.02884796
#
# Stress axis : x y z
#
# Youngs Moduli (GPa) = 98.85372 60.22506 99.41625
#
# Poissons Ratio (x) = 0.07940 0.16073
# Poissons Ratio (y) = 0.13033 0.10244
# Poissons Ratio (z) = 0.15982 0.06205
#
# Static dielectric constant tensor:
#      x y z
#    x 1.861390 0.000000 -0.002940 
#    y 0.000000 1.995760 0.000010 
#    z -0.002940 0.000010 1.785790 
# 
# From -- ./inp_files/211721.got.cif
#   From: 2010.05.17/outbox.cif.g08.bks.cpg/sg15_106_cif.got.tgz:211721.got - 2010.06.03 18:47:42.
