data_PCOD9303098
_publ_section_title
;
Structure prediction by ZEFSAII (Michael W. Deem and Ramdas Pophale) SiO2 
 PCOD9303098
Probable space group: C 2/C
;
_chemical_formula_sum "Si O2"
_cell_formula_units_Z 56
_cell_length_a 9.054254
_cell_length_b 12.711480
_cell_length_c 22.168322
_cell_angle_alpha 90.000000
_cell_angle_beta 73.853634
_cell_angle_gamma 90.000000
_cell_volume 2450.775841
_symmetry_space_group_name_H-M "C 2/C"
_symmetry_group_IT_number 15
_symmetry_cell_setting 'monoclinic'
loop_
_space_group_symop_operation_xyz
x,y,z
-x,y,1/2-z
-x,-y,-z
x,-y,1/2+z
1/2+x,1/2+y,z
1/2-x,1/2+y,1/2-z
1/2-x,1/2-y,-z
1/2+x,1/2-y,1/2+z
loop_
_atom_site_type_symbol
_atom_site_label
_atom_site_fract_x
_atom_site_fract_y
_atom_site_fract_z
Si Si1 0.591690 0.604942 0.506749
Si Si2 0.339257 0.659856 0.135686
Si Si3 0.110764 0.751785 0.679256
Si Si4 0.117244 0.492423 0.181315
Si Si5 0.135532 0.587762 0.367836
Si Si6 0.296977 0.125204 0.601126
Si Si7 0.093589 0.696535 0.494418
O O1 0.500000 0.500000 0.500000
O O2 0.667268 0.631958 0.434220
O O3 0.700954 0.601696 0.551795
O O4 0.486397 0.705984 0.530231
O O5 0.510742 0.686410 0.139938
O O6 0.267633 0.561155 0.178366
O O7 0.254173 0.772395 0.145366
O O8 0.000000 0.752129 0.750000
O O9 0.144850 0.629204 0.660093
O O10 0.265617 0.818127 0.671261
O O11 0.000000 0.489325 0.250000
O O12 0.029204 0.563339 0.141787
O O13 0.215525 0.474529 0.354391
O O14 0.125016 0.610683 0.440194
O O15 0.471272 0.149158 0.556286
O O16 0.250000 0.750000 0.500000
#
# Coordination Sequence:
#
# PCOD9303098 Si02
#       7
#     8   8   8   8   8   8   8
#     4  11  23  38  60  95 134 172 215 265 322 403
#     4  11  22  44  67  90 137 168 212 272 333 382
#     4  11  25  46  67  97 130 169 227 281 328 388
#     4  11  25  45  69  96 127 173 228 281 329 385
#     4  12  23  42  70  95 134 177 219 269 336 390
#     4  11  22  42  62  97 137 173 214 269 324 405
#     4  11  23  37  63  98 133 171 218 263 328 405
#
# _framework density 22.849907999999999
#
# number of rings (size 3 to 8) (size 9 to 14) (size 15 to 20)
#    0.000    0.857    1.429    8.143    2.000    0.000 
#    2.571    0.714    0.000    0.000    0.000    0.000 
#    0.000    0.000    0.000    0.000    0.000    0.000 
#
# Total GULP energy -156384.832270 kJ/mol
# GULP energy per Si atom -5585.172581 kJ/mol
# Density = 2.279790 g / cm^3
# Si number density = 22.849908 Si / 1000 Ang^3
#
#
#
# Elastic Constant Matrix: (Units=GPa)
#
#
# Indices 1 2 3 4 5 6 
#
# 1 94.2619 50.8689 6.0723 0.0000 2.5366 0.0000
# 2 50.8689 176.4626 9.1325 0.0000 -22.2506 0.0000
# 3 6.0723 9.1325 23.7929 0.0000 -3.3886 0.0000
# 4 0.0000 0.0000 0.0000 27.3421 0.0000 2.7036
# 5 2.5366 -22.2506 -3.3886 0.0000 23.3396 0.0000
# 6 0.0000 0.0000 0.0000 2.7036 0.0000 31.6460
#
#
#
# Elastic Compliance Matrix: (Units=1/GPa)
#
#
# Indices 1 2 3 4 5 6 
#
# 1 0.013360 -0.004488 -0.002556 0.000000 -0.006102 0.000000
# 2 -0.004488 0.008012 -0.000789 0.000000 0.008011 0.000000
# 3 -0.002556 -0.000789 0.043823 0.000000 0.005888 0.000000
# 4 0.000000 0.000000 0.000000 0.036885 0.000000 -0.003151
# 5 -0.006102 0.008011 0.005888 0.000000 0.052001 0.000000
# 6 0.000000 0.000000 0.000000 -0.003151 0.000000 0.031869
#
#
# Mechanical properties :
#
#
# Convention : Reuss Voigt Hill
#
# Bulk Modulus (GPa) = 20.19037 47.40721 33.79879
# Shear Modulus (GPa) = 22.92262 31.69512 27.30887
#
# Velocity S-wave (km/s) = 3.17074 3.72842 3.46083
# Velocity P-wave (km/s) = 4.71806 6.27113 5.54920
#
# Compressibility (1/GPa) = 0.04952856
#
# Stress axis : x y z
#
# Youngs Moduli (GPa) = 74.85163 124.81655 22.81908
#
# Poissons Ratio (x) = 0.56022 0.05832
# Poissons Ratio (y) = 0.33596 0.01800
# Poissons Ratio (z) = 0.19131 0.09844
#
# Static dielectric constant tensor:
#      x y z
#    x 1.918520 0.000000 0.022010 
#    y 0.000000 1.933890 0.000000 
#    z 0.022010 0.000000 1.903270 
# 
# From -- ./inp_files/287950.got.cif
#   From: 2010.05.17/outbox.cif.g08.bks.cpg/sg15_144_cif.got.tgz:287950.got - 2010.06.03 18:47:42.
