data_PCOD9303881
_publ_section_title
;
Structure prediction by ZEFSAII (Michael W. Deem and Ramdas Pophale) SiO2 
 PCOD9303881
Probable space group: C 2/C
;
_chemical_formula_sum "Si O2"
_cell_formula_units_Z 48
_cell_length_a 8.612314
_cell_length_b 15.633498
_cell_length_c 23.397632
_cell_angle_alpha 90.000000
_cell_angle_beta 47.347104
_cell_angle_gamma 90.000000
_cell_volume 2316.935767
_symmetry_space_group_name_H-M "C 2/C"
_symmetry_group_IT_number 15
_symmetry_cell_setting 'monoclinic'
loop_
_space_group_symop_operation_xyz
x,y,z
-x,y,1/2-z
-x,-y,-z
x,-y,1/2+z
1/2+x,1/2+y,z
1/2-x,1/2+y,1/2-z
1/2-x,1/2-y,-z
1/2+x,1/2-y,1/2+z
loop_
_atom_site_type_symbol
_atom_site_label
_atom_site_fract_x
_atom_site_fract_y
_atom_site_fract_z
Si Si1 0.865577 0.900522 0.599256
Si Si2 0.646128 0.054603 0.920548
Si Si3 0.283497 0.229697 0.839668
Si Si4 0.179388 0.236268 0.582865
Si Si5 0.285743 0.070346 0.922787
Si Si6 0.448547 0.599626 0.329491
O O1 0.775425 0.812816 0.596328
O O2 0.103775 0.917392 0.516233
O O3 0.874441 0.896688 0.665700
O O4 0.742048 0.981067 0.603596
O O5 0.729407 0.144530 0.922403
O O6 0.509276 0.070925 0.898258
O O7 0.838362 0.990992 0.863077
O O8 0.500000 0.000000 0.000000
O O9 0.500000 0.219206 0.750000
O O10 0.258102 0.147823 0.886034
O O11 0.303244 0.315742 0.873255
O O12 0.075426 0.237638 0.852691
O O13 0.250000 0.250000 0.500000
O O14 0.500000 0.606022 0.250000
#
# Coordination Sequence:
#
# PCOD9303881 Si02
#       6
#     8   8   8   8   8   8
#     4  11  23  42  70 104 139 179 236 289 349 412
#     4  12  24  40  67 103 138 179 231 287 347 416
#     4  11  25  45  67 102 144 184 232 288 355 421
#     4  12  24  42  72 105 140 183 235 290 351 419
#     4  11  23  40  69 104 137 180 229 292 348 417
#     4  11  25  45  67  98 142 189 232 289 352 418
#
# _framework density 20.717016999999998
#
# number of rings (size 3 to 8) (size 9 to 14) (size 15 to 20)
#    0.000    0.667    3.333    5.000    0.000    4.000 
#    0.000   10.000    0.000    0.000    0.000    0.000 
#    0.000    0.000    0.000    0.000    0.000    0.000 
#
# Total GULP energy -134184.103906 kJ/mol
# GULP energy per Si atom -5591.004329 kJ/mol
# Density = 2.066986 g / cm^3
# Si number density = 20.717017 Si / 1000 Ang^3
#
#
#
# Elastic Constant Matrix: (Units=GPa)
#
#
# Indices 1 2 3 4 5 6 
#
# 1 139.9177 54.3469 29.6644 0.0004 -2.2104 -0.0006
# 2 54.3469 184.0314 14.0592 0.0002 0.5250 -0.0004
# 3 29.6644 14.0592 51.7689 -0.0004 4.7957 -0.0005
# 4 0.0004 0.0002 -0.0004 12.9685 -0.0002 -6.8640
# 5 -2.2104 0.5250 4.7957 -0.0002 32.6820 0.0003
# 6 -0.0006 -0.0004 -0.0005 -6.8640 0.0003 42.9678
#
#
#
# Elastic Compliance Matrix: (Units=1/GPa)
#
#
# Indices 1 2 3 4 5 6 
#
# 1 0.009064 -0.002322 -0.004687 0.000000 0.001338 0.000000
# 2 -0.002322 0.006145 -0.000319 0.000000 -0.000209 0.000000
# 3 -0.004687 -0.000319 0.022423 0.000001 -0.003602 0.000000
# 4 0.000000 0.000000 0.000001 0.084232 0.000000 0.013456
# 5 0.001338 -0.000209 -0.003602 0.000000 0.031220 0.000000
# 6 0.000000 0.000000 0.000000 0.013456 0.000000 0.025423
#
#
# Mechanical properties :
#
#
# Convention : Reuss Voigt Hill
#
# Bulk Modulus (GPa) = 43.52544 63.53989 53.53267
# Shear Modulus (GPa) = 24.89787 36.23351 30.56569
#
# Velocity S-wave (km/s) = 3.47047 4.18661 3.84525
# Velocity P-wave (km/s) = 6.09213 7.35576 6.75356
#
# Compressibility (1/GPa) = 0.02297507
#
# Stress axis : x y z
#
# Youngs Moduli (GPa) = 110.32647 162.74338 44.59790
#
# Poissons Ratio (x) = 0.37797 0.20903
# Poissons Ratio (y) = 0.25623 0.01421
# Poissons Ratio (z) = 0.51711 0.05184
#
# Static dielectric constant tensor:
#      x y z
#    x 1.714360 0.000000 -0.016890 
#    y 0.000000 1.741430 0.000000 
#    z -0.016890 0.000000 1.787480 
# 
# From -- ./inp_files/289005.got.cif
#   From: 2010.05.17/outbox.cif.g08.bks.cpg/sg15_145_cif.got.tgz:289005.got - 2010.06.03 18:47:42.
