data_PCOD9303391
_publ_section_title
;
Structure prediction by ZEFSAII (Michael W. Deem and Ramdas Pophale) SiO2 
 PCOD9303391
Probable space group: C 2/C
;
_chemical_formula_sum "Si O2"
_cell_formula_units_Z 40
_cell_length_a 8.674750
_cell_length_b 20.834391
_cell_length_c 9.657745
_cell_angle_alpha 90.000000
_cell_angle_beta 85.541638
_cell_angle_gamma 90.000000
_cell_volume 1740.192863
_symmetry_space_group_name_H-M "C 2/C"
_symmetry_group_IT_number 15
_symmetry_cell_setting 'monoclinic'
loop_
_space_group_symop_operation_xyz
x,y,z
-x,y,1/2-z
-x,-y,-z
x,-y,1/2+z
1/2+x,1/2+y,z
1/2-x,1/2+y,1/2-z
1/2-x,1/2-y,-z
1/2+x,1/2-y,1/2+z
loop_
_atom_site_type_symbol
_atom_site_label
_atom_site_fract_x
_atom_site_fract_y
_atom_site_fract_z
Si Si1 0.434621 0.688038 0.037012
Si Si2 0.000000 0.101050 0.250000
Si Si3 0.000000 0.116283 0.750000
Si Si4 0.112148 0.547502 0.413829
Si Si5 0.432746 0.818517 0.902377
Si Si6 0.292463 0.492107 0.154472
O O1 0.554366 0.653467 0.132564
O O2 0.254891 0.673759 0.093780
O O3 0.460766 0.657968 0.885401
O O4 0.455774 0.764153 0.017422
O O5 0.089850 0.051415 0.343021
O O6 0.142430 0.068724 0.768390
O O7 0.157682 0.523522 0.258152
O O8 0.259616 0.534852 0.503981
O O9 0.000000 0.500000 0.500000
O O10 0.030605 0.616743 0.423981
O O11 0.500000 0.796055 0.750000
#
# Coordination Sequence:
#
# PCOD9303391 Si02
#       6
#     8   4   4   8   8   8
#     4  11  24  44  69  99 137 183 225 278 340 408
#     4  11  22  44  66  96 137 176 224 280 337 402
#     4  11  22  44  68 100 137 176 222 282 331 406
#     4  12  23  41  65  96 134 175 222 282 334 392
#     4  11  24  46  69  98 141 180 228 280 338 408
#     4  11  24  40  67  99 133 175 227 275 338 400
#
# _framework density 22.985959000000001
#
# number of rings (size 3 to 8) (size 9 to 14) (size 15 to 20)
#    0.000    0.800    1.000    7.800    0.000    3.200 
#   10.800    3.000    0.000    0.000    0.000    0.000 
#    0.000    0.000    0.000    0.000    0.000    0.000 
#
# Total GULP energy -111559.354218 kJ/mol
# GULP energy per Si atom -5577.967711 kJ/mol
# Density = 2.293364 g / cm^3
# Si number density = 22.985959 Si / 1000 Ang^3
#
#
#
# Elastic Constant Matrix: (Units=GPa)
#
#
# Indices 1 2 3 4 5 6 
#
# 1 74.4000 49.3503 33.8240 0.0000 -16.2708 0.0000
# 2 49.3503 140.5771 35.9453 0.0000 -3.5220 0.0000
# 3 33.8240 35.9453 111.3963 0.0000 -6.4198 0.0000
# 4 0.0000 0.0000 0.0000 30.6845 0.0000 15.8378
# 5 -16.2708 -3.5220 -6.4198 0.0000 45.7955 0.0000
# 6 0.0000 0.0000 0.0000 15.8378 0.0000 17.4627
#
#
#
# Elastic Compliance Matrix: (Units=1/GPa)
#
#
# Indices 1 2 3 4 5 6 
#
# 1 0.020649 -0.006083 -0.003943 0.000000 0.006316 0.000000
# 2 -0.006083 0.009548 -0.001327 0.000000 -0.001613 0.000000
# 3 -0.003943 -0.001327 0.010601 0.000000 -0.000017 0.000000
# 4 0.000000 0.000000 0.000000 0.061273 0.000000 -0.055571
# 5 0.006316 -0.001613 -0.000017 0.000000 0.023954 0.000000
# 6 0.000000 0.000000 0.000000 -0.055571 0.000000 0.107665
#
#
# Mechanical properties :
#
#
# Convention : Reuss Voigt Hill
#
# Bulk Modulus (GPa) = 55.26927 62.73472 59.00200
# Shear Modulus (GPa) = 19.05294 32.60547 25.82921
#
# Velocity S-wave (km/s) = 2.88218 3.77038 3.35579
# Velocity P-wave (km/s) = 5.93068 6.80487 6.38276
#
# Compressibility (1/GPa) = 0.01809324
#
# Stress axis : x y z
#
# Youngs Moduli (GPa) = 48.42741 104.73689 94.32667
#
# Poissons Ratio (x) = 0.63707 0.37195
# Poissons Ratio (y) = 0.29456 0.12516
# Poissons Ratio (z) = 0.19096 0.13898
#
# Static dielectric constant tensor:
#      x y z
#    x 2.322890 0.000000 0.148220 
#    y 0.000000 1.837610 0.000000 
#    z 0.148220 0.000000 1.856520 
# 
# From -- ./inp_files/23509.got.cif
#   From: 2010.05.17/outbox.cif.g08.bks.cpg/sg15_12_cif.got.tgz:23509.got - 2010.06.03 18:47:42.
