data_PCOD9303072
_publ_section_title
;
Structure prediction by ZEFSAII (Michael W. Deem and Ramdas Pophale) SiO2 
 PCOD9303072
Probable space group: C 2/C
;
_chemical_formula_sum "Si O2"
_cell_formula_units_Z 52
_cell_length_a 17.764911
_cell_length_b 17.307717
_cell_length_c 9.309109
_cell_angle_alpha 90.000000
_cell_angle_beta 61.681491
_cell_angle_gamma 90.000000
_cell_volume 2519.727387
_symmetry_space_group_name_H-M "C 2/C"
_symmetry_group_IT_number 15
_symmetry_cell_setting 'monoclinic'
loop_
_space_group_symop_operation_xyz
x,y,z
-x,y,1/2-z
-x,-y,-z
x,-y,1/2+z
1/2+x,1/2+y,z
1/2-x,1/2+y,1/2-z
1/2-x,1/2-y,-z
1/2+x,1/2-y,1/2+z
loop_
_atom_site_type_symbol
_atom_site_label
_atom_site_fract_x
_atom_site_fract_y
_atom_site_fract_z
Si Si1 0.513865 0.582063 0.407209
Si Si2 0.872703 0.162477 0.717476
Si Si3 0.362657 0.052698 0.981421
Si Si4 0.239762 0.555198 0.709465
Si Si5 0.333281 0.590225 0.044986
Si Si6 0.500000 0.949176 0.750000
Si Si7 0.354307 0.157547 0.241713
O O1 0.500000 0.423858 0.750000
O O2 0.500000 0.500000 0.500000
O O3 0.447493 0.640871 0.540211
O O4 0.609239 0.607695 0.368124
O O5 0.784296 0.131424 0.728125
O O6 0.869337 0.252796 0.752294
O O7 0.882279 0.115011 0.857097
O O8 0.331220 0.065593 0.847995
O O9 0.451609 0.007340 0.900478
O O10 0.363991 0.131979 0.067376
O O11 0.298170 0.995956 0.126288
O O12 0.311501 0.500533 0.571836
O O13 0.241678 0.633061 0.127032
O O14 0.575418 0.895230 0.742227
#
# Coordination Sequence:
#
# PCOD9303072 Si02
#       7
#     8   8   8   8   8   4   8
#     4  12  27  43  70 100 136 180 232 282 336 416
#     4  12  25  45  68 105 136 180 224 290 349 403
#     4  11  23  44  68 102 126 183 228 283 328 419
#     4  11  22  41  71  98 132 171 235 270 338 410
#     4  11  23  46  70  97 134 183 230 270 345 413
#     4  12  22  46  70  98 138 178 238 272 338 414
#     4  11  27  42  71 103 139 175 229 287 351 404
#
# _framework density 20.637153000000001
#
# number of rings (size 3 to 8) (size 9 to 14) (size 15 to 20)
#    0.000    0.615    6.154    2.308    6.462    0.615 
#    1.385    0.000    0.000    0.000    0.000    0.000 
#    0.000    0.000    0.000    0.000    0.000    0.000 
#
# Total GULP energy -145346.966192 kJ/mol
# GULP energy per Si atom -5590.267930 kJ/mol
# Density = 2.059018 g / cm^3
# Si number density = 20.637153 Si / 1000 Ang^3
#
#
#
# Elastic Constant Matrix: (Units=GPa)
#
#
# Indices 1 2 3 4 5 6 
#
# 1 121.5748 -7.9720 40.0019 0.0000 10.6488 0.0000
# 2 -7.9720 48.9066 17.9761 0.0000 -7.9406 0.0000
# 3 40.0019 17.9761 93.9858 0.0000 11.7394 0.0000
# 4 0.0000 0.0000 0.0000 16.5432 0.0000 -4.2421
# 5 10.6488 -7.9406 11.7394 0.0000 39.8066 0.0000
# 6 0.0000 0.0000 0.0000 -4.2421 0.0000 19.3238
#
#
#
# Elastic Compliance Matrix: (Units=1/GPa)
#
#
# Indices 1 2 3 4 5 6 
#
# 1 0.010096 0.003334 -0.004859 0.000000 -0.000603 0.000000
# 2 0.003334 0.024486 -0.006853 0.000000 0.006014 0.000000
# 3 -0.004859 -0.006853 0.014564 0.000000 -0.004362 0.000000
# 4 0.000000 0.000000 0.000000 0.064054 0.000000 0.014062
# 5 -0.000603 0.006014 -0.004362 0.000000 0.027769 0.000000
# 6 0.000000 0.000000 0.000000 0.014062 0.000000 0.054837
#
#
# Mechanical properties :
#
#
# Convention : Reuss Voigt Hill
#
# Bulk Modulus (GPa) = 30.87583 40.49771 35.68677
# Shear Modulus (GPa) = 22.38559 29.43212 25.90886
#
# Velocity S-wave (km/s) = 3.29709 3.78057 3.54707
# Velocity P-wave (km/s) = 5.43030 6.22280 5.84001
#
# Compressibility (1/GPa) = 0.03238779
#
# Stress axis : x y z
#
# Youngs Moduli (GPa) = 99.05288 40.83968 68.66362
#
# Poissons Ratio (x) = -0.13615 0.33365
# Poissons Ratio (y) = -0.33023 0.47058
# Poissons Ratio (z) = 0.48132 0.27989
#
# Static dielectric constant tensor:
#      x y z
#    x 1.792550 0.000000 -0.013160 
#    y 0.000000 1.688260 0.000000 
#    z -0.013160 0.000000 1.756070 
# 
# From -- ./inp_files/48952.got.cif
#   From: 2010.05.17/outbox.cif.g08.bks.cpg/sg15_25_cif.got.tgz:48952.got - 2010.06.03 18:47:42.
