data_PCOD9303822
_publ_section_title
;
Structure prediction by ZEFSAII (Michael W. Deem and Ramdas Pophale) SiO2 
 PCOD9303822
Probable space group: C 2/C
;
_chemical_formula_sum "Si O2"
_cell_formula_units_Z 40
_cell_length_a 12.514895
_cell_length_b 7.279864
_cell_length_c 22.399427
_cell_angle_alpha 90.000000
_cell_angle_beta 46.291016
_cell_angle_gamma 90.000000
_cell_volume 1475.165889
_symmetry_space_group_name_H-M "C 2/C"
_symmetry_group_IT_number 15
_symmetry_cell_setting 'monoclinic'
loop_
_space_group_symop_operation_xyz
x,y,z
-x,y,1/2-z
-x,-y,-z
x,-y,1/2+z
1/2+x,1/2+y,z
1/2-x,1/2+y,1/2-z
1/2-x,1/2-y,-z
1/2+x,1/2-y,1/2+z
loop_
_atom_site_type_symbol
_atom_site_label
_atom_site_fract_x
_atom_site_fract_y
_atom_site_fract_z
Si Si1 0.811917 0.658720 0.368837
Si Si2 0.987583 0.156434 0.054395
Si Si3 0.555729 0.683369 0.853151
Si Si4 0.408038 0.017323 0.936755
Si Si5 0.388327 0.172092 0.748314
O O1 0.668874 0.758761 0.398971
O O2 0.844714 0.499875 0.308469
O O3 0.954530 0.774926 0.334129
O O4 0.775897 0.556966 0.446652
O O5 0.110620 0.314267 0.012135
O O6 0.967366 0.027473 0.120596
O O7 0.000000 0.000000 0.000000
O O8 0.728542 0.735251 0.786382
O O9 0.486293 0.830579 0.927020
O O10 0.519237 0.100471 0.843714
O O11 0.500000 0.281587 0.750000
#
# Coordination Sequence:
#
# PCOD9303822 Si02
#       5
#     8   8   8   8   8
#     4   8  20  41  56  84 123 145 188 253 284 339
#     4  11  23  40  61  85 116 159 206 237 280 351
#     4   9  21  39  58  87 120 151 190 244 296 338
#     4   9  21  38  58  87 121 150 194 239 291 349
#     4   9  17  35  63  83 120 148 185 241 288 356
#
# _framework density 27.115594000000002
#
# number of rings (size 3 to 8) (size 9 to 14) (size 15 to 20)
#    1.200    1.600    0.000    0.000    5.600    2.400 
#   10.800    0.000    4.400    0.000    0.000    0.000 
#    0.000    0.000    0.000    0.000    0.000    0.000 
#
# Total GULP energy -111504.005296 kJ/mol
# GULP energy per Si atom -5575.200265 kJ/mol
# Density = 2.705388 g / cm^3
# Si number density = 27.115594 Si / 1000 Ang^3
#
#
#
# Elastic Constant Matrix: (Units=GPa)
#
#
# Indices 1 2 3 4 5 6 
#
# 1 200.7784 45.9707 22.4099 -0.0001 -10.7330 -0.0002
# 2 45.9707 124.1928 11.5591 -0.0001 1.5461 -0.0003
# 3 22.4099 11.5591 46.0119 0.0000 5.5872 0.0000
# 4 -0.0001 -0.0001 0.0000 26.9128 0.0000 -0.1058
# 5 -10.7330 1.5461 5.5872 0.0000 34.4813 0.0000
# 6 -0.0002 -0.0003 0.0000 -0.1058 0.0000 45.1688
#
#
#
# Elastic Compliance Matrix: (Units=1/GPa)
#
#
# Indices 1 2 3 4 5 6 
#
# 1 0.005846 -0.001947 -0.002642 0.000000 0.002335 0.000000
# 2 -0.001947 0.008893 -0.001187 0.000000 -0.000813 0.000000
# 3 -0.002642 -0.001187 0.023882 0.000000 -0.004639 0.000000
# 4 0.000000 0.000000 0.000000 0.037157 0.000000 0.000087
# 5 0.002335 -0.000813 -0.004639 0.000000 0.030516 0.000000
# 6 0.000000 0.000000 0.000000 0.000087 0.000000 0.022139
#
#
# Mechanical properties :
#
#
# Convention : Reuss Voigt Hill
#
# Bulk Modulus (GPa) = 36.94254 58.98470 47.96362
# Shear Modulus (GPa) = 33.55499 40.71549 37.13524
#
# Velocity S-wave (km/s) = 3.52160 3.87919 3.70471
# Velocity P-wave (km/s) = 5.49447 6.47027 6.00224
#
# Compressibility (1/GPa) = 0.02706906
#
# Stress axis : x y z
#
# Youngs Moduli (GPa) = 171.05347 112.44342 41.87315
#
# Poissons Ratio (x) = 0.21895 0.11062
# Poissons Ratio (y) = 0.33307 0.04971
# Poissons Ratio (z) = 0.45187 0.13349
#
# Static dielectric constant tensor:
#      x y z
#    x 2.182750 0.000000 0.014090 
#    y 0.000000 2.174070 0.000000 
#    z 0.014090 0.000000 2.262740 
# 
# From -- ./inp_files/267557.got.cif
#   From: 2010.05.17/outbox.cif.g08.bks.cpg/sg15_134_cif.got.tgz:267557.got - 2010.06.03 18:47:42.
