data_PCOD9303303
_publ_section_title
;
Structure prediction by ZEFSAII (Michael W. Deem and Ramdas Pophale) SiO2 
 PCOD9303303
Probable space group: C 2/C
;
_chemical_formula_sum "Si O2"
_cell_formula_units_Z 40
_cell_length_a 20.971388
_cell_length_b 6.070727
_cell_length_c 18.398156
_cell_angle_alpha 90.000000
_cell_angle_beta 45.606461
_cell_angle_gamma 90.000000
_cell_volume 1673.692828
_symmetry_space_group_name_H-M "C 2/C"
_symmetry_group_IT_number 15
_symmetry_cell_setting 'monoclinic'
loop_
_space_group_symop_operation_xyz
x,y,z
-x,y,1/2-z
-x,-y,-z
x,-y,1/2+z
1/2+x,1/2+y,z
1/2-x,1/2+y,1/2-z
1/2-x,1/2-y,-z
1/2+x,1/2-y,1/2+z
loop_
_atom_site_type_symbol
_atom_site_label
_atom_site_fract_x
_atom_site_fract_y
_atom_site_fract_z
Si Si1 0.114505 0.577138 0.225361
Si Si2 0.850014 0.308262 0.442776
Si Si3 0.351618 0.306193 0.696674
Si Si4 0.779717 0.373470 0.114783
Si Si5 0.009330 0.036666 0.656087
O O1 0.106112 0.415823 0.163728
O O2 0.144338 0.432907 0.269825
O O3 0.196726 0.744424 0.143981
O O4 0.025618 0.711861 0.316712
O O5 0.750000 0.250000 0.500000
O O6 0.841344 0.496218 0.510141
O O7 0.897172 0.084757 0.432610
O O8 0.270816 0.444848 0.795481
O O9 0.440753 0.421269 0.655369
O O10 0.336389 0.279723 0.623486
O O11 0.000000 0.989854 0.750000
#
# Coordination Sequence:
#
# PCOD9303303 Si02
#       5
#     8   8   8   8   8
#     4  11  23  44  73 100 139 192 228 287 361 416
#     4  12  24  47  74 110 139 178 251 296 334 424
#     4  11  22  43  69 103 142 191 230 281 363 427
#     4  11  23  42  75 103 142 186 238 291 346 418
#     4  11  25  43  68 101 141 184 232 287 361 417
#
# _framework density 23.899249000000001
#
# number of rings (size 3 to 8) (size 9 to 14) (size 15 to 20)
#    0.000    0.800    6.000    1.800    2.800    0.800 
#    0.000    1.000    0.000    0.000    0.000    0.000 
#    0.000    0.000    0.000    0.000    0.000    0.000 
#
# Total GULP energy -111825.154461 kJ/mol
# GULP energy per Si atom -5591.257723 kJ/mol
# Density = 2.384485 g / cm^3
# Si number density = 23.899249 Si / 1000 Ang^3
#
#
#
# Elastic Constant Matrix: (Units=GPa)
#
#
# Indices 1 2 3 4 5 6 
#
# 1 142.6789 44.0629 43.4310 -0.0013 -14.9843 0.0025
# 2 44.0629 99.5548 25.4703 -0.0055 -12.0178 -0.0049
# 3 43.4310 25.4703 49.8222 -0.0033 -12.0486 -0.0022
# 4 -0.0013 -0.0055 -0.0033 49.5998 0.0003 1.3719
# 5 -14.9843 -12.0178 -12.0486 0.0003 38.5574 -0.0023
# 6 0.0025 -0.0049 -0.0022 1.3719 -0.0023 40.7436
#
#
#
# Elastic Compliance Matrix: (Units=1/GPa)
#
#
# Indices 1 2 3 4 5 6 
#
# 1 0.010097 -0.002492 -0.007319 0.000000 0.000860 -0.000001
# 2 -0.002492 0.012301 -0.003703 0.000001 0.001708 0.000001
# 3 -0.007319 -0.003703 0.029616 0.000001 0.005256 0.000002
# 4 0.000000 0.000001 0.000001 0.020180 0.000000 -0.000679
# 5 0.000860 0.001708 0.005256 0.000000 0.028444 0.000002
# 6 -0.000001 0.000001 0.000002 -0.000679 0.000002 0.024567
#
#
# Mechanical properties :
#
#
# Convention : Reuss Voigt Hill
#
# Bulk Modulus (GPa) = 40.02476 57.55381 48.78929
# Shear Modulus (GPa) = 31.14039 37.71960 34.43000
#
# Velocity S-wave (km/s) = 3.61361 3.97706 3.79968
# Velocity P-wave (km/s) = 5.84761 6.72484 6.30151
#
# Compressibility (1/GPa) = 0.02498453
#
# Stress axis : x y z
#
# Youngs Moduli (GPa) = 99.04155 81.29106 33.76561
#
# Poissons Ratio (x) = 0.20261 0.24715
# Poissons Ratio (y) = 0.24685 0.12503
# Poissons Ratio (z) = 0.72493 0.30102
#
# Static dielectric constant tensor:
#      x y z
#    x 1.871980 0.000000 -0.028670 
#    y 0.000000 1.956900 0.000000 
#    z -0.028670 0.000000 1.917980 
# 
# From -- ./inp_files/223534.got.cif
#   From: 2010.05.17/outbox.cif.g08.bks.cpg/sg15_112_cif.got.tgz:223534.got - 2010.06.03 18:47:42.
