data_PCOD9303064
_publ_section_title
;
Structure prediction by ZEFSAII (Michael W. Deem and Ramdas Pophale) SiO2 
 PCOD9303064
Probable space group: C 2/C
;
_chemical_formula_sum "Si O2"
_cell_formula_units_Z 56
_cell_length_a 19.187620
_cell_length_b 13.582508
_cell_length_c 11.737604
_cell_angle_alpha 90.000000
_cell_angle_beta 121.716376
_cell_angle_gamma 90.000000
_cell_volume 2602.177973
_symmetry_space_group_name_H-M "C 2/C"
_symmetry_group_IT_number 15
_symmetry_cell_setting 'monoclinic'
loop_
_space_group_symop_operation_xyz
x,y,z
-x,y,1/2-z
-x,-y,-z
x,-y,1/2+z
1/2+x,1/2+y,z
1/2-x,1/2+y,1/2-z
1/2-x,1/2-y,-z
1/2+x,1/2-y,1/2+z
loop_
_atom_site_type_symbol
_atom_site_label
_atom_site_fract_x
_atom_site_fract_y
_atom_site_fract_z
Si Si1 0.271138 0.347509 0.658721
Si Si2 0.883959 0.665692 0.968887
Si Si3 0.406720 0.346166 0.159829
Si Si4 0.801210 0.172391 0.789377
Si Si5 0.207037 0.965695 0.599077
Si Si6 0.421427 0.209599 0.748581
Si Si7 0.348794 0.984940 0.080049
O O1 0.202092 0.270167 0.638662
O O2 0.306298 0.398440 0.802009
O O3 0.343751 0.282528 0.667762
O O4 0.226953 0.430983 0.548482
O O5 0.787837 0.668063 0.849567
O O6 0.931426 0.690571 0.892893
O O7 0.900938 0.748181 0.077706
O O8 0.895546 0.558766 0.036175
O O9 0.500000 0.377869 0.250000
O O10 0.369049 0.326858 0.251077
O O11 0.352275 0.427581 0.049811
O O12 0.806910 0.077075 0.873613
O O13 0.301126 0.955105 0.637810
O O14 0.500000 0.249303 0.750000
O O15 0.400469 0.103084 0.677481
#
# Coordination Sequence:
#
# PCOD9303064 Si02
#       7
#     8   8   8   8   8   8   8
#     4  11  22  42  69 100 131 180 234 281 344 411
#     4  11  22  44  71  97 133 185 238 277 339 415
#     4  12  26  43  67 103 143 182 224 287 355 408
#     4  11  22  41  70  97 128 187 234 287 330 409
#     4  12  21  42  72  99 134 174 241 279 335 416
#     4  11  25  42  64 100 144 178 220 291 353 406
#     4  12  22  41  75 102 129 180 239 285 336 417
#
# _framework density 21.520434000000002
#
# number of rings (size 3 to 8) (size 9 to 14) (size 15 to 20)
#    0.000    0.571    8.571    1.714    0.000    2.857 
#    0.000    2.857    0.000    0.000    0.000    0.000 
#    0.000    0.000    0.000    0.000    0.000    0.000 
#
# Total GULP energy -156673.488037 kJ/mol
# GULP energy per Si atom -5595.481716 kJ/mol
# Density = 2.147145 g / cm^3
# Si number density = 21.520434 Si / 1000 Ang^3
#
#
#
# Elastic Constant Matrix: (Units=GPa)
#
#
# Indices 1 2 3 4 5 6 
#
# 1 111.1858 -10.3931 19.1032 0.0000 -20.4266 0.0000
# 2 -10.3931 70.5252 15.6547 0.0000 -5.6391 0.0000
# 3 19.1032 15.6547 37.3794 0.0000 -13.4165 0.0000
# 4 0.0000 0.0000 0.0000 46.2917 0.0000 -16.0491
# 5 -20.4266 -5.6391 -13.4165 0.0000 28.4338 0.0000
# 6 0.0000 0.0000 0.0000 -16.0491 0.0000 9.6193
#
#
#
# Elastic Compliance Matrix: (Units=1/GPa)
#
#
# Indices 1 2 3 4 5 6 
#
# 1 0.011321 0.003257 -0.004814 0.000000 0.006507 0.000000
# 2 0.003257 0.016570 -0.007927 0.000000 0.001886 0.000000
# 3 -0.004814 -0.007927 0.036993 0.000000 0.012424 0.000000
# 4 0.000000 0.000000 0.000000 0.051243 0.000000 0.085495
# 5 0.006507 0.001886 0.012424 0.000000 0.046081 0.000000
# 6 0.000000 0.000000 0.000000 0.085495 0.000000 0.246599
#
#
# Mechanical properties :
#
#
# Convention : Reuss Voigt Hill
#
# Bulk Modulus (GPa) = 21.77954 29.75780 25.76867
# Shear Modulus (GPa) = 11.28464 29.85065 20.56765
#
# Velocity S-wave (km/s) = 2.29239 3.72840 3.09484
# Velocity P-wave (km/s) = 4.14115 5.69143 4.97702
#
# Compressibility (1/GPa) = 0.04591465
#
# Stress axis : x y z
#
# Youngs Moduli (GPa) = 88.33065 60.35073 27.03242
#
# Poissons Ratio (x) = -0.19658 0.13014
# Poissons Ratio (y) = -0.28772 0.21430
# Poissons Ratio (z) = 0.42525 0.47843
#
# Static dielectric constant tensor:
#      x y z
#    x 1.771010 0.000000 -0.023740 
#    y 0.000000 1.802190 0.000000 
#    z -0.023740 0.000000 1.792680 
# 
# From -- ./inp_files/105781.got.cif
#   From: 2010.05.17/outbox.cif.g08.bks.cpg/sg15_53_cif.got.tgz:105781.got - 2010.06.03 18:47:42.
