data_PCOD9303152
_publ_section_title
;
Structure prediction by ZEFSAII (Michael W. Deem and Ramdas Pophale) SiO2 
 PCOD9303152
Probable space group: C 2/C
;
_chemical_formula_sum "Si O2"
_cell_formula_units_Z 36
_cell_length_a 11.640820
_cell_length_b 8.714467
_cell_length_c 17.467698
_cell_angle_alpha 90.000000
_cell_angle_beta 68.652588
_cell_angle_gamma 90.000000
_cell_volume 1650.409817
_symmetry_space_group_name_H-M "C 2/C"
_symmetry_group_IT_number 15
_symmetry_cell_setting 'monoclinic'
loop_
_space_group_symop_operation_xyz
x,y,z
-x,y,1/2-z
-x,-y,-z
x,-y,1/2+z
1/2+x,1/2+y,z
1/2-x,1/2+y,1/2-z
1/2-x,1/2-y,-z
1/2+x,1/2-y,1/2+z
loop_
_atom_site_type_symbol
_atom_site_label
_atom_site_fract_x
_atom_site_fract_y
_atom_site_fract_z
Si Si1 0.000000 0.424340 0.750000
Si Si2 0.284665 0.716655 0.737198
Si Si3 0.402399 0.559452 0.461755
Si Si4 0.170091 0.368734 0.103549
Si Si5 0.579004 0.418466 0.797691
O O1 0.100481 0.321989 0.769410
O O2 0.072002 0.525856 0.670103
O O3 0.249343 0.707422 0.654953
O O4 0.322410 0.545466 0.751161
O O5 0.165463 0.785301 0.809826
O O6 0.500000 0.500000 0.500000
O O7 0.267141 0.533136 0.529056
O O8 0.389623 0.737926 0.436343
O O9 0.473165 0.493899 0.370584
O O10 0.500000 0.345170 0.750000
#
# Coordination Sequence:
#
# PCOD9303152 Si02
#       5
#     4   8   8   8   8
#     4  12  24  42  68 104 132 168 226 276 326 404
#     4  12  23  40  68  98 128 176 221 270 332 388
#     4  11  22  42  68  94 135 180 218 268 336 392
#     4  11  24  41  65  97 135 175 218 275 334 388
#     4  12  24  42  68  96 132 176 225 276 327 398
#
# _framework density 21.812764000000001
#
# number of rings (size 3 to 8) (size 9 to 14) (size 15 to 20)
#    0.000    0.444    7.778    1.333    0.000    0.000 
#    0.000    7.778    0.000    0.000    0.000    0.000 
#    0.000    0.000    0.000    0.000    0.000    0.000 
#
# Total GULP energy -100201.490490 kJ/mol
# GULP energy per Si atom -5566.749472 kJ/mol
# Density = 2.176312 g / cm^3
# Si number density = 21.812764 Si / 1000 Ang^3
#
#
#
# Elastic Constant Matrix: (Units=GPa)
#
#
# Indices 1 2 3 4 5 6 
#
# 1 143.3565 49.4191 25.3928 0.0000 -10.7528 0.0000
# 2 49.4191 67.2121 -5.4533 0.0000 -12.6208 0.0000
# 3 25.3928 -5.4533 56.7717 0.0000 -28.2982 0.0000
# 4 0.0000 0.0000 0.0000 10.3492 0.0000 1.5925
# 5 -10.7528 -12.6208 -28.2982 0.0000 46.8883 0.0000
# 6 0.0000 0.0000 0.0000 1.5925 0.0000 58.9785
#
#
#
# Elastic Compliance Matrix: (Units=1/GPa)
#
#
# Indices 1 2 3 4 5 6 
#
# 1 0.011746 -0.010412 -0.009022 0.000000 -0.005554 0.000000
# 2 -0.010412 0.026032 0.013530 0.000000 0.012785 0.000000
# 3 -0.009022 0.013530 0.033945 0.000000 0.022060 0.000000
# 4 0.000000 0.000000 0.000000 0.097029 0.000000 -0.002620
# 5 -0.005554 0.012785 0.022060 0.000000 0.036808 0.000000
# 6 0.000000 0.000000 0.000000 -0.002620 0.000000 0.017026
#
#
# Mechanical properties :
#
#
# Convention : Reuss Voigt Hill
#
# Bulk Modulus (GPa) = 16.68987 45.11749 30.90368
# Shear Modulus (GPa) = 19.65659 36.44197 28.04928
#
# Velocity S-wave (km/s) = 3.00517 4.09182 3.58985
# Velocity P-wave (km/s) = 4.43953 6.56147 5.60189
#
# Compressibility (1/GPa) = 0.05991657
#
# Stress axis : x y z
#
# Youngs Moduli (GPa) = 85.13249 38.41386 29.45904
#
# Poissons Ratio (x) = 0.39995 0.26579
# Poissons Ratio (y) = 0.88638 -0.39859
# Poissons Ratio (z) = 0.76810 -0.51975
#
# Static dielectric constant tensor:
#      x y z
#    x 1.802010 0.000000 -0.023880 
#    y 0.000000 1.800990 0.000000 
#    z -0.023880 0.000000 1.993120 
# 
# From -- ./inp_files/194874.got.cif
#   From: 2010.05.17/outbox.cif.g08.bks.cpg/sg15_98_cif.got.tgz:194874.got - 2010.06.03 18:47:42.
