data_PCOD9303933
_publ_section_title
;
Structure prediction by ZEFSAII (Michael W. Deem and Ramdas Pophale) SiO2 
 PCOD9303933
Probable space group: C 2/C
;
_chemical_formula_sum "Si O2"
_cell_formula_units_Z 56
_cell_length_a 9.000569
_cell_length_b 12.023467
_cell_length_c 28.971345
_cell_angle_alpha 90.000000
_cell_angle_beta 56.522515
_cell_angle_gamma 90.000000
_cell_volume 2615.097219
_symmetry_space_group_name_H-M "C 2/C"
_symmetry_group_IT_number 15
_symmetry_cell_setting 'monoclinic'
loop_
_space_group_symop_operation_xyz
x,y,z
-x,y,1/2-z
-x,-y,-z
x,-y,1/2+z
1/2+x,1/2+y,z
1/2-x,1/2+y,1/2-z
1/2-x,1/2-y,-z
1/2+x,1/2-y,1/2+z
loop_
_atom_site_type_symbol
_atom_site_label
_atom_site_fract_x
_atom_site_fract_y
_atom_site_fract_z
Si Si1 0.176601 0.055740 0.344112
Si Si2 0.609450 0.505126 0.182130
Si Si3 0.890540 0.695098 0.113348
Si Si4 0.659352 0.323131 0.474064
Si Si5 0.803623 0.787877 0.295034
Si Si6 0.226963 0.923773 0.943548
Si Si7 0.190449 0.651940 0.716056
O O1 0.191355 0.182817 0.326866
O O2 0.181864 0.053671 0.397731
O O3 0.012553 0.014787 0.341845
O O4 0.328671 0.969728 0.302339
O O5 0.500000 0.517885 0.250000
O O6 0.765120 0.593059 0.149724
O O7 0.687533 0.381231 0.168258
O O8 0.827389 0.751779 0.075879
O O9 0.840364 0.785213 0.161082
O O10 0.092845 0.648075 0.079561
O O11 0.750000 0.250000 0.500000
O O12 0.447269 0.353563 0.511415
O O13 0.741967 0.449403 0.460810
O O14 0.742542 0.851392 0.260026
O O15 0.000000 0.744328 0.250000
O O16 0.000000 0.712323 0.750000
#
# Coordination Sequence:
#
# PCOD9303933 Si02
#       7
#     8   8   8   8   8   8   8
#     4  12  23  43  67  99 140 191 234 295 346 421
#     4  11  24  42  63 101 143 187 238 286 344 431
#     4  12  25  46  72 102 141 187 236 298 365 424
#     4  11  26  52  74 107 139 181 237 311 368 433
#     4  11  23  41  64  97 141 187 237 281 338 415
#     4  11  27  46  77 106 138 183 246 294 367 431
#     4  12  25  40  67 101 145 191 238 284 345 420
#
# _framework density 21.414117999999998
#
# number of rings (size 3 to 8) (size 9 to 14) (size 15 to 20)
#    0.000    0.571    4.286    4.714    2.000    2.857 
#    0.000    0.000    0.000    0.000    0.000    0.000 
#    0.000    0.000    0.000    0.000    0.000    0.000 
#
# Total GULP energy -156202.885924 kJ/mol
# GULP energy per Si atom -5578.674497 kJ/mol
# Density = 2.136538 g / cm^3
# Si number density = 21.414118 Si / 1000 Ang^3
#
#
#
# Elastic Constant Matrix: (Units=GPa)
#
#
# Indices 1 2 3 4 5 6 
#
# 1 90.3011 39.3760 32.5209 0.0000 4.8701 0.0000
# 2 39.3760 168.1774 53.0310 0.0000 3.3100 0.0000
# 3 32.5209 53.0310 58.6301 0.0000 -3.0336 0.0000
# 4 0.0000 0.0000 0.0000 -52.0127 0.0000 7.7387
# 5 4.8701 3.3100 -3.0336 0.0000 37.7857 0.0000
# 6 0.0000 0.0000 0.0000 7.7387 0.0000 22.2792
#
#
#
# Elastic Compliance Matrix: (Units=1/GPa)
#
#
# Indices 1 2 3 4 5 6 
#
# 1 0.014193 -0.001060 -0.007033 0.000000 -0.002301 0.000000
# 2 -0.001060 0.008466 -0.007130 0.000000 -0.001177 0.000000
# 3 -0.007033 -0.007130 0.027600 0.000000 0.003747 0.000000
# 4 0.000000 0.000000 0.000000 -0.018281 0.000000 0.006350
# 5 -0.002301 -0.001177 0.003747 0.000000 0.027166 0.000000
# 6 0.000000 0.000000 0.000000 0.006350 0.000000 0.042679
#
#
# Mechanical properties :
#
#
# Convention : Reuss Voigt Hill
#
# Bulk Modulus (GPa) = 50.47234 62.99605 56.73419
# Shear Modulus (GPa) = 36.00399 14.42249 25.21324
#
# Velocity S-wave (km/s) = 4.10484 2.59801 3.43507
# Velocity P-wave (km/s) = 6.78875 6.20334 6.50263
#
# Compressibility (1/GPa) = 0.01981283
#
# Stress axis : x y z
#
# Youngs Moduli (GPa) = 70.45608 118.12149 36.23166
#
# Poissons Ratio (x) = 0.12523 0.25481
# Poissons Ratio (y) = 0.07470 0.25834
# Poissons Ratio (z) = 0.49550 0.84223
#
# Static dielectric constant tensor:
#      x y z
#    x 1.867220 0.000000 -0.035660 
#    y 0.000000 1.854400 0.000000 
#    z -0.035660 0.000000 1.775230 
# 
# From -- ./inp_files/307418.got.cif
#   From: 2010.05.17/outbox.cif.g08.bks.cpg/sg15_154_cif.got.tgz:307418.got - 2010.06.03 18:47:42.
