data_PCOD9303280
_publ_section_title
;
Structure prediction by ZEFSAII (Michael W. Deem and Ramdas Pophale) SiO2 
 PCOD9303280
Probable space group: C 2/C
;
_chemical_formula_sum "Si O2"
_cell_formula_units_Z 44
_cell_length_a 15.582746
_cell_length_b 11.957101
_cell_length_c 10.290037
_cell_angle_alpha 90.000000
_cell_angle_beta 92.294737
_cell_angle_gamma 90.000000
_cell_volume 1915.748153
_symmetry_space_group_name_H-M "C 2/C"
_symmetry_group_IT_number 15
_symmetry_cell_setting 'monoclinic'
loop_
_space_group_symop_operation_xyz
x,y,z
-x,y,1/2-z
-x,-y,-z
x,-y,1/2+z
1/2+x,1/2+y,z
1/2-x,1/2+y,1/2-z
1/2-x,1/2-y,-z
1/2+x,1/2-y,1/2+z
loop_
_atom_site_type_symbol
_atom_site_label
_atom_site_fract_x
_atom_site_fract_y
_atom_site_fract_z
Si Si1 0.758680 0.874249 0.773468
Si Si2 0.942568 0.192097 0.408491
Si Si3 0.959489 0.557720 0.875856
Si Si4 0.000000 0.003937 0.750000
Si Si5 0.133254 0.820024 0.324909
Si Si6 0.731910 0.021292 0.541449
O O1 0.849758 0.824541 0.830484
O O2 0.678819 0.787233 0.766409
O O3 0.768992 0.917432 0.626247
O O4 0.734408 0.968043 0.884299
O O5 0.980557 0.311184 0.374705
O O6 0.931753 0.204792 0.562087
O O7 0.997445 0.083842 0.369685
O O8 0.859482 0.541763 0.897495
O O9 0.000000 0.505247 0.750000
O O10 0.000000 0.500000 0.000000
O O11 0.917133 0.084591 0.757786
O O12 0.210610 0.876952 0.406977
#
# Coordination Sequence:
#
# PCOD9303280 Si02
#       6
#     8   8   8   4   8   8
#     4  11  22  44  74  98 136 187 232 287 352 420
#     4  11  22  43  67  98 136 186 225 288 349 414
#     4  12  25  42  71 101 141 182 232 291 348 418
#     4  12  24  42  70 102 140 182 242 288 344 416
#     4  11  23  42  70  98 137 186 234 282 359 410
#     4  11  22  44  69  98 135 183 230 285 352 414
#
# _framework density 22.967527
#
# number of rings (size 3 to 8) (size 9 to 14) (size 15 to 20)
#    0.000    0.727    6.364    2.727    0.000    1.455 
#    0.000    0.909    0.000    0.000    0.000    0.000 
#    0.000    0.000    0.000    0.000    0.000    0.000 
#
# Total GULP energy -122707.338868 kJ/mol
# GULP energy per Si atom -5577.606312 kJ/mol
# Density = 2.291525 g / cm^3
# Si number density = 22.967527 Si / 1000 Ang^3
#
#
#
# Elastic Constant Matrix: (Units=GPa)
#
#
# Indices 1 2 3 4 5 6 
#
# 1 61.5662 16.6976 22.5463 0.0000 -5.4417 0.0000
# 2 16.6976 92.7549 48.7592 0.0000 5.8806 0.0000
# 3 22.5463 48.7592 80.1890 0.0000 -7.6255 0.0000
# 4 0.0000 0.0000 0.0000 21.2243 0.0000 2.1772
# 5 -5.4417 5.8806 -7.6255 0.0000 27.4937 0.0000
# 6 0.0000 0.0000 0.0000 2.1772 0.0000 30.8098
#
#
#
# Elastic Compliance Matrix: (Units=1/GPa)
#
#
# Indices 1 2 3 4 5 6 
#
# 1 0.018345 -0.001333 -0.004083 0.000000 0.002784 0.000000
# 2 -0.001333 0.017053 -0.010647 0.000000 -0.006864 0.000000
# 3 -0.004083 -0.010647 0.020781 0.000000 0.007233 0.000000
# 4 0.000000 0.000000 0.000000 0.047460 0.000000 -0.003354
# 5 0.002784 -0.006864 0.007233 0.000000 0.040397 0.000000
# 6 0.000000 0.000000 0.000000 -0.003354 0.000000 0.032694
#
#
# Mechanical properties :
#
#
# Convention : Reuss Voigt Hill
#
# Bulk Modulus (GPa) = 41.57475 45.61294 43.59384
# Shear Modulus (GPa) = 23.05484 25.67270 24.36377
#
# Velocity S-wave (km/s) = 3.17172 3.34695 3.26051
# Velocity P-wave (km/s) = 5.61729 5.90246 5.76164
#
# Compressibility (1/GPa) = 0.02405306
#
# Stress axis : x y z
#
# Youngs Moduli (GPa) = 54.50959 58.63972 48.12196
#
# Poissons Ratio (x) = 0.07814 0.19649
# Poissons Ratio (y) = 0.07264 0.51237
# Poissons Ratio (z) = 0.22257 0.62436
#
# Static dielectric constant tensor:
#      x y z
#    x 1.682200 0.000000 0.103430 
#    y 0.000000 1.903410 0.000000 
#    z 0.103430 0.000000 1.857480 
# 
# From -- ./inp_files/95095.got.cif
#   From: 2010.05.17/outbox.cif.g08.bks.cpg/sg15_48_cif.got.tgz:95095.got - 2010.06.03 18:47:42.
