data_PCOD9303423
_publ_section_title
;
Structure prediction by ZEFSAII (Michael W. Deem and Ramdas Pophale) SiO2 
 PCOD9303423
Probable space group: C 2/C
;
_chemical_formula_sum "Si O2"
_cell_formula_units_Z 56
_cell_length_a 17.315901
_cell_length_b 21.113316
_cell_length_c 14.359015
_cell_angle_alpha 90.000000
_cell_angle_beta 155.333455
_cell_angle_gamma 90.000000
_cell_volume 2190.849710
_symmetry_space_group_name_H-M "C 2/C"
_symmetry_group_IT_number 15
_symmetry_cell_setting 'monoclinic'
loop_
_space_group_symop_operation_xyz
x,y,z
-x,y,1/2-z
-x,-y,-z
x,-y,1/2+z
1/2+x,1/2+y,z
1/2-x,1/2+y,1/2-z
1/2-x,1/2-y,-z
1/2+x,1/2-y,1/2+z
loop_
_atom_site_type_symbol
_atom_site_label
_atom_site_fract_x
_atom_site_fract_y
_atom_site_fract_z
Si Si1 0.925944 0.510970 0.523929
Si Si2 0.922069 0.919791 0.330365
Si Si3 0.695933 0.188610 0.504549
Si Si4 0.443367 0.635644 0.062115
Si Si5 0.325421 0.498593 0.496364
Si Si6 0.295086 0.844273 0.882031
Si Si7 0.642315 0.221827 0.663173
O O1 0.000000 0.500000 0.500000
O O2 0.751407 0.467902 0.357898
O O3 0.864113 0.583651 0.461612
O O4 0.111734 0.493856 0.785367
O O5 0.941935 0.895339 0.457040
O O6 0.859317 0.863287 0.192023
O O7 0.114964 0.956059 0.523509
O O8 0.500000 0.164105 0.250000
O O9 0.750000 0.250000 0.500000
O O10 0.655356 0.202579 0.569401
O O11 0.354546 0.576264 0.016890
O O12 0.655031 0.654033 0.318944
O O13 0.313278 0.695986 0.911663
O O14 0.500000 0.518322 0.750000
O O15 0.151763 0.797524 0.668909
O O16 0.475036 0.810370 0.035004
#
# Coordination Sequence:
#
# PCOD9303423 Si02
#       7
#     8   8   8   8   8   8   8
#     4  12  23  43  74 103 137 190 251 304 362 438
#     4  11  25  45  68  98 140 195 250 298 350 445
#     4  11  26  45  62  96 152 192 237 287 363 428
#     4  11  22  44  69  99 140 184 245 297 360 436
#     4  12  26  43  69 107 143 183 235 307 384 429
#     4  12  22  39  74 100 136 177 242 303 354 427
#     4  11  23  42  69 106 132 190 243 296 355 442
#
# _framework density 25.560859000000001
#
# number of rings (size 3 to 8) (size 9 to 14) (size 15 to 20)
#    0.000    0.571    5.714    3.000    4.000    0.571 
#    0.000    0.000    0.000    3.429    0.000    0.000 
#    0.000    0.000    0.000    0.000    0.000    0.000 
#
# Total GULP energy -155977.931172 kJ/mol
# GULP energy per Si atom -5570.640399 kJ/mol
# Density = 2.550268 g / cm^3
# Si number density = 25.560859 Si / 1000 Ang^3
#
#
#
# Elastic Constant Matrix: (Units=GPa)
#
#
# Indices 1 2 3 4 5 6 
#
# 1 51.1465 27.7457 49.5422 0.0000 20.9552 0.0000
# 2 27.7457 130.1431 52.4297 0.0000 11.9605 0.0000
# 3 49.5422 52.4297 148.6766 0.0000 38.8305 0.0000
# 4 0.0000 0.0000 0.0000 47.4975 0.0000 14.0532
# 5 20.9552 11.9605 38.8305 0.0000 56.7739 0.0000
# 6 0.0000 0.0000 0.0000 14.0532 0.0000 34.6202
#
#
#
# Elastic Compliance Matrix: (Units=1/GPa)
#
#
# Indices 1 2 3 4 5 6 
#
# 1 0.031000 -0.002937 -0.007874 0.000000 -0.005438 0.000000
# 2 -0.002937 0.009240 -0.002501 0.000000 0.000848 0.000000
# 3 -0.007874 -0.002501 0.011365 0.000000 -0.004340 0.000000
# 4 0.000000 0.000000 0.000000 0.023927 0.000000 -0.009713
# 5 -0.005438 0.000848 -0.004340 0.000000 0.022411 0.000000
# 6 0.000000 0.000000 0.000000 -0.009713 0.000000 0.032828
#
#
# Mechanical properties :
#
#
# Convention : Reuss Voigt Hill
#
# Bulk Modulus (GPa) = 40.03095 65.48902 52.75999
# Shear Modulus (GPa) = 30.17112 41.12822 35.64967
#
# Velocity S-wave (km/s) = 3.43937 4.01562 3.73862
# Velocity P-wave (km/s) = 5.60958 6.86853 6.27073
#
# Compressibility (1/GPa) = 0.02498067
#
# Stress axis : x y z
#
# Youngs Moduli (GPa) = 32.25825 108.22885 87.98755
#
# Poissons Ratio (x) = 0.31788 0.69279
# Poissons Ratio (y) = 0.09475 0.22007
# Poissons Ratio (z) = 0.25399 0.27069
#
# Static dielectric constant tensor:
#      x y z
#    x 2.305010 0.000000 -0.057630 
#    y 0.000000 2.031010 0.000000 
#    z -0.057630 0.000000 2.195210 
# 
# From -- ./inp_files/216653.got.cif
#   From: 2010.05.17/outbox.cif.g08.bks.cpg/sg15_109_cif.got.tgz:216653.got - 2010.06.03 18:47:42.
