data_PCOD9303665
_publ_section_title
;
Structure prediction by ZEFSAII (Michael W. Deem and Ramdas Pophale) SiO2 
 PCOD9303665
Probable space group: C 2/C
;
_chemical_formula_sum "Si O2"
_cell_formula_units_Z 64
_cell_length_a 18.658018
_cell_length_b 8.101224
_cell_length_c 28.789327
_cell_angle_alpha 90.000000
_cell_angle_beta 141.768549
_cell_angle_gamma 90.000000
_cell_volume 2692.934636
_symmetry_space_group_name_H-M "C 2/C"
_symmetry_group_IT_number 15
_symmetry_cell_setting 'monoclinic'
loop_
_space_group_symop_operation_xyz
x,y,z
-x,y,1/2-z
-x,-y,-z
x,-y,1/2+z
1/2+x,1/2+y,z
1/2-x,1/2+y,1/2-z
1/2-x,1/2-y,-z
1/2+x,1/2-y,1/2+z
loop_
_atom_site_type_symbol
_atom_site_label
_atom_site_fract_x
_atom_site_fract_y
_atom_site_fract_z
Si Si1 0.443405 0.702149 0.673193
Si Si2 0.266844 0.143159 0.881922
Si Si3 0.988116 0.233369 0.539985
Si Si4 0.278244 0.234222 0.789367
Si Si5 0.809877 0.724441 0.425952
Si Si6 0.981358 0.572696 0.590487
Si Si7 0.924956 0.405455 0.166918
Si Si8 0.429397 0.451823 0.346531
O O1 0.500000 0.643586 0.750000
O O2 0.306666 0.682780 0.609942
O O3 0.496686 0.589457 0.660811
O O4 0.454905 0.899313 0.677127
O O5 0.224074 0.235876 0.813765
O O6 0.262521 0.945853 0.878512
O O7 0.393468 0.215402 0.954491
O O8 0.971592 0.379824 0.570161
O O9 0.105071 0.210589 0.570386
O O10 0.982338 0.065115 0.565892
O O11 0.381457 0.102136 0.846620
O O12 0.350145 0.389087 0.808643
O O13 0.171431 0.188044 0.702747
O O14 0.892523 0.665310 0.510566
O O15 0.705810 0.845210 0.388130
O O16 0.954428 0.641105 0.628578
O O17 0.000000 0.346594 0.250000
#
# Coordination Sequence:
#
# PCOD9303665 Si02
#       8
#     8   8   8   8   8   8   8   8
#     4  11  25  46  67  96 144 181 228 293 368 425
#     4  11  24  45  70  99 139 182 230 291 355 426
#     4  11  23  46  71 101 136 181 240 295 351 427
#     4  12  26  44  72 102 135 184 236 294 358 429
#     4  11  24  44  72 101 136 188 232 291 354 428
#     4  11  22  48  68  99 144 180 233 294 354 424
#     4  11  27  43  69 102 141 184 232 291 357 428
#     4  12  28  42  70 104 138 185 236 300 363 432
#
# _framework density 23.765895
#
# number of rings (size 3 to 8) (size 9 to 14) (size 15 to 20)
#    0.000    0.750    5.000    1.875    5.250    2.500 
#    0.000    0.000    0.000    0.000    0.000    0.000 
#    0.000    0.000    0.000    0.000    0.000    0.000 
#
# Total GULP energy -178533.049166 kJ/mol
# GULP energy per Si atom -5579.157786 kJ/mol
# Density = 2.371180 g / cm^3
# Si number density = 23.765895 Si / 1000 Ang^3
#
#
#
# Elastic Constant Matrix: (Units=GPa)
#
#
# Indices 1 2 3 4 5 6 
#
# 1 148.6554 18.7354 31.5063 -0.0001 -8.4908 0.0001
# 2 18.7354 48.6576 1.8162 -0.0002 -1.5039 0.0003
# 3 31.5063 1.8162 54.1282 0.0000 -11.9898 0.0000
# 4 -0.0001 -0.0002 0.0000 14.6552 0.0000 11.0010
# 5 -8.4908 -1.5039 -11.9898 0.0000 35.6075 0.0000
# 6 0.0001 0.0003 0.0000 11.0010 0.0000 22.8729
#
#
#
# Elastic Compliance Matrix: (Units=1/GPa)
#
#
# Indices 1 2 3 4 5 6 
#
# 1 0.008074 -0.002931 -0.004541 0.000000 0.000272 0.000000
# 2 -0.002931 0.021657 0.001110 0.000001 0.000590 -0.000001
# 3 -0.004541 0.001110 0.022532 0.000000 0.006551 0.000000
# 4 0.000000 0.000001 0.000000 0.106790 0.000000 -0.051362
# 5 0.000272 0.000590 0.006551 0.000000 0.030380 0.000000
# 6 0.000000 -0.000001 0.000000 -0.051362 0.000000 0.068423
#
#
# Mechanical properties :
#
#
# Convention : Reuss Voigt Hill
#
# Bulk Modulus (GPa) = 25.29158 39.50634 32.39896
# Shear Modulus (GPa) = 17.62048 27.91935 22.76991
#
# Velocity S-wave (km/s) = 2.72585 3.43120 3.09866
# Velocity P-wave (km/s) = 4.53565 5.68830 5.14436
#
# Compressibility (1/GPa) = 0.03953885
#
# Stress axis : x y z
#
# Youngs Moduli (GPa) = 123.84815 46.17413 44.38178
#
# Poissons Ratio (x) = 0.13534 0.20154
# Poissons Ratio (y) = 0.36301 -0.04926
# Poissons Ratio (z) = 0.56241 -0.05125
#
# Static dielectric constant tensor:
#      x y z
#    x 1.932150 0.000000 -0.023870 
#    y 0.000000 1.996540 0.000000 
#    z -0.023870 0.000000 1.977150 
# 
# From -- ./inp_files/315757.got.cif
#   From: 2010.05.17/outbox.cif.g08.bks.cpg/sg15_158_cif.got.tgz:315757.got - 2010.06.03 18:47:42.
