data_PCOD9303011
_publ_section_title
;
Structure prediction by ZEFSAII (Michael W. Deem and Ramdas Pophale) SiO2 
 PCOD9303011
Probable space group: C 2/C
;
_chemical_formula_sum "Si O2"
_cell_formula_units_Z 40
_cell_length_a 13.171107
_cell_length_b 14.688707
_cell_length_c 8.992795
_cell_angle_alpha 90.000000
_cell_angle_beta 77.593480
_cell_angle_gamma 90.000000
_cell_volume 1699.176650
_symmetry_space_group_name_H-M "C 2/C"
_symmetry_group_IT_number 15
_symmetry_cell_setting 'monoclinic'
loop_
_space_group_symop_operation_xyz
x,y,z
-x,y,1/2-z
-x,-y,-z
x,-y,1/2+z
1/2+x,1/2+y,z
1/2-x,1/2+y,1/2-z
1/2-x,1/2-y,-z
1/2+x,1/2-y,1/2+z
loop_
_atom_site_type_symbol
_atom_site_label
_atom_site_fract_x
_atom_site_fract_y
_atom_site_fract_z
Si Si1 0.907011 0.936717 0.894420
Si Si2 0.228480 0.886408 0.055172
Si Si3 0.215615 0.361236 0.775537
Si Si4 0.923736 0.536812 0.648011
Si Si5 0.915351 0.197761 0.653903
O O1 0.817439 0.881211 0.837896
O O2 0.000000 0.960482 0.750000
O O3 0.840127 0.024037 0.970896
O O4 0.948209 0.871855 0.014254
O O5 0.166483 0.853705 0.217422
O O6 0.342343 0.901425 0.087502
O O7 0.244990 0.830554 0.899115
O O8 0.147553 0.452820 0.770759
O O9 0.142068 0.288877 0.880431
O O10 0.000000 0.575941 0.750000
O O11 0.000000 0.500000 0.500000
O O12 0.000000 0.225521 0.750000
#
# Coordination Sequence:
#
# PCOD9303011 Si02
#       5
#     8   8   8   8   8
#     4  11  24  45  69  97 130 174 222 269 328 398
#     4  11  24  42  70  95 131 173 225 268 324 395
#     4  11  24  44  65  97 136 168 219 271 327 393
#     4  11  22  41  67  98 129 176 220 269 324 390
#     4  12  26  43  66  98 134 173 214 274 334 388
#
# _framework density 23.540814000000001
#
# number of rings (size 3 to 8) (size 9 to 14) (size 15 to 20)
#    0.000    0.800    2.000    6.000    2.800    2.400 
#    0.000    0.000    0.000    0.000    0.000    0.000 
#    0.000    0.000    0.000    0.000    0.000    0.000 
#
# Total GULP energy -111795.555669 kJ/mol
# GULP energy per Si atom -5589.777783 kJ/mol
# Density = 2.348723 g / cm^3
# Si number density = 23.540814 Si / 1000 Ang^3
#
#
#
# Elastic Constant Matrix: (Units=GPa)
#
#
# Indices 1 2 3 4 5 6 
#
# 1 141.3075 9.5607 16.0274 0.0000 7.7063 0.0000
# 2 9.5607 26.2301 1.5143 0.0000 15.5245 0.0000
# 3 16.0274 1.5143 91.4450 0.0000 -4.4334 0.0000
# 4 0.0000 0.0000 0.0000 27.8286 0.0000 -6.6888
# 5 7.7063 15.5245 -4.4334 0.0000 41.1461 0.0000
# 6 0.0000 0.0000 0.0000 -6.6888 0.0000 24.9110
#
#
#
# Elastic Compliance Matrix: (Units=1/GPa)
#
#
# Indices 1 2 3 4 5 6 
#
# 1 0.007411 -0.002218 -0.001296 0.000000 -0.000691 0.000000
# 2 -0.002218 0.050020 -0.001341 0.000000 -0.018602 0.000000
# 3 -0.001296 -0.001341 0.011280 0.000000 0.001964 0.000000
# 4 0.000000 0.000000 0.000000 0.038413 0.000000 0.010314
# 5 -0.000691 -0.018602 0.001964 0.000000 0.031663 0.000000
# 6 0.000000 0.000000 0.000000 0.010314 0.000000 0.042912
#
#
# Mechanical properties :
#
#
# Convention : Reuss Voigt Hill
#
# Bulk Modulus (GPa) = 16.94877 34.79859 25.87368
# Shear Modulus (GPa) = 23.68805 34.23581 28.96193
#
# Velocity S-wave (km/s) = 3.17559 3.81769 3.51135
# Velocity P-wave (km/s) = 4.54546 5.85212 5.23968
#
# Compressibility (1/GPa) = 0.05900132
#
# Stress axis : x y z
#
# Youngs Moduli (GPa) = 134.92616 19.99220 88.65176
#
# Poissons Ratio (x) = 0.04434 0.11487
# Poissons Ratio (y) = 0.29922 0.11892
# Poissons Ratio (z) = 0.17483 0.02682
#
# Static dielectric constant tensor:
#      x y z
#    x 1.782820 0.000000 0.019500 
#    y 0.000000 1.854640 0.000000 
#    z 0.019500 0.000000 1.899000 
# 
# From -- ./inp_files/29080.got.cif
#   From: 2010.05.17/outbox.cif.g08.bks.cpg/sg15_15_cif.got.tgz:29080.got - 2010.06.03 18:47:42.
