data_PCOD9303263
_publ_section_title
;
Structure prediction by ZEFSAII (Michael W. Deem and Ramdas Pophale) SiO2 
 PCOD9303263
Probable space group: C 2/C
;
_chemical_formula_sum "Si O2"
_cell_formula_units_Z 52
_cell_length_a 15.015964
_cell_length_b 7.737821
_cell_length_c 24.288551
_cell_angle_alpha 90.000000
_cell_angle_beta 121.022604
_cell_angle_gamma 90.000000
_cell_volume 2418.444383
_symmetry_space_group_name_H-M "C 2/C"
_symmetry_group_IT_number 15
_symmetry_cell_setting 'monoclinic'
loop_
_space_group_symop_operation_xyz
x,y,z
-x,y,1/2-z
-x,-y,-z
x,-y,1/2+z
1/2+x,1/2+y,z
1/2-x,1/2+y,1/2-z
1/2-x,1/2-y,-z
1/2+x,1/2-y,1/2+z
loop_
_atom_site_type_symbol
_atom_site_label
_atom_site_fract_x
_atom_site_fract_y
_atom_site_fract_z
Si Si1 0.882841 0.455514 0.947108
Si Si2 0.818230 0.617052 0.229281
Si Si3 0.063573 0.886323 0.866314
Si Si4 0.872500 0.649510 0.834522
Si Si5 0.229936 0.046855 0.994542
Si Si6 0.500000 0.638854 0.750000
Si Si7 0.249337 0.850732 0.115286
O O1 0.850024 0.593292 0.890017
O O2 0.816216 0.466696 0.981467
O O3 0.853588 0.267848 0.913272
O O4 0.000000 0.500000 0.000000
O O5 0.874191 0.520325 0.297281
O O6 0.721196 0.732055 0.216897
O O7 0.899909 0.739837 0.224703
O O8 0.773154 0.473183 0.173787
O O9 0.153123 0.778419 0.862933
O O10 0.978881 0.754449 0.862931
O O11 0.120919 0.991934 0.932696
O O12 0.011814 0.017138 0.806842
O O13 0.250000 0.250000 0.000000
O O14 0.239897 0.967527 0.057903
#
# Coordination Sequence:
#
# PCOD9303263 Si02
#       7
#     8   8   8   8   8   4   8
#     4  11  23  40  64  93 126 164 207 258 314 369
#     4  12  25  42  64  92 126 166 208 258 313 371
#     4  11  23  41  64  92 124 164 210 257 309 370
#     4  12  24  41  62  94 128 163 205 261 316 370
#     4  11  23  41  65  92 125 166 211 256 307 373
#     4  12  24  42  64  92 124 168 214 256 306 376
#     4  11  22  43  65  90 125 169 211 256 309 374
#
# _framework density 21.501424
#
# number of rings (size 3 to 8) (size 9 to 14) (size 15 to 20)
#    0.000    0.615    0.000   11.077    0.000    2.462 
#    0.000    3.077    0.000    0.000    0.000    0.000 
#    0.000    0.000    0.000    0.000    0.000    0.000 
#
# Total GULP energy -145589.311113 kJ/mol
# GULP energy per Si atom -5599.588889 kJ/mol
# Density = 2.145249 g / cm^3
# Si number density = 21.501424 Si / 1000 Ang^3
#
#
#
# Elastic Constant Matrix: (Units=GPa)
#
#
# Indices 1 2 3 4 5 6 
#
# 1 63.0662 18.0799 19.1658 0.0000 12.9758 0.0000
# 2 18.0799 108.5717 34.2141 0.0000 8.2970 0.0000
# 3 19.1658 34.2141 98.8678 0.0000 2.0111 0.0000
# 4 0.0000 0.0000 0.0000 41.0750 0.0000 4.8949
# 5 12.9758 8.2970 2.0111 0.0000 31.0461 0.0000
# 6 0.0000 0.0000 0.0000 4.8949 0.0000 45.8944
#
#
#
# Elastic Compliance Matrix: (Units=1/GPa)
#
#
# Indices 1 2 3 4 5 6 
#
# 1 0.018690 -0.001647 -0.002907 0.000000 -0.007183 0.000000
# 2 -0.001647 0.010686 -0.003339 0.000000 -0.001951 0.000000
# 3 -0.002907 -0.003339 0.011806 0.000000 0.001343 0.000000
# 4 0.000000 0.000000 0.000000 0.024659 0.000000 -0.002630
# 5 -0.007183 -0.001951 0.001343 0.000000 0.035647 0.000000
# 6 0.000000 0.000000 0.000000 -0.002630 0.000000 0.022070
#
#
# Mechanical properties :
#
#
# Convention : Reuss Voigt Hill
#
# Bulk Modulus (GPa) = 39.37669 45.93613 42.65641
# Shear Modulus (GPa) = 33.82729 36.87282 35.35005
#
# Velocity S-wave (km/s) = 3.97073 4.14563 4.05912
# Velocity P-wave (km/s) = 6.27500 6.65775 6.46920
#
# Compressibility (1/GPa) = 0.02539574
#
# Stress axis : x y z
#
# Youngs Moduli (GPa) = 53.50477 93.57909 84.70111
#
# Poissons Ratio (x) = 0.15416 0.24622
# Poissons Ratio (y) = 0.08814 0.28282
# Poissons Ratio (z) = 0.15553 0.31246
#
# Static dielectric constant tensor:
#      x y z
#    x 1.768530 0.000000 -0.005850 
#    y 0.000000 1.782820 0.000000 
#    z -0.005850 0.000000 1.771120 
# 
# From -- ./inp_files/272897.got.cif
#   From: 2010.05.17/outbox.cif.g08.bks.cpg/sg15_137_cif.got.tgz:272897.got - 2010.06.03 18:47:42.
