data_PCOD9303225
_publ_section_title
;
Structure prediction by ZEFSAII (Michael W. Deem and Ramdas Pophale) SiO2 
 PCOD9303225
Probable space group: C 2/C
;
_chemical_formula_sum "Si O2"
_cell_formula_units_Z 64
_cell_length_a 28.311146
_cell_length_b 12.073901
_cell_length_c 8.285561
_cell_angle_alpha 90.000000
_cell_angle_beta 91.906790
_cell_angle_gamma 90.000000
_cell_volume 2830.651701
_symmetry_space_group_name_H-M "C 2/C"
_symmetry_group_IT_number 15
_symmetry_cell_setting 'monoclinic'
loop_
_space_group_symop_operation_xyz
x,y,z
-x,y,1/2-z
-x,-y,-z
x,-y,1/2+z
1/2+x,1/2+y,z
1/2-x,1/2+y,1/2-z
1/2-x,1/2-y,-z
1/2+x,1/2-y,1/2+z
loop_
_atom_site_type_symbol
_atom_site_label
_atom_site_fract_x
_atom_site_fract_y
_atom_site_fract_z
Si Si1 0.676566 0.162863 0.593127
Si Si2 0.404463 0.979518 0.944099
Si Si3 0.116258 0.160388 0.904889
Si Si4 0.243944 0.942189 0.575267
Si Si5 0.776829 0.349722 0.920664
Si Si6 0.550166 0.139348 0.341159
Si Si7 0.136084 0.726990 0.930751
Si Si8 0.362057 0.460260 0.424749
O O1 0.657349 0.257040 0.470383
O O2 0.730977 0.135125 0.557442
O O3 0.664173 0.209713 0.767826
O O4 0.643107 0.054598 0.564739
O O5 0.414719 0.927700 0.772268
O O6 0.402465 0.870392 0.059543
O O7 0.445473 0.066126 0.997367
O O8 0.071924 0.239437 0.867695
O O9 0.132136 0.090841 0.751095
O O10 0.105936 0.066870 0.037334
O O11 0.254447 0.890410 0.751074
O O12 0.274012 0.052816 0.550899
O O13 0.190660 0.988154 0.555302
O O14 0.750000 0.250000 0.000000
O O15 0.830047 0.307653 0.915471
O O16 0.500000 0.143347 0.250000
O O17 0.126447 0.856206 0.956861
#
# Coordination Sequence:
#
# PCOD9303225 Si02
#       8
#     8   8   8   8   8   8   8   8
#     4  11  25  42  69 100 135 182 235 287 346 402
#     4  11  22  42  72 104 139 175 213 281 358 416
#     4  11  26  45  72  99 136 186 230 287 349 409
#     4  12  26  43  61  95 135 181 242 291 333 391
#     4  12  26  42  61  90 131 179 237 289 335 391
#     4  11  24  46  75 109 140 169 220 286 356 431
#     4  12  23  43  68  94 135 186 231 282 347 405
#     4  12  25  46  67  95 140 190 241 286 332 406
#
# _framework density 22.609634
#
# number of rings (size 3 to 8) (size 9 to 14) (size 15 to 20)
#    0.000    0.500    5.000    3.375    3.500    0.500 
#    0.000    1.875    0.000    0.000    0.000    0.000 
#    0.000    0.000    0.000    0.000    0.000    0.000 
#
# Total GULP energy -178867.578232 kJ/mol
# GULP energy per Si atom -5589.611820 kJ/mol
# Density = 2.255817 g / cm^3
# Si number density = 22.609634 Si / 1000 Ang^3
#
#
#
# Elastic Constant Matrix: (Units=GPa)
#
#
# Indices 1 2 3 4 5 6 
#
# 1 44.0295 29.8766 -10.9777 0.0000 16.3285 0.0000
# 2 29.8766 173.9124 41.1768 0.0000 6.2085 0.0000
# 3 -10.9777 41.1768 101.2431 0.0000 -4.3443 0.0000
# 4 0.0000 0.0000 0.0000 52.2989 0.0000 8.5931
# 5 16.3285 6.2085 -4.3443 0.0000 21.4630 0.0000
# 6 0.0000 0.0000 0.0000 8.5931 0.0000 18.5321
#
#
#
# Elastic Compliance Matrix: (Units=1/GPa)
#
#
# Indices 1 2 3 4 5 6 
#
# 1 0.038774 -0.007142 0.005984 0.000000 -0.026221 0.000000
# 2 -0.007142 0.007802 -0.003844 0.000000 0.002398 0.000000
# 3 0.005984 -0.003844 0.012047 0.000000 -0.001002 0.000000
# 4 0.000000 0.000000 0.000000 0.020698 0.000000 -0.009597
# 5 -0.026221 0.002398 -0.001002 0.000000 0.065644 0.000000
# 6 0.000000 0.000000 0.000000 -0.009597 0.000000 0.058411
#
#
# Mechanical properties :
#
#
# Convention : Reuss Voigt Hill
#
# Bulk Modulus (GPa) = 20.56874 48.81516 34.69195
# Shear Modulus (GPa) = 21.77843 35.73277 28.75560
#
# Velocity S-wave (km/s) = 3.10697 3.97977 3.57014
# Velocity P-wave (km/s) = 4.68915 6.53876 5.68962
#
# Compressibility (1/GPa) = 0.04861746
#
# Stress axis : x y z
#
# Youngs Moduli (GPa) = 25.79034 128.18014 83.01089
#
# Poissons Ratio (x) = 0.91543 -0.49671
# Poissons Ratio (y) = 0.18419 0.31913
# Poissons Ratio (z) = -0.15432 0.49278
#
# Static dielectric constant tensor:
#      x y z
#    x 1.896450 0.000000 0.026150 
#    y 0.000000 1.959880 0.000000 
#    z 0.026150 0.000000 1.913680 
# 
# From -- ./inp_files/69365.got.cif
#   From: 2010.05.17/outbox.cif.g08.bks.cpg/sg15_35_cif.got.tgz:69365.got - 2010.06.03 18:47:42.
