data_PCOD9303396
_publ_section_title
;
Structure prediction by ZEFSAII (Michael W. Deem and Ramdas Pophale) SiO2 
 PCOD9303396
Probable space group: C 2/C
;
_chemical_formula_sum "Si O2"
_cell_formula_units_Z 44
_cell_length_a 22.459283
_cell_length_b 6.520133
_cell_length_c 14.171270
_cell_angle_alpha 90.000000
_cell_angle_beta 98.578003
_cell_angle_gamma 90.000000
_cell_volume 2051.991690
_symmetry_space_group_name_H-M "C 2/C"
_symmetry_group_IT_number 15
_symmetry_cell_setting 'monoclinic'
loop_
_space_group_symop_operation_xyz
x,y,z
-x,y,1/2-z
-x,-y,-z
x,-y,1/2+z
1/2+x,1/2+y,z
1/2-x,1/2+y,1/2-z
1/2-x,1/2-y,-z
1/2+x,1/2-y,1/2+z
loop_
_atom_site_type_symbol
_atom_site_label
_atom_site_fract_x
_atom_site_fract_y
_atom_site_fract_z
Si Si1 0.879589 0.742861 0.058460
Si Si2 0.493798 0.095244 0.395075
Si Si3 0.104148 0.936838 0.095956
Si Si4 0.000000 0.735345 0.750000
Si Si5 0.126699 0.089625 0.303963
Si Si6 0.683288 0.165141 0.972632
O O1 0.831395 0.573726 0.016950
O O2 0.937971 0.640729 0.119640
O O3 0.852958 0.899698 0.127123
O O4 0.906054 0.873400 0.977136
O O5 0.453239 0.298971 0.387579
O O6 0.500000 0.000000 0.500000
O O7 0.471565 0.914310 0.321880
O O8 0.134052 0.029505 0.197037
O O9 0.143954 0.783790 0.041930
O O10 0.944878 0.868802 0.697952
O O11 0.160457 0.278339 0.361466
O O12 0.750000 0.250000 0.000000
#
# Coordination Sequence:
#
# PCOD9303396 Si02
#       6
#     8   8   8   4   8   8
#     4  11  22  44  67  93 145 175 220 291 345 417
#     4  12  20  37  66  98 138 180 218 278 355 423
#     4  11  24  40  68 103 130 183 235 282 355 431
#     4  12  22  38  66 102 148 176 224 294 354 432
#     4  11  24  42  65 103 133 178 228 279 356 424
#     4  11  26  49  67  95 135 184 236 294 351 408
#
# _framework density 21.442581000000001
#
# number of rings (size 3 to 8) (size 9 to 14) (size 15 to 20)
#    0.000    0.727    3.636    4.909    0.000    2.909 
#    6.545    0.000    0.000    0.000    0.000    0.000 
#    0.000    0.000    0.000    0.000    0.000    0.000 
#
# Total GULP energy -122916.953048 kJ/mol
# GULP energy per Si atom -5587.134229 kJ/mol
# Density = 2.139378 g / cm^3
# Si number density = 21.442581 Si / 1000 Ang^3
#
#
#
# Elastic Constant Matrix: (Units=GPa)
#
#
# Indices 1 2 3 4 5 6 
#
# 1 71.8309 27.8857 -3.2433 0.0000 18.5452 0.0000
# 2 27.8857 112.1223 29.8895 0.0000 3.0772 0.0000
# 3 -3.2433 29.8895 124.4009 0.0000 -1.7638 0.0000
# 4 0.0000 0.0000 0.0000 33.6182 0.0000 -1.0765
# 5 18.5452 3.0772 -1.7638 0.0000 23.0460 0.0000
# 6 0.0000 0.0000 0.0000 -1.0765 0.0000 24.7603
#
#
#
# Elastic Compliance Matrix: (Units=1/GPa)
#
#
# Indices 1 2 3 4 5 6 
#
# 1 0.019810 -0.004905 0.001480 0.000000 -0.015173 0.000000
# 2 -0.004905 0.010792 -0.002688 0.000000 0.002300 0.000000
# 3 0.001480 -0.002688 0.008721 0.000000 -0.000164 0.000000
# 4 0.000000 0.000000 0.000000 0.029787 0.000000 0.001295
# 5 -0.015173 0.002300 -0.000164 0.000000 0.055281 0.000000
# 6 0.000000 0.000000 0.000000 0.001295 0.000000 0.040444
#
#
# Mechanical properties :
#
#
# Convention : Reuss Voigt Hill
#
# Bulk Modulus (GPa) = 36.90580 46.37976 41.64278
# Shear Modulus (GPa) = 26.86817 33.20639 30.03728
#
# Velocity S-wave (km/s) = 3.54365 3.93952 3.74682
# Velocity P-wave (km/s) = 5.83028 6.50921 6.17907
#
# Compressibility (1/GPa) = 0.02709602
#
# Stress axis : x y z
#
# Youngs Moduli (GPa) = 50.47987 92.65920 114.66997
#
# Poissons Ratio (x) = 0.45449 -0.16969
# Poissons Ratio (y) = 0.24760 0.30827
# Poissons Ratio (z) = -0.07470 0.24909
#
# Static dielectric constant tensor:
#      x y z
#    x 1.781640 0.000000 -0.004740 
#    y 0.000000 1.854840 0.000000 
#    z -0.004740 0.000000 1.786120 
# 
# From -- ./inp_files/170857.got.cif
#   From: 2010.05.17/outbox.cif.g08.bks.cpg/sg15_86_cif.got.tgz:170857.got - 2010.06.03 18:47:42.
