data_PCOD9303370
_publ_section_title
;
Structure prediction by ZEFSAII (Michael W. Deem and Ramdas Pophale) SiO2 
 PCOD9303370
Probable space group: C 2/C
;
_chemical_formula_sum "Si O2"
_cell_formula_units_Z 44
_cell_length_a 25.083194
_cell_length_b 9.331172
_cell_length_c 13.304757
_cell_angle_alpha 90.000000
_cell_angle_beta 141.899887
_cell_angle_gamma 90.000000
_cell_volume 1921.487158
_symmetry_space_group_name_H-M "C 2/C"
_symmetry_group_IT_number 15
_symmetry_cell_setting 'monoclinic'
loop_
_space_group_symop_operation_xyz
x,y,z
-x,y,1/2-z
-x,-y,-z
x,-y,1/2+z
1/2+x,1/2+y,z
1/2-x,1/2+y,1/2-z
1/2-x,1/2-y,-z
1/2+x,1/2-y,1/2+z
loop_
_atom_site_type_symbol
_atom_site_label
_atom_site_fract_x
_atom_site_fract_y
_atom_site_fract_z
Si Si1 0.500000 0.712989 0.250000
Si Si2 0.391408 0.443510 0.420546
Si Si3 0.590773 0.160873 0.153656
Si Si4 0.852436 0.585933 0.622897
Si Si5 0.202066 0.518144 0.659563
Si Si6 0.106258 0.732311 0.626058
O O1 0.539230 0.616910 0.397407
O O2 0.573054 0.818593 0.316615
O O3 0.384137 0.327151 0.320356
O O4 0.299100 0.456024 0.339211
O O5 0.410506 0.600713 0.407933
O O6 0.643474 0.086767 0.140466
O O7 0.616599 0.068037 0.288335
O O8 0.486771 0.159159 0.992201
O O9 0.789374 0.547755 0.438589
O O10 0.831595 0.678623 0.691380
O O11 0.149738 0.667138 0.590586
#
# Coordination Sequence:
#
# PCOD9303370 Si02
#       6
#     4   8   8   8   8   8
#     4  12  24  44  76  98 142 196 228 284 364 422
#     4  12  26  44  68 107 146 174 235 309 348 398
#     4  11  23  44  71 101 140 184 240 284 341 433
#     4  11  22  43  75  94 133 195 233 271 354 426
#     4  11  24  46  69 101 139 186 238 287 344 424
#     4  11  24  43  70 103 140 183 234 297 344 419
#
# _framework density 22.898931000000001
#
# number of rings (size 3 to 8) (size 9 to 14) (size 15 to 20)
#    0.000    0.727    3.636    4.909    0.000    2.909 
#    3.273    0.000    0.000    0.000    0.000    0.000 
#    0.000    0.000    0.000    0.000    0.000    0.000 
#
# Total GULP energy -122923.078952 kJ/mol
# GULP energy per Si atom -5587.412680 kJ/mol
# Density = 2.284681 g / cm^3
# Si number density = 22.898931 Si / 1000 Ang^3
#
#
#
# Elastic Constant Matrix: (Units=GPa)
#
#
# Indices 1 2 3 4 5 6 
#
# 1 68.8416 26.6245 25.0415 0.0000 3.2418 0.0000
# 2 26.6245 177.7180 23.8191 0.0000 -6.1373 0.0000
# 3 25.0415 23.8191 67.6718 0.0000 -1.1513 0.0000
# 4 0.0000 0.0000 0.0000 20.1309 0.0000 6.0708
# 5 3.2418 -6.1373 -1.1513 0.0000 35.9619 0.0000
# 6 0.0000 0.0000 0.0000 6.0708 0.0000 27.7353
#
#
#
# Elastic Compliance Matrix: (Units=1/GPa)
#
#
# Indices 1 2 3 4 5 6 
#
# 1 0.017485 -0.001910 -0.005834 0.000000 -0.002089 0.000000
# 2 -0.001910 0.006146 -0.001437 0.000000 0.001175 0.000000
# 3 -0.005834 -0.001437 0.017456 0.000000 0.000840 0.000000
# 4 0.000000 0.000000 0.000000 0.053186 0.000000 -0.011642
# 5 -0.002089 0.001175 0.000840 0.000000 0.028223 0.000000
# 6 0.000000 0.000000 0.000000 -0.011642 0.000000 0.038603
#
#
# Mechanical properties :
#
#
# Convention : Reuss Voigt Hill
#
# Bulk Modulus (GPa) = 44.00034 51.68906 47.84470
# Shear Modulus (GPa) = 26.73303 32.68204 29.70754
#
# Velocity S-wave (km/s) = 3.42048 3.78197 3.60576
# Velocity P-wave (km/s) = 5.90393 6.45699 6.18664
#
# Compressibility (1/GPa) = 0.02272710
#
# Stress axis : x y z
#
# Youngs Moduli (GPa) = 57.19165 162.70412 57.28746
#
# Poissons Ratio (x) = 0.31073 0.33419
# Poissons Ratio (y) = 0.10922 0.08230
# Poissons Ratio (z) = 0.33363 0.23374
#
# Static dielectric constant tensor:
#      x y z
#    x 1.887300 0.000000 -0.026050 
#    y 0.000000 1.883910 0.000000 
#    z -0.026050 0.000000 1.857490 
# 
# From -- ./inp_files/176734.got.cif
#   From: 2010.05.17/outbox.cif.g08.bks.cpg/sg15_89_cif.got.tgz:176734.got - 2010.06.03 18:47:42.
