data_PCOD9303793
_publ_section_title
;
Structure prediction by ZEFSAII (Michael W. Deem and Ramdas Pophale) SiO2 
 PCOD9303793
Probable space group: C 2/C
;
_chemical_formula_sum "Si O2"
_cell_formula_units_Z 40
_cell_length_a 11.723251
_cell_length_b 24.204453
_cell_length_c 8.646894
_cell_angle_alpha 90.000000
_cell_angle_beta 130.759069
_cell_angle_gamma 90.000000
_cell_volume 1858.506664
_symmetry_space_group_name_H-M "C 2/C"
_symmetry_group_IT_number 15
_symmetry_cell_setting 'monoclinic'
loop_
_space_group_symop_operation_xyz
x,y,z
-x,y,1/2-z
-x,-y,-z
x,-y,1/2+z
1/2+x,1/2+y,z
1/2-x,1/2+y,1/2-z
1/2-x,1/2-y,-z
1/2+x,1/2-y,1/2+z
loop_
_atom_site_type_symbol
_atom_site_label
_atom_site_fract_x
_atom_site_fract_y
_atom_site_fract_z
Si Si1 0.341962 0.522925 0.919836
Si Si2 0.647661 0.913762 0.797992
Si Si3 0.150940 0.867665 0.282156
Si Si4 0.157454 0.592803 0.962029
Si Si5 0.839152 0.196615 0.015877
O O1 0.246286 0.467394 0.847564
O O2 0.314533 0.574843 0.780125
O O3 0.295568 0.550777 0.044363
O O4 0.500000 0.500000 0.000000
O O5 0.500000 0.934427 0.750000
O O6 0.619030 0.892165 0.602653
O O7 0.720516 0.867915 0.973615
O O8 0.000000 0.873826 0.250000
O O9 0.135048 0.817557 0.144775
O O10 0.000000 0.572675 0.750000
O O11 0.220878 0.648629 0.948874
O O12 0.000000 0.191251 0.250000
O O13 0.750000 0.250000 0.000000
#
# Coordination Sequence:
#
# PCOD9303793 Si02
#       5
#     8   8   8   8   8
#     4  11  23  39  65  98 145 194 236 279 342 420
#     4  12  24  39  63  99 142 188 238 287 338 403
#     4  11  23  43  67 101 138 179 235 289 344 420
#     4  11  25  44  67  98 142 191 239 291 349 418
#     4  11  25  47  75  99 131 177 233 293 364 425
#
# _framework density 21.522656999999999
#
# number of rings (size 3 to 8) (size 9 to 14) (size 15 to 20)
#    0.000    0.800    2.000    6.000    2.800    2.400 
#    0.000    5.000    0.000    0.000    0.000    0.000 
#    0.000    0.000    0.000    0.000    0.000    0.000 
#
# Total GULP energy -111344.517251 kJ/mol
# GULP energy per Si atom -5567.225863 kJ/mol
# Density = 2.147367 g / cm^3
# Si number density = 21.522657 Si / 1000 Ang^3
#
#
#
# Elastic Constant Matrix: (Units=GPa)
#
#
# Indices 1 2 3 4 5 6 
#
# 1 191.5039 20.8497 56.0741 0.0000 0.4421 0.0000
# 2 20.8497 53.3564 10.1434 0.0000 4.7079 0.0000
# 3 56.0741 10.1434 118.6936 0.0000 -21.2355 0.0000
# 4 0.0000 0.0000 0.0000 15.1405 0.0000 -3.8926
# 5 0.4421 4.7079 -21.2355 0.0000 46.2494 0.0000
# 6 0.0000 0.0000 0.0000 -3.8926 0.0000 30.3501
#
#
#
# Elastic Compliance Matrix: (Units=1/GPa)
#
#
# Indices 1 2 3 4 5 6 
#
# 1 0.006314 -0.001772 -0.003062 0.000000 -0.001286 0.000000
# 2 -0.001772 0.019919 -0.001335 0.000000 -0.002624 0.000000
# 3 -0.003062 -0.001335 0.010911 0.000000 0.005175 0.000000
# 4 0.000000 0.000000 0.000000 0.068300 0.000000 0.008760
# 5 -0.001286 -0.002624 0.005175 0.000000 0.024277 0.000000
# 6 0.000000 0.000000 0.000000 0.008760 0.000000 0.034072
#
#
# Mechanical properties :
#
#
# Convention : Reuss Voigt Hill
#
# Bulk Modulus (GPa) = 40.30809 59.74315 50.02562
# Shear Modulus (GPa) = 27.11487 36.78043 31.94765
#
# Velocity S-wave (km/s) = 3.55326 4.13839 3.85694
# Velocity P-wave (km/s) = 5.96683 7.11713 6.56721
#
# Compressibility (1/GPa) = 0.02480891
#
# Stress axis : x y z
#
# Youngs Moduli (GPa) = 158.37404 50.20209 91.64758
#
# Poissons Ratio (x) = 0.08895 0.28059
# Poissons Ratio (y) = 0.28062 0.12231
# Poissons Ratio (z) = 0.48488 0.06700
#
# Static dielectric constant tensor:
#      x y z
#    x 1.845030 0.000000 -0.061590 
#    y 0.000000 1.992600 0.000000 
#    z -0.061590 0.000000 1.920680 
# 
# From -- ./inp_files/33898.got.cif
#   From: 2010.05.17/outbox.cif.g08.bks.cpg/sg15_17_cif.got.tgz:33898.got - 2010.06.03 18:47:42.
