data_PCOD9303235
_publ_section_title
;
Structure prediction by ZEFSAII (Michael W. Deem and Ramdas Pophale) SiO2 
 PCOD9303235
Probable space group: C 2/C
;
_chemical_formula_sum "Si O2"
_cell_formula_units_Z 52
_cell_length_a 16.972571
_cell_length_b 10.982915
_cell_length_c 13.077972
_cell_angle_alpha 90.000000
_cell_angle_beta 125.795825
_cell_angle_gamma 90.000000
_cell_volume 1977.349826
_symmetry_space_group_name_H-M "C 2/C"
_symmetry_group_IT_number 15
_symmetry_cell_setting 'monoclinic'
loop_
_space_group_symop_operation_xyz
x,y,z
-x,y,1/2-z
-x,-y,-z
x,-y,1/2+z
1/2+x,1/2+y,z
1/2-x,1/2+y,1/2-z
1/2-x,1/2-y,-z
1/2+x,1/2-y,1/2+z
loop_
_atom_site_type_symbol
_atom_site_label
_atom_site_fract_x
_atom_site_fract_y
_atom_site_fract_z
Si Si1 0.820172 0.821607 0.275566
Si Si2 0.606895 0.272217 0.378766
Si Si3 0.623099 0.507088 0.012017
Si Si4 0.388612 0.802396 0.277490
Si Si5 0.000000 0.114061 0.250000
Si Si6 0.334283 0.992894 0.080586
Si Si7 0.564800 0.880668 0.528578
O O1 0.825827 0.833860 0.158078
O O2 0.867849 0.934881 0.374238
O O3 0.711816 0.804779 0.237593
O O4 0.880109 0.697234 0.344526
O O5 0.500000 0.281575 0.250000
O O6 0.616379 0.347284 0.491219
O O7 0.633540 0.131578 0.408817
O O8 0.536053 0.460872 0.874695
O O9 0.725111 0.477448 0.035315
O O10 0.406657 0.694975 0.210803
O O11 0.485129 0.793891 0.417838
O O12 0.394168 0.927566 0.216985
O O13 0.355476 0.921228 0.992964
O O14 0.500000 0.000000 0.500000
#
# Coordination Sequence:
#
# PCOD9303235 Si02
#       7
#     8   8   8   8   4   8   8
#     4  11  26  47  73 112 145 188 252 300 369 442
#     4  12  26  49  72 104 149 195 245 307 370 444
#     4  11  25  46  70 105 145 195 237 303 374 432
#     4  11  22  42  73 103 143 185 238 308 358 439
#     4  12  20  46  70 108 140 190 244 294 370 438
#     4  11  23  45  72 103 146 188 245 307 373 432
#     4  12  23  41  74 108 139 192 240 304 367 435
#
# _framework density 26.297826000000001
#
# number of rings (size 3 to 8) (size 9 to 14) (size 15 to 20)
#    0.000    0.615    3.846    4.154    2.154    3.077 
#    8.308    0.000    0.000    0.000    0.000    0.000 
#    0.000    0.000    0.000    0.000    0.000    0.000 
#
# Total GULP energy -145769.552046 kJ/mol
# GULP energy per Si atom -5606.521233 kJ/mol
# Density = 2.623797 g / cm^3
# Si number density = 26.297826 Si / 1000 Ang^3
#
#
#
# Elastic Constant Matrix: (Units=GPa)
#
#
# Indices 1 2 3 4 5 6 
#
# 1 133.8007 43.9034 2.1309 0.0000 2.0859 0.0000
# 2 43.9034 131.9955 45.8498 0.0000 -16.3025 0.0000
# 3 2.1309 45.8498 64.4239 0.0000 3.8849 0.0000
# 4 0.0000 0.0000 0.0000 36.5556 0.0000 -7.9601
# 5 2.0859 -16.3025 3.8849 0.0000 40.8192 0.0000
# 6 0.0000 0.0000 0.0000 -7.9601 0.0000 42.3426
#
#
#
# Elastic Compliance Matrix: (Units=1/GPa)
#
#
# Indices 1 2 3 4 5 6 
#
# 1 0.008858 -0.004243 0.002873 0.000000 -0.002421 0.000000
# 2 -0.004243 0.013094 -0.009562 0.000000 0.006356 0.000000
# 3 0.002873 -0.009562 0.022601 0.000000 -0.006117 0.000000
# 4 0.000000 0.000000 0.000000 0.028523 0.000000 0.005362
# 5 -0.002421 0.006356 -0.006117 0.000000 0.027743 0.000000
# 6 0.000000 0.000000 0.000000 0.005362 0.000000 0.024625
#
#
# Mechanical properties :
#
#
# Convention : Reuss Voigt Hill
#
# Bulk Modulus (GPa) = 44.07471 57.10980 50.59225
# Shear Modulus (GPa) = 32.28507 39.83256 36.05882
#
# Velocity S-wave (km/s) = 3.50761 3.89610 3.70695
# Velocity P-wave (km/s) = 5.76200 6.48098 6.13204
#
# Compressibility (1/GPa) = 0.02268875
#
# Stress axis : x y z
#
# Youngs Moduli (GPa) = 112.89119 76.37255 44.24603
#
# Poissons Ratio (x) = 0.32406 -0.12711
# Poissons Ratio (y) = 0.47902 0.42306
# Poissons Ratio (z) = -0.32432 0.73024
#
# Static dielectric constant tensor:
#      x y z
#    x 2.048710 0.000000 -0.033350 
#    y 0.000000 2.287460 0.000000 
#    z -0.033350 0.000000 2.036870 
# 
# From -- ./inp_files/161053.got.cif
#   From: 2010.05.17/outbox.cif.g08.bks.cpg/sg15_81_cif.got.tgz:161053.got - 2010.06.03 18:47:42.
