data_PCOD9303694
_publ_section_title
;
Structure prediction by ZEFSAII (Michael W. Deem and Ramdas Pophale) SiO2 
 PCOD9303694
Probable space group: C 2/C
;
_chemical_formula_sum "Si O2"
_cell_formula_units_Z 32
_cell_length_a 9.132319
_cell_length_b 14.340701
_cell_length_c 9.985471
_cell_angle_alpha 90.000000
_cell_angle_beta 91.658792
_cell_angle_gamma 90.000000
_cell_volume 1307.187766
_symmetry_space_group_name_H-M "C 2/C"
_symmetry_group_IT_number 15
_symmetry_cell_setting 'monoclinic'
loop_
_space_group_symop_operation_xyz
x,y,z
-x,y,1/2-z
-x,-y,-z
x,-y,1/2+z
1/2+x,1/2+y,z
1/2-x,1/2+y,1/2-z
1/2-x,1/2-y,-z
1/2+x,1/2-y,1/2+z
loop_
_atom_site_type_symbol
_atom_site_label
_atom_site_fract_x
_atom_site_fract_y
_atom_site_fract_z
Si Si1 0.101586 0.058583 0.106941
Si Si2 0.698257 0.381651 0.255284
Si Si3 0.086050 0.594666 0.521902
Si Si4 0.969390 0.208746 0.961475
O O1 0.141934 0.987339 0.227128
O O2 0.263059 0.084469 0.057628
O O3 0.009824 0.154907 0.099658
O O4 0.000000 0.000000 0.000000
O O5 0.855233 0.388103 0.326418
O O6 0.678005 0.326984 0.114913
O O7 0.594299 0.328628 0.359526
O O8 0.991872 0.682322 0.472854
O O9 0.000000 0.500000 0.500000
#
# Coordination Sequence:
#
# PCOD9303694 Si02
#       4
#     8   8   8   8
#     4   9  18  36  60  85 117 156 200 238 287 358
#     4   9  18  34  59  84 113 155 195 242 291 339
#     4  11  23  36  58  94 124 152 199 250 296 358
#     4   9  19  37  59  85 116 161 201 233 294 367
#
# _framework density 24.480031
#
# number of rings (size 3 to 8) (size 9 to 14) (size 15 to 20)
#    0.000    2.500    0.000    4.500    0.000    7.000 
#    0.000    5.000    0.000   33.000    0.000    0.000 
#    0.000    0.000    0.000    0.000    0.000    0.000 
#
# Total GULP energy -89289.964157 kJ/mol
# GULP energy per Si atom -5580.622760 kJ/mol
# Density = 2.442431 g / cm^3
# Si number density = 24.480031 Si / 1000 Ang^3
#
#
#
# Elastic Constant Matrix: (Units=GPa)
#
#
# Indices 1 2 3 4 5 6 
#
# 1 73.6742 24.6957 41.1365 0.0000 14.4866 0.0000
# 2 24.6957 214.1321 64.0896 0.0000 23.5373 0.0000
# 3 41.1365 64.0896 125.6704 0.0000 25.0950 0.0000
# 4 0.0000 0.0000 0.0000 38.6321 0.0000 1.3342
# 5 14.4866 23.5373 25.0950 0.0000 34.7120 0.0000
# 6 0.0000 0.0000 0.0000 1.3342 0.0000 18.1789
#
#
#
# Elastic Compliance Matrix: (Units=1/GPa)
#
#
# Indices 1 2 3 4 5 6 
#
# 1 0.016986 -0.000139 -0.004783 0.000000 -0.003537 0.000000
# 2 -0.000139 0.005633 -0.002426 0.000000 -0.002007 0.000000
# 3 -0.004783 -0.002426 0.011726 0.000000 -0.004836 0.000000
# 4 0.000000 0.000000 0.000000 0.025951 0.000000 -0.001905
# 5 -0.003537 -0.002007 -0.004836 0.000000 0.035142 0.000000
# 6 0.000000 0.000000 0.000000 -0.001905 0.000000 0.055149
#
#
# Mechanical properties :
#
#
# Convention : Reuss Voigt Hill
#
# Bulk Modulus (GPa) = 50.89427 74.81336 62.85381
# Shear Modulus (GPa) = 29.09816 37.20827 33.15322
#
# Velocity S-wave (km/s) = 3.45142 3.90288 3.68407
# Velocity P-wave (km/s) = 6.05956 7.13703 6.62025
#
# Compressibility (1/GPa) = 0.01964858
#
# Stress axis : x y z
#
# Youngs Moduli (GPa) = 58.87238 177.52879 85.27970
#
# Poissons Ratio (x) = 0.02461 0.40790
# Poissons Ratio (y) = 0.00816 0.20692
# Poissons Ratio (z) = 0.28159 0.43076
#
# Static dielectric constant tensor:
#      x y z
#    x 2.083680 0.000000 -0.071020 
#    y 0.000000 1.950330 0.000000 
#    z -0.071020 0.000000 2.145310 
# 
# From -- ./inp_files/85172.got.cif
#   From: 2010.05.17/outbox.cif.g08.bks.cpg/sg15_43_cif.got.tgz:85172.got - 2010.06.03 18:47:42.
