data_PCOD9303016
_publ_section_title
;
Structure prediction by ZEFSAII (Michael W. Deem and Ramdas Pophale) SiO2 
 PCOD9303016
Probable space group: C 2/C
;
_chemical_formula_sum "Si O2"
_cell_formula_units_Z 48
_cell_length_a 12.115211
_cell_length_b 8.849668
_cell_length_c 22.986576
_cell_angle_alpha 90.000000
_cell_angle_beta 65.359810
_cell_angle_gamma 90.000000
_cell_volume 2240.109864
_symmetry_space_group_name_H-M "C 2/C"
_symmetry_group_IT_number 15
_symmetry_cell_setting 'monoclinic'
loop_
_space_group_symop_operation_xyz
x,y,z
-x,y,1/2-z
-x,-y,-z
x,-y,1/2+z
1/2+x,1/2+y,z
1/2-x,1/2+y,1/2-z
1/2-x,1/2-y,-z
1/2+x,1/2-y,1/2+z
loop_
_atom_site_type_symbol
_atom_site_label
_atom_site_fract_x
_atom_site_fract_y
_atom_site_fract_z
Si Si1 0.670949 0.852390 0.859848
Si Si2 0.235195 0.400124 0.575340
Si Si3 0.490056 0.959342 0.318811
Si Si4 0.929399 0.024948 0.607943
Si Si5 0.098403 0.865444 0.771019
Si Si6 0.790722 0.055134 0.932161
O O1 0.604072 0.699564 0.893151
O O2 0.785416 0.821514 0.792484
O O3 0.577352 0.950759 0.842842
O O4 0.721624 0.946054 0.903326
O O5 0.370439 0.430932 0.568729
O O6 0.202838 0.225759 0.594165
O O7 0.225841 0.430972 0.508862
O O8 0.145531 0.511432 0.629142
O O9 0.500000 0.013996 0.250000
O O10 0.532102 0.785519 0.308463
O O11 0.072171 0.002544 0.585687
O O12 0.869238 0.968341 0.681526
O O13 0.000000 0.943712 0.750000
#
# Coordination Sequence:
#
# PCOD9303016 Si02
#       6
#     8   8   8   8   8   8
#     4  12  24  43  70 104 137 181 229 284 343 408
#     4  11  25  48  70  99 140 182 228 284 342 408
#     4  11  24  44  70 101 139 181 226 283 348 405
#     4  12  24  45  69 102 138 180 230 282 343 404
#     4  11  22  41  67  99 141 172 227 285 337 405
#     4  11  26  48  69 102 138 181 233 279 341 413
#
# _framework density 21.427520000000001
#
# number of rings (size 3 to 8) (size 9 to 14) (size 15 to 20)
#    0.000    0.667    3.333    5.500    0.000    3.333 
#    3.000    0.000    0.000    0.000    0.000    0.000 
#    0.000    0.000    0.000    0.000    0.000    0.000 
#
# Total GULP energy -134348.436083 kJ/mol
# GULP energy per Si atom -5597.851503 kJ/mol
# Density = 2.137875 g / cm^3
# Si number density = 21.427520 Si / 1000 Ang^3
#
#
#
# Elastic Constant Matrix: (Units=GPa)
#
#
# Indices 1 2 3 4 5 6 
#
# 1 116.3965 25.3623 1.8891 0.0000 22.9269 0.0000
# 2 25.3623 58.2586 14.8684 0.0000 22.9136 0.0000
# 3 1.8891 14.8684 52.3619 0.0000 12.9819 0.0000
# 4 0.0000 0.0000 0.0000 19.2840 0.0000 -4.8556
# 5 22.9269 22.9136 12.9819 0.0000 34.9249 0.0000
# 6 0.0000 0.0000 0.0000 -4.8556 0.0000 27.9396
#
#
#
# Elastic Compliance Matrix: (Units=1/GPa)
#
#
# Indices 1 2 3 4 5 6 
#
# 1 0.010261 -0.002714 0.001794 0.000000 -0.005623 0.000000
# 2 -0.002714 0.024315 -0.003627 0.000000 -0.012823 0.000000
# 3 0.001794 -0.003627 0.021771 0.000000 -0.006891 0.000000
# 4 0.000000 0.000000 0.000000 0.054229 0.000000 0.009425
# 5 -0.005623 -0.012823 -0.006891 0.000000 0.043298 0.000000
# 6 0.000000 0.000000 0.000000 0.009425 0.000000 0.037429
#
#
# Mechanical properties :
#
#
# Convention : Reuss Voigt Hill
#
# Bulk Modulus (GPa) = 21.16191 34.58404 27.87298
# Shear Modulus (GPa) = 23.13213 28.75621 25.94417
#
# Velocity S-wave (km/s) = 3.28922 3.66734 3.48341
# Velocity P-wave (km/s) = 4.93181 5.84016 5.40510
#
# Compressibility (1/GPa) = 0.04725471
#
# Stress axis : x y z
#
# Youngs Moduli (GPa) = 97.45675 41.12623 45.93163
#
# Poissons Ratio (x) = 0.11160 -0.08242
# Poissons Ratio (y) = 0.26445 0.16661
# Poissons Ratio (z) = -0.17487 0.14918
#
# Static dielectric constant tensor:
#      x y z
#    x 1.794170 0.000000 -0.013960 
#    y 0.000000 1.744090 0.000000 
#    z -0.013960 0.000000 1.781330 
# 
# From -- ./inp_files/267738.got.cif
#   From: 2010.05.17/outbox.cif.g08.bks.cpg/sg15_134_cif.got.tgz:267738.got - 2010.06.03 18:47:42.
