data_PCOD9303099
_publ_section_title
;
Structure prediction by ZEFSAII (Michael W. Deem and Ramdas Pophale) SiO2 
 PCOD9303099
Probable space group: C 2/C
;
_chemical_formula_sum "Si O2"
_cell_formula_units_Z 56
_cell_length_a 9.276973
_cell_length_b 29.018042
_cell_length_c 11.657613
_cell_angle_alpha 90.000000
_cell_angle_beta 121.042264
_cell_angle_gamma 90.000000
_cell_volume 2688.790572
_symmetry_space_group_name_H-M "C 2/C"
_symmetry_group_IT_number 15
_symmetry_cell_setting 'monoclinic'
loop_
_space_group_symop_operation_xyz
x,y,z
-x,y,1/2-z
-x,-y,-z
x,-y,1/2+z
1/2+x,1/2+y,z
1/2-x,1/2+y,1/2-z
1/2-x,1/2-y,-z
1/2+x,1/2-y,1/2+z
loop_
_atom_site_type_symbol
_atom_site_label
_atom_site_fract_x
_atom_site_fract_y
_atom_site_fract_z
Si Si1 0.376327 0.470074 0.797610
Si Si2 0.884622 0.715381 0.001514
Si Si3 0.444024 0.567766 0.908501
Si Si4 0.730398 0.886165 0.045237
Si Si5 0.141730 0.220038 0.708443
Si Si6 0.693364 0.864776 0.299141
Si Si7 0.508110 0.969340 0.620494
O O1 0.500000 0.455167 0.750000
O O2 0.376721 0.526061 0.802018
O O3 0.195574 0.450097 0.697898
O O4 0.445203 0.454462 0.946908
O O5 0.064429 0.735173 0.114844
O O6 0.750000 0.750000 0.000000
O O7 0.840925 0.663657 0.024115
O O8 0.825118 0.721381 0.845367
O O9 0.574904 0.602935 0.902440
O O10 0.284844 0.593152 0.899721
O O11 0.705767 0.881735 0.171896
O O12 0.625263 0.928585 0.950840
O O13 0.181269 0.178730 0.637706
O O14 0.000000 0.208279 0.750000
O O15 0.500000 0.857047 0.250000
O O16 0.500000 0.989744 0.750000
O O17 0.500000 0.000000 0.500000
#
# Coordination Sequence:
#
# PCOD9303099 Si02
#       7
#     8   8   8   8   8   8   8
#     4  11  25  40  62  89 129 172 220 274 346 404
#     4   9  18  35  65  95 124 168 216 287 335 410
#     4  11  22  42  63  88 123 174 221 272 332 396
#     4  11  23  43  65  96 132 171 235 281 342 408
#     4   9  18  37  61  94 125 166 219 274 344 413
#     4  11  23  38  65  94 127 175 226 276 338 415
#     4  12  26  44  67 100 138 182 235 292 348 414
#
# _framework density 20.827207999999999
#
# number of rings (size 3 to 8) (size 9 to 14) (size 15 to 20)
#    0.000    1.429    1.429    5.571    4.000    2.857 
#    2.571    2.857    0.000    0.857    0.000    0.000 
#    0.000    0.000    0.000    0.000    0.000    0.143 
#
# Total GULP energy -155895.114871 kJ/mol
# GULP energy per Si atom -5567.682674 kJ/mol
# Density = 2.077980 g / cm^3
# Si number density = 20.827208 Si / 1000 Ang^3
#
#
#
# Elastic Constant Matrix: (Units=GPa)
#
#
# Indices 1 2 3 4 5 6 
#
# 1 106.8912 28.3211 14.6536 0.0000 14.4262 0.0000
# 2 28.3211 105.7892 32.6855 0.0000 8.0946 0.0000
# 3 14.6536 32.6855 68.7511 0.0000 6.9627 0.0000
# 4 0.0000 0.0000 0.0000 30.3815 0.0000 9.9485
# 5 14.4262 8.0946 6.9627 0.0000 34.4137 0.0000
# 6 0.0000 0.0000 0.0000 9.9485 0.0000 20.4752
#
#
#
# Elastic Compliance Matrix: (Units=1/GPa)
#
#
# Indices 1 2 3 4 5 6 
#
# 1 0.010577 -0.002305 -0.000781 0.000000 -0.003734 0.000000
# 2 -0.002305 0.011667 -0.004977 0.000000 -0.000771 0.000000
# 3 -0.000781 -0.004977 0.017280 0.000000 -0.001998 0.000000
# 4 0.000000 0.000000 0.000000 0.039143 0.000000 -0.019019
# 5 -0.003734 -0.000771 -0.001998 0.000000 0.031209 0.000000
# 6 0.000000 0.000000 0.000000 -0.019019 0.000000 0.058080
#
#
# Mechanical properties :
#
#
# Convention : Reuss Voigt Hill
#
# Bulk Modulus (GPa) = 42.73721 48.08353 45.41037
# Shear Modulus (GPa) = 26.05797 30.77217 28.41507
#
# Velocity S-wave (km/s) = 3.54100 3.84799 3.69768
# Velocity P-wave (km/s) = 6.10595 6.54826 6.33097
#
# Compressibility (1/GPa) = 0.02339881
#
# Stress axis : x y z
#
# Youngs Moduli (GPa) = 94.54593 85.71521 57.86974
#
# Poissons Ratio (x) = 0.19755 0.04517
# Poissons Ratio (y) = 0.21790 0.28803
# Poissons Ratio (z) = 0.07379 0.42662
#
# Static dielectric constant tensor:
#      x y z
#    x 1.757180 0.000000 -0.003750 
#    y 0.000000 1.916900 0.000000 
#    z -0.003750 0.000000 1.849730 
# 
# From -- ./inp_files/82664.got.cif
#   From: 2010.05.17/outbox.cif.g08.bks.cpg/sg15_42_cif.got.tgz:82664.got - 2010.06.03 18:47:42.
