data_PCOD9303715
_publ_section_title
;
Structure prediction by ZEFSAII (Michael W. Deem and Ramdas Pophale) SiO2 
 PCOD9303715
Probable space group: C 2/C
;
_chemical_formula_sum "Si O2"
_cell_formula_units_Z 64
_cell_length_a 9.339497
_cell_length_b 16.072470
_cell_length_c 30.452176
_cell_angle_alpha 90.000000
_cell_angle_beta 39.745564
_cell_angle_gamma 90.000000
_cell_volume 2922.692546
_symmetry_space_group_name_H-M "C 2/C"
_symmetry_group_IT_number 15
_symmetry_cell_setting 'monoclinic'
loop_
_space_group_symop_operation_xyz
x,y,z
-x,y,1/2-z
-x,-y,-z
x,-y,1/2+z
1/2+x,1/2+y,z
1/2-x,1/2+y,1/2-z
1/2-x,1/2-y,-z
1/2+x,1/2-y,1/2+z
loop_
_atom_site_type_symbol
_atom_site_label
_atom_site_fract_x
_atom_site_fract_y
_atom_site_fract_z
Si Si1 0.270874 0.391334 0.326875
Si Si2 0.952139 0.921349 0.436030
Si Si3 0.530418 0.755586 0.142719
Si Si4 0.944305 0.167212 0.500426
Si Si5 0.058443 0.911494 0.594126
Si Si6 0.562028 0.048249 0.424572
Si Si7 0.111648 0.223507 0.618935
Si Si8 0.777011 0.185508 0.317505
O O1 0.500000 0.420090 0.250000
O O2 0.135527 0.466560 0.380824
O O3 0.327288 0.329932 0.353507
O O4 0.128339 0.333851 0.327582
O O5 0.046808 0.897793 0.461292
O O6 0.696244 0.950141 0.502945
O O7 0.937263 0.839221 0.409729
O O8 0.064886 0.999963 0.384860
O O9 0.441501 0.664597 0.148289
O O10 0.620815 0.749049 0.170847
O O11 0.745178 0.770652 0.060483
O O12 0.178967 0.216944 0.441807
O O13 0.899571 0.123413 0.464647
O O14 0.276881 0.933811 0.571869
O O15 0.610081 0.125963 0.382091
O O16 0.878921 0.271880 0.681536
O O17 0.000000 0.138304 0.250000
#
# Coordination Sequence:
#
# PCOD9303715 Si02
#       8
#     8   8   8   8   8   8   8   8
#     4  12  26  45  67  93 128 174 219 262 309 384
#     4  12  23  40  64  98 132 166 202 272 331 380
#     4  11  24  41  65  96 127 165 214 263 324 376
#     4  12  23  40  64  98 132 163 206 265 333 385
#     4  11  23  37  62  95 131 162 198 264 323 380
#     4  11  24  41  66  96 126 166 215 265 323 376
#     4  12  23  43  66  97 131 166 216 266 323 382
#     4  11  23  44  66  89 127 176 220 258 311 386
#
# _framework density 21.897617
#
# number of rings (size 3 to 8) (size 9 to 14) (size 15 to 20)
#    0.000    0.500    5.000    4.875    3.500    0.000 
#    0.000    0.000    0.000    0.750    0.000    0.000 
#    0.000    0.000    0.000    0.000    0.000    0.000 
#
# Total GULP energy -178880.880522 kJ/mol
# GULP energy per Si atom -5590.027516 kJ/mol
# Density = 2.184778 g / cm^3
# Si number density = 21.897617 Si / 1000 Ang^3
#
#
#
# Elastic Constant Matrix: (Units=GPa)
#
#
# Indices 1 2 3 4 5 6 
#
# 1 57.3137 33.0166 -22.1350 -0.0009 13.5843 -0.0021
# 2 33.0166 80.0388 -0.4888 0.0002 -12.3295 -0.0011
# 3 -22.1350 -0.4888 40.8581 0.0008 -19.8815 -0.0010
# 4 -0.0009 0.0002 0.0008 36.6751 0.0005 21.1100
# 5 13.5843 -12.3295 -19.8815 0.0005 25.0607 0.0024
# 6 -0.0021 -0.0011 -0.0010 21.1100 0.0024 37.9045
#
#
#
# Elastic Compliance Matrix: (Units=1/GPa)
#
#
# Indices 1 2 3 4 5 6 
#
# 1 0.036766 -0.018470 0.009085 -0.000001 -0.021809 0.000004
# 2 -0.018470 0.023612 0.001304 0.000000 0.022663 -0.000002
# 3 0.009085 0.001304 0.044511 -0.000002 0.031029 0.000001
# 4 -0.000001 0.000000 -0.000002 0.040131 0.000001 -0.022350
# 5 -0.021809 0.022663 0.031029 0.000001 0.087491 -0.000006
# 6 0.000004 -0.000002 0.000001 -0.022350 -0.000006 0.038829
#
#
# Mechanical properties :
#
#
# Convention : Reuss Voigt Hill
#
# Bulk Modulus (GPa) = 11.27059 22.11070 16.69065
# Shear Modulus (GPa) = 15.76898 31.11589 23.44243
#
# Velocity S-wave (km/s) = 2.68642 3.77367 3.27547
# Velocity P-wave (km/s) = 3.84456 5.39506 4.68440
#
# Compressibility (1/GPa) = 0.08872648
#
# Stress axis : x y z
#
# Youngs Moduli (GPa) = 27.19941 42.35120 22.46629
#
# Poissons Ratio (x) = 0.78223 -0.20410
# Poissons Ratio (y) = 0.50237 -0.02930
# Poissons Ratio (z) = -0.24710 -0.05523
#
# Static dielectric constant tensor:
#      x y z
#    x 0.977610 0.000030 -0.709070 
#    y 0.000030 1.858720 0.000020 
#    z -0.709070 0.000020 1.181920 
# 
# From -- ./inp_files/308767.got.cif
#   From: 2010.05.17/outbox.cif.g08.bks.cpg/sg15_155_cif.got.tgz:308767.got - 2010.06.03 18:47:42.
