data_PCOD9303004
_publ_section_title
;
Structure prediction by ZEFSAII (Michael W. Deem and Ramdas Pophale) SiO2 
 PCOD9303004
Probable space group: C 2/C
;
_chemical_formula_sum "Si O2"
_cell_formula_units_Z 40
_cell_length_a 21.611840
_cell_length_b 17.362667
_cell_length_c 15.503613
_cell_angle_alpha 90.000000
_cell_angle_beta 20.531138
_cell_angle_gamma 90.000000
_cell_volume 2040.314617
_symmetry_space_group_name_H-M "C 2/C"
_symmetry_group_IT_number 15
_symmetry_cell_setting 'monoclinic'
loop_
_space_group_symop_operation_xyz
x,y,z
-x,y,1/2-z
-x,-y,-z
x,-y,1/2+z
1/2+x,1/2+y,z
1/2-x,1/2+y,1/2-z
1/2-x,1/2-y,-z
1/2+x,1/2-y,1/2+z
loop_
_atom_site_type_symbol
_atom_site_label
_atom_site_fract_x
_atom_site_fract_y
_atom_site_fract_z
Si Si1 0.309767 0.465238 0.727619
Si Si2 0.372891 0.161130 0.686858
Si Si3 0.859664 0.312502 0.509857
Si Si4 0.700094 0.497169 0.957382
Si Si5 0.508669 0.091470 0.144264
O O1 0.500000 0.500000 0.500000
O O2 0.276883 0.383426 0.815080
O O3 0.294051 0.458758 0.644783
O O4 0.155576 0.523856 0.956791
O O5 0.238132 0.231507 0.867783
O O6 0.534365 0.179332 0.539262
O O7 0.282890 0.082011 0.836888
O O8 0.434886 0.146218 0.508027
O O9 0.000000 0.319909 0.250000
O O10 0.825181 0.448764 0.857244
O O11 0.500000 0.501750 0.250000
O O12 0.500000 0.128319 0.250000
#
# Coordination Sequence:
#
# PCOD9303004 Si02
#       5
#     8   8   8   8   8
#     4  11  23  39  67  99 130 169 223 271 324 394
#     4  11  25  43  63 100 135 170 218 272 323 402
#     4  12  25  43  67  96 137 172 213 271 335 388
#     4  11  22  41  67  96 130 170 222 274 326 385
#     4  11  22  45  68  93 131 176 220 276 324 384
#
# _framework density 19.60482
#
# number of rings (size 3 to 8) (size 9 to 14) (size 15 to 20)
#    0.000    0.800    4.000    4.200    8.400    0.000 
#    0.000    2.000    0.000    0.000    0.000    0.000 
#    0.000    0.000    0.000    0.000    0.000    0.000 
#
# Total GULP energy -111903.593234 kJ/mol
# GULP energy per Si atom -5595.179662 kJ/mol
# Density = 1.956020 g / cm^3
# Si number density = 19.604820 Si / 1000 Ang^3
#
#
#
# Elastic Constant Matrix: (Units=GPa)
#
#
# Indices 1 2 3 4 5 6 
#
# 1 108.6377 28.2573 38.4261 0.0010 2.3060 -0.0003
# 2 28.2573 92.5636 33.5962 0.0008 -1.1968 -0.0004
# 3 38.4261 33.5962 99.5902 -0.0022 -12.4235 0.0008
# 4 0.0010 0.0008 -0.0022 32.8832 0.0025 -11.4359
# 5 2.3060 -1.1968 -12.4235 0.0025 40.4211 0.0018
# 6 -0.0003 -0.0004 0.0008 -11.4359 0.0018 11.4588
#
#
#
# Elastic Compliance Matrix: (Units=1/GPa)
#
#
# Indices 1 2 3 4 5 6 
#
# 1 0.011132 -0.002027 -0.003846 0.000000 -0.001877 0.000001
# 2 -0.002027 0.012715 -0.003583 0.000000 -0.000609 0.000000
# 3 -0.003846 -0.003583 0.013256 0.000000 0.004188 -0.000001
# 4 0.000000 0.000000 0.000000 0.046576 -0.000005 0.046483
# 5 -0.001877 -0.000609 0.004188 -0.000005 0.026116 -0.000009
# 6 0.000001 0.000000 -0.000001 0.046483 -0.000009 0.133659
#
#
# Mechanical properties :
#
#
# Convention : Reuss Voigt Hill
#
# Bulk Modulus (GPa) = 54.97031 55.70562 55.33797
# Shear Modulus (GPa) = 18.62688 30.32008 24.47348
#
# Velocity S-wave (km/s) = 3.08574 3.93690 3.53702
# Velocity P-wave (km/s) = 6.38716 7.01010 6.70587
#
# Compressibility (1/GPa) = 0.01819164
#
# Stress axis : x y z
#
# Youngs Moduli (GPa) = 89.82948 78.64860 75.43672
#
# Poissons Ratio (x) = 0.15941 0.29011
# Poissons Ratio (y) = 0.18207 0.27031
# Poissons Ratio (z) = 0.34546 0.28182
#
# Static dielectric constant tensor:
#      x y z
#    x 1.704810 0.000000 0.009330 
#    y 0.000000 1.659340 0.000000 
#    z 0.009330 0.000000 1.672320 
# 
# From -- ./inp_files/29099.got.cif
#   From: 2010.05.17/outbox.cif.g08.bks.cpg/sg15_15_cif.got.tgz:29099.got - 2010.06.03 18:47:42.
