data_PCOD9303562
_publ_section_title
;
Structure prediction by ZEFSAII (Michael W. Deem and Ramdas Pophale) SiO2 
 PCOD9303562
Probable space group: C 2/C
;
_chemical_formula_sum "Si O2"
_cell_formula_units_Z 36
_cell_length_a 7.463884
_cell_length_b 26.557217
_cell_length_c 11.392763
_cell_angle_alpha 90.000000
_cell_angle_beta 133.130628
_cell_angle_gamma 90.000000
_cell_volume 1648.080928
_symmetry_space_group_name_H-M "C 2/C"
_symmetry_group_IT_number 15
_symmetry_cell_setting 'monoclinic'
loop_
_space_group_symop_operation_xyz
x,y,z
-x,y,1/2-z
-x,-y,-z
x,-y,1/2+z
1/2+x,1/2+y,z
1/2-x,1/2+y,1/2-z
1/2-x,1/2-y,-z
1/2+x,1/2-y,1/2+z
loop_
_atom_site_type_symbol
_atom_site_label
_atom_site_fract_x
_atom_site_fract_y
_atom_site_fract_z
Si Si1 0.284090 0.132362 0.902929
Si Si2 0.481160 0.035946 0.605577
Si Si3 0.000000 0.599168 0.250000
Si Si4 0.327454 0.806329 0.062094
Si Si5 0.491726 0.602733 0.112668
O O1 0.335675 0.082080 0.846313
O O2 0.491942 0.171550 0.955884
O O3 0.000000 0.146427 0.750000
O O4 0.359340 0.123064 0.072587
O O5 0.500000 0.017109 0.750000
O O6 0.212754 0.060528 0.487987
O O7 0.500000 0.000000 0.500000
O O8 0.246570 0.579028 0.300187
O O9 0.500000 0.805253 0.250000
O O10 0.250000 0.750000 0.000000
O O11 0.108831 0.846088 0.991591
O O12 0.500000 0.619794 0.250000
#
# Coordination Sequence:
#
# PCOD9303562 Si02
#       5
#     8   8   4   8   8
#     4  11  24  46  71 105 146 195 242 307 372 441
#     4  11  25  45  73 106 148 194 248 304 371 444
#     4  12  22  42  82  98 142 188 246 290 376 432
#     4  11  23  43  70  99 143 186 237 301 367 434
#     4  11  22  45  72 102 143 191 239 295 375 429
#
# _framework density 21.843586999999999
#
# number of rings (size 3 to 8) (size 9 to 14) (size 15 to 20)
#    0.000    0.889    4.444    6.000    1.556    0.889 
#    2.000    5.556    0.000    0.000    0.000    0.000 
#    0.000    0.000    0.000    0.000    0.000    0.000 
#
# Total GULP energy -100256.681903 kJ/mol
# GULP energy per Si atom -5569.815661 kJ/mol
# Density = 2.179387 g / cm^3
# Si number density = 21.843587 Si / 1000 Ang^3
#
#
#
# Elastic Constant Matrix: (Units=GPa)
#
#
# Indices 1 2 3 4 5 6 
#
# 1 124.0678 47.8697 41.3352 0.0000 19.5156 0.0000
# 2 47.8697 115.5724 29.4332 0.0000 8.8102 0.0000
# 3 41.3352 29.4332 140.9615 0.0000 -5.7526 0.0000
# 4 0.0000 0.0000 0.0000 0.1423 0.0000 2.5790
# 5 19.5156 8.8102 -5.7526 0.0000 64.4490 0.0000
# 6 0.0000 0.0000 0.0000 2.5790 0.0000 -10.9648
#
#
#
# Elastic Compliance Matrix: (Units=1/GPa)
#
#
# Indices 1 2 3 4 5 6 
#
# 1 0.010756 -0.003583 -0.002528 0.000000 -0.002993 0.000000
# 2 -0.003583 0.010464 -0.001153 0.000000 -0.000448 0.000000
# 3 -0.002528 -0.001153 0.008143 0.000000 0.001650 0.000000
# 4 0.000000 0.000000 0.000000 1.335229 0.000000 0.314059
# 5 -0.002993 -0.000448 0.001650 0.000000 0.016631 0.000000
# 6 0.000000 0.000000 0.000000 0.314059 0.000000 -0.017331
#
#
# Mechanical properties :
#
#
# Convention : Reuss Voigt Hill
#
# Bulk Modulus (GPa) = 67.40240 68.65309 68.02774
# Shear Modulus (GPa) = 3.61438 28.18954 15.90196
#
# Velocity S-wave (km/s) = 1.28773 3.59628 2.70106
# Velocity P-wave (km/s) = 5.75629 6.98154 6.39831
#
# Compressibility (1/GPa) = 0.01483627
#
# Stress axis : x y z
#
# Youngs Moduli (GPa) = 92.97568 95.56239 122.79850
#
# Poissons Ratio (x) = 0.34240 0.31042
# Poissons Ratio (y) = 0.33313 0.14154
# Poissons Ratio (z) = 0.23503 0.11015
#
# Static dielectric constant tensor:
#      x y z
#    x 1.923360 0.000000 -0.055960 
#    y 0.000000 1.757460 0.000000 
#    z -0.055960 0.000000 1.839100 
# 
# From -- ./inp_files/81033.got.cif
#   From: 2010.05.17/outbox.cif.g08.bks.cpg/sg15_41_cif.got.tgz:81033.got - 2010.06.03 18:47:42.
