data_PCOD9303050
_publ_section_title
;
Structure prediction by ZEFSAII (Michael W. Deem and Ramdas Pophale) SiO2 
 PCOD9303050
Probable space group: C 2/C
;
_chemical_formula_sum "Si O2"
_cell_formula_units_Z 52
_cell_length_a 9.574695
_cell_length_b 20.988747
_cell_length_c 18.654976
_cell_angle_alpha 90.000000
_cell_angle_beta 134.258686
_cell_angle_gamma 90.000000
_cell_volume 2684.961967
_symmetry_space_group_name_H-M "C 2/C"
_symmetry_group_IT_number 15
_symmetry_cell_setting 'monoclinic'
loop_
_space_group_symop_operation_xyz
x,y,z
-x,y,1/2-z
-x,-y,-z
x,-y,1/2+z
1/2+x,1/2+y,z
1/2-x,1/2+y,1/2-z
1/2-x,1/2-y,-z
1/2+x,1/2-y,1/2+z
loop_
_atom_site_type_symbol
_atom_site_label
_atom_site_fract_x
_atom_site_fract_y
_atom_site_fract_z
Si Si1 0.735375 0.166674 0.332756
Si Si2 0.691276 0.741390 0.271109
Si Si3 0.269080 0.601181 0.583935
Si Si4 0.584421 0.233040 0.497336
Si Si5 0.722440 0.375836 0.253607
Si Si6 0.000000 0.547728 0.750000
Si Si7 0.794830 0.963775 0.941974
O O1 0.500000 0.177109 0.250000
O O2 0.792565 0.177430 0.270582
O O3 0.858641 0.220542 0.417997
O O4 0.785264 0.101093 0.391123
O O5 0.500000 0.743543 0.250000
O O6 0.705137 0.802975 0.223814
O O7 0.874622 0.746014 0.389643
O O8 0.114998 0.658092 0.520024
O O9 0.247818 0.586008 0.660967
O O10 0.490855 0.627174 0.658094
O O11 0.261171 0.552986 0.514056
O O12 0.750000 0.250000 0.500000
O O13 0.838535 0.410722 0.232659
O O14 0.116805 0.505693 0.849027
O O15 0.000000 0.000000 0.000000
#
# Coordination Sequence:
#
# PCOD9303050 Si02
#       7
#     8   8   8   8   8   4   8
#     4  12  22  42  71  99 128 172 227 273 329 403
#     4  12  25  41  63 103 141 165 211 288 349 384
#     4  11  22  42  69  97 125 171 232 268 324 396
#     4  12  21  37  70  99 126 169 219 270 331 395
#     4  11  22  41  69  97 130 171 219 280 328 399
#     4  12  26  44  66  98 134 178 220 272 334 388
#     4  12  25  44  67  94 134 182 223 269 326 403
#
# _framework density 19.367128000000001
#
# number of rings (size 3 to 8) (size 9 to 14) (size 15 to 20)
#    0.000    0.308    9.231    0.000    0.000    1.231 
#    2.769    1.538    0.000    0.000    0.000    0.000 
#    0.000    0.000    0.000    0.000    0.000    0.000 
#
# Total GULP energy -145032.911578 kJ/mol
# GULP energy per Si atom -5578.188907 kJ/mol
# Density = 1.932305 g / cm^3
# Si number density = 19.367128 Si / 1000 Ang^3
#
#
#
# Elastic Constant Matrix: (Units=GPa)
#
#
# Indices 1 2 3 4 5 6 
#
# 1 107.3074 23.1669 46.5450 0.0000 3.8895 0.0000
# 2 23.1669 66.0067 36.2425 0.0000 -7.9716 0.0000
# 3 46.5450 36.2425 120.5348 -0.0001 3.1845 0.0000
# 4 0.0000 0.0000 -0.0001 32.9254 0.0000 -5.7506
# 5 3.8895 -7.9716 3.1845 0.0000 29.3719 0.0000
# 6 0.0000 0.0000 0.0000 -5.7506 0.0000 10.7579
#
#
#
# Elastic Compliance Matrix: (Units=1/GPa)
#
#
# Indices 1 2 3 4 5 6 
#
# 1 0.011469 -0.002186 -0.003727 0.000000 -0.001708 0.000000
# 2 -0.002186 0.019505 -0.005183 0.000000 0.006145 0.000000
# 3 -0.003727 -0.005183 0.011351 0.000000 -0.002144 0.000000
# 4 0.000000 0.000000 0.000000 0.033499 0.000000 0.017907
# 5 -0.001708 0.006145 -0.002144 0.000000 0.036173 0.000000
# 6 0.000000 0.000000 0.000000 0.017907 0.000000 0.102527
#
#
# Mechanical properties :
#
#
# Convention : Reuss Voigt Hill
#
# Bulk Modulus (GPa) = 49.66677 56.19529 52.93103
# Shear Modulus (GPa) = 20.54011 27.13734 23.83872
#
# Velocity S-wave (km/s) = 3.26017 3.74733 3.51220
# Velocity P-wave (km/s) = 6.31444 6.91391 6.62096
#
# Compressibility (1/GPa) = 0.02013419
#
# Stress axis : x y z
#
# Youngs Moduli (GPa) = 87.19006 51.26840 88.10145
#
# Poissons Ratio (x) = 0.11205 0.32832
# Poissons Ratio (y) = 0.19056 0.45665
# Poissons Ratio (z) = 0.32492 0.26574
#
# Static dielectric constant tensor:
#      x y z
#    x 1.576650 0.000000 0.015750 
#    y 0.000000 1.654040 0.000000 
#    z 0.015750 0.000000 1.646660 
# 
# From -- ./inp_files/192605.got.cif
#   From: 2010.05.17/outbox.cif.g08.bks.cpg/sg15_97_cif.got.tgz:192605.got - 2010.06.03 18:47:42.
