data_PCOD9303218
_publ_section_title
;
Structure prediction by ZEFSAII (Michael W. Deem and Ramdas Pophale) SiO2 
 PCOD9303218
Probable space group: C 2/C
;
_chemical_formula_sum "Si O2"
_cell_formula_units_Z 40
_cell_length_a 26.831609
_cell_length_b 7.549573
_cell_length_c 15.745809
_cell_angle_alpha 90.000000
_cell_angle_beta 30.352225
_cell_angle_gamma 90.000000
_cell_volume 1611.742868
_symmetry_space_group_name_H-M "C 2/C"
_symmetry_group_IT_number 15
_symmetry_cell_setting 'monoclinic'
loop_
_space_group_symop_operation_xyz
x,y,z
-x,y,1/2-z
-x,-y,-z
x,-y,1/2+z
1/2+x,1/2+y,z
1/2-x,1/2+y,1/2-z
1/2-x,1/2-y,-z
1/2+x,1/2-y,1/2+z
loop_
_atom_site_type_symbol
_atom_site_label
_atom_site_fract_x
_atom_site_fract_y
_atom_site_fract_z
Si Si1 0.846224 0.676458 0.163520
Si Si2 0.576738 0.715786 0.765480
Si Si3 0.983528 0.575433 0.683026
Si Si4 0.338064 0.649086 0.325689
Si Si5 0.144043 0.069918 0.398420
O O1 0.890931 0.710511 0.189971
O O2 0.731253 0.632958 0.331104
O O3 0.859675 0.858276 0.092318
O O4 0.913344 0.533844 0.015595
O O5 0.641804 0.539894 0.658883
O O6 0.578502 0.895854 0.708998
O O7 0.464746 0.644848 0.926972
O O8 0.928718 0.716231 0.704609
O O9 0.000000 0.659983 0.750000
O O10 0.250000 0.750000 0.500000
O O11 0.325329 0.615293 0.244188
#
# Coordination Sequence:
#
# PCOD9303218 Si02
#       5
#     8   8   8   8   8
#     4  11  22  42  72 101 138 184 244 297 350 427
#     4  11  24  47  71 100 144 184 243 296 347 435
#     4  12  25  43  67 102 143 186 235 294 361 418
#     4  11  24  45  67  99 144 183 231 299 358 419
#     4  11  22  42  72 105 132 188 242 288 362 426
#
# _framework density 24.817854000000001
#
# number of rings (size 3 to 8) (size 9 to 14) (size 15 to 20)
#    0.000    0.800    4.000    4.200    2.800    3.200 
#    3.600    0.000    0.000    0.000    0.000    0.000 
#    0.000    0.000    0.000    0.000    0.000    0.000 
#
# Total GULP energy -112011.683089 kJ/mol
# GULP energy per Si atom -5600.584154 kJ/mol
# Density = 2.476137 g / cm^3
# Si number density = 24.817854 Si / 1000 Ang^3
#
#
#
# Elastic Constant Matrix: (Units=GPa)
#
#
# Indices 1 2 3 4 5 6 
#
# 1 50.6769 17.2519 34.8732 0.0002 -25.5797 -0.0004
# 2 17.2519 115.6360 9.0127 -0.0011 1.4643 -0.0001
# 3 34.8732 9.0127 85.1092 -0.0018 -15.0976 0.0006
# 4 0.0002 -0.0011 -0.0018 44.1171 0.0005 -5.5128
# 5 -25.5797 1.4643 -15.0976 0.0005 34.7731 -0.0001
# 6 -0.0004 -0.0001 0.0006 -5.5128 -0.0001 18.4865
#
#
#
# Elastic Compliance Matrix: (Units=1/GPa)
#
#
# Indices 1 2 3 4 5 6 
#
# 1 0.044261 -0.005963 -0.012659 -0.000001 0.027314 0.000001
# 2 -0.005963 0.009545 0.000632 0.000000 -0.004514 0.000000
# 3 -0.012659 0.000632 0.016483 0.000001 -0.002183 -0.000001
# 4 -0.000001 0.000000 0.000001 0.023544 -0.000001 0.007021
# 5 0.027314 -0.004514 -0.002183 -0.000001 0.048093 0.000001
# 6 0.000001 0.000000 -0.000001 0.007021 0.000001 0.056187
#
#
# Mechanical properties :
#
#
# Convention : Reuss Voigt Hill
#
# Bulk Modulus (GPa) = 29.14710 41.52197 35.33453
# Shear Modulus (GPa) = 20.36407 32.16095 26.26251
#
# Velocity S-wave (km/s) = 2.86762 3.60374 3.25654
# Velocity P-wave (km/s) = 4.76804 5.83806 5.32997
#
# Compressibility (1/GPa) = 0.03430873
#
# Stress axis : x y z
#
# Youngs Moduli (GPa) = 22.59314 104.76330 60.66991
#
# Poissons Ratio (x) = 0.62466 0.76803
# Poissons Ratio (y) = 0.13471 -0.03832
# Poissons Ratio (z) = 0.28601 -0.06617
#
# Static dielectric constant tensor:
#      x y z
#    x 1.932890 0.000000 -0.024160 
#    y 0.000000 1.960160 0.000000 
#    z -0.024160 0.000000 2.039060 
# 
# From -- ./inp_files/221793.got.cif
#   From: 2010.05.17/outbox.cif.g08.bks.cpg/sg15_111_cif.got.tgz:221793.got - 2010.06.03 18:47:42.
