data_PCOD9303214
_publ_section_title
;
Structure prediction by ZEFSAII (Michael W. Deem and Ramdas Pophale) SiO2 
 PCOD9303214
Probable space group: C 2/C
;
_chemical_formula_sum "Si O2"
_cell_formula_units_Z 40
_cell_length_a 18.447687
_cell_length_b 4.869303
_cell_length_c 19.067738
_cell_angle_alpha 90.000000
_cell_angle_beta 99.448282
_cell_angle_gamma 90.000000
_cell_volume 1689.569299
_symmetry_space_group_name_H-M "C 2/C"
_symmetry_group_IT_number 15
_symmetry_cell_setting 'monoclinic'
loop_
_space_group_symop_operation_xyz
x,y,z
-x,y,1/2-z
-x,-y,-z
x,-y,1/2+z
1/2+x,1/2+y,z
1/2-x,1/2+y,1/2-z
1/2-x,1/2-y,-z
1/2+x,1/2-y,1/2+z
loop_
_atom_site_type_symbol
_atom_site_label
_atom_site_fract_x
_atom_site_fract_y
_atom_site_fract_z
Si Si1 0.286235 0.016944 0.292266
Si Si2 0.547931 0.763174 0.687973
Si Si3 0.001293 0.236404 0.099608
Si Si4 0.301968 0.080927 0.455875
Si Si5 0.106972 0.069901 0.998102
O O1 0.230327 0.232071 0.248494
O O2 0.369492 0.122266 0.292757
O O3 0.274121 0.996795 0.374495
O O4 0.500000 0.782565 0.750000
O O5 0.545792 0.450670 0.661362
O O6 0.504111 0.955645 0.625931
O O7 0.923677 0.085815 0.074982
O O8 0.043171 0.214518 0.032551
O O9 0.250000 0.250000 0.500000
O O10 0.166150 0.688610 0.500680
O O11 0.363501 0.314323 0.451469
#
# Coordination Sequence:
#
# PCOD9303214 Si02
#       5
#     8   8   8   8   8
#     4  12  26  46  69  96 143 190 230 282 355 422
#     4  12  25  44  69 101 139 182 236 290 347 428
#     4  11  22  42  71  99 132 173 226 292 358 411
#     4  12  25  44  69 101 140 183 237 288 345 427
#     4  11  22  42  71  99 132 173 225 290 358 408
#
# _framework density 23.674675000000001
#
# number of rings (size 3 to 8) (size 9 to 14) (size 15 to 20)
#    0.000    0.400    4.000    4.800    0.000    8.000 
#    0.000    0.000    0.000    0.000    0.000    0.000 
#    0.000    0.000    0.000    0.000    0.000    0.000 
#
# Total GULP energy -111917.401730 kJ/mol
# GULP energy per Si atom -5595.870087 kJ/mol
# Density = 2.362079 g / cm^3
# Si number density = 23.674675 Si / 1000 Ang^3
#
#
#
# Elastic Constant Matrix: (Units=GPa)
#
#
# Indices 1 2 3 4 5 6 
#
# 1 77.5961 8.2558 41.3201 0.0000 -3.2927 0.0000
# 2 8.2558 106.8080 -2.6926 0.0000 18.3671 0.0000
# 3 41.3201 -2.6926 71.8655 0.0000 5.2668 0.0000
# 4 0.0000 0.0000 0.0000 46.3415 0.0000 17.1256
# 5 -3.2927 18.3671 5.2668 0.0000 31.2169 0.0000
# 6 0.0000 0.0000 0.0000 17.1256 0.0000 40.3819
#
#
#
# Elastic Compliance Matrix: (Units=1/GPa)
#
#
# Indices 1 2 3 4 5 6 
#
# 1 0.019761 -0.002815 -0.011889 0.000000 0.005747 0.000000
# 2 -0.002815 0.010869 0.002548 0.000000 -0.007122 0.000000
# 3 -0.011889 0.002548 0.021311 0.000000 -0.006349 0.000000
# 4 0.000000 0.000000 0.000000 0.025589 0.000000 -0.010852
# 5 0.005747 -0.007122 -0.006349 0.000000 0.037902 0.000000
# 6 0.000000 0.000000 0.000000 -0.010852 0.000000 0.029366
#
#
# Mechanical properties :
#
#
# Convention : Reuss Voigt Hill
#
# Bulk Modulus (GPa) = 36.19338 38.89291 37.54314
# Shear Modulus (GPa) = 28.03933 37.54715 32.79324
#
# Velocity S-wave (km/s) = 3.44519 3.98674 3.72581
# Velocity P-wave (km/s) = 5.58093 6.13643 5.86526
#
# Compressibility (1/GPa) = 0.02762936
#
# Stress axis : x y z
#
# Youngs Moduli (GPa) = 50.60359 92.00341 46.92364
#
# Poissons Ratio (x) = 0.25903 0.55786
# Poissons Ratio (y) = 0.14247 -0.11956
# Poissons Ratio (z) = 0.60161 -0.23442
#
# Static dielectric constant tensor:
#      x y z
#    x 2.038110 0.000000 0.039240 
#    y 0.000000 1.847000 0.000000 
#    z 0.039240 0.000000 1.893200 
# 
# From -- ./inp_files/208123.got.cif
#   From: 2010.05.17/outbox.cif.g08.bks.cpg/sg15_105_cif.got.tgz:208123.got - 2010.06.03 18:47:42.
