data_PCOD9303009
_publ_section_title
;
Structure prediction by ZEFSAII (Michael W. Deem and Ramdas Pophale) SiO2 
 PCOD9303009
Probable space group: C 2/C
;
_chemical_formula_sum "Si O2"
_cell_formula_units_Z 44
_cell_length_a 14.475891
_cell_length_b 22.039492
_cell_length_c 12.937785
_cell_angle_alpha 90.000000
_cell_angle_beta 147.332272
_cell_angle_gamma 90.000000
_cell_volume 2227.986430
_symmetry_space_group_name_H-M "C 2/C"
_symmetry_group_IT_number 15
_symmetry_cell_setting 'monoclinic'
loop_
_space_group_symop_operation_xyz
x,y,z
-x,y,1/2-z
-x,-y,-z
x,-y,1/2+z
1/2+x,1/2+y,z
1/2-x,1/2+y,1/2-z
1/2-x,1/2-y,-z
1/2+x,1/2-y,1/2+z
loop_
_atom_site_type_symbol
_atom_site_label
_atom_site_fract_x
_atom_site_fract_y
_atom_site_fract_z
Si Si1 0.534302 0.333606 0.901961
Si Si2 0.625434 0.982589 0.958092
Si Si3 0.427382 0.801098 0.297622
Si Si4 0.000000 0.042845 0.750000
Si Si5 0.464652 0.086134 0.480591
Si Si6 0.584669 0.434941 0.552693
O O1 0.500000 0.348994 0.750000
O O2 0.440549 0.269844 0.836418
O O3 0.732863 0.321385 0.106846
O O4 0.479390 0.386751 0.925144
O O5 0.500000 0.960196 0.750000
O O6 0.614188 0.935763 0.044091
O O7 0.820222 0.991792 0.103079
O O8 0.543256 0.044383 0.924736
O O9 0.500000 0.807445 0.250000
O O10 0.520713 0.845270 0.466792
O O11 0.963983 0.079155 0.611105
O O12 0.289277 0.067674 0.257966
O O13 0.500000 0.500000 0.500000
#
# Coordination Sequence:
#
# PCOD9303009 Si02
#       6
#     8   8   8   4   8   8
#     4  11  24  42  68  98 131 173 222 275 338 396
#     4  11  23  39  61  93 134 176 217 270 328 398
#     4  11  22  41  67  97 131 171 219 279 335 397
#     4  12  24  42  60  94 136 172 218 270 328 394
#     4  11  23  40  65  94 131 173 222 274 335 390
#     4  12  25  40  66  95 132 175 218 273 333 399
#
# _framework density 19.748774000000001
#
# number of rings (size 3 to 8) (size 9 to 14) (size 15 to 20)
#    0.000    0.727    3.636    6.000    3.818    1.455 
#    0.000    0.000    2.000    3.273    0.000    0.000 
#    0.000    0.000    0.000    0.000    0.000    0.000 
#
# Total GULP energy -122977.153619 kJ/mol
# GULP energy per Si atom -5589.870619 kJ/mol
# Density = 1.970383 g / cm^3
# Si number density = 19.748774 Si / 1000 Ang^3
#
#
#
# Elastic Constant Matrix: (Units=GPa)
#
#
# Indices 1 2 3 4 5 6 
#
# 1 121.4017 69.9482 41.4959 0.0000 1.0733 0.0000
# 2 69.9482 120.9715 29.0615 0.0000 -19.4653 0.0000
# 3 41.4959 29.0615 103.7996 0.0000 -1.8267 0.0000
# 4 0.0000 0.0000 0.0000 16.6867 0.0000 -9.1162
# 5 1.0733 -19.4653 -1.8267 0.0000 48.6007 0.0000
# 6 0.0000 0.0000 0.0000 -9.1162 0.0000 28.7306
#
#
#
# Elastic Compliance Matrix: (Units=1/GPa)
#
#
# Indices 1 2 3 4 5 6 
#
# 1 0.013948 -0.007810 -0.003452 0.000000 -0.003566 0.000000
# 2 -0.007810 0.013857 -0.000657 0.000000 0.005698 0.000000
# 3 -0.003452 -0.000657 0.011202 0.000000 0.000234 0.000000
# 4 0.000000 0.000000 0.000000 0.072495 0.000000 0.023003
# 5 -0.003566 0.005698 0.000234 0.000000 0.022945 0.000000
# 6 0.000000 0.000000 0.000000 0.023003 0.000000 0.042105
#
#
# Mechanical properties :
#
#
# Convention : Reuss Voigt Hill
#
# Bulk Modulus (GPa) = 65.92436 69.68710 67.80573
# Shear Modulus (GPa) = 24.33718 32.51475 28.42596
#
# Velocity S-wave (km/s) = 3.51428 4.06201 3.79803
# Velocity P-wave (km/s) = 7.06547 7.57386 7.32407
#
# Compressibility (1/GPa) = 0.01516890
#
# Stress axis : x y z
#
# Youngs Moduli (GPa) = 71.69301 72.16688 89.26787
#
# Poissons Ratio (x) = 0.56359 0.30819
# Poissons Ratio (y) = 0.55989 0.05867
# Poissons Ratio (z) = 0.24751 0.04743
#
# Static dielectric constant tensor:
#      x y z
#    x 1.744430 0.000000 0.019250 
#    y 0.000000 1.741640 0.000000 
#    z 0.019250 0.000000 1.745620 
# 
# From -- ./inp_files/39554.got.cif
#   From: 2010.05.17/outbox.cif.g08.bks.cpg/sg15_20_cif.got.tgz:39554.got - 2010.06.03 18:47:42.
