data_PCOD9303144
_publ_section_title
;
Structure prediction by ZEFSAII (Michael W. Deem and Ramdas Pophale) SiO2 
 PCOD9303144
Probable space group: C 2/C
;
_chemical_formula_sum "Si O2"
_cell_formula_units_Z 44
_cell_length_a 5.557430
_cell_length_b 15.688184
_cell_length_c 20.403217
_cell_angle_alpha 90.000000
_cell_angle_beta 115.033497
_cell_angle_gamma 90.000000
_cell_volume 1611.768071
_symmetry_space_group_name_H-M "C 2/C"
_symmetry_group_IT_number 15
_symmetry_cell_setting 'monoclinic'
loop_
_space_group_symop_operation_xyz
x,y,z
-x,y,1/2-z
-x,-y,-z
x,-y,1/2+z
1/2+x,1/2+y,z
1/2-x,1/2+y,1/2-z
1/2-x,1/2-y,-z
1/2+x,1/2-y,1/2+z
loop_
_atom_site_type_symbol
_atom_site_label
_atom_site_fract_x
_atom_site_fract_y
_atom_site_fract_z
Si Si1 0.500000 0.166093 0.750000
Si Si2 0.156013 0.336890 0.523526
Si Si3 0.912852 0.932739 0.840859
Si Si4 0.691207 0.555900 0.567662
Si Si5 0.000000 0.062706 0.750000
Si Si6 0.447376 0.726841 0.879711
Si Si7 0.000000 0.307874 0.750000
O O1 0.741273 0.113029 0.746072
O O2 0.636077 0.221234 0.822809
O O3 0.250000 0.250000 0.500000
O O4 0.395569 0.379938 0.590458
O O5 0.094989 0.400781 0.456663
O O6 0.972638 0.301222 0.560754
O O7 0.746087 0.872198 0.774342
O O8 0.723624 0.991192 0.865526
O O9 0.076274 0.000899 0.818192
O O10 0.500000 0.500000 0.500000
O O11 0.529150 0.634567 0.583124
O O12 0.559757 0.752330 0.821744
#
# Coordination Sequence:
#
# PCOD9303144 Si02
#       7
#     4   8   8   8   4   8   4
#     4  12  25  43  74 114 144 196 246 318 389 455
#     4   9  20  41  66  91 140 195 244 304 371 448
#     4  11  22  42  68 101 146 186 252 310 379 457
#     4   9  20  40  68  92 139 198 247 306 360 456
#     4  12  25  43  74 112 150 194 250 324 383 447
#     4  11  22  42  68 100 147 186 246 309 381 454
#     4  12  26  42  72 116 148 196 244 326 402 450
#
# _framework density 27.299211
#
# number of rings (size 3 to 8) (size 9 to 14) (size 15 to 20)
#    0.000    1.455    1.818    3.273    0.000    0.000 
#    0.000    9.091   16.000    0.000    0.000    0.000 
#    0.000    0.000    0.000    0.000    0.000    0.000 
#
# Total GULP energy -122936.345901 kJ/mol
# GULP energy per Si atom -5588.015723 kJ/mol
# Density = 2.723708 g / cm^3
# Si number density = 27.299211 Si / 1000 Ang^3
#
#
#
# Elastic Constant Matrix: (Units=GPa)
#
#
# Indices 1 2 3 4 5 6 
#
# 1 113.5185 55.8702 42.1234 0.0000 -11.7687 0.0000
# 2 55.8702 134.7586 64.9411 0.0000 -18.3666 0.0000
# 3 42.1234 64.9411 133.6409 0.0000 -29.5740 0.0000
# 4 0.0000 0.0000 0.0000 73.7108 0.0000 -13.2587
# 5 -11.7687 -18.3666 -29.5740 0.0000 44.4814 0.0000
# 6 0.0000 0.0000 0.0000 -13.2587 0.0000 44.7900
#
#
#
# Elastic Compliance Matrix: (Units=1/GPa)
#
#
# Indices 1 2 3 4 5 6 
#
# 1 0.011355 -0.003883 -0.001621 0.000000 0.000324 0.000000
# 2 -0.003883 0.011057 -0.003947 0.000000 0.000914 0.000000
# 3 -0.001621 -0.003947 0.011087 0.000000 0.005313 0.000000
# 4 0.000000 0.000000 0.000000 0.014330 0.000000 0.004242
# 5 0.000324 0.000914 0.005313 0.000000 0.026477 0.000000
# 6 0.000000 0.000000 0.000000 0.004242 0.000000 0.023582
#
#
# Mechanical properties :
#
#
# Convention : Reuss Voigt Hill
#
# Bulk Modulus (GPa) = 68.49930 78.64307 73.57119
# Shear Modulus (GPa) = 41.09999 47.19532 44.14766
#
# Velocity S-wave (km/s) = 3.88434 4.16241 4.02578
# Velocity P-wave (km/s) = 6.72785 7.20911 6.97263
#
# Compressibility (1/GPa) = 0.01459869
#
# Stress axis : x y z
#
# Youngs Moduli (GPa) = 88.06714 90.44033 90.19306
#
# Poissons Ratio (x) = 0.35114 0.14619
# Poissons Ratio (y) = 0.34192 0.35599
# Poissons Ratio (z) = 0.14274 0.35696
#
# Static dielectric constant tensor:
#      x y z
#    x 2.146030 0.000000 -0.060010 
#    y 0.000000 2.182630 0.000000 
#    z -0.060010 0.000000 2.142730 
# 
# From -- ./inp_files/227031.got.cif
#   From: 2010.05.17/outbox.cif.g08.bks.cpg/sg15_114_cif.got.tgz:227031.got - 2010.06.03 18:47:42.
