data_PCOD9303397
_publ_section_title
;
Structure prediction by ZEFSAII (Michael W. Deem and Ramdas Pophale) SiO2 
 PCOD9303397
Probable space group: C 2/C
;
_chemical_formula_sum "Si O2"
_cell_formula_units_Z 64
_cell_length_a 28.220224
_cell_length_b 11.710195
_cell_length_c 15.309589
_cell_angle_alpha 90.000000
_cell_angle_beta 36.399941
_cell_angle_gamma 90.000000
_cell_volume 3002.263963
_symmetry_space_group_name_H-M "C 2/C"
_symmetry_group_IT_number 15
_symmetry_cell_setting 'monoclinic'
loop_
_space_group_symop_operation_xyz
x,y,z
-x,y,1/2-z
-x,-y,-z
x,-y,1/2+z
1/2+x,1/2+y,z
1/2-x,1/2+y,1/2-z
1/2-x,1/2-y,-z
1/2+x,1/2-y,1/2+z
loop_
_atom_site_type_symbol
_atom_site_label
_atom_site_fract_x
_atom_site_fract_y
_atom_site_fract_z
Si Si1 0.332143 0.213724 0.492704
Si Si2 0.669908 0.748534 0.314993
Si Si3 0.534002 0.328029 0.538477
Si Si4 0.137510 0.088974 0.203681
Si Si5 0.344742 0.334752 0.301494
Si Si6 0.656204 0.278124 0.498765
Si Si7 0.094446 0.470513 0.132619
Si Si8 0.445147 0.903998 0.123485
O O1 0.350119 0.279609 0.555600
O O2 0.371294 0.263588 0.346875
O O3 0.237248 0.216147 0.615042
O O4 0.361643 0.084496 0.462879
O O5 0.663273 0.644358 0.257053
O O6 0.611481 0.845180 0.363503
O O7 0.760379 0.791973 0.174036
O O8 0.458809 0.411854 0.652084
O O9 0.589373 0.340247 0.371691
O O10 0.586754 0.338203 0.546681
O O11 0.496217 0.200640 0.588379
O O12 0.161977 0.170715 0.087352
O O13 0.172060 0.963607 0.142650
O O14 0.632601 0.144818 0.538153
O O15 0.102102 0.458996 0.225948
O O16 0.000000 0.476317 0.250000
O O17 0.500000 0.000000 0.000000
#
# Coordination Sequence:
#
# PCOD9303397 Si02
#       8
#     8   8   8   8   8   8   8   8
#     4  11  26  45  64 101 139 175 225 280 348 405
#     4  11  24  42  67 101 137 174 230 276 340 405
#     4  11  22  44  67  97 133 176 226 273 334 402
#     4  11  24  43  70  97 134 176 232 276 333 406
#     4  11  25  47  66  95 138 182 221 280 339 406
#     4  12  22  43  68 103 135 174 228 281 335 403
#     4  12  22  42  70  99 138 174 225 286 338 401
#     4  11  23  40  67 101 134 177 221 276 338 399
#
# _framework density 21.317246000000001
#
# number of rings (size 3 to 8) (size 9 to 14) (size 15 to 20)
#    0.000    0.750    5.000    3.375    1.750    2.000 
#    2.250    3.750    0.000    0.000    0.000    0.000 
#    0.000    0.000    0.000    0.000    0.000    0.000 
#
# Total GULP energy -179037.301144 kJ/mol
# GULP energy per Si atom -5594.915661 kJ/mol
# Density = 2.126873 g / cm^3
# Si number density = 21.317246 Si / 1000 Ang^3
#
#
#
# Elastic Constant Matrix: (Units=GPa)
#
#
# Indices 1 2 3 4 5 6 
#
# 1 104.7951 7.9926 2.9700 0.0000 16.0228 0.0000
# 2 7.9926 44.9785 -14.1809 0.0000 12.1548 0.0000
# 3 2.9700 -14.1809 42.1803 0.0000 10.0277 0.0000
# 4 0.0000 0.0000 0.0000 22.9096 0.0000 -0.3542
# 5 16.0228 12.1548 10.0277 0.0000 39.8063 0.0000
# 6 0.0000 0.0000 0.0000 -0.3542 0.0000 14.0252
#
#
#
# Elastic Compliance Matrix: (Units=1/GPa)
#
#
# Indices 1 2 3 4 5 6 
#
# 1 0.010193 -0.000796 -0.000072 0.000000 -0.003842 0.000000
# 2 -0.000796 0.029675 0.012882 0.000000 -0.011986 0.000000
# 3 -0.000072 0.012882 0.030818 0.000000 -0.011668 0.000000
# 4 0.000000 0.000000 0.000000 0.043667 0.000000 0.001103
# 5 -0.003842 -0.011986 -0.011668 0.000000 0.033267 0.000000
# 6 0.000000 0.000000 0.000000 0.001103 0.000000 0.071328
#
#
# Mechanical properties :
#
#
# Convention : Reuss Voigt Hill
#
# Bulk Modulus (GPa) = 10.55812 20.61303 15.58557
# Shear Modulus (GPa) = 22.07609 28.35971 25.21790
#
# Velocity S-wave (km/s) = 3.22156 3.65137 3.44318
# Velocity P-wave (km/s) = 4.33608 5.24093 4.80983
#
# Compressibility (1/GPa) = 0.09471383
#
# Stress axis : x y z
#
# Youngs Moduli (GPa) = 98.11111 33.69865 32.44896
#
# Poissons Ratio (x) = 0.02682 0.00233
# Poissons Ratio (y) = 0.07807 -0.41801
# Poissons Ratio (z) = 0.00706 -0.43411
#
# Static dielectric constant tensor:
#      x y z
#    x 1.779380 0.000000 -0.002860 
#    y 0.000000 1.752030 0.000000 
#    z -0.002860 0.000000 1.763450 
# 
# From -- ./inp_files/177831.got.cif
#   From: 2010.05.17/outbox.cif.g08.bks.cpg/sg15_89_cif.got.tgz:177831.got - 2010.06.03 18:47:42.
