data_PCOD9303223
_publ_section_title
;
Structure prediction by ZEFSAII (Michael W. Deem and Ramdas Pophale) SiO2 
 PCOD9303223
Probable space group: C 2/C
;
_chemical_formula_sum "Si O2"
_cell_formula_units_Z 64
_cell_length_a 27.404994
_cell_length_b 9.023329
_cell_length_c 14.629393
_cell_angle_alpha 90.000000
_cell_angle_beta 134.883518
_cell_angle_gamma 90.000000
_cell_volume 2563.238033
_symmetry_space_group_name_H-M "C 2/C"
_symmetry_group_IT_number 15
_symmetry_cell_setting 'monoclinic'
loop_
_space_group_symop_operation_xyz
x,y,z
-x,y,1/2-z
-x,-y,-z
x,-y,1/2+z
1/2+x,1/2+y,z
1/2-x,1/2+y,1/2-z
1/2-x,1/2-y,-z
1/2+x,1/2-y,1/2+z
loop_
_atom_site_type_symbol
_atom_site_label
_atom_site_fract_x
_atom_site_fract_y
_atom_site_fract_z
Si Si1 0.848417 0.266621 0.400361
Si Si2 0.545014 0.286498 0.608373
Si Si3 0.360430 0.093009 0.643687
Si Si4 0.408821 0.726341 0.038267
Si Si5 0.575761 0.488402 0.283845
Si Si6 0.770659 0.918435 0.055192
Si Si7 0.930268 0.337659 0.687634
Si Si8 0.219185 0.054288 0.713708
O O1 0.921522 0.239990 0.445479
O O2 0.873496 0.317518 0.533361
O O3 0.795897 0.388304 0.287777
O O4 0.804860 0.112676 0.343368
O O5 0.607041 0.216904 0.751249
O O6 0.470621 0.234002 0.548940
O O7 0.549316 0.452751 0.651476
O O8 0.384880 0.141713 0.574061
O O9 0.281787 0.048701 0.542283
O O10 0.397002 0.939645 0.719721
O O11 0.434754 0.594912 0.141798
O O12 0.340724 0.662679 0.901044
O O13 0.657245 0.463896 0.391366
O O14 0.548977 0.322863 0.252719
O O15 0.778703 0.929139 0.174413
O O16 0.750000 0.750000 0.000000
O O17 0.000000 0.416629 0.750000
#
# Coordination Sequence:
#
# PCOD9303223 Si02
#       8
#     8   8   8   8   8   8   8   8
#     4  12  27  48  74 106 143 190 238 296 363 419
#     4  11  26  46  72 107 139 185 242 291 356 434
#     4  11  24  47  71  99 146 184 238 294 355 430
#     4  11  25  45  72 102 144 185 230 293 360 419
#     4  11  22  42  72 103 135 187 233 296 352 417
#     4  12  24  44  70 105 135 183 241 290 353 422
#     4  12  24  45  71 100 143 189 236 292 357 421
#     4  12  26  47  72 105 149 183 234 301 354 426
#
# _framework density 24.968419999999998
#
# number of rings (size 3 to 8) (size 9 to 14) (size 15 to 20)
#    0.000    0.500    5.000    3.750    1.750    2.500 
#    0.000    1.250    0.000    0.000    0.000    0.000 
#    0.000    0.000    0.000    0.000    0.000    0.000 
#
# Total GULP energy -178886.931821 kJ/mol
# GULP energy per Si atom -5590.216619 kJ/mol
# Density = 2.491159 g / cm^3
# Si number density = 24.968420 Si / 1000 Ang^3
#
#
#
# Elastic Constant Matrix: (Units=GPa)
#
#
# Indices 1 2 3 4 5 6 
#
# 1 89.0143 -2.4712 4.8306 0.0000 32.5777 0.0000
# 2 -2.4712 72.2483 8.9779 0.0000 -7.1111 0.0000
# 3 4.8306 8.9779 108.9128 0.0000 13.4116 0.0000
# 4 0.0000 0.0000 0.0000 273.3423 0.0000 32.4639
# 5 32.5777 -7.1111 13.4116 0.0000 42.6075 0.0000
# 6 0.0000 0.0000 0.0000 32.4639 0.0000 27.5234
#
#
#
# Elastic Compliance Matrix: (Units=1/GPa)
#
#
# Indices 1 2 3 4 5 6 
#
# 1 0.015712 -0.000798 0.000899 0.000000 -0.012430 0.000000
# 2 -0.000798 0.014355 -0.001579 0.000000 0.003503 0.000000
# 3 0.000899 -0.001579 0.009768 0.000000 -0.004026 0.000000
# 4 0.000000 0.000000 0.000000 0.004254 0.000000 -0.005018
# 5 -0.012430 0.003503 -0.004026 0.000000 0.034826 0.000000
# 6 0.000000 0.000000 0.000000 -0.005018 0.000000 0.042252
#
#
# Mechanical properties :
#
#
# Convention : Reuss Voigt Hill
#
# Bulk Modulus (GPa) = 27.11510 32.53891 29.82701
# Shear Modulus (GPa) = 36.65286 85.95051 61.30169
#
# Velocity S-wave (km/s) = 3.83556 5.87354 4.96034
# Velocity P-wave (km/s) = 5.52257 7.68493 6.69167
#
# Compressibility (1/GPa) = 0.03687982
#
# Stress axis : x y z
#
# Youngs Moduli (GPa) = 63.64434 69.66270 102.37821
#
# Poissons Ratio (x) = 0.05557 -0.09209
# Poissons Ratio (y) = 0.05077 0.16168
# Poissons Ratio (z) = -0.05725 0.11002
#
# Static dielectric constant tensor:
#      x y z
#    x 2.102540 0.000000 0.010130 
#    y 0.000000 2.007710 0.000000 
#    z 0.010130 0.000000 1.955910 
# 
# From -- ./inp_files/224617.got.cif
#   From: 2010.05.17/outbox.cif.g08.bks.cpg/sg15_113_cif.got.tgz:224617.got - 2010.06.03 18:47:42.
