data_PCOD9303037
_publ_section_title
;
Structure prediction by ZEFSAII (Michael W. Deem and Ramdas Pophale) SiO2 
 PCOD9303037
Probable space group: C 2/C
;
_chemical_formula_sum "Si O2"
_cell_formula_units_Z 48
_cell_length_a 30.423092
_cell_length_b 14.901924
_cell_length_c 14.777993
_cell_angle_alpha 90.000000
_cell_angle_beta 160.272096
_cell_angle_gamma 90.000000
_cell_volume 2261.538904
_symmetry_space_group_name_H-M "C 2/C"
_symmetry_group_IT_number 15
_symmetry_cell_setting 'monoclinic'
loop_
_space_group_symop_operation_xyz
x,y,z
-x,y,1/2-z
-x,-y,-z
x,-y,1/2+z
1/2+x,1/2+y,z
1/2-x,1/2+y,1/2-z
1/2-x,1/2-y,-z
1/2+x,1/2-y,1/2+z
loop_
_atom_site_type_symbol
_atom_site_label
_atom_site_fract_x
_atom_site_fract_y
_atom_site_fract_z
Si Si1 0.461146 0.233954 0.949730
Si Si2 0.880750 0.444655 0.729110
Si Si3 0.900558 0.082866 0.814324
Si Si4 0.349399 0.950466 0.983611
Si Si5 0.307067 0.242534 0.464796
Si Si6 0.863577 0.082680 0.957610
O O1 0.408620 0.225719 0.744241
O O2 0.331647 0.233725 0.759629
O O3 0.559591 0.154569 0.167141
O O4 0.531883 0.329224 0.094334
O O5 0.739898 0.435856 0.503267
O O6 0.846411 0.503474 0.575552
O O7 0.000000 0.500000 0.000000
O O8 0.872770 0.100456 0.867595
O O9 0.000000 0.000000 0.000000
O O10 0.500000 0.949599 0.250000
O O11 0.299189 0.849300 0.893278
O O12 0.255093 0.017077 0.746847
O O13 0.350216 0.324949 0.486331
O O14 0.000000 0.038830 0.250000
#
# Coordination Sequence:
#
# PCOD9303037 Si02
#       6
#     8   8   8   8   8   8
#     4  11  22  41  68  97 134 173 229 280 338 406
#     4  11  23  41  66 101 133 173 224 280 335 402
#     4  11  25  43  69 100 139 177 230 280 339 408
#     4  11  24  42  64  96 134 172 225 277 342 401
#     4  11  23  41  69  96 130 182 223 278 345 403
#     4  11  23  44  66  96 136 180 225 280 339 403
#
# _framework density 21.224485000000001
#
# number of rings (size 3 to 8) (size 9 to 14) (size 15 to 20)
#    0.000    1.000    3.333    4.000    2.333    1.333 
#    0.000    7.500    0.000    0.000    0.000    0.000 
#    0.000    0.000    0.000    0.000    0.000    0.000 
#
# Total GULP energy -134081.952801 kJ/mol
# GULP energy per Si atom -5586.748033 kJ/mol
# Density = 2.117618 g / cm^3
# Si number density = 21.224485 Si / 1000 Ang^3
#
#
#
# Elastic Constant Matrix: (Units=GPa)
#
#
# Indices 1 2 3 4 5 6 
#
# 1 45.9973 4.1684 -0.6085 0.0000 17.0706 0.0000
# 2 4.1684 146.2707 41.7932 0.0000 21.7835 0.0000
# 3 -0.6085 41.7932 117.1468 0.0000 24.3470 0.0000
# 4 0.0000 0.0000 0.0000 57.4840 0.0000 5.1729
# 5 17.0706 21.7835 24.3470 0.0000 27.9051 0.0000
# 6 0.0000 0.0000 0.0000 5.1729 0.0000 25.8761
#
#
#
# Elastic Compliance Matrix: (Units=1/GPa)
#
#
# Indices 1 2 3 4 5 6 
#
# 1 0.030482 0.001347 0.004607 0.000000 -0.023718 0.000000
# 2 0.001347 0.008134 -0.001715 0.000000 -0.005677 0.000000
# 3 0.004607 -0.001715 0.011579 0.000000 -0.011582 0.000000
# 4 0.000000 0.000000 0.000000 0.017715 0.000000 -0.003541
# 5 -0.023718 -0.005677 -0.011582 0.000000 0.064882 0.000000
# 6 0.000000 0.000000 0.000000 -0.003541 0.000000 0.039354
#
#
# Mechanical properties :
#
#
# Convention : Reuss Voigt Hill
#
# Bulk Modulus (GPa) = 17.04351 44.45790 30.75070
# Shear Modulus (GPa) = 27.28896 39.85715 33.57306
#
# Velocity S-wave (km/s) = 3.58960 4.33816 3.98151
# Velocity P-wave (km/s) = 5.02273 6.78858 5.97129
#
# Compressibility (1/GPa) = 0.05867337
#
# Stress axis : x y z
#
# Youngs Moduli (GPa) = 32.80677 122.94491 86.36147
#
# Poissons Ratio (x) = -0.16563 -0.39787
# Poissons Ratio (y) = -0.04420 0.14810
# Poissons Ratio (z) = -0.15114 0.21083
#
# Static dielectric constant tensor:
#      x y z
#    x 1.746520 0.000000 -0.011570 
#    y 0.000000 1.800220 0.000000 
#    z -0.011570 0.000000 1.872750 
# 
# From -- ./inp_files/182497.got.cif
#   From: 2010.05.17/outbox.cif.g08.bks.cpg/sg15_92_cif.got.tgz:182497.got - 2010.06.03 18:47:42.
