data_PCOD9303097
_publ_section_title
;
Structure prediction by ZEFSAII (Michael W. Deem and Ramdas Pophale) SiO2 
 PCOD9303097
Probable space group: C 2/C
;
_chemical_formula_sum "Si O2"
_cell_formula_units_Z 64
_cell_length_a 20.169084
_cell_length_b 6.830661
_cell_length_c 26.160048
_cell_angle_alpha 90.000000
_cell_angle_beta 54.111802
_cell_angle_gamma 90.000000
_cell_volume 2919.843204
_symmetry_space_group_name_H-M "C 2/C"
_symmetry_group_IT_number 15
_symmetry_cell_setting 'monoclinic'
loop_
_space_group_symop_operation_xyz
x,y,z
-x,y,1/2-z
-x,-y,-z
x,-y,1/2+z
1/2+x,1/2+y,z
1/2-x,1/2+y,1/2-z
1/2-x,1/2-y,-z
1/2+x,1/2-y,1/2+z
loop_
_atom_site_type_symbol
_atom_site_label
_atom_site_fract_x
_atom_site_fract_y
_atom_site_fract_z
Si Si1 0.578691 0.513936 0.586075
Si Si2 0.717443 0.362111 0.965072
Si Si3 0.835273 0.707727 0.888366
Si Si4 0.091561 0.136830 0.345119
Si Si5 0.741070 0.697630 0.340963
Si Si6 0.210688 0.239592 0.201963
Si Si7 0.640391 0.785348 0.797334
Si Si8 0.521314 0.120541 0.180844
O O1 0.620533 0.610178 0.517658
O O2 0.646404 0.378423 0.581034
O O3 0.505374 0.361198 0.608364
O O4 0.556232 0.685667 0.636684
O O5 0.761119 0.571208 0.939229
O O6 0.741333 0.262738 0.900598
O O7 0.750000 0.250000 0.000000
O O8 0.814507 0.809423 0.843836
O O9 0.913264 0.557258 0.848955
O O10 0.149450 0.228606 0.361836
O O11 0.133695 0.207335 0.273712
O O12 0.103559 0.902157 0.341790
O O13 0.764710 0.469902 0.316694
O O14 0.810839 0.794614 0.274728
O O15 0.288451 0.143590 0.196248
O O16 0.563999 0.912040 0.811797
O O17 0.500000 0.159046 0.250000
#
# Coordination Sequence:
#
# PCOD9303097 Si02
#       8
#     8   8   8   8   8   8   8   8
#     4  11  25  38  61  91 123 159 208 256 304 370
#     4  11  22  42  60  83 118 167 214 249 303 368
#     4  11  24  39  65  89 124 166 203 259 310 369
#     4   9  20  36  58  93 120 152 195 254 315 368
#     4   9  19  37  62  84 117 164 199 243 310 370
#     4   9  19  36  57  88 122 157 194 247 315 376
#     4   9  19  36  58  89 125 153 198 250 312 381
#     4  11  23  37  61  94 127 159 202 258 318 369
#
# _framework density 21.918983000000001
#
# number of rings (size 3 to 8) (size 9 to 14) (size 15 to 20)
#    0.000    2.000    1.250    1.875    7.000    0.500 
#    0.000    0.000    0.000    0.750    0.000    0.000 
#    0.000    0.000    0.000    0.000    0.000    0.000 
#
# Total GULP energy -178466.361264 kJ/mol
# GULP energy per Si atom -5577.073790 kJ/mol
# Density = 2.186909 g / cm^3
# Si number density = 21.918983 Si / 1000 Ang^3
#
#
#
# Elastic Constant Matrix: (Units=GPa)
#
#
# Indices 1 2 3 4 5 6 
#
# 1 103.0583 9.4757 51.8777 0.0028 0.6274 0.0086
# 2 9.4757 56.1158 12.9603 0.0062 -1.9473 0.0126
# 3 51.8777 12.9603 92.8687 -0.0032 -3.3231 0.0016
# 4 0.0028 0.0062 -0.0032 31.1937 -0.0010 -2.3383
# 5 0.6274 -1.9473 -3.3231 -0.0010 30.1234 -0.0020
# 6 0.0086 0.0126 0.0016 -2.3383 -0.0020 16.8059
#
#
#
# Elastic Compliance Matrix: (Units=1/GPa)
#
#
# Indices 1 2 3 4 5 6 
#
# 1 0.013556 -0.000590 -0.007531 -0.000002 -0.001151 -0.000006
# 2 -0.000590 0.018464 -0.002213 -0.000005 0.000962 -0.000014
# 3 -0.007531 -0.002213 0.015345 0.000003 0.001707 0.000005
# 4 -0.000002 -0.000005 0.000003 0.032396 0.000001 0.004507
# 5 -0.001151 0.000962 0.001707 0.000001 0.033471 0.000004
# 6 -0.000006 -0.000014 0.000005 0.004507 0.000004 0.060130
#
#
# Mechanical properties :
#
#
# Convention : Reuss Voigt Hill
#
# Bulk Modulus (GPa) = 37.45726 44.51890 40.98808
# Shear Modulus (GPa) = 24.63927 27.47323 26.05625
#
# Velocity S-wave (km/s) = 3.35641 3.54418 3.45157
# Velocity P-wave (km/s) = 5.66980 6.09122 5.88429
#
# Compressibility (1/GPa) = 0.02669709
#
# Stress axis : x y z
#
# Youngs Moduli (GPa) = 73.77063 54.15844 65.16856
#
# Poissons Ratio (x) = 0.03193 0.49080
# Poissons Ratio (y) = 0.04349 0.14422
# Poissons Ratio (z) = 0.55558 0.11985
#
# Static dielectric constant tensor:
#      x y z
#    x 1.867910 0.000000 -0.028480 
#    y 0.000000 1.879820 -0.000010 
#    z -0.028480 -0.000010 1.780930 
# 
# From -- ./inp_files/279553.got.cif
#   From: 2010.05.17/outbox.cif.g08.bks.cpg/sg15_140_cif.got.tgz:279553.got - 2010.06.03 18:47:42.
