data_PCOD9303040
_publ_section_title
;
Structure prediction by ZEFSAII (Michael W. Deem and Ramdas Pophale) SiO2 
 PCOD9303040
Probable space group: C 2/C
;
_chemical_formula_sum "Si O2"
_cell_formula_units_Z 52
_cell_length_a 7.382936
_cell_length_b 11.813920
_cell_length_c 24.972167
_cell_angle_alpha 90.000000
_cell_angle_beta 71.043037
_cell_angle_gamma 90.000000
_cell_volume 2059.973403
_symmetry_space_group_name_H-M "C 2/C"
_symmetry_group_IT_number 15
_symmetry_cell_setting 'monoclinic'
loop_
_space_group_symop_operation_xyz
x,y,z
-x,y,1/2-z
-x,-y,-z
x,-y,1/2+z
1/2+x,1/2+y,z
1/2-x,1/2+y,1/2-z
1/2-x,1/2-y,-z
1/2+x,1/2-y,1/2+z
loop_
_atom_site_type_symbol
_atom_site_label
_atom_site_fract_x
_atom_site_fract_y
_atom_site_fract_z
Si Si1 0.000000 0.557836 0.750000
Si Si2 0.463547 0.198978 0.404277
Si Si3 0.627176 0.463741 0.109355
Si Si4 0.313242 0.781837 0.434382
Si Si5 0.249256 0.605187 0.175678
Si Si6 0.271913 0.516534 0.015089
Si Si7 0.864063 0.336676 0.163228
O O1 0.818340 0.477598 0.771115
O O2 0.009925 0.626244 0.694454
O O3 0.422429 0.332481 0.399847
O O4 0.678828 0.212772 0.406530
O O5 0.408259 0.128226 0.356306
O O6 0.325483 0.134910 0.460026
O O7 0.442098 0.542887 0.135055
O O8 0.747828 0.442090 0.151483
O O9 0.753731 0.501679 0.046046
O O10 0.250000 0.750000 0.500000
O O11 0.532290 0.771157 0.396009
O O12 0.301394 0.918437 0.438625
O O13 0.257017 0.731166 0.199444
O O14 0.500000 0.500000 0.000000
#
# Coordination Sequence:
#
# PCOD9303040 Si02
#       7
#     4   8   8   8   8   8   8
#     4  12  28  50  72 104 136 180 246 306 378 434
#     4  11  22  41  68  98 143 188 237 291 352 437
#     4  11  23  43  70 102 141 185 240 289 365 435
#     4  12  26  42  67 108 151 190 241 297 370 453
#     4  11  26  47  73 100 135 185 238 304 375 435
#     4  12  22  37  67 103 141 192 233 288 359 437
#     4  11  28  47  71 106 142 187 247 309 363 453
#
# _framework density 25.243041999999999
#
# number of rings (size 3 to 8) (size 9 to 14) (size 15 to 20)
#    0.000    0.615    3.077    4.154    2.154   11.692 
#    0.000    0.000    0.000    0.000    0.000    0.000 
#    0.000    0.000    0.000    0.000    0.000    0.000 
#
# Total GULP energy -145117.367072 kJ/mol
# GULP energy per Si atom -5581.437195 kJ/mol
# Density = 2.518559 g / cm^3
# Si number density = 25.243042 Si / 1000 Ang^3
#
#
#
# Elastic Constant Matrix: (Units=GPa)
#
#
# Indices 1 2 3 4 5 6 
#
# 1 90.2099 41.8705 10.6280 0.0000 15.3136 0.0000
# 2 41.8705 134.0227 17.9595 0.0000 6.5805 0.0000
# 3 10.6280 17.9595 68.0546 0.0000 2.4901 0.0000
# 4 0.0000 0.0000 0.0000 6.0027 0.0000 -7.9022
# 5 15.3136 6.5805 2.4901 0.0000 31.6232 0.0000
# 6 0.0000 0.0000 0.0000 -7.9022 0.0000 46.2104
#
#
#
# Elastic Compliance Matrix: (Units=1/GPa)
#
#
# Indices 1 2 3 4 5 6 
#
# 1 0.014040 -0.003972 -0.000928 0.000000 -0.005899 0.000000
# 2 -0.003972 0.008926 -0.001743 0.000000 0.000203 0.000000
# 3 -0.000928 -0.001743 0.015313 0.000000 -0.000394 0.000000
# 4 0.000000 0.000000 0.000000 0.214989 0.000000 0.036764
# 5 -0.005899 0.000203 -0.000394 0.000000 0.034468 0.000000
# 6 0.000000 0.000000 0.000000 0.036764 0.000000 0.027927
#
#
# Mechanical properties :
#
#
# Convention : Reuss Voigt Hill
#
# Bulk Modulus (GPa) = 40.01207 48.13370 44.07288
# Shear Modulus (GPa) = 14.82448 31.55588 23.19018
#
# Velocity S-wave (km/s) = 2.42599 3.53949 3.03426
# Velocity P-wave (km/s) = 4.87159 5.98443 5.45646
#
# Compressibility (1/GPa) = 0.02499246
#
# Stress axis : x y z
#
# Youngs Moduli (GPa) = 71.22664 112.03343 65.30243
#
# Poissons Ratio (x) = 0.44501 0.06063
# Poissons Ratio (y) = 0.28292 0.11380
# Poissons Ratio (z) = 0.06613 0.19524
#
# Static dielectric constant tensor:
#      x y z
#    x 2.066370 0.000000 -0.018870 
#    y 0.000000 2.110010 0.000000 
#    z -0.018870 0.000000 2.121210 
# 
# From -- ./inp_files/287597.got.cif
#   From: 2010.05.17/outbox.cif.g08.bks.cpg/sg15_144_cif.got.tgz:287597.got - 2010.06.03 18:47:42.
