data_PCOD9303519
_publ_section_title
;
Structure prediction by ZEFSAII (Michael W. Deem and Ramdas Pophale) SiO2 
 PCOD9303519
Probable space group: C 2/C
;
_chemical_formula_sum "Si O2"
_cell_formula_units_Z 48
_cell_length_a 15.488351
_cell_length_b 7.590401
_cell_length_c 26.231662
_cell_angle_alpha 90.000000
_cell_angle_beta 136.396097
_cell_angle_gamma 90.000000
_cell_volume 2126.847423
_symmetry_space_group_name_H-M "C 2/C"
_symmetry_group_IT_number 15
_symmetry_cell_setting 'monoclinic'
loop_
_space_group_symop_operation_xyz
x,y,z
-x,y,1/2-z
-x,-y,-z
x,-y,1/2+z
1/2+x,1/2+y,z
1/2-x,1/2+y,1/2-z
1/2-x,1/2-y,-z
1/2+x,1/2-y,1/2+z
loop_
_atom_site_type_symbol
_atom_site_label
_atom_site_fract_x
_atom_site_fract_y
_atom_site_fract_z
Si Si1 0.124813 0.389636 0.277063
Si Si2 0.783121 0.810760 0.070694
Si Si3 0.318159 0.872071 0.908343
Si Si4 0.062111 0.176032 0.045975
Si Si5 0.176138 0.355163 0.181905
Si Si6 0.053030 0.780472 0.224093
O O1 0.239051 0.296003 0.354721
O O2 0.124578 0.360584 0.216397
O O3 0.111251 0.601638 0.273105
O O4 0.000000 0.318499 0.250000
O O5 0.684458 0.710324 0.064374
O O6 0.928862 0.759164 0.138427
O O7 0.756991 0.009625 0.081585
O O8 0.750000 0.750000 0.000000
O O9 0.342702 0.987804 0.867428
O O10 0.450190 0.814941 0.988439
O O11 0.111425 0.192134 0.124789
O O12 0.000000 0.000000 0.000000
O O13 0.326676 0.355735 0.252063
O O14 0.000000 0.887444 0.250000
#
# Coordination Sequence:
#
# PCOD9303519 Si02
#       6
#     8   8   8   8   8   8
#     4  11  27  41  69 101 138 180 238 292 353 415
#     4  11  26  44  72 105 142 189 237 295 360 430
#     4  11  25  45  72 103 143 189 240 291 358 434
#     4  11  25  45  68 103 144 186 234 291 360 428
#     4  11  23  45  70  99 138 186 235 292 354 423
#     4  11  22  45  67  99 144 182 236 290 359 423
#
# _framework density 22.568615999999999
#
# number of rings (size 3 to 8) (size 9 to 14) (size 15 to 20)
#    0.000    1.000    3.333    4.000   11.667    1.333 
#    0.000    1.667    0.000    0.000    0.000    0.000 
#    0.000    0.000    0.000    0.000    0.000    0.000 
#
# Total GULP energy -133906.400457 kJ/mol
# GULP energy per Si atom -5579.433352 kJ/mol
# Density = 2.251725 g / cm^3
# Si number density = 22.568616 Si / 1000 Ang^3
#
#
#
# Elastic Constant Matrix: (Units=GPa)
#
#
# Indices 1 2 3 4 5 6 
#
# 1 156.5984 14.9741 71.1289 0.0000 -8.6931 0.0000
# 2 14.9741 80.6739 31.5562 0.0000 14.5665 0.0000
# 3 71.1289 31.5562 192.1653 0.0000 23.4357 0.0000
# 4 0.0000 0.0000 0.0000 39.1319 0.0000 8.9673
# 5 -8.6931 14.5665 23.4357 0.0000 44.3350 0.0000
# 6 0.0000 0.0000 0.0000 8.9673 0.0000 11.4091
#
#
#
# Elastic Compliance Matrix: (Units=1/GPa)
#
#
# Indices 1 2 3 4 5 6 
#
# 1 0.008186 -0.000876 -0.003332 0.000000 0.003654 0.000000
# 2 -0.000876 0.013845 -0.001468 0.000000 -0.003944 0.000000
# 3 -0.003332 -0.001468 0.007161 0.000000 -0.003956 0.000000
# 4 0.000000 0.000000 0.000000 0.031168 0.000000 -0.024498
# 5 0.003654 -0.003944 -0.003956 0.000000 0.026659 0.000000
# 6 0.000000 0.000000 0.000000 -0.024498 0.000000 0.106904
#
#
# Mechanical properties :
#
#
# Convention : Reuss Voigt Hill
#
# Bulk Modulus (GPa) = 56.05592 73.86176 64.95884
# Shear Modulus (GPa) = 23.67191 39.76043 31.71617
#
# Velocity S-wave (km/s) = 3.24216 4.20188 3.75283
# Velocity P-wave (km/s) = 6.23758 7.50598 6.90099
#
# Compressibility (1/GPa) = 0.01783933
#
# Stress axis : x y z
#
# Youngs Moduli (GPa) = 122.16536 72.22997 139.65301
#
# Poissons Ratio (x) = 0.06327 0.46527
# Poissons Ratio (y) = 0.10701 0.20504
# Poissons Ratio (z) = 0.40701 0.10605
#
# Static dielectric constant tensor:
#      x y z
#    x 1.963520 0.000000 -0.019540 
#    y 0.000000 1.996400 0.000000 
#    z -0.019540 0.000000 1.840090 
# 
# From -- ./inp_files/295450.got.cif
#   From: 2010.05.17/outbox.cif.g08.bks.cpg/sg15_148_cif.got.tgz:295450.got - 2010.06.03 18:47:42.
