data_PCOD9303260
_publ_section_title
;
Structure prediction by ZEFSAII (Michael W. Deem and Ramdas Pophale) SiO2 
 PCOD9303260
Probable space group: C 2/C
;
_chemical_formula_sum "Si O2"
_cell_formula_units_Z 60
_cell_length_a 12.184427
_cell_length_b 7.157877
_cell_length_c 31.709751
_cell_angle_alpha 90.000000
_cell_angle_beta 96.973264
_cell_angle_gamma 90.000000
_cell_volume 2745.097145
_symmetry_space_group_name_H-M "C 2/C"
_symmetry_group_IT_number 15
_symmetry_cell_setting 'monoclinic'
loop_
_space_group_symop_operation_xyz
x,y,z
-x,y,1/2-z
-x,-y,-z
x,-y,1/2+z
1/2+x,1/2+y,z
1/2-x,1/2+y,1/2-z
1/2-x,1/2-y,-z
1/2+x,1/2-y,1/2+z
loop_
_atom_site_type_symbol
_atom_site_label
_atom_site_fract_x
_atom_site_fract_y
_atom_site_fract_z
Si Si1 0.001722 0.509029 0.796592
Si Si2 0.341389 0.554847 0.647011
Si Si3 0.750000 0.250000 0.500000
Si Si4 0.048312 0.926796 0.708253
Si Si5 0.106542 0.444371 0.622133
Si Si6 0.259401 0.051615 0.169261
Si Si7 0.129996 0.150490 0.082566
Si Si8 0.456118 0.664413 0.567134
O O1 0.127469 0.552291 0.815748
O O2 0.000000 0.418282 0.750000
O O3 0.937530 0.703419 0.788336
O O4 0.949451 0.409921 0.834899
O O5 0.451316 0.467346 0.670880
O O6 0.237652 0.419415 0.634494
O O7 0.297042 0.728963 0.672761
O O8 0.378740 0.636150 0.604152
O O9 0.798306 0.199310 0.454865
O O10 0.623774 0.279964 0.474366
O O11 0.165201 0.001236 0.698123
O O12 0.000000 0.993598 0.750000
O O13 0.094944 0.659767 0.605765
O O14 0.046635 0.319114 0.584546
O O15 0.203103 0.037346 0.120615
O O16 0.024733 0.026797 0.064740
#
# Coordination Sequence:
#
# PCOD9303260 Si02
#       8
#     8   8   4   8   8   8   8   8
#     4  11  23  40  63  97 136 178 228 279 333 395
#     4  11  22  43  64  94 136 175 226 277 335 405
#     4  12  24  48  72 102 142 166 226 300 330 418
#     4  11  25  39  64  98 130 179 235 277 328 402
#     4  11  23  46  71  97 139 185 223 278 344 410
#     4  11  22  43  63  89 136 174 218 284 331 396
#     4  11  24  47  70  99 138 173 229 281 341 418
#     4  12  24  46  71 101 132 183 220 279 356 402
#
# _framework density 21.857151999999999
#
# number of rings (size 3 to 8) (size 9 to 14) (size 15 to 20)
#    0.000    0.800    8.000    0.400    3.733    1.067 
#    2.400    1.333    0.000    0.000    0.000    0.000 
#    0.000    0.000    0.000    0.000    0.000    0.000 
#
# Total GULP energy -167102.676168 kJ/mol
# GULP energy per Si atom -5570.089206 kJ/mol
# Density = 2.180740 g / cm^3
# Si number density = 21.857152 Si / 1000 Ang^3
#
#
#
# Elastic Constant Matrix: (Units=GPa)
#
#
# Indices 1 2 3 4 5 6 
#
# 1 118.2427 10.3138 -27.6509 0.0000 26.5302 0.0000
# 2 10.3138 57.7162 12.6804 0.0000 -11.8563 0.0000
# 3 -27.6509 12.6804 -78.6979 0.0000 163.3778 0.0000
# 4 0.0000 0.0000 0.0000 -11.5684 0.0000 -2.0105
# 5 26.5302 -11.8563 163.3778 0.0000 -143.0975 0.0000
# 6 0.0000 0.0000 0.0000 -2.0105 0.0000 21.3978
#
#
#
# Elastic Compliance Matrix: (Units=1/GPa)
#
#
# Indices 1 2 3 4 5 6 
#
# 1 0.008199 -0.001137 -0.000210 0.000000 0.001375 0.000000
# 2 -0.001137 0.017196 0.000164 0.000000 -0.001448 0.000000
# 3 -0.000210 0.000164 0.009280 0.000000 0.010543 0.000000
# 4 0.000000 0.000000 0.000000 -0.085053 0.000000 -0.007991
# 5 0.001375 -0.001448 0.010543 0.000000 0.005423 0.000000
# 6 0.000000 0.000000 0.000000 -0.007991 0.000000 0.045983
#
#
# Mechanical properties :
#
#
# Convention : Reuss Voigt Hill
#
# Bulk Modulus (GPa) = 30.94966 9.77196 20.36081
# Shear Modulus (GPa) = 353.06594 -19.85913 166.60341
#
# Velocity S-wave (km/s) = 12.72337 -3.01755 8.74009
# Velocity P-wave (km/s) = 15.16694 2.76772 10.54457
#
# Compressibility (1/GPa) = 0.03231053
#
# Stress axis : x y z
#
# Youngs Moduli (GPa) = 121.96876 58.15389 107.75961
#
# Poissons Ratio (x) = 0.06610 0.02260
# Poissons Ratio (y) = 0.13863 -0.01771
# Poissons Ratio (z) = 0.02558 -0.00956
#
# Static dielectric constant tensor:
#      x y z
#    x 1.781500 0.000000 -0.010460 
#    y 0.000000 1.865980 0.000000 
#    z -0.010460 0.000000 1.790350 
# 
# From -- ./inp_files/310016.got.cif
#   From: 2010.05.17/outbox.cif.g08.bks.cpg/sg15_156_cif.got.tgz:310016.got - 2010.06.03 18:47:42.
