data_PCOD9303920
_publ_section_title
;
Structure prediction by ZEFSAII (Michael W. Deem and Ramdas Pophale) SiO2 
 PCOD9303920
Probable space group: C 2/C
;
_chemical_formula_sum "Si O2"
_cell_formula_units_Z 48
_cell_length_a 4.940032
_cell_length_b 22.036637
_cell_length_c 22.504458
_cell_angle_alpha 90.000000
_cell_angle_beta 104.919626
_cell_angle_gamma 90.000000
_cell_volume 2367.283108
_symmetry_space_group_name_H-M "C 2/C"
_symmetry_group_IT_number 15
_symmetry_cell_setting 'monoclinic'
loop_
_space_group_symop_operation_xyz
x,y,z
-x,y,1/2-z
-x,-y,-z
x,-y,1/2+z
1/2+x,1/2+y,z
1/2-x,1/2+y,1/2-z
1/2-x,1/2-y,-z
1/2+x,1/2-y,1/2+z
loop_
_atom_site_type_symbol
_atom_site_label
_atom_site_fract_x
_atom_site_fract_y
_atom_site_fract_z
Si Si1 0.172755 0.523960 0.318718
Si Si2 0.248191 0.453928 0.499495
Si Si3 0.691902 0.797250 0.708112
Si Si4 0.120927 0.828096 0.321216
Si Si5 0.758690 0.089430 0.129449
Si Si6 0.188167 0.391609 0.371157
O O1 0.487551 0.548374 0.330879
O O2 0.148276 0.453010 0.331372
O O3 0.000000 0.537035 0.250000
O O4 0.027844 0.558199 0.365545
O O5 0.500000 0.500000 0.500000
O O6 0.291819 0.413492 0.560707
O O7 0.188775 0.412233 0.439308
O O8 0.000000 0.500000 0.500000
O O9 0.500000 0.826034 0.750000
O O10 0.498680 0.740100 0.679222
O O11 0.753899 0.844873 0.659660
O O12 0.000000 0.778206 0.750000
O O13 0.449163 0.842416 0.342312
O O14 0.000000 0.848466 0.250000
O O15 0.983309 0.865812 0.366427
#
# Coordination Sequence:
#
# PCOD9303920 Si02
#       6
#     8   8   8   8   8   8
#     4  12  23  36  61  96 129 156 205 273 327 385
#     4  12  23  44  62  88 129 175 211 258 322 388
#     4  11  23  42  66  93 130 171 214 268 331 389
#     4  11  23  41  63  92 127 167 208 265 327 382
#     4  12  23  41  63  92 126 170 215 256 324 385
#     4  12  23  40  63  93 126 167 216 258 323 388
#
# _framework density 20.276409999999998
#
# number of rings (size 3 to 8) (size 9 to 14) (size 15 to 20)
#    0.000    0.333    3.333    8.500    0.000    0.000 
#    0.000    1.667    0.000    0.000    0.000    0.000 
#    0.000    0.000    0.000    0.000    0.000    0.000 
#
# Total GULP energy -134193.130330 kJ/mol
# GULP energy per Si atom -5591.380430 kJ/mol
# Density = 2.023026 g / cm^3
# Si number density = 20.276410 Si / 1000 Ang^3
#
#
#
# Elastic Constant Matrix: (Units=GPa)
#
#
# Indices 1 2 3 4 5 6 
#
# 1 104.7320 15.7032 12.0054 0.0000 -2.6956 0.0000
# 2 15.7032 108.5993 35.1951 0.0000 -3.8500 0.0000
# 3 12.0054 35.1951 120.8400 0.0000 -19.6520 0.0000
# 4 0.0000 0.0000 0.0000 22.5344 0.0000 -16.9034
# 5 -2.6956 -3.8500 -19.6520 0.0000 32.9446 0.0000
# 6 0.0000 0.0000 0.0000 -16.9034 0.0000 30.7432
#
#
#
# Elastic Compliance Matrix: (Units=1/GPa)
#
#
# Indices 1 2 3 4 5 6 
#
# 1 0.009805 -0.001223 -0.000566 0.000000 0.000322 0.000000
# 2 -0.001223 0.010333 -0.002999 0.000000 -0.000681 0.000000
# 3 -0.000566 -0.002999 0.010122 0.000000 0.005642 0.000000
# 4 0.000000 0.000000 0.000000 0.075526 0.000000 0.041526
# 5 0.000322 -0.000681 0.005642 0.000000 0.033666 0.000000
# 6 0.000000 0.000000 0.000000 0.041526 0.000000 0.055360
#
#
# Mechanical properties :
#
#
# Convention : Reuss Voigt Hill
#
# Bulk Modulus (GPa) = 48.34369 51.10876 49.72622
# Shear Modulus (GPa) = 23.66516 35.32893 29.49705
#
# Velocity S-wave (km/s) = 3.42003 4.17869 3.81825
# Velocity P-wave (km/s) = 6.28407 6.96726 6.63447
#
# Compressibility (1/GPa) = 0.02068522
#
# Stress axis : x y z
#
# Youngs Moduli (GPa) = 101.99224 96.78020 98.79031
#
# Poissons Ratio (x) = 0.11837 0.05587
# Poissons Ratio (y) = 0.12474 0.29625
# Poissons Ratio (z) = 0.05768 0.29022
#
# Static dielectric constant tensor:
#      x y z
#    x 1.679770 0.000000 0.009410 
#    y 0.000000 1.738890 0.000000 
#    z 0.009410 0.000000 1.734700 
# 
# From -- ./inp_files/261051.got.cif
#   From: 2010.05.17/outbox.cif.g08.bks.cpg/sg15_131_cif.got.tgz:261051.got - 2010.06.03 18:47:42.
