data_PCOD9303849
_publ_section_title
;
Structure prediction by ZEFSAII (Michael W. Deem and Ramdas Pophale) SiO2 
 PCOD9303849
Probable space group: C 2/C
;
_chemical_formula_sum "Si O2"
_cell_formula_units_Z 48
_cell_length_a 14.545822
_cell_length_b 30.054049
_cell_length_c 5.274033
_cell_angle_alpha 90.000000
_cell_angle_beta 109.554084
_cell_angle_gamma 90.000000
_cell_volume 2172.627463
_symmetry_space_group_name_H-M "C 2/C"
_symmetry_group_IT_number 15
_symmetry_cell_setting 'monoclinic'
loop_
_space_group_symop_operation_xyz
x,y,z
-x,y,1/2-z
-x,-y,-z
x,-y,1/2+z
1/2+x,1/2+y,z
1/2-x,1/2+y,1/2-z
1/2-x,1/2-y,-z
1/2+x,1/2-y,1/2+z
loop_
_atom_site_type_symbol
_atom_site_label
_atom_site_fract_x
_atom_site_fract_y
_atom_site_fract_z
Si Si1 0.500000 0.528851 0.750000
Si Si2 0.851620 0.390732 0.302614
Si Si3 0.865783 0.103244 0.742195
Si Si4 0.130432 0.669932 0.169964
Si Si5 0.000000 0.738714 0.250000
Si Si6 0.655015 0.307170 0.600158
Si Si7 0.000000 0.850292 0.750000
Si Si8 0.000000 0.532405 0.750000
O O1 0.500000 0.500000 0.500000
O O2 0.402251 0.558628 0.647797
O O3 0.737309 0.403211 0.216055
O O4 0.875872 0.365003 0.594390
O O5 0.915279 0.432846 0.266608
O O6 0.863463 0.356303 0.084809
O O7 0.852394 0.145543 0.549522
O O8 0.956828 0.117324 0.000016
O O9 0.042008 0.704342 0.084979
O O10 0.230260 0.698997 0.277086
O O11 0.090046 0.769577 0.411595
O O12 0.592909 0.318275 0.793001
O O13 0.000000 0.500000 0.500000
#
# Coordination Sequence:
#
# PCOD9303849 Si02
#       8
#     4   8   8   8   4   8   4   4
#     4  12  26  38  62 100 134 160 206 270 335 393
#     4  11  25  47  71  96 134 181 226 274 336 413
#     4  11  23  42  66  91 134 179 225 263 335 410
#     4  11  25  43  67 101 134 185 227 279 342 403
#     4  12  23  43  62  99 144 168 233 299 339 382
#     4  11  23  40  65  96 128 187 230 274 332 408
#     4  12  17  40  69  89 126 176 235 261 334 393
#     4  12  26  47  75 106 134 172 224 280 340 402
#
# _framework density 22.093063999999998
#
# number of rings (size 3 to 8) (size 9 to 14) (size 15 to 20)
#    0.000    0.667    5.000    3.000    0.000    2.667 
#    0.000    3.333    0.000    0.000    0.000    0.000 
#    0.000    0.000    0.000    0.000    0.000    0.000 
#
# Total GULP energy -133879.080655 kJ/mol
# GULP energy per Si atom -5578.295027 kJ/mol
# Density = 2.204278 g / cm^3
# Si number density = 22.093064 Si / 1000 Ang^3
#
#
#
# Elastic Constant Matrix: (Units=GPa)
#
#
# Indices 1 2 3 4 5 6 
#
# 1 165.0756 88.4836 21.2274 0.0000 -12.8308 0.0000
# 2 88.4836 121.0142 30.0613 0.0000 -13.0962 0.0000
# 3 21.2274 30.0613 73.4087 0.0000 -25.2521 0.0000
# 4 0.0000 0.0000 0.0000-3495.8792 0.0000-1433.6852
# 5 -12.8308 -13.0962 -25.2521 0.0000 34.2576 0.0000
# 6 0.0000 0.0000 0.0000-1433.6852 0.0000 -581.6792
#
#
#
# Elastic Compliance Matrix: (Units=1/GPa)
#
#
# Indices 1 2 3 4 5 6 
#
# 1 0.010011 -0.007314 0.000574 0.000000 0.001376 0.000000
# 2 -0.007314 0.014567 -0.003855 0.000000 -0.000012 0.000000
# 3 0.000574 -0.003855 0.019562 0.000000 0.013161 0.000000
# 4 0.000000 0.000000 0.000000 0.026472 0.000000 -0.065247
# 5 0.001376 -0.000012 0.013161 0.000000 0.039403 0.000000
# 6 0.000000 0.000000 0.000000 -0.065247 0.000000 0.159099
#
#
# Mechanical properties :
#
#
# Convention : Reuss Voigt Hill
#
# Bulk Modulus (GPa) = 43.56978 71.00479 57.28729
# Shear Modulus (GPa) = 16.78107 -794.01174 -388.61534
#
# Velocity S-wave (km/s) = 2.75901 -18.97826 -13.27709
# Velocity P-wave (km/s) = 5.46931 21.16657 14.45874
#
# Compressibility (1/GPa) = 0.02295169
#
# Stress axis : x y z
#
# Youngs Moduli (GPa) = 99.88726 68.64680 51.11870
#
# Poissons Ratio (x) = 0.50205 -0.02932
# Poissons Ratio (y) = 0.73053 0.19704
# Poissons Ratio (z) = -0.05729 0.26460
#
# Static dielectric constant tensor:
#      x y z
#    x 1.885880 0.000000 -0.053560 
#    y 0.000000 1.890840 0.000000 
#    z -0.053560 0.000000 1.850800 
# 
# From -- ./inp_files/8864.got.cif
#   From: 2010.05.17/outbox.cif.g08.bks.cpg/sg15_5_cif.got.tgz:8864.got - 2010.06.03 18:47:42.
