data_PCOD9303385
_publ_section_title
;
Structure prediction by ZEFSAII (Michael W. Deem and Ramdas Pophale) SiO2 
 PCOD9303385
Probable space group: C 2/C
;
_chemical_formula_sum "Si O2"
_cell_formula_units_Z 48
_cell_length_a 10.776821
_cell_length_b 9.052098
_cell_length_c 23.694041
_cell_angle_alpha 90.000000
_cell_angle_beta 96.040492
_cell_angle_gamma 90.000000
_cell_volume 2298.587457
_symmetry_space_group_name_H-M "C 2/C"
_symmetry_group_IT_number 15
_symmetry_cell_setting 'monoclinic'
loop_
_space_group_symop_operation_xyz
x,y,z
-x,y,1/2-z
-x,-y,-z
x,-y,1/2+z
1/2+x,1/2+y,z
1/2-x,1/2+y,1/2-z
1/2-x,1/2-y,-z
1/2+x,1/2-y,1/2+z
loop_
_atom_site_type_symbol
_atom_site_label
_atom_site_fract_x
_atom_site_fract_y
_atom_site_fract_z
Si Si1 0.641343 0.675038 0.031819
Si Si2 0.259504 0.819846 0.859979
Si Si3 0.641424 0.191809 0.262760
Si Si4 0.945938 0.613260 0.689686
Si Si5 0.695878 0.132754 0.641118
Si Si6 0.865429 0.178783 0.970936
O O1 0.664602 0.743122 0.094442
O O2 0.501435 0.712489 0.003600
O O3 0.750000 0.750000 0.000000
O O4 0.651710 0.497902 0.031588
O O5 0.301658 0.820451 0.796692
O O6 0.136680 0.720457 0.851551
O O7 0.235443 0.987285 0.878829
O O8 0.355723 0.744822 0.907395
O O9 0.500000 0.248543 0.250000
O O10 0.724254 0.296934 0.305062
O O11 0.627457 0.031504 0.292173
O O12 0.000000 0.685524 0.750000
O O13 0.065398 0.571296 0.658760
O O14 0.750000 0.250000 0.000000
#
# Coordination Sequence:
#
# PCOD9303385 Si02
#       6
#     8   8   8   8   8   8
#     4  11  27  47  72 101 134 180 234 285 340 408
#     4  12  23  41  71  97 133 181 220 275 339 396
#     4  11  23  43  65  99 138 175 222 274 333 402
#     4  11  22  44  64  96 141 175 223 271 331 404
#     4  12  25  43  68  99 137 179 222 279 339 398
#     4  11  26  49  70 101 138 177 232 286 344 406
#
# _framework density 20.882390000000001
#
# number of rings (size 3 to 8) (size 9 to 14) (size 15 to 20)
#    0.000    0.667    5.000    3.000    2.333    6.000 
#    3.000    0.000    0.000    0.000    0.000    0.000 
#    0.000    0.000    0.000    0.000    0.000    0.000 
#
# Total GULP energy -134164.933171 kJ/mol
# GULP energy per Si atom -5590.205549 kJ/mol
# Density = 2.083486 g / cm^3
# Si number density = 20.882390 Si / 1000 Ang^3
#
#
#
# Elastic Constant Matrix: (Units=GPa)
#
#
# Indices 1 2 3 4 5 6 
#
# 1 97.7031 65.1771 33.0887 0.0000 23.0387 0.0000
# 2 65.1771 117.8077 56.3919 0.0000 25.2638 0.0000
# 3 33.0887 56.3919 98.0282 0.0000 23.1549 0.0000
# 4 0.0000 0.0000 0.0000 35.4963 0.0000 1.5338
# 5 23.0387 25.2638 23.1549 0.0000 35.5200 0.0000
# 6 0.0000 0.0000 0.0000 1.5338 0.0000 19.1440
#
#
#
# Elastic Compliance Matrix: (Units=1/GPa)
#
#
# Indices 1 2 3 4 5 6 
#
# 1 0.016982 -0.008445 0.000365 0.000000 -0.005246 0.000000
# 2 -0.008445 0.016603 -0.006153 0.000000 -0.002321 0.000000
# 3 0.000365 -0.006153 0.014940 0.000000 -0.005600 0.000000
# 4 0.000000 0.000000 0.000000 0.028270 0.000000 -0.002265
# 5 -0.005246 -0.002321 -0.005600 0.000000 0.036857 0.000000
# 6 0.000000 0.000000 0.000000 -0.002265 0.000000 0.052417
#
#
# Mechanical properties :
#
#
# Convention : Reuss Voigt Hill
#
# Bulk Modulus (GPa) = 49.84898 69.20605 59.52752
# Shear Modulus (GPa) = 24.84821 28.62415 26.73618
#
# Velocity S-wave (km/s) = 3.45325 3.70636 3.58204
# Velocity P-wave (km/s) = 6.31055 7.17836 6.75840
#
# Compressibility (1/GPa) = 0.02006059
#
# Stress axis : x y z
#
# Youngs Moduli (GPa) = 58.88518 60.22832 66.93468
#
# Poissons Ratio (x) = 0.50864 -0.02444
# Poissons Ratio (y) = 0.49729 0.41182
# Poissons Ratio (z) = -0.02150 0.37056
#
# Static dielectric constant tensor:
#      x y z
#    x 1.769370 0.000000 -0.027080 
#    y 0.000000 1.736680 0.000000 
#    z -0.027080 0.000000 1.749190 
# 
# From -- ./inp_files/267790.got.cif
#   From: 2010.05.17/outbox.cif.g08.bks.cpg/sg15_134_cif.got.tgz:267790.got - 2010.06.03 18:47:42.
