data_PCOD9303792
_publ_section_title
;
Structure prediction by ZEFSAII (Michael W. Deem and Ramdas Pophale) SiO2 
 PCOD9303792
Probable space group: C 2/C
;
_chemical_formula_sum "Si O2"
_cell_formula_units_Z 64
_cell_length_a 16.111279
_cell_length_b 17.690081
_cell_length_c 25.392075
_cell_angle_alpha 90.000000
_cell_angle_beta 153.565002
_cell_angle_gamma 90.000000
_cell_volume 3221.779746
_symmetry_space_group_name_H-M "C 2/C"
_symmetry_group_IT_number 15
_symmetry_cell_setting 'monoclinic'
loop_
_space_group_symop_operation_xyz
x,y,z
-x,y,1/2-z
-x,-y,-z
x,-y,1/2+z
1/2+x,1/2+y,z
1/2-x,1/2+y,1/2-z
1/2-x,1/2-y,-z
1/2+x,1/2-y,1/2+z
loop_
_atom_site_type_symbol
_atom_site_label
_atom_site_fract_x
_atom_site_fract_y
_atom_site_fract_z
Si Si1 0.677845 0.123589 0.734769
Si Si2 0.919129 0.492318 0.147017
Si Si3 0.011142 0.995036 0.069860
Si Si4 0.457279 0.214054 0.942940
Si Si5 0.351279 0.272547 0.710883
Si Si6 0.853952 0.847994 0.816413
Si Si7 0.676497 0.299991 0.379170
Si Si8 0.946164 0.657887 0.120893
O O1 0.516175 0.065531 0.661783
O O2 0.626470 0.157810 0.648608
O O3 0.685034 0.193713 0.779395
O O4 0.875040 0.079793 0.849211
O O5 0.974359 0.578210 0.164985
O O6 0.000000 0.471547 0.250000
O O7 0.695742 0.494980 0.024483
O O8 0.126433 0.065832 0.157012
O O9 0.000000 0.000000 0.000000
O O10 0.467682 0.296021 0.921384
O O11 0.323546 0.218468 0.917174
O O12 0.662687 0.194631 0.079001
O O13 0.500000 0.260773 0.750000
O O14 0.419400 0.329333 0.795043
O O15 0.638924 0.822423 0.701095
O O16 0.500000 0.337117 0.250000
O O17 0.781726 0.346160 0.484401
O O18 0.604617 0.223578 0.366783
#
# Coordination Sequence:
#
# PCOD9303792 Si02
#       8
#     8   8   8   8   8   8   8   8
#     4  11  26  44  67 102 131 171 227 271 329 397
#     4  12  25  42  66  97 132 170 216 277 339 383
#     4  12  25  42  68  93 135 168 216 275 335 388
#     4  11  25  42  68  95 136 172 217 274 324 394
#     4  11  26  44  68  94 134 178 223 270 325 389
#     4  11  23  43  65  99 127 173 221 273 327 388
#     4  11  23  39  65  97 132 169 216 262 334 395
#     4  11  23  40  66  97 134 167 219 276 327 400
#
# _framework density 19.864796999999999
#
# number of rings (size 3 to 8) (size 9 to 14) (size 15 to 20)
#    0.000    0.750    5.000    1.500    8.750    1.000 
#    0.000    2.500    0.000    0.000    0.000    0.000 
#    0.000    0.000    0.000    0.000    0.000    0.000 
#
# Total GULP energy -178905.077676 kJ/mol
# GULP energy per Si atom -5590.783677 kJ/mol
# Density = 1.981958 g / cm^3
# Si number density = 19.864797 Si / 1000 Ang^3
#
#
#
# Elastic Constant Matrix: (Units=GPa)
#
#
# Indices 1 2 3 4 5 6 
#
# 1 93.0631 21.1415 34.2237 0.0011 6.1134 0.0004
# 2 21.1415 69.7268 4.2465 0.0033 -5.8809 0.0006
# 3 34.2237 4.2465 73.0707 0.0057 6.7349 0.0015
# 4 0.0011 0.0033 0.0057 25.8835 0.0004 7.4104
# 5 6.1134 -5.8809 6.7349 0.0004 35.0233 -0.0001
# 6 0.0004 0.0006 0.0015 7.4104 -0.0001 16.3816
#
#
#
# Elastic Compliance Matrix: (Units=1/GPa)
#
#
# Indices 1 2 3 4 5 6 
#
# 1 0.014064 -0.004053 -0.006172 0.000001 -0.001949 0.000000
# 2 -0.004053 0.015801 0.000682 -0.000002 0.003229 0.000000
# 3 -0.006172 0.000682 0.016723 -0.000003 -0.002024 0.000000
# 4 0.000001 -0.000002 -0.000003 0.044383 0.000000 -0.020077
# 5 -0.001949 0.003229 -0.002024 0.000000 0.029824 0.000000
# 6 0.000000 0.000000 0.000000 -0.020077 0.000000 0.070126
#
#
# Mechanical properties :
#
#
# Convention : Reuss Voigt Hill
#
# Bulk Modulus (GPa) = 36.35924 39.45378 37.90651
# Shear Modulus (GPa) = 22.81303 27.20761 25.01032
#
# Velocity S-wave (km/s) = 3.39250 3.70488 3.55213
# Velocity P-wave (km/s) = 5.80418 6.18108 5.99559
#
# Compressibility (1/GPa) = 0.02750333
#
# Stress axis : x y z
#
# Youngs Moduli (GPa) = 71.10491 63.28595 59.79812
#
# Poissons Ratio (x) = 0.25648 0.36906
# Poissons Ratio (y) = 0.28816 -0.04079
# Poissons Ratio (z) = 0.43885 -0.04317
#
# Static dielectric constant tensor:
#      x y z
#    x 1.703940 0.000000 0.042130 
#    y 0.000000 1.672480 0.000000 
#    z 0.042130 0.000000 1.766180 
# 
# From -- ./inp_files/155493.got.cif
#   From: 2010.05.17/outbox.cif.g08.bks.cpg/sg15_78_cif.got.tgz:155493.got - 2010.06.03 18:47:42.
