data_PCOD9303761
_publ_section_title
;
Structure prediction by ZEFSAII (Michael W. Deem and Ramdas Pophale) SiO2 
 PCOD9303761
Probable space group: C 2/C
;
_chemical_formula_sum "Si O2"
_cell_formula_units_Z 36
_cell_length_a 9.111636
_cell_length_b 27.461253
_cell_length_c 11.719696
_cell_angle_alpha 90.000000
_cell_angle_beta 140.899619
_cell_angle_gamma 90.000000
_cell_volume 1849.450803
_symmetry_space_group_name_H-M "C 2/C"
_symmetry_group_IT_number 15
_symmetry_cell_setting 'monoclinic'
loop_
_space_group_symop_operation_xyz
x,y,z
-x,y,1/2-z
-x,-y,-z
x,-y,1/2+z
1/2+x,1/2+y,z
1/2-x,1/2+y,1/2-z
1/2-x,1/2-y,-z
1/2+x,1/2-y,1/2+z
loop_
_atom_site_type_symbol
_atom_site_label
_atom_site_fract_x
_atom_site_fract_y
_atom_site_fract_z
Si Si1 0.382026 0.550930 0.962002
Si Si2 0.497315 0.305265 0.619313
Si Si3 0.323589 0.881018 0.746930
Si Si4 0.000000 0.709594 0.750000
Si Si5 0.460887 0.947658 0.036707
O O1 0.260139 0.548975 0.012213
O O2 0.181906 0.561973 0.750012
O O3 0.500000 0.500000 0.000000
O O4 0.586932 0.589503 0.082835
O O5 0.500000 0.326191 0.750000
O O6 0.727179 0.326374 0.701393
O O7 0.509561 0.246996 0.647965
O O8 0.246912 0.317029 0.411776
O O9 0.500000 0.886684 0.750000
O O10 0.429257 0.905590 0.924067
O O11 0.500000 0.000000 0.000000
#
# Coordination Sequence:
#
# PCOD9303761 Si02
#       5
#     8   8   8   4   8
#     4  11  23  39  60  85 114 160 205 253 301 348
#     4   9  18  38  64  90 114 151 196 245 306 360
#     4  12  25  38  57  89 125 162 203 246 291 368
#     4   8  18  38  70  88 116 148 192 262 306 366
#     4  11  23  39  60  83 116 158 205 254 302 346
#
# _framework density 19.465239
#
# number of rings (size 3 to 8) (size 9 to 14) (size 15 to 20)
#    0.667    0.889    2.222    3.333    0.000    6.222 
#    0.000    1.111    0.000    0.000    0.000    0.000 
#    0.000    0.000    0.000    0.000    0.000    0.000 
#
# Total GULP energy -100445.175537 kJ/mol
# GULP energy per Si atom -5580.287530 kJ/mol
# Density = 1.942094 g / cm^3
# Si number density = 19.465239 Si / 1000 Ang^3
#
#
#
# Elastic Constant Matrix: (Units=GPa)
#
#
# Indices 1 2 3 4 5 6 
#
# 1 172.4024 34.9346 63.0136 0.0000 11.6869 0.0000
# 2 34.9346 48.8257 19.5463 0.0000 6.4668 0.0000
# 3 63.0136 19.5463 135.7319 0.0000 8.8032 0.0000
# 4 0.0000 0.0000 0.0000 20.7787 0.0000 19.2572
# 5 11.6869 6.4668 8.8032 0.0000 25.3930 0.0000
# 6 0.0000 0.0000 0.0000 19.2572 0.0000 29.7814
#
#
#
# Elastic Compliance Matrix: (Units=1/GPa)
#
#
# Indices 1 2 3 4 5 6 
#
# 1 0.007830 -0.004230 -0.002928 0.000000 -0.001511 0.000000
# 2 -0.004230 0.024546 -0.001322 0.000000 -0.003846 0.000000
# 3 -0.002928 -0.001322 0.009010 0.000000 -0.001440 0.000000
# 4 0.000000 0.000000 0.000000 0.120097 0.000000 -0.077657
# 5 -0.001511 -0.003846 -0.001440 0.000000 0.041555 0.000000
# 6 0.000000 0.000000 0.000000 -0.077657 0.000000 0.083793
#
#
# Mechanical properties :
#
#
# Convention : Reuss Voigt Hill
#
# Bulk Modulus (GPa) = 40.93744 65.77211 53.35477
# Shear Modulus (GPa) = 16.02908 31.15498 23.59203
#
# Velocity S-wave (km/s) = 2.87273 4.00502 3.48517
# Velocity P-wave (km/s) = 5.66394 7.43302 6.60795
#
# Compressibility (1/GPa) = 0.02442752
#
# Stress axis : x y z
#
# Youngs Moduli (GPa) = 127.71076 40.73965 110.98217
#
# Poissons Ratio (x) = 0.17233 0.32495
# Poissons Ratio (y) = 0.54023 0.14666
# Poissons Ratio (z) = 0.37393 0.05384
#
# Static dielectric constant tensor:
#      x y z
#    x 1.684750 0.000000 -0.016760 
#    y 0.000000 1.808640 0.000000 
#    z -0.016760 0.000000 1.692790 
# 
# From -- ./inp_files/81943.got.cif
#   From: 2010.05.17/outbox.cif.g08.bks.cpg/sg15_41_cif.got.tgz:81943.got - 2010.06.03 18:47:42.
