data_PCOD9303791
_publ_section_title
;
Structure prediction by ZEFSAII (Michael W. Deem and Ramdas Pophale) SiO2 
 PCOD9303791
Probable space group: C 2/C
;
_chemical_formula_sum "Si O2"
_cell_formula_units_Z 48
_cell_length_a 15.990595
_cell_length_b 21.880492
_cell_length_c 14.336898
_cell_angle_alpha 90.000000
_cell_angle_beta 152.236400
_cell_angle_gamma 90.000000
_cell_volume 2336.680295
_symmetry_space_group_name_H-M "C 2/C"
_symmetry_group_IT_number 15
_symmetry_cell_setting 'monoclinic'
loop_
_space_group_symop_operation_xyz
x,y,z
-x,y,1/2-z
-x,-y,-z
x,-y,1/2+z
1/2+x,1/2+y,z
1/2-x,1/2+y,1/2-z
1/2-x,1/2-y,-z
1/2+x,1/2-y,1/2+z
loop_
_atom_site_type_symbol
_atom_site_label
_atom_site_fract_x
_atom_site_fract_y
_atom_site_fract_z
Si Si1 0.623043 0.103949 0.490940
Si Si2 0.580289 0.706194 0.731021
Si Si3 0.830597 0.920633 0.764260
Si Si4 0.713986 0.168300 0.290089
Si Si5 0.715381 0.509126 0.459601
Si Si6 0.760999 0.044739 0.810629
O O1 0.419353 0.125806 0.282591
O O2 0.684851 0.047314 0.489954
O O3 0.650556 0.084644 0.627336
O O4 0.752557 0.160898 0.595739
O O5 0.500000 0.729362 0.750000
O O6 0.637155 0.763582 0.724383
O O7 0.414601 0.668437 0.526978
O O8 0.736831 0.860749 0.711251
O O9 0.776921 0.935671 0.606273
O O10 0.778547 0.979120 0.776853
O O11 0.046410 0.921926 0.987330
O O12 0.500000 0.493200 0.250000
O O13 0.791701 0.528410 0.635407
#
# Coordination Sequence:
#
# PCOD9303791 Si02
#       6
#     8   8   8   8   8   8
#     4  11  23  39  65  93 129 167 206 257 308 370
#     4  12  26  42  61  91 126 168 211 255 311 361
#     4   9  19  35  60  90 127 163 203 256 314 367
#     4  12  25  41  62  91 125 166 210 257 304 373
#     4   9  19  36  63  95 127 166 204 252 316 373
#     4   9  18  37  62  92 127 164 201 254 316 374
#
# _framework density 20.541962000000002
#
# number of rings (size 3 to 8) (size 9 to 14) (size 15 to 20)
#    0.000    1.667    3.333    2.000    2.333    2.667 
#    0.000    2.500    0.000    1.000    4.333    0.000 
#    0.000    0.000    0.000    0.000    0.000    0.000 
#
# Total GULP energy -134168.248451 kJ/mol
# GULP energy per Si atom -5590.343685 kJ/mol
# Density = 2.049521 g / cm^3
# Si number density = 20.541962 Si / 1000 Ang^3
#
#
#
# Elastic Constant Matrix: (Units=GPa)
#
#
# Indices 1 2 3 4 5 6 
#
# 1 129.3935 53.5777 38.7950 0.0000 -15.7435 0.0000
# 2 53.5777 86.5759 25.3285 0.0000 6.7853 0.0000
# 3 38.7950 25.3285 70.2868 0.0000 1.1086 0.0000
# 4 0.0000 0.0000 0.0000 19.3645 0.0000 8.2945
# 5 -15.7435 6.7853 1.1086 0.0000 36.5618 0.0000
# 6 0.0000 0.0000 0.0000 8.2945 0.0000 69.4390
#
#
#
# Elastic Compliance Matrix: (Units=1/GPa)
#
#
# Indices 1 2 3 4 5 6 
#
# 1 0.012979 -0.007219 -0.004674 0.000000 0.007070 0.000000
# 2 -0.007219 0.017116 -0.002085 0.000000 -0.006222 0.000000
# 3 -0.004674 -0.002085 0.017593 0.000000 -0.002159 0.000000
# 4 0.000000 0.000000 0.000000 0.054426 0.000000 -0.006501
# 5 0.007070 -0.006222 -0.002159 0.000000 0.031616 0.000000
# 6 0.000000 0.000000 0.000000 -0.006501 0.000000 0.015178
#
#
# Mechanical properties :
#
#
# Convention : Reuss Voigt Hill
#
# Bulk Modulus (GPa) = 50.68065 57.96208 54.32137
# Shear Modulus (GPa) = 27.25698 36.31006 31.78352
#
# Velocity S-wave (km/s) = 3.64661 4.20885 3.93778
# Velocity P-wave (km/s) = 6.51580 7.20395 6.86850
#
# Compressibility (1/GPa) = 0.01973140
#
# Stress axis : x y z
#
# Youngs Moduli (GPa) = 77.04721 58.42624 56.84173
#
# Poissons Ratio (x) = 0.42177 0.26568
# Poissons Ratio (y) = 0.55619 0.11852
# Poissons Ratio (z) = 0.36012 0.12183
#
# Static dielectric constant tensor:
#      x y z
#    x 1.771750 0.000000 -0.006900 
#    y 0.000000 1.706370 0.000000 
#    z -0.006900 0.000000 1.801410 
# 
# From -- ./inp_files/156842.got.cif
#   From: 2010.05.17/outbox.cif.g08.bks.cpg/sg15_79_cif.got.tgz:156842.got - 2010.06.03 18:47:42.
