data_PCOD9303347
_publ_section_title
;
Structure prediction by ZEFSAII (Michael W. Deem and Ramdas Pophale) SiO2 
 PCOD9303347
Probable space group: C 2/C
;
_chemical_formula_sum "Si O2"
_cell_formula_units_Z 48
_cell_length_a 18.471757
_cell_length_b 8.192385
_cell_length_c 18.168758
_cell_angle_alpha 90.000000
_cell_angle_beta 138.341896
_cell_angle_gamma 90.000000
_cell_volume 1827.507499
_symmetry_space_group_name_H-M "C 2/C"
_symmetry_group_IT_number 15
_symmetry_cell_setting 'monoclinic'
loop_
_space_group_symop_operation_xyz
x,y,z
-x,y,1/2-z
-x,-y,-z
x,-y,1/2+z
1/2+x,1/2+y,z
1/2-x,1/2+y,1/2-z
1/2-x,1/2-y,-z
1/2+x,1/2-y,1/2+z
loop_
_atom_site_type_symbol
_atom_site_label
_atom_site_fract_x
_atom_site_fract_y
_atom_site_fract_z
Si Si1 0.634962 0.226370 0.296281
Si Si2 0.527035 0.528048 0.620124
Si Si3 0.329424 0.731604 0.955383
Si Si4 0.637812 0.706363 0.100981
Si Si5 0.381318 0.068988 0.634361
Si Si6 0.892890 0.547376 0.373632
O O1 0.577482 0.396839 0.232768
O O2 0.763749 0.223352 0.380831
O O3 0.596645 0.105908 0.201355
O O4 0.614950 0.127652 0.355229
O O5 0.429778 0.394342 0.547869
O O6 0.469839 0.673319 0.529995
O O7 0.623868 0.446311 0.645989
O O8 0.350952 0.875775 0.029968
O O9 0.216353 0.643534 0.889987
O O10 0.333837 0.817950 0.879538
O O11 0.655086 0.865779 0.162879
O O12 0.500000 0.131557 0.750000
O O13 0.000000 0.500000 0.500000
#
# Coordination Sequence:
#
# PCOD9303347 Si02
#       6
#     8   8   8   8   8   8
#     4  12  25  42  72 111 144 190 246 304 359 440
#     4  11  22  43  72 106 147 185 241 309 359 429
#     4  11  25  50  75 105 150 199 238 303 369 435
#     4  11  23  40  67 112 147 179 239 304 370 428
#     4  11  27  48  74 102 150 197 250 293 366 446
#     4  12  22  40  75 107 146 189 236 301 368 428
#
# _framework density 26.265281000000002
#
# number of rings (size 3 to 8) (size 9 to 14) (size 15 to 20)
#    0.000    0.667    5.000    3.000    2.333    1.333 
#    0.000    5.833    0.000    0.000    0.000    0.000 
#    0.000    0.000    0.000    0.000    0.000    0.000 
#
# Total GULP energy -134240.799182 kJ/mol
# GULP energy per Si atom -5593.366633 kJ/mol
# Density = 2.620550 g / cm^3
# Si number density = 26.265281 Si / 1000 Ang^3
#
#
#
# Elastic Constant Matrix: (Units=GPa)
#
#
# Indices 1 2 3 4 5 6 
#
# 1 100.1534 39.4955 36.0880 0.0000 11.4760 0.0000
# 2 39.4955 126.8949 43.8414 0.0000 2.1741 0.0000
# 3 36.0880 43.8414 110.2140 0.0000 20.4190 0.0000
# 4 0.0000 0.0000 0.0000 59.6637 0.0000 -16.6199
# 5 11.4760 2.1741 20.4190 0.0000 42.0595 0.0000
# 6 0.0000 0.0000 0.0000 -16.6199 0.0000 34.7032
#
#
#
# Elastic Compliance Matrix: (Units=1/GPa)
#
#
# Indices 1 2 3 4 5 6 
#
# 1 0.012260 -0.002924 -0.002483 0.000000 -0.001989 0.000000
# 2 -0.002924 0.009911 -0.003338 0.000000 0.001906 0.000000
# 3 -0.002483 -0.003338 0.012149 0.000000 -0.005048 0.000000
# 4 0.000000 0.000000 0.000000 0.019341 0.000000 0.009263
# 5 -0.001989 0.001906 -0.005048 0.000000 0.026671 0.000000
# 6 0.000000 0.000000 0.000000 0.009263 0.000000 0.033252
#
#
# Mechanical properties :
#
#
# Convention : Reuss Voigt Hill
#
# Bulk Modulus (GPa) = 59.41547 64.01245 61.71396
# Shear Modulus (GPa) = 36.58042 41.80779 39.19410
#
# Velocity S-wave (km/s) = 3.73598 3.99400 3.86714
# Velocity P-wave (km/s) = 6.42499 6.75972 6.59448
#
# Compressibility (1/GPa) = 0.01683063
#
# Stress axis : x y z
#
# Youngs Moduli (GPa) = 81.56397 100.89457 82.30844
#
# Poissons Ratio (x) = 0.29502 0.20436
# Poissons Ratio (y) = 0.23850 0.27477
# Poissons Ratio (z) = 0.20251 0.33681
#
# Static dielectric constant tensor:
#      x y z
#    x 2.100060 0.000000 0.086990 
#    y 0.000000 2.239000 0.000000 
#    z 0.086990 0.000000 2.055320 
# 
# From -- ./inp_files/252016.got.cif
#   From: 2010.05.17/outbox.cif.g08.bks.cpg/sg15_127_cif.got.tgz:252016.got - 2010.06.03 18:47:42.
