data_PCOD9303511
_publ_section_title
;
Structure prediction by ZEFSAII (Michael W. Deem and Ramdas Pophale) SiO2 
 PCOD9303511
Probable space group: C 2/C
;
_chemical_formula_sum "Si O2"
_cell_formula_units_Z 56
_cell_length_a 25.385574
_cell_length_b 18.481898
_cell_length_c 8.109683
_cell_angle_alpha 90.000000
_cell_angle_beta 136.562005
_cell_angle_gamma 90.000000
_cell_volume 2616.096959
_symmetry_space_group_name_H-M "C 2/C"
_symmetry_group_IT_number 15
_symmetry_cell_setting 'monoclinic'
loop_
_space_group_symop_operation_xyz
x,y,z
-x,y,1/2-z
-x,-y,-z
x,-y,1/2+z
1/2+x,1/2+y,z
1/2-x,1/2+y,1/2-z
1/2-x,1/2-y,-z
1/2+x,1/2-y,1/2+z
loop_
_atom_site_type_symbol
_atom_site_label
_atom_site_fract_x
_atom_site_fract_y
_atom_site_fract_z
Si Si1 0.577382 0.888832 0.973778
Si Si2 0.776911 0.301346 0.916443
Si Si3 0.909235 0.232574 0.016965
Si Si4 0.804001 0.098247 0.707576
Si Si5 0.753855 0.050958 0.260813
Si Si6 0.579686 0.957433 0.342680
Si Si7 0.671695 0.792944 0.978544
O O1 0.500000 0.848493 0.750000
O O2 0.640635 0.831159 0.072736
O O3 0.576358 0.955221 0.840197
O O4 0.581162 0.924257 0.162671
O O5 0.862259 0.280333 0.046391
O O6 0.753409 0.384662 0.889795
O O7 0.722772 0.275243 0.642772
O O8 0.750000 0.250000 0.000000
O O9 0.870969 0.151863 0.924436
O O10 0.889518 0.269969 0.796780
O O11 0.000000 0.231070 0.250000
O O12 0.811503 0.071985 0.537092
O O13 0.728994 0.147726 0.540206
O O14 0.781304 0.025954 0.756111
O O15 0.663956 0.052345 0.115815
O O16 0.500000 0.933128 0.250000
#
# Coordination Sequence:
#
# PCOD9303511 Si02
#       7
#     8   8   8   8   8   8   8
#     4  11  23  36  57  92 140 181 222 281 339 418
#     4  11  24  42  71 105 137 180 239 294 355 431
#     4  11  25  49  75  97 140 194 239 296 369 424
#     4  11  24  43  69 105 132 182 233 294 347 425
#     4  12  23  40  71  98 138 185 231 289 356 419
#     4  11  23  36  57  98 144 183 225 276 351 429
#     4  11  22  45  65  96 138 177 240 290 343 428
#
# _framework density 21.405933000000001
#
# number of rings (size 3 to 8) (size 9 to 14) (size 15 to 20)
#    0.000    0.857    4.286    4.286    6.000    2.857 
#    0.000    1.429    0.000    0.000    0.000    0.000 
#    0.000    0.000    0.000    0.000    0.000    0.000 
#
# Total GULP energy -156225.533318 kJ/mol
# GULP energy per Si atom -5579.483333 kJ/mol
# Density = 2.135721 g / cm^3
# Si number density = 21.405933 Si / 1000 Ang^3
#
#
#
# Elastic Constant Matrix: (Units=GPa)
#
#
# Indices 1 2 3 4 5 6 
#
# 1 102.5446 48.3282 38.2722 0.0000 4.9262 0.0000
# 2 48.3282 140.7286 44.5050 0.0000 2.1871 0.0000
# 3 38.2722 44.5050 117.7342 0.0000 20.9176 0.0000
# 4 0.0000 0.0000 0.0000 34.1572 0.0000 -7.3351
# 5 4.9262 2.1871 20.9176 0.0000 27.8191 0.0000
# 6 0.0000 0.0000 0.0000 -7.3351 0.0000 36.2173
#
#
#
# Elastic Compliance Matrix: (Units=1/GPa)
#
#
# Indices 1 2 3 4 5 6 
#
# 1 0.012369 -0.003373 -0.002775 0.000000 0.000161 0.000000
# 2 -0.003373 0.009080 -0.002672 0.000000 0.001893 0.000000
# 3 -0.002775 -0.002672 0.011866 0.000000 -0.008221 0.000000
# 4 0.000000 0.000000 0.000000 0.030608 0.000000 0.006199
# 5 0.000161 0.001893 -0.008221 0.000000 0.041951 0.000000
# 6 0.000000 0.000000 0.000000 0.006199 0.000000 0.028867
#
#
# Mechanical properties :
#
#
# Convention : Reuss Voigt Hill
#
# Bulk Modulus (GPa) = 63.79018 69.24647 66.51832
# Shear Modulus (GPa) = 31.72493 34.96552 33.34523
#
# Velocity S-wave (km/s) = 3.85393 4.04598 3.95112
# Velocity P-wave (km/s) = 7.04760 7.36519 7.20814
#
# Compressibility (1/GPa) = 0.01567639
#
# Stress axis : x y z
#
# Youngs Moduli (GPa) = 80.84586 110.13482 84.27188
#
# Poissons Ratio (x) = 0.37147 0.23382
# Poissons Ratio (y) = 0.27268 0.22518
# Poissons Ratio (z) = 0.22431 0.29429
#
# Static dielectric constant tensor:
#      x y z
#    x 1.844290 0.000000 -0.002720 
#    y 0.000000 1.849060 0.000000 
#    z -0.002720 0.000000 1.892920 
# 
# From -- ./inp_files/67194.got.cif
#   From: 2010.05.17/outbox.cif.g08.bks.cpg/sg15_34_cif.got.tgz:67194.got - 2010.06.03 18:47:42.
