data_PCOD9303926
_publ_section_title
;
Structure prediction by ZEFSAII (Michael W. Deem and Ramdas Pophale) SiO2 
 PCOD9303926
Probable space group: C 2/C
;
_chemical_formula_sum "Si O2"
_cell_formula_units_Z 64
_cell_length_a 9.591530
_cell_length_b 29.526650
_cell_length_c 14.147788
_cell_angle_alpha 90.000000
_cell_angle_beta 45.653000
_cell_angle_gamma 90.000000
_cell_volume 2865.294578
_symmetry_space_group_name_H-M "C 2/C"
_symmetry_group_IT_number 15
_symmetry_cell_setting 'monoclinic'
loop_
_space_group_symop_operation_xyz
x,y,z
-x,y,1/2-z
-x,-y,-z
x,-y,1/2+z
1/2+x,1/2+y,z
1/2-x,1/2+y,1/2-z
1/2-x,1/2-y,-z
1/2+x,1/2-y,1/2+z
loop_
_atom_site_type_symbol
_atom_site_label
_atom_site_fract_x
_atom_site_fract_y
_atom_site_fract_z
Si Si1 0.278875 0.721364 0.390495
Si Si2 0.977290 0.759923 0.376063
Si Si3 0.717525 0.551258 0.470580
Si Si4 0.019034 0.864010 0.352749
Si Si5 0.701342 0.384796 0.589783
Si Si6 0.014328 0.964681 0.871459
Si Si7 0.104833 0.515575 0.356455
Si Si8 0.578380 0.085910 0.816663
O O1 0.500000 0.729695 0.250000
O O2 0.250000 0.750000 0.500000
O O3 0.264247 0.668940 0.429599
O O4 0.124770 0.732492 0.377271
O O5 0.750000 0.750000 0.500000
O O6 0.000000 0.753999 0.250000
O O7 0.007096 0.812453 0.391160
O O8 0.638438 0.600801 0.531515
O O9 0.602554 0.511428 0.581593
O O10 0.656486 0.536913 0.394711
O O11 0.945961 0.546568 0.380565
O O12 0.228473 0.885234 0.268516
O O13 0.000000 0.862553 0.250000
O O14 0.500000 0.384707 0.750000
O O15 0.619009 0.421026 0.552268
O O16 0.928766 0.402064 0.473154
O O17 0.189366 0.961867 0.712461
O O18 0.132625 0.467223 0.292554
O O19 0.000000 0.500000 0.500000
O O20 0.500000 0.096236 0.750000
#
# Coordination Sequence:
#
# PCOD9303926 Si02
#       8
#     8   8   8   8   8   8   8   8
#     4  11  27  48  81 115 149 194 261 321 397 466
#     4  11  27  53  80 112 156 201 251 328 404 471
#     4  11  23  41  64 102 139 189 240 295 360 434
#     4  11  26  43  73 107 143 187 249 300 369 453
#     4  11  26  44  69 107 147 186 239 313 376 438
#     4  11  23  41  65  97 146 186 238 297 361 433
#     4  12  24  40  67  96 145 197 244 299 362 439
#     4  12  24  42  74 106 141 194 254 303 356 439
#
# _framework density 22.336271
#
# number of rings (size 3 to 8) (size 9 to 14) (size 15 to 20)
#    0.000    0.750    2.500    4.125    8.750    0.000 
#    2.250    0.000    0.000    0.000    0.000    0.000 
#    0.000    0.000    0.000    0.000    0.000    0.000 
#
# Total GULP energy -178364.134315 kJ/mol
# GULP energy per Si atom -5573.879197 kJ/mol
# Density = 2.228543 g / cm^3
# Si number density = 22.336271 Si / 1000 Ang^3
#
#
#
# Elastic Constant Matrix: (Units=GPa)
#
#
# Indices 1 2 3 4 5 6 
#
# 1 104.4249 33.1463 15.3447 0.0000 -31.4697 0.0000
# 2 33.1463 125.4437 38.3645 0.0000 -28.8592 0.0000
# 3 15.3447 38.3645 103.1031 0.0000 -30.1367 0.0000
# 4 0.0000 0.0000 0.0000 36.8744 0.0000 -14.1954
# 5 -31.4697 -28.8592 -30.1367 0.0000 49.9652 0.0000
# 6 0.0000 0.0000 0.0000 -14.1954 0.0000 -3.7643
#
#
#
# Elastic Compliance Matrix: (Units=1/GPa)
#
#
# Indices 1 2 3 4 5 6 
#
# 1 0.012192 -0.001867 0.000983 0.000000 0.007193 0.000000
# 2 -0.001867 0.009938 -0.002532 0.000000 0.003037 0.000000
# 3 0.000983 -0.002532 0.012442 0.000000 0.006661 0.000000
# 4 0.000000 0.000000 0.000000 0.011061 0.000000 -0.041712
# 5 0.007193 0.003037 0.006661 0.000000 0.030316 0.000000
# 6 0.000000 0.000000 0.000000 -0.041712 0.000000 -0.108353
#
#
# Mechanical properties :
#
#
# Convention : Reuss Voigt Hill
#
# Bulk Modulus (GPa) = 36.05070 56.29808 46.17439
# Shear Modulus (GPa) = -306.31017 33.02281 -136.64368
#
# Velocity S-wave (km/s) = -11.72320 3.84922 -7.82997
# Velocity P-wave (km/s) = 12.92554 6.70931 7.81200
#
# Compressibility (1/GPa) = 0.02773872
#
# Stress axis : x y z
#
# Youngs Moduli (GPa) = 82.01840 100.62177 80.37288
#
# Poissons Ratio (x) = 0.18789 -0.07900
# Poissons Ratio (y) = 0.15315 0.20354
# Poissons Ratio (z) = -0.08061 0.25482
#
# Static dielectric constant tensor:
#      x y z
#    x 1.846230 0.000000 0.106550 
#    y 0.000000 1.907980 0.000000 
#    z 0.106550 0.000000 2.053720 
# 
# From -- ./inp_files/139827.got.cif
#   From: 2010.05.17/outbox.cif.g08.bks.cpg/sg15_70_cif.got.tgz:139827.got - 2010.06.03 18:47:42.
