data_PCOD9303333
_publ_section_title
;
Structure prediction by ZEFSAII (Michael W. Deem and Ramdas Pophale) SiO2 
 PCOD9303333
Probable space group: C 2/C
;
_chemical_formula_sum "Si O2"
_cell_formula_units_Z 52
_cell_length_a 12.828449
_cell_length_b 32.532018
_cell_length_c 7.486002
_cell_angle_alpha 90.000000
_cell_angle_beta 43.805199
_cell_angle_gamma 90.000000
_cell_volume 2162.579715
_symmetry_space_group_name_H-M "C 2/C"
_symmetry_group_IT_number 15
_symmetry_cell_setting 'monoclinic'
loop_
_space_group_symop_operation_xyz
x,y,z
-x,y,1/2-z
-x,-y,-z
x,-y,1/2+z
1/2+x,1/2+y,z
1/2-x,1/2+y,1/2-z
1/2-x,1/2-y,-z
1/2+x,1/2-y,1/2+z
loop_
_atom_site_type_symbol
_atom_site_label
_atom_site_fract_x
_atom_site_fract_y
_atom_site_fract_z
Si Si1 0.433536 0.212943 0.130679
Si Si2 0.159147 0.985093 0.450105
Si Si3 0.085031 0.619680 0.398251
Si Si4 0.000000 0.141580 0.250000
Si Si5 0.584170 0.705146 0.458067
Si Si6 0.206057 0.589258 0.623395
Si Si7 0.666901 0.569812 0.579060
O O1 0.500000 0.213769 0.250000
O O2 0.467006 0.166786 0.030543
O O3 0.513492 0.253544 0.957892
O O4 0.255197 0.214968 0.308651
O O5 0.275402 0.959193 0.421468
O O6 0.161680 0.958049 0.265610
O O7 0.192968 0.033156 0.402473
O O8 0.000000 0.981152 0.750000
O O9 0.157573 0.609131 0.497978
O O10 0.930807 0.595144 0.571647
O O11 0.211106 0.605366 0.101505
O O12 0.058275 0.169557 0.343556
O O13 0.861028 0.112551 0.481771
O O14 0.500000 0.695595 0.750000
O O15 0.500000 0.586761 0.750000
#
# Coordination Sequence:
#
# PCOD9303333 Si02
#       7
#     8   8   8   4   8   8   8
#     4  11  25  46  73 105 149 190 255 311 384 452
#     4  11  22  43  71 104 149 190 248 309 365 449
#     4  11  26  45  69 107 147 196 245 317 375 453
#     4  12  26  46  78 110 146 206 264 310 398 462
#     4  11  26  47  73 108 145 200 250 322 381 466
#     4  11  25  45  68 106 152 190 250 318 374 443
#     4  11  24  42  73 106 143 200 247 300 381 451
#
# _framework density 24.045356000000002
#
# number of rings (size 3 to 8) (size 9 to 14) (size 15 to 20)
#    0.000    0.923    2.308    5.538    6.462    3.077 
#    0.000    0.000    0.000    0.000    0.000    0.000 
#    0.000    0.000    0.000    0.000    0.000    0.000 
#
# Total GULP energy -145199.264403 kJ/mol
# GULP energy per Si atom -5584.587092 kJ/mol
# Density = 2.399063 g / cm^3
# Si number density = 24.045356 Si / 1000 Ang^3
#
#
#
# Elastic Constant Matrix: (Units=GPa)
#
#
# Indices 1 2 3 4 5 6 
#
# 1 119.0733 3.6813 30.3451 0.0000 -5.6184 0.0000
# 2 3.6813 97.0736 21.4659 0.0000 -19.9894 0.0000
# 3 30.3451 21.4659 82.0093 0.0000 -12.6715 0.0000
# 4 0.0000 0.0000 0.0000 25.7975 0.0000 0.8336
# 5 -5.6184 -19.9894 -12.6715 0.0000 51.5522 0.0000
# 6 0.0000 0.0000 0.0000 0.8336 0.0000 38.0302
#
#
#
# Elastic Compliance Matrix: (Units=1/GPa)
#
#
# Indices 1 2 3 4 5 6 
#
# 1 0.009295 0.000495 -0.003516 0.000000 0.000341 0.000000
# 2 0.000495 0.011675 -0.002631 0.000000 0.003934 0.000000
# 3 -0.003516 -0.002631 0.014518 0.000000 0.002165 0.000000
# 4 0.000000 0.000000 0.000000 0.038791 0.000000 -0.000850
# 5 0.000341 0.003934 0.002165 0.000000 0.021493 0.000000
# 6 0.000000 0.000000 0.000000 -0.000850 0.000000 0.026314
#
#
# Mechanical properties :
#
#
# Convention : Reuss Voigt Hill
#
# Bulk Modulus (GPa) = 41.35107 45.46009 43.40558
# Shear Modulus (GPa) = 35.34806 39.25358 37.30082
#
# Velocity S-wave (km/s) = 3.83829 4.04478 3.94289
# Velocity P-wave (km/s) = 6.07271 6.38441 6.23051
#
# Compressibility (1/GPa) = 0.02418317
#
# Stress axis : x y z
#
# Youngs Moduli (GPa) = 107.58390 85.65586 68.87955
#
# Poissons Ratio (x) = -0.04242 0.24220
# Poissons Ratio (y) = -0.05328 0.18124
# Poissons Ratio (z) = 0.37830 0.22538
#
# Static dielectric constant tensor:
#      x y z
#    x 2.033610 0.000000 0.058620 
#    y 0.000000 1.944070 0.000000 
#    z 0.058620 0.000000 1.966370 
# 
# From -- ./inp_files/44779.got.cif
#   From: 2010.05.17/outbox.cif.g08.bks.cpg/sg15_23_cif.got.tgz:44779.got - 2010.06.03 18:47:42.
