data_PCOD9303073
_publ_section_title
;
Structure prediction by ZEFSAII (Michael W. Deem and Ramdas Pophale) SiO2 
 PCOD9303073
Probable space group: C 2/C
;
_chemical_formula_sum "Si O2"
_cell_formula_units_Z 60
_cell_length_a 21.379879
_cell_length_b 8.935911
_cell_length_c 23.990710
_cell_angle_alpha 90.000000
_cell_angle_beta 148.383224
_cell_angle_gamma 90.000000
_cell_volume 2402.776700
_symmetry_space_group_name_H-M "C 2/C"
_symmetry_group_IT_number 15
_symmetry_cell_setting 'monoclinic'
loop_
_space_group_symop_operation_xyz
x,y,z
-x,y,1/2-z
-x,-y,-z
x,-y,1/2+z
1/2+x,1/2+y,z
1/2-x,1/2+y,1/2-z
1/2-x,1/2-y,-z
1/2+x,1/2-y,1/2+z
loop_
_atom_site_type_symbol
_atom_site_label
_atom_site_fract_x
_atom_site_fract_y
_atom_site_fract_z
Si Si1 0.566856 0.538337 0.747759
Si Si2 0.880438 0.674689 0.449849
Si Si3 0.124383 0.214909 0.098893
Si Si4 0.500000 0.974527 0.250000
Si Si5 0.220252 0.480768 0.725677
Si Si6 0.114693 0.766575 0.919825
Si Si7 0.669042 0.110568 0.533183
Si Si8 0.555320 0.156345 0.196500
O O1 0.500000 0.607097 0.750000
O O2 0.479601 0.402622 0.664017
O O3 0.704280 0.525045 0.873770
O O4 0.576848 0.666603 0.709572
O O5 0.780382 0.630404 0.328794
O O6 0.868932 0.754215 0.500872
O O7 0.911688 0.505843 0.492783
O O8 0.985532 0.754083 0.497148
O O9 0.185735 0.353552 0.179989
O O10 0.156682 0.056885 0.150326
O O11 0.172963 0.240939 0.073493
O O12 0.448359 0.866620 0.162721
O O13 0.586444 0.080747 0.279269
O O14 0.128144 0.423319 0.702900
O O15 0.250000 0.750000 0.000000
O O16 0.588995 0.141456 0.419228
#
# Coordination Sequence:
#
# PCOD9303073 Si02
#       8
#     8   8   8   4   8   8   8   8
#     4  12  27  45  72 105 141 187 241 301 365 431
#     4  11  23  42  72  99 137 192 233 291 369 428
#     4  11  22  41  71  98 139 187 233 296 362 433
#     4  12  26  44  78  98 140 194 250 292 366 448
#     4  11  23  43  67 105 141 182 244 295 366 437
#     4  12  28  49  70 107 147 189 248 305 368 441
#     4  11  22  44  72  98 142 186 233 298 364 437
#     4  12  24  46  70 109 142 188 244 304 368 438
#
# _framework density 24.971111000000001
#
# number of rings (size 3 to 8) (size 9 to 14) (size 15 to 20)
#    0.000    0.533    6.667    1.600    3.733    2.667 
#    2.400    1.333    0.000    0.000    0.000    0.000 
#    0.000    0.000    0.000    0.000    0.000    0.000 
#
# Total GULP energy -167203.411386 kJ/mol
# GULP energy per Si atom -5573.447046 kJ/mol
# Density = 2.491428 g / cm^3
# Si number density = 24.971111 Si / 1000 Ang^3
#
#
#
# Elastic Constant Matrix: (Units=GPa)
#
#
# Indices 1 2 3 4 5 6 
#
# 1 111.4475 4.6080 3.2319 0.0000 -0.5042 0.0000
# 2 4.6080 84.1169 23.9523 0.0000 -0.8602 0.0000
# 3 3.2319 23.9523 65.5799 0.0001 10.6372 0.0000
# 4 0.0000 0.0000 0.0001 34.9130 0.0000 -4.0907
# 5 -0.5042 -0.8602 10.6372 0.0000 34.9385 0.0000
# 6 0.0000 0.0000 0.0000 -4.0907 0.0000 16.8951
#
#
#
# Elastic Compliance Matrix: (Units=1/GPa)
#
#
# Indices 1 2 3 4 5 6 
#
# 1 0.009000 -0.000395 -0.000335 0.000000 0.000222 0.000000
# 2 -0.000395 0.013406 -0.005186 0.000000 0.001903 0.000000
# 3 -0.000335 -0.005186 0.018073 0.000000 -0.005635 0.000000
# 4 0.000000 0.000000 0.000000 0.029479 0.000000 0.007138
# 5 0.000222 0.001903 -0.005635 0.000000 0.030387 0.000000
# 6 0.000000 0.000000 0.000000 0.007138 0.000000 0.060917
#
#
# Mechanical properties :
#
#
# Convention : Reuss Voigt Hill
#
# Bulk Modulus (GPa) = 34.90795 36.08095 35.49445
# Shear Modulus (GPa) = 27.37578 32.63947 30.00763
#
# Velocity S-wave (km/s) = 3.31463 3.61929 3.47031
# Velocity P-wave (km/s) = 5.35338 5.65209 5.50476
#
# Compressibility (1/GPa) = 0.02864677
#
# Stress axis : x y z
#
# Youngs Moduli (GPa) = 111.11228 74.59388 55.33094
#
# Poissons Ratio (x) = 0.02949 0.01855
# Poissons Ratio (y) = 0.04392 0.28692
# Poissons Ratio (z) = 0.03724 0.38681
#
# Static dielectric constant tensor:
#      x y z
#    x 2.009670 0.000000 -0.024580 
#    y 0.000000 2.033690 0.000000 
#    z -0.024580 0.000000 2.123840 
# 
# From -- ./inp_files/302096.got.cif
#   From: 2010.05.17/outbox.cif.g08.bks.cpg/sg15_152_cif.got.tgz:302096.got - 2010.06.03 18:47:42.
