data_PCOD9303108
_publ_section_title
;
Structure prediction by ZEFSAII (Michael W. Deem and Ramdas Pophale) SiO2 
 PCOD9303108
Probable space group: C 2/C
;
_chemical_formula_sum "Si O2"
_cell_formula_units_Z 56
_cell_length_a 20.949126
_cell_length_b 21.347587
_cell_length_c 8.678886
_cell_angle_alpha 90.000000
_cell_angle_beta 132.689716
_cell_angle_gamma 90.000000
_cell_volume 2852.906088
_symmetry_space_group_name_H-M "C 2/C"
_symmetry_group_IT_number 15
_symmetry_cell_setting 'monoclinic'
loop_
_space_group_symop_operation_xyz
x,y,z
-x,y,1/2-z
-x,-y,-z
x,-y,1/2+z
1/2+x,1/2+y,z
1/2-x,1/2+y,1/2-z
1/2-x,1/2-y,-z
1/2+x,1/2-y,1/2+z
loop_
_atom_site_type_symbol
_atom_site_label
_atom_site_fract_x
_atom_site_fract_y
_atom_site_fract_z
Si Si1 0.111632 0.382911 0.676015
Si Si2 0.500000 0.818710 0.750000
Si Si3 0.000000 0.543476 0.750000
Si Si4 0.206321 0.741847 0.262782
Si Si5 0.681296 0.979576 0.991305
Si Si6 0.763147 0.407723 0.105202
Si Si7 0.360215 0.222640 0.788061
Si Si8 0.899731 0.825602 0.596078
O O1 0.065660 0.359181 0.755932
O O2 0.039349 0.413932 0.449674
O O3 0.156998 0.323722 0.673082
O O4 0.183503 0.432094 0.850713
O O5 0.441782 0.780921 0.535229
O O6 0.919431 0.500638 0.666076
O O7 0.250000 0.750000 0.500000
O O8 0.279715 0.748758 0.252151
O O9 0.137632 0.797566 0.124088
O O10 0.729233 0.043446 0.022164
O O11 0.710528 0.944510 0.194263
O O12 0.828421 0.348035 0.194544
O O13 0.666911 0.379526 0.962996
O O14 0.386535 0.267002 0.691009
O O15 0.000000 0.843256 0.750000
#
# Coordination Sequence:
#
# PCOD9303108 Si02
#       8
#     8   4   4   8   8   8   8   8
#     4  12  24  38  61  91 132 169 214 257 318 390
#     4  12  21  38  62  94 134 170 207 268 314 390
#     4  12  27  36  60  98 132 172 217 258 320 402
#     4  11  22  42  64  95 132 172 212 267 327 387
#     4  12  24  42  61  92 132 172 211 262 327 393
#     4  11  24  44  66  92 131 172 212 268 326 388
#     4  11  24  41  66  96 133 171 215 263 329 388
#     4  11  26  45  68  96 128 173 224 275 323 383
#
# _framework density 19.629107000000001
#
# number of rings (size 3 to 8) (size 9 to 14) (size 15 to 20)
#    0.000    0.571    4.286    5.143    7.000    0.000 
#    0.000    0.714    0.000    0.000    0.000    0.000 
#    0.000    0.000    0.000    0.000    0.000    0.000 
#
# Total GULP energy -156615.287312 kJ/mol
# GULP energy per Si atom -5593.403118 kJ/mol
# Density = 1.958443 g / cm^3
# Si number density = 19.629107 Si / 1000 Ang^3
#
#
#
# Elastic Constant Matrix: (Units=GPa)
#
#
# Indices 1 2 3 4 5 6 
#
# 1 58.4038 46.9334 21.1127 0.0000 13.1081 0.0000
# 2 46.9334 110.0586 27.1819 0.0000 5.3341 0.0000
# 3 21.1127 27.1819 104.3362 0.0000 4.8320 0.0000
# 4 0.0000 0.0000 0.0000 40.2741 0.0000 -1.3960
# 5 13.1081 5.3341 4.8320 0.0000 39.9948 0.0000
# 6 0.0000 0.0000 0.0000 -1.3960 0.0000 23.3994
#
#
#
# Elastic Compliance Matrix: (Units=1/GPa)
#
#
# Indices 1 2 3 4 5 6 
#
# 1 0.028833 -0.011299 -0.002537 0.000000 -0.007636 0.000000
# 2 -0.011299 0.014178 -0.001500 0.000000 0.001993 0.000000
# 3 -0.002537 -0.001500 0.010499 0.000000 -0.000237 0.000000
# 4 0.000000 0.000000 0.000000 0.024881 0.000000 0.001484
# 5 -0.007636 0.001993 -0.000237 0.000000 0.027269 0.000000
# 6 0.000000 0.000000 0.000000 0.001484 0.000000 0.042825
#
#
# Mechanical properties :
#
#
# Convention : Reuss Voigt Hill
#
# Bulk Modulus (GPa) = 43.78432 51.47274 47.62853
# Shear Modulus (GPa) = 26.77091 32.57169 29.67130
#
# Velocity S-wave (km/s) = 3.69702 4.07794 3.89214
# Velocity P-wave (km/s) = 6.37010 6.96077 6.67198
#
# Compressibility (1/GPa) = 0.02283922
#
# Stress axis : x y z
#
# Youngs Moduli (GPa) = 34.68247 70.53120 95.24277
#
# Poissons Ratio (x) = 0.79692 0.24165
# Poissons Ratio (y) = 0.39187 0.14283
# Poissons Ratio (z) = 0.08800 0.10577
#
# Static dielectric constant tensor:
#      x y z
#    x 1.721010 0.000000 -0.004330 
#    y 0.000000 1.724540 0.000000 
#    z -0.004330 0.000000 1.746980 
# 
# From -- ./inp_files/57942.got.cif
#   From: 2010.05.17/outbox.cif.g08.bks.cpg/sg15_29_cif.got.tgz:57942.got - 2010.06.03 18:47:42.
