data_PCOD9303300
_publ_section_title
;
Structure prediction by ZEFSAII (Michael W. Deem and Ramdas Pophale) SiO2 
 PCOD9303300
Probable space group: C 2/C
;
_chemical_formula_sum "Si O2"
_cell_formula_units_Z 48
_cell_length_a 22.881762
_cell_length_b 8.953480
_cell_length_c 18.203336
_cell_angle_alpha 90.000000
_cell_angle_beta 35.624007
_cell_angle_gamma 90.000000
_cell_volume 2172.206527
_symmetry_space_group_name_H-M "C 2/C"
_symmetry_group_IT_number 15
_symmetry_cell_setting 'monoclinic'
loop_
_space_group_symop_operation_xyz
x,y,z
-x,y,1/2-z
-x,-y,-z
x,-y,1/2+z
1/2+x,1/2+y,z
1/2-x,1/2+y,1/2-z
1/2-x,1/2-y,-z
1/2+x,1/2-y,1/2+z
loop_
_atom_site_type_symbol
_atom_site_label
_atom_site_fract_x
_atom_site_fract_y
_atom_site_fract_z
Si Si1 0.249791 0.138818 0.432903
Si Si2 0.046704 0.689294 0.772664
Si Si3 0.157997 0.187628 0.033787
Si Si4 0.777021 0.388736 0.669509
Si Si5 0.070840 0.416910 0.849990
Si Si6 0.651356 0.793846 0.404127
O O1 0.250000 0.250000 0.500000
O O2 0.360353 0.148958 0.284643
O O3 0.170230 0.193167 0.454737
O O4 0.216206 0.967723 0.477836
O O5 0.038288 0.817147 0.632105
O O6 0.143985 0.754740 0.632300
O O7 0.059565 0.587056 0.830409
O O8 0.000000 0.595276 0.750000
O O9 0.194416 0.303992 0.934170
O O10 0.863192 0.387081 0.644803
O O11 0.682985 0.303808 0.801488
O O12 0.771167 0.566757 0.666053
O O13 0.961234 0.353628 0.976428
#
# Coordination Sequence:
#
# PCOD9303300 Si02
#       6
#     8   8   8   8   8   8
#     4  11  27  43  65 103 140 185 234 288 357 415
#     4   8  20  38  68  99 128 183 229 291 345 407
#     4   9  21  43  65  94 139 172 236 294 336 415
#     4  11  22  43  69 101 134 186 236 286 356 418
#     4  11  23  42  71 101 136 188 230 284 366 422
#     4  11  24  43  67  97 141 182 230 300 338 425
#
# _framework density 22.097345000000001
#
# number of rings (size 3 to 8) (size 9 to 14) (size 15 to 20)
#    1.000    0.667    1.667    2.500    4.667    3.333 
#    3.000    7.500    0.000    0.000    0.000    0.000 
#    0.000    0.000    0.000    0.000    0.000    0.000 
#
# Total GULP energy -133718.566647 kJ/mol
# GULP energy per Si atom -5571.606944 kJ/mol
# Density = 2.204705 g / cm^3
# Si number density = 22.097345 Si / 1000 Ang^3
#
#
#
# Elastic Constant Matrix: (Units=GPa)
#
#
# Indices 1 2 3 4 5 6 
#
# 1 63.2248 37.8454 48.5500 -0.0001 -0.9989 0.0000
# 2 37.8454 114.2765 50.6794 -0.0005 -3.6929 0.0003
# 3 48.5500 50.6794 141.6248 -0.0002 6.3803 0.0001
# 4 -0.0001 -0.0005 -0.0002 40.0747 0.0000 14.8907
# 5 -0.9989 -3.6929 6.3803 0.0000 23.0420 -0.0001
# 6 0.0000 0.0003 0.0001 14.8907 -0.0001 37.0448
#
#
#
# Elastic Compliance Matrix: (Units=1/GPa)
#
#
# Indices 1 2 3 4 5 6 
#
# 1 0.023776 -0.004937 -0.006476 0.000000 0.002033 0.000000
# 2 -0.004937 0.011599 -0.002564 0.000000 0.002355 0.000000
# 3 -0.006476 -0.002564 0.010359 0.000000 -0.003560 0.000000
# 4 0.000000 0.000000 0.000000 0.029335 0.000000 -0.011792
# 5 0.002033 0.002355 -0.003560 0.000000 0.044850 0.000000
# 6 0.000000 0.000000 0.000000 -0.011792 0.000000 0.031734
#
#
# Mechanical properties :
#
#
# Convention : Reuss Voigt Hill
#
# Bulk Modulus (GPa) = 56.24067 65.91953 61.08010
# Shear Modulus (GPa) = 26.94925 32.16905 29.55915
#
# Velocity S-wave (km/s) = 3.49602 3.81962 3.66140
# Velocity P-wave (km/s) = 6.46551 7.02487 6.75099
#
# Compressibility (1/GPa) = 0.01778073
#
# Stress axis : x y z
#
# Youngs Moduli (GPa) = 42.05862 86.21487 96.53538
#
# Poissons Ratio (x) = 0.42560 0.62514
# Poissons Ratio (y) = 0.20762 0.24756
# Poissons Ratio (z) = 0.27236 0.22109
#
# Static dielectric constant tensor:
#      x y z
#    x 1.839280 0.000000 -0.014640 
#    y 0.000000 1.843550 0.000000 
#    z -0.014640 0.000000 1.836190 
# 
# From -- ./inp_files/257125.got.cif
#   From: 2010.05.17/outbox.cif.g08.bks.cpg/sg15_129_cif.got.tgz:257125.got - 2010.06.03 18:47:42.
