data_PCOD9303545
_publ_section_title
;
Structure prediction by ZEFSAII (Michael W. Deem and Ramdas Pophale) SiO2 
 PCOD9303545
Probable space group: C 2/C
;
_chemical_formula_sum "Si O2"
_cell_formula_units_Z 44
_cell_length_a 9.893555
_cell_length_b 20.591196
_cell_length_c 11.085939
_cell_angle_alpha 90.000000
_cell_angle_beta 72.405341
_cell_angle_gamma 90.000000
_cell_volume 2152.777033
_symmetry_space_group_name_H-M "C 2/C"
_symmetry_group_IT_number 15
_symmetry_cell_setting 'monoclinic'
loop_
_space_group_symop_operation_xyz
x,y,z
-x,y,1/2-z
-x,-y,-z
x,-y,1/2+z
1/2+x,1/2+y,z
1/2-x,1/2+y,1/2-z
1/2-x,1/2-y,-z
1/2+x,1/2-y,1/2+z
loop_
_atom_site_type_symbol
_atom_site_label
_atom_site_fract_x
_atom_site_fract_y
_atom_site_fract_z
Si Si1 0.928048 0.532787 0.903264
Si Si2 0.135459 0.006479 0.376326
Si Si3 0.886606 0.793232 0.982519
Si Si4 0.500000 0.386587 0.750000
Si Si5 0.650502 0.368971 0.263171
Si Si6 0.460075 0.825812 0.122693
O O1 0.773813 0.501212 0.923235
O O2 0.000000 0.524965 0.750000
O O3 0.943169 0.610197 0.925984
O O4 0.000000 0.500000 0.000000
O O5 0.150504 0.946205 0.280836
O O6 0.105992 0.069173 0.301683
O O7 0.000000 0.000000 0.500000
O O8 0.917464 0.840542 0.863872
O O9 0.008924 0.738514 0.962438
O O10 0.750000 0.750000 0.000000
O O11 0.855702 0.837491 0.104278
O O12 0.500000 0.349535 0.250000
O O13 0.795789 0.347057 0.160991
O O14 0.500000 0.807376 0.250000
#
# Coordination Sequence:
#
# PCOD9303545 Si02
#       6
#     8   8   8   4   8   8
#     4  11  26  45  71 101 143 187 234 291 354 421
#     4  12  25  41  68 105 142 176 231 294 353 420
#     4  12  23  45  71  98 138 185 235 279 346 426
#     4  12  26  38  74 108 132 180 240 280 350 426
#     4  12  25  43  69 100 142 183 224 296 355 407
#     4  11  22  45  70  97 134 190 230 271 356 427
#
# _framework density 20.438715999999999
#
# number of rings (size 3 to 8) (size 9 to 14) (size 15 to 20)
#    0.000    0.364    9.091    0.000    5.091    0.727 
#    0.000    2.727    0.000    0.000    0.000    0.000 
#    0.000    0.000    0.000    0.000    0.000    0.000 
#
# Total GULP energy -122875.566906 kJ/mol
# GULP energy per Si atom -5585.253041 kJ/mol
# Density = 2.039220 g / cm^3
# Si number density = 20.438716 Si / 1000 Ang^3
#
#
#
# Elastic Constant Matrix: (Units=GPa)
#
#
# Indices 1 2 3 4 5 6 
#
# 1 165.3838 45.5303 38.2432 0.0000 -13.1054 0.0000
# 2 45.5303 144.9481 55.5147 0.0000 -9.8780 0.0000
# 3 38.2432 55.5147 65.7069 0.0000 -4.0512 0.0000
# 4 0.0000 0.0000 0.0000 -20.8492 0.0000 -43.1159
# 5 -13.1054 -9.8780 -4.0512 0.0000 33.4041 0.0000
# 6 0.0000 0.0000 0.0000 -43.1159 0.0000 -6.7006
#
#
#
# Elastic Compliance Matrix: (Units=1/GPa)
#
#
# Indices 1 2 3 4 5 6 
#
# 1 0.007227 -0.000831 -0.003370 0.000000 0.002181 0.000000
# 2 -0.000831 0.010427 -0.008218 0.000000 0.001761 0.000000
# 3 -0.003370 -0.008218 0.024072 0.000000 -0.000833 0.000000
# 4 0.000000 0.000000 0.000000 0.003897 0.000000 -0.025078
# 5 0.002181 0.001761 -0.000833 0.000000 0.031212 0.000000
# 6 0.000000 0.000000 0.000000 -0.025078 0.000000 0.012127
#
#
# Mechanical properties :
#
#
# Convention : Reuss Voigt Hill
#
# Bulk Modulus (GPa) = 59.20790 72.73503 65.97147
# Shear Modulus (GPa) = 41.86540 16.95423 29.40982
#
# Velocity S-wave (km/s) = 4.53077 2.88326 3.79743
# Velocity P-wave (km/s) = 7.51012 6.83728 7.18158
#
# Compressibility (1/GPa) = 0.01688964
#
# Stress axis : x y z
#
# Youngs Moduli (GPa) = 138.36213 95.90113 41.54150
#
# Poissons Ratio (x) = 0.07968 0.14000
# Poissons Ratio (y) = 0.11496 0.34138
# Poissons Ratio (z) = 0.46629 0.78810
#
# Static dielectric constant tensor:
#      x y z
#    x 1.753300 0.000000 -0.059090 
#    y 0.000000 1.795340 0.000000 
#    z -0.059090 0.000000 1.725820 
# 
# From -- ./inp_files/78138.got.cif
#   From: 2010.05.17/outbox.cif.g08.bks.cpg/sg15_40_cif.got.tgz:78138.got - 2010.06.03 18:47:42.
