data_PCOD9303633
_publ_section_title
;
Structure prediction by ZEFSAII (Michael W. Deem and Ramdas Pophale) SiO2 
 PCOD9303633
Probable space group: C 2/C
;
_chemical_formula_sum "Si O2"
_cell_formula_units_Z 60
_cell_length_a 17.730272
_cell_length_b 29.575757
_cell_length_c 11.508146
_cell_angle_alpha 90.000000
_cell_angle_beta 153.388551
_cell_angle_gamma 90.000000
_cell_volume 2703.175832
_symmetry_space_group_name_H-M "C 2/C"
_symmetry_group_IT_number 15
_symmetry_cell_setting 'monoclinic'
loop_
_space_group_symop_operation_xyz
x,y,z
-x,y,1/2-z
-x,-y,-z
x,-y,1/2+z
1/2+x,1/2+y,z
1/2-x,1/2+y,1/2-z
1/2-x,1/2-y,-z
1/2+x,1/2-y,1/2+z
loop_
_atom_site_type_symbol
_atom_site_label
_atom_site_fract_x
_atom_site_fract_y
_atom_site_fract_z
Si Si1 0.000705 0.784878 0.540180
Si Si2 0.189561 0.683674 0.455012
Si Si3 0.500000 0.645580 0.250000
Si Si4 0.331694 0.197910 0.344178
Si Si5 0.195052 0.583560 0.495528
Si Si6 0.249244 0.071336 0.668128
Si Si7 0.316301 0.466995 0.957504
Si Si8 0.579791 0.092731 0.987585
O O1 0.013595 0.822625 0.657171
O O2 0.976955 0.735333 0.564793
O O3 0.162944 0.788176 0.680462
O O4 0.829751 0.795821 0.232907
O O5 0.191979 0.701419 0.327638
O O6 0.244506 0.631572 0.512215
O O7 0.000000 0.687467 0.250000
O O8 0.655119 0.611132 0.471161
O O9 0.380037 0.146164 0.442522
O O10 0.280981 0.578849 0.737485
O O11 0.214131 0.543181 0.433536
O O12 0.000000 0.587947 0.250000
O O13 0.440725 0.077507 0.890768
O O14 0.189016 0.020432 0.566359
O O15 0.239700 0.438473 0.744460
O O16 0.500000 0.451061 0.250000
O O17 0.500000 0.084501 0.750000
#
# Coordination Sequence:
#
# PCOD9303633 Si02
#       8
#     8   8   4   8   8   8   8   8
#     4  12  28  46  76 108 154 194 254 314 382 460
#     4  11  22  46  77 109 146 195 252 314 373 448
#     4  12  28  50  74 108 154 200 254 316 386 460
#     4  12  27  48  75 113 147 202 250 316 382 456
#     4  11  23  44  75 105 145 198 246 303 373 442
#     4  12  26  50  75 109 149 203 251 311 387 453
#     4  12  28  46  77 114 150 198 254 318 376 456
#     4  12  28  48  77 110 156 195 258 314 387 454
#
# _framework density 22.196114999999999
#
# number of rings (size 3 to 8) (size 9 to 14) (size 15 to 20)
#    0.000    0.267    4.667    3.600    6.533    2.133 
#    0.000    0.000    0.000    0.000    0.000    0.000 
#    0.000    0.000    0.000    0.000    0.000    0.000 
#
# Total GULP energy -167720.739132 kJ/mol
# GULP energy per Si atom -5590.691304 kJ/mol
# Density = 2.214560 g / cm^3
# Si number density = 22.196115 Si / 1000 Ang^3
#
#
#
# Elastic Constant Matrix: (Units=GPa)
#
#
# Indices 1 2 3 4 5 6 
#
# 1 102.0263 45.2578 53.1617 0.0000 -8.2556 0.0000
# 2 45.2578 146.3481 64.1705 0.0000 -25.1509 0.0000
# 3 53.1617 64.1705 113.0900 0.0000 -15.6210 0.0001
# 4 0.0000 0.0000 0.0000 39.4155 0.0000 -8.6776
# 5 -8.2556 -25.1509 -15.6210 0.0000 31.8779 0.0000
# 6 0.0000 0.0000 0.0001 -8.6776 0.0000 -17.6674
#
#
#
# Elastic Compliance Matrix: (Units=1/GPa)
#
#
# Indices 1 2 3 4 5 6 
#
# 1 0.013351 -0.001929 -0.005271 0.000000 -0.000647 0.000000
# 2 -0.001929 0.010179 -0.004107 0.000000 0.005519 0.000000
# 3 -0.005271 -0.004107 0.013959 0.000000 0.002235 0.000000
# 4 0.000000 0.000000 0.000000 0.022895 0.000000 -0.011245
# 5 -0.000647 0.005519 0.002235 0.000000 0.036652 0.000000
# 6 0.000000 0.000000 0.000000 -0.011245 0.000000 -0.051078
#
#
# Mechanical properties :
#
#
# Convention : Reuss Voigt Hill
#
# Bulk Modulus (GPa) = 67.22184 76.29381 71.75783
# Shear Modulus (GPa) = 67.99997 23.98348 45.99173
#
# Velocity S-wave (km/s) = 5.54098 3.29070 4.55693
# Velocity P-wave (km/s) = 8.44321 6.99182 7.75156
#
# Compressibility (1/GPa) = 0.01487612
#
# Stress axis : x y z
#
# Youngs Moduli (GPa) = 74.89977 98.24521 71.63654
#
# Poissons Ratio (x) = 0.18949 0.37760
# Poissons Ratio (y) = 0.14446 0.29419
# Poissons Ratio (z) = 0.39480 0.40346
#
# Static dielectric constant tensor:
#      x y z
#    x 1.715840 0.000000 -0.012340 
#    y 0.000000 1.883730 0.000000 
#    z -0.012340 0.000000 1.809120 
# 
# From -- ./inp_files/108430.got.cif
#   From: 2010.05.17/outbox.cif.g08.bks.cpg/sg15_55_cif.got.tgz:108430.got - 2010.06.03 18:47:42.
