data_PCOD9303543
_publ_section_title
;
Structure prediction by ZEFSAII (Michael W. Deem and Ramdas Pophale) SiO2 
 PCOD9303543
Probable space group: C 2/C
;
_chemical_formula_sum "Si O2"
_cell_formula_units_Z 48
_cell_length_a 16.171590
_cell_length_b 9.038850
_cell_length_c 29.775877
_cell_angle_alpha 90.000000
_cell_angle_beta 35.339749
_cell_angle_gamma 90.000000
_cell_volume 2517.540863
_symmetry_space_group_name_H-M "C 2/C"
_symmetry_group_IT_number 15
_symmetry_cell_setting 'monoclinic'
loop_
_space_group_symop_operation_xyz
x,y,z
-x,y,1/2-z
-x,-y,-z
x,-y,1/2+z
1/2+x,1/2+y,z
1/2-x,1/2+y,1/2-z
1/2-x,1/2-y,-z
1/2+x,1/2-y,1/2+z
loop_
_atom_site_type_symbol
_atom_site_label
_atom_site_fract_x
_atom_site_fract_y
_atom_site_fract_z
Si Si1 0.850805 0.329035 0.992119
Si Si2 0.345949 0.185054 0.837980
Si Si3 0.177609 0.275834 0.827000
Si Si4 0.647534 0.408523 0.929176
Si Si5 0.365450 0.430539 0.667440
Si Si6 0.178704 0.128108 0.063215
O O1 0.015463 0.334045 0.902927
O O2 0.750000 0.250000 0.000000
O O3 0.847727 0.227588 0.038438
O O4 0.784232 0.491950 0.026618
O O5 0.500000 0.148963 0.750000
O O6 0.253796 0.273746 0.841719
O O7 0.362070 0.289213 0.873293
O O8 0.267905 0.031977 0.885232
O O9 0.270538 0.355739 0.747912
O O10 0.172672 0.102560 0.817663
O O11 0.659722 0.364611 0.871309
O O12 0.500000 0.500000 0.000000
O O13 0.532918 0.423357 0.604407
O O14 0.250000 0.250000 0.000000
#
# Coordination Sequence:
#
# PCOD9303543 Si02
#       6
#     8   8   8   8   8   8
#     4  12  24  44  70  99 132 178 228 278 336 412
#     4  11  23  44  67  97 136 176 216 280 345 400
#     4  11  25  43  69  96 137 175 222 279 345 402
#     4  11  22  45  70  96 135 175 225 281 340 399
#     4  11  24  45  66 100 137 177 222 284 338 415
#     4  12  26  42  69  99 138 175 229 281 338 409
#
# _framework density 19.066224999999999
#
# number of rings (size 3 to 8) (size 9 to 14) (size 15 to 20)
#    0.000    0.667    6.667    2.000    2.333    4.667 
#    0.000    0.000    0.000    0.000    0.000    0.000 
#    0.000    0.000    0.000    0.000    0.000    0.000 
#
# Total GULP energy -134177.518837 kJ/mol
# GULP energy per Si atom -5590.729952 kJ/mol
# Density = 1.902283 g / cm^3
# Si number density = 19.066225 Si / 1000 Ang^3
#
#
#
# Elastic Constant Matrix: (Units=GPa)
#
#
# Indices 1 2 3 4 5 6 
#
# 1 58.9538 29.1147 -2.8598 -0.0001 -0.8761 0.0006
# 2 29.1147 92.9931 42.8147 -0.0005 11.3182 -0.0002
# 3 -2.8598 42.8147 86.0170 0.0001 -9.7515 0.0001
# 4 -0.0001 -0.0005 0.0001 37.7465 -0.0001 -2.5766
# 5 -0.8761 11.3182 -9.7515 -0.0001 39.0066 0.0001
# 6 0.0006 -0.0002 0.0001 -2.5766 0.0001 31.5602
#
#
#
# Elastic Compliance Matrix: (Units=1/GPa)
#
#
# Indices 1 2 3 4 5 6 
#
# 1 0.022759 -0.010909 0.006796 0.000000 0.005375 -0.000001
# 2 -0.010909 0.020665 -0.011687 0.000000 -0.009163 0.000000
# 3 0.006796 -0.011687 0.018598 0.000000 0.008193 0.000000
# 4 0.000000 0.000000 0.000000 0.026641 0.000000 0.002175
# 5 0.005375 -0.009163 0.008193 0.000000 0.030464 0.000000
# 6 -0.000001 0.000000 0.000000 0.002175 0.000000 0.031863
#
#
# Mechanical properties :
#
#
# Convention : Reuss Voigt Hill
#
# Bulk Modulus (GPa) = 32.87146 41.78924 37.33035
# Shear Modulus (GPa) = 25.94283 32.92228 29.43256
#
# Velocity S-wave (km/s) = 3.69273 4.15991 3.93326
# Velocity P-wave (km/s) = 5.95481 6.71108 6.34422
#
# Compressibility (1/GPa) = 0.03042153
#
# Stress axis : x y z
#
# Youngs Moduli (GPa) = 43.93816 48.39100 53.76995
#
# Poissons Ratio (x) = 0.52788 -0.36541
# Poissons Ratio (y) = 0.47931 0.62843
# Poissons Ratio (z) = -0.29859 0.56556
#
# Static dielectric constant tensor:
#      x y z
#    x 1.717770 0.000000 0.004600 
#    y 0.000000 1.628340 0.000000 
#    z 0.004600 0.000000 1.634740 
# 
# From -- ./inp_files/209264.got.cif
#   From: 2010.05.17/outbox.cif.g08.bks.cpg/sg15_105_cif.got.tgz:209264.got - 2010.06.03 18:47:42.
