data_PCOD9303139
_publ_section_title
;
Structure prediction by ZEFSAII (Michael W. Deem and Ramdas Pophale) SiO2 
 PCOD9303139
Probable space group: C 2/C
;
_chemical_formula_sum "Si O2"
_cell_formula_units_Z 48
_cell_length_a 27.667446
_cell_length_b 13.419832
_cell_length_c 9.265466
_cell_angle_alpha 90.000000
_cell_angle_beta 142.004070
_cell_angle_gamma 90.000000
_cell_volume 2117.804693
_symmetry_space_group_name_H-M "C 2/C"
_symmetry_group_IT_number 15
_symmetry_cell_setting 'monoclinic'
loop_
_space_group_symop_operation_xyz
x,y,z
-x,y,1/2-z
-x,-y,-z
x,-y,1/2+z
1/2+x,1/2+y,z
1/2-x,1/2+y,1/2-z
1/2-x,1/2-y,-z
1/2+x,1/2-y,1/2+z
loop_
_atom_site_type_symbol
_atom_site_label
_atom_site_fract_x
_atom_site_fract_y
_atom_site_fract_z
Si Si1 0.669672 0.495220 0.488032
Si Si2 0.087047 0.699410 0.012528
Si Si3 0.923660 0.074286 0.975608
Si Si4 0.406527 0.993842 0.785261
Si Si5 0.177118 0.400636 0.179928
Si Si6 0.753792 0.221047 0.336832
O O1 0.648486 0.547479 0.587940
O O2 0.593636 0.487706 0.207819
O O3 0.738518 0.557232 0.576747
O O4 0.704661 0.384886 0.585149
O O5 0.000000 0.674927 0.750000
O O6 0.076189 0.808125 0.059467
O O7 0.111575 0.607958 0.170481
O O8 0.160895 0.715253 0.078991
O O9 0.000000 0.052278 0.250000
O O10 0.364753 0.974559 0.534546
O O11 0.375814 0.088627 0.802895
O O12 0.500000 0.000000 0.000000
O O13 0.197268 0.299029 0.144273
O O14 0.750000 0.250000 0.500000
#
# Coordination Sequence:
#
# PCOD9303139 Si02
#       6
#     8   8   8   8   8   8
#     4  12  22  42  68  96 128 171 223 272 328 402
#     4  11  22  42  67  95 131 181 219 270 347 402
#     4  11  24  42  67  96 131 174 217 269 334 400
#     4  12  25  43  68 101 140 178 227 282 345 410
#     4  12  23  42  69 100 132 180 227 280 340 404
#     4  12  21  43  68  95 132 179 224 275 337 406
#
# _framework density 22.664978999999999
#
# number of rings (size 3 to 8) (size 9 to 14) (size 15 to 20)
#    0.000    0.333    6.667    3.000    0.000    0.000 
#    0.000   11.667    0.000    0.000    0.000    0.000 
#    0.000    0.000    0.000    0.000    0.000    0.000 
#
# Total GULP energy -134105.756392 kJ/mol
# GULP energy per Si atom -5587.739850 kJ/mol
# Density = 2.261339 g / cm^3
# Si number density = 22.664979 Si / 1000 Ang^3
#
#
#
# Elastic Constant Matrix: (Units=GPa)
#
#
# Indices 1 2 3 4 5 6 
#
# 1 86.0325 19.1940 4.1853 0.0000 14.3514 0.0000
# 2 19.1940 78.0680 8.0775 0.0000 -7.2399 0.0000
# 3 4.1853 8.0775 90.7589 0.0000 8.6261 0.0000
# 4 0.0000 0.0000 0.0000 30.3490 0.0000 6.2143
# 5 14.3514 -7.2399 8.6261 0.0000 40.3373 0.0000
# 6 0.0000 0.0000 0.0000 6.2143 0.0000 32.8160
#
#
#
# Elastic Compliance Matrix: (Units=1/GPa)
#
#
# Indices 1 2 3 4 5 6 
#
# 1 0.013383 -0.003826 0.000246 0.000000 -0.005501 0.000000
# 2 -0.003826 0.014299 -0.001500 0.000000 0.004248 0.000000
# 3 0.000246 -0.001500 0.011406 0.000000 -0.002796 0.000000
# 4 0.000000 0.000000 0.000000 0.034279 0.000000 -0.006491
# 5 -0.005501 0.004248 -0.002796 0.000000 0.028108 0.000000
# 6 0.000000 0.000000 0.000000 -0.006491 0.000000 0.031702
#
#
# Mechanical properties :
#
#
# Convention : Reuss Voigt Hill
#
# Bulk Modulus (GPa) = 34.56794 35.30813 34.93803
# Shear Modulus (GPa) = 32.68398 35.59396 34.13897
#
# Velocity S-wave (km/s) = 3.80155 3.96718 3.88525
# Velocity P-wave (km/s) = 5.87825 6.04952 5.96450
#
# Compressibility (1/GPa) = 0.02892854
#
# Stress axis : x y z
#
# Youngs Moduli (GPa) = 74.72333 69.93400 87.67251
#
# Poissons Ratio (x) = 0.26756 -0.02158
# Poissons Ratio (y) = 0.28588 0.13151
# Poissons Ratio (z) = -0.01839 0.10490
#
# Static dielectric constant tensor:
#      x y z
#    x 1.865160 0.000000 -0.001300 
#    y 0.000000 1.846740 0.000000 
#    z -0.001300 0.000000 1.889610 
# 
# From -- ./inp_files/66466.got.cif
#   From: 2010.05.17/outbox.cif.g08.bks.cpg/sg15_34_cif.got.tgz:66466.got - 2010.06.03 18:47:42.
