data_PCOD9303395
_publ_section_title
;
Structure prediction by ZEFSAII (Michael W. Deem and Ramdas Pophale) SiO2 
 PCOD9303395
Probable space group: C 2/C
;
_chemical_formula_sum "Si O2"
_cell_formula_units_Z 48
_cell_length_a 18.903164
_cell_length_b 7.917205
_cell_length_c 20.438643
_cell_angle_alpha 90.000000
_cell_angle_beta 36.996296
_cell_angle_gamma 90.000000
_cell_volume 1840.705097
_symmetry_space_group_name_H-M "C 2/C"
_symmetry_group_IT_number 15
_symmetry_cell_setting 'monoclinic'
loop_
_space_group_symop_operation_xyz
x,y,z
-x,y,1/2-z
-x,-y,-z
x,-y,1/2+z
1/2+x,1/2+y,z
1/2-x,1/2+y,1/2-z
1/2-x,1/2-y,-z
1/2+x,1/2-y,1/2+z
loop_
_atom_site_type_symbol
_atom_site_label
_atom_site_fract_x
_atom_site_fract_y
_atom_site_fract_z
Si Si1 0.134438 0.862206 0.660973
Si Si2 0.488862 0.105249 0.422703
Si Si3 0.204077 0.438709 0.535994
Si Si4 0.146240 0.223658 0.369626
Si Si5 0.688767 0.031442 0.686080
Si Si6 0.881851 0.070508 0.706400
O O1 0.203054 0.725551 0.654770
O O2 0.000000 0.804828 0.750000
O O3 0.193601 0.922429 0.550141
O O4 0.131616 0.027823 0.708108
O O5 0.379627 0.031713 0.463957
O O6 0.448525 0.154198 0.526075
O O7 0.517036 0.293865 0.376140
O O8 0.598573 0.999375 0.312496
O O9 0.250000 0.250000 0.500000
O O10 0.142155 0.460262 0.651339
O O11 0.263716 0.334075 0.268627
O O12 0.196864 0.079871 0.382203
O O13 0.099690 0.103784 0.346309
#
# Coordination Sequence:
#
# PCOD9303395 Si02
#       6
#     8   8   8   8   8   8
#     4  12  25  43  67 104 141 181 235 288 349 412
#     4  11  22  44  67 102 133 182 232 279 350 411
#     4  12  21  42  69  98 139 183 228 286 348 411
#     4  11  23  46  70 101 137 188 232 287 354 416
#     4  11  25  42  69 103 144 180 231 291 343 421
#     4  11  24  44  70  98 139 181 237 286 342 423
#
# _framework density 26.076962000000002
#
# number of rings (size 3 to 8) (size 9 to 14) (size 15 to 20)
#    0.000    0.667    3.333    5.500    0.000    0.000 
#    0.000    7.500    0.000    0.000    0.000    0.000 
#    0.000    0.000    0.000    0.000    0.000    0.000 
#
# Total GULP energy -134236.774598 kJ/mol
# GULP energy per Si atom -5593.198942 kJ/mol
# Density = 2.601761 g / cm^3
# Si number density = 26.076962 Si / 1000 Ang^3
#
#
#
# Elastic Constant Matrix: (Units=GPa)
#
#
# Indices 1 2 3 4 5 6 
#
# 1 42.6839 4.3714 15.2858 0.0000 12.2312 0.0000
# 2 4.3714 116.2663 45.6613 0.0001 0.0559 0.0000
# 3 15.2858 45.6613 127.4756 0.0001 23.3174 0.0000
# 4 0.0000 0.0001 0.0001 43.7655 0.0000 6.5137
# 5 12.2312 0.0559 23.3174 0.0000 42.4853 0.0000
# 6 0.0000 0.0000 0.0000 6.5137 0.0000 53.9332
#
#
#
# Elastic Compliance Matrix: (Units=1/GPa)
#
#
# Indices 1 2 3 4 5 6 
#
# 1 0.025965 -0.000250 -0.001842 0.000000 -0.006464 0.000000
# 2 -0.000250 0.010195 -0.004038 0.000000 0.002275 0.000000
# 3 -0.001842 -0.004038 0.010464 0.000000 -0.005208 0.000000
# 4 0.000000 0.000000 0.000000 0.023267 0.000000 -0.002810
# 5 -0.006464 0.002275 -0.005208 0.000000 0.028254 0.000000
# 6 0.000000 0.000000 0.000000 -0.002810 0.000000 0.018881
#
#
# Mechanical properties :
#
#
# Convention : Reuss Voigt Hill
#
# Bulk Modulus (GPa) = 29.09848 46.34030 37.71939
# Shear Modulus (GPa) = 35.52622 42.77730 39.15176
#
# Velocity S-wave (km/s) = 3.69502 4.05461 3.87898
# Velocity P-wave (km/s) = 5.42099 6.30309 5.87861
#
# Compressibility (1/GPa) = 0.03436606
#
# Stress axis : x y z
#
# Youngs Moduli (GPa) = 38.51266 98.08662 95.56177
#
# Poissons Ratio (x) = 0.02451 0.17599
# Poissons Ratio (y) = 0.00962 0.38587
# Poissons Ratio (z) = 0.07093 0.39607
#
# Static dielectric constant tensor:
#      x y z
#    x 2.026430 0.000000 -0.012750 
#    y 0.000000 2.026880 0.000000 
#    z -0.012750 0.000000 2.089780 
# 
# From -- ./inp_files/281607.got.cif
#   From: 2010.05.17/outbox.cif.g08.bks.cpg/sg15_141_cif.got.tgz:281607.got - 2010.06.03 18:47:42.
