data_PCOD9303438
_publ_section_title
;
Structure prediction by ZEFSAII (Michael W. Deem and Ramdas Pophale) SiO2 
 PCOD9303438
Probable space group: C 2/C
;
_chemical_formula_sum "Si O2"
_cell_formula_units_Z 28
_cell_length_a 10.150453
_cell_length_b 11.610901
_cell_length_c 11.602788
_cell_angle_alpha 90.000000
_cell_angle_beta 49.848371
_cell_angle_gamma 90.000000
_cell_volume 1045.203064
_symmetry_space_group_name_H-M "C 2/C"
_symmetry_group_IT_number 15
_symmetry_cell_setting 'monoclinic'
loop_
_space_group_symop_operation_xyz
x,y,z
-x,y,1/2-z
-x,-y,-z
x,-y,1/2+z
1/2+x,1/2+y,z
1/2-x,1/2+y,1/2-z
1/2-x,1/2-y,-z
1/2+x,1/2-y,1/2+z
loop_
_atom_site_type_symbol
_atom_site_label
_atom_site_fract_x
_atom_site_fract_y
_atom_site_fract_z
Si Si1 0.046617 0.284595 0.979708
Si Si2 0.000000 0.805196 0.250000
Si Si3 0.678749 0.110826 0.707622
Si Si4 0.820929 0.972367 0.815355
O O1 0.213961 0.006270 0.797613
O O2 0.152976 0.401793 0.938332
O O3 0.010789 0.263385 0.863770
O O4 0.887697 0.299019 0.155721
O O5 0.152193 0.901054 0.143242
O O6 0.500000 0.075178 0.750000
O O7 0.823087 0.182372 0.559555
O O8 0.000000 0.913442 0.750000
#
# Coordination Sequence:
#
# PCOD9303438 Si02
#       4
#     8   4   8   8
#     4  11  22  44  70  95 140 175 221 282 333 391
#     4   8  22  42  66 102 128 174 224 266 336 394
#     4  11  24  42  66 102 131 178 230 269 336 406
#     4   9  21  43  63  98 137 171 224 274 327 401
#
# _framework density 26.789052000000002
#
# number of rings (size 3 to 8) (size 9 to 14) (size 15 to 20)
#    0.857    1.143    0.000    2.571    2.000    4.571 
#    5.143    4.286    0.000    0.000    0.000    0.000 
#    0.000    0.000    0.000    0.000    0.000    0.000 
#
# Total GULP energy -78110.805566 kJ/mol
# GULP energy per Si atom -5579.343255 kJ/mol
# Density = 2.672808 g / cm^3
# Si number density = 26.789052 Si / 1000 Ang^3
#
#
#
# Elastic Constant Matrix: (Units=GPa)
#
#
# Indices 1 2 3 4 5 6 
#
# 1 149.9457 31.4895 15.6674 0.0000 27.3845 0.0000
# 2 31.4895 57.6160 29.4481 0.0000 -4.1834 0.0000
# 3 15.6674 29.4481 114.7412 0.0000 9.5921 0.0000
# 4 0.0000 0.0000 0.0000 19.1204 0.0000 -4.4476
# 5 27.3845 -4.1834 9.5921 0.0000 45.7191 0.0000
# 6 0.0000 0.0000 0.0000 -4.4476 0.0000 52.1421
#
#
#
# Elastic Compliance Matrix: (Units=1/GPa)
#
#
# Indices 1 2 3 4 5 6 
#
# 1 0.008875 -0.005665 0.000743 0.000000 -0.005990 0.000000
# 2 -0.005665 0.023993 -0.005956 0.000000 0.006838 0.000000
# 3 0.000743 -0.005956 0.010408 0.000000 -0.003174 0.000000
# 4 0.000000 0.000000 0.000000 0.053359 0.000000 0.004551
# 5 -0.005990 0.006838 -0.003174 0.000000 0.026752 0.000000
# 6 0.000000 0.000000 0.000000 0.004551 0.000000 0.019567
#
#
# Mechanical properties :
#
#
# Convention : Reuss Voigt Hill
#
# Bulk Modulus (GPa) = 46.46947 52.83476 49.65212
# Shear Modulus (GPa) = 29.08946 39.77618 34.43282
#
# Velocity S-wave (km/s) = 3.29883 3.85748 3.58904
# Velocity P-wave (km/s) = 5.64746 6.29329 5.97910
#
# Compressibility (1/GPa) = 0.02151950
#
# Stress axis : x y z
#
# Youngs Moduli (GPa) = 112.67346 41.67843 96.08271
#
# Poissons Ratio (x) = 0.23612 -0.07138
# Poissons Ratio (y) = 0.63833 0.57226
# Poissons Ratio (z) = -0.08370 0.24823
#
# Static dielectric constant tensor:
#      x y z
#    x 2.190180 0.000000 0.114520 
#    y 0.000000 2.115950 0.000000 
#    z 0.114520 0.000000 2.087940 
# 
# From -- ./inp_files/84173.got.cif
#   From: 2010.05.17/outbox.cif.g08.bks.cpg/sg15_43_cif.got.tgz:84173.got - 2010.06.03 18:47:42.
