data_PCOD9303350
_publ_section_title
;
Structure prediction by ZEFSAII (Michael W. Deem and Ramdas Pophale) SiO2 
 PCOD9303350
Probable space group: C 2/C
;
_chemical_formula_sum "Si O2"
_cell_formula_units_Z 60
_cell_length_a 25.235394
_cell_length_b 21.482788
_cell_length_c 14.323201
_cell_angle_alpha 90.000000
_cell_angle_beta 159.669657
_cell_angle_gamma 90.000000
_cell_volume 2697.807788
_symmetry_space_group_name_H-M "C 2/C"
_symmetry_group_IT_number 15
_symmetry_cell_setting 'monoclinic'
loop_
_space_group_symop_operation_xyz
x,y,z
-x,y,1/2-z
-x,-y,-z
x,-y,1/2+z
1/2+x,1/2+y,z
1/2-x,1/2+y,1/2-z
1/2-x,1/2-y,-z
1/2+x,1/2-y,1/2+z
loop_
_atom_site_type_symbol
_atom_site_label
_atom_site_fract_x
_atom_site_fract_y
_atom_site_fract_z
Si Si1 0.179028 0.473305 0.193787
Si Si2 0.834834 0.021184 0.762385
Si Si3 0.193858 0.741497 0.151991
Si Si4 0.601401 0.881243 0.565336
Si Si5 0.261442 0.086624 0.511686
Si Si6 0.123297 0.385505 0.811895
Si Si7 0.382343 0.708620 0.175762
Si Si8 0.500000 0.214980 0.250000
O O1 0.301593 0.461236 0.314620
O O2 0.138898 0.545901 0.119045
O O3 0.237668 0.456021 0.393597
O O4 0.024465 0.432276 0.927653
O O5 0.765682 0.077011 0.587846
O O6 0.741955 0.958959 0.581551
O O7 0.000000 0.000000 0.000000
O O8 0.167095 0.667246 0.099331
O O9 0.360798 0.750217 0.469609
O O10 0.162433 0.782506 0.007617
O O11 0.049346 0.764620 0.974282
O O12 0.419545 0.876783 0.267674
O O13 0.654410 0.864725 0.757790
O O14 0.132185 0.138229 0.312007
O O15 0.079062 0.328563 0.803664
O O16 0.250000 0.750000 0.000000
#
# Coordination Sequence:
#
# PCOD9303350 Si02
#       8
#     8   8   8   8   8   8   8   4
#     4  11  22  43  72  97 132 181 220 286 355 412
#     4  12  26  39  64 108 137 179 227 287 355 418
#     4  11  27  46  71 100 137 190 236 286 346 421
#     4  11  22  44  71 100 133 176 232 292 343 412
#     4  11  23  44  73 101 137 174 237 291 355 421
#     4  11  22  45  71  99 138 179 231 281 357 433
#     4  11  25  46  69 102 140 184 236 292 349 419
#     4  12  26  46  72 100 140 192 238 278 360 430
#
# _framework density 22.240279000000001
#
# number of rings (size 3 to 8) (size 9 to 14) (size 15 to 20)
#    0.000    0.800    5.333    2.400    3.733    2.133 
#    2.400    0.000    0.000    0.000    0.000    0.000 
#    0.000    0.000    0.000    0.000    0.000    0.000 
#
# Total GULP energy -167653.194275 kJ/mol
# GULP energy per Si atom -5588.439809 kJ/mol
# Density = 2.218966 g / cm^3
# Si number density = 22.240279 Si / 1000 Ang^3
#
#
#
# Elastic Constant Matrix: (Units=GPa)
#
#
# Indices 1 2 3 4 5 6 
#
# 1 76.8928 -8.7080 14.7758 0.0000 -3.5089 0.0000
# 2 -8.7080 78.6029 12.0935 0.0000 -1.4024 0.0000
# 3 14.7758 12.0935 98.8270 0.0000 17.9530 0.0000
# 4 0.0000 0.0000 0.0000 25.1234 0.0000 9.3824
# 5 -3.5089 -1.4024 17.9530 0.0000 25.6351 0.0000
# 6 0.0000 0.0000 0.0000 9.3824 0.0000 31.5337
#
#
#
# Elastic Compliance Matrix: (Units=1/GPa)
#
#
# Indices 1 2 3 4 5 6 
#
# 1 0.014037 0.002111 -0.003125 0.000000 0.004225 0.000000
# 2 0.002111 0.013382 -0.002450 0.000000 0.002737 0.000000
# 3 -0.003125 -0.002450 0.012589 0.000000 -0.009379 0.000000
# 4 0.000000 0.000000 0.000000 0.044779 0.000000 -0.013323
# 5 0.004225 0.002737 -0.009379 0.000000 0.046305 0.000000
# 6 0.000000 0.000000 0.000000 -0.013323 0.000000 0.035676
#
#
# Mechanical properties :
#
#
# Convention : Reuss Voigt Hill
#
# Bulk Modulus (GPa) = 30.22872 32.29391 31.26131
# Shear Modulus (GPa) = 27.06739 32.20254 29.63497
#
# Velocity S-wave (km/s) = 3.49240 3.80931 3.65429
# Velocity P-wave (km/s) = 5.46661 5.82235 5.64728
#
# Compressibility (1/GPa) = 0.03308113
#
# Stress axis : x y z
#
# Youngs Moduli (GPa) = 71.23787 74.72761 79.43159
#
# Poissons Ratio (x) = -0.15777 0.24820
# Poissons Ratio (y) = -0.15040 0.19464
# Poissons Ratio (z) = 0.22260 0.18312
#
# Static dielectric constant tensor:
#      x y z
#    x 1.909380 0.000000 -0.029340 
#    y 0.000000 1.858160 0.000000 
#    z -0.029340 0.000000 1.853920 
# 
# From -- ./inp_files/179118.got.cif
#   From: 2010.05.17/outbox.cif.g08.bks.cpg/sg15_90_cif.got.tgz:179118.got - 2010.06.03 18:47:42.
