data_PCOD9303212
_publ_section_title
;
Structure prediction by ZEFSAII (Michael W. Deem and Ramdas Pophale) SiO2 
 PCOD9303212
Probable space group: C 2/C
;
_chemical_formula_sum "Si O2"
_cell_formula_units_Z 64
_cell_length_a 17.433008
_cell_length_b 9.214802
_cell_length_c 27.934875
_cell_angle_alpha 90.000000
_cell_angle_beta 38.960618
_cell_angle_gamma 90.000000
_cell_volume 2821.681461
_symmetry_space_group_name_H-M "C 2/C"
_symmetry_group_IT_number 15
_symmetry_cell_setting 'monoclinic'
loop_
_space_group_symop_operation_xyz
x,y,z
-x,y,1/2-z
-x,-y,-z
x,-y,1/2+z
1/2+x,1/2+y,z
1/2-x,1/2+y,1/2-z
1/2-x,1/2-y,-z
1/2+x,1/2-y,1/2+z
loop_
_atom_site_type_symbol
_atom_site_label
_atom_site_fract_x
_atom_site_fract_y
_atom_site_fract_z
Si Si1 0.200247 0.496016 0.844189
Si Si2 0.788805 0.359675 0.939493
Si Si3 0.107214 0.280472 0.950691
Si Si4 0.856748 0.143814 0.467513
Si Si5 0.276963 0.459968 0.163648
Si Si6 0.065913 0.964154 0.316584
Si Si7 0.654670 0.733120 0.418666
Si Si8 0.561139 0.119984 0.317495
O O1 0.152855 0.441293 0.918527
O O2 0.342997 0.471156 0.767067
O O3 0.178957 0.667369 0.860454
O O4 0.123657 0.421051 0.838423
O O5 0.766605 0.271592 0.901238
O O6 0.921581 0.427729 0.882763
O O7 0.750000 0.250000 0.000000
O O8 0.699799 0.496847 0.983564
O O9 0.208335 0.186575 0.873335
O O10 0.090927 0.233552 0.013008
O O11 0.972571 0.266792 0.993678
O O12 0.750000 0.250000 0.500000
O O13 0.957210 0.075802 0.382246
O O14 0.345828 0.447636 0.180252
O O15 0.356101 0.571368 0.094974
O O16 0.146823 0.534681 0.237905
O O17 0.042913 0.793512 0.317144
#
# Coordination Sequence:
#
# PCOD9303212 Si02
#       8
#     8   8   8   8   8   8   8   8
#     4  11  26  42  74 107 136 186 243 295 350 426
#     4  12  26  43  69  98 142 184 231 287 364 426
#     4  12  24  45  69 100 141 179 243 292 339 427
#     4  12  28  45  70 102 138 189 233 293 365 424
#     4  11  22  42  71  99 130 184 233 281 354 418
#     4  11  22  47  70 100 142 184 230 293 366 417
#     4  12  24  43  70 105 134 188 237 288 347 431
#     4  11  24  43  71 104 142 180 236 297 355 425
#
# _framework density 22.681509999999999
#
# number of rings (size 3 to 8) (size 9 to 14) (size 15 to 20)
#    0.000    0.500    6.250    2.250    3.500    1.500 
#    0.000    3.125    0.000    0.000    0.000    0.000 
#    0.000    0.000    0.000    0.000    0.000    0.000 
#
# Total GULP energy -178541.628690 kJ/mol
# GULP energy per Si atom -5579.425897 kJ/mol
# Density = 2.262989 g / cm^3
# Si number density = 22.681510 Si / 1000 Ang^3
#
#
#
# Elastic Constant Matrix: (Units=GPa)
#
#
# Indices 1 2 3 4 5 6 
#
# 1 44.4977 16.1844 21.4503 0.0000 -12.0919 0.0002
# 2 16.1844 58.0692 22.2840 0.0000 -1.4784 0.0004
# 3 21.4503 22.2840 124.9517 0.0000 -20.4888 0.0000
# 4 0.0000 0.0000 0.0000 44.6715 0.0000 5.1021
# 5 -12.0919 -1.4784 -20.4888 0.0000 26.9801 -0.0001
# 6 0.0002 0.0004 0.0000 5.1021 -0.0001 31.6301
#
#
#
# Elastic Compliance Matrix: (Units=1/GPa)
#
#
# Indices 1 2 3 4 5 6 
#
# 1 0.028990 -0.007073 -0.001883 0.000000 0.011175 0.000000
# 2 -0.007073 0.020280 -0.003130 0.000000 -0.004435 0.000000
# 3 -0.001883 -0.003130 0.009958 0.000000 0.006547 0.000000
# 4 0.000000 0.000000 0.000000 0.022806 0.000000 -0.003679
# 5 0.011175 -0.004435 0.006547 0.000000 0.046802 0.000000
# 6 0.000000 0.000000 0.000000 -0.003679 0.000000 0.032209
#
#
# Mechanical properties :
#
#
# Convention : Reuss Voigt Hill
#
# Bulk Modulus (GPa) = 28.52479 38.59510 33.55995
# Shear Modulus (GPa) = 25.39344 31.82966 28.61155
#
# Velocity S-wave (km/s) = 3.34962 3.75017 3.55554
# Velocity P-wave (km/s) = 5.25009 5.98371 5.62886
#
# Compressibility (1/GPa) = 0.03505722
#
# Stress axis : x y z
#
# Youngs Moduli (GPa) = 34.49466 49.30904 100.42163
#
# Poissons Ratio (x) = 0.34875 0.18908
# Poissons Ratio (y) = 0.24397 0.31431
# Poissons Ratio (z) = 0.06495 0.15433
#
# Static dielectric constant tensor:
#      x y z
#    x 2.009250 0.000000 0.063400 
#    y 0.000000 1.823970 0.000000 
#    z 0.063400 0.000000 1.904590 
# 
# From -- ./inp_files/315662.got.cif
#   From: 2010.05.17/outbox.cif.g08.bks.cpg/sg15_158_cif.got.tgz:315662.got - 2010.06.03 18:47:42.
