data_PCOD9303998
_publ_section_title
;
Structure prediction by ZEFSAII (Michael W. Deem and Ramdas Pophale) SiO2 
 PCOD9303998
Probable space group: C 2/C
;
_chemical_formula_sum "Si O2"
_cell_formula_units_Z 60
_cell_length_a 18.313697
_cell_length_b 14.259058
_cell_length_c 25.240173
_cell_angle_alpha 90.000000
_cell_angle_beta 19.441059
_cell_angle_gamma 90.000000
_cell_volume 2193.768277
_symmetry_space_group_name_H-M "C 2/C"
_symmetry_group_IT_number 15
_symmetry_cell_setting 'monoclinic'
loop_
_space_group_symop_operation_xyz
x,y,z
-x,y,1/2-z
-x,-y,-z
x,-y,1/2+z
1/2+x,1/2+y,z
1/2-x,1/2+y,1/2-z
1/2-x,1/2-y,-z
1/2+x,1/2-y,1/2+z
loop_
_atom_site_type_symbol
_atom_site_label
_atom_site_fract_x
_atom_site_fract_y
_atom_site_fract_z
Si Si1 0.491194 0.694173 0.655394
Si Si2 0.858237 0.425641 0.892543
Si Si3 0.947411 0.917776 0.960074
Si Si4 0.540034 0.075497 0.605600
Si Si5 0.807090 0.459586 0.165171
Si Si6 0.500000 0.406163 0.750000
Si Si7 0.089260 0.227737 0.285995
Si Si8 0.555931 0.695474 0.484365
O O1 0.729911 0.655932 0.512924
O O2 0.349985 0.600226 0.764012
O O3 0.548063 0.685860 0.553453
O O4 0.299332 0.770347 0.799007
O O5 0.019178 0.485382 0.819835
O O6 0.000000 0.378034 0.750000
O O7 0.719561 0.508625 0.955332
O O8 0.949599 0.816178 0.930036
O O9 0.972605 0.893114 0.005301
O O10 0.176084 0.960010 0.784217
O O11 0.401799 0.100836 0.648513
O O12 0.780876 0.045835 0.420621
O O13 0.514236 0.170578 0.656302
O O14 0.000000 0.500000 0.000000
O O15 0.436133 0.341735 0.744875
O O16 0.349936 0.234734 0.117061
#
# Coordination Sequence:
#
# PCOD9303998 Si02
#       8
#     8   8   8   8   8   4   8   8
#     4  11  26  46  74 105 141 185 248 293 359 414
#     4  11  27  45  67 101 150 184 227 294 362 440
#     4  11  23  41  69 103 137 189 237 292 359 413
#     4  12  25  42  67 104 145 192 228 287 362 430
#     4  11  24  43  71 104 143 184 240 299 351 428
#     4  12  24  36  62 100 152 184 226 280 364 440
#     4  12  23  42  65 108 142 186 234 290 358 428
#     4  12  23  45  72 102 137 187 247 306 340 421
#
# _framework density 27.350199
#
# number of rings (size 3 to 8) (size 9 to 14) (size 15 to 20)
#    0.000    0.533    4.000    4.400    6.533    1.067 
#    0.000    0.667    0.000    0.000    0.000    0.000 
#    0.000    0.000    0.000    0.000    0.000    0.000 
#
# Total GULP energy -167613.473334 kJ/mol
# GULP energy per Si atom -5587.115778 kJ/mol
# Density = 2.728795 g / cm^3
# Si number density = 27.350199 Si / 1000 Ang^3
#
#
#
# Elastic Constant Matrix: (Units=GPa)
#
#
# Indices 1 2 3 4 5 6 
#
# 1 61.2093 -8.3859 2.2039 -0.0032 7.0810 0.0059
# 2 -8.3859 101.7660 4.2919 -0.0006 3.9974 0.0094
# 3 2.2039 4.2919 128.9781 0.0546 -3.0168 0.0142
# 4 -0.0032 -0.0006 0.0546 40.0551 0.0143 -2.4054
# 5 7.0810 3.9974 -3.0168 0.0143 40.9788 -0.0060
# 6 0.0059 0.0094 0.0142 -2.4054 -0.0060 32.4686
#
#
#
# Elastic Compliance Matrix: (Units=1/GPa)
#
#
# Indices 1 2 3 4 5 6 
#
# 1 0.016921 0.001534 -0.000413 0.000003 -0.003104 -0.000004
# 2 0.001534 0.010019 -0.000389 0.000001 -0.001271 -0.000003
# 3 -0.000413 -0.000389 0.007789 -0.000011 0.000683 -0.000004
# 4 0.000003 0.000001 -0.000011 0.025077 -0.000010 0.001858
# 5 -0.003104 -0.001271 0.000683 -0.000010 0.025113 0.000005
# 6 -0.000004 -0.000003 -0.000004 0.001858 0.000005 0.030937
#
#
# Mechanical properties :
#
#
# Convention : Reuss Voigt Hill
#
# Bulk Modulus (GPa) = 27.62957 32.01924 29.82440
# Shear Modulus (GPa) = 39.53870 42.29005 40.91437
#
# Velocity S-wave (km/s) = 3.80629 3.93650 3.87194
# Velocity P-wave (km/s) = 5.42597 5.69156 5.56035
#
# Compressibility (1/GPa) = 0.03619310
#
# Stress axis : x y z
#
# Youngs Moduli (GPa) = 59.09657 99.80837 128.38225
#
# Poissons Ratio (x) = -0.15308 0.05299
# Poissons Ratio (y) = -0.09064 0.04998
# Poissons Ratio (z) = 0.02439 0.03886
#
# Static dielectric constant tensor:
#      x y z
#    x 2.268570 0.000000 -0.054550 
#    y 0.000000 2.161230 0.000060 
#    z -0.054550 0.000060 2.196730 
# 
# From -- ./inp_files/301190.got.cif
#   From: 2010.05.17/outbox.cif.g08.bks.cpg/sg15_151_cif.got.tgz:301190.got - 2010.06.03 18:47:42.
