data_PCOD9303728
_publ_section_title
;
Structure prediction by ZEFSAII (Michael W. Deem and Ramdas Pophale) SiO2 
 PCOD9303728
Probable space group: C 2/C
;
_chemical_formula_sum "Si O2"
_cell_formula_units_Z 40
_cell_length_a 12.648350
_cell_length_b 11.026457
_cell_length_c 18.280550
_cell_angle_alpha 90.000000
_cell_angle_beta 51.498871
_cell_angle_gamma 90.000000
_cell_volume 1995.247080
_symmetry_space_group_name_H-M "C 2/C"
_symmetry_group_IT_number 15
_symmetry_cell_setting 'monoclinic'
loop_
_space_group_symop_operation_xyz
x,y,z
-x,y,1/2-z
-x,-y,-z
x,-y,1/2+z
1/2+x,1/2+y,z
1/2-x,1/2+y,1/2-z
1/2-x,1/2-y,-z
1/2+x,1/2-y,1/2+z
loop_
_atom_site_type_symbol
_atom_site_label
_atom_site_fract_x
_atom_site_fract_y
_atom_site_fract_z
Si Si1 0.978705 0.857524 0.005145
Si Si2 0.930698 0.190212 0.185167
Si Si3 0.500000 0.462405 0.250000
Si Si4 0.000000 0.561895 0.250000
Si Si5 0.179806 0.664870 0.651527
Si Si6 0.102018 0.233440 0.599114
O O1 0.822796 0.837557 0.051517
O O2 0.010933 0.802727 0.069456
O O3 0.072817 0.808745 0.899875
O O4 0.000000 0.000000 0.000000
O O5 0.811022 0.258917 0.277517
O O6 0.939502 0.055532 0.215728
O O7 0.065123 0.265244 0.153573
O O8 0.402026 0.373711 0.338140
O O9 0.874173 0.467837 0.302597
O O10 0.962256 0.649268 0.333652
O O11 0.250000 0.250000 0.500000
#
# Coordination Sequence:
#
# PCOD9303728 Si02
#       6
#     8   8   4   4   8   8
#     4  12  22  36  63  94 115 156 206 242 294 360
#     4   9  20  41  63  87 117 157 202 245 299 351
#     4   9  19  40  58  88 113 165 190 244 300 343
#     4   9  21  42  58  86 121 163 188 250 308 347
#     4   9  21  41  63  83 123 157 198 249 298 352
#     4  11  23  38  60  88 129 158 196 244 306 358
#
# _framework density 20.047642
#
# number of rings (size 3 to 8) (size 9 to 14) (size 15 to 20)
#    0.000    2.400    2.000    1.800    0.000    4.800 
#    3.600    4.000    0.000    0.000    0.000    0.000 
#    0.000    0.000    0.000    0.000    0.000    0.000 
#
# Total GULP energy -111476.597296 kJ/mol
# GULP energy per Si atom -5573.829865 kJ/mol
# Density = 2.000201 g / cm^3
# Si number density = 20.047642 Si / 1000 Ang^3
#
#
#
# Elastic Constant Matrix: (Units=GPa)
#
#
# Indices 1 2 3 4 5 6 
#
# 1 35.6355 14.4862 19.2155 0.0000 -0.3910 0.0000
# 2 14.4862 130.4037 56.5007 0.0000 10.3792 0.0000
# 3 19.2155 56.5007 126.8660 0.0000 18.9798 0.0000
# 4 0.0000 0.0000 0.0000 31.5144 0.0000 -2.0795
# 5 -0.3910 10.3792 18.9798 0.0000 24.1554 0.0000
# 6 0.0000 0.0000 0.0000 -2.0795 0.0000 5.3261
#
#
#
# Elastic Compliance Matrix: (Units=1/GPa)
#
#
# Indices 1 2 3 4 5 6 
#
# 1 0.031391 -0.001859 -0.004671 0.000000 0.004977 0.000000
# 2 -0.001859 0.009628 -0.003833 0.000000 -0.001155 0.000000
# 3 -0.004671 -0.003833 0.011402 0.000000 -0.007388 0.000000
# 4 0.000000 0.000000 0.000000 0.032571 0.000000 0.012717
# 5 0.004977 -0.001155 -0.007388 0.000000 0.047780 0.000000
# 6 0.000000 0.000000 0.000000 0.012717 0.000000 0.192720
#
#
# Mechanical properties :
#
#
# Convention : Reuss Voigt Hill
#
# Bulk Modulus (GPa) = 31.55233 52.59002 42.07117
# Shear Modulus (GPa) = 14.01406 25.71271 19.86338
#
# Velocity S-wave (km/s) = 2.64680 3.58520 3.15113
# Velocity P-wave (km/s) = 5.01135 6.58997 5.85411
#
# Compressibility (1/GPa) = 0.03169338
#
# Stress axis : x y z
#
# Youngs Moduli (GPa) = 31.85612 103.86466 87.70145
#
# Poissons Ratio (x) = 0.19313 0.40967
# Poissons Ratio (y) = 0.05923 0.33620
# Poissons Ratio (z) = 0.14880 0.39816
#
# Static dielectric constant tensor:
#      x y z
#    x 1.728760 0.000000 0.043880 
#    y 0.000000 1.701510 0.000000 
#    z 0.043880 0.000000 2.037320 
# 
# From -- ./inp_files/203416.got.cif
#   From: 2010.05.17/outbox.cif.g08.bks.cpg/sg15_102_cif.got.tgz:203416.got - 2010.06.03 18:47:42.
