data_PCOD9303508
_publ_section_title
;
Structure prediction by ZEFSAII (Michael W. Deem and Ramdas Pophale) SiO2 
 PCOD9303508
Probable space group: C 2/C
;
_chemical_formula_sum "Si O2"
_cell_formula_units_Z 44
_cell_length_a 12.393816
_cell_length_b 29.675949
_cell_length_c 11.830804
_cell_angle_alpha 90.000000
_cell_angle_beta 23.486629
_cell_angle_gamma 90.000000
_cell_volume 1734.165082
_symmetry_space_group_name_H-M "C 2/C"
_symmetry_group_IT_number 15
_symmetry_cell_setting 'monoclinic'
loop_
_space_group_symop_operation_xyz
x,y,z
-x,y,1/2-z
-x,-y,-z
x,-y,1/2+z
1/2+x,1/2+y,z
1/2-x,1/2+y,1/2-z
1/2-x,1/2-y,-z
1/2+x,1/2-y,1/2+z
loop_
_atom_site_type_symbol
_atom_site_label
_atom_site_fract_x
_atom_site_fract_y
_atom_site_fract_z
Si Si1 0.758049 0.695184 0.568542
Si Si2 0.000000 0.932061 0.750000
Si Si3 0.909456 0.895862 0.144263
Si Si4 0.924171 0.724088 0.651447
Si Si5 0.103677 0.377587 0.995364
Si Si6 0.770850 0.991527 0.311247
O O1 0.500000 0.715325 0.750000
O O2 0.649378 0.648638 0.728004
O O3 0.869811 0.722321 0.568446
O O4 0.000000 0.685170 0.250000
O O5 0.232494 0.894701 0.555464
O O6 0.178097 0.970930 0.645097
O O7 0.685786 0.899215 0.258752
O O8 0.835710 0.940421 0.286240
O O9 0.196611 0.889904 0.804365
O O10 0.047034 0.675539 0.559136
O O11 0.634408 0.736741 0.979478
O O12 0.500000 0.000000 0.500000
O O13 0.000000 0.000000 0.000000
#
# Coordination Sequence:
#
# PCOD9303508 Si02
#       6
#     8   4   8   8   8   8
#     4  11  23  38  63 100 133 177 225 277 344 420
#     4  12  26  46  74 106 138 190 234 282 350 404
#     4  11  22  45  62  93 143 182 213 279 338 405
#     4  11  23  43  66  94 132 178 224 291 352 403
#     4  11  24  44  71  95 134 176 230 273 349 409
#     4  12  25  45  68 104 141 177 235 285 331 410
#
# _framework density 25.372439
#
# number of rings (size 3 to 8) (size 9 to 14) (size 15 to 20)
#    0.000    0.727    3.636    5.455    1.273    5.091 
#    0.000    0.909    0.000    0.000    0.000    0.000 
#    0.000    0.000    0.000    0.000    0.000    0.000 
#
# Total GULP energy -122826.401713 kJ/mol
# GULP energy per Si atom -5583.018260 kJ/mol
# Density = 2.531469 g / cm^3
# Si number density = 25.372439 Si / 1000 Ang^3
#
#
#
# Elastic Constant Matrix: (Units=GPa)
#
#
# Indices 1 2 3 4 5 6 
#
# 1 127.1800 32.7758 19.2012 0.0002 -39.1009 -0.0001
# 2 32.7758 158.5164 9.9240 0.0000 -32.7594 0.0000
# 3 19.2012 9.9240 95.1554 0.0006 -35.1525 -0.0003
# 4 0.0002 0.0000 0.0006 16.9668 -0.0003 -36.6130
# 5 -39.1009 -32.7594 -35.1525 -0.0003 45.9408 0.0002
# 6 -0.0001 0.0000 -0.0003 -36.6130 0.0002 24.9467
#
#
#
# Elastic Compliance Matrix: (Units=1/GPa)
#
#
# Indices 1 2 3 4 5 6 
#
# 1 0.010850 -0.000207 0.001658 0.000000 0.010355 0.000000
# 2 -0.000207 0.007591 0.001652 0.000000 0.006501 0.000000
# 3 0.001658 0.001652 0.015277 0.000000 0.014278 0.000000
# 4 0.000000 0.000000 0.000000 -0.027197 0.000000 -0.039916
# 5 0.010355 0.006501 0.014278 0.000000 0.046141 0.000000
# 6 0.000000 0.000000 0.000000 -0.039916 0.000000 -0.018498
#
#
# Mechanical properties :
#
#
# Convention : Reuss Voigt Hill
#
# Bulk Modulus (GPa) = 25.04884 56.07265 40.56074
# Shear Modulus (GPa) = 121.16209 38.83425 79.99817
#
# Velocity S-wave (km/s) = 6.91788 3.91649 5.62121
# Velocity P-wave (km/s) = 8.58507 6.52684 7.62571
#
# Compressibility (1/GPa) = 0.03992201
#
# Stress axis : x y z
#
# Youngs Moduli (GPa) = 92.16971 131.72845 65.45792
#
# Poissons Ratio (x) = 0.02728 -0.10850
# Poissons Ratio (y) = 0.01909 -0.10811
# Poissons Ratio (z) = -0.15278 -0.21756
#
# Static dielectric constant tensor:
#      x y z
#    x 2.086220 0.000000 0.082370 
#    y 0.000000 2.140660 0.000000 
#    z 0.082370 0.000000 1.996620 
# 
# From -- ./inp_files/157514.got.cif
#   From: 2010.05.17/outbox.cif.g08.bks.cpg/sg15_79_cif.got.tgz:157514.got - 2010.06.03 18:47:42.
