data_PCOD9303962
_publ_section_title
;
Structure prediction by ZEFSAII (Michael W. Deem and Ramdas Pophale) SiO2 
 PCOD9303962
Probable space group: C 2/C
;
_chemical_formula_sum "Si O2"
_cell_formula_units_Z 40
_cell_length_a 9.495380
_cell_length_b 17.245495
_cell_length_c 9.840709
_cell_angle_alpha 90.000000
_cell_angle_beta 97.995403
_cell_angle_gamma 90.000000
_cell_volume 1595.776535
_symmetry_space_group_name_H-M "C 2/C"
_symmetry_group_IT_number 15
_symmetry_cell_setting 'monoclinic'
loop_
_space_group_symop_operation_xyz
x,y,z
-x,y,1/2-z
-x,-y,-z
x,-y,1/2+z
1/2+x,1/2+y,z
1/2-x,1/2+y,1/2-z
1/2-x,1/2-y,-z
1/2+x,1/2-y,1/2+z
loop_
_atom_site_type_symbol
_atom_site_label
_atom_site_fract_x
_atom_site_fract_y
_atom_site_fract_z
Si Si1 0.433281 0.209629 0.600036
Si Si2 0.707235 0.395119 0.172955
Si Si3 0.408385 0.605976 0.108144
Si Si4 0.832151 0.560281 0.230890
Si Si5 0.714285 0.161592 0.525168
O O1 0.500000 0.183355 0.750000
O O2 0.276579 0.176532 0.598426
O O3 0.443179 0.302233 0.603552
O O4 0.541819 0.167164 0.514888
O O5 0.806368 0.469885 0.200329
O O6 0.700924 0.364678 0.327499
O O7 0.584151 0.420185 0.049339
O O8 0.500000 0.574355 0.250000
O O9 0.249825 0.585177 0.143032
O O10 0.000000 0.575063 0.250000
O O11 0.757609 0.607579 0.098871
O O12 0.750000 0.250000 0.500000
#
# Coordination Sequence:
#
# PCOD9303962 Si02
#       5
#     8   8   8   8   8
#     4   9  19  38  64  92 128 171 217 272 336 395
#     4  11  23  41  67  96 134 178 222 280 346 402
#     4  11  24  44  65  92 137 183 220 271 347 413
#     4  12  25  43  70 102 132 171 230 287 333 397
#     4  11  23  41  67 102 135 174 231 283 329 400
#
# _framework density 25.066165999999999
#
# number of rings (size 3 to 8) (size 9 to 14) (size 15 to 20)
#    0.000    1.200    0.000    8.400    0.000    4.800 
#    0.000    5.000    0.000    1.200    0.000    0.000 
#    0.000    0.000    0.000    0.000    0.000    0.000 
#
# Total GULP energy -111554.614894 kJ/mol
# GULP energy per Si atom -5577.730745 kJ/mol
# Density = 2.500911 g / cm^3
# Si number density = 25.066166 Si / 1000 Ang^3
#
#
#
# Elastic Constant Matrix: (Units=GPa)
#
#
# Indices 1 2 3 4 5 6 
#
# 1 75.1181 -9.3848 28.0028 0.0000 5.6005 0.0000
# 2 -9.3848 86.7496 56.7294 0.0000 2.8515 0.0000
# 3 28.0028 56.7294 197.5999 0.0000 31.9893 0.0000
# 4 0.0000 0.0000 0.0000 28.7600 0.0000 -2.1347
# 5 5.6005 2.8515 31.9893 0.0000 37.8580 0.0000
# 6 0.0000 0.0000 0.0000 -2.1347 0.0000 34.1352
#
#
#
# Elastic Compliance Matrix: (Units=1/GPa)
#
#
# Indices 1 2 3 4 5 6 
#
# 1 0.014963 0.003721 -0.003226 0.000000 0.000232 0.000000
# 2 0.003721 0.015369 -0.005402 0.000000 0.002857 0.000000
# 3 -0.003226 -0.005402 0.008023 0.000000 -0.005895 0.000000
# 4 0.000000 0.000000 0.000000 0.034933 0.000000 0.002185
# 5 0.000232 0.002857 -0.005895 0.000000 0.031146 0.000000
# 6 0.000000 0.000000 0.000000 0.002185 0.000000 0.029432
#
#
# Mechanical properties :
#
#
# Convention : Reuss Voigt Hill
#
# Bulk Modulus (GPa) = 35.03889 56.68469 45.86179
# Shear Modulus (GPa) = 32.63849 39.09199 35.86524
#
# Velocity S-wave (km/s) = 3.61237 3.95340 3.78673
# Velocity P-wave (km/s) = 5.60427 6.59563 6.12005
#
# Compressibility (1/GPa) = 0.02853971
#
# Stress axis : x y z
#
# Youngs Moduli (GPa) = 66.83321 65.06753 124.63879
#
# Poissons Ratio (x) = -0.24211 0.40212
# Poissons Ratio (y) = -0.24868 0.67329
# Poissons Ratio (z) = 0.21562 0.35149
#
# Static dielectric constant tensor:
#      x y z
#    x 2.677900 0.000000 -0.031210 
#    y 0.000000 1.921150 0.000000 
#    z -0.031210 0.000000 2.032320 
# 
# From -- ./inp_files/29335.got.cif
#   From: 2010.05.17/outbox.cif.g08.bks.cpg/sg15_15_cif.got.tgz:29335.got - 2010.06.03 18:47:42.
