data_PCOD9303386
_publ_section_title
;
Structure prediction by ZEFSAII (Michael W. Deem and Ramdas Pophale) SiO2 
 PCOD9303386
Probable space group: C 2/C
;
_chemical_formula_sum "Si O2"
_cell_formula_units_Z 56
_cell_length_a 15.350498
_cell_length_b 17.750829
_cell_length_c 14.230675
_cell_angle_alpha 90.000000
_cell_angle_beta 34.918050
_cell_angle_gamma 90.000000
_cell_volume 2219.573016
_symmetry_space_group_name_H-M "C 2/C"
_symmetry_group_IT_number 15
_symmetry_cell_setting 'monoclinic'
loop_
_space_group_symop_operation_xyz
x,y,z
-x,y,1/2-z
-x,-y,-z
x,-y,1/2+z
1/2+x,1/2+y,z
1/2-x,1/2+y,1/2-z
1/2-x,1/2-y,-z
1/2+x,1/2-y,1/2+z
loop_
_atom_site_type_symbol
_atom_site_label
_atom_site_fract_x
_atom_site_fract_y
_atom_site_fract_z
Si Si1 0.937078 0.521568 0.408803
Si Si2 0.868153 0.808736 0.441130
Si Si3 0.339532 0.506451 0.735828
Si Si4 0.985434 0.748037 0.997308
Si Si5 0.573566 0.607745 0.083387
Si Si6 0.823340 0.624601 0.236101
Si Si7 0.340697 0.108361 0.736677
O O1 0.005116 0.597121 0.395011
O O2 0.024344 0.452355 0.381482
O O3 0.000000 0.521301 0.250000
O O4 0.758536 0.515503 0.582915
O O5 0.750000 0.750000 0.500000
O O6 0.950550 0.772669 0.458340
O O7 0.760680 0.868267 0.589518
O O8 0.000000 0.831446 0.250000
O O9 0.505003 0.473300 0.609884
O O10 0.263929 0.438457 0.744528
O O11 0.291686 0.580026 0.718740
O O12 0.836991 0.699562 0.161211
O O13 0.965804 0.820843 0.948881
O O14 0.089969 0.687771 0.851023
O O15 0.500000 0.620817 0.250000
O O16 0.755779 0.606112 0.912300
#
# Coordination Sequence:
#
# PCOD9303386 Si02
#       7
#     8   8   8   8   8   8   8
#     4  11  23  41  71 101 130 182 243 295 343 433
#     4  12  26  41  68 103 142 184 231 292 355 434
#     4  11  22  48  71  95 142 187 240 295 359 424
#     4  12  24  46  72 103 145 187 238 295 362 429
#     4  12  28  45  70 109 149 190 237 298 364 434
#     4  11  22  44  66 101 135 183 238 291 359 419
#     4  11  24  45  74 100 139 192 235 295 365 418
#
# _framework density 25.230080000000001
#
# number of rings (size 3 to 8) (size 9 to 14) (size 15 to 20)
#    0.000    0.571    5.714    3.000    2.000    1.143 
#    0.000    2.857    0.000    0.000    0.000    0.000 
#    0.000    0.000    0.000    0.000    0.000    0.000 
#
# Total GULP energy -156688.429693 kJ/mol
# GULP energy per Si atom -5596.015346 kJ/mol
# Density = 2.517265 g / cm^3
# Si number density = 25.230080 Si / 1000 Ang^3
#
#
#
# Elastic Constant Matrix: (Units=GPa)
#
#
# Indices 1 2 3 4 5 6 
#
# 1 31.6911 5.2855 -4.6523 -0.0001 13.9237 -0.0001
# 2 5.2855 85.4700 16.9081 -0.0002 -8.0830 0.0000
# 3 -4.6523 16.9081 188.7783 0.0006 11.5936 -0.0005
# 4 -0.0001 -0.0002 0.0006 53.5149 -0.0004 -9.1593
# 5 13.9237 -8.0830 11.5936 -0.0004 43.7132 0.0001
# 6 -0.0001 0.0000 -0.0005 -9.1593 0.0001 25.1830
#
#
#
# Elastic Compliance Matrix: (Units=1/GPa)
#
#
# Indices 1 2 3 4 5 6 
#
# 1 0.038528 -0.004094 0.002151 0.000000 -0.013600 0.000000
# 2 -0.004094 0.012627 -0.001479 0.000000 0.004031 0.000000
# 3 0.002151 -0.001479 0.005633 0.000000 -0.002453 0.000000
# 4 0.000000 0.000000 0.000000 0.019927 0.000000 0.007248
# 5 -0.013600 0.004031 -0.002453 0.000000 0.028604 0.000000
# 6 0.000000 0.000000 0.000000 0.007248 0.000000 0.042345
#
#
# Mechanical properties :
#
#
# Convention : Reuss Voigt Hill
#
# Bulk Modulus (GPa) = 20.02232 37.89131 28.95682
# Shear Modulus (GPa) = 29.21274 43.70877 36.46076
#
# Velocity S-wave (km/s) = 3.40642 4.16674 3.80561
# Velocity P-wave (km/s) = 4.83991 6.18060 5.55088
#
# Compressibility (1/GPa) = 0.04994425
#
# Stress axis : x y z
#
# Youngs Moduli (GPa) = 25.95486 79.19460 177.51284
#
# Poissons Ratio (x) = 0.32425 -0.38191
# Poissons Ratio (y) = 0.10627 0.26262
# Poissons Ratio (z) = -0.05584 0.11716
#
# Static dielectric constant tensor:
#      x y z
#    x 2.039060 0.000000 -0.010610 
#    y 0.000000 2.001140 0.000000 
#    z -0.010610 0.000000 2.050750 
# 
# From -- ./inp_files/163766.got.cif
#   From: 2010.05.17/outbox.cif.g08.bks.cpg/sg15_82_cif.got.tgz:163766.got - 2010.06.03 18:47:42.
