data_PCOD9303449
_publ_section_title
;
Structure prediction by ZEFSAII (Michael W. Deem and Ramdas Pophale) SiO2 
 PCOD9303449
Probable space group: C 2/C
;
_chemical_formula_sum "Si O2"
_cell_formula_units_Z 44
_cell_length_a 23.702445
_cell_length_b 4.903358
_cell_length_c 15.102175
_cell_angle_alpha 90.000000
_cell_angle_beta 99.684119
_cell_angle_gamma 90.000000
_cell_volume 1730.187192
_symmetry_space_group_name_H-M "C 2/C"
_symmetry_group_IT_number 15
_symmetry_cell_setting 'monoclinic'
loop_
_space_group_symop_operation_xyz
x,y,z
-x,y,1/2-z
-x,-y,-z
x,-y,1/2+z
1/2+x,1/2+y,z
1/2-x,1/2+y,1/2-z
1/2-x,1/2-y,-z
1/2+x,1/2-y,1/2+z
loop_
_atom_site_type_symbol
_atom_site_label
_atom_site_fract_x
_atom_site_fract_y
_atom_site_fract_z
Si Si1 0.792168 0.541163 0.770976
Si Si2 0.685000 0.824066 0.481001
Si Si3 0.108255 0.335818 0.318271
Si Si4 0.145014 0.156817 0.051287
Si Si5 0.500000 0.498459 0.250000
Si Si6 0.466412 0.826660 0.564468
O O1 0.753155 0.273457 0.775268
O O2 0.847796 0.475302 0.724099
O O3 0.826196 0.702282 0.856927
O O4 0.750000 0.750000 0.500000
O O5 0.654618 0.677591 0.389651
O O6 0.658430 0.661621 0.555868
O O7 0.675038 0.145533 0.485320
O O8 0.071689 0.474457 0.385706
O O9 0.059175 0.168864 0.255762
O O10 0.078225 0.164296 0.008946
O O11 0.504406 0.339101 0.346024
O O12 0.500000 0.000000 0.500000
#
# Coordination Sequence:
#
# PCOD9303449 Si02
#       6
#     8   8   8   8   4   8
#     4  12  28  48  78 115 160 206 264 340 406 482
#     4  11  22  44  71 103 145 198 254 321 389 470
#     4  11  27  46  75 115 154 209 269 328 409 483
#     4  11  24  44  68 108 145 198 256 313 393 467
#     4  12  26  50  80 112 164 208 274 330 404 486
#     4  11  28  49  76 114 161 213 267 336 401 480
#
# _framework density 25.430774
#
# number of rings (size 3 to 8) (size 9 to 14) (size 15 to 20)
#    0.000    0.727    1.818    4.364    7.636    5.091 
#    0.000    0.000    0.000    0.000    0.000    0.000 
#    0.000    0.000    0.000    0.000    0.000    0.000 
#
# Total GULP energy -122561.166292 kJ/mol
# GULP energy per Si atom -5570.962104 kJ/mol
# Density = 2.537289 g / cm^3
# Si number density = 25.430774 Si / 1000 Ang^3
#
#
#
# Elastic Constant Matrix: (Units=GPa)
#
#
# Indices 1 2 3 4 5 6 
#
# 1 165.9872 29.4913 56.2662 0.0000 6.6224 0.0000
# 2 29.4913 69.5685 -4.9137 0.0000 2.4148 0.0000
# 3 56.2662 -4.9137 112.9213 0.0000 31.9286 0.0000
# 4 0.0000 0.0000 0.0000 31.0746 0.0000 2.1233
# 5 6.6224 2.4148 31.9286 0.0000 56.8546 0.0000
# 6 0.0000 0.0000 0.0000 2.1233 0.0000 24.4063
#
#
#
# Elastic Compliance Matrix: (Units=1/GPa)
#
#
# Indices 1 2 3 4 5 6 
#
# 1 0.008286 -0.003921 -0.004843 0.000000 0.001921 0.000000
# 2 -0.003921 0.016338 0.003248 0.000000 -0.002061 0.000000
# 3 -0.004843 0.003248 0.013421 0.000000 -0.007111 0.000000
# 4 0.000000 0.000000 0.000000 0.032373 0.000000 -0.002816
# 5 0.001921 -0.002061 -0.007111 0.000000 0.021446 0.000000
# 6 0.000000 0.000000 0.000000 -0.002816 0.000000 0.041218
#
#
# Mechanical properties :
#
#
# Convention : Reuss Voigt Hill
#
# Bulk Modulus (GPa) = 37.02120 56.68493 46.85306
# Shear Modulus (GPa) = 32.65461 40.30933 36.48197
#
# Velocity S-wave (km/s) = 3.58726 3.98560 3.79167
# Velocity P-wave (km/s) = 5.63446 6.59684 6.13455
#
# Compressibility (1/GPa) = 0.02701155
#
# Stress axis : x y z
#
# Youngs Moduli (GPa) = 120.68288 61.20854 74.51266
#
# Poissons Ratio (x) = 0.24002 0.36083
# Poissons Ratio (y) = 0.47324 -0.24199
# Poissons Ratio (z) = 0.58442 -0.19878
#
# Static dielectric constant tensor:
#      x y z
#    x 2.445060 0.000000 0.180480 
#    y 0.000000 2.053450 0.000000 
#    z 0.180480 0.000000 2.412250 
# 
# From -- ./inp_files/170864.got.cif
#   From: 2010.05.17/outbox.cif.g08.bks.cpg/sg15_86_cif.got.tgz:170864.got - 2010.06.03 18:47:42.
