data_PCOD9303593
_publ_section_title
;
Structure prediction by ZEFSAII (Michael W. Deem and Ramdas Pophale) SiO2 
 PCOD9303593
Probable space group: C 2/C
;
_chemical_formula_sum "Si O2"
_cell_formula_units_Z 40
_cell_length_a 12.713370
_cell_length_b 7.914801
_cell_length_c 17.806438
_cell_angle_alpha 90.000000
_cell_angle_beta 65.119766
_cell_angle_gamma 90.000000
_cell_volume 1625.457484
_symmetry_space_group_name_H-M "C 2/C"
_symmetry_group_IT_number 15
_symmetry_cell_setting 'monoclinic'
loop_
_space_group_symop_operation_xyz
x,y,z
-x,y,1/2-z
-x,-y,-z
x,-y,1/2+z
1/2+x,1/2+y,z
1/2-x,1/2+y,1/2-z
1/2-x,1/2-y,-z
1/2+x,1/2-y,1/2+z
loop_
_atom_site_type_symbol
_atom_site_label
_atom_site_fract_x
_atom_site_fract_y
_atom_site_fract_z
Si Si1 0.703644 0.107360 0.071467
Si Si2 0.504990 0.114068 0.839648
Si Si3 0.279138 0.309995 0.718977
Si Si4 0.582926 0.560943 0.042854
Si Si5 0.436808 0.367800 0.194652
O O1 0.739239 0.145743 0.146697
O O2 0.570517 0.046021 0.111326
O O3 0.750000 0.250000 0.000000
O O4 0.786090 0.949817 0.023346
O O5 0.500000 0.128296 0.750000
O O6 0.641102 0.142529 0.812516
O O7 0.450010 0.266886 0.905406
O O8 0.363241 0.456065 0.725666
O O9 0.163917 0.260636 0.799261
O O10 0.545933 0.417011 0.112368
O O11 0.500000 0.500000 0.000000
O O12 0.500000 0.308252 0.250000
#
# Coordination Sequence:
#
# PCOD9303593 Si02
#       5
#     8   8   8   8   8
#     4  12  26  44  69 107 146 180 241 301 362 428
#     4  11  25  46  76 100 140 197 243 289 367 437
#     4  11  24  45  68 103 140 185 241 297 355 437
#     4  11  22  46  67 101 142 180 231 298 358 425
#     4  11  24  44  71 100 137 186 239 291 359 432
#
# _framework density 24.608456
#
# number of rings (size 3 to 8) (size 9 to 14) (size 15 to 20)
#    0.000    0.800    4.000    5.400    0.000    6.400 
#    7.200    0.000    0.000    0.000    0.000    0.000 
#    0.000    0.000    0.000    0.000    0.000    0.000 
#
# Total GULP energy -111668.383769 kJ/mol
# GULP energy per Si atom -5583.419188 kJ/mol
# Density = 2.455245 g / cm^3
# Si number density = 24.608456 Si / 1000 Ang^3
#
#
#
# Elastic Constant Matrix: (Units=GPa)
#
#
# Indices 1 2 3 4 5 6 
#
# 1 132.9144 29.2392 14.8057 0.0000 -48.6145 0.0000
# 2 29.2392 118.6190 9.2026 0.0000 -0.9979 0.0000
# 3 14.8057 9.2026 66.6449 0.0000 -7.9526 0.0000
# 4 0.0000 0.0000 0.0000 18.9209 0.0000 -17.6079
# 5 -48.6145 -0.9979 -7.9526 0.0000 36.8688 0.0000
# 6 0.0000 0.0000 0.0000 -17.6079 0.0000 47.9428
#
#
#
# Elastic Compliance Matrix: (Units=1/GPa)
#
#
# Indices 1 2 3 4 5 6 
#
# 1 0.016087 -0.003746 -0.000552 0.000000 0.020992 0.000000
# 2 -0.003746 0.009394 -0.001051 0.000000 -0.004912 0.000000
# 3 -0.000552 -0.001051 0.015583 0.000000 0.002605 0.000000
# 4 0.000000 0.000000 0.000000 0.080295 0.000000 0.029490
# 5 0.020992 -0.004912 0.002605 0.000000 0.055231 0.000000
# 6 0.000000 0.000000 0.000000 0.029490 0.000000 0.031689
#
#
# Mechanical properties :
#
#
# Convention : Reuss Voigt Hill
#
# Bulk Modulus (GPa) = 32.93056 47.18593 40.05824
# Shear Modulus (GPa) = 21.82453 38.40854 30.11654
#
# Velocity S-wave (km/s) = 2.98127 3.95496 3.50212
# Velocity P-wave (km/s) = 5.02608 6.33024 5.71548
#
# Compressibility (1/GPa) = 0.03036693
#
# Stress axis : x y z
#
# Youngs Moduli (GPa) = 62.16194 106.45144 64.17044
#
# Poissons Ratio (x) = 0.39877 0.03540
# Poissons Ratio (y) = 0.23286 0.06745
# Poissons Ratio (z) = 0.03429 0.11189
#
# Static dielectric constant tensor:
#      x y z
#    x 1.902400 0.000000 -0.021160 
#    y 0.000000 2.127750 0.000000 
#    z -0.021160 0.000000 1.752760 
# 
# From -- ./inp_files/195072.got.cif
#   From: 2010.05.17/outbox.cif.g08.bks.cpg/sg15_98_cif.got.tgz:195072.got - 2010.06.03 18:47:42.
