data_PCOD9303007
_publ_section_title
;
Structure prediction by ZEFSAII (Michael W. Deem and Ramdas Pophale) SiO2 
 PCOD9303007
Probable space group: C 2/C
;
_chemical_formula_sum "Si O2"
_cell_formula_units_Z 36
_cell_length_a 14.072974
_cell_length_b 7.173693
_cell_length_c 17.634895
_cell_angle_alpha 90.000000
_cell_angle_beta 123.653138
_cell_angle_gamma 90.000000
_cell_volume 1481.963860
_symmetry_space_group_name_H-M "C 2/C"
_symmetry_group_IT_number 15
_symmetry_cell_setting 'monoclinic'
loop_
_space_group_symop_operation_xyz
x,y,z
-x,y,1/2-z
-x,-y,-z
x,-y,1/2+z
1/2+x,1/2+y,z
1/2-x,1/2+y,1/2-z
1/2-x,1/2-y,-z
1/2+x,1/2-y,1/2+z
loop_
_atom_site_type_symbol
_atom_site_label
_atom_site_fract_x
_atom_site_fract_y
_atom_site_fract_z
Si Si1 0.910636 0.336075 0.477448
Si Si2 0.301265 0.514618 0.358110
Si Si3 0.256887 0.606246 0.165470
Si Si4 0.075438 0.369456 0.847381
Si Si5 0.500000 0.778197 0.250000
O O1 0.904719 0.153096 0.422590
O O2 0.792005 0.445202 0.408434
O O3 0.919664 0.279560 0.569035
O O4 0.000000 0.500000 0.500000
O O5 0.258332 0.543583 0.253413
O O6 0.317844 0.294617 0.375957
O O7 0.197954 0.575488 0.367941
O O8 0.385591 0.662526 0.202923
O O9 0.010307 0.571457 0.823439
O O10 0.000000 0.266339 0.750000
#
# Coordination Sequence:
#
# PCOD9303007 Si02
#       5
#     8   8   8   8   4
#     4  12  24  41  69  98 136 176 218 275 328 391
#     4  11  22  41  67  96 132 173 218 269 331 391
#     4  11  22  43  68  97 132 177 218 270 333 391
#     4   9  20  42  65  93 134 173 215 273 325 385
#     4   8  20  40  64  92 132 166 224 270 320 386
#
# _framework density 24.292090000000002
#
# number of rings (size 3 to 8) (size 9 to 14) (size 15 to 20)
#    0.667    0.889    2.222    3.333    0.000    4.444 
#    2.000    2.222    0.000    0.000    0.000    0.000 
#    0.000    0.000    0.000    0.000    0.000    0.000 
#
# Total GULP energy -100680.610020 kJ/mol
# GULP energy per Si atom -5593.367223 kJ/mol
# Density = 2.423680 g / cm^3
# Si number density = 24.292090 Si / 1000 Ang^3
#
#
#
# Elastic Constant Matrix: (Units=GPa)
#
#
# Indices 1 2 3 4 5 6 
#
# 1 46.0148 5.9379 18.3966 0.0000 8.5476 0.0000
# 2 5.9379 135.8963 36.3535 0.0000 15.2919 0.0000
# 3 18.3966 36.3535 130.0733 0.0000 -13.9302 0.0000
# 4 0.0000 0.0000 0.0000 17.8605 0.0000 11.1356
# 5 8.5476 15.2919 -13.9302 0.0000 29.1415 0.0000
# 6 0.0000 0.0000 0.0000 11.1356 0.0000 29.0552
#
#
#
# Elastic Compliance Matrix: (Units=1/GPa)
#
#
# Indices 1 2 3 4 5 6 
#
# 1 0.025617 0.001481 -0.005191 0.000000 -0.010773 0.000000
# 2 0.001481 0.008981 -0.003447 0.000000 -0.006795 0.000000
# 3 -0.005191 -0.003447 0.010268 0.000000 0.008240 0.000000
# 4 0.000000 0.000000 0.000000 0.073568 0.000000 -0.028195
# 5 -0.010773 -0.006795 0.008240 0.000000 0.044979 0.000000
# 6 0.000000 0.000000 0.000000 -0.028195 0.000000 0.045223
#
#
# Mechanical properties :
#
#
# Convention : Reuss Voigt Hill
#
# Bulk Modulus (GPa) = 32.73021 48.15116 40.44069
# Shear Modulus (GPa) = 21.44684 31.96454 26.70569
#
# Velocity S-wave (km/s) = 2.97454 3.63139 3.31925
# Velocity P-wave (km/s) = 5.02992 6.11943 5.60123
#
# Compressibility (1/GPa) = 0.03055281
#
# Stress axis : x y z
#
# Youngs Moduli (GPa) = 39.03601 111.35153 97.38993
#
# Poissons Ratio (x) = -0.16497 0.50554
# Poissons Ratio (y) = -0.05783 0.33572
# Poissons Ratio (z) = 0.20263 0.38385
#
# Static dielectric constant tensor:
#      x y z
#    x 1.975240 0.000000 0.047390 
#    y 0.000000 1.918490 0.000000 
#    z 0.047390 0.000000 1.945190 
# 
# From -- ./inp_files/150158.got.cif
#   From: 2010.05.17/outbox.cif.g08.bks.cpg/sg15_76_cif.got.tgz:150158.got - 2010.06.03 18:47:42.
