data_PCOD9303522
_publ_section_title
;
Structure prediction by ZEFSAII (Michael W. Deem and Ramdas Pophale) SiO2 
 PCOD9303522
Probable space group: C 2/C
;
_chemical_formula_sum "Si O2"
_cell_formula_units_Z 60
_cell_length_a 10.944270
_cell_length_b 15.595326
_cell_length_c 15.742044
_cell_angle_alpha 90.000000
_cell_angle_beta 105.391447
_cell_angle_gamma 90.000000
_cell_volume 2590.479996
_symmetry_space_group_name_H-M "C 2/C"
_symmetry_group_IT_number 15
_symmetry_cell_setting 'monoclinic'
loop_
_space_group_symop_operation_xyz
x,y,z
-x,y,1/2-z
-x,-y,-z
x,-y,1/2+z
1/2+x,1/2+y,z
1/2-x,1/2+y,1/2-z
1/2-x,1/2-y,-z
1/2+x,1/2-y,1/2+z
loop_
_atom_site_type_symbol
_atom_site_label
_atom_site_fract_x
_atom_site_fract_y
_atom_site_fract_z
Si Si1 0.634154 0.353392 0.324841
Si Si2 0.615335 0.759388 0.517979
Si Si3 0.237071 0.760488 0.789824
Si Si4 0.952871 0.564726 0.564118
Si Si5 0.945863 0.128731 0.513461
Si Si6 0.809686 0.012816 0.901890
Si Si7 0.500000 0.137056 0.750000
Si Si8 0.153261 0.039392 0.277797
O O1 0.500000 0.358589 0.250000
O O2 0.718067 0.284014 0.289870
O O3 0.610599 0.324040 0.416156
O O4 0.677629 0.454898 0.341986
O O5 0.750000 0.750000 0.500000
O O6 0.649281 0.744808 0.622519
O O7 0.550865 0.847709 0.487672
O O8 0.519532 0.689968 0.463665
O O9 0.117067 0.700858 0.791583
O O10 0.206748 0.862794 0.793737
O O11 0.808702 0.548918 0.569241
O O12 0.000000 0.500000 0.500000
O O13 0.021913 0.580273 0.668401
O O14 0.838533 0.078645 0.446486
O O15 0.060331 0.066307 0.564520
O O16 0.791805 0.999211 0.799480
O O17 0.000000 0.049723 0.250000
#
# Coordination Sequence:
#
# PCOD9303522 Si02
#       8
#     8   8   8   8   8   8   4   8
#     4  11  22  45  68 101 142 185 235 304 359 428
#     4  12  24  44  70 103 143 187 242 295 365 435
#     4  12  26  42  76 108 141 192 247 304 369 449
#     4  12  30  50  74 109 154 203 244 306 387 449
#     4  11  23  41  74 100 140 179 240 305 361 423
#     4  11  24  44  67 109 138 181 243 303 356 444
#     4  12  26  48  76 104 156 190 248 306 374 448
#     4  11  23  40  69 103 138 182 243 292 366 436
#
# _framework density 23.161731
#
# number of rings (size 3 to 8) (size 9 to 14) (size 15 to 20)
#    0.000    0.533    7.333    0.800    7.467    2.133 
#    0.000    1.333    1.467    0.000    0.000    0.000 
#    0.000    0.000    0.000    0.000    0.000    0.000 
#
# Total GULP energy -167433.750991 kJ/mol
# GULP energy per Si atom -5581.125033 kJ/mol
# Density = 2.310901 g / cm^3
# Si number density = 23.161731 Si / 1000 Ang^3
#
#
#
# Elastic Constant Matrix: (Units=GPa)
#
#
# Indices 1 2 3 4 5 6 
#
# 1 37.7582 -0.6790 17.5642 0.0000 -11.0443 0.0000
# 2 -0.6790 83.9088 10.0390 0.0000 4.0973 0.0000
# 3 17.5642 10.0390 68.6696 0.0000 -11.0182 0.0000
# 4 0.0000 0.0000 0.0000 28.1570 0.0000 -0.5390
# 5 -11.0443 4.0973 -11.0182 0.0000 33.0449 0.0000
# 6 0.0000 0.0000 0.0000 -0.5390 0.0000 33.3188
#
#
#
# Elastic Compliance Matrix: (Units=1/GPa)
#
#
# Indices 1 2 3 4 5 6 
#
# 1 0.032191 0.000690 -0.006996 0.000000 0.008340 0.000000
# 2 0.000690 0.012300 -0.002306 0.000000 -0.002063 0.000000
# 3 -0.006996 -0.002306 0.017285 0.000000 0.003711 0.000000
# 4 0.000000 0.000000 0.000000 0.035526 0.000000 0.000575
# 5 0.008340 -0.002063 0.003711 0.000000 0.034543 0.000000
# 6 0.000000 0.000000 0.000000 0.000575 0.000000 0.030022
#
#
# Mechanical properties :
#
#
# Convention : Reuss Voigt Hill
#
# Bulk Modulus (GPa) = 22.44589 27.13163 24.78876
# Shear Modulus (GPa) = 25.78109 29.79829 27.78969
#
# Velocity S-wave (km/s) = 3.33992 3.59072 3.46759
# Velocity P-wave (km/s) = 4.95837 5.37870 5.17280
#
# Compressibility (1/GPa) = 0.04455158
#
# Stress axis : x y z
#
# Youngs Moduli (GPa) = 31.06472 81.30147 57.85530
#
# Poissons Ratio (x) = -0.05612 0.40478
# Poissons Ratio (y) = -0.02144 0.13340
# Poissons Ratio (z) = 0.21734 0.18746
#
# Static dielectric constant tensor:
#      x y z
#    x 1.875360 0.000000 0.002720 
#    y 0.000000 2.096600 0.000000 
#    z 0.002720 0.000000 1.893770 
# 
# From -- ./inp_files/197922.got.cif
#   From: 2010.05.17/outbox.cif.g08.bks.cpg/sg15_99_cif.got.tgz:197922.got - 2010.06.03 18:47:42.
