data_PCOD9303377
_publ_section_title
;
Structure prediction by ZEFSAII (Michael W. Deem and Ramdas Pophale) SiO2 
 PCOD9303377
Probable space group: C 2/C
;
_chemical_formula_sum "Si O2"
_cell_formula_units_Z 48
_cell_length_a 17.437863
_cell_length_b 15.374062
_cell_length_c 18.845680
_cell_angle_alpha 90.000000
_cell_angle_beta 22.274866
_cell_angle_gamma 90.000000
_cell_volume 1915.095788
_symmetry_space_group_name_H-M "C 2/C"
_symmetry_group_IT_number 15
_symmetry_cell_setting 'monoclinic'
loop_
_space_group_symop_operation_xyz
x,y,z
-x,y,1/2-z
-x,-y,-z
x,-y,1/2+z
1/2+x,1/2+y,z
1/2-x,1/2+y,1/2-z
1/2-x,1/2-y,-z
1/2+x,1/2-y,1/2+z
loop_
_atom_site_type_symbol
_atom_site_label
_atom_site_fract_x
_atom_site_fract_y
_atom_site_fract_z
Si Si1 0.590656 0.938870 0.249944
Si Si2 0.901647 0.319900 0.905620
Si Si3 0.955616 0.880700 0.634282
Si Si4 0.590714 0.561173 0.749904
Si Si5 0.723950 0.619308 0.365904
Si Si6 0.712977 0.680072 0.094274
O O1 0.500000 0.958650 0.250000
O O2 0.410508 0.879147 0.432489
O O3 0.653221 0.027169 0.236567
O O4 0.802616 0.887608 0.063566
O O5 0.000000 0.361669 0.750000
O O6 0.112224 0.303483 0.766816
O O7 0.750000 0.250000 0.000000
O O8 0.775684 0.379124 0.067341
O O9 0.897358 0.874717 0.602671
O O10 0.853942 0.803498 0.767026
O O11 0.873453 0.972839 0.736778
O O12 0.500000 0.541445 0.750000
O O13 0.430019 0.612418 0.936241
O O14 0.500000 0.638302 0.250000
O O15 0.750000 0.750000 0.000000
#
# Coordination Sequence:
#
# PCOD9303377 Si02
#       6
#     8   8   8   8   8   8
#     4  11  22  43  77 113 146 188 262 319 387 472
#     4  12  26  45  75 106 148 212 265 305 370 471
#     4  11  26  46  76 119 156 190 250 335 402 448
#     4  11  22  43  77 113 146 188 262 319 387 472
#     4  11  26  46  76 119 156 190 250 335 402 448
#     4  12  26  45  75 106 148 212 265 305 370 471
#
# _framework density 25.064019999999999
#
# number of rings (size 3 to 8) (size 9 to 14) (size 15 to 20)
#    0.000    0.667    3.333    5.000    4.667    4.000 
#    0.000    1.667    0.000    0.000    0.000    0.000 
#    0.000    0.000    0.000    0.000    0.000    0.000 
#
# Total GULP energy -134006.342769 kJ/mol
# GULP energy per Si atom -5583.597615 kJ/mol
# Density = 2.500697 g / cm^3
# Si number density = 25.064020 Si / 1000 Ang^3
#
#
#
# Elastic Constant Matrix: (Units=GPa)
#
#
# Indices 1 2 3 4 5 6 
#
# 1 181.3006 40.5411 80.8615 0.0047 -3.0567 0.0079
# 2 40.5411 96.1217 89.7727 0.0150 5.9972 0.0227
# 3 80.8615 89.7727 231.8258 0.0191 9.3461 0.0229
# 4 0.0047 0.0150 0.0191 4.6055 -0.0065 -4.1774
# 5 -3.0567 5.9972 9.3461 -0.0065 38.6556 0.0140
# 6 0.0079 0.0227 0.0229 -4.1774 0.0140 39.5689
#
#
#
# Elastic Compliance Matrix: (Units=1/GPa)
#
#
# Indices 1 2 3 4 5 6 
#
# 1 0.006643 -0.001044 -0.001959 0.000007 0.001161 0.000001
# 2 -0.001044 0.016501 -0.005978 -0.000038 -0.001197 -0.000009
# 3 -0.001959 -0.005978 0.007352 -0.000012 -0.001005 -0.000001
# 4 0.000007 -0.000038 -0.000012 0.240127 0.000041 0.025351
# 5 0.001161 -0.001197 -0.001005 0.000041 0.026390 -0.000004
# 6 0.000001 -0.000009 -0.000001 0.025351 -0.000004 0.027949
#
#
# Mechanical properties :
#
#
# Convention : Reuss Voigt Hill
#
# Bulk Modulus (GPa) = 79.78224 103.51100 91.64662
# Shear Modulus (GPa) = 14.40497 36.43752 25.42124
#
# Velocity S-wave (km/s) = 2.39995 3.81698 3.18819
# Velocity P-wave (km/s) = 6.29128 7.79834 7.08499
#
# Compressibility (1/GPa) = 0.01253412
#
# Stress axis : x y z
#
# Youngs Moduli (GPa) = 150.54147 60.60148 136.01108
#
# Poissons Ratio (x) = 0.06327 0.26651
# Poissons Ratio (y) = 0.15717 0.81301
# Poissons Ratio (z) = 0.29499 0.36225
#
# Static dielectric constant tensor:
#      x y z
#    x 1.983360 0.000010 -0.015310 
#    y 0.000010 2.168520 0.000000 
#    z -0.015310 0.000000 1.857340 
# 
# From -- ./inp_files/249713.got.cif
#   From: 2010.05.17/outbox.cif.g08.bks.cpg/sg15_125_cif.got.tgz:249713.got - 2010.06.03 18:47:42.
