data_PCOD9303491
_publ_section_title
;
Structure prediction by ZEFSAII (Michael W. Deem and Ramdas Pophale) SiO2 
 PCOD9303491
Probable space group: C 2/C
;
_chemical_formula_sum "Si O2"
_cell_formula_units_Z 48
_cell_length_a 24.056698
_cell_length_b 9.434897
_cell_length_c 10.133169
_cell_angle_alpha 90.000000
_cell_angle_beta 120.442158
_cell_angle_gamma 90.000000
_cell_volume 1982.881742
_symmetry_space_group_name_H-M "C 2/C"
_symmetry_group_IT_number 15
_symmetry_cell_setting 'monoclinic'
loop_
_space_group_symop_operation_xyz
x,y,z
-x,y,1/2-z
-x,-y,-z
x,-y,1/2+z
1/2+x,1/2+y,z
1/2-x,1/2+y,1/2-z
1/2-x,1/2-y,-z
1/2+x,1/2-y,1/2+z
loop_
_atom_site_type_symbol
_atom_site_label
_atom_site_fract_x
_atom_site_fract_y
_atom_site_fract_z
Si Si1 0.179475 0.595142 0.286341
Si Si2 0.114238 0.556595 0.941518
Si Si3 0.674445 0.562054 0.024010
Si Si4 0.024564 0.819780 0.913276
Si Si5 0.634222 0.408059 0.208613
Si Si6 0.052341 0.738816 0.426980
O O1 0.147409 0.477268 0.341800
O O2 0.253925 0.619097 0.409201
O O3 0.142836 0.744967 0.261408
O O4 0.168298 0.557766 0.120554
O O5 0.072326 0.697986 0.912434
O O6 0.068278 0.424189 0.916708
O O7 0.681223 0.445846 0.146112
O O8 0.648827 0.501226 0.854596
O O9 0.619596 0.674127 0.000732
O O10 0.000000 0.890715 0.750000
O O11 0.065615 0.922623 0.056714
O O12 0.975587 0.751824 0.958644
O O13 0.000000 0.782107 0.250000
#
# Coordination Sequence:
#
# PCOD9303491 Si02
#       6
#     8   8   8   8   8   8
#     4  11  24  46  71 107 140 178 243 286 365 412
#     4  11  22  44  75 103 139 181 233 306 346 409
#     4  12  26  44  73  98 147 192 227 296 345 428
#     4  11  24  43  66 105 139 179 238 291 349 419
#     4  11  26  47  66 102 139 188 237 283 349 422
#     4  12  23  43  71 104 141 191 232 282 359 418
#
# _framework density 24.207193
#
# number of rings (size 3 to 8) (size 9 to 14) (size 15 to 20)
#    0.000    0.667    3.333    4.500    4.667    1.333 
#    0.000    2.500    0.000    0.000    0.000    0.000 
#    0.000    0.000    0.000    0.000    0.000    0.000 
#
# Total GULP energy -134282.061700 kJ/mol
# GULP energy per Si atom -5595.085904 kJ/mol
# Density = 2.415210 g / cm^3
# Si number density = 24.207193 Si / 1000 Ang^3
#
#
#
# Elastic Constant Matrix: (Units=GPa)
#
#
# Indices 1 2 3 4 5 6 
#
# 1 88.3350 11.4535 33.3734 0.0000 14.0467 0.0000
# 2 11.4535 67.6684 10.9381 0.0000 4.1997 0.0000
# 3 33.3734 10.9381 147.8036 0.0000 -12.1907 0.0000
# 4 0.0000 0.0000 0.0000 23.2493 0.0000 -5.0243
# 5 14.0467 4.1997 -12.1907 0.0000 40.3139 0.0000
# 6 0.0000 0.0000 0.0000 -5.0243 0.0000 35.5600
#
#
#
# Elastic Compliance Matrix: (Units=1/GPa)
#
#
# Indices 1 2 3 4 5 6 
#
# 1 0.013714 -0.001409 -0.003460 0.000000 -0.005678 0.000000
# 2 -0.001409 0.015251 -0.000924 0.000000 -0.001377 0.000000
# 3 -0.003460 -0.000924 0.007920 0.000000 0.003697 0.000000
# 4 0.000000 0.000000 0.000000 0.044367 0.000000 0.006269
# 5 -0.005678 -0.001377 0.003697 0.000000 0.028045 0.000000
# 6 0.000000 0.000000 0.000000 0.006269 0.000000 0.029007
#
#
# Mechanical properties :
#
#
# Convention : Reuss Voigt Hill
#
# Bulk Modulus (GPa) = 39.52955 46.14854 42.83904
# Shear Modulus (GPa) = 31.58068 36.36077 33.97073
#
# Velocity S-wave (km/s) = 3.61584 3.87985 3.75017
# Velocity P-wave (km/s) = 5.81356 6.25910 6.04044
#
# Compressibility (1/GPa) = 0.02529753
#
# Stress axis : x y z
#
# Youngs Moduli (GPa) = 72.92067 65.56803 126.25616
#
# Poissons Ratio (x) = 0.09241 0.43690
# Poissons Ratio (y) = 0.10277 0.11666
# Poissons Ratio (z) = 0.25234 0.06059
#
# Static dielectric constant tensor:
#      x y z
#    x 1.962870 0.000000 -0.015520 
#    y 0.000000 1.960390 0.000000 
#    z -0.015520 0.000000 2.015610 
# 
# From -- ./inp_files/60899.got.cif
#   From: 2010.05.17/outbox.cif.g08.bks.cpg/sg15_31_cif.got.tgz:60899.got - 2010.06.03 18:47:42.
