data_PCOD9303155
_publ_section_title
;
Structure prediction by ZEFSAII (Michael W. Deem and Ramdas Pophale) SiO2 
 PCOD9303155
Probable space group: C 2/C
;
_chemical_formula_sum "Si O2"
_cell_formula_units_Z 52
_cell_length_a 31.336343
_cell_length_b 5.291634
_cell_length_c 15.980842
_cell_angle_alpha 90.000000
_cell_angle_beta 126.160086
_cell_angle_gamma 90.000000
_cell_volume 2139.494676
_symmetry_space_group_name_H-M "C 2/C"
_symmetry_group_IT_number 15
_symmetry_cell_setting 'monoclinic'
loop_
_space_group_symop_operation_xyz
x,y,z
-x,y,1/2-z
-x,-y,-z
x,-y,1/2+z
1/2+x,1/2+y,z
1/2-x,1/2+y,1/2-z
1/2-x,1/2-y,-z
1/2+x,1/2-y,1/2+z
loop_
_atom_site_type_symbol
_atom_site_label
_atom_site_fract_x
_atom_site_fract_y
_atom_site_fract_z
Si Si1 0.255639 0.504794 0.621181
Si Si2 0.000000 0.315770 0.250000
Si Si3 0.352871 0.931041 0.424018
Si Si4 0.023509 0.078133 0.649441
Si Si5 0.194310 0.504910 0.871161
Si Si6 0.592487 0.922124 0.847805
Si Si7 0.588840 0.539433 0.556979
O O1 0.209729 0.533389 0.636423
O O2 0.227319 0.501763 0.496512
O O3 0.284794 0.238322 0.657657
O O4 0.295260 0.741527 0.663701
O O5 0.051413 0.419892 0.355286
O O6 0.030150 0.175452 0.209848
O O7 0.370290 0.814683 0.536237
O O8 0.373133 0.704089 0.389211
O O9 0.378933 0.207167 0.433909
O O10 0.048188 0.274118 0.743770
O O11 0.058071 0.101854 0.606993
O O12 0.961044 0.069072 0.556350
O O13 0.134064 0.534310 0.830696
#
# Coordination Sequence:
#
# PCOD9303155 Si02
#       7
#     8   4   8   8   8   8   8
#     4   9  18  35  60  92 125 159 211 267 320 380
#     4  12  22  40  62  96 126 170 216 264 324 388
#     4  11  22  42  68  97 129 171 222 269 329 388
#     4  11  26  41  63  94 136 173 218 264 323 398
#     4   9  19  34  58  93 127 160 205 271 326 365
#     4  11  24  38  65  96 133 170 218 276 324 385
#     4  11  25  43  65  95 134 177 215 264 324 398
#
# _framework density 24.304801999999999
#
# number of rings (size 3 to 8) (size 9 to 14) (size 15 to 20)
#    0.000    1.538    1.538    3.231    4.308    3.692 
#    0.000    0.000    0.000    3.692    0.000    0.000 
#    0.000    0.000    0.000    0.000    0.000    0.000 
#
# Total GULP energy -144887.440169 kJ/mol
# GULP energy per Si atom -5572.593853 kJ/mol
# Density = 2.424948 g / cm^3
# Si number density = 24.304802 Si / 1000 Ang^3
#
#
#
# Elastic Constant Matrix: (Units=GPa)
#
#
# Indices 1 2 3 4 5 6 
#
# 1 152.1193 61.0773 9.1220 0.0001 26.2526 0.0000
# 2 61.0773 123.3512 -5.1541 0.0005 17.6089 0.0005
# 3 9.1220 -5.1541 65.6167 -0.0001 -0.5827 0.0000
# 4 0.0001 0.0005 -0.0001 11.1436 0.0000 3.3455
# 5 26.2526 17.6089 -0.5827 0.0000 29.2399 0.0000
# 6 0.0000 0.0005 0.0000 3.3455 0.0000 45.6865
#
#
#
# Elastic Compliance Matrix: (Units=1/GPa)
#
#
# Indices 1 2 3 4 5 6 
#
# 1 0.009231 -0.003776 -0.001634 0.000000 -0.006047 0.000000
# 2 -0.003776 0.010442 0.001320 0.000000 -0.002872 0.000000
# 3 -0.001634 0.001320 0.015579 0.000000 0.000982 0.000000
# 4 0.000000 0.000000 0.000000 0.091754 0.000000 -0.006719
# 5 -0.006047 -0.002872 0.000982 0.000000 0.041378 0.000000
# 6 0.000000 0.000000 0.000000 -0.006719 0.000000 0.022380
#
#
# Mechanical properties :
#
#
# Convention : Reuss Voigt Hill
#
# Bulk Modulus (GPa) = 36.93771 52.35308 44.64539
# Shear Modulus (GPa) = 24.04201 35.61681 29.82941
#
# Velocity S-wave (km/s) = 3.14855 3.83224 3.50709
# Velocity P-wave (km/s) = 5.33371 6.41626 5.89987
#
# Compressibility (1/GPa) = 0.02707260
#
# Stress axis : x y z
#
# Youngs Moduli (GPa) = 108.32603 95.76993 64.18691
#
# Poissons Ratio (x) = 0.36162 0.10486
# Poissons Ratio (y) = 0.40904 -0.08470
# Poissons Ratio (z) = 0.17696 -0.12638
#
# Static dielectric constant tensor:
#      x y z
#    x 1.890420 0.000000 -0.011980 
#    y 0.000000 2.151420 0.000000 
#    z -0.011980 0.000000 2.027200 
# 
# From -- ./inp_files/221342.got.cif
#   From: 2010.05.17/outbox.cif.g08.bks.cpg/sg15_111_cif.got.tgz:221342.got - 2010.06.03 18:47:42.
