data_PCOD9303909
_publ_section_title
;
Structure prediction by ZEFSAII (Michael W. Deem and Ramdas Pophale) SiO2 
 PCOD9303909
Probable space group: C 2/C
;
_chemical_formula_sum "Si O2"
_cell_formula_units_Z 44
_cell_length_a 8.089744
_cell_length_b 16.574031
_cell_length_c 13.547749
_cell_angle_alpha 90.000000
_cell_angle_beta 73.665951
_cell_angle_gamma 90.000000
_cell_volume 1743.161616
_symmetry_space_group_name_H-M "C 2/C"
_symmetry_group_IT_number 15
_symmetry_cell_setting 'monoclinic'
loop_
_space_group_symop_operation_xyz
x,y,z
-x,y,1/2-z
-x,-y,-z
x,-y,1/2+z
1/2+x,1/2+y,z
1/2-x,1/2+y,1/2-z
1/2-x,1/2-y,-z
1/2+x,1/2-y,1/2+z
loop_
_atom_site_type_symbol
_atom_site_label
_atom_site_fract_x
_atom_site_fract_y
_atom_site_fract_z
Si Si1 0.500000 0.815425 0.250000
Si Si2 0.106288 0.971662 0.637804
Si Si3 0.083988 0.371508 0.635832
Si Si4 0.183295 0.735827 0.400908
Si Si5 0.959090 0.875484 0.489683
Si Si6 0.527252 0.031827 0.883390
O O1 0.336379 0.758090 0.299520
O O2 0.490730 0.878693 0.158370
O O3 0.000000 0.944899 0.750000
O O4 0.083215 0.901408 0.560026
O O5 0.051608 0.049011 0.582065
O O6 0.278077 0.003867 0.660751
O O7 0.272430 0.349784 0.564647
O O8 0.000000 0.337500 0.750000
O O9 0.928001 0.345662 0.589474
O O10 0.100033 0.468404 0.647400
O O11 0.250000 0.750000 0.500000
O O12 0.037414 0.803761 0.413766
O O13 0.500000 0.000000 0.000000
#
# Coordination Sequence:
#
# PCOD9303909 Si02
#       6
#     4   8   8   8   8   8
#     4  12  28  48  80 112 154 198 276 312 386 470
#     4  11  23  40  74 108 145 188 252 315 376 440
#     4  12  26  46  75 107 153 197 251 315 392 450
#     4  12  29  49  73 107 155 206 251 316 390 470
#     4  11  25  45  69 109 148 193 254 311 372 467
#     4  12  23  46  76 109 144 196 250 322 380 449
#
# _framework density 25.241491
#
# number of rings (size 3 to 8) (size 9 to 14) (size 15 to 20)
#    0.000    0.364    2.727    6.000    5.091    2.182 
#    1.636    0.000    0.000    0.000    0.000    0.000 
#    0.000    0.000    0.000    0.000    0.000    0.000 
#
# Total GULP energy -122766.182629 kJ/mol
# GULP energy per Si atom -5580.281029 kJ/mol
# Density = 2.518404 g / cm^3
# Si number density = 25.241491 Si / 1000 Ang^3
#
#
#
# Elastic Constant Matrix: (Units=GPa)
#
#
# Indices 1 2 3 4 5 6 
#
# 1 86.8318 18.7281 9.0929 0.0000 2.9872 0.0000
# 2 18.7281 119.6552 25.6857 0.0000 -13.5873 0.0000
# 3 9.0929 25.6857 119.3624 0.0000 7.3716 0.0000
# 4 0.0000 0.0000 0.0000 26.7311 0.0000 -2.0730
# 5 2.9872 -13.5873 7.3716 0.0000 46.7318 0.0000
# 6 0.0000 0.0000 0.0000 -2.0730 0.0000 34.2562
#
#
#
# Elastic Compliance Matrix: (Units=1/GPa)
#
#
# Indices 1 2 3 4 5 6 
#
# 1 0.012021 -0.001935 -0.000421 0.000000 -0.001264 0.000000
# 2 -0.001935 0.009473 -0.002089 0.000000 0.003207 0.000000
# 3 -0.000421 -0.002089 0.008983 0.000000 -0.001997 0.000000
# 4 0.000000 0.000000 0.000000 0.037586 0.000000 0.002274
# 5 -0.001264 0.003207 -0.001997 0.000000 0.022727 0.000000
# 6 0.000000 0.000000 0.000000 0.002274 0.000000 0.029329
#
#
# Mechanical properties :
#
#
# Convention : Reuss Voigt Hill
#
# Bulk Modulus (GPa) = 46.32483 48.09586 47.21034
# Shear Modulus (GPa) = 36.70917 39.70001 38.20459
#
# Velocity S-wave (km/s) = 3.81769 3.97017 3.89467
# Velocity P-wave (km/s) = 6.15024 6.33340 6.24249
#
# Compressibility (1/GPa) = 0.02158670
#
# Stress axis : x y z
#
# Youngs Moduli (GPa) = 83.18481 105.56479 111.32285
#
# Poissons Ratio (x) = 0.20424 0.04691
# Poissons Ratio (y) = 0.16094 0.23257
# Poissons Ratio (z) = 0.03505 0.22054
#
# Static dielectric constant tensor:
#      x y z
#    x 2.111010 0.000000 -0.022020 
#    y 0.000000 2.012780 0.000000 
#    z -0.022020 0.000000 2.218030 
# 
# From -- ./inp_files/134759.got.cif
#   From: 2010.05.17/outbox.cif.g08.bks.cpg/sg15_68_cif.got.tgz:134759.got - 2010.06.03 18:47:42.
