data_PCOD9303069
_publ_section_title
;
Structure prediction by ZEFSAII (Michael W. Deem and Ramdas Pophale) SiO2 
 PCOD9303069
Probable space group: C 2/C
;
_chemical_formula_sum "Si O2"
_cell_formula_units_Z 56
_cell_length_a 20.965362
_cell_length_b 13.635819
_cell_length_c 17.512669
_cell_angle_alpha 90.000000
_cell_angle_beta 152.809596
_cell_angle_gamma 90.000000
_cell_volume 2287.723986
_symmetry_space_group_name_H-M "C 2/C"
_symmetry_group_IT_number 15
_symmetry_cell_setting 'monoclinic'
loop_
_space_group_symop_operation_xyz
x,y,z
-x,y,1/2-z
-x,-y,-z
x,-y,1/2+z
1/2+x,1/2+y,z
1/2-x,1/2+y,1/2-z
1/2-x,1/2-y,-z
1/2+x,1/2-y,1/2+z
loop_
_atom_site_type_symbol
_atom_site_label
_atom_site_fract_x
_atom_site_fract_y
_atom_site_fract_z
Si Si1 0.434945 0.653180 0.601505
Si Si2 0.284429 0.033815 0.842442
Si Si3 0.808671 0.236790 0.696685
Si Si4 0.669897 0.543562 0.554108
Si Si5 0.186466 0.820320 0.724411
Si Si6 0.452809 0.259184 0.574759
Si Si7 0.957929 0.453303 0.289282
O O1 0.500000 0.621271 0.750000
O O2 0.289423 0.704701 0.464861
O O3 0.533088 0.731614 0.662636
O O4 0.414027 0.557247 0.527716
O O5 0.192564 0.935445 0.747638
O O6 0.236116 0.123915 0.842126
O O7 0.252744 0.068469 0.721480
O O8 0.438514 0.999401 0.035452
O O9 0.760486 0.291386 0.723744
O O10 0.567907 0.630230 0.417978
O O11 0.797234 0.523534 0.632889
O O12 0.035483 0.776804 0.582694
O O13 0.293518 0.774659 0.898745
O O14 0.526317 0.165657 0.690508
O O15 0.000000 0.487439 0.250000
#
# Coordination Sequence:
#
# PCOD9303069 Si02
#       7
#     8   8   8   8   8   8   8
#     4  12  30  48  71 108 151 201 248 301 372 443
#     4  11  25  44  76 107 142 188 253 303 371 428
#     4  12  25  46  75 105 147 192 245 309 369 434
#     4  12  25  47  78 106 149 194 254 305 367 443
#     4  11  22  41  71 107 140 180 242 302 362 430
#     4  11  22  44  70 108 146 182 240 295 373 436
#     4  11  27  46  73 110 150 196 241 309 378 444
#
# _framework density 24.478476000000001
#
# number of rings (size 3 to 8) (size 9 to 14) (size 15 to 20)
#    0.000    0.571    4.286    2.571    4.000    5.143 
#    0.000    0.000    0.000    0.000    0.000    0.000 
#    0.000    0.000    0.000    0.000    0.000    0.000 
#
# Total GULP energy -156398.648512 kJ/mol
# GULP energy per Si atom -5585.666018 kJ/mol
# Density = 2.442276 g / cm^3
# Si number density = 24.478476 Si / 1000 Ang^3
#
#
#
# Elastic Constant Matrix: (Units=GPa)
#
#
# Indices 1 2 3 4 5 6 
#
# 1 49.8719 -10.0470 15.4389 0.0000 9.9868 0.0000
# 2 -10.0470 124.1815 24.0629 0.0000 0.0552 0.0000
# 3 15.4389 24.0629 70.8024 0.0000 8.7797 0.0000
# 4 0.0000 0.0000 0.0000 16.1724 0.0000 11.6760
# 5 9.9868 0.0552 8.7797 0.0000 30.6145 0.0000
# 6 0.0000 0.0000 0.0000 11.6760 0.0000 22.5847
#
#
#
# Elastic Compliance Matrix: (Units=1/GPa)
#
#
# Indices 1 2 3 4 5 6 
#
# 1 0.023539 0.002948 -0.005373 0.000000 -0.006143 0.000000
# 2 0.002948 0.009011 -0.003716 0.000000 0.000088 0.000000
# 3 -0.005373 -0.003716 0.016943 0.000000 -0.003099 0.000000
# 4 0.000000 0.000000 0.000000 0.098658 0.000000 -0.051005
# 5 -0.006143 0.000088 -0.003099 0.000000 0.035557 0.000000
# 6 0.000000 0.000000 0.000000 -0.051005 0.000000 0.070647
#
#
# Mechanical properties :
#
#
# Convention : Reuss Voigt Hill
#
# Bulk Modulus (GPa) = 26.87390 33.75169 30.31280
# Shear Modulus (GPa) = 17.91858 28.23438 23.07648
#
# Velocity S-wave (km/s) = 2.70851 3.39991 3.07371
# Velocity P-wave (km/s) = 4.55892 5.40655 5.00073
#
# Compressibility (1/GPa) = 0.03721082
#
# Stress axis : x y z
#
# Youngs Moduli (GPa) = 42.48301 110.97110 59.02205
#
# Poissons Ratio (x) = -0.32718 0.31713
# Poissons Ratio (y) = -0.12525 0.21935
# Poissons Ratio (z) = 0.22826 0.41241
#
# Static dielectric constant tensor:
#      x y z
#    x 1.946820 0.000000 -0.048400 
#    y 0.000000 1.908720 0.000000 
#    z -0.048400 0.000000 1.978190 
# 
# From -- ./inp_files/215792.got.cif
#   From: 2010.05.17/outbox.cif.g08.bks.cpg/sg15_108_cif.got.tgz:215792.got - 2010.06.03 18:47:42.
