data_PCOD9303096
_publ_section_title
;
Structure prediction by ZEFSAII (Michael W. Deem and Ramdas Pophale) SiO2 
 PCOD9303096
Probable space group: C 2/C
;
_chemical_formula_sum "Si O2"
_cell_formula_units_Z 48
_cell_length_a 5.460272
_cell_length_b 17.186252
_cell_length_c 23.769459
_cell_angle_alpha 90.000000
_cell_angle_beta 108.900244
_cell_angle_gamma 90.000000
_cell_volume 2110.301164
_symmetry_space_group_name_H-M "C 2/C"
_symmetry_group_IT_number 15
_symmetry_cell_setting 'monoclinic'
loop_
_space_group_symop_operation_xyz
x,y,z
-x,y,1/2-z
-x,-y,-z
x,-y,1/2+z
1/2+x,1/2+y,z
1/2-x,1/2+y,1/2-z
1/2-x,1/2-y,-z
1/2+x,1/2-y,1/2+z
loop_
_atom_site_type_symbol
_atom_site_label
_atom_site_fract_x
_atom_site_fract_y
_atom_site_fract_z
Si Si1 0.265953 0.708217 0.803577
Si Si2 0.000000 0.076356 0.750000
Si Si3 0.421949 0.304423 0.971873
Si Si4 0.647782 0.161617 0.920971
Si Si5 0.150675 0.515976 0.635100
Si Si6 0.655325 0.576625 0.133508
Si Si7 0.500000 0.155424 0.250000
O O1 0.422195 0.633732 0.794046
O O2 0.217384 0.693455 0.864719
O O3 0.398375 0.787333 0.792148
O O4 0.000000 0.705800 0.750000
O O5 0.769483 0.028660 0.706117
O O6 0.561873 0.237627 0.947223
O O7 0.325692 0.358297 0.913726
O O8 0.250000 0.250000 0.000000
O O9 0.595985 0.360101 0.024785
O O10 0.422709 0.097082 0.900999
O O11 0.368723 0.461640 0.621104
O O12 0.865705 0.483919 0.626415
O O13 0.769458 0.608587 0.201695
#
# Coordination Sequence:
#
# PCOD9303096 Si02
#       7
#     8   4   8   8   8   8   4
#     4  11  22  41  78 111 141 193 260 309 375 448
#     4  11  24  44  72 114 151 198 238 310 381 464
#     4  11  28  50  78 105 149 201 265 319 376 451
#     4  11  26  48  78 107 146 202 255 319 374 461
#     4  12  28  48  75 112 158 195 251 308 392 460
#     4  12  29  48  75 114 154 205 245 323 386 454
#     4  11  26  42  74 114 155 196 254 322 381 466
#
# _framework density 22.745570000000001
#
# number of rings (size 3 to 8) (size 9 to 14) (size 15 to 20)
#    0.000    0.667    1.667    4.000   16.333    1.333 
#    0.000    0.000    0.000    0.000    0.000    0.000 
#    0.000    0.000    0.000    0.000    0.000    0.000 
#
# Total GULP energy -133954.282299 kJ/mol
# GULP energy per Si atom -5581.428429 kJ/mol
# Density = 2.269380 g / cm^3
# Si number density = 22.745570 Si / 1000 Ang^3
#
#
#
# Elastic Constant Matrix: (Units=GPa)
#
#
# Indices 1 2 3 4 5 6 
#
# 1 84.7824 17.7030 34.0551 0.0000 -22.5457 0.0000
# 2 17.7030 55.4972 38.1089 0.0000 1.6243 0.0000
# 3 34.0551 38.1089 155.9208 0.0000 -11.1780 0.0000
# 4 0.0000 0.0000 0.0000 69.9240 0.0000 -27.2083
# 5 -22.5457 1.6243 -11.1780 0.0000 44.5995 0.0000
# 6 0.0000 0.0000 0.0000 -27.2083 0.0000 83.0930
#
#
#
# Elastic Compliance Matrix: (Units=1/GPa)
#
#
# Indices 1 2 3 4 5 6 
#
# 1 0.015317 -0.003810 -0.001883 0.000000 0.007410 0.000000
# 2 -0.003810 0.022806 -0.005030 0.000000 -0.004017 0.000000
# 3 -0.001883 -0.005030 0.008145 0.000000 0.001273 0.000000
# 4 0.000000 0.000000 0.000000 0.016389 0.000000 0.005367
# 5 0.007410 -0.004017 0.001273 0.000000 0.026633 0.000000
# 6 0.000000 0.000000 0.000000 0.005367 0.000000 0.013792
#
#
# Mechanical properties :
#
#
# Convention : Reuss Voigt Hill
#
# Bulk Modulus (GPa) = 40.28554 52.88161 46.58357
# Shear Modulus (GPa) = 37.64991 53.27886 45.46439
#
# Velocity S-wave (km/s) = 4.07291 4.84507 4.47567
# Velocity P-wave (km/s) = 6.31410 7.38913 6.87267
#
# Compressibility (1/GPa) = 0.02482280
#
# Stress axis : x y z
#
# Youngs Moduli (GPa) = 65.28579 43.84874 122.76868
#
# Poissons Ratio (x) = 0.16706 0.23119
# Poissons Ratio (y) = 0.24873 0.61751
# Poissons Ratio (z) = 0.12294 0.22055
#
# Static dielectric constant tensor:
#      x y z
#    x 2.233560 0.000000 0.188190 
#    y 0.000000 1.934240 0.000000 
#    z 0.188190 0.000000 1.866750 
# 
# From -- ./inp_files/260920.got.cif
#   From: 2010.05.17/outbox.cif.g08.bks.cpg/sg15_131_cif.got.tgz:260920.got - 2010.06.03 18:47:42.
