data_PCOD9303400
_publ_section_title
;
Structure prediction by ZEFSAII (Michael W. Deem and Ramdas Pophale) SiO2 
 PCOD9303400
Probable space group: C 2/C
;
_chemical_formula_sum "Si O2"
_cell_formula_units_Z 64
_cell_length_a 13.653551
_cell_length_b 26.476847
_cell_length_c 12.239580
_cell_angle_alpha 90.000000
_cell_angle_beta 136.097928
_cell_angle_gamma 90.000000
_cell_volume 3068.171986
_symmetry_space_group_name_H-M "C 2/C"
_symmetry_group_IT_number 15
_symmetry_cell_setting 'monoclinic'
loop_
_space_group_symop_operation_xyz
x,y,z
-x,y,1/2-z
-x,-y,-z
x,-y,1/2+z
1/2+x,1/2+y,z
1/2-x,1/2+y,1/2-z
1/2-x,1/2-y,-z
1/2+x,1/2-y,1/2+z
loop_
_atom_site_type_symbol
_atom_site_label
_atom_site_fract_x
_atom_site_fract_y
_atom_site_fract_z
Si Si1 0.566906 0.124795 0.919893
Si Si2 0.111205 0.045957 0.079591
Si Si3 0.156896 0.434874 0.916699
Si Si4 0.025889 0.138005 0.642646
Si Si5 0.263593 0.221217 0.395775
Si Si6 0.145023 0.519886 0.060681
Si Si7 0.552368 0.737727 0.030422
Si Si8 0.652276 0.845585 0.065722
O O1 0.500000 0.139858 0.750000
O O2 0.459244 0.132836 0.935077
O O3 0.695115 0.163072 0.047175
O O4 0.604836 0.065725 0.948189
O O5 0.224580 0.049272 0.072608
O O6 0.223561 0.042707 0.267532
O O7 0.022034 0.096019 0.982567
O O8 0.000000 0.000000 0.000000
O O9 0.000000 0.449383 0.750000
O O10 0.198414 0.468107 0.053165
O O11 0.146835 0.377378 0.949217
O O12 0.191525 0.147256 0.763188
O O13 0.000000 0.124323 0.750000
O O14 0.946417 0.189522 0.546933
O O15 0.250000 0.250000 0.500000
O O16 0.394436 0.246185 0.436297
O O17 0.131960 0.226521 0.208664
O O18 0.000000 0.500000 0.000000
O O19 0.620404 0.786633 0.028519
#
# Coordination Sequence:
#
# PCOD9303400 Si02
#       8
#     8   8   8   8   8   8   8   8
#     4  11  24  40  71 103 139 184 238 291 358 427
#     4  12  28  46  72 103 143 187 234 301 365 428
#     4  12  24  45  75 101 140 193 235 293 358 432
#     4  12  26  46  71 101 144 186 240 298 367 424
#     4  11  22  44  68 102 140 184 230 289 359 423
#     4  12  24  43  69 103 138 181 242 289 353 432
#     4  11  24  43  71 101 142 184 235 291 355 427
#     4  11  23  45  67 103 143 186 236 294 355 433
#
# _framework density 20.859328000000001
#
# number of rings (size 3 to 8) (size 9 to 14) (size 15 to 20)
#    0.000    0.500    5.000    3.750    0.000    2.000 
#    0.000    0.000    0.000    0.000    0.000    0.000 
#    0.000    0.000    0.000    0.000    0.000    0.000 
#
# Total GULP energy -178646.725522 kJ/mol
# GULP energy per Si atom -5582.710173 kJ/mol
# Density = 2.081185 g / cm^3
# Si number density = 20.859328 Si / 1000 Ang^3
#
#
#
# Elastic Constant Matrix: (Units=GPa)
#
#
# Indices 1 2 3 4 5 6 
#
# 1 61.1100 17.1051 4.5312 0.0000 13.7873 0.0000
# 2 17.1051 137.3670 25.7732 0.0000 -0.5108 0.0000
# 3 4.5312 25.7732 88.9697 0.0000 3.7486 0.0000
# 4 0.0000 0.0000 0.0000 29.7098 0.0000 -10.5971
# 5 13.7873 -0.5108 3.7486 0.0000 29.7718 0.0000
# 6 0.0000 0.0000 0.0000 -10.5971 0.0000 18.8764
#
#
#
# Elastic Compliance Matrix: (Units=1/GPa)
#
#
# Indices 1 2 3 4 5 6 
#
# 1 0.019036 -0.002423 0.000106 0.000000 -0.008870 0.000000
# 2 -0.002423 0.008012 -0.002263 0.000000 0.001545 0.000000
# 3 0.000106 -0.002263 0.011957 0.000000 -0.001594 0.000000
# 4 0.000000 0.000000 0.000000 0.042086 0.000000 0.023627
# 5 -0.008870 0.001545 -0.001594 0.000000 0.037924 0.000000
# 6 0.000000 0.000000 0.000000 0.023627 0.000000 0.066241
#
#
# Mechanical properties :
#
#
# Convention : Reuss Voigt Hill
#
# Bulk Modulus (GPa) = 33.50626 42.47397 37.99012
# Shear Modulus (GPa) = 24.46630 31.67407 28.07018
#
# Velocity S-wave (km/s) = 3.42851 3.90097 3.67234
# Velocity P-wave (km/s) = 5.63655 6.37937 6.01943
#
# Compressibility (1/GPa) = 0.02984517
#
# Stress axis : x y z
#
# Youngs Moduli (GPa) = 52.53314 124.81646 83.63343
#
# Poissons Ratio (x) = 0.30246 -0.00889
# Poissons Ratio (y) = 0.12730 0.18922
# Poissons Ratio (z) = -0.00558 0.28240
#
# Static dielectric constant tensor:
#      x y z
#    x 1.608360 0.000000 -0.175500 
#    y 0.000000 1.709890 0.000000 
#    z -0.175500 0.000000 1.487840 
# 
# From -- ./inp_files/101357.got.cif
#   From: 2010.05.17/outbox.cif.g08.bks.cpg/sg15_51_cif.got.tgz:101357.got - 2010.06.03 18:47:42.
