data_PCOD9303003
_publ_section_title
;
Structure prediction by ZEFSAII (Michael W. Deem and Ramdas Pophale) SiO2 
 PCOD9303003
Probable space group: C 2/C
;
_chemical_formula_sum "Si O2"
_cell_formula_units_Z 32
_cell_length_a 15.008073
_cell_length_b 7.521221
_cell_length_c 24.587412
_cell_angle_alpha 90.000000
_cell_angle_beta 151.582246
_cell_angle_gamma 90.000000
_cell_volume 1320.805441
_symmetry_space_group_name_H-M "C 2/C"
_symmetry_group_IT_number 15
_symmetry_cell_setting 'monoclinic'
loop_
_space_group_symop_operation_xyz
x,y,z
-x,y,1/2-z
-x,-y,-z
x,-y,1/2+z
1/2+x,1/2+y,z
1/2-x,1/2+y,1/2-z
1/2-x,1/2-y,-z
1/2+x,1/2-y,1/2+z
loop_
_atom_site_type_symbol
_atom_site_label
_atom_site_fract_x
_atom_site_fract_y
_atom_site_fract_z
Si Si1 0.668523 0.130660 0.572901
Si Si2 0.901057 0.125509 0.875624
Si Si3 0.224707 0.038566 0.484984
Si Si4 0.095048 0.640827 0.221550
O O1 0.546708 0.307833 0.497861
O O2 0.830855 0.199514 0.700486
O O3 0.500000 0.000000 0.500000
O O4 0.752165 0.042174 0.563175
O O5 0.857812 0.294638 0.814263
O O6 0.717509 0.033089 0.798637
O O7 0.023384 0.000941 0.902020
O O8 0.250000 0.250000 0.500000
O O9 0.380902 0.927113 0.603708
#
# Coordination Sequence:
#
# PCOD9303003 Si02
#       4
#     8   8   8   8
#     4  11  23  41  66  97 128 169 221 270 326 398
#     4  11  23  42  65  92 129 169 214 272 329 394
#     4  11  25  44  65  95 133 173 220 272 327 398
#     4  11  22  41  67  95 129 172 214 273 336 385
#
# _framework density 24.227640999999998
#
# number of rings (size 3 to 8) (size 9 to 14) (size 15 to 20)
#    0.000    1.000    0.000    9.750    0.000    4.000 
#    0.000    2.500    0.000    0.000    0.000    0.000 
#    0.000    0.000    0.000    0.000    0.000    0.000 
#
# Total GULP energy -89437.980943 kJ/mol
# GULP energy per Si atom -5589.873809 kJ/mol
# Density = 2.417250 g / cm^3
# Si number density = 24.227641 Si / 1000 Ang^3
#
#
#
# Elastic Constant Matrix: (Units=GPa)
#
#
# Indices 1 2 3 4 5 6 
#
# 1 44.2981 5.4344 29.5083 0.0000 18.0296 0.0000
# 2 5.4344 109.6219 36.6390 0.0000 3.4391 0.0000
# 3 29.5083 36.6390 148.2919 0.0001 -2.2969 0.0000
# 4 0.0000 0.0000 0.0001 39.8733 0.0000 14.4953
# 5 18.0296 3.4391 -2.2969 0.0000 37.7659 0.0000
# 6 0.0000 0.0000 0.0000 14.4953 0.0000 33.3817
#
#
#
# Elastic Compliance Matrix: (Units=1/GPa)
#
#
# Indices 1 2 3 4 5 6 
#
# 1 0.034220 0.001305 -0.007394 0.000000 -0.016905 0.000000
# 2 0.001305 0.010035 -0.002766 0.000000 -0.001705 0.000000
# 3 -0.007394 -0.002766 0.008965 0.000000 0.004327 0.000000
# 4 0.000000 0.000000 0.000000 0.029780 0.000000 -0.012932
# 5 -0.016905 -0.001705 0.004327 0.000000 0.034968 0.000000
# 6 0.000000 0.000000 0.000000 -0.012932 0.000000 0.035572
#
#
# Mechanical properties :
#
#
# Convention : Reuss Voigt Hill
#
# Bulk Modulus (GPa) = 28.15944 49.48614 38.82279
# Shear Modulus (GPa) = 27.30956 37.57954 32.44455
#
# Velocity S-wave (km/s) = 3.36103 3.94268 3.66342
# Velocity P-wave (km/s) = 5.16819 6.41842 5.82693
#
# Compressibility (1/GPa) = 0.03551207
#
# Stress axis : x y z
#
# Youngs Moduli (GPa) = 29.22278 99.64718 111.54459
#
# Poissons Ratio (x) = -0.13005 0.82472
# Poissons Ratio (y) = -0.03814 0.30849
# Poissons Ratio (z) = 0.21606 0.27558
#
# Static dielectric constant tensor:
#      x y z
#    x 1.943700 0.000000 -0.058840 
#    y 0.000000 1.981560 0.000000 
#    z -0.058840 0.000000 1.974470 
# 
# From -- ./inp_files/158952.got.cif
#   From: 2010.05.17/outbox.cif.g08.bks.cpg/sg15_80_cif.got.tgz:158952.got - 2010.06.03 18:47:42.
