data_PCOD9303510
_publ_section_title
;
Structure prediction by ZEFSAII (Michael W. Deem and Ramdas Pophale) SiO2 
 PCOD9303510
Probable space group: C 2/C
;
_chemical_formula_sum "Si O2"
_cell_formula_units_Z 36
_cell_length_a 7.991717
_cell_length_b 24.074015
_cell_length_c 9.896462
_cell_angle_alpha 90.000000
_cell_angle_beta 53.648815
_cell_angle_gamma 90.000000
_cell_volume 1533.485656
_symmetry_space_group_name_H-M "C 2/C"
_symmetry_group_IT_number 15
_symmetry_cell_setting 'monoclinic'
loop_
_space_group_symop_operation_xyz
x,y,z
-x,y,1/2-z
-x,-y,-z
x,-y,1/2+z
1/2+x,1/2+y,z
1/2-x,1/2+y,1/2-z
1/2-x,1/2-y,-z
1/2+x,1/2-y,1/2+z
loop_
_atom_site_type_symbol
_atom_site_label
_atom_site_fract_x
_atom_site_fract_y
_atom_site_fract_z
Si Si1 0.745512 0.704372 0.116522
Si Si2 0.124222 0.129016 0.561085
Si Si3 0.640077 0.982450 0.558675
Si Si4 0.345559 0.403733 0.946568
Si Si5 0.500000 0.802428 0.750000
O O1 0.500000 0.695163 0.250000
O O2 0.814932 0.642383 0.035371
O O3 0.866627 0.724298 0.191705
O O4 0.750000 0.750000 0.000000
O O5 0.205133 0.066818 0.552827
O O6 0.322596 0.163794 0.416290
O O7 0.000000 0.151093 0.750000
O O8 0.971224 0.124576 0.507076
O O9 0.500000 0.962023 0.750000
O O10 0.500000 0.000000 0.500000
O O11 0.750087 0.039635 0.547646
O O12 0.500000 0.420228 0.750000
#
# Coordination Sequence:
#
# PCOD9303510 Si02
#       5
#     8   8   8   8   4
#     4  11  26  49  76 108 145 189 246 310 371 439
#     4  12  24  43  73 108 147 198 243 294 367 437
#     4  12  23  38  65 105 145 195 243 291 361 434
#     4  11  22  45  65 100 152 185 244 309 349 434
#     4  12  24  52  78 106 152 192 242 310 372 444
#
# _framework density 23.475928
#
# number of rings (size 3 to 8) (size 9 to 14) (size 15 to 20)
#    0.000    0.444    5.556    5.333    0.000    3.556 
#    2.000    0.000    0.000    0.000    0.000    0.000 
#    0.000    0.000    0.000    0.000    0.000    0.000 
#
# Total GULP energy -100703.969730 kJ/mol
# GULP energy per Si atom -5594.664985 kJ/mol
# Density = 2.342250 g / cm^3
# Si number density = 23.475928 Si / 1000 Ang^3
#
#
#
# Elastic Constant Matrix: (Units=GPa)
#
#
# Indices 1 2 3 4 5 6 
#
# 1 139.8386 12.0175 47.9741 0.0000 42.1321 0.0000
# 2 12.0175 70.9278 18.5293 0.0000 -1.2121 0.0000
# 3 47.9741 18.5293 144.2723 0.0000 8.0032 0.0000
# 4 0.0000 0.0000 0.0000 25.1550 0.0000 23.5498
# 5 42.1321 -1.2121 8.0032 0.0000 42.8073 0.0000
# 6 0.0000 0.0000 0.0000 23.5498 0.0000 9.4966
#
#
#
# Elastic Compliance Matrix: (Units=1/GPa)
#
#
# Indices 1 2 3 4 5 6 
#
# 1 0.011603 -0.001347 -0.003082 0.000000 -0.010882 0.000000
# 2 -0.001347 0.014770 -0.001562 0.000000 0.002036 0.000000
# 3 -0.003082 -0.001562 0.008075 0.000000 0.001479 0.000000
# 4 0.000000 0.000000 0.000000 -0.030080 0.000000 0.074594
# 5 -0.010882 0.002036 0.001479 0.000000 0.033852 0.000000
# 6 0.000000 0.000000 0.000000 0.074594 0.000000 -0.079678
#
#
# Mechanical properties :
#
#
# Convention : Reuss Voigt Hill
#
# Bulk Modulus (GPa) = 44.51108 56.89783 50.70446
# Shear Modulus (GPa) = -227.37635 33.92628 -96.72503
#
# Velocity S-wave (km/s) = -9.85218 3.80564 -6.42583
# Velocity P-wave (km/s) = 10.50805 6.60302 5.78010
#
# Compressibility (1/GPa) = 0.02246632
#
# Stress axis : x y z
#
# Youngs Moduli (GPa) = 86.18809 67.70527 123.84528
#
# Poissons Ratio (x) = 0.09118 0.38163
# Poissons Ratio (y) = 0.11608 0.19345
# Poissons Ratio (z) = 0.26559 0.10576
#
# Static dielectric constant tensor:
#      x y z
#    x 1.920670 0.000000 -0.069820 
#    y 0.000000 2.035250 0.000000 
#    z -0.069820 0.000000 1.842380 
# 
# From -- ./inp_files/24327.got.cif
#   From: 2010.05.17/outbox.cif.g08.bks.cpg/sg15_13_cif.got.tgz:24327.got - 2010.06.03 18:47:42.
