data_PCOD9303888
_publ_section_title
;
Structure prediction by ZEFSAII (Michael W. Deem and Ramdas Pophale) SiO2 
 PCOD9303888
Probable space group: C 2/C
;
_chemical_formula_sum "Si O2"
_cell_formula_units_Z 52
_cell_length_a 12.355413
_cell_length_b 18.909150
_cell_length_c 10.408096
_cell_angle_alpha 90.000000
_cell_angle_beta 88.777516
_cell_angle_gamma 90.000000
_cell_volume 2431.093720
_symmetry_space_group_name_H-M "C 2/C"
_symmetry_group_IT_number 15
_symmetry_cell_setting 'monoclinic'
loop_
_space_group_symop_operation_xyz
x,y,z
-x,y,1/2-z
-x,-y,-z
x,-y,1/2+z
1/2+x,1/2+y,z
1/2-x,1/2+y,1/2-z
1/2-x,1/2-y,-z
1/2+x,1/2-y,1/2+z
loop_
_atom_site_type_symbol
_atom_site_label
_atom_site_fract_x
_atom_site_fract_y
_atom_site_fract_z
Si Si1 0.403871 0.710452 0.022565
Si Si2 0.691645 0.859964 0.556036
Si Si3 0.500000 0.221959 0.750000
Si Si4 0.892293 0.543753 0.668707
Si Si5 0.914052 0.773039 0.146528
Si Si6 0.797710 0.641278 0.865527
Si Si7 0.842029 0.384255 0.647383
O O1 0.314552 0.651091 0.004309
O O2 0.416208 0.732881 0.169298
O O3 0.361043 0.781445 0.951690
O O4 0.526917 0.696314 0.979895
O O5 0.625269 0.910017 0.460180
O O6 0.698288 0.883856 0.703724
O O7 0.416609 0.177093 0.841160
O O8 0.801342 0.573866 0.770222
O O9 0.892402 0.461714 0.632527
O O10 0.000000 0.552589 0.750000
O O11 0.910661 0.688101 0.141511
O O12 0.000000 0.795998 0.250000
O O13 0.795583 0.803730 0.170459
O O14 0.776937 0.623364 0.015194
#
# Coordination Sequence:
#
# PCOD9303888 Si02
#       7
#     8   8   4   8   8   8   8
#     4  11  23  40  69  99 136 176 226 278 339 400
#     4  11  24  44  65  99 141 179 222 277 339 413
#     4  12  22  40  64 102 136 174 224 278 348 394
#     4  12  26  45  69  98 141 183 217 284 355 406
#     4  12  24  41  70 106 135 176 231 285 336 401
#     4  12  25  45  68 102 142 177 228 285 337 405
#     4  12  26  42  68 104 139 173 231 281 341 410
#
# _framework density 21.389548999999999
#
# number of rings (size 3 to 8) (size 9 to 14) (size 15 to 20)
#    0.000    0.308    5.385    3.692    2.154    1.231 
#    0.000    0.000    0.000   10.154    0.000    0.000 
#    0.000    0.000    0.000    0.000    0.000    0.000 
#
# Total GULP energy -144968.281267 kJ/mol
# GULP energy per Si atom -5575.703126 kJ/mol
# Density = 2.134087 g / cm^3
# Si number density = 21.389549 Si / 1000 Ang^3
#
#
#
# Elastic Constant Matrix: (Units=GPa)
#
#
# Indices 1 2 3 4 5 6 
#
# 1 117.9366 60.1778 23.7559 0.0000 -3.4443 0.0000
# 2 60.1778 90.7380 40.9820 0.0000 10.7320 0.0000
# 3 23.7559 40.9820 134.0638 0.0000 12.9371 0.0000
# 4 0.0000 0.0000 0.0000 23.4718 0.0000 9.1425
# 5 -3.4443 10.7320 12.9371 0.0000 29.4161 0.0000
# 6 0.0000 0.0000 0.0000 9.1425 0.0000 -3.5199
#
#
#
# Elastic Compliance Matrix: (Units=1/GPa)
#
#
# Indices 1 2 3 4 5 6 
#
# 1 0.013502 -0.009573 0.000046 0.000000 0.005053 0.000000
# 2 -0.009573 0.019846 -0.003721 0.000000 -0.006725 0.000000
# 3 0.000046 -0.003721 0.008832 0.000000 -0.002521 0.000000
# 4 0.000000 0.000000 0.000000 0.021178 0.000000 0.055008
# 5 0.005053 -0.006725 -0.002521 0.000000 0.038149 0.000000
# 6 0.000000 0.000000 0.000000 0.055008 0.000000 -0.141224
#
#
# Mechanical properties :
#
#
# Convention : Reuss Voigt Hill
#
# Bulk Modulus (GPa) = 63.76296 65.84109 64.80202
# Shear Modulus (GPa) = -625.58244 24.39512 -300.59366
#
# Velocity S-wave (km/s) = -17.12034 3.38082 -11.86752
# Velocity P-wave (km/s) = 18.99824 6.78886 12.54680
#
# Compressibility (1/GPa) = 0.01568309
#
# Stress axis : x y z
#
# Youngs Moduli (GPa) = 74.06198 50.38818 113.22692
#
# Poissons Ratio (x) = 0.48238 -0.00524
# Poissons Ratio (y) = 0.70902 0.42136
# Poissons Ratio (z) = -0.00343 0.18752
#
# Static dielectric constant tensor:
#      x y z
#    x 1.776860 0.000000 -0.071480 
#    y 0.000000 1.781690 0.000000 
#    z -0.071480 0.000000 1.944530 
# 
# From -- ./inp_files/97834.got.cif
#   From: 2010.05.17/outbox.cif.g08.bks.cpg/sg15_49_cif.got.tgz:97834.got - 2010.06.03 18:47:42.
