data_PCOD9303574
_publ_section_title
;
Structure prediction by ZEFSAII (Michael W. Deem and Ramdas Pophale) SiO2 
 PCOD9303574
Probable space group: C 2/C
;
_chemical_formula_sum "Si O2"
_cell_formula_units_Z 44
_cell_length_a 14.259785
_cell_length_b 12.037976
_cell_length_c 17.316436
_cell_angle_alpha 90.000000
_cell_angle_beta 43.866563
_cell_angle_gamma 90.000000
_cell_volume 2059.901339
_symmetry_space_group_name_H-M "C 2/C"
_symmetry_group_IT_number 15
_symmetry_cell_setting 'monoclinic'
loop_
_space_group_symop_operation_xyz
x,y,z
-x,y,1/2-z
-x,-y,-z
x,-y,1/2+z
1/2+x,1/2+y,z
1/2-x,1/2+y,1/2-z
1/2-x,1/2-y,-z
1/2+x,1/2-y,1/2+z
loop_
_atom_site_type_symbol
_atom_site_label
_atom_site_fract_x
_atom_site_fract_y
_atom_site_fract_z
Si Si1 0.480610 0.155075 0.378056
Si Si2 0.098877 0.078555 0.990169
Si Si3 0.892828 0.558269 0.747429
Si Si4 0.771882 0.992019 0.434925
Si Si5 0.000000 0.147704 0.750000
Si Si6 0.450896 0.165972 0.982654
O O1 0.337506 0.091352 0.462406
O O2 0.477779 0.271749 0.336552
O O3 0.517225 0.157798 0.446152
O O4 0.587638 0.074237 0.272587
O O5 0.242682 0.086907 0.861059
O O6 0.051520 0.203814 0.032206
O O7 0.129158 0.027903 0.055601
O O8 0.000000 0.000000 0.000000
O O9 0.000000 0.595521 0.750000
O O10 0.938681 0.609730 0.638852
O O11 0.866198 0.926948 0.319060
O O12 0.686515 0.096781 0.453980
#
# Coordination Sequence:
#
# PCOD9303574 Si02
#       6
#     8   8   8   8   4   8
#     4  11  23  45  68  99 138 193 242 289 353 433
#     4  12  26  45  71 109 142 180 244 304 348 436
#     4  11  22  45  75  96 142 197 231 284 372 420
#     4  11  24  44  66 101 141 188 239 289 360 433
#     4  12  24  40  70 102 142 186 234 308 358 410
#     4  11  26  44  72 102 143 185 244 292 358 434
#
# _framework density 21.360247000000001
#
# number of rings (size 3 to 8) (size 9 to 14) (size 15 to 20)
#    0.000    0.727    4.545    4.364    0.000   10.182 
#    0.000    0.000    0.000    0.000    0.000    0.000 
#    0.000    0.000    0.000    0.000    0.000    0.000 
#
# Total GULP energy -123084.090645 kJ/mol
# GULP energy per Si atom -5594.731393 kJ/mol
# Density = 2.131163 g / cm^3
# Si number density = 21.360247 Si / 1000 Ang^3
#
#
#
# Elastic Constant Matrix: (Units=GPa)
#
#
# Indices 1 2 3 4 5 6 
#
# 1 104.9741 44.3913 25.9805 0.0000 22.2927 0.0000
# 2 44.3913 132.2160 19.2250 0.0000 -3.8491 0.0000
# 3 25.9805 19.2250 54.8741 0.0000 4.3436 0.0000
# 4 0.0000 0.0000 0.0000 34.1274 0.0000 21.7964
# 5 22.2927 -3.8491 4.3436 0.0000 37.4350 0.0000
# 6 0.0000 0.0000 0.0000 21.7964 0.0000 45.2907
#
#
#
# Elastic Compliance Matrix: (Units=1/GPa)
#
#
# Indices 1 2 3 4 5 6 
#
# 1 0.014302 -0.004383 -0.004568 0.000000 -0.008438 0.000000
# 2 -0.004383 0.009363 -0.001501 0.000000 0.003747 0.000000
# 3 -0.004568 -0.001501 0.020901 0.000000 0.000141 0.000000
# 4 0.000000 0.000000 0.000000 0.042305 0.000000 -0.020360
# 5 -0.008438 0.003747 0.000141 0.000000 0.032107 0.000000
# 6 0.000000 0.000000 0.000000 -0.020360 0.000000 0.031878
#
#
# Mechanical properties :
#
#
# Convention : Reuss Voigt Hill
#
# Bulk Modulus (GPa) = 42.26454 52.36196 47.31325
# Shear Modulus (GPa) = 27.83228 36.86844 32.35036
#
# Velocity S-wave (km/s) = 3.61362 4.15906 3.89590
# Velocity P-wave (km/s) = 6.10250 6.90150 6.51426
#
# Compressibility (1/GPa) = 0.02366050
#
# Stress axis : x y z
#
# Youngs Moduli (GPa) = 69.91936 106.80905 47.84442
#
# Poissons Ratio (x) = 0.46819 0.21855
# Poissons Ratio (y) = 0.30648 0.07183
# Poissons Ratio (z) = 0.31938 0.16036
#
# Static dielectric constant tensor:
#      x y z
#    x 1.794790 0.000000 0.013560 
#    y 0.000000 1.790770 0.000000 
#    z 0.013560 0.000000 1.794180 
# 
# From -- ./inp_files/203817.got.cif
#   From: 2010.05.17/outbox.cif.g08.bks.cpg/sg15_102_cif.got.tgz:203817.got - 2010.06.03 18:47:42.
