data_PCOD9303976
_publ_section_title
;
Structure prediction by ZEFSAII (Michael W. Deem and Ramdas Pophale) SiO2 
 PCOD9303976
Probable space group: C 2/C
;
_chemical_formula_sum "Si O2"
_cell_formula_units_Z 56
_cell_length_a 8.038033
_cell_length_b 33.176816
_cell_length_c 10.988208
_cell_angle_alpha 90.000000
_cell_angle_beta 57.647855
_cell_angle_gamma 90.000000
_cell_volume 2475.440547
_symmetry_space_group_name_H-M "C 2/C"
_symmetry_group_IT_number 15
_symmetry_cell_setting 'monoclinic'
loop_
_space_group_symop_operation_xyz
x,y,z
-x,y,1/2-z
-x,-y,-z
x,-y,1/2+z
1/2+x,1/2+y,z
1/2-x,1/2+y,1/2-z
1/2-x,1/2-y,-z
1/2+x,1/2-y,1/2+z
loop_
_atom_site_type_symbol
_atom_site_label
_atom_site_fract_x
_atom_site_fract_y
_atom_site_fract_z
Si Si1 0.496260 0.125196 0.482483
Si Si2 0.158751 0.210447 0.904080
Si Si3 0.545926 0.786892 0.430261
Si Si4 0.197626 0.930643 0.234547
Si Si5 0.000000 0.934343 0.750000
Si Si6 0.133774 0.876670 0.488641
Si Si7 0.500000 0.925462 0.750000
Si Si8 0.699866 0.489497 0.845241
O O1 0.448458 0.172553 0.491353
O O2 0.323465 0.095958 0.593788
O O3 0.651798 0.124842 0.532460
O O4 0.569045 0.104531 0.330181
O O5 0.262020 0.211441 0.731325
O O6 0.351186 0.213324 0.918106
O O7 0.064634 0.168332 0.985453
O O8 0.999825 0.245948 0.979461
O O9 0.138062 0.899503 0.361468
O O10 0.000000 0.946753 0.250000
O O11 0.293532 0.968408 0.266532
O O12 0.836177 0.965425 0.767335
O O13 0.024617 0.904844 0.626946
O O14 0.335477 0.957303 0.861669
O O15 0.500000 0.500000 0.000000
#
# Coordination Sequence:
#
# PCOD9303976 Si02
#       8
#     8   8   8   8   4   8   4   8
#     4  11  24  43  67  97 133 178 227 280 336 410
#     4   9  18  35  62  99 129 169 217 274 332 397
#     4   9  18  36  64  96 133 165 219 276 328 403
#     4  12  25  41  69  93 135 180 222 281 342 407
#     4  12  24  42  64 100 138 174 226 292 330 408
#     4  11  23  41  67  99 133 176 227 272 343 407
#     4  12  28  44  68 100 134 184 232 282 352 402
#     4  12  26  45  64  97 137 177 230 288 343 402
#
# _framework density 22.622235
#
# number of rings (size 3 to 8) (size 9 to 14) (size 15 to 20)
#    0.000    1.143    5.000    1.286    2.000    4.000 
#    0.000    0.000    1.571    1.714    0.000    0.000 
#    0.000    0.000    0.000    0.000    0.000    0.000 
#
# Total GULP energy -156170.898092 kJ/mol
# GULP energy per Si atom -5577.532075 kJ/mol
# Density = 2.257075 g / cm^3
# Si number density = 22.622235 Si / 1000 Ang^3
#
#
#
# Elastic Constant Matrix: (Units=GPa)
#
#
# Indices 1 2 3 4 5 6 
#
# 1 43.7756 25.1033 8.5583 0.0000 -0.1778 0.0000
# 2 25.1033 201.5312 44.8513 0.0000 -8.2746 0.0000
# 3 8.5583 44.8513 63.8966 0.0000 -0.5495 0.0000
# 4 0.0000 0.0000 0.0000 40.7142 0.0000 -20.5666
# 5 -0.1778 -8.2746 -0.5495 0.0000 18.2684 0.0000
# 6 0.0000 0.0000 0.0000 -20.5666 0.0000 47.0775
#
#
#
# Elastic Compliance Matrix: (Units=1/GPa)
#
#
# Indices 1 2 3 4 5 6 
#
# 1 0.024721 -0.002826 -0.001337 0.000000 -0.001080 0.000000
# 2 -0.002826 0.006324 -0.004037 0.000000 0.002716 0.000000
# 3 -0.001337 -0.004037 0.018652 0.000000 -0.001281 0.000000
# 4 0.000000 0.000000 0.000000 0.031517 0.000000 0.013768
# 5 -0.001080 0.002716 -0.001281 0.000000 0.055920 0.000000
# 6 0.000000 0.000000 0.000000 0.013768 0.000000 0.027257
#
#
# Mechanical properties :
#
#
# Convention : Reuss Voigt Hill
#
# Bulk Modulus (GPa) = 30.03225 51.80326 40.91775
# Shear Modulus (GPa) = 26.05657 36.59139 31.32398
#
# Velocity S-wave (km/s) = 3.39752 4.02617 3.72513
# Velocity P-wave (km/s) = 5.35679 6.67551 6.05217
#
# Compressibility (1/GPa) = 0.03329754
#
# Stress axis : x y z
#
# Youngs Moduli (GPa) = 40.45075 158.12694 53.61318
#
# Poissons Ratio (x) = 0.44690 0.07166
# Poissons Ratio (y) = 0.11432 0.21645
# Poissons Ratio (z) = 0.05407 0.63839
#
# Static dielectric constant tensor:
#      x y z
#    x 1.931020 0.000000 -0.087460 
#    y 0.000000 1.826000 0.000000 
#    z -0.087460 0.000000 1.612270 
# 
# From -- ./inp_files/82524.got.cif
#   From: 2010.05.17/outbox.cif.g08.bks.cpg/sg15_42_cif.got.tgz:82524.got - 2010.06.03 18:47:42.
