data_PCOD9303941
_publ_section_title
;
Structure prediction by ZEFSAII (Michael W. Deem and Ramdas Pophale) SiO2 
 PCOD9303941
Probable space group: C 2/C
;
_chemical_formula_sum "Si O2"
_cell_formula_units_Z 40
_cell_length_a 11.958708
_cell_length_b 13.029663
_cell_length_c 28.044106
_cell_angle_alpha 90.000000
_cell_angle_beta 155.500271
_cell_angle_gamma 90.000000
_cell_volume 1812.097229
_symmetry_space_group_name_H-M "C 2/C"
_symmetry_group_IT_number 15
_symmetry_cell_setting 'monoclinic'
loop_
_space_group_symop_operation_xyz
x,y,z
-x,y,1/2-z
-x,-y,-z
x,-y,1/2+z
1/2+x,1/2+y,z
1/2-x,1/2+y,1/2-z
1/2-x,1/2-y,-z
1/2+x,1/2-y,1/2+z
loop_
_atom_site_type_symbol
_atom_site_label
_atom_site_fract_x
_atom_site_fract_y
_atom_site_fract_z
Si Si1 0.482488 0.087161 0.910398
Si Si2 0.255772 0.870263 0.817845
Si Si3 0.430528 0.211854 0.979188
Si Si4 0.684002 0.792476 0.764741
Si Si5 0.529796 0.585606 0.470377
O O1 0.518157 0.116877 0.979603
O O2 0.368453 0.193905 0.846245
O O3 0.280905 0.992901 0.827989
O O4 0.740972 0.058762 0.979091
O O5 0.255102 0.833576 0.763845
O O6 0.000000 0.838684 0.750000
O O7 0.509523 0.821450 0.944098
O O8 0.596967 0.310370 0.025582
O O9 0.120932 0.248266 0.851893
O O10 0.777213 0.880526 0.838585
O O11 0.500000 0.500000 0.500000
#
# Coordination Sequence:
#
# PCOD9303941 Si02
#       5
#     8   8   8   8   8
#     4  11  23  41  65  94 130 175 222 280 343 404
#     4  12  24  41  66  98 132 177 230 280 335 407
#     4  11  23  43  66  94 132 175 223 281 342 406
#     4  11  24  43  65  96 135 175 222 283 342 404
#     4  11  23  42  65  94 130 174 221 276 342 409
#
# _framework density 22.073869999999999
#
# number of rings (size 3 to 8) (size 9 to 14) (size 15 to 20)
#    0.000    0.800    0.000   10.800    0.000    3.200 
#    0.000    4.000    0.000    0.000    0.000    0.000 
#    0.000    0.000    0.000    0.000    0.000    0.000 
#
# Total GULP energy -111739.724070 kJ/mol
# GULP energy per Si atom -5586.986204 kJ/mol
# Density = 2.202363 g / cm^3
# Si number density = 22.073870 Si / 1000 Ang^3
#
#
#
# Elastic Constant Matrix: (Units=GPa)
#
#
# Indices 1 2 3 4 5 6 
#
# 1 156.9260 48.1090 62.2275 0.0002 -12.2592 0.0002
# 2 48.1090 80.8346 32.6732 0.0007 -25.6218 0.0003
# 3 62.2275 32.6732 100.2108 0.0029 -16.7987 0.0012
# 4 0.0002 0.0007 0.0029 32.2158 0.0008 -11.4958
# 5 -12.2592 -25.6218 -16.7987 0.0008 57.7477 0.0003
# 6 0.0002 0.0003 0.0012 -11.4958 0.0003 35.9519
#
#
#
# Elastic Compliance Matrix: (Units=1/GPa)
#
#
# Indices 1 2 3 4 5 6 
#
# 1 0.009391 -0.004060 -0.004705 0.000001 -0.001177 0.000000
# 2 -0.004060 0.017681 -0.002179 0.000000 0.006349 0.000000
# 3 -0.004705 -0.002179 0.013962 -0.000002 0.002096 -0.000001
# 4 0.000001 0.000000 -0.000002 0.035039 -0.000001 0.011204
# 5 -0.001177 0.006349 0.002096 -0.000001 0.020494 -0.000001
# 6 0.000000 0.000000 -0.000001 0.011204 -0.000001 0.031397
#
#
# Mechanical properties :
#
#
# Convention : Reuss Voigt Hill
#
# Bulk Modulus (GPa) = 52.23182 69.33231 60.78206
# Shear Modulus (GPa) = 32.00332 38.18051 35.09192
#
# Velocity S-wave (km/s) = 3.81179 4.16344 3.99149
# Velocity P-wave (km/s) = 6.56404 7.38849 6.98843
#
# Compressibility (1/GPa) = 0.01914542
#
# Stress axis : x y z
#
# Youngs Moduli (GPa) = 106.48552 56.55927 71.62113
#
# Poissons Ratio (x) = 0.22965 0.33697
# Poissons Ratio (y) = 0.43236 0.15607
# Poissons Ratio (z) = 0.50100 0.12325
#
# Static dielectric constant tensor:
#      x y z
#    x 1.827920 0.000000 0.020440 
#    y 0.000000 1.766180 0.000000 
#    z 0.020440 0.000000 1.878200 
# 
# From -- ./inp_files/292410.got.cif
#   From: 2010.05.17/outbox.cif.g08.bks.cpg/sg15_147_cif.got.tgz:292410.got - 2010.06.03 18:47:42.
