data_PCOD9303872
_publ_section_title
;
Structure prediction by ZEFSAII (Michael W. Deem and Ramdas Pophale) SiO2 
 PCOD9303872
Probable space group: C 2/C
;
_chemical_formula_sum "Si O2"
_cell_formula_units_Z 52
_cell_length_a 19.111515
_cell_length_b 14.927603
_cell_length_c 14.824640
_cell_angle_alpha 90.000000
_cell_angle_beta 38.348286
_cell_angle_gamma 90.000000
_cell_volume 2624.032830
_symmetry_space_group_name_H-M "C 2/C"
_symmetry_group_IT_number 15
_symmetry_cell_setting 'monoclinic'
loop_
_space_group_symop_operation_xyz
x,y,z
-x,y,1/2-z
-x,-y,-z
x,-y,1/2+z
1/2+x,1/2+y,z
1/2-x,1/2+y,1/2-z
1/2-x,1/2-y,-z
1/2+x,1/2-y,1/2+z
loop_
_atom_site_type_symbol
_atom_site_label
_atom_site_fract_x
_atom_site_fract_y
_atom_site_fract_z
Si Si1 0.645885 0.486003 0.952783
Si Si2 0.696414 0.152938 0.659389
Si Si3 0.485011 0.066421 0.934912
Si Si4 0.751991 0.358390 0.992871
Si Si5 0.276126 0.151993 0.073523
Si Si6 0.621526 0.493082 0.260503
Si Si7 0.500000 0.937871 0.750000
O O1 0.716233 0.572417 0.914377
O O2 0.702042 0.401769 0.949886
O O3 0.647955 0.496137 0.841274
O O4 0.513342 0.486051 0.112861
O O5 0.584964 0.137155 0.829577
O O6 0.667455 0.155769 0.582334
O O7 0.746627 0.248639 0.631553
O O8 0.498487 0.003331 0.835668
O O9 0.363819 0.110581 0.054056
O O10 0.500000 0.000000 0.000000
O O11 0.883778 0.383840 0.866495
O O12 0.750000 0.250000 0.000000
O O13 0.685022 0.412324 0.141706
O O14 0.170037 0.086019 0.171890
#
# Coordination Sequence:
#
# PCOD9303872 Si02
#       7
#     8   8   8   8   8   8   4
#     4  11  24  45  68  98 139 181 228 289 353 416
#     4  11  23  40  67  99 133 172 222 278 343 418
#     4  12  22  44  68  93 136 182 220 291 350 401
#     4  12  27  46  71 100 139 190 241 293 354 428
#     4  11  23  40  67  99 133 172 222 278 343 418
#     4  11  24  45  68  98 139 181 228 289 353 416
#     4  12  24  46  64  98 130 176 246 282 350 426
#
# _framework density 19.816825999999999
#
# number of rings (size 3 to 8) (size 9 to 14) (size 15 to 20)
#    0.000    0.615    6.154    1.385    4.308    1.231 
#    0.000    0.000    0.000    0.000    0.000    0.000 
#    0.000    0.000    0.000    0.000    0.000    0.000 
#
# Total GULP energy -145158.349157 kJ/mol
# GULP energy per Si atom -5583.013429 kJ/mol
# Density = 1.977172 g / cm^3
# Si number density = 19.816826 Si / 1000 Ang^3
#
#
#
# Elastic Constant Matrix: (Units=GPa)
#
#
# Indices 1 2 3 4 5 6 
#
# 1 130.2480 45.2407 -8.1566 0.0000 -22.6556 0.0000
# 2 45.2407 137.5088 -0.1846 0.0000 -23.6384 0.0000
# 3 -8.1566 -0.1846 101.2210 0.0000 -10.6721 0.0000
# 4 0.0000 0.0000 0.0000 28.8823 0.0000 -5.1866
# 5 -22.6556 -23.6384 -10.6721 0.0000 52.2713 0.0000
# 6 0.0000 0.0000 0.0000 -5.1866 0.0000 23.6773
#
#
#
# Elastic Compliance Matrix: (Units=1/GPa)
#
#
# Indices 1 2 3 4 5 6 
#
# 1 0.009136 -0.002479 0.001054 0.000000 0.003054 0.000000
# 2 -0.002479 0.008574 0.000114 0.000000 0.002826 0.000000
# 3 0.001054 0.000114 0.010238 0.000000 0.002598 0.000000
# 4 0.000000 0.000000 0.000000 0.036041 0.000000 0.007895
# 5 0.003054 0.002826 0.002598 0.000000 0.022263 0.000000
# 6 0.000000 0.000000 0.000000 0.007895 0.000000 0.043964
#
#
# Mechanical properties :
#
#
# Convention : Reuss Voigt Hill
#
# Bulk Modulus (GPa) = 39.48760 49.19741 44.34251
# Shear Modulus (GPa) = 35.39022 43.10471 39.24747
#
# Velocity S-wave (km/s) = 4.23054 4.66892 4.45512
# Velocity P-wave (km/s) = 6.62064 7.34473 6.99206
#
# Compressibility (1/GPa) = 0.02532440
#
# Stress axis : x y z
#
# Youngs Moduli (GPa) = 109.45704 116.63241 97.67104
#
# Poissons Ratio (x) = 0.28918 -0.10291
# Poissons Ratio (y) = 0.27139 -0.01111
# Poissons Ratio (z) = -0.11533 -0.01327
#
# Static dielectric constant tensor:
#      x y z
#    x 1.719680 0.000000 0.013400 
#    y 0.000000 1.705250 0.000000 
#    z 0.013400 0.000000 1.727510 
# 
# From -- ./inp_files/162479.got.cif
#   From: 2010.05.17/outbox.cif.g08.bks.cpg/sg15_82_cif.got.tgz:162479.got - 2010.06.03 18:47:42.
