data_PCOD9303292
_publ_section_title
;
Structure prediction by ZEFSAII (Michael W. Deem and Ramdas Pophale) SiO2 
 PCOD9303292
Probable space group: C 2/C
;
_chemical_formula_sum "Si O2"
_cell_formula_units_Z 40
_cell_length_a 7.820115
_cell_length_b 20.931667
_cell_length_c 13.682431
_cell_angle_alpha 90.000000
_cell_angle_beta 52.707869
_cell_angle_gamma 90.000000
_cell_volume 1781.768845
_symmetry_space_group_name_H-M "C 2/C"
_symmetry_group_IT_number 15
_symmetry_cell_setting 'monoclinic'
loop_
_space_group_symop_operation_xyz
x,y,z
-x,y,1/2-z
-x,-y,-z
x,-y,1/2+z
1/2+x,1/2+y,z
1/2-x,1/2+y,1/2-z
1/2-x,1/2-y,-z
1/2+x,1/2-y,1/2+z
loop_
_atom_site_type_symbol
_atom_site_label
_atom_site_fract_x
_atom_site_fract_y
_atom_site_fract_z
Si Si1 0.897591 0.650912 0.888772
Si Si2 0.483249 0.008972 0.620112
Si Si3 0.326052 0.538077 0.125025
Si Si4 0.908587 0.178403 0.061713
Si Si5 0.787718 0.190157 0.875764
O O1 0.000000 0.671888 0.750000
O O2 0.896171 0.573627 0.887300
O O3 0.064182 0.659738 0.919690
O O4 0.668017 0.684995 0.977240
O O5 0.500000 0.000000 0.500000
O O6 0.251337 0.000597 0.751902
O O7 0.624794 0.954911 0.621668
O O8 0.382386 0.611300 0.126184
O O9 0.500000 0.500000 0.000000
O O10 0.761279 0.237494 0.146256
O O11 0.840435 0.179198 0.970847
O O12 0.000000 0.164344 0.750000
#
# Coordination Sequence:
#
# PCOD9303292 Si02
#       5
#     8   8   8   8   8
#     4  12  21  45  68  96 134 181 228 278 346 419
#     4  11  24  41  67 100 135 177 229 278 347 418
#     4  11  22  43  68  96 135 176 219 286 344 406
#     4  11  24  45  67  97 139 175 231 288 346 407
#     4  11  25  41  70  99 131 184 230 285 347 413
#
# _framework density 22.449601000000001
#
# number of rings (size 3 to 8) (size 9 to 14) (size 15 to 20)
#    0.000    0.800    6.000    1.800    2.800    0.800 
#    0.000    0.000    0.000    0.000    0.000    0.000 
#    0.000    0.000    0.000    0.000    0.000    0.000 
#
# Total GULP energy -111407.304945 kJ/mol
# GULP energy per Si atom -5570.365247 kJ/mol
# Density = 2.239850 g / cm^3
# Si number density = 22.449601 Si / 1000 Ang^3
#
#
#
# Elastic Constant Matrix: (Units=GPa)
#
#
# Indices 1 2 3 4 5 6 
#
# 1 136.2382 -0.2378 37.4352 0.0000 -12.8880 0.0000
# 2 -0.2378 69.3858 6.3031 0.0000 -11.2407 0.0000
# 3 37.4352 6.3031 103.7357 0.0000 -0.3796 0.0000
# 4 0.0000 0.0000 0.0000 11.8809 0.0000 -2.8462
# 5 -12.8880 -11.2407 -0.3796 0.0000 37.3412 0.0000
# 6 0.0000 0.0000 0.0000 -2.8462 0.0000 25.1655
#
#
#
# Elastic Compliance Matrix: (Units=1/GPa)
#
#
# Indices 1 2 3 4 5 6 
#
# 1 0.008492 0.000821 -0.003103 0.000000 0.003146 0.000000
# 2 0.000821 0.015316 -0.001209 0.000000 0.004881 0.000000
# 3 -0.003103 -0.001209 0.010828 0.000000 -0.001325 0.000000
# 4 0.000000 0.000000 0.000000 0.086512 0.000000 0.009784
# 5 0.003146 0.004881 -0.001325 0.000000 0.029322 0.000000
# 6 0.000000 0.000000 0.000000 0.009784 0.000000 0.040844
#
#
# Mechanical properties :
#
#
# Convention : Reuss Voigt Hill
#
# Bulk Modulus (GPa) = 36.16173 44.04008 40.10091
# Shear Modulus (GPa) = 24.09485 32.60148 28.34817
#
# Velocity S-wave (km/s) = 3.27966 3.81492 3.55737
# Velocity P-wave (km/s) = 5.52128 6.25018 5.89700
#
# Compressibility (1/GPa) = 0.02765354
#
# Stress axis : x y z
#
# Youngs Moduli (GPa) = 117.76156 65.29298 92.35156
#
# Poissons Ratio (x) = -0.05358 0.28655
# Poissons Ratio (y) = -0.09664 0.11164
# Poissons Ratio (z) = 0.36539 0.07893
#
# Static dielectric constant tensor:
#      x y z
#    x 1.864170 0.000000 -0.033640 
#    y 0.000000 1.951150 0.000000 
#    z -0.033640 0.000000 1.965570 
# 
# From -- ./inp_files/135780.got.cif
#   From: 2010.05.17/outbox.cif.g08.bks.cpg/sg15_68_cif.got.tgz:135780.got - 2010.06.03 18:47:42.
