data_PCOD9303418
_publ_section_title
;
Structure prediction by ZEFSAII (Michael W. Deem and Ramdas Pophale) SiO2 
 PCOD9303418
Probable space group: C 2/C
;
_chemical_formula_sum "Si O2"
_cell_formula_units_Z 48
_cell_length_a 21.160368
_cell_length_b 12.971648
_cell_length_c 27.484182
_cell_angle_alpha 90.000000
_cell_angle_beta 162.764857
_cell_angle_gamma 90.000000
_cell_volume 2235.238834
_symmetry_space_group_name_H-M "C 2/C"
_symmetry_group_IT_number 15
_symmetry_cell_setting 'monoclinic'
loop_
_space_group_symop_operation_xyz
x,y,z
-x,y,1/2-z
-x,-y,-z
x,-y,1/2+z
1/2+x,1/2+y,z
1/2-x,1/2+y,1/2-z
1/2-x,1/2-y,-z
1/2+x,1/2-y,1/2+z
loop_
_atom_site_type_symbol
_atom_site_label
_atom_site_fract_x
_atom_site_fract_y
_atom_site_fract_z
Si Si1 0.843375 0.673313 0.362684
Si Si2 0.784206 0.929838 0.565685
Si Si3 0.457446 0.626145 0.512571
Si Si4 0.151550 0.481696 0.713540
Si Si5 0.759296 0.528755 0.577203
Si Si6 0.365439 0.742096 0.985894
O O1 0.872837 0.563656 0.358595
O O2 0.871541 0.691149 0.440927
O O3 0.005296 0.753060 0.455853
O O4 0.602603 0.708382 0.174359
O O5 0.573840 0.991157 0.428421
O O6 0.000000 0.966745 0.750000
O O7 0.814031 0.938623 0.530124
O O8 0.741080 0.813144 0.551642
O O9 0.687434 0.578239 0.667898
O O10 0.284522 0.600941 0.343544
O O11 0.381292 0.560138 0.502474
O O12 0.755977 0.632675 0.607514
O O13 0.000000 0.491008 0.750000
#
# Coordination Sequence:
#
# PCOD9303418 Si02
#       6
#     8   8   8   8   8   8
#     4  12  23  41  71 101 130 170 227 277 322 380
#     4  12  26  42  63 103 142 169 216 279 341 388
#     4  11  22  44  69  96 131 178 228 264 319 406
#     4  11  23  44  69  94 135 178 224 268 323 400
#     4  12  23  43  70  95 137 183 216 262 335 408
#     4  12  23  40  66 104 138 168 212 283 338 390
#
# _framework density 21.474215000000001
#
# number of rings (size 3 to 8) (size 9 to 14) (size 15 to 20)
#    0.000    0.333    6.667    4.000    0.000    2.000 
#    0.000    1.667    0.000    0.000    0.000    0.000 
#    0.000    0.000    0.000    0.000    0.000    0.000 
#
# Total GULP energy -134299.007610 kJ/mol
# GULP energy per Si atom -5595.791984 kJ/mol
# Density = 2.142534 g / cm^3
# Si number density = 21.474215 Si / 1000 Ang^3
#
#
#
# Elastic Constant Matrix: (Units=GPa)
#
#
# Indices 1 2 3 4 5 6 
#
# 1 135.9734 20.5434 25.2990 0.0192 -13.5041 -0.0042
# 2 20.5434 27.4334 11.4079 0.0254 0.3216 0.0065
# 3 25.2990 11.4079 89.0440 0.1569 15.1640 0.0002
# 4 0.0192 0.0254 0.1569 20.3742 0.0018 6.0649
# 5 -13.5041 0.3216 15.1640 0.0018 35.7526 -0.0083
# 6 -0.0042 0.0065 0.0002 6.0649 -0.0083 46.5886
#
#
#
# Elastic Compliance Matrix: (Units=1/GPa)
#
#
# Indices 1 2 3 4 5 6 
#
# 1 0.009192 -0.005833 -0.002656 0.000019 0.004651 0.000000
# 2 -0.005833 0.042323 -0.003584 -0.000018 -0.001064 -0.000004
# 3 -0.002656 -0.003584 0.013591 -0.000101 -0.006736 0.000012
# 4 0.000019 -0.000018 -0.000101 0.051061 0.000046 -0.006647
# 5 0.004651 -0.001064 -0.006736 0.000046 0.032593 0.000000
# 6 0.000000 -0.000004 0.000012 -0.006647 0.000000 0.022330
#
#
# Mechanical properties :
#
#
# Convention : Reuss Voigt Hill
#
# Bulk Modulus (GPa) = 24.41417 40.77237 32.59327
# Shear Modulus (GPa) = 23.93607 33.55645 28.74626
#
# Velocity S-wave (km/s) = 3.34225 3.95731 3.66271
# Velocity P-wave (km/s) = 5.12717 6.31730 5.75310
#
# Compressibility (1/GPa) = 0.04095982
#
# Stress axis : x y z
#
# Youngs Moduli (GPa) = 108.79249 23.62789 73.57547
#
# Poissons Ratio (x) = 0.13783 0.19544
# Poissons Ratio (y) = 0.63461 0.26367
# Poissons Ratio (z) = 0.28899 0.08467
#
# Static dielectric constant tensor:
#      x y z
#    x 1.809280 0.000010 -0.030030 
#    y 0.000010 1.790390 -0.000050 
#    z -0.030030 -0.000050 1.781840 
# 
# From -- ./inp_files/300971.got.cif
#   From: 2010.05.17/outbox.cif.g08.bks.cpg/sg15_151_cif.got.tgz:300971.got - 2010.06.03 18:47:42.
