data_PCOD9303366
_publ_section_title
;
Structure prediction by ZEFSAII (Michael W. Deem and Ramdas Pophale) SiO2 
 PCOD9303366
Probable space group: C 2/C
;
_chemical_formula_sum "Si O2"
_cell_formula_units_Z 44
_cell_length_a 16.943098
_cell_length_b 16.059798
_cell_length_c 9.421128
_cell_angle_alpha 90.000000
_cell_angle_beta 129.979080
_cell_angle_gamma 90.000000
_cell_volume 1964.367678
_symmetry_space_group_name_H-M "C 2/C"
_symmetry_group_IT_number 15
_symmetry_cell_setting 'monoclinic'
loop_
_space_group_symop_operation_xyz
x,y,z
-x,y,1/2-z
-x,-y,-z
x,-y,1/2+z
1/2+x,1/2+y,z
1/2-x,1/2+y,1/2-z
1/2-x,1/2-y,-z
1/2+x,1/2-y,1/2+z
loop_
_atom_site_type_symbol
_atom_site_label
_atom_site_fract_x
_atom_site_fract_y
_atom_site_fract_z
Si Si1 0.754063 0.627283 0.666758
Si Si2 0.000000 0.167556 0.750000
Si Si3 0.205976 0.392180 0.589413
Si Si4 0.833124 0.739331 0.224356
Si Si5 0.433963 0.955027 0.544448
Si Si6 0.892727 0.029720 0.446570
O O1 0.788741 0.656307 0.551649
O O2 0.696818 0.697785 0.686044
O O3 0.677478 0.546469 0.576142
O O4 0.854705 0.605532 0.875838
O O5 0.941372 0.227517 0.790940
O O6 0.918882 0.102602 0.588313
O O7 0.169713 0.348100 0.693729
O O8 0.134200 0.470406 0.470261
O O9 0.319957 0.426276 0.748691
O O10 0.750000 0.750000 0.000000
O O11 0.500000 0.918651 0.750000
O O12 0.500000 0.000000 0.500000
O O13 0.000000 0.000000 0.500000
#
# Coordination Sequence:
#
# PCOD9303366 Si02
#       6
#     8   4   8   8   8   8
#     4  11  25  44  74 101 138 182 237 296 346 418
#     4  12  24  46  70 106 134 190 232 288 362 416
#     4  11  25  45  68 104 141 183 232 287 354 421
#     4  12  27  46  67 101 146 186 228 287 358 426
#     4  11  24  44  71 103 135 181 238 289 346 419
#     4  11  22  43  75 103 137 177 240 295 349 403
#
# _framework density 22.399065
#
# number of rings (size 3 to 8) (size 9 to 14) (size 15 to 20)
#    0.000    0.727    5.455    1.636    5.091    1.455 
#    0.000    0.000    0.000    0.000    0.000    0.000 
#    0.000    0.000    0.000    0.000    0.000    0.000 
#
# Total GULP energy -122978.000547 kJ/mol
# GULP energy per Si atom -5589.909116 kJ/mol
# Density = 2.234808 g / cm^3
# Si number density = 22.399065 Si / 1000 Ang^3
#
#
#
# Elastic Constant Matrix: (Units=GPa)
#
#
# Indices 1 2 3 4 5 6 
#
# 1 63.8145 -1.1133 31.5729 0.0000 -2.4215 0.0000
# 2 -1.1133 60.4707 32.4376 0.0000 1.4358 0.0000
# 3 31.5729 32.4376 105.6862 0.0000 -7.6105 0.0000
# 4 0.0000 0.0000 0.0000 14.8106 0.0000 -7.7378
# 5 -2.4215 1.4358 -7.6105 0.0000 41.8798 0.0000
# 6 0.0000 0.0000 0.0000 -7.7378 0.0000 23.5336
#
#
#
# Elastic Compliance Matrix: (Units=1/GPa)
#
#
# Indices 1 2 3 4 5 6 
#
# 1 0.019208 0.004131 -0.007028 0.000000 -0.000308 0.000000
# 2 0.004131 0.020820 -0.007760 0.000000 -0.001885 0.000000
# 3 -0.007028 -0.007760 0.014118 0.000000 0.002425 0.000000
# 4 0.000000 0.000000 0.000000 0.081523 0.000000 0.026805
# 5 -0.000308 -0.001885 0.002425 0.000000 0.024365 0.000000
# 6 0.000000 0.000000 0.000000 0.026805 0.000000 0.051306
#
#
# Mechanical properties :
#
#
# Convention : Reuss Voigt Hill
#
# Bulk Modulus (GPa) = 30.45833 39.52954 34.99393
# Shear Modulus (GPa) = 20.52545 27.18309 23.85427
#
# Velocity S-wave (km/s) = 3.03042 3.48743 3.26692
# Velocity P-wave (km/s) = 5.08646 5.82257 5.46692
#
# Compressibility (1/GPa) = 0.03283174
#
# Stress axis : x y z
#
# Youngs Moduli (GPa) = 52.06116 48.02967 70.83109
#
# Poissons Ratio (x) = -0.19842 0.49783
# Poissons Ratio (y) = -0.21507 0.54966
# Poissons Ratio (z) = 0.36591 0.37272
#
# Static dielectric constant tensor:
#      x y z
#    x 1.904150 0.000000 0.036990 
#    y 0.000000 1.948220 0.000000 
#    z 0.036990 0.000000 1.901150 
# 
# From -- ./inp_files/49277.got.cif
#   From: 2010.05.17/outbox.cif.g08.bks.cpg/sg15_25_cif.got.tgz:49277.got - 2010.06.03 18:47:42.
