data_PCOD9303856
_publ_section_title
;
Structure prediction by ZEFSAII (Michael W. Deem and Ramdas Pophale) SiO2 
 PCOD9303856
Probable space group: C 2/C
;
_chemical_formula_sum "Si O2"
_cell_formula_units_Z 56
_cell_length_a 12.186461
_cell_length_b 7.888225
_cell_length_c 22.610380
_cell_angle_alpha 90.000000
_cell_angle_beta 83.727862
_cell_angle_gamma 90.000000
_cell_volume 2160.515282
_symmetry_space_group_name_H-M "C 2/C"
_symmetry_group_IT_number 15
_symmetry_cell_setting 'monoclinic'
loop_
_space_group_symop_operation_xyz
x,y,z
-x,y,1/2-z
-x,-y,-z
x,-y,1/2+z
1/2+x,1/2+y,z
1/2-x,1/2+y,1/2-z
1/2-x,1/2-y,-z
1/2+x,1/2-y,1/2+z
loop_
_atom_site_type_symbol
_atom_site_label
_atom_site_fract_x
_atom_site_fract_y
_atom_site_fract_z
Si Si1 0.504842 0.801626 0.452272
Si Si2 0.275925 0.767233 0.223982
Si Si3 0.329269 0.869734 0.663063
Si Si4 0.156802 0.852146 0.441611
Si Si5 0.849270 0.605133 0.463569
Si Si6 0.537274 0.427616 0.846172
Si Si7 0.420739 0.750463 0.841557
O O1 0.429483 0.696868 0.502581
O O2 0.627194 0.806776 0.474653
O O3 0.493811 0.724618 0.388409
O O4 0.458131 0.989317 0.449324
O O5 0.241709 0.764858 0.294159
O O6 0.379878 0.648038 0.205983
O O7 0.168317 0.684597 0.199319
O O8 0.298410 0.944340 0.188985
O O9 0.307570 0.818409 0.595902
O O10 0.460376 0.841273 0.667010
O O11 0.252532 0.969050 0.462539
O O12 0.099470 0.961495 0.393248
O O13 0.862649 0.733946 0.408808
O O14 0.447685 0.554899 0.826280
#
# Coordination Sequence:
#
# PCOD9303856 Si02
#       7
#     8   8   8   8   8   8   8
#     4  11  24  41  65  98 140 179 230 282 331 411
#     4  12  26  47  72 101 135 181 226 291 346 413
#     4  11  25  47  72 100 138 174 234 285 345 414
#     4  11  23  43  64  98 138 177 225 283 339 407
#     4  11  23  40  66  94 138 180 222 273 349 393
#     4  11  24  42  68 100 137 175 237 279 337 411
#     4  11  24  46  70 102 139 180 226 286 345 409
#
# _framework density 25.919741999999999
#
# number of rings (size 3 to 8) (size 9 to 14) (size 15 to 20)
#    0.000    0.857    4.286    3.857    4.000    1.714 
#    0.000    0.000    0.000    0.000    0.000    0.000 
#    0.000    0.000    0.000    0.000    0.000    0.000 
#
# Total GULP energy -156832.207529 kJ/mol
# GULP energy per Si atom -5601.150269 kJ/mol
# Density = 2.586075 g / cm^3
# Si number density = 25.919742 Si / 1000 Ang^3
#
#
#
# Elastic Constant Matrix: (Units=GPa)
#
#
# Indices 1 2 3 4 5 6 
#
# 1 104.1254 33.5933 50.6934 0.0000 -13.1007 0.0000
# 2 33.5933 97.6591 24.5709 0.0000 -19.7692 0.0000
# 3 50.6934 24.5709 86.3580 0.0000 -39.4210 0.0000
# 4 0.0000 0.0000 0.0000 45.2086 0.0000 -11.7571
# 5 -13.1007 -19.7692 -39.4210 0.0000 34.2316 0.0000
# 6 0.0000 0.0000 0.0000 -11.7571 0.0000 48.1010
#
#
#
# Elastic Compliance Matrix: (Units=1/GPa)
#
#
# Indices 1 2 3 4 5 6 
#
# 1 0.016336 -0.004637 -0.013996 0.000000 -0.012544 0.000000
# 2 -0.004637 0.012922 0.003462 0.000000 0.009674 0.000000
# 3 -0.013996 0.003462 0.036427 0.000000 0.038592 0.000000
# 4 0.000000 0.000000 0.000000 0.023621 0.000000 0.005774
# 5 -0.012544 0.009674 0.038592 0.000000 0.074442 0.000000
# 6 0.000000 0.000000 0.000000 0.005774 0.000000 0.022201
#
#
# Mechanical properties :
#
#
# Convention : Reuss Voigt Hill
#
# Bulk Modulus (GPa) = 28.29464 56.20643 42.25053
# Shear Modulus (GPa) = 21.92281 37.46056 29.69169
#
# Velocity S-wave (km/s) = 2.91141 3.80577 3.38823
# Velocity P-wave (km/s) = 4.71611 6.40654 5.62519
#
# Compressibility (1/GPa) = 0.03534238
#
# Stress axis : x y z
#
# Youngs Moduli (GPa) = 61.21635 77.38579 27.45186
#
# Poissons Ratio (x) = 0.35885 0.38421
# Poissons Ratio (y) = 0.28387 -0.09503
# Poissons Ratio (z) = 0.85678 -0.26788
#
# Static dielectric constant tensor:
#      x y z
#    x 2.037140 0.000000 0.027560 
#    y 0.000000 2.096280 0.000000 
#    z 0.027560 0.000000 2.059110 
# 
# From -- ./inp_files/272638.got.cif
#   From: 2010.05.17/outbox.cif.g08.bks.cpg/sg15_137_cif.got.tgz:272638.got - 2010.06.03 18:47:42.
