data_PCOD9303831
_publ_section_title
;
Structure prediction by ZEFSAII (Michael W. Deem and Ramdas Pophale) SiO2 
 PCOD9303831
Probable space group: C 2/C
;
_chemical_formula_sum "Si O2"
_cell_formula_units_Z 40
_cell_length_a 9.475082
_cell_length_b 26.841734
_cell_length_c 16.034776
_cell_angle_alpha 90.000000
_cell_angle_beta 151.919880
_cell_angle_gamma 90.000000
_cell_volume 1919.578929
_symmetry_space_group_name_H-M "C 2/C"
_symmetry_group_IT_number 15
_symmetry_cell_setting 'monoclinic'
loop_
_space_group_symop_operation_xyz
x,y,z
-x,y,1/2-z
-x,-y,-z
x,-y,1/2+z
1/2+x,1/2+y,z
1/2-x,1/2+y,1/2-z
1/2-x,1/2-y,-z
1/2+x,1/2-y,1/2+z
loop_
_atom_site_type_symbol
_atom_site_label
_atom_site_fract_x
_atom_site_fract_y
_atom_site_fract_z
Si Si1 0.610378 0.711668 0.223378
Si Si2 0.336364 0.397116 0.251475
Si Si3 0.141986 0.945208 0.570800
Si Si4 0.803255 0.286597 0.374697
Si Si5 0.358947 0.398972 0.588871
O O1 0.500000 0.737881 0.250000
O O2 0.575701 0.747539 0.128375
O O3 0.421155 0.660770 0.117327
O O4 0.958861 0.700556 0.428543
O O5 0.500000 0.413509 0.250000
O O6 0.521531 0.415364 0.427438
O O7 0.302480 0.337407 0.224875
O O8 0.991062 0.412973 0.087251
O O9 0.500000 0.947569 0.750000
O O10 0.026410 0.920057 0.595772
O O11 0.000000 0.000000 0.500000
O O12 0.500000 0.262491 0.250000
O O13 0.500000 0.415941 0.750000
#
# Coordination Sequence:
#
# PCOD9303831 Si02
#       5
#     8   8   8   8   8
#     4  11  23  40  62  99 136 185 230 279 340 402
#     4  11  24  45  70 101 141 184 231 287 345 411
#     4  12  28  48  76 107 135 176 232 286 357 419
#     4  11  24  40  64  96 139 182 237 278 341 403
#     4  11  23  45  70 100 145 181 231 284 346 411
#
# _framework density 20.837904999999999
#
# number of rings (size 3 to 8) (size 9 to 14) (size 15 to 20)
#    0.000    0.800    4.000    4.200    5.600    1.600 
#    0.000    4.000    0.000    0.000    0.000    0.000 
#    0.000    0.000    0.000    0.000    0.000    0.000 
#
# Total GULP energy -111701.070858 kJ/mol
# GULP energy per Si atom -5585.053543 kJ/mol
# Density = 2.079048 g / cm^3
# Si number density = 20.837905 Si / 1000 Ang^3
#
#
#
# Elastic Constant Matrix: (Units=GPa)
#
#
# Indices 1 2 3 4 5 6 
#
# 1 193.0343 41.9881 84.2655 0.0000 8.2157 0.0000
# 2 41.9881 59.1739 49.2163 0.0000 -15.5701 0.0000
# 3 84.2655 49.2163 190.3614 0.0000 13.5955 0.0000
# 4 0.0000 0.0000 0.0000 31.1756 0.0000 2.8053
# 5 8.2157 -15.5701 13.5955 0.0000 48.1304 0.0000
# 6 0.0000 0.0000 0.0000 2.8053 0.0000 16.6186
#
#
#
# Elastic Compliance Matrix: (Units=1/GPa)
#
#
# Indices 1 2 3 4 5 6 
#
# 1 0.006938 -0.003778 -0.001962 0.000000 -0.001852 0.000000
# 2 -0.003778 0.027880 -0.006354 0.000000 0.011459 0.000000
# 3 -0.001962 -0.006354 0.008050 0.000000 -0.003994 0.000000
# 4 0.000000 0.000000 0.000000 0.032571 0.000000 -0.005498
# 5 -0.001852 0.011459 -0.003994 0.000000 0.025928 0.000000
# 6 0.000000 0.000000 0.000000 -0.005498 0.000000 0.061101
#
#
# Mechanical properties :
#
#
# Convention : Reuss Voigt Hill
#
# Bulk Modulus (GPa) = 53.53605 88.16770 70.85188
# Shear Modulus (GPa) = 25.92240 36.99158 31.45699
#
# Velocity S-wave (km/s) = 3.53087 4.21789 3.88958
# Velocity P-wave (km/s) = 6.50924 8.13166 7.36526
#
# Compressibility (1/GPa) = 0.01867900
#
# Stress axis : x y z
#
# Youngs Moduli (GPa) = 144.14396 35.86752 124.22896
#
# Poissons Ratio (x) = 0.13552 0.24371
# Poissons Ratio (y) = 0.54463 0.78936
# Poissons Ratio (z) = 0.28278 0.22791
#
# Static dielectric constant tensor:
#      x y z
#    x 1.746190 0.000000 0.055040 
#    y 0.000000 1.742020 0.000000 
#    z 0.055040 0.000000 1.800520 
# 
# From -- ./inp_files/44964.got.cif
#   From: 2010.05.17/outbox.cif.g08.bks.cpg/sg15_23_cif.got.tgz:44964.got - 2010.06.03 18:47:42.
