data_PCOD9303294
_publ_section_title
;
Structure prediction by ZEFSAII (Michael W. Deem and Ramdas Pophale) SiO2 
 PCOD9303294
Probable space group: C 2/C
;
_chemical_formula_sum "Si O2"
_cell_formula_units_Z 52
_cell_length_a 15.774836
_cell_length_b 13.146183
_cell_length_c 17.590582
_cell_angle_alpha 90.000000
_cell_angle_beta 31.602691
_cell_angle_gamma 90.000000
_cell_volume 1911.602081
_symmetry_space_group_name_H-M "C 2/C"
_symmetry_group_IT_number 15
_symmetry_cell_setting 'monoclinic'
loop_
_space_group_symop_operation_xyz
x,y,z
-x,y,1/2-z
-x,-y,-z
x,-y,1/2+z
1/2+x,1/2+y,z
1/2-x,1/2+y,1/2-z
1/2-x,1/2-y,-z
1/2+x,1/2-y,1/2+z
loop_
_atom_site_type_symbol
_atom_site_label
_atom_site_fract_x
_atom_site_fract_y
_atom_site_fract_z
Si Si1 0.170222 0.115524 0.829039
Si Si2 0.625157 0.628093 0.540789
Si Si3 0.981601 0.756181 0.592728
Si Si4 0.882313 0.532293 0.251772
Si Si5 0.000000 0.159255 0.250000
Si Si6 0.663340 0.934483 0.973817
Si Si7 0.339395 0.153092 0.515831
O O1 0.303864 0.205451 0.717784
O O2 0.264671 0.012057 0.777087
O O3 0.053943 0.100374 0.845840
O O4 0.052356 0.149424 0.989725
O O5 0.758460 0.547636 0.413453
O O6 0.653178 0.730132 0.468989
O O7 0.681486 0.649502 0.582767
O O8 0.003130 0.781440 0.666507
O O9 0.098881 0.662443 0.478417
O O10 0.025145 0.449269 0.144076
O O11 0.987711 0.634563 0.159884
O O12 0.160773 0.091496 0.131121
O O13 0.655902 0.046714 0.942508
#
# Coordination Sequence:
#
# PCOD9303294 Si02
#       7
#     8   8   8   8   4   8   8
#     4  11  25  43  72 104 143 182 233 286 362 407
#     4  11  22  43  68  97 134 189 236 285 334 426
#     4  11  24  42  68 104 143 185 227 291 349 420
#     4   9  22  44  67  97 136 180 237 285 346 411
#     4  12  22  40  68 104 142 184 238 282 356 416
#     4   9  22  41  64 101 134 176 226 288 339 409
#     4   9  23  43  67  99 135 183 237 283 340 408
#
# _framework density 27.202314000000001
#
# number of rings (size 3 to 8) (size 9 to 14) (size 15 to 20)
#    0.923    0.923    1.538    1.385    4.308    1.231 
#    5.538    0.769    3.385    0.000    0.000    0.000 
#    0.000    0.000    0.000    0.000    0.000    0.000 
#
# Total GULP energy -145094.891504 kJ/mol
# GULP energy per Si atom -5580.572750 kJ/mol
# Density = 2.714040 g / cm^3
# Si number density = 27.202314 Si / 1000 Ang^3
#
#
#
# Elastic Constant Matrix: (Units=GPa)
#
#
# Indices 1 2 3 4 5 6 
#
# 1 123.7776 19.2229 48.5176 -0.0006 -24.6181 0.0003
# 2 19.2229 81.5438 19.8177 -0.0008 -11.1931 0.0004
# 3 48.5176 19.8177 142.2178 -0.0014 -37.0218 0.0010
# 4 -0.0006 -0.0008 -0.0014 37.2025 0.0003 -17.5388
# 5 -24.6181 -11.1931 -37.0218 0.0003 60.0332 -0.0002
# 6 0.0003 0.0004 0.0010 -17.5388 -0.0002 36.1932
#
#
#
# Elastic Compliance Matrix: (Units=1/GPa)
#
#
# Indices 1 2 3 4 5 6 
#
# 1 0.009726 -0.001374 -0.002567 0.000000 0.002149 0.000000
# 2 -0.001374 0.013005 -0.001023 0.000000 0.001230 0.000000
# 3 -0.002567 -0.001023 0.009204 0.000000 0.004432 0.000000
# 4 0.000000 0.000000 0.000000 0.034839 0.000000 0.016883
# 5 0.002149 0.001230 0.004432 0.000000 0.020501 0.000000
# 6 0.000000 0.000000 0.000000 0.016883 0.000000 0.035811
#
#
# Mechanical properties :
#
#
# Convention : Reuss Voigt Hill
#
# Bulk Modulus (GPa) = 45.44223 58.07286 51.75754
# Shear Modulus (GPa) = 35.62541 44.01786 39.82163
#
# Velocity S-wave (km/s) = 3.62283 4.02701 3.83025
# Velocity P-wave (km/s) = 5.85162 6.55875 6.21525
#
# Compressibility (1/GPa) = 0.02200596
#
# Stress axis : x y z
#
# Youngs Moduli (GPa) = 102.81647 76.89484 108.65278
#
# Poissons Ratio (x) = 0.10565 0.27893
# Poissons Ratio (y) = 0.14126 0.11117
# Poissons Ratio (z) = 0.26394 0.07868
#
# Static dielectric constant tensor:
#      x y z
#    x 2.186150 0.000000 0.098320 
#    y 0.000000 2.064850 0.000000 
#    z 0.098320 0.000000 2.178400 
# 
# From -- ./inp_files/249099.got.cif
#   From: 2010.05.17/outbox.cif.g08.bks.cpg/sg15_125_cif.got.tgz:249099.got - 2010.06.03 18:47:42.
