data_PCOD9303663
_publ_section_title
;
Structure prediction by ZEFSAII (Michael W. Deem and Ramdas Pophale) SiO2 
 PCOD9303663
Probable space group: C 2/C
;
_chemical_formula_sum "Si O2"
_cell_formula_units_Z 48
_cell_length_a 17.468046
_cell_length_b 15.662388
_cell_length_c 13.512314
_cell_angle_alpha 90.000000
_cell_angle_beta 147.741634
_cell_angle_gamma 90.000000
_cell_volume 1973.150250
_symmetry_space_group_name_H-M "C 2/C"
_symmetry_group_IT_number 15
_symmetry_cell_setting 'monoclinic'
loop_
_space_group_symop_operation_xyz
x,y,z
-x,y,1/2-z
-x,-y,-z
x,-y,1/2+z
1/2+x,1/2+y,z
1/2-x,1/2+y,1/2-z
1/2-x,1/2-y,-z
1/2+x,1/2-y,1/2+z
loop_
_atom_site_type_symbol
_atom_site_label
_atom_site_fract_x
_atom_site_fract_y
_atom_site_fract_z
Si Si1 0.933054 0.291879 0.779163
Si Si2 0.835509 0.003215 0.347817
Si Si3 0.870775 0.230386 0.051526
Si Si4 0.733358 0.176176 0.695361
Si Si5 0.609722 0.917644 0.485682
Si Si6 0.833806 0.514548 0.155029
O O1 0.819604 0.231115 0.708458
O O2 0.867873 0.385190 0.681757
O O3 0.000000 0.256692 0.750000
O O4 0.066521 0.304132 0.999606
O O5 0.761209 0.923777 0.211566
O O6 0.741101 0.082536 0.205868
O O7 0.806167 0.001184 0.432361
O O8 0.000000 0.000000 0.500000
O O9 0.000000 0.183082 0.250000
O O10 0.750000 0.250000 0.000000
O O11 0.798617 0.191431 0.875550
O O12 0.932603 0.320990 0.081838
O O13 0.468528 0.970913 0.359636
O O14 0.665701 0.962555 0.446235
#
# Coordination Sequence:
#
# PCOD9303663 Si02
#       6
#     8   8   8   8   8   8
#     4  12  25  48  74 106 142 188 242 298 363 429
#     4  12  28  44  67 104 145 186 235 297 357 421
#     4  12  26  44  71 105 144 184 231 292 357 428
#     4  12  28  44  70 107 146 188 233 293 365 428
#     4  11  23  47  75 101 127 190 243 287 352 417
#     4  11  22  47  77  97 133 185 251 290 341 430
#
# _framework density 24.326581000000001
#
# number of rings (size 3 to 8) (size 9 to 14) (size 15 to 20)
#    0.000    0.333    5.000    4.000    9.333    0.667 
#    0.000    0.000    0.000    0.000    0.000    0.000 
#    0.000    0.000    0.000    0.000    0.000    0.000 
#
# Total GULP energy -134477.338637 kJ/mol
# GULP energy per Si atom -5603.222443 kJ/mol
# Density = 2.427121 g / cm^3
# Si number density = 24.326581 Si / 1000 Ang^3
#
#
#
# Elastic Constant Matrix: (Units=GPa)
#
#
# Indices 1 2 3 4 5 6 
#
# 1 131.4553 1.0681 17.0190 0.0000 10.5261 0.0000
# 2 1.0681 55.4368 -8.5044 0.0000 -4.9896 0.0000
# 3 17.0190 -8.5044 93.8344 0.0000 -5.9954 0.0000
# 4 0.0000 0.0000 0.0000 33.5906 0.0000 -2.3795
# 5 10.5261 -4.9896 -5.9954 0.0000 54.0943 0.0000
# 6 0.0000 0.0000 0.0000 -2.3795 0.0000 27.7697
#
#
#
# Elastic Compliance Matrix: (Units=1/GPa)
#
#
# Indices 1 2 3 4 5 6 
#
# 1 0.007962 -0.000560 -0.001609 0.000000 -0.001779 0.000000
# 2 -0.000560 0.018525 0.001910 0.000000 0.002029 0.000000
# 3 -0.001609 0.001910 0.011233 0.000000 0.001734 0.000000
# 4 0.000000 0.000000 0.000000 0.029952 0.000000 0.002567
# 5 -0.001779 0.002029 0.001734 0.000000 0.019212 0.000000
# 6 0.000000 0.000000 0.000000 0.002567 0.000000 0.036230
#
#
# Mechanical properties :
#
#
# Convention : Reuss Voigt Hill
#
# Bulk Modulus (GPa) = 26.87968 33.32133 30.10051
# Shear Modulus (GPa) = 36.75580 41.16718 38.96149
#
# Velocity S-wave (km/s) = 3.89129 4.11819 4.00634
# Velocity P-wave (km/s) = 5.59133 6.02825 5.81390
#
# Compressibility (1/GPa) = 0.03720282
#
# Stress axis : x y z
#
# Youngs Moduli (GPa) = 125.58949 53.98092 89.02524
#
# Poissons Ratio (x) = 0.03025 0.14321
# Poissons Ratio (y) = 0.07037 -0.17006
# Poissons Ratio (z) = 0.20203 -0.10312
#
# Static dielectric constant tensor:
#      x y z
#    x 1.938330 0.000000 -0.043600 
#    y 0.000000 1.963350 0.000000 
#    z -0.043600 0.000000 1.945380 
# 
# From -- ./inp_files/163309.got.cif
#   From: 2010.05.17/outbox.cif.g08.bks.cpg/sg15_82_cif.got.tgz:163309.got - 2010.06.03 18:47:42.
