data_PCOD9303735
_publ_section_title
;
Structure prediction by ZEFSAII (Michael W. Deem and Ramdas Pophale) SiO2 
 PCOD9303735
Probable space group: C 2/C
;
_chemical_formula_sum "Si O2"
_cell_formula_units_Z 32
_cell_length_a 18.619997
_cell_length_b 10.178612
_cell_length_c 9.555925
_cell_angle_alpha 90.000000
_cell_angle_beta 49.090143
_cell_angle_gamma 90.000000
_cell_volume 1368.717369
_symmetry_space_group_name_H-M "C 2/C"
_symmetry_group_IT_number 15
_symmetry_cell_setting 'monoclinic'
loop_
_space_group_symop_operation_xyz
x,y,z
-x,y,1/2-z
-x,-y,-z
x,-y,1/2+z
1/2+x,1/2+y,z
1/2-x,1/2+y,1/2-z
1/2-x,1/2-y,-z
1/2+x,1/2-y,1/2+z
loop_
_atom_site_type_symbol
_atom_site_label
_atom_site_fract_x
_atom_site_fract_y
_atom_site_fract_z
Si Si1 0.292075 0.562882 0.933404
Si Si2 0.412129 0.013625 0.757942
Si Si3 0.892999 0.794022 0.831414
Si Si4 0.179553 0.310778 0.792021
O O1 0.353892 0.433885 0.836433
O O2 0.328611 0.684694 0.798425
O O3 0.183002 0.529014 0.034227
O O4 0.273806 0.612096 0.117610
O O5 0.500000 0.003071 0.750000
O O6 0.405836 0.910961 0.638663
O O7 0.396004 0.164342 0.731310
O O8 0.000000 0.812213 0.750000
O O9 0.828366 0.744546 0.043703
#
# Coordination Sequence:
#
# PCOD9303735 Si02
#       4
#     8   8   8   8
#     4   9  21  41  60  91 125 161 208 248 308 365
#     4   9  20  39  62  89 123 159 208 248 304 367
#     4  11  23  38  62  94 128 159 204 254 310 365
#     4   9  22  40  60  91 122 164 206 246 313 358
#
# _framework density 23.379553999999999
#
# number of rings (size 3 to 8) (size 9 to 14) (size 15 to 20)
#    1.500    1.000    0.000    0.750    3.500    6.000 
#    0.000    2.500    0.000    0.000    0.000    0.000 
#    0.000    0.000    0.000    0.000    0.000    0.000 
#
# Total GULP energy -89284.333890 kJ/mol
# GULP energy per Si atom -5580.270868 kJ/mol
# Density = 2.332634 g / cm^3
# Si number density = 23.379554 Si / 1000 Ang^3
#
#
#
# Elastic Constant Matrix: (Units=GPa)
#
#
# Indices 1 2 3 4 5 6 
#
# 1 55.6808 49.9389 5.8856 0.0000 -13.6764 0.0000
# 2 49.9389 205.5700 27.6069 0.0000 -7.8512 0.0000
# 3 5.8856 27.6069 63.3500 0.0000 4.7648 0.0000
# 4 0.0000 0.0000 0.0000 20.6903 0.0000 -7.7143
# 5 -13.6764 -7.8512 4.7648 0.0000 29.8594 0.0000
# 6 0.0000 0.0000 0.0000 -7.7143 0.0000 25.8260
#
#
#
# Elastic Compliance Matrix: (Units=1/GPa)
#
#
# Indices 1 2 3 4 5 6 
#
# 1 0.025757 -0.005772 -0.000659 0.000000 0.010385 0.000000
# 2 -0.005772 0.006551 -0.002277 0.000000 -0.000558 0.000000
# 3 -0.000659 -0.002277 0.017112 0.000000 -0.003631 0.000000
# 4 0.000000 0.000000 0.000000 0.054389 0.000000 0.016246
# 5 0.010385 -0.000558 -0.003631 0.000000 0.038679 0.000000
# 6 0.000000 0.000000 0.000000 0.016246 0.000000 0.043574
#
#
# Mechanical properties :
#
#
# Convention : Reuss Voigt Hill
#
# Bulk Modulus (GPa) = 31.24526 54.60707 42.92617
# Shear Modulus (GPa) = 23.34868 31.35308 27.35088
#
# Velocity S-wave (km/s) = 3.16362 3.66600 3.42404
# Velocity P-wave (km/s) = 5.17088 6.42860 5.83373
#
# Compressibility (1/GPa) = 0.03200485
#
# Stress axis : x y z
#
# Youngs Moduli (GPa) = 38.82500 152.64533 58.43941
#
# Poissons Ratio (x) = 0.88106 0.03849
# Poissons Ratio (y) = 0.22410 0.13305
# Poissons Ratio (z) = 0.02557 0.34752
#
# Static dielectric constant tensor:
#      x y z
#    x 1.940980 0.000000 0.008500 
#    y 0.000000 1.878300 0.000000 
#    z 0.008500 0.000000 1.976210 
# 
# From -- ./inp_files/102381.got.cif
#   From: 2010.05.17/outbox.cif.g08.bks.cpg/sg15_52_cif.got.tgz:102381.got - 2010.06.03 18:47:42.
