data_PCOD9303576
_publ_section_title
;
Structure prediction by ZEFSAII (Michael W. Deem and Ramdas Pophale) SiO2 
 PCOD9303576
Probable space group: C 2/C
;
_chemical_formula_sum "Si O2"
_cell_formula_units_Z 48
_cell_length_a 15.287702
_cell_length_b 11.868480
_cell_length_c 29.442387
_cell_angle_alpha 90.000000
_cell_angle_beta 152.120353
_cell_angle_gamma 90.000000
_cell_volume 2498.040923
_symmetry_space_group_name_H-M "C 2/C"
_symmetry_group_IT_number 15
_symmetry_cell_setting 'monoclinic'
loop_
_space_group_symop_operation_xyz
x,y,z
-x,y,1/2-z
-x,-y,-z
x,-y,1/2+z
1/2+x,1/2+y,z
1/2-x,1/2+y,1/2-z
1/2-x,1/2-y,-z
1/2+x,1/2-y,1/2+z
loop_
_atom_site_type_symbol
_atom_site_label
_atom_site_fract_x
_atom_site_fract_y
_atom_site_fract_z
Si Si1 0.654499 0.989818 0.533399
Si Si2 0.601403 0.233831 0.471448
Si Si3 0.667649 0.221175 0.761170
Si Si4 0.623379 0.608957 0.068981
Si Si5 0.500000 0.030990 0.750000
Si Si6 0.500000 0.590038 0.250000
Si Si7 0.549295 0.765502 0.431388
O O1 0.591410 0.880003 0.477252
O O2 0.853952 0.976514 0.650762
O O3 0.500000 0.000000 0.500000
O O4 0.625819 0.101488 0.491390
O O5 0.750000 0.250000 0.500000
O O6 0.392569 0.276831 0.363426
O O7 0.639197 0.301526 0.535377
O O8 0.562559 0.116189 0.737857
O O9 0.611766 0.328562 0.766626
O O10 0.593914 0.228046 0.676134
O O11 0.825165 0.552645 0.166831
O O12 0.527031 0.672579 0.067700
O O13 0.500000 0.500000 0.000000
O O14 0.750000 0.750000 0.500000
#
# Coordination Sequence:
#
# PCOD9303576 Si02
#       7
#     8   8   8   8   4   4   8
#     4  12  25  47  73 105 146 188 239 299 358 428
#     4  12  29  48  71 107 153 188 238 306 362 424
#     4  11  24  46  73 104 139 194 243 287 365 436
#     4  12  26  48  70 105 146 188 242 299 358 430
#     4  11  26  45  78 100 148 193 241 302 360 430
#     4  11  22  45  76 100 140 191 237 292 356 432
#     4  12  26  44  76 108 141 191 244 291 360 438
#
# _framework density 19.215057000000002
#
# number of rings (size 3 to 8) (size 9 to 14) (size 15 to 20)
#    0.000    0.333    6.667    1.000    7.000    2.000 
#    0.000    0.000    0.000    0.000    0.000    0.000 
#    0.000    0.000    0.000    0.000    0.000    0.000 
#
# Total GULP energy -133846.020177 kJ/mol
# GULP energy per Si atom -5576.917507 kJ/mol
# Density = 1.917132 g / cm^3
# Si number density = 19.215057 Si / 1000 Ang^3
#
#
#
# Elastic Constant Matrix: (Units=GPa)
#
#
# Indices 1 2 3 4 5 6 
#
# 1 193.2097 81.5139 74.4649 0.0000 8.7592 0.0000
# 2 81.5139 141.4045 63.2049 0.0000 -1.8477 0.0000
# 3 74.4649 63.2049 124.7429 -0.0001 2.0863 0.0000
# 4 0.0000 0.0000 -0.0001 35.4275 0.0000 -1.6719
# 5 8.7592 -1.8477 2.0863 0.0000 40.4075 0.0000
# 6 0.0000 0.0000 0.0000 -1.6719 0.0000 33.8803
#
#
#
# Elastic Compliance Matrix: (Units=1/GPa)
#
#
# Indices 1 2 3 4 5 6 
#
# 1 0.007730 -0.003139 -0.002996 0.000000 -0.001664 0.000000
# 2 -0.003139 0.010434 -0.003436 0.000000 0.001335 0.000000
# 3 -0.002996 -0.003436 0.011548 0.000000 -0.000104 0.000000
# 4 0.000000 0.000000 0.000000 0.028293 0.000000 0.001396
# 5 -0.001664 0.001335 -0.000104 0.000000 0.025175 0.000000
# 6 0.000000 0.000000 0.000000 0.001396 0.000000 0.029585
#
#
# Mechanical properties :
#
#
# Convention : Reuss Voigt Hill
#
# Bulk Modulus (GPa) = 94.59893 99.74715 97.17304
# Shear Modulus (GPa) = 36.91969 37.95463 37.43716
#
# Velocity S-wave (km/s) = 4.38813 4.44921 4.41877
# Velocity P-wave (km/s) = 8.66099 8.85537 8.75872
#
# Compressibility (1/GPa) = 0.01057094
#
# Stress axis : x y z
#
# Youngs Moduli (GPa) = 129.36350 95.83836 86.59738
#
# Poissons Ratio (x) = 0.30079 0.25948
# Poissons Ratio (y) = 0.40601 0.29752
# Poissons Ratio (z) = 0.38763 0.32926
#
# Static dielectric constant tensor:
#      x y z
#    x 1.590140 0.000000 0.000380 
#    y 0.000000 1.656320 0.000000 
#    z 0.000380 0.000000 1.664650 
# 
# From -- ./inp_files/296233.got.cif
#   From: 2010.05.17/outbox.cif.g08.bks.cpg/sg15_149_cif.got.tgz:296233.got - 2010.06.03 18:47:42.
