data_PCOD9303914
_publ_section_title
;
Structure prediction by ZEFSAII (Michael W. Deem and Ramdas Pophale) SiO2 
 PCOD9303914
Probable space group: C 2/C
;
_chemical_formula_sum "Si O2"
_cell_formula_units_Z 56
_cell_length_a 17.601909
_cell_length_b 26.173113
_cell_length_c 8.191536
_cell_angle_alpha 90.000000
_cell_angle_beta 43.303119
_cell_angle_gamma 90.000000
_cell_volume 2588.300435
_symmetry_space_group_name_H-M "C 2/C"
_symmetry_group_IT_number 15
_symmetry_cell_setting 'monoclinic'
loop_
_space_group_symop_operation_xyz
x,y,z
-x,y,1/2-z
-x,-y,-z
x,-y,1/2+z
1/2+x,1/2+y,z
1/2-x,1/2+y,1/2-z
1/2-x,1/2-y,-z
1/2+x,1/2-y,1/2+z
loop_
_atom_site_type_symbol
_atom_site_label
_atom_site_fract_x
_atom_site_fract_y
_atom_site_fract_z
Si Si1 0.336866 0.849918 0.820689
Si Si2 0.210065 0.690398 0.759921
Si Si3 0.610927 0.039177 0.170337
Si Si4 0.872826 0.898285 0.503769
Si Si5 0.735177 0.510692 0.844507
Si Si6 0.380349 0.781133 0.444314
Si Si7 0.878446 0.109159 0.369225
O O1 0.399309 0.903736 0.745491
O O2 0.208491 0.864805 0.982223
O O3 0.379577 0.821708 0.592388
O O4 0.345430 0.818357 0.976536
O O5 0.284407 0.741292 0.638545
O O6 0.138608 0.694840 0.705688
O O7 0.290780 0.642583 0.604792
O O8 0.500000 0.025522 0.250000
O O9 0.648347 0.998798 0.246337
O O10 0.722711 0.037071 0.885967
O O11 0.869957 0.876897 0.692288
O O12 0.822362 0.955787 0.586680
O O13 0.000000 0.899581 0.250000
O O14 0.655415 0.549915 0.059232
O O15 0.500000 0.754577 0.250000
O O16 0.000000 0.116648 0.250000
#
# Coordination Sequence:
#
# PCOD9303914 Si02
#       7
#     8   8   8   8   8   8   8
#     4  11  24  45  69 102 134 178 228 282 333 411
#     4  11  24  47  69 101 142 172 229 281 343 408
#     4  11  24  41  65  96 134 180 229 273 337 400
#     4  11  24  41  63  98 134 174 225 274 335 402
#     4  11  23  41  61  94 134 173 223 278 328 398
#     4  11  26  45  72 102 136 179 225 286 345 407
#     4  12  23  39  68  95 134 180 219 281 342 400
#
# _framework density 21.635819999999999
#
# number of rings (size 3 to 8) (size 9 to 14) (size 15 to 20)
#    0.000    0.857    4.286    2.571    4.000    1.143 
#    0.000    2.143    0.000    0.000    0.000    0.000 
#    0.000    0.000    0.000    0.000    0.000    0.000 
#
# Total GULP energy -156466.177957 kJ/mol
# GULP energy per Si atom -5588.077784 kJ/mol
# Density = 2.158658 g / cm^3
# Si number density = 21.635820 Si / 1000 Ang^3
#
#
#
# Elastic Constant Matrix: (Units=GPa)
#
#
# Indices 1 2 3 4 5 6 
#
# 1 112.8956 14.2643 29.0309 0.0000 15.5672 0.0000
# 2 14.2643 43.5654 -6.3121 0.0000 7.7618 0.0000
# 3 29.0309 -6.3121 57.2707 0.0000 11.0376 0.0000
# 4 0.0000 0.0000 0.0000 -6.0690 0.0000 33.9215
# 5 15.5672 7.7618 11.0376 0.0000 46.4145 0.0000
# 6 0.0000 0.0000 0.0000 33.9215 0.0000 -1.0393
#
#
#
# Elastic Compliance Matrix: (Units=1/GPa)
#
#
# Indices 1 2 3 4 5 6 
#
# 1 0.011096 -0.004174 -0.005766 0.000000 -0.001652 0.000000
# 2 -0.004174 0.025931 0.005806 0.000000 -0.004317 0.000000
# 3 -0.005766 0.005806 0.021839 0.000000 -0.004230 0.000000
# 4 0.000000 0.000000 0.000000 0.000908 0.000000 0.029642
# 5 -0.001652 -0.004317 -0.004230 0.000000 0.023827 0.000000
# 6 0.000000 0.000000 0.000000 0.029642 0.000000 0.005303
#
#
# Mechanical properties :
#
#
# Convention : Reuss Voigt Hill
#
# Bulk Modulus (GPa) = 19.76396 31.96643 25.86519
# Shear Modulus (GPa) = 43.84477 19.64448 31.74463
#
# Velocity S-wave (km/s) = 4.50654 3.01651 3.83459
# Velocity P-wave (km/s) = 6.01940 5.19031 5.62016
#
# Compressibility (1/GPa) = 0.05059716
#
# Stress axis : x y z
#
# Youngs Moduli (GPa) = 90.12507 38.56385 45.78964
#
# Poissons Ratio (x) = 0.16097 0.26403
# Poissons Ratio (y) = 0.37619 -0.26585
# Poissons Ratio (z) = 0.51967 -0.22390
#
# Static dielectric constant tensor:
#      x y z
#    x 1.823700 0.000000 0.055740 
#    y 0.000000 1.775060 0.000000 
#    z 0.055740 0.000000 1.858070 
# 
# From -- ./inp_files/34321.got.cif
#   From: 2010.05.17/outbox.cif.g08.bks.cpg/sg15_18_cif.got.tgz:34321.got - 2010.06.03 18:47:42.
