data_PCOD9303085
_publ_section_title
;
Structure prediction by ZEFSAII (Michael W. Deem and Ramdas Pophale) SiO2 
 PCOD9303085
Probable space group: C 2/C
;
_chemical_formula_sum "Si O2"
_cell_formula_units_Z 36
_cell_length_a 24.032520
_cell_length_b 9.549981
_cell_length_c 15.411525
_cell_angle_alpha 90.000000
_cell_angle_beta 22.536506
_cell_angle_gamma 90.000000
_cell_volume 1355.671709
_symmetry_space_group_name_H-M "C 2/C"
_symmetry_group_IT_number 15
_symmetry_cell_setting 'monoclinic'
loop_
_space_group_symop_operation_xyz
x,y,z
-x,y,1/2-z
-x,-y,-z
x,-y,1/2+z
1/2+x,1/2+y,z
1/2-x,1/2+y,1/2-z
1/2-x,1/2-y,-z
1/2+x,1/2-y,1/2+z
loop_
_atom_site_type_symbol
_atom_site_label
_atom_site_fract_x
_atom_site_fract_y
_atom_site_fract_z
Si Si1 0.220597 0.020030 0.020416
Si Si2 0.472694 0.196452 0.686472
Si Si3 0.500000 0.306699 0.250000
Si Si4 0.280121 0.200730 0.705770
Si Si5 0.836019 0.037112 0.215606
O O1 0.118521 0.158880 0.171755
O O2 0.241252 0.972281 0.089989
O O3 0.128112 0.905007 0.104230
O O4 0.380092 0.077636 0.770724
O O5 0.500000 0.157806 0.750000
O O6 0.619402 0.231577 0.423361
O O7 0.415498 0.224624 0.447041
O O8 0.322594 0.296769 0.726197
O O9 0.232299 0.038837 0.770046
O O10 0.000000 0.000000 0.000000
#
# Coordination Sequence:
#
# PCOD9303085 Si02
#       5
#     8   8   4   8   8
#     4  11  24  44  73 103 153 188 245 307 367 430
#     4  11  22  41  73 108 136 200 249 296 358 447
#     4  12  26  46  68 110 150 194 240 304 382 436
#     4  12  27  46  77 106 149 194 251 298 377 442
#     4  12  25  51  73 108 152 196 238 314 369 441
#
# _framework density 26.555101000000001
#
# number of rings (size 3 to 8) (size 9 to 14) (size 15 to 20)
#    0.000    0.444    7.778    0.000    0.000    3.556 
#    4.000    0.000    0.000    0.000    0.000    0.000 
#    0.000    0.000    0.000    0.000    0.000    0.000 
#
# Total GULP energy -100464.229209 kJ/mol
# GULP energy per Si atom -5581.346067 kJ/mol
# Density = 2.649466 g / cm^3
# Si number density = 26.555101 Si / 1000 Ang^3
#
#
#
# Elastic Constant Matrix: (Units=GPa)
#
#
# Indices 1 2 3 4 5 6 
#
# 1 68.6062 39.7324 -11.1824 0.0000 -9.6085 0.0000
# 2 39.7324 84.3860 12.2342 0.0000 -14.6646 0.0000
# 3 -11.1824 12.2342 151.5317 0.0000 6.2927 0.0000
# 4 0.0000 0.0000 0.0000 32.2247 0.0000 -8.8393
# 5 -9.6085 -14.6646 6.2927 0.0000 39.0305 0.0000
# 6 0.0000 0.0000 0.0000 -8.8393 0.0000 48.5293
#
#
#
# Elastic Compliance Matrix: (Units=1/GPa)
#
#
# Indices 1 2 3 4 5 6 
#
# 1 0.020878 -0.009988 0.002305 0.000000 0.001015 0.000000
# 2 -0.009988 0.017688 -0.002355 0.000000 0.004567 0.000000
# 3 0.002305 -0.002355 0.007020 0.000000 -0.001449 0.000000
# 4 0.000000 0.000000 0.000000 0.032664 0.000000 0.005950
# 5 0.001015 0.004567 -0.001449 0.000000 0.027820 0.000000
# 6 0.000000 0.000000 0.000000 0.005950 0.000000 0.021690
#
#
# Mechanical properties :
#
#
# Convention : Reuss Voigt Hill
#
# Bulk Modulus (GPa) = 39.19989 42.89913 41.04951
# Shear Modulus (GPa) = 31.98167 41.53953 36.76060
#
# Velocity S-wave (km/s) = 3.47414 3.95938 3.72467
# Velocity P-wave (km/s) = 5.55757 6.09033 5.83004
#
# Compressibility (1/GPa) = 0.02551028
#
# Stress axis : x y z
#
# Youngs Moduli (GPa) = 47.89658 56.53525 142.45679
#
# Poissons Ratio (x) = 0.56468 -0.32836
# Poissons Ratio (y) = 0.47839 0.33546
# Poissons Ratio (z) = -0.11040 0.13313
#
# Static dielectric constant tensor:
#      x y z
#    x 2.231530 0.000000 0.086900 
#    y 0.000000 2.060740 0.000000 
#    z 0.086900 0.000000 2.130050 
# 
# From -- ./inp_files/222405.got.cif
#   From: 2010.05.17/outbox.cif.g08.bks.cpg/sg15_112_cif.got.tgz:222405.got - 2010.06.03 18:47:42.
