data_PCOD9303713
_publ_section_title
;
Structure prediction by ZEFSAII (Michael W. Deem and Ramdas Pophale) SiO2 
 PCOD9303713
Probable space group: C 2/C
;
_chemical_formula_sum "Si O2"
_cell_formula_units_Z 48
_cell_length_a 9.247857
_cell_length_b 19.507574
_cell_length_c 12.114861
_cell_angle_alpha 90.000000
_cell_angle_beta 105.006805
_cell_angle_gamma 90.000000
_cell_volume 2111.021994
_symmetry_space_group_name_H-M "C 2/C"
_symmetry_group_IT_number 15
_symmetry_cell_setting 'monoclinic'
loop_
_space_group_symop_operation_xyz
x,y,z
-x,y,1/2-z
-x,-y,-z
x,-y,1/2+z
1/2+x,1/2+y,z
1/2-x,1/2+y,1/2-z
1/2-x,1/2-y,-z
1/2+x,1/2-y,1/2+z
loop_
_atom_site_type_symbol
_atom_site_label
_atom_site_fract_x
_atom_site_fract_y
_atom_site_fract_z
Si Si1 0.599334 0.406487 0.982014
Si Si2 0.662052 0.479968 0.312546
Si Si3 0.827846 0.205016 0.180011
Si Si4 0.237146 0.899585 0.654257
Si Si5 0.361712 0.859634 0.139559
Si Si6 0.429978 0.923785 0.485044
O O1 0.628775 0.473815 0.915537
O O2 0.664898 0.342472 0.925805
O O3 0.420465 0.395879 0.945861
O O4 0.713633 0.407760 0.107568
O O5 0.500000 0.451007 0.250000
O O6 0.717210 0.536537 0.234337
O O7 0.788153 0.427662 0.374913
O O8 0.744339 0.166411 0.262898
O O9 0.798459 0.284087 0.151665
O O10 0.000000 0.203854 0.250000
O O11 0.629504 0.907390 0.905346
O O12 0.500000 0.874714 0.250000
O O13 0.450153 0.871768 0.041498
O O14 0.500000 0.000000 0.500000
#
# Coordination Sequence:
#
# PCOD9303713 Si02
#       6
#     8   8   8   8   8   8
#     4   9  17  39  64  88 120 171 219 262 316 381
#     4   9  20  38  63  92 128 175 212 256 320 399
#     4   8  17  39  65  89 116 168 225 259 317 377
#     4   9  21  40  68  88 126 172 219 261 312 395
#     4  11  23  37  60  92 131 171 208 273 325 367
#     4  12  25  38  58 100 139 163 206 269 332 381
#
# _framework density 22.737801999999999
#
# number of rings (size 3 to 8) (size 9 to 14) (size 15 to 20)
#    0.000    2.333    1.667    2.500    2.333    4.000 
#    0.000    7.500    0.000    6.000    0.000    0.000 
#    0.000    0.000    0.000    0.000    0.000    0.000 
#
# Total GULP energy -134023.141540 kJ/mol
# GULP energy per Si atom -5584.297564 kJ/mol
# Density = 2.268605 g / cm^3
# Si number density = 22.737802 Si / 1000 Ang^3
#
#
#
# Elastic Constant Matrix: (Units=GPa)
#
#
# Indices 1 2 3 4 5 6 
#
# 1 130.3977 56.0644 16.3812 0.0000 -31.3392 0.0000
# 2 56.0644 80.0552 38.4020 0.0000 -12.1513 0.0000
# 3 16.3812 38.4020 65.0645 0.0000 5.2344 0.0000
# 4 0.0000 0.0000 0.0000 33.1073 0.0000 -3.7667
# 5 -31.3392 -12.1513 5.2344 0.0000 38.1363 0.0000
# 6 0.0000 0.0000 0.0000 -3.7667 0.0000 31.8022
#
#
#
# Elastic Compliance Matrix: (Units=1/GPa)
#
#
# Indices 1 2 3 4 5 6 
#
# 1 0.013075 -0.008473 0.001074 0.000000 0.007898 0.000000
# 2 -0.008473 0.025010 -0.012851 0.000000 0.002770 0.000000
# 3 0.001074 -0.012851 0.023198 0.000000 -0.006397 0.000000
# 4 0.000000 0.000000 0.000000 0.030617 0.000000 0.003626
# 5 0.007898 0.002770 -0.006397 0.000000 0.034472 0.000000
# 6 0.000000 0.000000 0.000000 0.003626 0.000000 0.031874
#
#
# Mechanical properties :
#
#
# Convention : Reuss Voigt Hill
#
# Bulk Modulus (GPa) = 48.11620 55.24583 51.68101
# Shear Modulus (GPa) = 24.31016 31.58714 27.94865
#
# Velocity S-wave (km/s) = 3.27334 3.73123 3.50976
# Velocity P-wave (km/s) = 5.95765 6.55076 6.26123
#
# Compressibility (1/GPa) = 0.02078302
#
# Stress axis : x y z
#
# Youngs Moduli (GPa) = 76.48199 39.98378 43.10633
#
# Poissons Ratio (x) = 0.33878 -0.04628
# Poissons Ratio (y) = 0.64803 0.55396
# Poissons Ratio (z) = -0.08211 0.51383
#
# Static dielectric constant tensor:
#      x y z
#    x 1.832500 0.000000 -0.005960 
#    y 0.000000 1.860640 0.000000 
#    z -0.005960 0.000000 2.066470 
# 
# From -- ./inp_files/200040.got.cif
#   From: 2010.05.17/outbox.cif.g08.bks.cpg/sg15_101_cif.got.tgz:200040.got - 2010.06.03 18:47:42.
