data_PCOD9303232
_publ_section_title
;
Structure prediction by ZEFSAII (Michael W. Deem and Ramdas Pophale) SiO2 
 PCOD9303232
Probable space group: C 2/C
;
_chemical_formula_sum "Si O2"
_cell_formula_units_Z 40
_cell_length_a 18.339577
_cell_length_b 10.541345
_cell_length_c 16.938708
_cell_angle_alpha 90.000000
_cell_angle_beta 147.951203
_cell_angle_gamma 90.000000
_cell_volume 1737.667563
_symmetry_space_group_name_H-M "C 2/C"
_symmetry_group_IT_number 15
_symmetry_cell_setting 'monoclinic'
loop_
_space_group_symop_operation_xyz
x,y,z
-x,y,1/2-z
-x,-y,-z
x,-y,1/2+z
1/2+x,1/2+y,z
1/2-x,1/2+y,1/2-z
1/2-x,1/2-y,-z
1/2+x,1/2-y,1/2+z
loop_
_atom_site_type_symbol
_atom_site_label
_atom_site_fract_x
_atom_site_fract_y
_atom_site_fract_z
Si Si1 0.285448 0.444866 0.865753
Si Si2 0.497725 0.129548 0.450595
Si Si3 0.093645 0.841571 0.663053
Si Si4 0.611363 0.255441 0.419273
Si Si5 0.294916 0.700721 0.954893
O O1 0.231542 0.570282 0.860426
O O2 0.156343 0.355375 0.725170
O O3 0.383510 0.375934 0.018267
O O4 0.363042 0.461142 0.852818
O O5 0.552940 0.235832 0.560557
O O6 0.590279 0.136037 0.457414
O O7 0.500000 0.000000 0.500000
O O8 0.957749 0.831772 0.593741
O O9 0.229233 0.805190 0.836372
O O10 0.500000 0.264429 0.250000
O O11 0.750000 0.250000 0.500000
O O12 0.250000 0.750000 0.000000
#
# Coordination Sequence:
#
# PCOD9303232 Si02
#       5
#     8   8   8   8   8
#     4  11  24  45  72 102 139 193 239 293 358 426
#     4  11  22  42  73 101 134 190 237 288 350 426
#     4  11  24  45  70 101 142 185 245 284 352 440
#     4  11  24  44  69 103 144 180 240 296 354 422
#     4  12  26  45  69 105 146 184 236 302 362 427
#
# _framework density 23.019362999999998
#
# number of rings (size 3 to 8) (size 9 to 14) (size 15 to 20)
#    0.000    0.800    6.000    1.200    0.000    3.200 
#    7.200    0.000    0.000    0.000    0.000    0.000 
#    0.000    0.000    0.000    0.000    0.000    0.000 
#
# Total GULP energy -111561.767787 kJ/mol
# GULP energy per Si atom -5578.088389 kJ/mol
# Density = 2.296697 g / cm^3
# Si number density = 23.019363 Si / 1000 Ang^3
#
#
#
# Elastic Constant Matrix: (Units=GPa)
#
#
# Indices 1 2 3 4 5 6 
#
# 1 205.4509 47.7551 49.0103 0.0000 -4.0461 0.0000
# 2 47.7551 52.1703 12.9648 0.0000 -20.0598 0.0000
# 3 49.0103 12.9648 97.2472 0.0000 -8.0603 0.0000
# 4 0.0000 0.0000 0.0000 32.0784 0.0000 -6.1778
# 5 -4.0461 -20.0598 -8.0603 0.0000 51.3639 0.0000
# 6 0.0000 0.0000 0.0000 -6.1778 0.0000 43.8415
#
#
#
# Elastic Compliance Matrix: (Units=1/GPa)
#
#
# Indices 1 2 3 4 5 6 
#
# 1 0.007066 -0.006723 -0.002874 0.000000 -0.002520 0.000000
# 2 -0.006723 0.029474 0.000374 0.000000 0.011040 0.000000
# 3 -0.002874 0.000374 0.011829 0.000000 0.001776 0.000000
# 4 0.000000 0.000000 0.000000 0.032043 0.000000 0.004515
# 5 -0.002520 0.011040 0.001776 0.000000 0.023861 0.000000
# 6 0.000000 0.000000 0.000000 0.004515 0.000000 0.023446
#
#
# Mechanical properties :
#
#
# Convention : Reuss Voigt Hill
#
# Bulk Modulus (GPa) = 33.41894 63.81431 48.61663
# Shear Modulus (GPa) = 32.02311 41.79931 36.91121
#
# Velocity S-wave (km/s) = 3.73384 4.26588 4.00870
# Velocity P-wave (km/s) = 5.75657 7.21428 6.52625
#
# Compressibility (1/GPa) = 0.02992315
#
# Stress axis : x y z
#
# Youngs Moduli (GPa) = 141.52610 33.92852 84.54029
#
# Poissons Ratio (x) = 0.22809 0.24294
# Poissons Ratio (y) = 0.95143 -0.03159
# Poissons Ratio (z) = 0.40669 -0.01268
#
# Static dielectric constant tensor:
#      x y z
#    x 1.958850 0.000000 0.039550 
#    y 0.000000 1.906990 0.000000 
#    z 0.039550 0.000000 1.888440 
# 
# From -- ./inp_files/210814.got.cif
#   From: 2010.05.17/outbox.cif.g08.bks.cpg/sg15_106_cif.got.tgz:210814.got - 2010.06.03 18:47:42.
