data_PCOD9303002
_publ_section_title
;
Structure prediction by ZEFSAII (Michael W. Deem and Ramdas Pophale) SiO2 
 PCOD9303002
Probable space group: C 2/C
;
_chemical_formula_sum "Si O2"
_cell_formula_units_Z 40
_cell_length_a 8.689956
_cell_length_b 13.750694
_cell_length_c 21.518509
_cell_angle_alpha 90.000000
_cell_angle_beta 136.512273
_cell_angle_gamma 90.000000
_cell_volume 1769.573162
_symmetry_space_group_name_H-M "C 2/C"
_symmetry_group_IT_number 15
_symmetry_cell_setting 'monoclinic'
loop_
_space_group_symop_operation_xyz
x,y,z
-x,y,1/2-z
-x,-y,-z
x,-y,1/2+z
1/2+x,1/2+y,z
1/2-x,1/2+y,1/2-z
1/2-x,1/2-y,-z
1/2+x,1/2-y,1/2+z
loop_
_atom_site_type_symbol
_atom_site_label
_atom_site_fract_x
_atom_site_fract_y
_atom_site_fract_z
Si Si1 0.426123 0.915615 0.822312
Si Si2 0.213915 0.122603 0.771097
Si Si3 0.424227 0.395355 0.954613
Si Si4 0.517575 0.298954 0.643759
Si Si5 0.383365 0.262158 0.386928
O O1 0.664006 0.902625 0.858051
O O2 0.200073 0.867500 0.729826
O O3 0.460247 0.846939 0.892504
O O4 0.369750 0.028630 0.811022
O O5 0.346467 0.208414 0.844384
O O6 0.150778 0.171717 0.685522
O O7 0.000000 0.097078 0.750000
O O8 0.574018 0.360296 0.940535
O O9 0.500000 0.500000 0.000000
O O10 0.458231 0.319315 0.019824
O O11 0.346479 0.255217 0.642788
#
# Coordination Sequence:
#
# PCOD9303002 Si02
#       5
#     8   8   8   8   8
#     4  11  23  41  65  94 130 175 222 270 329 402
#     4  11  22  41  67  95 127 175 228 275 327 395
#     4  12  25  42  65  97 135 175 216 273 337 397
#     4  11  23  43  68  95 130 176 223 273 329 399
#     4  11  24  43  66  97 132 169 222 285 335 391
#
# _framework density 22.604320000000001
#
# number of rings (size 3 to 8) (size 9 to 14) (size 15 to 20)
#    0.000    0.800    0.000   10.200    0.000    1.600 
#    0.000    3.000    0.000    0.000    0.000    0.000 
#    0.000    0.000    0.000    0.000    0.000    0.000 
#
# Total GULP energy -111728.155592 kJ/mol
# GULP energy per Si atom -5586.407780 kJ/mol
# Density = 2.255287 g / cm^3
# Si number density = 22.604320 Si / 1000 Ang^3
#
#
#
# Elastic Constant Matrix: (Units=GPa)
#
#
# Indices 1 2 3 4 5 6 
#
# 1 110.6356 6.6977 34.4273 0.0000 -4.9004 0.0000
# 2 6.6977 124.0981 24.7992 0.0000 -12.1239 0.0000
# 3 34.4273 24.7992 79.2095 0.0000 -8.7150 0.0000
# 4 0.0000 0.0000 0.0000 29.1850 0.0000 5.1910
# 5 -4.9004 -12.1239 -8.7150 0.0000 32.9377 0.0000
# 6 0.0000 0.0000 0.0000 5.1910 0.0000 21.6943
#
#
#
# Elastic Compliance Matrix: (Units=1/GPa)
#
#
# Indices 1 2 3 4 5 6 
#
# 1 0.010475 0.000407 -0.004627 0.000000 0.000484 0.000000
# 2 0.000407 0.008821 -0.002652 0.000000 0.002606 0.000000
# 3 -0.004627 -0.002652 0.015741 0.000000 0.002501 0.000000
# 4 0.000000 0.000000 0.000000 0.035787 0.000000 -0.008563
# 5 0.000484 0.002606 0.002501 0.000000 0.032053 0.000000
# 6 0.000000 0.000000 0.000000 -0.008563 0.000000 0.048144
#
#
# Mechanical properties :
#
#
# Convention : Reuss Voigt Hill
#
# Bulk Modulus (GPa) = 46.96391 49.53240 48.24815
# Shear Modulus (GPa) = 29.09290 33.29800 31.19545
#
# Velocity S-wave (km/s) = 3.59144 3.84224 3.71895
# Velocity P-wave (km/s) = 6.16600 6.45322 6.31125
#
# Compressibility (1/GPa) = 0.02129295
#
# Stress axis : x y z
#
# Youngs Moduli (GPa) = 95.46249 113.37042 63.52796
#
# Poissons Ratio (x) = -0.04609 0.29394
# Poissons Ratio (y) = -0.03881 0.16845
# Poissons Ratio (z) = 0.44170 0.30061
#
# Static dielectric constant tensor:
#      x y z
#    x 1.877970 0.000000 -0.002080 
#    y 0.000000 1.803280 0.000000 
#    z -0.002080 0.000000 1.898240 
# 
# From -- ./inp_files/231452.got.cif
#   From: 2010.05.17/outbox.cif.g08.bks.cpg/sg15_116_cif.got.tgz:231452.got - 2010.06.03 18:47:42.
