data_PCOD9303721
_publ_section_title
;
Structure prediction by ZEFSAII (Michael W. Deem and Ramdas Pophale) SiO2 
 PCOD9303721
Probable space group: C 2/C
;
_chemical_formula_sum "Si O2"
_cell_formula_units_Z 40
_cell_length_a 27.212104
_cell_length_b 5.481582
_cell_length_c 17.652547
_cell_angle_alpha 90.000000
_cell_angle_beta 146.312691
_cell_angle_gamma 90.000000
_cell_volume 1460.502712
_symmetry_space_group_name_H-M "C 2/C"
_symmetry_group_IT_number 15
_symmetry_cell_setting 'monoclinic'
loop_
_space_group_symop_operation_xyz
x,y,z
-x,y,1/2-z
-x,-y,-z
x,-y,1/2+z
1/2+x,1/2+y,z
1/2-x,1/2+y,1/2-z
1/2-x,1/2-y,-z
1/2+x,1/2-y,1/2+z
loop_
_atom_site_type_symbol
_atom_site_label
_atom_site_fract_x
_atom_site_fract_y
_atom_site_fract_z
Si Si1 0.128047 0.121274 0.947066
Si Si2 0.327460 0.509280 0.664376
Si Si3 0.638337 0.873372 0.493910
Si Si4 0.949731 0.247333 0.411626
Si Si5 0.310133 0.913359 0.767543
O O1 0.085307 0.375606 0.914280
O O2 0.210246 0.097152 0.110939
O O3 0.083400 0.863753 0.902636
O O4 0.165160 0.118320 0.909676
O O5 0.228613 0.404870 0.557908
O O6 0.408120 0.313832 0.775796
O O7 0.346704 0.721111 0.751567
O O8 0.667918 0.843711 0.618937
O O9 0.853715 0.317990 0.322440
O O10 0.000000 0.500000 0.500000
O O11 0.000000 0.000000 0.500000
#
# Coordination Sequence:
#
# PCOD9303721 Si02
#       5
#     8   8   8   8   8
#     4  11  23  38  65 106 133 162 205 277 351 384
#     4  11  24  41  69 100 134 165 218 272 336 383
#     4  11  23  37  66 105 134 159 205 278 348 384
#     4  12  26  43  64  91 127 182 224 254 300 398
#     4  11  23  41  68 101 132 165 217 274 337 382
#
# _framework density 27.387829
#
# number of rings (size 3 to 8) (size 9 to 14) (size 15 to 20)
#    0.000    0.800    4.000    5.400    5.600    0.000 
#    0.000    0.000    0.000    7.200    0.000    0.000 
#    0.000    0.000    0.000    0.000    0.000    0.000 
#
# Total GULP energy -111507.253661 kJ/mol
# GULP energy per Si atom -5575.362683 kJ/mol
# Density = 2.732549 g / cm^3
# Si number density = 27.387829 Si / 1000 Ang^3
#
#
#
# Elastic Constant Matrix: (Units=GPa)
#
#
# Indices 1 2 3 4 5 6 
#
# 1 71.3166 33.5323 38.0839 0.0000 -31.5854 0.0000
# 2 33.5323 240.3078 58.2892 0.0002 -4.5062 0.0002
# 3 38.0839 58.2892 134.8296 -0.0001 -20.6196 -0.0001
# 4 0.0000 0.0002 -0.0001 32.3683 -0.0001 -18.8153
# 5 -31.5854 -4.5062 -20.6196 -0.0001 62.5672 -0.0001
# 6 0.0000 0.0002 -0.0001 -18.8153 -0.0001 32.2775
#
#
#
# Elastic Compliance Matrix: (Units=1/GPa)
#
#
# Indices 1 2 3 4 5 6 
#
# 1 0.020959 -0.001852 -0.003709 0.000000 0.009225 0.000000
# 2 -0.001852 0.004820 -0.001738 0.000000 -0.001161 0.000000
# 3 -0.003709 -0.001738 0.009383 0.000000 0.001095 0.000000
# 4 0.000000 0.000000 0.000000 0.046728 0.000000 0.027239
# 5 0.009225 -0.001161 0.001095 0.000000 0.020917 0.000000
# 6 0.000000 0.000000 0.000000 0.027239 0.000000 0.046859
#
#
# Mechanical properties :
#
#
# Convention : Reuss Voigt Hill
#
# Bulk Modulus (GPa) = 48.62784 78.47387 63.55085
# Shear Modulus (GPa) = 29.21964 46.54584 37.88274
#
# Velocity S-wave (km/s) = 3.26986 4.12698 3.72317
# Velocity P-wave (km/s) = 5.66126 7.17108 6.46042
#
# Compressibility (1/GPa) = 0.02056435
#
# Stress axis : x y z
#
# Youngs Moduli (GPa) = 47.71258 207.48805 106.57475
#
# Poissons Ratio (x) = 0.38428 0.39524
# Poissons Ratio (y) = 0.08837 0.18522
# Poissons Ratio (z) = 0.17695 0.36060
#
# Static dielectric constant tensor:
#      x y z
#    x 2.270730 0.000000 0.057290 
#    y 0.000000 2.379090 0.000000 
#    z 0.057290 0.000000 2.148010 
# 
# From -- ./inp_files/179861.got.cif
#   From: 2010.05.17/outbox.cif.g08.bks.cpg/sg15_90_cif.got.tgz:179861.got - 2010.06.03 18:47:42.
