data_PCOD9303411
_publ_section_title
;
Structure prediction by ZEFSAII (Michael W. Deem and Ramdas Pophale) SiO2 
 PCOD9303411
Probable space group: C 2/C
;
_chemical_formula_sum "Si O2"
_cell_formula_units_Z 40
_cell_length_a 11.638783
_cell_length_b 27.512625
_cell_length_c 7.964189
_cell_angle_alpha 90.000000
_cell_angle_beta 141.288782
_cell_angle_gamma 90.000000
_cell_volume 1594.908864
_symmetry_space_group_name_H-M "C 2/C"
_symmetry_group_IT_number 15
_symmetry_cell_setting 'monoclinic'
loop_
_space_group_symop_operation_xyz
x,y,z
-x,y,1/2-z
-x,-y,-z
x,-y,1/2+z
1/2+x,1/2+y,z
1/2-x,1/2+y,1/2-z
1/2-x,1/2-y,-z
1/2+x,1/2-y,1/2+z
loop_
_atom_site_type_symbol
_atom_site_label
_atom_site_fract_x
_atom_site_fract_y
_atom_site_fract_z
Si Si1 0.253375 0.341418 0.920629
Si Si2 0.631509 0.465674 0.763666
Si Si3 0.056589 0.202149 0.559681
Si Si4 0.189615 0.557125 0.366511
Si Si5 0.426101 0.812094 0.342875
O O1 0.294337 0.394137 0.044489
O O2 0.044170 0.339195 0.619915
O O3 0.314910 0.301297 0.126079
O O4 0.383045 0.330269 0.909732
O O5 0.500000 0.438268 0.750000
O O6 0.500000 0.500000 0.500000
O O7 0.772175 0.440869 0.791949
O O8 0.740945 0.504761 0.998234
O O9 0.206606 0.184798 0.597480
O O10 0.984501 0.255654 0.435962
O O11 0.000000 0.561136 0.250000
O O12 0.500000 0.829106 0.250000
#
# Coordination Sequence:
#
# PCOD9303411 Si02
#       5
#     8   8   8   8   8
#     4  11  26  41  67 101 131 178 232 279 325 414
#     4   9  21  40  67  96 131 172 211 274 343 408
#     4  11  24  40  68  89 134 182 229 274 337 397
#     4  11  22  44  69 100 133 174 226 277 340 408
#     4  12  24  43  64  97 135 181 229 285 342 391
#
# _framework density 25.079802999999998
#
# number of rings (size 3 to 8) (size 9 to 14) (size 15 to 20)
#    0.000    1.200    2.000    3.600   11.200    0.000 
#    3.600    3.000    0.000    0.000    0.000    0.000 
#    0.000    0.000    0.000    0.000    0.000    0.000 
#
# Total GULP energy -111643.702246 kJ/mol
# GULP energy per Si atom -5582.185112 kJ/mol
# Density = 2.502272 g / cm^3
# Si number density = 25.079803 Si / 1000 Ang^3
#
#
#
# Elastic Constant Matrix: (Units=GPa)
#
#
# Indices 1 2 3 4 5 6 
#
# 1 224.0131 14.5355 22.4176 0.0000 10.1328 0.0000
# 2 14.5355 48.6573 -1.8972 0.0000 1.2466 0.0000
# 3 22.4176 -1.8972 31.0239 0.0000 4.5268 0.0000
# 4 0.0000 0.0000 0.0000 13.7492 0.0000 14.4594
# 5 10.1328 1.2466 4.5268 0.0000 46.4908 0.0000
# 6 0.0000 0.0000 0.0000 14.4594 0.0000 -70.8029
#
#
#
# Elastic Compliance Matrix: (Units=1/GPa)
#
#
# Indices 1 2 3 4 5 6 
#
# 1 0.004957 -0.001603 -0.003580 0.000000 -0.000689 0.000000
# 2 -0.001603 0.021141 0.002519 0.000000 -0.000463 0.000000
# 3 -0.003580 0.002519 0.035372 0.000000 -0.002732 0.000000
# 4 0.000000 0.000000 0.000000 0.059873 0.000000 0.012227
# 5 -0.000689 -0.000463 -0.002732 0.000000 0.021938 0.000000
# 6 0.000000 0.000000 0.000000 0.012227 0.000000 -0.011627
#
#
# Mechanical properties :
#
#
# Convention : Reuss Voigt Hill
#
# Bulk Modulus (GPa) = 17.81176 41.53403 29.67289
# Shear Modulus (GPa) = 32.11367 15.79665 23.95516
#
# Velocity S-wave (km/s) = 3.58223 2.51241 3.09392
# Velocity P-wave (km/s) = 4.92212 5.00130 4.96187
#
# Compressibility (1/GPa) = 0.05614268
#
# Stress axis : x y z
#
# Youngs Moduli (GPa) = 201.71773 47.30196 28.27062
#
# Poissons Ratio (x) = 0.07582 0.10120
# Poissons Ratio (y) = 0.32333 -0.07120
# Poissons Ratio (z) = 0.72209 -0.11913
#
# Static dielectric constant tensor:
#      x y z
#    x 2.163130 0.000000 -0.080360 
#    y 0.000000 1.895150 0.000000 
#    z -0.080360 0.000000 2.298170 
# 
# From -- ./inp_files/35002.got.cif
#   From: 2010.05.17/outbox.cif.g08.bks.cpg/sg15_18_cif.got.tgz:35002.got - 2010.06.03 18:47:42.
