data_PCOD9303409
_publ_section_title
;
Structure prediction by ZEFSAII (Michael W. Deem and Ramdas Pophale) SiO2 
 PCOD9303409
Probable space group: C 2/C
;
_chemical_formula_sum "Si O2"
_cell_formula_units_Z 48
_cell_length_a 27.170671
_cell_length_b 9.079956
_cell_length_c 14.675396
_cell_angle_alpha 90.000000
_cell_angle_beta 39.937813
_cell_angle_gamma 90.000000
_cell_volume 2324.229761
_symmetry_space_group_name_H-M "C 2/C"
_symmetry_group_IT_number 15
_symmetry_cell_setting 'monoclinic'
loop_
_space_group_symop_operation_xyz
x,y,z
-x,y,1/2-z
-x,-y,-z
x,-y,1/2+z
1/2+x,1/2+y,z
1/2-x,1/2+y,1/2-z
1/2-x,1/2-y,-z
1/2+x,1/2-y,1/2+z
loop_
_atom_site_type_symbol
_atom_site_label
_atom_site_fract_x
_atom_site_fract_y
_atom_site_fract_z
Si Si1 0.312931 0.534140 0.655252
Si Si2 0.581363 0.678653 0.848161
Si Si3 0.079864 0.014098 0.172526
Si Si4 0.006491 0.584672 0.132894
Si Si5 0.660200 0.797719 0.326699
Si Si6 0.045430 0.269962 0.342201
O O1 0.354266 0.647009 0.667140
O O2 0.360432 0.517626 0.493920
O O3 0.314366 0.370827 0.695476
O O4 0.229307 0.594653 0.751524
O O5 0.598785 0.569482 0.739432
O O6 0.562591 0.831263 0.821900
O O7 0.502815 0.665932 0.019661
O O8 0.062503 0.180092 0.228000
O O9 0.000000 0.946950 0.250000
O O10 0.000000 0.589502 0.250000
O O11 0.003646 0.415830 0.104608
O O12 0.086285 0.661245 0.992640
O O13 0.625361 0.812161 0.275361
#
# Coordination Sequence:
#
# PCOD9303409 Si02
#       6
#     8   8   8   8   8   8
#     4  12  27  43  72  98 143 183 225 290 344 410
#     4  11  22  44  68  98 135 178 227 284 338 400
#     4  12  22  41  72 103 127 177 237 277 342 411
#     4  11  25  44  72 103 134 180 233 283 334 417
#     4  11  26  46  64 102 138 184 223 283 355 393
#     4  11  23  43  72  98 134 177 233 286 332 409
#
# _framework density 20.652004000000002
#
# number of rings (size 3 to 8) (size 9 to 14) (size 15 to 20)
#    0.000    0.667    3.333    6.500    4.667    0.667 
#    3.000    1.667    0.000    0.000    0.000    0.000 
#    0.000    0.000    0.000    0.000    0.000    0.000 
#
# Total GULP energy -134018.588659 kJ/mol
# GULP energy per Si atom -5584.107861 kJ/mol
# Density = 2.060500 g / cm^3
# Si number density = 20.652004 Si / 1000 Ang^3
#
#
#
# Elastic Constant Matrix: (Units=GPa)
#
#
# Indices 1 2 3 4 5 6 
#
# 1 111.5280 31.6544 47.2820 0.0000 -14.3103 0.0000
# 2 31.6544 95.9899 23.9707 0.0000 -4.1400 0.0000
# 3 47.2820 23.9707 58.9480 -0.0001 1.4485 0.0000
# 4 0.0000 0.0000 -0.0001 21.2132 0.0000 -2.0727
# 5 -14.3103 -4.1400 1.4485 0.0000 34.4631 0.0000
# 6 0.0000 0.0000 0.0000 -2.0727 0.0000 36.3981
#
#
#
# Elastic Compliance Matrix: (Units=1/GPa)
#
#
# Indices 1 2 3 4 5 6 
#
# 1 0.015288 -0.001840 -0.011677 0.000000 0.006618 0.000000
# 2 -0.001840 0.011905 -0.003385 0.000000 0.000808 0.000000
# 3 -0.011677 -0.003385 0.027864 0.000000 -0.006426 0.000000
# 4 0.000000 0.000000 0.000000 0.047404 0.000000 0.002699
# 5 0.006618 0.000808 -0.006426 0.000000 0.032132 0.000000
# 6 0.000000 0.000000 0.000000 0.002699 0.000000 0.027628
#
#
# Mechanical properties :
#
#
# Convention : Reuss Voigt Hill
#
# Bulk Modulus (GPa) = 47.05107 52.47560 49.76333
# Shear Modulus (GPa) = 24.61727 29.31880 26.96803
#
# Velocity S-wave (km/s) = 3.45629 3.77192 3.61755
# Velocity P-wave (km/s) = 6.22577 6.66592 6.44960
#
# Compressibility (1/GPa) = 0.02125350
#
# Stress axis : x y z
#
# Youngs Moduli (GPa) = 65.40984 84.00038 35.88796
#
# Poissons Ratio (x) = 0.15457 0.41906
# Poissons Ratio (y) = 0.12036 0.12148
# Poissons Ratio (z) = 0.76379 0.28433
#
# Static dielectric constant tensor:
#      x y z
#    x 1.758250 0.000000 0.017590 
#    y 0.000000 1.776970 0.000000 
#    z 0.017590 0.000000 1.692170 
# 
# From -- ./inp_files/176843.got.cif
#   From: 2010.05.17/outbox.cif.g08.bks.cpg/sg15_89_cif.got.tgz:176843.got - 2010.06.03 18:47:42.
