data_PCOD9303494
_publ_section_title
;
Structure prediction by ZEFSAII (Michael W. Deem and Ramdas Pophale) SiO2 
 PCOD9303494
Probable space group: C 2/C
;
_chemical_formula_sum "Si O2"
_cell_formula_units_Z 52
_cell_length_a 27.528178
_cell_length_b 6.633631
_cell_length_c 16.689342
_cell_angle_alpha 90.000000
_cell_angle_beta 140.172848
_cell_angle_gamma 90.000000
_cell_volume 1951.952748
_symmetry_space_group_name_H-M "C 2/C"
_symmetry_group_IT_number 15
_symmetry_cell_setting 'monoclinic'
loop_
_space_group_symop_operation_xyz
x,y,z
-x,y,1/2-z
-x,-y,-z
x,-y,1/2+z
1/2+x,1/2+y,z
1/2-x,1/2+y,1/2-z
1/2-x,1/2-y,-z
1/2+x,1/2-y,1/2+z
loop_
_atom_site_type_symbol
_atom_site_label
_atom_site_fract_x
_atom_site_fract_y
_atom_site_fract_z
Si Si1 0.138873 0.915534 0.857731
Si Si2 0.174172 0.387319 0.542650
Si Si3 0.542557 0.237463 0.475026
Si Si4 0.778373 0.221725 0.644241
Si Si5 0.000000 0.169757 0.750000
Si Si6 0.823787 0.332314 0.243914
Si Si7 0.085284 0.193714 0.562825
O O1 0.192210 0.101865 0.897066
O O2 0.128997 0.789462 0.763373
O O3 0.067649 0.024755 0.806550
O O4 0.169671 0.743588 0.955813
O O5 0.196581 0.620012 0.556457
O O6 0.251019 0.295337 0.678993
O O7 0.104073 0.317349 0.506923
O O8 0.521707 0.199321 0.355999
O O9 0.617924 0.144694 0.609983
O O10 0.555507 0.478765 0.495985
O O11 0.472319 0.207524 0.446646
O O12 0.838110 0.160328 0.789743
O O13 0.790191 0.460991 0.664889
#
# Coordination Sequence:
#
# PCOD9303494 Si02
#       7
#     8   8   8   8   4   8   8
#     4  11  23  45  75 112 161 212 267 333 409 483
#     4  11  25  43  76 113 157 210 268 336 413 481
#     4  11  22  46  82 112 158 213 271 339 418 488
#     4  11  24  45  71 107 155 208 264 334 400 482
#     4  12  22  46  82 118 168 218 268 352 420 480
#     4  11  25  45  76 112 155 212 276 336 408 496
#     4  11  22  44  75 113 154 208 269 335 408 493
#
# _framework density 26.639987999999999
#
# number of rings (size 3 to 8) (size 9 to 14) (size 15 to 20)
#    0.000    0.923    6.154    2.769    2.154    3.077 
#    0.000    2.308    0.000    0.923    0.000    1.077 
#    0.000    0.000    0.000    0.000    0.000    0.000 
#
# Total GULP energy -145640.595037 kJ/mol
# GULP energy per Si atom -5601.561348 kJ/mol
# Density = 2.657935 g / cm^3
# Si number density = 26.639988 Si / 1000 Ang^3
#
#
#
# Elastic Constant Matrix: (Units=GPa)
#
#
# Indices 1 2 3 4 5 6 
#
# 1 174.1268 47.3942 23.0771 0.0000 -16.2750 0.0000
# 2 47.3942 162.4617 27.4366 0.0000 -11.2575 0.0000
# 3 23.0771 27.4366 101.7870 0.0000 -23.8828 0.0000
# 4 0.0000 0.0000 0.0000 49.7372 0.0000 2.6672
# 5 -16.2750 -11.2575 -23.8828 0.0000 36.6506 0.0000
# 6 0.0000 0.0000 0.0000 2.6672 0.0000 29.2644
#
#
#
# Elastic Compliance Matrix: (Units=1/GPa)
#
#
# Indices 1 2 3 4 5 6 
#
# 1 0.006452 -0.001651 -0.000548 0.000000 0.002001 0.000000
# 2 -0.001651 0.006903 -0.001370 0.000000 0.000494 0.000000
# 3 -0.000548 -0.001370 0.011996 0.000000 0.007153 0.000000
# 4 0.000000 0.000000 0.000000 0.020204 0.000000 -0.001841
# 5 0.002001 0.000494 0.007153 0.000000 0.032986 0.000000
# 6 0.000000 0.000000 0.000000 -0.001841 0.000000 0.034339
#
#
# Mechanical properties :
#
#
# Convention : Reuss Voigt Hill
#
# Bulk Modulus (GPa) = 54.90979 70.46569 62.68774
# Shear Modulus (GPa) = 39.65411 45.82829 42.74120
#
# Velocity S-wave (km/s) = 3.86232 4.15213 4.00984
# Velocity P-wave (km/s) = 6.36762 7.03530 6.70977
#
# Compressibility (1/GPa) = 0.01821169
#
# Stress axis : x y z
#
# Youngs Moduli (GPa) = 154.99146 144.87325 83.35788
#
# Poissons Ratio (x) = 0.23918 0.04571
# Poissons Ratio (y) = 0.25589 0.11423
# Poissons Ratio (z) = 0.08499 0.19853
#
# Static dielectric constant tensor:
#      x y z
#    x 2.112260 0.000000 -0.031550 
#    y 0.000000 2.142850 0.000000 
#    z -0.031550 0.000000 2.109100 
# 
# From -- ./inp_files/177387.got.cif
#   From: 2010.05.17/outbox.cif.g08.bks.cpg/sg15_89_cif.got.tgz:177387.got - 2010.06.03 18:47:42.
