data_PCOD9303413
_publ_section_title
;
Structure prediction by ZEFSAII (Michael W. Deem and Ramdas Pophale) SiO2 
 PCOD9303413
Probable space group: C 2/C
;
_chemical_formula_sum "Si O2"
_cell_formula_units_Z 40
_cell_length_a 10.254345
_cell_length_b 15.266653
_cell_length_c 14.539107
_cell_angle_alpha 90.000000
_cell_angle_beta 117.936435
_cell_angle_gamma 90.000000
_cell_volume 2010.852714
_symmetry_space_group_name_H-M "C 2/C"
_symmetry_group_IT_number 15
_symmetry_cell_setting 'monoclinic'
loop_
_space_group_symop_operation_xyz
x,y,z
-x,y,1/2-z
-x,-y,-z
x,-y,1/2+z
1/2+x,1/2+y,z
1/2-x,1/2+y,1/2-z
1/2-x,1/2-y,-z
1/2+x,1/2-y,1/2+z
loop_
_atom_site_type_symbol
_atom_site_label
_atom_site_fract_x
_atom_site_fract_y
_atom_site_fract_z
Si Si1 0.831793 0.194101 0.809578
Si Si2 0.823604 0.810837 0.097135
Si Si3 0.834891 0.997647 0.392767
Si Si4 0.170895 0.496012 0.026371
Si Si5 0.171648 0.129172 0.284398
O O1 0.805771 0.218186 0.695005
O O2 0.800500 0.094057 0.828577
O O3 0.748147 0.275990 0.826150
O O4 0.007366 0.192079 0.876343
O O5 0.748377 0.904604 0.074005
O O6 0.750000 0.750000 0.000000
O O7 0.710979 0.997365 0.431704
O O8 0.820644 0.077053 0.312800
O O9 0.000000 0.000000 0.500000
O O10 0.254563 0.567243 0.115125
O O11 0.000000 0.500000 0.000000
O O12 0.000000 0.138282 0.250000
#
# Coordination Sequence:
#
# PCOD9303413 Si02
#       5
#     8   8   8   8   8
#     4  11  25  41  73 107 140 193 251 294 368 444
#     4  11  22  44  69 102 150 193 241 298 366 442
#     4  12  24  48  76 101 148 202 239 305 377 435
#     4  12  26  44  74 106 145 193 249 304 371 442
#     4  12  25  47  72 109 149 192 253 307 366 447
#
# _framework density 19.892057999999999
#
# number of rings (size 3 to 8) (size 9 to 14) (size 15 to 20)
#    0.000    0.400    6.000    2.400    0.000    4.800 
#    0.000    0.000    0.000    0.000    0.000    0.000 
#    0.000    0.000    0.000    0.000    0.000    0.000 
#
# Total GULP energy -111419.905394 kJ/mol
# GULP energy per Si atom -5570.995270 kJ/mol
# Density = 1.984678 g / cm^3
# Si number density = 19.892058 Si / 1000 Ang^3
#
#
#
# Elastic Constant Matrix: (Units=GPa)
#
#
# Indices 1 2 3 4 5 6 
#
# 1 183.2866 46.7974 35.4849 0.0000 20.6558 0.0000
# 2 46.7974 141.1548 21.6585 0.0000 8.8875 0.0000
# 3 35.4849 21.6585 35.6683 0.0000 -5.2672 0.0000
# 4 0.0000 0.0000 0.0000 38.8075 0.0000 -1.9742
# 5 20.6558 8.8875 -5.2672 0.0000 43.5130 0.0000
# 6 0.0000 0.0000 0.0000 -1.9742 0.0000 40.1885
#
#
#
# Elastic Compliance Matrix: (Units=1/GPa)
#
#
# Indices 1 2 3 4 5 6 
#
# 1 0.007709 -0.001109 -0.007640 0.000000 -0.004358 0.000000
# 2 -0.001109 0.008186 -0.004110 0.000000 -0.001643 0.000000
# 3 -0.007640 -0.004110 0.039498 0.000000 0.009247 0.000000
# 4 0.000000 0.000000 0.000000 0.025833 0.000000 0.001269
# 5 -0.004358 -0.001643 0.009247 0.000000 0.026505 0.000000
# 6 0.000000 0.000000 0.000000 0.001269 0.000000 0.024945
#
#
# Mechanical properties :
#
#
# Convention : Reuss Voigt Hill
#
# Bulk Modulus (GPa) = 33.69776 63.11014 48.40395
# Shear Modulus (GPa) = 29.71136 41.57973 35.64554
#
# Velocity S-wave (km/s) = 3.86894 4.57690 4.23773
# Velocity P-wave (km/s) = 6.07745 7.72825 6.95202
#
# Compressibility (1/GPa) = 0.02967556
#
# Stress axis : x y z
#
# Youngs Moduli (GPa) = 129.71255 122.15614 25.31799
#
# Poissons Ratio (x) = 0.13551 0.19342
# Poissons Ratio (y) = 0.14389 0.10405
# Poissons Ratio (z) = 0.99096 0.50204
#
# Static dielectric constant tensor:
#      x y z
#    x 1.710530 0.000000 -0.013600 
#    y 0.000000 1.862570 0.000000 
#    z -0.013600 0.000000 1.680160 
# 
# From -- ./inp_files/133271.got.cif
#   From: 2010.05.17/outbox.cif.g08.bks.cpg/sg15_67_cif.got.tgz:133271.got - 2010.06.03 18:47:42.
