data_PCOD9303664
_publ_section_title
;
Structure prediction by ZEFSAII (Michael W. Deem and Ramdas Pophale) SiO2 
 PCOD9303664
Probable space group: C 2/C
;
_chemical_formula_sum "Si O2"
_cell_formula_units_Z 52
_cell_length_a 15.584245
_cell_length_b 14.076444
_cell_length_c 12.166845
_cell_angle_alpha 90.000000
_cell_angle_beta 110.372667
_cell_angle_gamma 90.000000
_cell_volume 2502.095978
_symmetry_space_group_name_H-M "C 2/C"
_symmetry_group_IT_number 15
_symmetry_cell_setting 'monoclinic'
loop_
_space_group_symop_operation_xyz
x,y,z
-x,y,1/2-z
-x,-y,-z
x,-y,1/2+z
1/2+x,1/2+y,z
1/2-x,1/2+y,1/2-z
1/2-x,1/2-y,-z
1/2+x,1/2-y,1/2+z
loop_
_atom_site_type_symbol
_atom_site_label
_atom_site_fract_x
_atom_site_fract_y
_atom_site_fract_z
Si Si1 0.338898 0.174952 0.754904
Si Si2 0.203661 0.192801 0.079798
Si Si3 0.758291 0.513122 0.566154
Si Si4 0.059923 0.911961 0.983075
Si Si5 0.925582 0.574242 0.003108
Si Si6 0.510021 0.273431 0.383986
Si Si7 0.500000 0.700603 0.250000
O O1 0.281160 0.249671 0.801074
O O2 0.292033 0.095621 0.661324
O O3 0.410873 0.233645 0.715245
O O4 0.391979 0.123726 0.877237
O O5 0.238864 0.087447 0.114899
O O6 0.250000 0.250000 0.000000
O O7 0.100722 0.186744 0.986135
O O8 0.658552 0.550818 0.483505
O O9 0.839648 0.481067 0.519688
O O10 0.067505 0.830109 0.081292
O O11 0.006563 0.863891 0.859380
O O12 0.000000 0.000000 0.000000
O O13 0.973386 0.659612 0.094254
O O14 0.000000 0.500000 0.000000
O O15 0.500000 0.294312 0.250000
#
# Coordination Sequence:
#
# PCOD9303664 Si02
#       7
#     8   8   8   8   8   8   4
#     4  11  25  45  73  97 146 190 234 307 361 430
#     4  11  22  48  68 105 144 185 239 301 365 427
#     4  12  26  42  76 106 137 192 248 295 368 443
#     4  12  27  45  71 108 143 193 237 299 375 433
#     4  11  25  46  68 104 141 185 246 291 366 429
#     4  11  25  45  73  99 142 190 238 295 361 432
#     4  12  24  52  70  98 158 188 242 308 362 432
#
# _framework density 20.782575000000001
#
# number of rings (size 3 to 8) (size 9 to 14) (size 15 to 20)
#    0.000    0.615    7.692    0.923    5.385    3.077 
#    0.000    0.000    0.000    0.000    0.000    0.000 
#    0.000    0.000    0.000    0.000    0.000    0.000 
#
# Total GULP energy -145031.162358 kJ/mol
# GULP energy per Si atom -5578.121629 kJ/mol
# Density = 2.073527 g / cm^3
# Si number density = 20.782575 Si / 1000 Ang^3
#
#
#
# Elastic Constant Matrix: (Units=GPa)
#
#
# Indices 1 2 3 4 5 6 
#
# 1 94.1769 61.8648 7.2730 0.0000 -12.4828 0.0000
# 2 61.8648 132.5414 42.8927 0.0000 6.8264 0.0000
# 3 7.2730 42.8927 77.2752 0.0000 -10.1403 0.0000
# 4 0.0000 0.0000 0.0000 14.1968 0.0000 -9.9945
# 5 -12.4828 6.8264 -10.1403 0.0000 19.8863 0.0000
# 6 0.0000 0.0000 0.0000 -9.9945 0.0000 44.3342
#
#
#
# Elastic Compliance Matrix: (Units=1/GPa)
#
#
# Indices 1 2 3 4 5 6 
#
# 1 0.022988 -0.015016 0.009368 0.000000 0.024361 0.000000
# 2 -0.015016 0.019772 -0.012527 0.000000 -0.022601 0.000000
# 3 0.009368 -0.012527 0.021807 0.000000 0.021301 0.000000
# 4 0.000000 0.000000 0.000000 0.083726 0.000000 0.018875
# 5 0.024361 -0.022601 0.021301 0.000000 0.084197 0.000000
# 6 0.000000 0.000000 0.000000 0.018875 0.000000 0.026811
#
#
# Mechanical properties :
#
#
# Convention : Reuss Voigt Hill
#
# Bulk Modulus (GPa) = 35.43955 58.67272 47.05613
# Shear Modulus (GPa) = 16.39035 28.48101 22.43568
#
# Velocity S-wave (km/s) = 2.81135 3.70594 3.28920
# Velocity P-wave (km/s) = 5.25622 6.82679 6.09232
#
# Compressibility (1/GPa) = 0.02821706
#
# Stress axis : x y z
#
# Youngs Moduli (GPa) = 43.50087 50.57711 45.85579
#
# Poissons Ratio (x) = 0.75948 -0.42959
# Poissons Ratio (y) = 0.65322 0.57444
# Poissons Ratio (z) = -0.40752 0.63358
#
# Static dielectric constant tensor:
#      x y z
#    x 1.781190 0.000000 -0.008970 
#    y 0.000000 1.813020 0.000000 
#    z -0.008970 0.000000 1.700790 
# 
# From -- ./inp_files/97111.got.cif
#   From: 2010.05.17/outbox.cif.g08.bks.cpg/sg15_49_cif.got.tgz:97111.got - 2010.06.03 18:47:42.
