data_PCOD9303293
_publ_section_title
;
Structure prediction by ZEFSAII (Michael W. Deem and Ramdas Pophale) SiO2 
 PCOD9303293
Probable space group: C 2/C
;
_chemical_formula_sum "Si O2"
_cell_formula_units_Z 64
_cell_length_a 15.951893
_cell_length_b 16.431809
_cell_length_c 33.632108
_cell_angle_alpha 90.000000
_cell_angle_beta 160.709311
_cell_angle_gamma 90.000000
_cell_volume 2912.329335
_symmetry_space_group_name_H-M "C 2/C"
_symmetry_group_IT_number 15
_symmetry_cell_setting 'monoclinic'
loop_
_space_group_symop_operation_xyz
x,y,z
-x,y,1/2-z
-x,-y,-z
x,-y,1/2+z
1/2+x,1/2+y,z
1/2-x,1/2+y,1/2-z
1/2-x,1/2-y,-z
1/2+x,1/2-y,1/2+z
loop_
_atom_site_type_symbol
_atom_site_label
_atom_site_fract_x
_atom_site_fract_y
_atom_site_fract_z
Si Si1 0.227222 0.162395 0.618502
Si Si2 0.437207 0.389277 0.061199
Si Si3 0.785834 0.364373 0.360396
Si Si4 0.462828 0.277173 0.880809
Si Si5 0.216597 0.347745 0.616841
Si Si6 0.698544 0.041985 0.712364
Si Si7 0.876218 0.646260 0.332567
Si Si8 0.151087 0.068708 0.506658
O O1 0.500000 0.126561 0.750000
O O2 0.259144 0.255734 0.619133
O O3 0.119519 0.104933 0.536356
O O4 0.081027 0.165993 0.594291
O O5 0.576429 0.410805 0.164566
O O6 0.429009 0.476498 0.035285
O O7 0.161992 0.352937 0.944840
O O8 0.500000 0.361672 0.250000
O O9 0.846351 0.281695 0.362331
O O10 0.812245 0.431939 0.338174
O O11 0.001470 0.380495 0.490503
O O12 0.293196 0.285858 0.765290
O O13 0.488386 0.368452 0.908300
O O14 0.750000 0.250000 0.000000
O O15 0.500000 0.385192 0.750000
O O16 0.116848 0.346494 0.617023
O O17 0.441650 0.068977 0.620464
O O18 0.722586 0.944653 0.722682
#
# Coordination Sequence:
#
# PCOD9303293 Si02
#       8
#     8   8   8   8   8   8   8   8
#     4  11  23  40  66  99 140 179 227 286 350 417
#     4  11  24  43  66 102 139 175 229 288 349 410
#     4  12  27  44  69 103 141 183 230 291 355 408
#     4  12  24  44  72  98 131 182 232 279 342 419
#     4  11  26  44  67 102 136 183 234 281 343 417
#     4  11  24  45  70  97 138 183 229 282 348 409
#     4  11  27  43  70 103 134 181 232 286 341 412
#     4  11  22  43  68  97 133 181 231 280 344 419
#
# _framework density 21.975536999999999
#
# number of rings (size 3 to 8) (size 9 to 14) (size 15 to 20)
#    0.000    0.750    5.000    1.875    5.250    1.500 
#    0.000    0.625    0.000    0.000    0.000    0.000 
#    0.000    0.000    0.000    0.000    0.000    0.000 
#
# Total GULP energy -178828.514436 kJ/mol
# GULP energy per Si atom -5588.391076 kJ/mol
# Density = 2.192552 g / cm^3
# Si number density = 21.975537 Si / 1000 Ang^3
#
#
#
# Elastic Constant Matrix: (Units=GPa)
#
#
# Indices 1 2 3 4 5 6 
#
# 1 128.9837 15.6306 65.1004 0.0020 -15.4100 -0.0064
# 2 15.6306 50.0682 25.9159 -0.0014 0.8193 0.0017
# 3 65.1004 25.9159 144.7561 0.0364 -30.1798 -0.0106
# 4 0.0020 -0.0014 0.0364 31.7450 -0.0060 -12.1957
# 5 -15.4100 0.8193 -30.1798 -0.0060 44.3763 -0.0042
# 6 -0.0064 0.0017 -0.0106 -12.1957 -0.0042 36.6625
#
#
#
# Elastic Compliance Matrix: (Units=1/GPa)
#
#
# Indices 1 2 3 4 5 6 
#
# 1 0.010080 -0.000970 -0.004225 0.000005 0.000645 0.000002
# 2 -0.000970 0.022610 -0.004391 0.000005 -0.003741 -0.000001
# 3 -0.004225 -0.004391 0.010843 -0.000011 0.005988 -0.000001
# 4 0.000005 0.000005 -0.000011 0.036117 0.000000 0.012014
# 5 0.000645 -0.003741 0.005988 0.000000 0.026900 0.000005
# 6 0.000002 -0.000001 -0.000001 0.012014 0.000005 0.031272
#
#
# Mechanical properties :
#
#
# Convention : Reuss Voigt Hill
#
# Bulk Modulus (GPa) = 41.05243 59.67797 50.36520
# Shear Modulus (GPa) = 30.28187 37.03415 33.65801
#
# Velocity S-wave (km/s) = 3.71614 4.10963 3.91783
# Velocity P-wave (km/s) = 6.09381 7.05225 6.59047
#
# Compressibility (1/GPa) = 0.02435909
#
# Stress axis : x y z
#
# Youngs Moduli (GPa) = 99.20607 44.22826 92.22615
#
# Poissons Ratio (x) = 0.04292 0.38966
# Poissons Ratio (y) = 0.09628 0.40500
# Poissons Ratio (z) = 0.41915 0.19422
#
# Static dielectric constant tensor:
#      x y z
#    x 1.771010 0.000020 0.001020 
#    y 0.000020 1.856670 0.000000 
#    z 0.001020 0.000000 1.807260 
# 
# From -- ./inp_files/314535.got.cif
#   From: 2010.05.17/outbox.cif.g08.bks.cpg/sg15_158_cif.got.tgz:314535.got - 2010.06.03 18:47:42.
