data_PCOD9303994
_publ_section_title
;
Structure prediction by ZEFSAII (Michael W. Deem and Ramdas Pophale) SiO2 
 PCOD9303994
Probable space group: C 2/C
;
_chemical_formula_sum "Si O2"
_cell_formula_units_Z 32
_cell_length_a 21.258652
_cell_length_b 6.850544
_cell_length_c 19.528902
_cell_angle_alpha 90.000000
_cell_angle_beta 30.226493
_cell_angle_gamma 90.000000
_cell_volume 1431.754854
_symmetry_space_group_name_H-M "C 2/C"
_symmetry_group_IT_number 15
_symmetry_cell_setting 'monoclinic'
loop_
_space_group_symop_operation_xyz
x,y,z
-x,y,1/2-z
-x,-y,-z
x,-y,1/2+z
1/2+x,1/2+y,z
1/2-x,1/2+y,1/2-z
1/2-x,1/2-y,-z
1/2+x,1/2-y,1/2+z
loop_
_atom_site_type_symbol
_atom_site_label
_atom_site_fract_x
_atom_site_fract_y
_atom_site_fract_z
Si Si1 0.743763 0.966164 0.535132
Si Si2 0.895404 0.199723 0.292770
Si Si3 0.635997 0.572924 0.802592
Si Si4 0.634602 0.649827 0.444960
O O1 0.750000 0.750000 0.500000
O O2 0.838725 0.961805 0.509369
O O3 0.774417 0.095989 0.440070
O O4 0.623280 0.067685 0.683080
O O5 0.000000 0.142871 0.250000
O O6 0.899097 0.109129 0.214130
O O7 0.652682 0.492771 0.863295
O O8 0.760564 0.682979 0.661121
O O9 0.511598 0.708132 0.917841
#
# Coordination Sequence:
#
# PCOD9303994 Si02
#       4
#     8   8   8   8
#     4  11  23  42  67  99 135 179 228 281 342 407
#     4  11  23  41  68  98 138 178 227 285 342 408
#     4  11  24  44  67 101 142 182 235 283 346 412
#     4  11  24  43  68  97 142 182 230 290 337 411
#
# _framework density 22.350193999999998
#
# number of rings (size 3 to 8) (size 9 to 14) (size 15 to 20)
#    0.000    1.000    5.000    1.500    0.000    4.000 
#    0.000    0.000    0.000    0.000    0.000    0.000 
#    0.000    0.000    0.000    0.000    0.000    0.000 
#
# Total GULP energy -89146.752954 kJ/mol
# GULP energy per Si atom -5571.672060 kJ/mol
# Density = 2.229932 g / cm^3
# Si number density = 22.350194 Si / 1000 Ang^3
#
#
#
# Elastic Constant Matrix: (Units=GPa)
#
#
# Indices 1 2 3 4 5 6 
#
# 1 146.1574 18.6546 37.2938 0.0005 19.1113 -0.0004
# 2 18.6546 70.9114 45.5464 0.0020 -1.4247 -0.0010
# 3 37.2938 45.5464 74.6621 0.0018 -0.8032 -0.0007
# 4 0.0005 0.0020 0.0018 36.5188 -0.0010 2.1027
# 5 19.1113 -1.4247 -0.8032 -0.0010 41.4972 0.0004
# 6 -0.0004 -0.0010 -0.0007 2.1027 0.0004 17.4883
#
#
#
# Elastic Compliance Matrix: (Units=1/GPa)
#
#
# Indices 1 2 3 4 5 6 
#
# 1 0.008472 0.000719 -0.004713 0.000000 -0.003968 0.000000
# 2 0.000719 0.023260 -0.014546 -0.000001 0.000186 0.000001
# 3 -0.004713 -0.014546 0.024644 0.000000 0.002148 0.000000
# 4 0.000000 -0.000001 0.000000 0.027574 0.000001 -0.003315
# 5 -0.003968 0.000186 0.002148 0.000001 0.025973 -0.000001
# 6 0.000000 0.000001 0.000000 -0.003315 -0.000001 0.057580
#
#
# Mechanical properties :
#
#
# Convention : Reuss Voigt Hill
#
# Bulk Modulus (GPa) = 51.82598 54.96895 53.39747
# Shear Modulus (GPa) = 23.69496 31.78326 27.73911
#
# Velocity S-wave (km/s) = 3.25955 3.77511 3.52676
# Velocity P-wave (km/s) = 6.11594 6.60679 6.36610
#
# Compressibility (1/GPa) = 0.01929534
#
# Stress axis : x y z
#
# Youngs Moduli (GPa) = 118.04208 42.99250 40.57711
#
# Poissons Ratio (x) = -0.03089 0.19122
# Poissons Ratio (y) = -0.08482 0.59024
# Poissons Ratio (z) = 0.55628 0.62538
#
# Static dielectric constant tensor:
#      x y z
#    x 1.790730 0.000000 -0.044480 
#    y 0.000000 1.938330 0.000000 
#    z -0.044480 0.000000 1.974600 
# 
# From -- ./inp_files/115331.got.cif
#   From: 2010.05.17/outbox.cif.g08.bks.cpg/sg15_58_cif.got.tgz:115331.got - 2010.06.03 18:47:42.
