data_PCOD9303836
_publ_section_title
;
Structure prediction by ZEFSAII (Michael W. Deem and Ramdas Pophale) SiO2 
 PCOD9303836
Probable space group: C 2/C
;
_chemical_formula_sum "Si O2"
_cell_formula_units_Z 52
_cell_length_a 8.904115
_cell_length_b 9.951587
_cell_length_c 25.069957
_cell_angle_alpha 90.000000
_cell_angle_beta 56.170971
_cell_angle_gamma 90.000000
_cell_volume 1845.364742
_symmetry_space_group_name_H-M "C 2/C"
_symmetry_group_IT_number 15
_symmetry_cell_setting 'monoclinic'
loop_
_space_group_symop_operation_xyz
x,y,z
-x,y,1/2-z
-x,-y,-z
x,-y,1/2+z
1/2+x,1/2+y,z
1/2-x,1/2+y,1/2-z
1/2-x,1/2-y,-z
1/2+x,1/2-y,1/2+z
loop_
_atom_site_type_symbol
_atom_site_label
_atom_site_fract_x
_atom_site_fract_y
_atom_site_fract_z
Si Si1 0.500000 0.488030 0.750000
Si Si2 0.590783 0.007595 0.040066
Si Si3 0.153435 0.273557 0.400144
Si Si4 0.481898 0.745740 0.626672
Si Si5 0.378051 0.661551 0.540156
Si Si6 0.957790 0.784234 0.849828
Si Si7 0.388902 0.000721 0.718219
O O1 0.423846 0.391628 0.811586
O O2 0.678332 0.547650 0.746279
O O3 0.572625 0.155650 0.064970
O O4 0.452350 0.907034 0.096031
O O5 0.783670 0.954859 0.023348
O O6 0.500000 0.000000 0.000000
O O7 0.353587 0.315719 0.373621
O O8 0.043378 0.211493 0.471386
O O9 0.125522 0.178686 0.354881
O O10 0.401809 0.639363 0.599575
O O11 0.398676 0.859095 0.682395
O O12 0.218474 0.774164 0.576946
O O13 0.002442 0.641446 0.814039
O O14 0.500000 0.960556 0.750000
#
# Coordination Sequence:
#
# PCOD9303836 Si02
#       7
#     4   8   8   8   8   8   8
#     4  12  26  50  78  92 146 192 232 312 370 402
#     4  11  23  40  63  96 140 184 225 282 331 420
#     4  11  24  43  69 106 141 185 231 281 365 431
#     4  12  24  44  67 102 140 176 239 286 352 434
#     4  11  23  43  72 101 144 189 226 287 360 427
#     4  11  23  48  70 104 138 181 242 298 348 439
#     4  12  26  49  74 105 138 187 246 302 365 430
#
# _framework density 28.178709999999999
#
# number of rings (size 3 to 8) (size 9 to 14) (size 15 to 20)
#    0.000    0.615    6.923    3.231    0.000    0.615 
#    6.923    0.000    0.000    0.000    0.000    0.000 
#    0.000    0.000    0.000    0.000    0.000    0.000 
#
# Total GULP energy -144872.859898 kJ/mol
# GULP energy per Si atom -5572.033073 kJ/mol
# Density = 2.811457 g / cm^3
# Si number density = 28.178710 Si / 1000 Ang^3
#
#
#
# Elastic Constant Matrix: (Units=GPa)
#
#
# Indices 1 2 3 4 5 6 
#
# 1 230.7659 23.8322 53.8674 0.0000 25.0772 0.0000
# 2 23.8322 83.1465 20.8275 0.0000 -3.0110 0.0000
# 3 53.8674 20.8275 71.3101 0.0000 12.2615 0.0000
# 4 0.0000 0.0000 0.0000 18.0049 0.0000 -0.1812
# 5 25.0772 -3.0110 12.2615 0.0000 53.9928 0.0000
# 6 0.0000 0.0000 0.0000 -0.1812 0.0000 34.4022
#
#
#
# Elastic Compliance Matrix: (Units=1/GPa)
#
#
# Indices 1 2 3 4 5 6 
#
# 1 0.005437 -0.000721 -0.003596 0.000000 -0.001749 0.000000
# 2 -0.000721 0.013215 -0.003641 0.000000 0.001899 0.000000
# 3 -0.003596 -0.003641 0.018264 0.000000 -0.002681 0.000000
# 4 0.000000 0.000000 0.000000 0.055543 0.000000 0.000293
# 5 -0.001749 0.001899 -0.002681 0.000000 0.020048 0.000000
# 6 0.000000 0.000000 0.000000 0.000293 0.000000 0.029069
#
#
# Mechanical properties :
#
#
# Convention : Reuss Voigt Hill
#
# Bulk Modulus (GPa) = 47.62104 64.69741 56.15922
# Shear Modulus (GPa) = 30.39635 40.39300 35.39468
#
# Velocity S-wave (km/s) = 3.28792 3.79021 3.54797
# Velocity P-wave (km/s) = 5.59913 6.49336 6.06276
#
# Compressibility (1/GPa) = 0.02099912
#
# Stress axis : x y z
#
# Youngs Moduli (GPa) = 183.91353 75.67424 54.75211
#
# Poissons Ratio (x) = 0.05457 0.19689
# Poissons Ratio (y) = 0.13261 0.19937
# Poissons Ratio (z) = 0.66136 0.27556
#
# Static dielectric constant tensor:
#      x y z
#    x 2.384400 0.000000 0.048670 
#    y 0.000000 2.280920 0.000000 
#    z 0.048670 0.000000 2.379210 
# 
# From -- ./inp_files/287581.got.cif
#   From: 2010.05.17/outbox.cif.g08.bks.cpg/sg15_144_cif.got.tgz:287581.got - 2010.06.03 18:47:42.
