data_PCOD9303851
_publ_section_title
;
Structure prediction by ZEFSAII (Michael W. Deem and Ramdas Pophale) SiO2 
 PCOD9303851
Probable space group: C 2/C
;
_chemical_formula_sum "Si O2"
_cell_formula_units_Z 52
_cell_length_a 10.131158
_cell_length_b 12.181273
_cell_length_c 20.423825
_cell_angle_alpha 90.000000
_cell_angle_beta 126.145496
_cell_angle_gamma 90.000000
_cell_volume 2035.368680
_symmetry_space_group_name_H-M "C 2/C"
_symmetry_group_IT_number 15
_symmetry_cell_setting 'monoclinic'
loop_
_space_group_symop_operation_xyz
x,y,z
-x,y,1/2-z
-x,-y,-z
x,-y,1/2+z
1/2+x,1/2+y,z
1/2-x,1/2+y,1/2-z
1/2-x,1/2-y,-z
1/2+x,1/2-y,1/2+z
loop_
_atom_site_type_symbol
_atom_site_label
_atom_site_fract_x
_atom_site_fract_y
_atom_site_fract_z
Si Si1 0.309627 0.849410 0.282558
Si Si2 0.861863 0.754102 0.382011
Si Si3 0.313259 0.371415 0.003369
Si Si4 0.210485 0.075028 0.423302
Si Si5 0.378033 0.363604 0.877370
Si Si6 0.500000 0.538120 0.750000
Si Si7 0.908863 0.424019 0.789727
O O1 0.293210 0.800039 0.204430
O O2 0.359678 0.762949 0.352200
O O3 0.125042 0.884152 0.247508
O O4 0.430755 0.952157 0.319043
O O5 0.816144 0.679685 0.431625
O O6 0.935737 0.664480 0.353143
O O7 0.990398 0.852417 0.429741
O O8 0.229223 0.462461 0.024884
O O9 0.250000 0.250000 0.000000
O O10 0.297241 0.395697 0.922021
O O11 0.067748 0.109974 0.430979
O O12 0.116911 0.034400 0.330315
O O13 0.280317 0.421004 0.789700
O O14 0.000000 0.395470 0.750000
#
# Coordination Sequence:
#
# PCOD9303851 Si02
#       7
#     8   8   8   8   8   4   8
#     4  11  23  40  70 100 131 175 229 281 345 408
#     4  11  25  43  69 100 131 184 234 278 351 414
#     4  12  26  46  68  98 136 182 230 283 348 422
#     4  12  24  45  68  97 139 178 230 288 345 413
#     4  11  25  43  65  98 134 180 224 285 351 405
#     4  12  18  42  70  94 132 180 220 290 336 404
#     4  11  23  40  66 100 134 172 226 289 341 411
#
# _framework density 25.548196999999998
#
# number of rings (size 3 to 8) (size 9 to 14) (size 15 to 20)
#    0.000    0.615    4.615    3.231    6.462    1.231 
#    2.769    0.000    0.000    0.000    0.000    0.000 
#    0.000    0.000    0.000    0.000    0.000    0.000 
#
# Total GULP energy -145526.756458 kJ/mol
# GULP energy per Si atom -5597.182941 kJ/mol
# Density = 2.549005 g / cm^3
# Si number density = 25.548197 Si / 1000 Ang^3
#
#
#
# Elastic Constant Matrix: (Units=GPa)
#
#
# Indices 1 2 3 4 5 6 
#
# 1 68.6858 4.4475 -6.5779 0.0000 -17.6233 0.0000
# 2 4.4475 100.7177 14.9518 0.0000 -9.0962 0.0000
# 3 -6.5779 14.9518 89.0978 0.0000 -14.0564 0.0000
# 4 0.0000 0.0000 0.0000 41.7910 0.0000 -3.4750
# 5 -17.6233 -9.0962 -14.0564 0.0000 34.5131 0.0000
# 6 0.0000 0.0000 0.0000 -3.4750 0.0000 47.5062
#
#
#
# Elastic Compliance Matrix: (Units=1/GPa)
#
#
# Indices 1 2 3 4 5 6 
#
# 1 0.017425 -0.000299 0.002915 0.000000 0.010006 0.000000
# 2 -0.000299 0.010335 -0.001444 0.000000 0.001984 0.000000
# 3 0.002915 -0.001444 0.012670 0.000000 0.006268 0.000000
# 4 0.000000 0.000000 0.000000 0.024075 0.000000 0.001761
# 5 0.010006 0.001984 0.006268 0.000000 0.037160 0.000000
# 6 0.000000 0.000000 0.000000 0.001761 0.000000 0.021179
#
#
# Mechanical properties :
#
#
# Convention : Reuss Voigt Hill
#
# Bulk Modulus (GPa) = 23.37725 31.57156 27.47441
# Shear Modulus (GPa) = 37.10401 41.14072 39.12237
#
# Velocity S-wave (km/s) = 3.81506 4.01723 3.91745
# Velocity P-wave (km/s) = 5.34568 5.82254 5.58920
#
# Compressibility (1/GPa) = 0.04277663
#
# Stress axis : x y z
#
# Youngs Moduli (GPa) = 57.38896 96.75517 78.92657
#
# Poissons Ratio (x) = 0.02888 -0.23008
# Poissons Ratio (y) = 0.01713 0.11393
# Poissons Ratio (z) = -0.16730 0.13967
#
# Static dielectric constant tensor:
#      x y z
#    x 2.088980 0.000000 0.066420 
#    y 0.000000 2.063990 0.000000 
#    z 0.066420 0.000000 2.032940 
# 
# From -- ./inp_files/237483.got.cif
#   From: 2010.05.17/outbox.cif.g08.bks.cpg/sg15_119_cif.got.tgz:237483.got - 2010.06.03 18:47:42.
