data_PCOD9303433
_publ_section_title
;
Structure prediction by ZEFSAII (Michael W. Deem and Ramdas Pophale) SiO2 
 PCOD9303433
Probable space group: C 2/C
;
_chemical_formula_sum "Si O2"
_cell_formula_units_Z 44
_cell_length_a 16.984580
_cell_length_b 10.583515
_cell_length_c 13.306044
_cell_angle_alpha 90.000000
_cell_angle_beta 57.734262
_cell_angle_gamma 90.000000
_cell_volume 2022.502299
_symmetry_space_group_name_H-M "C 2/C"
_symmetry_group_IT_number 15
_symmetry_cell_setting 'monoclinic'
loop_
_space_group_symop_operation_xyz
x,y,z
-x,y,1/2-z
-x,-y,-z
x,-y,1/2+z
1/2+x,1/2+y,z
1/2-x,1/2+y,1/2-z
1/2-x,1/2-y,-z
1/2+x,1/2-y,1/2+z
loop_
_atom_site_type_symbol
_atom_site_label
_atom_site_fract_x
_atom_site_fract_y
_atom_site_fract_z
Si Si1 0.012431 0.363836 0.036937
Si Si2 0.222752 0.589414 0.362283
Si Si3 0.867952 0.945156 0.934407
Si Si4 0.509599 0.681029 0.854581
Si Si5 0.500000 0.764123 0.250000
Si Si6 0.214700 0.859545 0.297613
O O1 0.967393 0.343886 0.176381
O O2 0.124529 0.363477 0.971396
O O3 0.000000 0.500000 0.000000
O O4 0.984347 0.263695 0.969857
O O5 0.286627 0.541237 0.409038
O O6 0.256172 0.717924 0.282382
O O7 0.219259 0.467518 0.292847
O O8 0.925694 0.828824 0.850211
O O9 0.941228 0.059863 0.897042
O O10 0.821100 0.911325 0.071359
O O11 0.500000 0.742761 0.750000
O O12 0.618711 0.648762 0.797564
#
# Coordination Sequence:
#
# PCOD9303433 Si02
#       6
#     8   8   8   8   4   8
#     4  11  29  46  69 105 148 195 230 301 376 435
#     4  11  25  45  68 105 139 186 240 298 365 429
#     4  12  23  42  74 104 133 185 249 300 352 425
#     4  11  22  44  70 105 138 185 247 294 357 432
#     4  12  24  44  74  98 142 182 244 288 362 430
#     4  11  24  43  69 104 146 184 239 303 362 437
#
# _framework density 21.755230000000001
#
# number of rings (size 3 to 8) (size 9 to 14) (size 15 to 20)
#    0.000    0.727    6.364    1.091    6.364    0.000 
#    3.273    1.818    0.000    0.000    0.000    0.000 
#    0.000    0.000    0.000    0.000    0.000    0.000 
#
# Total GULP energy -122821.101048 kJ/mol
# GULP energy per Si atom -5582.777320 kJ/mol
# Density = 2.170571 g / cm^3
# Si number density = 21.755230 Si / 1000 Ang^3
#
#
#
# Elastic Constant Matrix: (Units=GPa)
#
#
# Indices 1 2 3 4 5 6 
#
# 1 100.5015 47.6341 39.0789 0.0000 30.7861 0.0000
# 2 47.6341 132.0284 39.3720 0.0000 20.6142 0.0000
# 3 39.0789 39.3720 102.2553 0.0000 39.1220 0.0000
# 4 0.0000 0.0000 0.0000 -3.8159 0.0000 14.1161
# 5 30.7861 20.6142 39.1220 0.0000 34.3369 0.0000
# 6 0.0000 0.0000 0.0000 14.1161 0.0000 28.9909
#
#
#
# Elastic Compliance Matrix: (Units=1/GPa)
#
#
# Indices 1 2 3 4 5 6 
#
# 1 0.015198 -0.003698 -0.000036 0.000000 -0.011365 0.000000
# 2 -0.003698 0.009574 -0.002380 0.000000 0.000279 0.000000
# 3 -0.000036 -0.002380 0.017995 0.000000 -0.019041 0.000000
# 4 0.000000 0.000000 0.000000 -0.093552 0.000000 0.045552
# 5 -0.011365 0.000279 -0.019041 0.000000 0.060840 0.000000
# 6 0.000000 0.000000 0.000000 0.045552 0.000000 0.012314
#
#
# Mechanical properties :
#
#
# Convention : Reuss Voigt Hill
#
# Bulk Modulus (GPa) = 32.74526 65.21725 48.98125
# Shear Modulus (GPa) = 111.66281 25.81572 68.73926
#
# Velocity S-wave (km/s) = 7.17205 3.44851 5.62719
# Velocity P-wave (km/s) = 9.14706 6.77489 8.04885
#
# Compressibility (1/GPa) = 0.03053877
#
# Stress axis : x y z
#
# Youngs Moduli (GPa) = 65.79625 104.44415 55.57217
#
# Poissons Ratio (x) = 0.38624 0.00201
# Poissons Ratio (y) = 0.24332 0.13227
# Poissons Ratio (z) = 0.00238 0.24859
#
# Static dielectric constant tensor:
#      x y z
#    x -1.211290 0.000000 -0.930440 
#    y 0.000000 1.856020 0.000000 
#    z -0.930440 0.000000 1.515000 
# 
# From -- ./inp_files/104085.got.cif
#   From: 2010.05.17/outbox.cif.g08.bks.cpg/sg15_53_cif.got.tgz:104085.got - 2010.06.03 18:47:42.
