data_PCOD9303673
_publ_section_title
;
Structure prediction by ZEFSAII (Michael W. Deem and Ramdas Pophale) SiO2 
 PCOD9303673
Probable space group: C 2/C
;
_chemical_formula_sum "Si O2"
_cell_formula_units_Z 48
_cell_length_a 12.345047
_cell_length_b 9.166903
_cell_length_c 25.908171
_cell_angle_alpha 90.000000
_cell_angle_beta 138.712337
_cell_angle_gamma 90.000000
_cell_volume 1934.597869
_symmetry_space_group_name_H-M "C 2/C"
_symmetry_group_IT_number 15
_symmetry_cell_setting 'monoclinic'
loop_
_space_group_symop_operation_xyz
x,y,z
-x,y,1/2-z
-x,-y,-z
x,-y,1/2+z
1/2+x,1/2+y,z
1/2-x,1/2+y,1/2-z
1/2-x,1/2-y,-z
1/2+x,1/2-y,1/2+z
loop_
_atom_site_type_symbol
_atom_site_label
_atom_site_fract_x
_atom_site_fract_y
_atom_site_fract_z
Si Si1 0.429636 0.854364 0.450837
Si Si2 0.127865 0.204532 0.911980
Si Si3 0.010245 0.470013 0.813120
Si Si4 0.540064 0.559894 0.173104
Si Si5 0.242995 0.715119 0.935334
Si Si6 0.213635 0.656565 0.707692
O O1 0.249861 0.821241 0.407594
O O2 0.568566 0.736120 0.513344
O O3 0.408149 0.878940 0.382657
O O4 0.500000 0.000000 0.500000
O O5 0.007482 0.332196 0.850670
O O6 0.035820 0.056268 0.894099
O O7 0.250000 0.250000 0.000000
O O8 0.170056 0.562821 0.888820
O O9 0.000000 0.422396 0.750000
O O10 0.864488 0.585447 0.769327
O O11 0.384547 0.661591 0.132563
O O12 0.623681 0.441733 0.241737
O O13 0.677575 0.671676 0.201568
O O14 0.250000 0.750000 0.000000
#
# Coordination Sequence:
#
# PCOD9303673 Si02
#       6
#     8   8   8   8   8   8
#     4  12  25  44  75 105 140 199 247 297 373 448
#     4  12  27  45  74 107 149 195 254 306 373 445
#     4  11  26  43  73 110 147 188 247 316 375 438
#     4  11  24  46  75 101 148 189 245 307 363 444
#     4  11  22  48  75 104 150 189 243 308 375 449
#     4  11  26  47  74 103 148 194 249 298 384 442
#
# _framework density 24.811357000000001
#
# number of rings (size 3 to 8) (size 9 to 14) (size 15 to 20)
#    0.000    0.667    5.000    3.000    4.667    4.667 
#    0.000    0.000    0.000    0.000    0.000    0.000 
#    0.000    0.000    0.000    0.000    0.000    0.000 
#
# Total GULP energy -133948.534745 kJ/mol
# GULP energy per Si atom -5581.188948 kJ/mol
# Density = 2.475489 g / cm^3
# Si number density = 24.811357 Si / 1000 Ang^3
#
#
#
# Elastic Constant Matrix: (Units=GPa)
#
#
# Indices 1 2 3 4 5 6 
#
# 1 48.6500 3.8958 17.1719 0.0000 17.6433 0.0000
# 2 3.8958 159.5300 49.9003 0.0000 2.9247 0.0000
# 3 17.1719 49.9003 122.2741 0.0000 15.9015 0.0000
# 4 0.0000 0.0000 0.0000 54.0124 0.0000 19.3539
# 5 17.6433 2.9247 15.9015 0.0000 44.3207 0.0000
# 6 0.0000 0.0000 0.0000 19.3539 0.0000 31.9113
#
#
#
# Elastic Compliance Matrix: (Units=1/GPa)
#
#
# Indices 1 2 3 4 5 6 
#
# 1 0.024634 0.000321 -0.002426 0.000000 -0.008957 0.000000
# 2 0.000321 0.007205 -0.003050 0.000000 0.000491 0.000000
# 3 -0.002426 -0.003050 0.010082 0.000000 -0.002450 0.000000
# 4 0.000000 0.000000 0.000000 0.023655 0.000000 -0.014346
# 5 -0.008957 0.000491 -0.002450 0.000000 0.026975 0.000000
# 6 0.000000 0.000000 0.000000 -0.014346 0.000000 0.040038
#
#
# Mechanical properties :
#
#
# Convention : Reuss Voigt Hill
#
# Bulk Modulus (GPa) = 31.63187 52.48777 42.05982
# Shear Modulus (GPa) = 32.58703 43.34796 37.96749
#
# Velocity S-wave (km/s) = 3.62801 4.18437 3.91608
# Velocity P-wave (km/s) = 5.50695 6.67427 6.11851
#
# Compressibility (1/GPa) = 0.03161369
#
# Stress axis : x y z
#
# Youngs Moduli (GPa) = 40.59456 138.78404 99.18471
#
# Poissons Ratio (x) = -0.04461 0.24061
# Poissons Ratio (y) = -0.01305 0.30246
# Poissons Ratio (z) = 0.09848 0.42322
#
# Static dielectric constant tensor:
#      x y z
#    x 1.483860 0.000000 0.325320 
#    y 0.000000 2.035420 0.000000 
#    z 0.325320 0.000000 1.872360 
# 
# From -- ./inp_files/295434.got.cif
#   From: 2010.05.17/outbox.cif.g08.bks.cpg/sg15_148_cif.got.tgz:295434.got - 2010.06.03 18:47:42.
