data_PCOD9303661
_publ_section_title
;
Structure prediction by ZEFSAII (Michael W. Deem and Ramdas Pophale) SiO2 
 PCOD9303661
Probable space group: C 2/C
;
_chemical_formula_sum "Si O2"
_cell_formula_units_Z 60
_cell_length_a 11.651332
_cell_length_b 9.168944
_cell_length_c 25.192011
_cell_angle_alpha 90.000000
_cell_angle_beta 101.390158
_cell_angle_gamma 90.000000
_cell_volume 2638.268564
_symmetry_space_group_name_H-M "C 2/C"
_symmetry_group_IT_number 15
_symmetry_cell_setting 'monoclinic'
loop_
_space_group_symop_operation_xyz
x,y,z
-x,y,1/2-z
-x,-y,-z
x,-y,1/2+z
1/2+x,1/2+y,z
1/2-x,1/2+y,1/2-z
1/2-x,1/2-y,-z
1/2+x,1/2-y,1/2+z
loop_
_atom_site_type_symbol
_atom_site_label
_atom_site_fract_x
_atom_site_fract_y
_atom_site_fract_z
Si Si1 0.011061 0.896413 0.949765
Si Si2 0.892003 0.246838 0.656879
Si Si3 0.000000 0.297409 0.250000
Si Si4 0.762661 0.362942 0.928446
Si Si5 0.697193 0.183017 0.548856
Si Si6 0.790413 0.499416 0.219596
Si Si7 0.608467 0.353282 0.123306
Si Si8 0.353792 0.565168 0.192354
O O1 0.922153 0.764022 0.948058
O O2 0.141360 0.843289 0.948549
O O3 0.966935 0.004144 0.898908
O O4 0.000000 0.000000 0.000000
O O5 0.793190 0.218627 0.603118
O O6 0.854280 0.381240 0.689186
O O7 0.899393 0.099261 0.691963
O O8 0.017622 0.260634 0.640511
O O9 0.109708 0.397922 0.245702
O O10 0.045739 0.187165 0.299103
O O11 0.819727 0.509043 0.957206
O O12 0.837881 0.218767 0.924996
O O13 0.728741 0.405222 0.864870
O O14 0.750000 0.250000 0.500000
O O15 0.707551 0.403572 0.173573
O O16 0.714902 0.573975 0.258585
#
# Coordination Sequence:
#
# PCOD9303661 Si02
#       8
#     8   8   4   8   8   8   8   8
#     4  12  24  48  76  99 141 183 232 294 361 428
#     4  11  25  45  72 102 146 188 235 296 353 423
#     4  12  26  42  66  98 138 182 246 276 344 408
#     4  11  26  44  70 107 137 183 235 292 356 427
#     4  11  22  47  76 103 138 182 234 297 364 421
#     4  12  27  42  69 102 142 191 240 286 346 423
#     4  12  25  47  68 107 144 185 235 292 357 420
#     4  11  24  45  66  98 140 186 232 288 343 410
#
# _framework density 22.742189
#
# number of rings (size 3 to 8) (size 9 to 14) (size 15 to 20)
#    0.000    0.533    6.667    1.600    1.867    4.267 
#    0.000    1.333    0.000    0.000    0.000    0.000 
#    0.000    0.000    0.000    0.000    0.000    0.000 
#
# Total GULP energy -167989.447426 kJ/mol
# GULP energy per Si atom -5599.648248 kJ/mol
# Density = 2.269043 g / cm^3
# Si number density = 22.742189 Si / 1000 Ang^3
#
#
#
# Elastic Constant Matrix: (Units=GPa)
#
#
# Indices 1 2 3 4 5 6 
#
# 1 144.3648 53.9330 31.3652 0.0000 -29.1531 0.0000
# 2 53.9330 87.2362 23.8169 0.0000 -8.9290 0.0000
# 3 31.3652 23.8169 78.7038 0.0000 -20.0861 0.0000
# 4 0.0000 0.0000 0.0000 37.9262 0.0000 -3.5142
# 5 -29.1531 -8.9290 -20.0861 0.0000 38.7244 0.0000
# 6 0.0000 0.0000 0.0000 -3.5142 0.0000 47.4165
#
#
#
# Elastic Compliance Matrix: (Units=1/GPa)
#
#
# Indices 1 2 3 4 5 6 
#
# 1 0.010443 -0.005582 -0.000916 0.000000 0.006100 0.000000
# 2 -0.005582 0.015517 -0.003032 0.000000 -0.002197 0.000000
# 3 -0.000916 -0.003032 0.015714 0.000000 0.006762 0.000000
# 4 0.000000 0.000000 0.000000 0.026549 0.000000 0.001968
# 5 0.006100 -0.002197 0.006762 0.000000 0.033417 0.000000
# 6 0.000000 0.000000 0.000000 0.001968 0.000000 0.021236
#
#
# Mechanical properties :
#
#
# Convention : Reuss Voigt Hill
#
# Bulk Modulus (GPa) = 44.21866 58.72611 51.47239
# Shear Modulus (GPa) = 33.45083 38.22607 35.83845
#
# Velocity S-wave (km/s) = 3.83935 4.10426 3.97401
# Velocity P-wave (km/s) = 6.25619 6.95259 6.61356
#
# Compressibility (1/GPa) = 0.02261489
#
# Stress axis : x y z
#
# Youngs Moduli (GPa) = 95.75795 64.44557 63.63695
#
# Poissons Ratio (x) = 0.35973 0.05828
# Poissons Ratio (y) = 0.53451 0.19294
# Poissons Ratio (z) = 0.08770 0.19539
#
# Static dielectric constant tensor:
#      x y z
#    x 1.856380 0.000000 0.017230 
#    y 0.000000 1.842500 0.000000 
#    z 0.017230 0.000000 1.856800 
# 
# From -- ./inp_files/291567.got.cif
#   From: 2010.05.17/outbox.cif.g08.bks.cpg/sg15_146_cif.got.tgz:291567.got - 2010.06.03 18:47:42.
