data_PCOD9303627
_publ_section_title
;
Structure prediction by ZEFSAII (Michael W. Deem and Ramdas Pophale) SiO2 
 PCOD9303627
Probable space group: C 2/C
;
_chemical_formula_sum "Si O2"
_cell_formula_units_Z 40
_cell_length_a 6.561724
_cell_length_b 22.161745
_cell_length_c 11.740629
_cell_angle_alpha 90.000000
_cell_angle_beta 85.752831
_cell_angle_gamma 90.000000
_cell_volume 1702.624965
_symmetry_space_group_name_H-M "C 2/C"
_symmetry_group_IT_number 15
_symmetry_cell_setting 'monoclinic'
loop_
_space_group_symop_operation_xyz
x,y,z
-x,y,1/2-z
-x,-y,-z
x,-y,1/2+z
1/2+x,1/2+y,z
1/2-x,1/2+y,1/2-z
1/2-x,1/2-y,-z
1/2+x,1/2-y,1/2+z
loop_
_atom_site_type_symbol
_atom_site_label
_atom_site_fract_x
_atom_site_fract_y
_atom_site_fract_z
Si Si1 0.853140 0.499075 0.343935
Si Si2 0.471067 0.905296 0.500819
Si Si3 0.883389 0.827391 0.940565
Si Si4 0.000000 0.927503 0.750000
Si Si5 0.343897 0.354051 0.352913
Si Si6 0.000000 0.729111 0.750000
O O1 0.972537 0.556426 0.391001
O O2 0.669976 0.527672 0.286657
O O3 0.000000 0.466291 0.250000
O O4 0.815238 0.449537 0.440960
O O5 0.353845 0.842715 0.523225
O O6 0.684504 0.897259 0.425517
O O7 0.946924 0.884042 0.857847
O O8 0.919261 0.770703 0.857124
O O9 0.018079 0.825909 0.050237
O O10 0.500000 0.378783 0.250000
O O11 0.190035 0.309186 0.291757
#
# Coordination Sequence:
#
# PCOD9303627 Si02
#       6
#     8   8   8   4   8   4
#     4  11  24  44  72 109 149 192 238 293 350 434
#     4  11  26  46  71 108 149 189 242 294 357 429
#     4  11  25  47  77 105 142 193 243 301 361 434
#     4  11  22  46  74 110 144 194 242 287 358 428
#     4  12  27  48  73 106 144 194 240 307 362 432
#     4  11  28  50  74 108 142 186 248 311 370 422
#
# _framework density 23.493134999999999
#
# number of rings (size 3 to 8) (size 9 to 14) (size 15 to 20)
#    0.000    0.800    4.000    1.800    4.200    7.200 
#    0.000    0.000    0.000    0.000    0.000    0.000 
#    0.000    0.000    0.000    0.000    0.000    0.000 
#
# Total GULP energy -111835.375310 kJ/mol
# GULP energy per Si atom -5591.768766 kJ/mol
# Density = 2.343966 g / cm^3
# Si number density = 23.493135 Si / 1000 Ang^3
#
#
#
# Elastic Constant Matrix: (Units=GPa)
#
#
# Indices 1 2 3 4 5 6 
#
# 1 75.4693 20.3560 53.5133 0.0000 -8.4758 0.0000
# 2 20.3560 47.7663 22.7151 0.0000 5.2162 0.0000
# 3 53.5133 22.7151 139.8228 0.0000 19.2242 0.0000
# 4 0.0000 0.0000 0.0000 73.4616 0.0000 -3.3716
# 5 -8.4758 5.2162 19.2242 0.0000 46.2883 0.0000
# 6 0.0000 0.0000 0.0000 -3.3716 0.0000 24.9021
#
#
#
# Elastic Compliance Matrix: (Units=1/GPa)
#
#
# Indices 1 2 3 4 5 6 
#
# 1 0.021865 -0.006176 -0.008496 0.000000 0.008228 0.000000
# 2 -0.006176 0.024484 -0.001144 0.000000 -0.003415 0.000000
# 3 -0.008496 -0.001144 0.011439 0.000000 -0.006177 0.000000
# 4 0.000000 0.000000 0.000000 0.013698 0.000000 0.001855
# 5 0.008228 -0.003415 -0.006177 0.000000 0.026061 0.000000
# 6 0.000000 0.000000 0.000000 0.001855 0.000000 0.040408
#
#
# Mechanical properties :
#
#
# Convention : Reuss Voigt Hill
#
# Bulk Modulus (GPa) = 38.23397 50.69191 44.46294
# Shear Modulus (GPa) = 28.04168 40.02867 34.03517
#
# Velocity S-wave (km/s) = 3.45862 4.13224 3.81035
# Velocity P-wave (km/s) = 5.67972 6.66269 6.19075
#
# Compressibility (1/GPa) = 0.02615475
#
# Stress axis : x y z
#
# Youngs Moduli (GPa) = 45.73587 40.84234 87.42190
#
# Poissons Ratio (x) = 0.25225 0.74274
# Poissons Ratio (y) = 0.28247 0.10005
# Poissons Ratio (z) = 0.38857 0.04674
#
# Static dielectric constant tensor:
#      x y z
#    x 1.862680 0.000000 -0.103130 
#    y 0.000000 1.834630 0.000000 
#    z -0.103130 0.000000 1.840210 
# 
# From -- ./inp_files/73289.got.cif
#   From: 2010.05.17/outbox.cif.g08.bks.cpg/sg15_37_cif.got.tgz:73289.got - 2010.06.03 18:47:42.
