data_PCOD9303825
_publ_section_title
;
Structure prediction by ZEFSAII (Michael W. Deem and Ramdas Pophale) SiO2 
 PCOD9303825
Probable space group: C 2/C
;
_chemical_formula_sum "Si O2"
_cell_formula_units_Z 48
_cell_length_a 28.119416
_cell_length_b 7.128552
_cell_length_c 19.209291
_cell_angle_alpha 90.000000
_cell_angle_beta 42.953304
_cell_angle_gamma 90.000000
_cell_volume 2623.749749
_symmetry_space_group_name_H-M "C 2/C"
_symmetry_group_IT_number 15
_symmetry_cell_setting 'monoclinic'
loop_
_space_group_symop_operation_xyz
x,y,z
-x,y,1/2-z
-x,-y,-z
x,-y,1/2+z
1/2+x,1/2+y,z
1/2-x,1/2+y,1/2-z
1/2-x,1/2-y,-z
1/2+x,1/2-y,1/2+z
loop_
_atom_site_type_symbol
_atom_site_label
_atom_site_fract_x
_atom_site_fract_y
_atom_site_fract_z
Si Si1 0.933786 0.128965 0.486871
Si Si2 0.292151 0.577281 0.368444
Si Si3 0.410671 0.326786 0.631393
Si Si4 0.261493 0.726381 0.139973
Si Si5 0.348396 0.975992 0.640247
Si Si6 0.170616 0.879189 0.513231
O O1 0.893625 0.311809 0.558150
O O2 0.906324 0.125083 0.437361
O O3 0.016463 0.138592 0.407937
O O4 0.910282 0.955525 0.562054
O O5 0.344969 0.625073 0.249900
O O6 0.275882 0.359315 0.375867
O O7 0.222481 0.706245 0.437711
O O8 0.325716 0.611845 0.407739
O O9 0.401726 0.108783 0.624201
O O10 0.309109 0.875209 0.131787
O O11 0.208933 0.624936 0.249796
O O12 0.298441 0.562551 0.057666
#
# Coordination Sequence:
#
# PCOD9303825 Si02
#       6
#     8   8   8   8   8   8
#     4  11  23  40  62  89 121 159 199 245 300 357
#     4  11  23  40  62  89 121 159 199 245 300 357
#     4  11  23  40  62  89 121 159 199 245 300 357
#     4  12  21  36  62  94 123 152 198 254 301 350
#     4  12  21  36  62  94 123 152 198 254 301 350
#     4  11  23  40  62  89 121 159 199 245 300 357
#
# _framework density 18.294426999999999
#
# number of rings (size 3 to 8) (size 9 to 14) (size 15 to 20)
#    0.000    0.667    6.667    3.000    0.000    0.667 
#    0.000    0.000    0.000    0.000    0.000    0.000 
#    0.000    0.000    0.000    0.000    0.000    0.000 
#
# Total GULP energy -133920.066048 kJ/mol
# GULP energy per Si atom -5580.002752 kJ/mol
# Density = 1.825279 g / cm^3
# Si number density = 18.294427 Si / 1000 Ang^3
#
#
#
# Elastic Constant Matrix: (Units=GPa)
#
#
# Indices 1 2 3 4 5 6 
#
# 1 107.7410 7.7300 -3.6906 0.0114 -3.2757 -0.0047
# 2 7.7300 86.7960 -10.8818 0.0125 -0.8457 -0.0027
# 3 -3.6906 -10.8818 12.6095 -0.0041 -0.5287 -0.0009
# 4 0.0114 0.0125 -0.0041 12.4545 0.0024 -0.8366
# 5 -3.2757 -0.8457 -0.5287 0.0024 14.5216 0.0006
# 6 -0.0047 -0.0027 -0.0009 -0.8366 0.0006 34.7426
#
#
#
# Elastic Compliance Matrix: (Units=1/GPa)
#
#
# Indices 1 2 3 4 5 6 
#
# 1 0.009468 -0.000519 0.002415 -0.000008 0.002193 0.000001
# 2 -0.000519 0.012967 0.011082 -0.000009 0.001042 0.000001
# 3 0.002415 0.011082 0.089763 0.000016 0.004458 0.000004
# 4 -0.000008 -0.000009 0.000016 0.080422 -0.000015 0.001937
# 5 0.002193 0.001042 0.004458 -0.000015 0.069581 -0.000001
# 6 0.000001 0.000001 0.000004 0.001937 -0.000001 0.028830
#
#
# Mechanical properties :
#
#
# Convention : Reuss Voigt Hill
#
# Bulk Modulus (GPa) = 7.23824 21.49573 14.36699
# Shear Modulus (GPa) = 16.07065 26.60967 21.34016
#
# Velocity S-wave (km/s) = 2.96707 3.81796 3.41909
# Velocity P-wave (km/s) = 3.96272 5.58669 4.84326
#
# Compressibility (1/GPa) = 0.13815511
#
# Stress axis : x y z
#
# Youngs Moduli (GPa) = 105.61691 77.11864 11.14042
#
# Poissons Ratio (x) = 0.04003 -0.02691
# Poissons Ratio (y) = 0.05482 -0.12346
# Poissons Ratio (z) = -0.25509 -0.85464
#
# Static dielectric constant tensor:
#      x y z
#    x 1.682320 0.000000 -0.003550 
#    y 0.000000 1.657470 0.000000 
#    z -0.003550 0.000000 1.589950 
# 
# From -- ./inp_files/130354.got.cif
#   From: 2010.05.17/outbox.cif.g08.bks.cpg/sg15_66_cif.got.tgz:130354.got - 2010.06.03 18:47:42.
