data_PCOD9303575
_publ_section_title
;
Structure prediction by ZEFSAII (Michael W. Deem and Ramdas Pophale) SiO2 
 PCOD9303575
Probable space group: C 2/C
;
_chemical_formula_sum "Si O2"
_cell_formula_units_Z 48
_cell_length_a 14.362399
_cell_length_b 7.593794
_cell_length_c 27.448690
_cell_angle_alpha 90.000000
_cell_angle_beta 136.502618
_cell_angle_gamma 90.000000
_cell_volume 2060.623807
_symmetry_space_group_name_H-M "C 2/C"
_symmetry_group_IT_number 15
_symmetry_cell_setting 'monoclinic'
loop_
_space_group_symop_operation_xyz
x,y,z
-x,y,1/2-z
-x,-y,-z
x,-y,1/2+z
1/2+x,1/2+y,z
1/2-x,1/2+y,1/2-z
1/2-x,1/2-y,-z
1/2+x,1/2-y,1/2+z
loop_
_atom_site_type_symbol
_atom_site_label
_atom_site_fract_x
_atom_site_fract_y
_atom_site_fract_z
Si Si1 0.190011 0.122405 0.549918
Si Si2 0.912483 0.273063 0.473710
Si Si3 0.077388 0.485944 0.921323
Si Si4 0.850126 0.739644 0.706151
Si Si5 0.792658 0.595881 0.832989
Si Si6 0.928228 0.632114 0.274345
O O1 0.284374 0.173862 0.630978
O O2 0.062876 0.255242 0.506758
O O3 0.132289 0.926792 0.535535
O O4 0.288402 0.092842 0.541212
O O5 0.915760 0.372922 0.526602
O O6 0.808762 0.361585 0.396633
O O7 0.946462 0.610469 0.874070
O O8 0.035329 0.363535 0.859024
O O9 0.867420 0.564911 0.745134
O O10 0.000000 0.808016 0.750000
O O11 0.760311 0.897138 0.692836
O O12 0.691452 0.728081 0.768693
O O13 0.000000 0.666327 0.250000
#
# Coordination Sequence:
#
# PCOD9303575 Si02
#       6
#     8   8   8   8   8   8
#     4  11  23  45  73 100 141 195 231 303 368 427
#     4  11  25  48  71 105 149 189 244 304 364 455
#     4  12  25  42  75 106 143 194 247 297 376 449
#     4  11  22  45  75  98 143 187 237 302 367 422
#     4  12  26  44  73 106 144 186 242 305 362 444
#     4  11  24  48  70 102 144 187 240 302 360 434
#
# _framework density 23.293917
#
# number of rings (size 3 to 8) (size 9 to 14) (size 15 to 20)
#    0.000    0.667    6.667    1.500    2.333    0.667 
#    0.000    0.000    0.000    0.000    0.000    0.000 
#    0.000    0.000    0.000    0.000    0.000    0.000 
#
# Total GULP energy -134251.354930 kJ/mol
# GULP energy per Si atom -5593.806455 kJ/mol
# Density = 2.324090 g / cm^3
# Si number density = 23.293917 Si / 1000 Ang^3
#
#
#
# Elastic Constant Matrix: (Units=GPa)
#
#
# Indices 1 2 3 4 5 6 
#
# 1 139.9442 49.8854 48.7294 0.0000 9.4177 0.0000
# 2 49.8854 87.0819 35.4826 0.0000 0.6705 0.0000
# 3 48.7294 35.4826 111.2789 0.0000 0.4567 0.0000
# 4 0.0000 0.0000 0.0000 82.9822 0.0000 25.1544
# 5 9.4177 0.6705 0.4567 0.0000 34.1748 0.0000
# 6 0.0000 0.0000 0.0000 25.1544 0.0000 32.6092
#
#
#
# Elastic Compliance Matrix: (Units=1/GPa)
#
#
# Indices 1 2 3 4 5 6 
#
# 1 0.009933 -0.004485 -0.002909 0.000000 -0.002610 0.000000
# 2 -0.004485 0.015225 -0.002895 0.000000 0.000976 0.000000
# 3 -0.002909 -0.002895 0.011180 0.000000 0.000709 0.000000
# 4 0.000000 0.000000 0.000000 0.015729 0.000000 -0.012133
# 5 -0.002610 0.000976 0.000709 0.000000 0.029952 0.000000
# 6 0.000000 0.000000 0.000000 -0.012133 0.000000 0.040025
#
#
# Mechanical properties :
#
#
# Convention : Reuss Voigt Hill
#
# Bulk Modulus (GPa) = 63.44720 67.38886 65.41803
# Shear Modulus (GPa) = 33.81252 43.56709 38.68980
#
# Velocity S-wave (km/s) = 3.81407 4.32941 4.07988
# Velocity P-wave (km/s) = 6.83322 7.34740 7.09497
#
# Compressibility (1/GPa) = 0.01576114
#
# Stress axis : x y z
#
# Youngs Moduli (GPa) = 100.67502 65.68358 89.44270
#
# Poissons Ratio (x) = 0.29458 0.26018
# Poissons Ratio (y) = 0.45150 0.25890
# Poissons Ratio (z) = 0.29286 0.19013
#
# Static dielectric constant tensor:
#      x y z
#    x 1.974680 0.000000 -0.014630 
#    y 0.000000 1.839060 0.000000 
#    z -0.014630 0.000000 1.853210 
# 
# From -- ./inp_files/295448.got.cif
#   From: 2010.05.17/outbox.cif.g08.bks.cpg/sg15_148_cif.got.tgz:295448.got - 2010.06.03 18:47:42.
