data_PCOD9303372
_publ_section_title
;
Structure prediction by ZEFSAII (Michael W. Deem and Ramdas Pophale) SiO2 
 PCOD9303372
Probable space group: C 2/C
;
_chemical_formula_sum "Si O2"
_cell_formula_units_Z 28
_cell_length_a 6.791028
_cell_length_b 13.621989
_cell_length_c 13.476182
_cell_angle_alpha 90.000000
_cell_angle_beta 82.641454
_cell_angle_gamma 90.000000
_cell_volume 1236.378067
_symmetry_space_group_name_H-M "C 2/C"
_symmetry_group_IT_number 15
_symmetry_cell_setting 'monoclinic'
loop_
_space_group_symop_operation_xyz
x,y,z
-x,y,1/2-z
-x,-y,-z
x,-y,1/2+z
1/2+x,1/2+y,z
1/2-x,1/2+y,1/2-z
1/2-x,1/2-y,-z
1/2+x,1/2-y,1/2+z
loop_
_atom_site_type_symbol
_atom_site_label
_atom_site_fract_x
_atom_site_fract_y
_atom_site_fract_z
Si Si1 0.500000 0.469234 0.250000
Si Si2 0.789960 0.629202 0.227774
Si Si3 0.079161 0.228300 0.431009
Si Si4 0.214559 0.828645 0.390830
O O1 0.660548 0.542129 0.191129
O O2 0.626511 0.405093 0.318612
O O3 0.673905 0.674776 0.330316
O O4 0.826129 0.721344 0.154388
O O5 0.000000 0.589862 0.250000
O O6 0.250000 0.250000 0.500000
O O7 0.916669 0.165399 0.501867
O O8 0.949326 0.322026 0.400810
#
# Coordination Sequence:
#
# PCOD9303372 Si02
#       4
#     4   8   8   8
#     4  12  26  46  74 104 142 190 238 286 366 414
#     4  12  24  45  71 105 143 186 238 287 351 435
#     4  11  22  43  76 100 141 188 232 296 354 411
#     4  11  24  45  72 101 142 185 234 300 347 410
#
# _framework density 22.646792999999999
#
# number of rings (size 3 to 8) (size 9 to 14) (size 15 to 20)
#    0.000    0.571    7.143    0.000    0.000    5.714 
#    0.000    2.857    0.000    0.000    0.000    0.000 
#    0.000    0.000    0.000    0.000    0.000    0.000 
#
# Total GULP energy -78225.120587 kJ/mol
# GULP energy per Si atom -5587.508613 kJ/mol
# Density = 2.259525 g / cm^3
# Si number density = 22.646793 Si / 1000 Ang^3
#
#
#
# Elastic Constant Matrix: (Units=GPa)
#
#
# Indices 1 2 3 4 5 6 
#
# 1 193.0981 52.4176 38.3791 0.0000 29.0072 0.0000
# 2 52.4176 94.3696 30.9952 0.0000 15.2085 0.0000
# 3 38.3791 30.9952 114.2669 0.0000 3.9837 0.0000
# 4 0.0000 0.0000 0.0000 1.5667 0.0000 -1.3905
# 5 29.0072 15.2085 3.9837 0.0000 50.5490 0.0000
# 6 0.0000 0.0000 0.0000 -1.3905 0.0000 24.2986
#
#
#
# Elastic Compliance Matrix: (Units=1/GPa)
#
#
# Indices 1 2 3 4 5 6 
#
# 1 0.006635 -0.002772 -0.001377 0.000000 -0.002865 0.000000
# 2 -0.002772 0.013352 -0.002614 0.000000 -0.002221 0.000000
# 3 -0.001377 -0.002614 0.009895 0.000000 0.000797 0.000000
# 4 0.000000 0.000000 0.000000 0.672418 0.000000 0.038480
# 5 -0.002865 -0.002221 0.000797 0.000000 0.022032 0.000000
# 6 0.000000 0.000000 0.000000 0.038480 0.000000 0.043357
#
#
# Mechanical properties :
#
#
# Convention : Reuss Voigt Hill
#
# Bulk Modulus (GPa) = 61.12974 71.70206 66.41590
# Shear Modulus (GPa) = 6.35593 33.94573 20.15083
#
# Velocity S-wave (km/s) = 1.67709 3.87579 2.98617
# Velocity P-wave (km/s) = 5.54991 7.19435 6.42496
#
# Compressibility (1/GPa) = 0.01635865
#
# Stress axis : x y z
#
# Youngs Moduli (GPa) = 150.71320 74.89290 101.06045
#
# Poissons Ratio (x) = 0.20757 0.13915
# Poissons Ratio (y) = 0.41770 0.26413
# Poissons Ratio (z) = 0.20752 0.19574
#
# Static dielectric constant tensor:
#      x y z
#    x 1.924900 0.000000 0.031410 
#    y 0.000000 1.841680 0.000000 
#    z 0.031410 0.000000 1.840270 
# 
# From -- ./inp_files/131506.got.cif
#   From: 2010.05.17/outbox.cif.g08.bks.cpg/sg15_66_cif.got.tgz:131506.got - 2010.06.03 18:47:42.
