data_PCOD9303252
_publ_section_title
;
Structure prediction by ZEFSAII (Michael W. Deem and Ramdas Pophale) SiO2 
 PCOD9303252
Probable space group: C 2/C
;
_chemical_formula_sum "Si O2"
_cell_formula_units_Z 56
_cell_length_a 18.796254
_cell_length_b 8.245585
_cell_length_c 14.387865
_cell_angle_alpha 90.000000
_cell_angle_beta 99.810075
_cell_angle_gamma 90.000000
_cell_volume 2197.313245
_symmetry_space_group_name_H-M "C 2/C"
_symmetry_group_IT_number 15
_symmetry_cell_setting 'monoclinic'
loop_
_space_group_symop_operation_xyz
x,y,z
-x,y,1/2-z
-x,-y,-z
x,-y,1/2+z
1/2+x,1/2+y,z
1/2-x,1/2+y,1/2-z
1/2-x,1/2-y,-z
1/2+x,1/2-y,1/2+z
loop_
_atom_site_type_symbol
_atom_site_label
_atom_site_fract_x
_atom_site_fract_y
_atom_site_fract_z
Si Si1 0.690035 0.113263 0.489587
Si Si2 0.474600 0.789380 0.350027
Si Si3 0.929721 0.844542 0.462291
Si Si4 0.367645 0.051422 0.351371
Si Si5 0.219163 0.410430 0.325469
Si Si6 0.150900 0.927979 0.752476
Si Si7 0.083600 0.879713 0.410965
O O1 0.750000 0.250000 0.500000
O O2 0.711933 0.964615 0.429518
O O3 0.617851 0.204266 0.437714
O O4 0.682571 0.053907 0.592561
O O5 0.500000 0.799988 0.250000
O O6 0.533582 0.736143 0.437769
O O7 0.408528 0.661705 0.325205
O O8 0.444636 0.963014 0.373001
O O9 0.876561 0.724322 0.399030
O O10 0.997037 0.874905 0.407047
O O11 0.893262 0.001277 0.499601
O O12 0.338606 0.025421 0.242220
O O13 0.195542 0.224491 0.305522
O O14 0.293123 0.464533 0.292939
O O15 0.111224 0.037209 0.822143
#
# Coordination Sequence:
#
# PCOD9303252 Si02
#       7
#     8   8   8   8   8   8   8
#     4  12  25  46  73 101 144 188 234 293 356 417
#     4  11  22  42  75  95 139 189 226 288 360 419
#     4  11  24  45  68 104 139 182 236 287 357 424
#     4  11  25  45  72 103 138 184 243 291 348 425
#     4  11  26  46  73 105 138 187 239 296 352 422
#     4  11  23  46  68 103 137 184 239 288 359 419
#     4  11  24  43  69  99 139 181 230 287 357 419
#
# _framework density 25.485669000000001
#
# number of rings (size 3 to 8) (size 9 to 14) (size 15 to 20)
#    0.000    0.857    2.857    4.714    2.000    1.143 
#   10.286    2.857    0.000    0.000    0.000    0.000 
#    0.000    0.000    0.000    0.000    0.000    0.000 
#
# Total GULP energy -157010.826952 kJ/mol
# GULP energy per Si atom -5607.529534 kJ/mol
# Density = 2.542766 g / cm^3
# Si number density = 25.485669 Si / 1000 Ang^3
#
#
#
# Elastic Constant Matrix: (Units=GPa)
#
#
# Indices 1 2 3 4 5 6 
#
# 1 53.5884 21.4661 17.9343 0.0000 -12.3226 0.0000
# 2 21.4661 75.8892 21.0463 0.0000 2.7981 0.0000
# 3 17.9343 21.0463 92.2173 0.0000 -10.9304 0.0000
# 4 0.0000 0.0000 0.0000 45.4207 0.0000 0.7762
# 5 -12.3226 2.7981 -10.9304 0.0000 34.7872 0.0000
# 6 0.0000 0.0000 0.0000 0.7762 0.0000 45.2112
#
#
#
# Elastic Compliance Matrix: (Units=1/GPa)
#
#
# Indices 1 2 3 4 5 6 
#
# 1 0.023886 -0.006455 -0.002189 0.000000 0.008292 0.000000
# 2 -0.006455 0.015979 -0.002924 0.000000 -0.004491 0.000000
# 3 -0.002189 -0.002924 0.012332 0.000000 0.003335 0.000000
# 4 0.000000 0.000000 0.000000 0.022023 0.000000 -0.000378
# 5 0.008292 -0.004491 0.003335 0.000000 0.033093 0.000000
# 6 0.000000 0.000000 0.000000 -0.000378 0.000000 0.022125
#
#
# Mechanical properties :
#
#
# Convention : Reuss Voigt Hill
#
# Bulk Modulus (GPa) = 34.40975 38.06537 36.23756
# Shear Modulus (GPa) = 30.81452 35.83372 33.32412
#
# Velocity S-wave (km/s) = 3.48097 3.75378 3.61995
# Velocity P-wave (km/s) = 5.44859 5.81001 5.63220
#
# Compressibility (1/GPa) = 0.02906153
#
# Stress axis : x y z
#
# Youngs Moduli (GPa) = 41.86560 62.58052 81.08834
#
# Poissons Ratio (x) = 0.40396 0.17752
# Poissons Ratio (y) = 0.27024 0.23709
# Poissons Ratio (z) = 0.09165 0.18297
#
# Static dielectric constant tensor:
#      x y z
#    x 2.090310 0.000000 0.039720 
#    y 0.000000 2.009210 0.000000 
#    z 0.039720 0.000000 1.933340 
# 
# From -- ./inp_files/166680.got.cif
#   From: 2010.05.17/outbox.cif.g08.bks.cpg/sg15_84_cif.got.tgz:166680.got - 2010.06.03 18:47:42.
