data_PCOD9303020
_publ_section_title
;
Structure prediction by ZEFSAII (Michael W. Deem and Ramdas Pophale) SiO2 
 PCOD9303020
Probable space group: C 2/C
;
_chemical_formula_sum "Si O2"
_cell_formula_units_Z 48
_cell_length_a 25.882490
_cell_length_b 10.020143
_cell_length_c 13.804923
_cell_angle_alpha 90.000000
_cell_angle_beta 36.591608
_cell_angle_gamma 90.000000
_cell_volume 2134.216090
_symmetry_space_group_name_H-M "C 2/C"
_symmetry_group_IT_number 15
_symmetry_cell_setting 'monoclinic'
loop_
_space_group_symop_operation_xyz
x,y,z
-x,y,1/2-z
-x,-y,-z
x,-y,1/2+z
1/2+x,1/2+y,z
1/2-x,1/2+y,1/2-z
1/2-x,1/2-y,-z
1/2+x,1/2-y,1/2+z
loop_
_atom_site_type_symbol
_atom_site_label
_atom_site_fract_x
_atom_site_fract_y
_atom_site_fract_z
Si Si1 0.856112 0.494360 0.923338
Si Si2 0.100164 0.540596 0.851547
Si Si3 0.650457 0.188370 0.406502
Si Si4 0.347894 0.570765 0.732954
Si Si5 0.092021 0.806449 0.155343
Si Si6 0.842676 0.805012 0.645782
O O1 0.861868 0.567234 0.811685
O O2 0.905137 0.353821 0.836343
O O3 0.895465 0.596490 0.943138
O O4 0.757643 0.448131 0.100999
O O5 0.154009 0.418222 0.814280
O O6 0.108206 0.669379 0.906791
O O7 0.000000 0.500000 0.000000
O O8 0.624663 0.324946 0.392509
O O9 0.742052 0.218575 0.319039
O O10 0.381950 0.623628 0.784227
O O11 0.379580 0.424978 0.653804
O O12 0.000000 0.847196 0.250000
O O13 0.155072 0.839068 0.971053
#
# Coordination Sequence:
#
# PCOD9303020 Si02
#       6
#     8   8   8   8   8   8
#     4  11  23  41  73  94 136 180 233 280 346 413
#     4  12  25  43  70 102 136 180 235 286 342 418
#     4  11  22  41  68 102 128 180 230 282 334 418
#     4  11  24  42  70  98 135 178 229 286 343 411
#     4  12  23  41  66  95 134 184 226 276 355 412
#     4  11  24  43  66  98 137 173 230 286 344 413
#
# _framework density 22.490693
#
# number of rings (size 3 to 8) (size 9 to 14) (size 15 to 20)
#    0.000    0.667    5.000    3.500    0.000    4.667 
#    0.000    0.000    0.000    0.000    0.000    0.000 
#    0.000    0.000    0.000    0.000    0.000    0.000 
#
# Total GULP energy -134050.901527 kJ/mol
# GULP energy per Si atom -5585.454230 kJ/mol
# Density = 2.243950 g / cm^3
# Si number density = 22.490693 Si / 1000 Ang^3
#
#
#
# Elastic Constant Matrix: (Units=GPa)
#
#
# Indices 1 2 3 4 5 6 
#
# 1 90.9665 27.7758 6.1134 0.0000 -3.1530 0.0000
# 2 27.7758 90.0140 -3.8933 0.0001 -27.9939 0.0000
# 3 6.1134 -3.8933 32.3406 0.0000 -6.7629 0.0000
# 4 0.0000 0.0001 0.0000 13.4686 -0.0001 7.3546
# 5 -3.1530 -27.9939 -6.7629 -0.0001 28.5937 0.0000
# 6 0.0000 0.0000 0.0000 7.3546 0.0000 34.9555
#
#
#
# Elastic Compliance Matrix: (Units=1/GPa)
#
#
# Indices 1 2 3 4 5 6 
#
# 1 0.012860 -0.005781 -0.004223 0.000000 -0.005240 0.000000
# 2 -0.005781 0.019544 0.007694 0.000000 0.020317 0.000000
# 3 -0.004223 0.007694 0.035899 0.000000 0.015557 0.000000
# 4 0.000000 0.000000 0.000000 0.083884 0.000000 -0.017649
# 5 -0.005240 0.020317 0.015557 0.000000 0.057965 0.000000
# 6 0.000000 0.000000 0.000000 -0.017649 0.000000 0.032321
#
#
# Mechanical properties :
#
#
# Convention : Reuss Voigt Hill
#
# Bulk Modulus (GPa) = 15.70237 30.36812 23.03524
# Shear Modulus (GPa) = 18.63450 27.62526 23.12988
#
# Velocity S-wave (km/s) = 2.88156 3.50851 3.21038
# Velocity P-wave (km/s) = 4.25066 5.47217 4.89963
#
# Compressibility (1/GPa) = 0.06368467
#
# Stress axis : x y z
#
# Youngs Moduli (GPa) = 77.75904 51.16610 27.85627
#
# Poissons Ratio (x) = 0.29577 0.11763
# Poissons Ratio (y) = 0.44949 -0.21432
# Poissons Ratio (z) = 0.32834 -0.39367
#
# Static dielectric constant tensor:
#      x y z
#    x 1.844620 0.000000 -0.018450 
#    y 0.000000 1.807660 0.000000 
#    z -0.018450 0.000000 1.955420 
# 
# From -- ./inp_files/176911.got.cif
#   From: 2010.05.17/outbox.cif.g08.bks.cpg/sg15_89_cif.got.tgz:176911.got - 2010.06.03 18:47:42.
