data_PCOD9303129
_publ_section_title
;
Structure prediction by ZEFSAII (Michael W. Deem and Ramdas Pophale) SiO2 
 PCOD9303129
Probable space group: C 2/C
;
_chemical_formula_sum "Si O2"
_cell_formula_units_Z 56
_cell_length_a 9.997214
_cell_length_b 25.576356
_cell_length_c 12.381592
_cell_angle_alpha 90.000000
_cell_angle_beta 57.461661
_cell_angle_gamma 90.000000
_cell_volume 2668.935421
_symmetry_space_group_name_H-M "C 2/C"
_symmetry_group_IT_number 15
_symmetry_cell_setting 'monoclinic'
loop_
_space_group_symop_operation_xyz
x,y,z
-x,y,1/2-z
-x,-y,-z
x,-y,1/2+z
1/2+x,1/2+y,z
1/2-x,1/2+y,1/2-z
1/2-x,1/2-y,-z
1/2+x,1/2-y,1/2+z
loop_
_atom_site_type_symbol
_atom_site_label
_atom_site_fract_x
_atom_site_fract_y
_atom_site_fract_z
Si Si1 0.124521 0.580507 0.508527
Si Si2 0.954669 0.317230 0.148103
Si Si3 0.046945 0.057025 0.023891
Si Si4 0.096178 0.141889 0.816959
Si Si5 0.706420 0.922758 0.728799
Si Si6 0.933310 0.249640 0.956468
Si Si7 0.500000 0.167839 0.250000
Si Si8 0.500000 0.986816 0.250000
O O1 0.297388 0.561482 0.470775
O O2 0.117678 0.574613 0.382754
O O3 0.084288 0.640506 0.552597
O O4 0.008394 0.547882 0.638317
O O5 0.781165 0.344567 0.217117
O O6 0.000000 0.303298 0.250000
O O7 0.949482 0.267810 0.072016
O O8 0.893992 0.077149 0.155639
O O9 0.079018 0.095177 0.908897
O O10 0.000000 0.000000 0.000000
O O11 0.000000 0.128791 0.750000
O O12 0.014891 0.194674 0.897512
O O13 0.648054 0.871715 0.689567
O O14 0.648767 0.974245 0.690857
O O15 0.009083 0.294689 0.848778
O O16 0.750000 0.250000 0.000000
#
# Coordination Sequence:
#
# PCOD9303129 Si02
#       8
#     8   8   8   8   8   8   4   4
#     4  12  23  46  69  97 146 191 237 303 373 432
#     4  12  25  47  76 108 152 195 240 306 379 449
#     4  12  26  48  66 102 148 190 248 305 368 446
#     4  12  26  45  78 110 143 197 249 304 375 449
#     4  11  25  40  69 103 137 185 242 301 372 427
#     4  12  23  46  76 110 146 190 244 305 366 453
#     4  11  22  42  68 106 140 178 231 302 366 438
#     4  11  22  42  66  98 136 184 243 294 362 444
#
# _framework density 20.982149
#
# number of rings (size 3 to 8) (size 9 to 14) (size 15 to 20)
#    0.000    0.286    7.143    1.714    0.000    1.714 
#    0.000    0.000    0.000    0.000    0.000    0.000 
#    0.000    0.000    0.000    0.000    0.000    0.000 
#
# Total GULP energy -156612.330400 kJ/mol
# GULP energy per Si atom -5593.297514 kJ/mol
# Density = 2.093439 g / cm^3
# Si number density = 20.982149 Si / 1000 Ang^3
#
#
#
# Elastic Constant Matrix: (Units=GPa)
#
#
# Indices 1 2 3 4 5 6 
#
# 1 76.5296 -4.6923 -9.7065 0.0000 0.3708 0.0000
# 2 -4.6923 77.9058 -2.0707 0.0000 6.9474 0.0000
# 3 -9.7065 -2.0707 62.7282 0.0000 19.7056 0.0000
# 4 0.0000 0.0000 0.0000 18.2759 0.0000 7.7908
# 5 0.3708 6.9474 19.7056 0.0000 50.6835 0.0000
# 6 0.0000 0.0000 0.0000 7.7908 0.0000 25.4547
#
#
#
# Elastic Compliance Matrix: (Units=1/GPa)
#
#
# Indices 1 2 3 4 5 6 
#
# 1 0.013449 0.000983 0.002491 0.000000 -0.001202 0.000000
# 2 0.000983 0.013137 0.001314 0.000000 -0.002319 0.000000
# 3 0.002491 0.001314 0.018719 0.000000 -0.007476 0.000000
# 4 0.000000 0.000000 0.000000 0.062927 0.000000 -0.019260
# 5 -0.001202 -0.002319 -0.007476 0.000000 0.022964 0.000000
# 6 0.000000 0.000000 0.000000 -0.019260 0.000000 0.045180
#
#
# Mechanical properties :
#
#
# Convention : Reuss Voigt Hill
#
# Bulk Modulus (GPa) = 18.22069 20.46941 19.34505
# Shear Modulus (GPa) = 27.01347 34.45837 30.73592
#
# Velocity S-wave (km/s) = 3.59200 4.05689 3.83150
# Velocity P-wave (km/s) = 5.08980 5.63217 5.36784
#
# Compressibility (1/GPa) = 0.05488267
#
# Stress axis : x y z
#
# Youngs Moduli (GPa) = 74.35549 76.12106 53.42079
#
# Poissons Ratio (x) = -0.07486 -0.13307
# Poissons Ratio (y) = -0.07312 -0.07021
# Poissons Ratio (z) = -0.18522 -0.10005
#
# Static dielectric constant tensor:
#      x y z
#    x 1.762600 0.000000 -0.040100 
#    y 0.000000 1.741910 0.000000 
#    z -0.040100 0.000000 1.866050 
# 
# From -- ./inp_files/81307.got.cif
#   From: 2010.05.17/outbox.cif.g08.bks.cpg/sg15_41_cif.got.tgz:81307.got - 2010.06.03 18:47:42.
