data_PCOD9303274
_publ_section_title
;
Structure prediction by ZEFSAII (Michael W. Deem and Ramdas Pophale) SiO2 
 PCOD9303274
Probable space group: C 2/C
;
_chemical_formula_sum "Si O2"
_cell_formula_units_Z 44
_cell_length_a 28.427556
_cell_length_b 13.287633
_cell_length_c 16.634573
_cell_angle_alpha 90.000000
_cell_angle_beta 159.558854
_cell_angle_gamma 90.000000
_cell_volume 2194.467057
_symmetry_space_group_name_H-M "C 2/C"
_symmetry_group_IT_number 15
_symmetry_cell_setting 'monoclinic'
loop_
_space_group_symop_operation_xyz
x,y,z
-x,y,1/2-z
-x,-y,-z
x,-y,1/2+z
1/2+x,1/2+y,z
1/2-x,1/2+y,1/2-z
1/2-x,1/2-y,-z
1/2+x,1/2-y,1/2+z
loop_
_atom_site_type_symbol
_atom_site_label
_atom_site_fract_x
_atom_site_fract_y
_atom_site_fract_z
Si Si1 0.706878 0.101093 0.422593
Si Si2 0.500000 0.069927 0.750000
Si Si3 0.549627 0.763733 0.201269
Si Si4 0.896983 0.605081 0.982325
Si Si5 0.232548 0.770196 0.334513
Si Si6 0.252925 0.884505 0.087928
O O1 0.781253 0.140392 0.621641
O O2 0.750390 0.171879 0.418183
O O3 0.730192 0.986769 0.434931
O O4 0.547057 0.115162 0.185700
O O5 0.439660 0.144462 0.719093
O O6 0.401186 0.994429 0.544646
O O7 0.640523 0.800282 0.272213
O O8 0.610520 0.665924 0.341224
O O9 0.399626 0.746096 0.930449
O O10 0.852774 0.697257 0.968001
O O11 0.791232 0.594566 0.741025
#
# Coordination Sequence:
#
# PCOD9303274 Si02
#       6
#     8   4   8   8   8   8
#     4  11  22  43  66  97 125 178 215 270 316 391
#     4  12  22  40  68  92 126 168 228 246 328 386
#     4  11  23  40  63  99 127 172 208 273 321 384
#     4  12  21  40  68  96 124 173 223 265 308 398
#     4  11  23  39  69  93 136 163 223 263 326 378
#     4  11  23  40  66  92 132 165 219 264 326 379
#
# _framework density 20.050426000000002
#
# number of rings (size 3 to 8) (size 9 to 14) (size 15 to 20)
#    0.000    0.727    5.455    2.727    0.000    0.727 
#    0.000    0.000   32.000    0.000    0.000    0.000 
#    0.000    0.000    0.000    0.000    0.000    0.000 
#
# Total GULP energy -122889.681679 kJ/mol
# GULP energy per Si atom -5585.894622 kJ/mol
# Density = 2.000479 g / cm^3
# Si number density = 20.050426 Si / 1000 Ang^3
#
#
#
# Elastic Constant Matrix: (Units=GPa)
#
#
# Indices 1 2 3 4 5 6 
#
# 1 80.5754 51.4283 28.8826 0.0000 -19.9079 0.0000
# 2 51.4283 118.8866 40.9382 0.0000 -5.7813 0.0000
# 3 28.8826 40.9382 39.5465 0.0000 -17.8979 0.0000
# 4 0.0000 0.0000 0.0000 17.5742 0.0000 5.2205
# 5 -19.9079 -5.7813 -17.8979 0.0000 35.9988 0.0000
# 6 0.0000 0.0000 0.0000 5.2205 0.0000 41.7063
#
#
#
# Elastic Compliance Matrix: (Units=1/GPa)
#
#
# Indices 1 2 3 4 5 6 
#
# 1 0.020322 -0.007088 -0.003786 0.000000 0.008218 0.000000
# 2 -0.007088 0.016619 -0.016250 0.000000 -0.009330 0.000000
# 3 -0.003786 -0.016250 0.055156 0.000000 0.022719 0.000000
# 4 0.000000 0.000000 0.000000 0.059099 0.000000 -0.007398
# 5 0.008218 -0.009330 0.022719 0.000000 0.042120 0.000000
# 6 0.000000 0.000000 0.000000 -0.007398 0.000000 0.024903
#
#
# Mechanical properties :
#
#
# Convention : Reuss Voigt Hill
#
# Bulk Modulus (GPa) = 26.42014 53.50074 39.96044
# Shear Modulus (GPa) = 17.53869 26.90650 22.22259
#
# Velocity S-wave (km/s) = 2.96079 3.66723 3.33278
# Velocity P-wave (km/s) = 4.98937 6.68374 5.89772
#
# Compressibility (1/GPa) = 0.03784992
#
# Stress axis : x y z
#
# Youngs Moduli (GPa) = 49.20780 60.17047 18.13044
#
# Poissons Ratio (x) = 0.42647 0.06863
# Poissons Ratio (y) = 0.34877 0.29463
# Poissons Ratio (z) = 0.18628 0.97779
#
# Static dielectric constant tensor:
#      x y z
#    x 1.758600 0.000000 0.009120 
#    y 0.000000 1.691990 0.000000 
#    z 0.009120 0.000000 1.703680 
# 
# From -- ./inp_files/225228.got.cif
#   From: 2010.05.17/outbox.cif.g08.bks.cpg/sg15_113_cif.got.tgz:225228.got - 2010.06.03 18:47:42.
