data_PCOD9303689
_publ_section_title
;
Structure prediction by ZEFSAII (Michael W. Deem and Ramdas Pophale) SiO2 
 PCOD9303689
Probable space group: C 2/C
;
_chemical_formula_sum "Si O2"
_cell_formula_units_Z 56
_cell_length_a 14.869696
_cell_length_b 29.383217
_cell_length_c 11.058362
_cell_angle_alpha 90.000000
_cell_angle_beta 36.394631
_cell_angle_gamma 90.000000
_cell_volume 2866.806594
_symmetry_space_group_name_H-M "C 2/C"
_symmetry_group_IT_number 15
_symmetry_cell_setting 'monoclinic'
loop_
_space_group_symop_operation_xyz
x,y,z
-x,y,1/2-z
-x,-y,-z
x,-y,1/2+z
1/2+x,1/2+y,z
1/2-x,1/2+y,1/2-z
1/2-x,1/2-y,-z
1/2+x,1/2-y,1/2+z
loop_
_atom_site_type_symbol
_atom_site_label
_atom_site_fract_x
_atom_site_fract_y
_atom_site_fract_z
Si Si1 0.333363 0.790525 0.478354
Si Si2 0.611616 0.779189 0.803167
Si Si3 0.901203 0.952894 0.981534
Si Si4 0.904471 0.053830 0.980385
Si Si5 0.830247 0.858528 0.986908
Si Si6 0.762500 0.312071 0.166889
Si Si7 0.180624 0.143501 0.537766
O O1 0.250000 0.750000 0.500000
O O2 0.337423 0.782338 0.614121
O O3 0.267677 0.839439 0.516239
O O4 0.500000 0.789057 0.250000
O O5 0.653217 0.727016 0.728922
O O6 0.719818 0.815396 0.621840
O O7 0.434656 0.792672 0.980567
O O8 0.000000 0.955121 0.750000
O O9 0.832377 0.003427 0.069738
O O10 0.797680 0.909339 0.067404
O O11 0.997524 0.942365 0.000780
O O12 0.805279 0.098824 0.062086
O O13 0.000000 0.052568 0.750000
O O14 0.796845 0.825411 0.136172
O O15 0.000000 0.855814 0.750000
O O16 0.746010 0.357427 0.103303
O O17 0.000000 0.151197 0.750000
#
# Coordination Sequence:
#
# PCOD9303689 Si02
#       7
#     8   8   8   8   8   8   8
#     4  12  23  40  58  87 118 164 201 250 308 363
#     4  12  25  41  61  85 126 162 208 250 301 364
#     4   9  19  34  60  93 124 153 197 253 306 361
#     4   9  18  37  59  90 125 156 195 251 309 360
#     4  11  23  35  63  92 124 153 203 250 306 361
#     4  12  25  42  59  88 123 164 204 251 299 365
#     4  11  24  39  65  88 118 160 205 251 303 356
#
# _framework density 19.533930999999999
#
# number of rings (size 3 to 8) (size 9 to 14) (size 15 to 20)
#    0.000    1.143    2.857    3.857    8.000    0.000 
#    0.000    0.000    0.000    2.571    0.000    0.000 
#    0.000    0.000    0.000    0.000    0.000    0.000 
#
# Total GULP energy -155984.619948 kJ/mol
# GULP energy per Si atom -5570.879284 kJ/mol
# Density = 1.948947 g / cm^3
# Si number density = 19.533931 Si / 1000 Ang^3
#
#
#
# Elastic Constant Matrix: (Units=GPa)
#
#
# Indices 1 2 3 4 5 6 
#
# 1 106.6360 34.1195 14.8038 0.0000 9.7323 0.0000
# 2 34.1195 128.8214 19.3556 0.0000 -10.4000 0.0000
# 3 14.8038 19.3556 75.6902 0.0000 -2.0747 0.0000
# 4 0.0000 0.0000 0.0000 17.3226 0.0000 6.0652
# 5 9.7323 -10.4000 -2.0747 0.0000 37.5807 0.0000
# 6 0.0000 0.0000 0.0000 6.0652 0.0000 39.1412
#
#
#
# Elastic Compliance Matrix: (Units=1/GPa)
#
#
# Indices 1 2 3 4 5 6 
#
# 1 0.010867 -0.002957 -0.001471 0.000000 -0.003714 0.000000
# 2 -0.002957 0.009050 -0.001649 0.000000 0.003179 0.000000
# 3 -0.001471 -0.001649 0.013940 0.000000 0.000694 0.000000
# 4 0.000000 0.000000 0.000000 0.061040 0.000000 -0.009458
# 5 -0.003714 0.003179 0.000694 0.000000 0.028489 0.000000
# 6 0.000000 0.000000 0.000000 -0.009458 0.000000 0.027014
#
#
# Mechanical properties :
#
#
# Convention : Reuss Voigt Hill
#
# Bulk Modulus (GPa) = 46.07532 49.74505 47.91018
# Shear Modulus (GPa) = 29.44831 35.00015 32.22423
#
# Velocity S-wave (km/s) = 3.88693 4.23751 4.06600
# Velocity P-wave (km/s) = 6.61686 7.03301 6.82811
#
# Compressibility (1/GPa) = 0.02170359
#
# Stress axis : x y z
#
# Youngs Moduli (GPa) = 92.02180 110.49366 71.73528
#
# Poissons Ratio (x) = 0.32673 0.10553
# Poissons Ratio (y) = 0.27211 0.11828
# Poissons Ratio (z) = 0.13537 0.18219
#
# Static dielectric constant tensor:
#      x y z
#    x -8.599220 0.000000 -8.229750 
#    y 0.000000 1.774000 0.000000 
#    z -8.229750 0.000000 -4.864590 
# 
# From -- ./inp_files/101744.got.cif
#   From: 2010.05.17/outbox.cif.g08.bks.cpg/sg15_51_cif.got.tgz:101744.got - 2010.06.03 18:47:42.
