data_PCOD9303921
_publ_section_title
;
Structure prediction by ZEFSAII (Michael W. Deem and Ramdas Pophale) SiO2 
 PCOD9303921
Probable space group: C 2/C
;
_chemical_formula_sum "Si O2"
_cell_formula_units_Z 44
_cell_length_a 11.068999
_cell_length_b 24.557263
_cell_length_c 9.028021
_cell_angle_alpha 90.000000
_cell_angle_beta 124.437370
_cell_angle_gamma 90.000000
_cell_volume 2023.953239
_symmetry_space_group_name_H-M "C 2/C"
_symmetry_group_IT_number 15
_symmetry_cell_setting 'monoclinic'
loop_
_space_group_symop_operation_xyz
x,y,z
-x,y,1/2-z
-x,-y,-z
x,-y,1/2+z
1/2+x,1/2+y,z
1/2-x,1/2+y,1/2-z
1/2-x,1/2-y,-z
1/2+x,1/2-y,1/2+z
loop_
_atom_site_type_symbol
_atom_site_label
_atom_site_fract_x
_atom_site_fract_y
_atom_site_fract_z
Si Si1 0.313716 0.455208 0.261628
Si Si2 0.000000 0.728734 0.750000
Si Si3 0.732134 0.181404 0.377772
Si Si4 0.806633 0.652664 0.823208
Si Si5 0.552332 0.726906 0.585057
Si Si6 0.355935 0.435075 0.939106
O O1 0.192883 0.410319 0.219129
O O2 0.467371 0.438662 0.447417
O O3 0.288417 0.516899 0.293222
O O4 0.328346 0.448171 0.094211
O O5 0.103573 0.690246 0.724916
O O6 0.927250 0.766604 0.576477
O O7 0.657374 0.163611 0.480188
O O8 0.628589 0.220008 0.209070
O O9 0.790234 0.123894 0.353326
O O10 0.881799 0.216787 0.502622
O O11 0.640016 0.674324 0.699473
#
# Coordination Sequence:
#
# PCOD9303921 Si02
#       6
#     8   4   8   8   8   8
#     4   9  18  35  62  89 126 156 209 261 323 365
#     4  12  28  40  58  94 138 166 212 260 330 382
#     4  11  24  40  71  91 130 169 224 253 320 382
#     4  11  23  41  63  93 127 169 212 263 313 383
#     4  12  24  43  61  94 128 174 210 266 315 385
#     4   9  18  36  59  97 121 158 206 269 312 375
#
# _framework density 21.739633000000001
#
# number of rings (size 3 to 8) (size 9 to 14) (size 15 to 20)
#    0.000    1.455    3.636    1.636    2.545    1.455 
#    0.000    0.000    0.000    9.818    0.000    0.000 
#    0.000    0.000    0.000    0.000    0.000    0.000 
#
# Total GULP energy -122887.290379 kJ/mol
# GULP energy per Si atom -5585.785926 kJ/mol
# Density = 2.169015 g / cm^3
# Si number density = 21.739633 Si / 1000 Ang^3
#
#
#
# Elastic Constant Matrix: (Units=GPa)
#
#
# Indices 1 2 3 4 5 6 
#
# 1 48.9357 -1.2699 0.9265 0.0000 2.8972 0.0000
# 2 -1.2699 172.4792 37.4776 0.0000 4.3939 0.0000
# 3 0.9265 37.4776 83.3683 0.0000 -4.6457 0.0000
# 4 0.0000 0.0000 0.0000 32.8640 0.0000 -3.9328
# 5 2.8972 4.3939 -4.6457 0.0000 29.7634 0.0000
# 6 0.0000 0.0000 0.0000 -3.9328 0.0000 31.9358
#
#
#
# Elastic Compliance Matrix: (Units=1/GPa)
#
#
# Indices 1 2 3 4 5 6 
#
# 1 0.020578 0.000311 -0.000487 0.000000 -0.002125 0.000000
# 2 0.000311 0.006489 -0.003002 0.000000 -0.001457 0.000000
# 3 -0.000487 -0.003002 0.013495 0.000000 0.002597 0.000000
# 4 0.000000 0.000000 0.000000 0.030884 0.000000 0.003803
# 5 -0.002125 -0.001457 0.002597 0.000000 0.034426 0.000000
# 6 0.000000 0.000000 0.000000 0.003803 0.000000 0.031781
#
#
# Mechanical properties :
#
#
# Convention : Reuss Voigt Hill
#
# Bulk Modulus (GPa) = 29.23378 42.11684 35.67531
# Shear Modulus (GPa) = 32.17296 36.75591 34.46444
#
# Velocity S-wave (km/s) = 3.85115 4.11631 3.98594
# Velocity P-wave (km/s) = 5.76642 6.48131 6.13429
#
# Compressibility (1/GPa) = 0.03420701
#
# Stress axis : x y z
#
# Youngs Moduli (GPa) = 48.59533 154.09525 74.10376
#
# Poissons Ratio (x) = -0.04800 0.03610
# Poissons Ratio (y) = -0.01514 0.22246
# Poissons Ratio (z) = 0.02367 0.46259
#
# Static dielectric constant tensor:
#      x y z
#    x 1.812210 0.000000 0.013520 
#    y 0.000000 1.802570 0.000000 
#    z 0.013520 0.000000 1.817970 
# 
# From -- ./inp_files/34481.got.cif
#   From: 2010.05.17/outbox.cif.g08.bks.cpg/sg15_18_cif.got.tgz:34481.got - 2010.06.03 18:47:42.
