data_PCOD9303557
_publ_section_title
;
Structure prediction by ZEFSAII (Michael W. Deem and Ramdas Pophale) SiO2 
 PCOD9303557
Probable space group: C 2/C
;
_chemical_formula_sum "Si O2"
_cell_formula_units_Z 64
_cell_length_a 11.815466
_cell_length_b 13.946820
_cell_length_c 30.698621
_cell_angle_alpha 90.000000
_cell_angle_beta 33.825915
_cell_angle_gamma 90.000000
_cell_volume 2816.072544
_symmetry_space_group_name_H-M "C 2/C"
_symmetry_group_IT_number 15
_symmetry_cell_setting 'monoclinic'
loop_
_space_group_symop_operation_xyz
x,y,z
-x,y,1/2-z
-x,-y,-z
x,-y,1/2+z
1/2+x,1/2+y,z
1/2-x,1/2+y,1/2-z
1/2-x,1/2-y,-z
1/2+x,1/2-y,1/2+z
loop_
_atom_site_type_symbol
_atom_site_label
_atom_site_fract_x
_atom_site_fract_y
_atom_site_fract_z
Si Si1 0.716677 0.999221 0.792721
Si Si2 0.111797 0.209867 0.256818
Si Si3 0.695936 0.761012 0.659492
Si Si4 0.218576 0.738672 0.437620
Si Si5 0.515272 0.648945 0.843664
Si Si6 0.987872 0.119511 0.953506
Si Si7 0.194759 0.537447 0.119284
Si Si8 0.552020 0.858483 0.069530
O O1 0.799827 0.895965 0.779793
O O2 0.538989 0.987532 0.813772
O O3 0.895638 0.061839 0.713793
O O4 0.590842 0.053512 0.871117
O O5 0.296129 0.276751 0.212696
O O6 0.000000 0.250519 0.250000
O O7 0.928600 0.207303 0.349242
O O8 0.500000 0.736949 0.750000
O O9 0.663089 0.701463 0.625694
O O10 0.705812 0.872055 0.646930
O O11 0.894719 0.729476 0.620752
O O12 0.061329 0.780606 0.452308
O O13 0.273450 0.830069 0.451746
O O14 0.140258 0.652227 0.492998
O O15 0.452618 0.625726 0.913220
O O16 0.176468 0.048331 0.901953
O O17 0.800392 0.074016 0.040442
#
# Coordination Sequence:
#
# PCOD9303557 Si02
#       8
#     8   8   8   8   8   8   8   8
#     4  12  26  45  66 107 137 179 231 290 337 408
#     4  12  25  44  71 100 138 184 230 280 347 415
#     4  12  24  44  68 102 135 186 234 280 343 410
#     4  11  22  45  72 100 133 188 225 277 351 415
#     4  12  26  45  73  99 143 183 228 289 347 408
#     4  11  24  45  71 106 138 176 232 294 349 404
#     4  11  25  43  71 105 138 175 234 298 340 406
#     4  11  24  43  73  95 142 180 227 278 345 414
#
# _framework density 22.726686999999998
#
# number of rings (size 3 to 8) (size 9 to 14) (size 15 to 20)
#    0.000    0.500    7.500    0.000    3.500    1.500 
#    2.250    0.625    0.000    0.000    0.000    0.000 
#    0.000    0.000    0.000    0.000    0.000    0.000 
#
# Total GULP energy -179030.264862 kJ/mol
# GULP energy per Si atom -5594.695777 kJ/mol
# Density = 2.267496 g / cm^3
# Si number density = 22.726687 Si / 1000 Ang^3
#
#
#
# Elastic Constant Matrix: (Units=GPa)
#
#
# Indices 1 2 3 4 5 6 
#
# 1 53.4033 -1.1688 4.6431 -0.0055 4.5441 -0.0296
# 2 -1.1688 48.8291 -3.4330 0.0171 4.4987 0.0852
# 3 4.6431 -3.4330 83.6174 -0.0047 15.8398 -0.0124
# 4 -0.0055 0.0171 -0.0047 56.2766 0.0055 97.4987
# 5 4.5441 4.4987 15.8398 0.0055 33.2358 0.0179
# 6 -0.0296 0.0852 -0.0124 97.4987 0.0179 505.6564
#
#
#
# Elastic Compliance Matrix: (Units=1/GPa)
#
#
# Indices 1 2 3 4 5 6 
#
# 1 0.018994 0.000637 -0.000572 0.000000 -0.002411 0.000001
# 2 0.000637 0.020937 0.001514 0.000000 -0.003643 -0.000003
# 3 -0.000572 0.001514 0.013276 0.000001 -0.006454 0.000000
# 4 0.000000 0.000000 0.000001 0.026683 -0.000002 -0.005145
# 5 -0.002411 -0.003643 -0.006454 -0.000002 0.033987 0.000000
# 6 0.000001 -0.000003 0.000000 -0.005145 0.000000 0.002970
#
#
# Mechanical properties :
#
#
# Convention : Reuss Voigt Hill
#
# Bulk Modulus (GPa) = 17.74168 20.65918 19.20043
# Shear Modulus (GPa) = 37.74261 131.42099 84.58180
#
# Velocity S-wave (km/s) = 4.07961 7.61264 6.10719
# Velocity P-wave (km/s) = 5.47855 9.29407 7.62870
#
# Compressibility (1/GPa) = 0.05636446
#
# Stress axis : x y z
#
# Youngs Moduli (GPa) = 52.64763 47.76262 75.32547
#
# Poissons Ratio (x) = -0.03040 0.04308
# Poissons Ratio (y) = -0.03351 -0.11406
# Poissons Ratio (z) = 0.03011 -0.07233
#
# Static dielectric constant tensor:
#      x y z
#    x 1.822780 0.000000 0.045820 
#    y 0.000000 1.829810 0.000000 
#    z 0.045820 0.000000 1.876840 
# 
# From -- ./inp_files/311166.got.cif
#   From: 2010.05.17/outbox.cif.g08.bks.cpg/sg15_156_cif.got.tgz:311166.got - 2010.06.03 18:47:42.
