data_PCOD9303695
_publ_section_title
;
Structure prediction by ZEFSAII (Michael W. Deem and Ramdas Pophale) SiO2 
 PCOD9303695
Probable space group: C 2/C
;
_chemical_formula_sum "Si O2"
_cell_formula_units_Z 32
_cell_length_a 13.780557
_cell_length_b 14.497873
_cell_length_c 9.588862
_cell_angle_alpha 90.000000
_cell_angle_beta 44.360904
_cell_angle_gamma 90.000000
_cell_volume 1339.443592
_symmetry_space_group_name_H-M "C 2/C"
_symmetry_group_IT_number 15
_symmetry_cell_setting 'monoclinic'
loop_
_space_group_symop_operation_xyz
x,y,z
-x,y,1/2-z
-x,-y,-z
x,-y,1/2+z
1/2+x,1/2+y,z
1/2-x,1/2+y,1/2-z
1/2-x,1/2-y,-z
1/2+x,1/2-y,1/2+z
loop_
_atom_site_type_symbol
_atom_site_label
_atom_site_fract_x
_atom_site_fract_y
_atom_site_fract_z
Si Si1 0.714707 0.337389 0.130608
Si Si2 0.145210 0.301250 0.213620
Si Si3 0.224294 0.960424 0.536177
Si Si4 0.497954 0.626299 0.059727
O O1 0.791932 0.316922 0.197213
O O2 0.757796 0.432956 0.015058
O O3 0.557047 0.360401 0.344561
O O4 0.750000 0.250000 0.000000
O O5 0.019790 0.231376 0.368771
O O6 0.250000 0.250000 0.000000
O O7 0.143327 0.401109 0.145050
O O8 0.148999 0.922730 0.755639
O O9 0.108793 0.931875 0.537573
#
# Coordination Sequence:
#
# PCOD9303695 Si02
#       4
#     8   8   8   8
#     4  11  23  36  58  95 128 156 202 260 307 362
#     4   9  20  38  61  88 121 159 202 254 309 361
#     4   9  19  37  60  90 119 158 206 253 302 364
#     4   9  19  38  63  87 116 162 208 248 301 367
#
# _framework density 23.890516000000002
#
# number of rings (size 3 to 8) (size 9 to 14) (size 15 to 20)
#    0.000    2.500    0.000    2.250    0.000   13.000 
#    0.000    1.250    0.000   12.000    0.000    0.000 
#    0.000    0.000    0.000    0.000    0.000    0.000 
#
# Total GULP energy -89234.398436 kJ/mol
# GULP energy per Si atom -5577.149902 kJ/mol
# Density = 2.383614 g / cm^3
# Si number density = 23.890516 Si / 1000 Ang^3
#
#
#
# Elastic Constant Matrix: (Units=GPa)
#
#
# Indices 1 2 3 4 5 6 
#
# 1 89.8142 46.6874 43.5757 0.0000 8.9478 0.0000
# 2 46.6874 262.7819 98.7234 0.0000 16.4046 0.0000
# 3 43.5757 98.7234 129.7096 0.0000 30.1194 0.0000
# 4 0.0000 0.0000 0.0000 53.6308 0.0000 4.2143
# 5 8.9478 16.4046 30.1194 0.0000 22.3706 0.0000
# 6 0.0000 0.0000 0.0000 4.2143 0.0000 26.1583
#
#
#
# Elastic Compliance Matrix: (Units=1/GPa)
#
#
# Indices 1 2 3 4 5 6 
#
# 1 0.013483 -0.000950 -0.003951 0.000000 0.000624 0.000000
# 2 -0.000950 0.005476 -0.004371 0.000000 0.002249 0.000000
# 3 -0.003951 -0.004371 0.016371 0.000000 -0.017255 0.000000
# 4 0.000000 0.000000 0.000000 0.018885 0.000000 -0.003043
# 5 0.000624 0.002249 -0.017255 0.000000 0.066035 0.000000
# 6 0.000000 0.000000 0.000000 -0.003043 0.000000 0.038719
#
#
# Mechanical properties :
#
#
# Convention : Reuss Voigt Hill
#
# Bulk Modulus (GPa) = 59.57780 95.58651 77.58215
# Shear Modulus (GPa) = 27.30635 39.98655 33.64645
#
# Velocity S-wave (km/s) = 3.38446 4.09558 3.75688
# Velocity P-wave (km/s) = 6.34545 7.90330 7.16683
#
# Compressibility (1/GPa) = 0.01678478
#
# Stress axis : x y z
#
# Youngs Moduli (GPa) = 74.16824 182.61881 61.08522
#
# Poissons Ratio (x) = 0.17347 0.24137
# Poissons Ratio (y) = 0.07045 0.26700
# Poissons Ratio (z) = 0.29307 0.79822
#
# Static dielectric constant tensor:
#      x y z
#    x 2.071420 0.000000 0.009230 
#    y 0.000000 1.974290 0.000000 
#    z 0.009230 0.000000 1.925770 
# 
# From -- ./inp_files/46578.got.cif
#   From: 2010.05.17/outbox.cif.g08.bks.cpg/sg15_24_cif.got.tgz:46578.got - 2010.06.03 18:47:42.
