data_PCOD9303363
_publ_section_title
;
Structure prediction by ZEFSAII (Michael W. Deem and Ramdas Pophale) SiO2 
 PCOD9303363
Probable space group: C 2/C
;
_chemical_formula_sum "Si O2"
_cell_formula_units_Z 56
_cell_length_a 22.894532
_cell_length_b 9.024401
_cell_length_c 17.343262
_cell_angle_alpha 90.000000
_cell_angle_beta 49.064236
_cell_angle_gamma 90.000000
_cell_volume 2706.970858
_symmetry_space_group_name_H-M "C 2/C"
_symmetry_group_IT_number 15
_symmetry_cell_setting 'monoclinic'
loop_
_space_group_symop_operation_xyz
x,y,z
-x,y,1/2-z
-x,-y,-z
x,-y,1/2+z
1/2+x,1/2+y,z
1/2-x,1/2+y,1/2-z
1/2-x,1/2-y,-z
1/2+x,1/2-y,1/2+z
loop_
_atom_site_type_symbol
_atom_site_label
_atom_site_fract_x
_atom_site_fract_y
_atom_site_fract_z
Si Si1 0.956196 0.938024 0.658587
Si Si2 0.165985 0.150015 0.365553
Si Si3 0.537146 0.254335 0.085523
Si Si4 0.618068 0.199446 0.671883
Si Si5 0.753824 0.636313 0.816366
Si Si6 0.400366 0.777999 0.493043
Si Si7 0.000000 0.500000 0.000000
Si Si8 0.000000 0.455560 0.750000
O O1 0.894142 0.922456 0.643419
O O2 0.918907 0.851313 0.763423
O O3 0.031849 0.844794 0.568974
O O4 0.982133 0.105270 0.650067
O O5 0.118407 0.186114 0.483154
O O6 0.197710 0.296727 0.296414
O O7 0.234194 0.034936 0.321897
O O8 0.544073 0.151419 0.153798
O O9 0.501193 0.156040 0.048161
O O10 0.695563 0.167122 0.651486
O O11 0.624982 0.201345 0.574258
O O12 0.558103 0.066707 0.743723
O O13 0.672712 0.720359 0.896216
O O14 0.435670 0.927608 0.496541
#
# Coordination Sequence:
#
# PCOD9303363 Si02
#       8
#     8   8   8   8   8   8   4   4
#     4  11  22  43  74  98 137 179 244 287 338 413
#     4  11  25  45  65 103 136 185 235 287 350 418
#     4  12  25  42  69 106 133 180 231 299 343 411
#     4  11  24  46  68 104 140 188 230 290 358 426
#     4  11  27  42  69  98 146 184 232 287 357 427
#     4  12  22  44  71 104 137 189 230 292 349 423
#     4  12  24  40  78 100 142 174 244 298 338 408
#     4  12  26  42  70 104 136 178 238 286 356 414
#
# _framework density 20.687331
#
# number of rings (size 3 to 8) (size 9 to 14) (size 15 to 20)
#    0.000    0.571    5.714    1.714    6.000    1.143 
#    0.000    0.714    0.000    0.000    0.000    0.000 
#    0.000    0.000    0.000    0.000    0.000    0.000 
#
# Total GULP energy -156144.941650 kJ/mol
# GULP energy per Si atom -5576.605059 kJ/mol
# Density = 2.064025 g / cm^3
# Si number density = 20.687331 Si / 1000 Ang^3
#
#
#
# Elastic Constant Matrix: (Units=GPa)
#
#
# Indices 1 2 3 4 5 6 
#
# 1 79.9105 33.8694 16.2278 0.0002 -2.2166 -0.0003
# 2 33.8694 116.7257 22.7881 0.0005 9.7252 -0.0006
# 3 16.2278 22.7881 60.1201 0.0000 4.9936 -0.0002
# 4 0.0002 0.0005 0.0000 31.6352 0.0000 0.2548
# 5 -2.2166 9.7252 4.9936 0.0000 20.8590 0.0001
# 6 -0.0003 -0.0006 -0.0002 0.2548 0.0001 31.3464
#
#
#
# Elastic Compliance Matrix: (Units=1/GPa)
#
#
# Indices 1 2 3 4 5 6 
#
# 1 0.014957 -0.004139 -0.002816 0.000000 0.004194 0.000000
# 2 -0.004139 0.010662 -0.002525 0.000000 -0.004806 0.000000
# 3 -0.002816 -0.002525 0.018648 0.000000 -0.003587 0.000000
# 4 0.000000 0.000000 0.000000 0.031612 0.000000 -0.000257
# 5 0.004194 -0.004806 -0.003587 0.000000 0.051486 0.000000
# 6 0.000000 0.000000 0.000000 -0.000257 0.000000 0.031904
#
#
# Mechanical properties :
#
#
# Convention : Reuss Voigt Hill
#
# Bulk Modulus (GPa) = 39.51687 44.72521 42.12104
# Shear Modulus (GPa) = 26.78594 29.02619 27.90606
#
# Velocity S-wave (km/s) = 3.60224 3.74985 3.67678
# Velocity P-wave (km/s) = 6.03696 6.35728 6.19919
#
# Compressibility (1/GPa) = 0.02530565
#
# Stress axis : x y z
#
# Youngs Moduli (GPa) = 66.85960 93.79532 53.62379
#
# Poissons Ratio (x) = 0.38826 0.15103
# Poissons Ratio (y) = 0.27676 0.13538
# Poissons Ratio (z) = 0.18831 0.23680
#
# Static dielectric constant tensor:
#      x y z
#    x 1.722290 0.000000 0.005070 
#    y 0.000000 1.743140 0.000000 
#    z 0.005070 0.000000 1.770040 
# 
# From -- ./inp_files/218545.got.cif
#   From: 2010.05.17/outbox.cif.g08.bks.cpg/sg15_110_cif.got.tgz:218545.got - 2010.06.03 18:47:42.
