data_PCOD9303153
_publ_section_title
;
Structure prediction by ZEFSAII (Michael W. Deem and Ramdas Pophale) SiO2 
 PCOD9303153
Probable space group: C 2/C
;
_chemical_formula_sum "Si O2"
_cell_formula_units_Z 32
_cell_length_a 15.663283
_cell_length_b 7.909615
_cell_length_c 11.253834
_cell_angle_alpha 90.000000
_cell_angle_beta 107.886388
_cell_angle_gamma 90.000000
_cell_volume 1326.856131
_symmetry_space_group_name_H-M "C 2/C"
_symmetry_group_IT_number 15
_symmetry_cell_setting 'monoclinic'
loop_
_space_group_symop_operation_xyz
x,y,z
-x,y,1/2-z
-x,-y,-z
x,-y,1/2+z
1/2+x,1/2+y,z
1/2-x,1/2+y,1/2-z
1/2-x,1/2-y,-z
1/2+x,1/2-y,1/2+z
loop_
_atom_site_type_symbol
_atom_site_label
_atom_site_fract_x
_atom_site_fract_y
_atom_site_fract_z
Si Si1 0.199578 0.849144 0.717222
Si Si2 0.739012 0.946556 0.060838
Si Si3 0.404254 0.577941 0.987353
Si Si4 0.909765 0.389253 0.153656
O O1 0.227363 0.732943 0.618323
O O2 0.132971 0.728777 0.762495
O O3 0.274593 0.911395 0.841109
O O4 0.153850 0.023857 0.652860
O O5 0.839353 0.990917 0.058594
O O6 0.664553 0.984584 0.929300
O O7 0.500000 0.500000 0.000000
O O8 0.425597 0.761714 0.049730
O O9 0.000000 0.462887 0.250000
#
# Coordination Sequence:
#
# PCOD9303153 Si02
#       4
#     8   8   8   8
#     4  11  22  43  66  98 130 165 224 270 324 388
#     4  11  24  41  72  96 130 176 215 271 328 384
#     4  11  22  42  68  95 128 170 220 270 326 386
#     4  11  23  43  65  95 133 174 216 267 328 386
#
# _framework density 24.117158
#
# number of rings (size 3 to 8) (size 9 to 14) (size 15 to 20)
#    0.000    1.000    2.500    6.750    0.000    1.000 
#    0.000    1.250    0.000    0.000    0.000    0.000 
#    0.000    0.000    0.000    0.000    0.000    0.000 
#
# Total GULP energy -89315.402421 kJ/mol
# GULP energy per Si atom -5582.212651 kJ/mol
# Density = 2.406227 g / cm^3
# Si number density = 24.117158 Si / 1000 Ang^3
#
#
#
# Elastic Constant Matrix: (Units=GPa)
#
#
# Indices 1 2 3 4 5 6 
#
# 1 116.8307 49.2220 64.6831 0.0000 26.3538 0.0000
# 2 49.2220 82.3255 34.1684 0.0000 14.3887 0.0000
# 3 64.6831 34.1684 144.6798 0.0000 24.5313 0.0000
# 4 0.0000 0.0000 0.0000 57.1679 0.0000 -4.0733
# 5 26.3538 14.3887 24.5313 0.0000 38.4929 0.0000
# 6 0.0000 0.0000 0.0000 -4.0733 0.0000 29.3843
#
#
#
# Elastic Compliance Matrix: (Units=1/GPa)
#
#
# Indices 1 2 3 4 5 6 
#
# 1 0.014608 -0.006097 -0.004240 0.000000 -0.005020 0.000000
# 2 -0.006097 0.016413 -0.000917 0.000000 -0.001377 0.000000
# 3 -0.004240 -0.000917 0.009500 0.000000 -0.002809 0.000000
# 4 0.000000 0.000000 0.000000 0.017667 0.000000 0.002449
# 5 -0.005020 -0.001377 -0.002809 0.000000 0.031720 0.000000
# 6 0.000000 0.000000 0.000000 0.002449 0.000000 0.034371
#
#
# Mechanical properties :
#
#
# Convention : Reuss Voigt Hill
#
# Bulk Modulus (GPa) = 55.51242 71.10922 63.31082
# Shear Modulus (GPa) = 32.72422 38.05985 35.39204
#
# Velocity S-wave (km/s) = 3.68759 3.97687 3.83496
# Velocity P-wave (km/s) = 6.41863 7.11591 6.77625
#
# Compressibility (1/GPa) = 0.01801399
#
# Stress axis : x y z
#
# Youngs Moduli (GPa) = 68.45669 60.92574 105.26138
#
# Poissons Ratio (x) = 0.37145 0.44628
# Poissons Ratio (y) = 0.41737 0.09653
# Poissons Ratio (z) = 0.29024 0.05587
#
# Static dielectric constant tensor:
#      x y z
#    x 1.911360 0.000000 -0.074810 
#    y 0.000000 1.996350 0.000000 
#    z -0.074810 0.000000 2.071330 
# 
# From -- ./inp_files/93421.got.cif
#   From: 2010.05.17/outbox.cif.g08.bks.cpg/sg15_47_cif.got.tgz:93421.got - 2010.06.03 18:47:42.
