data_PCOD9303961
_publ_section_title
;
Structure prediction by ZEFSAII (Michael W. Deem and Ramdas Pophale) SiO2 
 PCOD9303961
Probable space group: C 2/C
;
_chemical_formula_sum "Si O2"
_cell_formula_units_Z 40
_cell_length_a 15.639977
_cell_length_b 17.822326
_cell_length_c 11.472503
_cell_angle_alpha 90.000000
_cell_angle_beta 140.421583
_cell_angle_gamma 90.000000
_cell_volume 2037.460734
_symmetry_space_group_name_H-M "C 2/C"
_symmetry_group_IT_number 15
_symmetry_cell_setting 'monoclinic'
loop_
_space_group_symop_operation_xyz
x,y,z
-x,y,1/2-z
-x,-y,-z
x,-y,1/2+z
1/2+x,1/2+y,z
1/2-x,1/2+y,1/2-z
1/2-x,1/2-y,-z
1/2+x,1/2-y,1/2+z
loop_
_atom_site_type_symbol
_atom_site_label
_atom_site_fract_x
_atom_site_fract_y
_atom_site_fract_z
Si Si1 0.276746 0.776316 0.340534
Si Si2 0.158194 0.135815 0.936945
Si Si3 0.375937 0.246251 0.547625
Si Si4 0.514266 0.120158 0.565160
Si Si5 0.116815 0.523528 0.275081
O O1 0.220776 0.821743 0.391321
O O2 0.313211 0.692942 0.424895
O O3 0.406980 0.817040 0.425145
O O4 0.168752 0.778865 0.123298
O O5 0.000000 0.125614 0.750000
O O6 0.242828 0.059409 0.039063
O O7 0.500000 0.280416 0.750000
O O8 0.250000 0.250000 0.500000
O O9 0.421307 0.162410 0.559704
O O10 0.429233 0.071460 0.385349
O O11 0.615643 0.062875 0.734672
O O12 0.000000 0.532666 0.250000
#
# Coordination Sequence:
#
# PCOD9303961 Si02
#       5
#     8   8   8   8   8
#     4  11  23  41  67 102 133 177 221 289 339 392
#     4  11  24  40  70 101 137 167 231 292 336 390
#     4  12  24  39  64  97 138 176 223 273 332 399
#     4  11  23  42  66  97 134 181 229 268 331 418
#     4  11  23  42  68  94 132 183 229 269 338 406
#
# _framework density 19.632280000000002
#
# number of rings (size 3 to 8) (size 9 to 14) (size 15 to 20)
#    0.000    0.800    6.000    1.800    2.800    0.000 
#    0.000    2.000    0.000    0.000    0.000    0.000 
#    0.000    0.000    0.000    0.000    0.000    0.000 
#
# Total GULP energy -111686.759659 kJ/mol
# GULP energy per Si atom -5584.337983 kJ/mol
# Density = 1.958760 g / cm^3
# Si number density = 19.632280 Si / 1000 Ang^3
#
#
#
# Elastic Constant Matrix: (Units=GPa)
#
#
# Indices 1 2 3 4 5 6 
#
# 1 121.9681 48.1640 40.5393 0.0000 9.1158 0.0000
# 2 48.1640 72.7678 8.5634 0.0000 4.5796 0.0000
# 3 40.5393 8.5634 95.6374 0.0000 1.5974 0.0000
# 4 0.0000 0.0000 0.0000 23.6541 0.0000 -3.5111
# 5 9.1158 4.5796 1.5974 0.0000 42.1377 0.0000
# 6 0.0000 0.0000 0.0000 -3.5111 0.0000 31.0601
#
#
#
# Elastic Compliance Matrix: (Units=1/GPa)
#
#
# Indices 1 2 3 4 5 6 
#
# 1 0.013078 -0.007979 -0.004799 0.000000 -0.001780 0.000000
# 2 -0.007979 0.018848 0.001701 0.000000 -0.000387 0.000000
# 3 -0.004799 0.001701 0.012332 0.000000 0.000386 0.000000
# 4 0.000000 0.000000 0.000000 0.042998 0.000000 0.004861
# 5 -0.001780 -0.000387 0.000386 0.000000 0.024144 0.000000
# 6 0.000000 0.000000 0.000000 0.004861 0.000000 0.032745
#
#
# Mechanical properties :
#
#
# Convention : Reuss Voigt Hill
#
# Bulk Modulus (GPa) = 45.24367 53.87853 49.56110
# Shear Modulus (GPa) = 28.79068 32.24417 30.51743
#
# Velocity S-wave (km/s) = 3.83364 4.05706 3.94693
# Velocity P-wave (km/s) = 6.53386 7.03205 6.78753
#
# Compressibility (1/GPa) = 0.02210254
#
# Stress axis : x y z
#
# Youngs Moduli (GPa) = 76.46377 53.05629 81.09123
#
# Poissons Ratio (x) = 0.42336 0.38919
# Poissons Ratio (y) = 0.61013 -0.13795
# Poissons Ratio (z) = 0.36698 -0.09026
#
# Static dielectric constant tensor:
#      x y z
#    x 1.679580 0.000000 -0.032080 
#    y 0.000000 1.687820 0.000000 
#    z -0.032080 0.000000 1.743970 
# 
# From -- ./inp_files/38948.got.cif
#   From: 2010.05.17/outbox.cif.g08.bks.cpg/sg15_20_cif.got.tgz:38948.got - 2010.06.03 18:47:42.
