data_PCOD9303642
_publ_section_title
;
Structure prediction by ZEFSAII (Michael W. Deem and Ramdas Pophale) SiO2 
 PCOD9303642
Probable space group: C 2/C
;
_chemical_formula_sum "Si O2"
_cell_formula_units_Z 60
_cell_length_a 18.078812
_cell_length_b 8.976329
_cell_length_c 22.377303
_cell_angle_alpha 90.000000
_cell_angle_beta 51.137663
_cell_angle_gamma 90.000000
_cell_volume 2827.625554
_symmetry_space_group_name_H-M "C 2/C"
_symmetry_group_IT_number 15
_symmetry_cell_setting 'monoclinic'
loop_
_space_group_symop_operation_xyz
x,y,z
-x,y,1/2-z
-x,-y,-z
x,-y,1/2+z
1/2+x,1/2+y,z
1/2-x,1/2+y,1/2-z
1/2-x,1/2-y,-z
1/2+x,1/2-y,1/2+z
loop_
_atom_site_type_symbol
_atom_site_label
_atom_site_fract_x
_atom_site_fract_y
_atom_site_fract_z
Si Si1 0.790696 0.076793 0.858825
Si Si2 0.821151 0.030994 0.652986
Si Si3 0.500000 0.613629 0.750000
Si Si4 0.798604 0.126063 0.038804
Si Si5 0.699367 0.103291 0.501089
Si Si6 0.495504 0.712954 0.618684
Si Si7 0.990218 0.459827 0.075238
Si Si8 0.302584 0.795238 0.207996
O O1 0.759957 0.228821 0.909487
O O2 0.766927 0.123190 0.803863
O O3 0.900242 0.031590 0.808442
O O4 0.731308 0.945042 0.918417
O O5 0.919501 0.104954 0.624919
O O6 0.735729 0.146410 0.709543
O O7 0.823075 0.975546 0.583853
O O8 0.799126 0.880421 0.701094
O O9 0.490185 0.700840 0.692866
O O10 0.898255 0.175316 0.958455
O O11 0.735454 0.029334 0.025839
O O12 0.750000 0.250000 0.500000
O O13 0.586400 0.108550 0.553499
O O14 0.471322 0.881166 0.614425
O O15 0.905133 0.349958 0.134348
O O16 0.000000 0.500000 0.000000
#
# Coordination Sequence:
#
# PCOD9303642 Si02
#       8
#     8   8   4   8   8   8   8   8
#     4  11  22  47  67  99 135 192 229 294 355 430
#     4  11  25  43  70 105 136 191 232 305 351 439
#     4  12  24  40  78  98 136 182 244 286 354 432
#     4  11  24  45  69  99 142 180 239 284 349 444
#     4  12  26  42  70 104 139 180 235 300 361 416
#     4  12  24  44  76 102 136 190 244 286 362 433
#     4  12  25  44  71 102 139 189 231 302 366 438
#     4  11  24  43  69  99 143 176 243 287 368 427
#
# _framework density 21.219218000000001
#
# number of rings (size 3 to 8) (size 9 to 14) (size 15 to 20)
#    0.000    0.533    5.333    3.200    5.600    1.067 
#    0.000    0.000    0.000    0.000    0.000    0.000 
#    0.000    0.000    0.000    0.000    0.000    0.000 
#
# Total GULP energy -167754.437814 kJ/mol
# GULP energy per Si atom -5591.814594 kJ/mol
# Density = 2.117092 g / cm^3
# Si number density = 21.219218 Si / 1000 Ang^3
#
#
#
# Elastic Constant Matrix: (Units=GPa)
#
#
# Indices 1 2 3 4 5 6 
#
# 1 105.0035 24.9979 13.5315 0.0000 -16.0263 0.0001
# 2 24.9979 42.7387 6.6992 0.0001 7.6190 0.0003
# 3 13.5315 6.6992 82.3134 0.0000 -2.6378 0.0000
# 4 0.0000 0.0001 0.0000 22.0409 0.0000 -0.4310
# 5 -16.0263 7.6190 -2.6378 0.0000 44.6083 0.0000
# 6 0.0001 0.0003 0.0000 -0.4310 0.0000 32.8064
#
#
#
# Elastic Compliance Matrix: (Units=1/GPa)
#
#
# Indices 1 2 3 4 5 6 
#
# 1 0.012511 -0.008166 -0.001206 0.000000 0.005818 0.000000
# 2 -0.008166 0.029831 -0.001345 0.000000 -0.008108 0.000000
# 3 -0.001206 -0.001345 0.012473 0.000000 0.000534 0.000000
# 4 0.000000 0.000000 0.000000 0.045382 0.000000 0.000596
# 5 0.005818 -0.008108 0.000534 0.000000 0.025924 0.000000
# 6 0.000000 0.000000 0.000000 0.000596 0.000000 0.030490
#
#
# Mechanical properties :
#
#
# Convention : Reuss Voigt Hill
#
# Bulk Modulus (GPa) = 29.95674 35.61252 32.78463
# Shear Modulus (GPa) = 26.43108 32.21291 29.32199
#
# Velocity S-wave (km/s) = 3.53316 3.90051 3.72137
# Velocity P-wave (km/s) = 5.54912 6.09138 5.82656
#
# Compressibility (1/GPa) = 0.03338147
#
# Stress axis : x y z
#
# Youngs Moduli (GPa) = 79.93045 33.52267 80.17000
#
# Poissons Ratio (x) = 0.27374 0.09665
# Poissons Ratio (y) = 0.65270 0.10785
# Poissons Ratio (z) = 0.09637 0.04510
#
# Static dielectric constant tensor:
#      x y z
#    x 1.777250 0.000000 0.014510 
#    y 0.000000 1.724070 0.000000 
#    z 0.014510 0.000000 1.791380 
# 
# From -- ./inp_files/247817.got.cif
#   From: 2010.05.17/outbox.cif.g08.bks.cpg/sg15_124_cif.got.tgz:247817.got - 2010.06.03 18:47:42.
