data_PCOD9303373
_publ_section_title
;
Structure prediction by ZEFSAII (Michael W. Deem and Ramdas Pophale) SiO2 
 PCOD9303373
Probable space group: C 2/C
;
_chemical_formula_sum "Si O2"
_cell_formula_units_Z 56
_cell_length_a 24.637081
_cell_length_b 4.862772
_cell_length_c 18.548884
_cell_angle_alpha 90.000000
_cell_angle_beta 86.293750
_cell_angle_gamma 90.000000
_cell_volume 2217.592262
_symmetry_space_group_name_H-M "C 2/C"
_symmetry_group_IT_number 15
_symmetry_cell_setting 'monoclinic'
loop_
_space_group_symop_operation_xyz
x,y,z
-x,y,1/2-z
-x,-y,-z
x,-y,1/2+z
1/2+x,1/2+y,z
1/2-x,1/2+y,1/2-z
1/2-x,1/2-y,-z
1/2+x,1/2-y,1/2+z
loop_
_atom_site_type_symbol
_atom_site_label
_atom_site_fract_x
_atom_site_fract_y
_atom_site_fract_z
Si Si1 0.948804 0.398722 0.435189
Si Si2 0.364595 0.980048 0.331524
Si Si3 0.396712 0.572983 0.006397
Si Si4 0.568713 0.139613 0.864003
Si Si5 0.227811 0.129720 0.211317
Si Si6 0.062379 0.854589 0.268200
Si Si7 0.290226 0.352028 0.435023
O O1 0.910981 0.318317 0.370890
O O2 0.930583 0.707099 0.455416
O O3 0.010332 0.355775 0.408363
O O4 0.931925 0.202523 0.502174
O O5 0.329902 0.786264 0.282301
O O6 0.395517 0.237101 0.293430
O O7 0.320137 0.102130 0.390832
O O8 0.389934 0.724370 0.083192
O O9 0.339510 0.505755 0.974103
O O10 0.564533 0.333491 0.794228
O O11 0.577328 0.834131 0.835680
O O12 0.231210 0.860071 0.261260
O O13 0.235505 0.030011 0.127915
O O14 0.000000 0.794122 0.250000
O O15 0.250000 0.250000 0.500000
#
# Coordination Sequence:
#
# PCOD9303373 Si02
#       7
#     8   8   8   8   8   8   8
#     4  11  22  43  76 102 149 192 247 303 376 448
#     4  11  26  49  76 108 149 203 251 313 390 456
#     4  11  24  45  72 108 147 198 251 315 375 441
#     4  12  25  43  71 114 149 197 253 306 364 462
#     4  12  26  51  81 115 149 197 257 331 395 463
#     4  12  27  44  73 107 155 201 247 300 376 459
#     4  11  27  52  81 109 151 203 263 321 394 460
#
# _framework density 25.252611999999999
#
# number of rings (size 3 to 8) (size 9 to 14) (size 15 to 20)
#    0.000    0.571    4.286    3.000    4.000    1.714 
#    2.571    0.000    0.000    0.000    0.000    0.000 
#    0.000    0.000    0.000    0.000    0.000    0.000 
#
# Total GULP energy -156889.759574 kJ/mol
# GULP energy per Si atom -5603.205699 kJ/mol
# Density = 2.519514 g / cm^3
# Si number density = 25.252612 Si / 1000 Ang^3
#
#
#
# Elastic Constant Matrix: (Units=GPa)
#
#
# Indices 1 2 3 4 5 6 
#
# 1 105.2853 32.9096 60.9233 0.0000 4.0678 0.0000
# 2 32.9096 103.8112 22.7990 0.0000 -1.7841 0.0000
# 3 60.9233 22.7990 123.8099 0.0000 -1.5284 0.0000
# 4 0.0000 0.0000 0.0000 40.6491 0.0000 8.4133
# 5 4.0678 -1.7841 -1.5284 0.0000 52.5582 0.0000
# 6 0.0000 0.0000 0.0000 8.4133 0.0000 30.8004
#
#
#
# Elastic Compliance Matrix: (Units=1/GPa)
#
#
# Indices 1 2 3 4 5 6 
#
# 1 0.014270 -0.003128 -0.006463 0.000000 -0.001399 0.000000
# 2 -0.003128 0.010729 -0.000429 0.000000 0.000594 0.000000
# 3 -0.006463 -0.000429 0.011346 0.000000 0.000816 0.000000
# 4 0.000000 0.000000 0.000000 0.026075 0.000000 -0.007123
# 5 -0.001399 0.000594 0.000816 0.000000 0.019179 0.000000
# 6 0.000000 0.000000 0.000000 -0.007123 0.000000 0.034413
#
#
# Mechanical properties :
#
#
# Convention : Reuss Voigt Hill
#
# Bulk Modulus (GPa) = 61.33316 62.90778 62.12047
# Shear Modulus (GPa) = 35.33913 39.21984 37.27949
#
# Velocity S-wave (km/s) = 3.74495 3.94521 3.84638
# Velocity P-wave (km/s) = 6.56049 6.76154 6.66178
#
# Compressibility (1/GPa) = 0.01630439
#
# Stress axis : x y z
#
# Youngs Moduli (GPa) = 70.07911 93.20522 88.13567
#
# Poissons Ratio (x) = 0.29158 0.56961
# Poissons Ratio (y) = 0.21923 0.03781
# Poissons Ratio (z) = 0.45291 0.03999
#
# Static dielectric constant tensor:
#      x y z
#    x 1.974300 0.000000 0.058450 
#    y 0.000000 1.967050 0.000000 
#    z 0.058450 0.000000 2.072530 
# 
# From -- ./inp_files/221210.got.cif
#   From: 2010.05.17/outbox.cif.g08.bks.cpg/sg15_111_cif.got.tgz:221210.got - 2010.06.03 18:47:42.
