data_PCOD9303922
_publ_section_title
;
Structure prediction by ZEFSAII (Michael W. Deem and Ramdas Pophale) SiO2 
 PCOD9303922
Probable space group: C 2/C
;
_chemical_formula_sum "Si O2"
_cell_formula_units_Z 40
_cell_length_a 22.979378
_cell_length_b 8.702941
_cell_length_c 8.531087
_cell_angle_alpha 90.000000
_cell_angle_beta 99.788891
_cell_angle_gamma 90.000000
_cell_volume 1681.276934
_symmetry_space_group_name_H-M "C 2/C"
_symmetry_group_IT_number 15
_symmetry_cell_setting 'monoclinic'
loop_
_space_group_symop_operation_xyz
x,y,z
-x,y,1/2-z
-x,-y,-z
x,-y,1/2+z
1/2+x,1/2+y,z
1/2-x,1/2+y,1/2-z
1/2-x,1/2-y,-z
1/2+x,1/2-y,1/2+z
loop_
_atom_site_type_symbol
_atom_site_label
_atom_site_fract_x
_atom_site_fract_y
_atom_site_fract_z
Si Si1 0.348952 0.963945 0.040591
Si Si2 0.834440 0.190906 0.258891
Si Si3 0.379878 0.766746 0.755004
Si Si4 0.782699 0.927472 0.053493
Si Si5 0.045253 0.035760 0.155336
O O1 0.335867 0.859016 0.187200
O O2 0.387103 0.107231 0.120968
O O3 0.376704 0.858064 0.917819
O O4 0.285509 0.030803 0.958410
O O5 0.793406 0.140280 0.385039
O O6 0.898823 0.141395 0.348179
O O7 0.817153 0.085847 0.101408
O O8 0.316445 0.685292 0.690016
O O9 0.426752 0.627625 0.775939
O O10 0.000000 0.118215 0.250000
O O11 0.000000 0.000000 0.000000
#
# Coordination Sequence:
#
# PCOD9303922 Si02
#       5
#     8   8   8   8   8
#     4  12  24  42  65  97 135 167 203 264 317 374
#     4  11  23  41  66  97 126 169 218 256 311 384
#     4  11  25  43  65  98 129 168 216 257 314 384
#     4  11  23  41  63  95 135 172 205 248 313 392
#     4  11  23  45  69  89 120 166 216 269 317 372
#
# _framework density 23.791439
#
# number of rings (size 3 to 8) (size 9 to 14) (size 15 to 20)
#    0.000    0.800    0.000    9.600    0.000    4.800 
#    0.000    5.000    0.000    0.000    0.000    0.000 
#    0.000    0.000    0.000    0.000    0.000    0.000 
#
# Total GULP energy -111846.801135 kJ/mol
# GULP energy per Si atom -5592.340057 kJ/mol
# Density = 2.373729 g / cm^3
# Si number density = 23.791439 Si / 1000 Ang^3
#
#
#
# Elastic Constant Matrix: (Units=GPa)
#
#
# Indices 1 2 3 4 5 6 
#
# 1 87.0705 12.9525 16.0532 0.0000 10.5158 0.0000
# 2 12.9525 129.0652 30.7442 0.0000 10.2932 0.0000
# 3 16.0532 30.7442 79.8246 0.0000 9.4999 0.0000
# 4 0.0000 0.0000 0.0000 51.4237 0.0000 -0.1312
# 5 10.5158 10.2932 9.4999 0.0000 42.1450 0.0000
# 6 0.0000 0.0000 0.0000 -0.1312 0.0000 20.3026
#
#
#
# Elastic Compliance Matrix: (Units=1/GPa)
#
#
# Indices 1 2 3 4 5 6 
#
# 1 0.012227 -0.000566 -0.001946 0.000000 -0.002474 0.000000
# 2 -0.000566 0.008636 -0.003060 0.000000 -0.001278 0.000000
# 3 -0.001946 -0.003060 0.014335 0.000000 -0.001998 0.000000
# 4 0.000000 0.000000 0.000000 0.019447 0.000000 0.000126
# 5 -0.002474 -0.001278 -0.001998 0.000000 0.025107 0.000000
# 6 0.000000 0.000000 0.000000 0.000126 0.000000 0.049256
#
#
# Mechanical properties :
#
#
# Convention : Reuss Voigt Hill
#
# Bulk Modulus (GPa) = 41.57555 46.16221 43.86888
# Shear Modulus (GPa) = 33.74499 38.52161 36.13330
#
# Velocity S-wave (km/s) = 3.77021 4.02822 3.90134
# Velocity P-wave (km/s) = 6.03867 6.40940 6.22679
#
# Compressibility (1/GPa) = 0.02405260
#
# Stress axis : x y z
#
# Youngs Moduli (GPa) = 81.78757 115.79848 69.75790
#
# Poissons Ratio (x) = 0.06555 0.13578
# Poissons Ratio (y) = 0.04630 0.21346
# Poissons Ratio (z) = 0.15919 0.35435
#
# Static dielectric constant tensor:
#      x y z
#    x 1.823250 0.000000 -0.031910 
#    y 0.000000 1.939060 0.000000 
#    z -0.031910 0.000000 1.920170 
# 
# From -- ./inp_files/59955.got.cif
#   From: 2010.05.17/outbox.cif.g08.bks.cpg/sg15_30_cif.got.tgz:59955.got - 2010.06.03 18:47:42.
