data_PCOD9303785
_publ_section_title
;
Structure prediction by ZEFSAII (Michael W. Deem and Ramdas Pophale) SiO2 
 PCOD9303785
Probable space group: C 2/C
;
_chemical_formula_sum "Si O2"
_cell_formula_units_Z 40
_cell_length_a 26.144050
_cell_length_b 7.602018
_cell_length_c 9.831758
_cell_angle_alpha 90.000000
_cell_angle_beta 98.979642
_cell_angle_gamma 90.000000
_cell_volume 1930.088747
_symmetry_space_group_name_H-M "C 2/C"
_symmetry_group_IT_number 15
_symmetry_cell_setting 'monoclinic'
loop_
_space_group_symop_operation_xyz
x,y,z
-x,y,1/2-z
-x,-y,-z
x,-y,1/2+z
1/2+x,1/2+y,z
1/2-x,1/2+y,1/2-z
1/2-x,1/2-y,-z
1/2+x,1/2-y,1/2+z
loop_
_atom_site_type_symbol
_atom_site_label
_atom_site_fract_x
_atom_site_fract_y
_atom_site_fract_z
Si Si1 0.605471 0.616002 0.052699
Si Si2 0.681362 0.035860 0.221588
Si Si3 0.558668 0.346876 0.824375
Si Si4 0.782479 0.179768 0.384676
Si Si5 0.888205 0.493407 0.046563
O O1 0.571578 0.482479 0.950080
O O2 0.592359 0.819030 0.003454
O O3 0.593508 0.604020 0.207659
O O4 0.666564 0.571971 0.050492
O O5 0.690019 0.835388 0.184417
O O6 0.739112 0.104199 0.267229
O O7 0.650005 0.047906 0.347333
O O8 0.646116 0.104014 0.083666
O O9 0.500000 0.358130 0.750000
O O10 0.571740 0.148603 0.879614
O O11 0.750000 0.250000 0.500000
#
# Coordination Sequence:
#
# PCOD9303785 Si02
#       5
#     8   8   8   8   8
#     4  11  27  46  68 106 140 176 233 288 340 414
#     4  11  23  41  65 101 139 181 222 276 342 416
#     4  12  28  48  73 100 132 187 238 291 350 392
#     4  11  23  39  64 100 136 176 219 266 345 410
#     4  11  24  47  68 100 143 177 231 284 343 409
#
# _framework density 20.724437000000002
#
# number of rings (size 3 to 8) (size 9 to 14) (size 15 to 20)
#    0.000    0.800    8.000    0.600    8.400    2.400 
#    0.000    0.000    0.000    0.000    0.000    0.000 
#    0.000    0.000    0.000    0.000    0.000    0.000 
#
# Total GULP energy -111615.832236 kJ/mol
# GULP energy per Si atom -5580.791612 kJ/mol
# Density = 2.067727 g / cm^3
# Si number density = 20.724437 Si / 1000 Ang^3
#
#
#
# Elastic Constant Matrix: (Units=GPa)
#
#
# Indices 1 2 3 4 5 6 
#
# 1 69.7958 -5.4399 3.6930 0.0000 21.7657 0.0000
# 2 -5.4399 69.3078 7.3861 0.0000 11.0439 0.0000
# 3 3.6930 7.3861 93.0092 0.0000 3.3429 0.0000
# 4 0.0000 0.0000 0.0000 34.7349 0.0000 15.9102
# 5 21.7657 11.0439 3.3429 0.0000 37.9420 0.0000
# 6 0.0000 0.0000 0.0000 15.9102 0.0000 30.5862
#
#
#
# Elastic Compliance Matrix: (Units=1/GPa)
#
#
# Indices 1 2 3 4 5 6 
#
# 1 0.018142 0.003288 -0.000575 0.000000 -0.011314 0.000000
# 2 0.003288 0.015828 -0.001158 0.000000 -0.006391 0.000000
# 3 -0.000575 -0.001158 0.010877 0.000000 -0.000292 0.000000
# 4 0.000000 0.000000 0.000000 0.037795 0.000000 -0.019660
# 5 -0.011314 -0.006391 -0.000292 0.000000 0.034732 0.000000
# 6 0.000000 0.000000 0.000000 -0.019660 0.000000 0.042921
#
#
# Mechanical properties :
#
#
# Convention : Reuss Voigt Hill
#
# Bulk Modulus (GPa) = 20.85140 27.04348 23.94744
# Shear Modulus (GPa) = 28.87319 35.75085 32.31202
#
# Velocity S-wave (km/s) = 3.73660 4.15789 3.95286
# Velocity P-wave (km/s) = 5.35718 6.01067 5.69331
#
# Compressibility (1/GPa) = 0.04795840
#
# Stress axis : x y z
#
# Youngs Moduli (GPa) = 55.11948 63.17798 91.93816
#
# Poissons Ratio (x) = -0.20773 0.05285
# Poissons Ratio (y) = -0.18124 0.10645
# Poissons Ratio (z) = 0.03168 0.07315
#
# Static dielectric constant tensor:
#      x y z
#    x 1.812680 0.000000 0.077770 
#    y 0.000000 1.836470 0.000000 
#    z 0.077770 0.000000 1.770010 
# 
# From -- ./inp_files/59910.got.cif
#   From: 2010.05.17/outbox.cif.g08.bks.cpg/sg15_30_cif.got.tgz:59910.got - 2010.06.03 18:47:42.
