data_PCOD9303981
_publ_section_title
;
Structure prediction by ZEFSAII (Michael W. Deem and Ramdas Pophale) SiO2 
 PCOD9303981
Probable space group: C 2/C
;
_chemical_formula_sum "Si O2"
_cell_formula_units_Z 56
_cell_length_a 27.032403
_cell_length_b 5.394247
_cell_length_c 17.686207
_cell_angle_alpha 90.000000
_cell_angle_beta 67.390078
_cell_angle_gamma 90.000000
_cell_volume 2380.781145
_symmetry_space_group_name_H-M "C 2/C"
_symmetry_group_IT_number 15
_symmetry_cell_setting 'monoclinic'
loop_
_space_group_symop_operation_xyz
x,y,z
-x,y,1/2-z
-x,-y,-z
x,-y,1/2+z
1/2+x,1/2+y,z
1/2-x,1/2+y,1/2-z
1/2-x,1/2-y,-z
1/2+x,1/2-y,1/2+z
loop_
_atom_site_type_symbol
_atom_site_label
_atom_site_fract_x
_atom_site_fract_y
_atom_site_fract_z
Si Si1 0.759979 0.217613 0.197823
Si Si2 0.172209 0.364446 0.621137
Si Si3 0.871590 0.012138 0.092285
Si Si4 0.036630 0.683427 0.932938
Si Si5 0.019684 0.041994 0.162543
Si Si6 0.643907 0.622950 0.059579
Si Si7 0.419666 0.199962 0.202432
O O1 0.750474 0.491937 0.236704
O O2 0.721014 0.162390 0.150700
O O3 0.821194 0.183334 0.138256
O O4 0.168010 0.632805 0.584438
O O5 0.118510 0.336424 0.704049
O O6 0.174502 0.131764 0.562503
O O7 0.922444 0.175089 0.037874
O O8 0.890600 0.879448 0.158246
O O9 0.857855 0.838341 0.029750
O O10 0.072216 0.549319 0.848885
O O11 0.997467 0.849114 0.907417
O O12 0.000000 0.500000 0.000000
O O13 0.083584 0.064593 0.124657
O O14 0.000000 0.183204 0.250000
O O15 0.978823 0.804682 0.188016
#
# Coordination Sequence:
#
# PCOD9303981 Si02
#       7
#     8   8   8   8   8   8   8
#     4  12  26  49  83 108 140 195 255 312 370 435
#     4  12  27  47  74 108 147 190 252 302 367 450
#     4  11  27  46  73 109 147 195 249 313 371 439
#     4  11  24  42  72 103 146 193 255 296 368 453
#     4  11  23  41  68 104 145 197 242 302 371 436
#     4  12  28  46  70 110 155 190 237 310 381 435
#     4  11  23  44  71 103 139 196 255 297 358 455
#
# _framework density 23.52169
#
# number of rings (size 3 to 8) (size 9 to 14) (size 15 to 20)
#    0.000    0.571    2.857    4.286    8.000    4.000 
#    0.000    0.000    0.000    0.000    0.000    0.000 
#    0.000    0.000    0.000    0.000    0.000    0.000 
#
# Total GULP energy -156640.655353 kJ/mol
# GULP energy per Si atom -5594.309120 kJ/mol
# Density = 2.346815 g / cm^3
# Si number density = 23.521690 Si / 1000 Ang^3
#
#
#
# Elastic Constant Matrix: (Units=GPa)
#
#
# Indices 1 2 3 4 5 6 
#
# 1 104.3361 23.2853 -5.1965 0.0000 20.5437 0.0000
# 2 23.2853 89.3449 12.0900 0.0000 10.7657 -0.0004
# 3 -5.1965 12.0900 67.4232 -0.0001 10.2808 0.0000
# 4 0.0000 0.0000 -0.0001 33.2711 0.0000 -1.8787
# 5 20.5437 10.7657 10.2808 0.0000 32.0385 0.0000
# 6 0.0000 -0.0004 0.0000 -1.8787 0.0000 2.7308
#
#
#
# Elastic Compliance Matrix: (Units=1/GPa)
#
#
# Indices 1 2 3 4 5 6 
#
# 1 0.011740 -0.002495 0.002494 0.000000 -0.007490 0.000000
# 2 -0.002495 0.012355 -0.002123 0.000000 -0.001871 0.000002
# 3 0.002494 -0.002123 0.016339 0.000000 -0.006129 0.000000
# 4 0.000000 0.000000 0.000000 0.031271 0.000000 0.021513
# 5 -0.007490 -0.001871 -0.006129 0.000000 0.038611 -0.000001
# 6 0.000000 0.000002 0.000000 0.021513 -0.000001 0.380988
#
#
# Mechanical properties :
#
#
# Convention : Reuss Voigt Hill
#
# Bulk Modulus (GPa) = 27.63281 35.71798 31.67540
# Shear Modulus (GPa) = 9.85003 29.00312 19.42657
#
# Velocity S-wave (km/s) = 2.04859 3.51527 2.87697
# Velocity P-wave (km/s) = 4.16761 5.62977 4.95294
#
# Compressibility (1/GPa) = 0.03618887
#
# Stress axis : x y z
#
# Youngs Moduli (GPa) = 85.17732 80.93608 61.20272
#
# Poissons Ratio (x) = 0.20192 -0.15266
# Poissons Ratio (y) = 0.21250 0.12990
# Poissons Ratio (z) = -0.21246 0.17179
#
# Static dielectric constant tensor:
#      x y z
#    x 2.393520 -0.000010 0.314830 
#    y -0.000010 1.919450 0.000000 
#    z 0.314830 0.000000 2.090830 
# 
# From -- ./inp_files/221230.got.cif
#   From: 2010.05.17/outbox.cif.g08.bks.cpg/sg15_111_cif.got.tgz:221230.got - 2010.06.03 18:47:42.
