data_PCOD9303854
_publ_section_title
;
Structure prediction by ZEFSAII (Michael W. Deem and Ramdas Pophale) SiO2 
 PCOD9303854
Probable space group: C 2/C
;
_chemical_formula_sum "Si O2"
_cell_formula_units_Z 52
_cell_length_a 10.092509
_cell_length_b 20.126468
_cell_length_c 16.161967
_cell_angle_alpha 90.000000
_cell_angle_beta 134.857417
_cell_angle_gamma 90.000000
_cell_volume 2327.148009
_symmetry_space_group_name_H-M "C 2/C"
_symmetry_group_IT_number 15
_symmetry_cell_setting 'monoclinic'
loop_
_space_group_symop_operation_xyz
x,y,z
-x,y,1/2-z
-x,-y,-z
x,-y,1/2+z
1/2+x,1/2+y,z
1/2-x,1/2+y,1/2-z
1/2-x,1/2-y,-z
1/2+x,1/2-y,1/2+z
loop_
_atom_site_type_symbol
_atom_site_label
_atom_site_fract_x
_atom_site_fract_y
_atom_site_fract_z
Si Si1 0.500000 0.208911 0.750000
Si Si2 0.553669 0.372827 0.408563
Si Si3 0.222062 0.478060 0.921063
Si Si4 0.000000 0.235774 0.750000
Si Si5 0.174843 0.452895 0.706359
Si Si6 0.817881 0.872696 0.458619
Si Si7 0.680297 0.690689 0.204159
Si Si8 0.000000 0.983618 0.250000
O O1 0.383737 0.163156 0.633409
O O2 0.364815 0.258011 0.742078
O O3 0.707677 0.401717 0.538210
O O4 0.566759 0.309535 0.356728
O O5 0.373600 0.368742 0.386529
O O6 0.549824 0.435664 0.346810
O O7 0.210602 0.480236 0.815684
O O8 0.319495 0.549137 0.983856
O O9 0.036609 0.476989 0.895274
O O10 0.183192 0.274655 0.801472
O O11 0.204040 0.374083 0.717826
O O12 0.320891 0.477698 0.703264
O O13 0.978853 0.834062 0.579980
#
# Coordination Sequence:
#
# PCOD9303854 Si02
#       8
#     4   8   8   4   8   8   8   4
#     4  12  27  48  68 102 143 190 226 282 342 408
#     4  11  23  43  70  99 135 178 229 290 344 402
#     4  11  23  43  74 101 131 184 228 282 354 408
#     4  11  26  46  70 100 138 183 234 282 344 407
#     4  11  23  42  68 103 140 175 229 284 345 408
#     4  12  24  45  75  98 138 183 235 283 346 416
#     4  12  26  45  71 102 139 189 233 278 338 417
#     4  11  23  40  66 102 137 173 222 298 348 393
#
# _framework density 22.344947000000001
#
# number of rings (size 3 to 8) (size 9 to 14) (size 15 to 20)
#    0.000    0.615    4.615    4.154    0.000    2.462 
#    0.000    1.538    0.000    0.000    0.000    0.000 
#    0.000    0.000    0.000    0.000    0.000    0.000 
#
# Total GULP energy -145023.728396 kJ/mol
# GULP energy per Si atom -5577.835708 kJ/mol
# Density = 2.229409 g / cm^3
# Si number density = 22.344947 Si / 1000 Ang^3
#
#
#
# Elastic Constant Matrix: (Units=GPa)
#
#
# Indices 1 2 3 4 5 6 
#
# 1 119.9308 39.7229 -5.4262 0.0000 12.0765 0.0000
# 2 39.7229 118.7864 23.4024 0.0000 11.2272 0.0000
# 3 -5.4262 23.4024 41.7170 0.0000 12.6109 0.0000
# 4 0.0000 0.0000 0.0000 43.0343 0.0000 -5.0671
# 5 12.0765 11.2272 12.6109 0.0000 28.7499 0.0000
# 6 0.0000 0.0000 0.0000 -5.0671 0.0000 43.8414
#
#
#
# Elastic Compliance Matrix: (Units=1/GPa)
#
#
# Indices 1 2 3 4 5 6 
#
# 1 0.010409 -0.004015 0.005135 0.000000 -0.005057 0.000000
# 2 -0.004015 0.011075 -0.006845 0.000000 0.000364 0.000000
# 3 0.005135 -0.006845 0.032653 0.000000 -0.013807 0.000000
# 4 0.000000 0.000000 0.000000 0.023558 0.000000 0.002723
# 5 -0.005057 0.000364 -0.013807 0.000000 0.042821 0.000000
# 6 0.000000 0.000000 0.000000 0.002723 0.000000 0.023124
#
#
# Mechanical properties :
#
#
# Convention : Reuss Voigt Hill
#
# Bulk Modulus (GPa) = 23.42621 43.98139 33.70380
# Shear Modulus (GPa) = 29.53004 37.97412 33.75208
#
# Velocity S-wave (km/s) = 3.63926 4.12691 3.89073
# Velocity P-wave (km/s) = 5.30713 6.51415 5.94137
#
# Compressibility (1/GPa) = 0.04268724
#
# Stress axis : x y z
#
# Youngs Moduli (GPa) = 96.06713 90.29215 30.62546
#
# Poissons Ratio (x) = 0.36249 -0.15726
# Poissons Ratio (y) = 0.38567 0.20964
# Poissons Ratio (z) = -0.49329 0.61806
#
# Static dielectric constant tensor:
#      x y z
#    x 1.810930 0.000000 0.066630 
#    y 0.000000 1.823270 0.000000 
#    z 0.066630 0.000000 1.805400 
# 
# From -- ./inp_files/192628.got.cif
#   From: 2010.05.17/outbox.cif.g08.bks.cpg/sg15_97_cif.got.tgz:192628.got - 2010.06.03 18:47:42.
