data_PCOD9303414
_publ_section_title
;
Structure prediction by ZEFSAII (Michael W. Deem and Ramdas Pophale) SiO2 
 PCOD9303414
Probable space group: C 2/C
;
_chemical_formula_sum "Si O2"
_cell_formula_units_Z 48
_cell_length_a 5.367967
_cell_length_b 23.456307
_cell_length_c 19.658107
_cell_angle_alpha 90.000000
_cell_angle_beta 57.487487
_cell_angle_gamma 90.000000
_cell_volume 2087.276205
_symmetry_space_group_name_H-M "C 2/C"
_symmetry_group_IT_number 15
_symmetry_cell_setting 'monoclinic'
loop_
_space_group_symop_operation_xyz
x,y,z
-x,y,1/2-z
-x,-y,-z
x,-y,1/2+z
1/2+x,1/2+y,z
1/2-x,1/2+y,1/2-z
1/2-x,1/2-y,-z
1/2+x,1/2-y,1/2+z
loop_
_atom_site_type_symbol
_atom_site_label
_atom_site_fract_x
_atom_site_fract_y
_atom_site_fract_z
Si Si1 0.806087 0.361175 0.440199
Si Si2 0.779124 0.956691 0.335154
Si Si3 0.654232 0.770334 0.301178
Si Si4 0.377410 0.546847 0.965405
Si Si5 0.585329 0.925347 0.861576
Si Si6 0.553439 0.644030 0.369717
O O1 0.529319 0.391034 0.443510
O O2 0.677338 0.348368 0.533550
O O3 0.041154 0.412448 0.398037
O O4 0.957688 0.308208 0.381364
O O5 0.928841 0.976708 0.382992
O O6 0.000000 0.928489 0.250000
O O7 0.652077 0.013381 0.318984
O O8 0.500000 0.775221 0.250000
O O9 0.643787 0.705213 0.328023
O O10 0.000000 0.787865 0.250000
O O11 0.500000 0.500000 0.000000
O O12 0.057125 0.557759 0.044050
O O13 0.875738 0.890205 0.838125
O O14 0.339174 0.889721 0.856708
#
# Coordination Sequence:
#
# PCOD9303414 Si02
#       6
#     8   8   8   8   8   8
#     4  11  25  44  74 105 145 190 244 291 372 441
#     4  12  25  40  68 110 152 185 236 305 377 436
#     4  12  29  50  74 105 149 191 243 317 372 422
#     4  11  22  44  69 103 148 190 237 290 365 444
#     4  11  23  44  73 103 140 193 240 297 357 436
#     4  11  25  48  77  98 139 196 254 292 350 442
#
# _framework density 22.996479000000001
#
# number of rings (size 3 to 8) (size 9 to 14) (size 15 to 20)
#    0.000    0.667    3.333    4.500    4.667    2.000 
#    0.000    5.833    0.000    0.000    0.000    0.000 
#    0.000    0.000    0.000    0.000    0.000    0.000 
#
# Total GULP energy -134214.398054 kJ/mol
# GULP energy per Si atom -5592.266586 kJ/mol
# Density = 2.294414 g / cm^3
# Si number density = 22.996479 Si / 1000 Ang^3
#
#
#
# Elastic Constant Matrix: (Units=GPa)
#
#
# Indices 1 2 3 4 5 6 
#
# 1 100.8898 28.9031 44.2746 0.0000 8.9821 0.0000
# 2 28.9031 108.1131 19.9963 0.0000 1.9132 0.0000
# 3 44.2746 19.9963 109.9013 0.0000 10.1636 0.0000
# 4 0.0000 0.0000 0.0000 33.1948 0.0000 -6.8346
# 5 8.9821 1.9132 10.1636 0.0000 22.0734 0.0000
# 6 0.0000 0.0000 0.0000 -6.8346 0.0000 21.0885
#
#
#
# Elastic Compliance Matrix: (Units=1/GPa)
#
#
# Indices 1 2 3 4 5 6 
#
# 1 0.012859 -0.002564 -0.004439 0.000000 -0.002966 0.000000
# 2 -0.002564 0.010083 -0.000854 0.000000 0.000563 0.000000
# 3 -0.004439 -0.000854 0.011352 0.000000 -0.003347 0.000000
# 4 0.000000 0.000000 0.000000 0.032279 0.000000 0.010461
# 5 -0.002966 0.000563 -0.003347 0.000000 0.048003 0.000000
# 6 0.000000 0.000000 0.000000 0.010461 0.000000 0.050810
#
#
# Mechanical properties :
#
#
# Convention : Reuss Voigt Hill
#
# Bulk Modulus (GPa) = 53.82193 56.13913 54.98053
# Shear Modulus (GPa) = 26.69618 30.32002 28.50810
#
# Velocity S-wave (km/s) = 3.41087 3.63500 3.52472
# Velocity P-wave (km/s) = 6.24238 6.48712 6.36592
#
# Compressibility (1/GPa) = 0.01857979
#
# Stress axis : x y z
#
# Youngs Moduli (GPa) = 77.76896 99.17691 88.08773
#
# Poissons Ratio (x) = 0.25430 0.39105
# Poissons Ratio (y) = 0.19940 0.07520
# Poissons Ratio (z) = 0.34524 0.08466
#
# Static dielectric constant tensor:
#      x y z
#    x 2.003740 0.000000 0.000290 
#    y 0.000000 1.852300 0.000000 
#    z 0.000290 0.000000 1.842720 
# 
# From -- ./inp_files/228030.got.cif
#   From: 2010.05.17/outbox.cif.g08.bks.cpg/sg15_115_cif.got.tgz:228030.got - 2010.06.03 18:47:42.
