data_PCOD9303582
_publ_section_title
;
Structure prediction by ZEFSAII (Michael W. Deem and Ramdas Pophale) SiO2 
 PCOD9303582
Probable space group: C 2/C
;
_chemical_formula_sum "Si O2"
_cell_formula_units_Z 28
_cell_length_a 13.430468
_cell_length_b 19.175560
_cell_length_c 7.985713
_cell_angle_alpha 90.000000
_cell_angle_beta 147.991789
_cell_angle_gamma 90.000000
_cell_volume 1090.089595
_symmetry_space_group_name_H-M "C 2/C"
_symmetry_group_IT_number 15
_symmetry_cell_setting 'monoclinic'
loop_
_space_group_symop_operation_xyz
x,y,z
-x,y,1/2-z
-x,-y,-z
x,-y,1/2+z
1/2+x,1/2+y,z
1/2-x,1/2+y,1/2-z
1/2-x,1/2-y,-z
1/2+x,1/2-y,1/2+z
loop_
_atom_site_type_symbol
_atom_site_label
_atom_site_fract_x
_atom_site_fract_y
_atom_site_fract_z
Si Si1 0.064745 0.288636 0.167098
Si Si2 0.190124 0.842633 0.271425
Si Si3 0.000000 0.051823 0.250000
Si Si4 0.852689 0.454403 0.686348
O O1 0.250000 0.250000 0.500000
O O2 0.141380 0.332287 0.121946
O O3 0.000000 0.325516 0.250000
O O4 0.921037 0.230515 0.890781
O O5 0.252423 0.877116 0.537058
O O6 0.060682 0.899111 0.990744
O O7 0.171941 0.004730 0.432364
O O8 0.000000 0.444523 0.750000
O O9 0.000000 0.500000 0.000000
#
# Coordination Sequence:
#
# PCOD9303582 Si02
#       4
#     8   8   4   8
#     4   9  18  39  73 118 159 202 243 329 397 471
#     4  11  22  45  77 120 158 203 266 312 416 481
#     4  12  24  48  82 112 160 198 270 330 394 472
#     4  12  28  51  77 113 156 216 269 331 394 465
#
# _framework density 25.685962
#
# number of rings (size 3 to 8) (size 9 to 14) (size 15 to 20)
#    0.000    1.143    7.143    0.857    0.000    1.143 
#   10.286    1.429    0.000    0.000    0.000    0.000 
#    0.000    0.000    0.000    0.000    0.000    0.000 
#
# Total GULP energy -77956.842665 kJ/mol
# GULP energy per Si atom -5568.345905 kJ/mol
# Density = 2.562750 g / cm^3
# Si number density = 25.685962 Si / 1000 Ang^3
#
#
#
# Elastic Constant Matrix: (Units=GPa)
#
#
# Indices 1 2 3 4 5 6 
#
# 1 59.2615 51.3375 34.0416 0.0000 19.8102 0.0000
# 2 51.3375 165.5448 92.4653 0.0000 -6.2785 0.0000
# 3 34.0416 92.4653 152.8536 0.0000 15.3469 0.0000
# 4 0.0000 0.0000 0.0000 68.6914 0.0000 -14.0514
# 5 19.8102 -6.2785 15.3469 0.0000 47.8243 0.0000
# 6 0.0000 0.0000 0.0000 -14.0514 0.0000 77.4171
#
#
#
# Elastic Compliance Matrix: (Units=1/GPa)
#
#
# Indices 1 2 3 4 5 6 
#
# 1 0.030048 -0.010437 0.001043 0.000000 -0.014152 0.000000
# 2 -0.010437 0.013206 -0.006481 0.000000 0.008137 0.000000
# 3 0.001043 -0.006481 0.010704 0.000000 -0.004718 0.000000
# 4 0.000000 0.000000 0.000000 0.015119 0.000000 0.002744
# 5 -0.014152 0.008137 -0.004718 0.000000 0.029354 0.000000
# 6 0.000000 0.000000 0.000000 0.002744 0.000000 0.013415
#
#
# Mechanical properties :
#
#
# Convention : Reuss Voigt Hill
#
# Bulk Modulus (GPa) = 45.03158 81.48319 63.25739
# Shear Modulus (GPa) = 33.11253 52.10760 42.61007
#
# Velocity S-wave (km/s) = 3.59434 4.50893 4.07736
# Velocity P-wave (km/s) = 5.89876 7.67457 6.84450
#
# Compressibility (1/GPa) = 0.02220664
#
# Stress axis : x y z
#
# Youngs Moduli (GPa) = 33.28043 75.72240 93.42012
#
# Poissons Ratio (x) = 0.79034 -0.09742
# Poissons Ratio (y) = 0.34736 0.60548
# Poissons Ratio (z) = -0.03471 0.49078
#
# Static dielectric constant tensor:
#      x y z
#    x 1.977740 0.000000 -0.011560 
#    y 0.000000 1.946940 0.000000 
#    z -0.011560 0.000000 2.027410 
# 
# From -- ./inp_files/41133.got.cif
#   From: 2010.05.17/outbox.cif.g08.bks.cpg/sg15_21_cif.got.tgz:41133.got - 2010.06.03 18:47:42.
