data_PCOD9303298
_publ_section_title
;
Structure prediction by ZEFSAII (Michael W. Deem and Ramdas Pophale) SiO2 
 PCOD9303298
Probable space group: C 2/C
;
_chemical_formula_sum "Si O2"
_cell_formula_units_Z 60
_cell_length_a 21.480102
_cell_length_b 24.928997
_cell_length_c 16.104290
_cell_angle_alpha 90.000000
_cell_angle_beta 162.794694
_cell_angle_gamma 90.000000
_cell_volume 2550.796305
_symmetry_space_group_name_H-M "C 2/C"
_symmetry_group_IT_number 15
_symmetry_cell_setting 'monoclinic'
loop_
_space_group_symop_operation_xyz
x,y,z
-x,y,1/2-z
-x,-y,-z
x,-y,1/2+z
1/2+x,1/2+y,z
1/2-x,1/2+y,1/2-z
1/2-x,1/2-y,-z
1/2+x,1/2-y,1/2+z
loop_
_atom_site_type_symbol
_atom_site_label
_atom_site_fract_x
_atom_site_fract_y
_atom_site_fract_z
Si Si1 0.921554 0.876015 0.002617
Si Si2 0.310950 0.970030 0.068077
Si Si3 0.349589 0.739097 0.484204
Si Si4 0.000000 0.047097 0.750000
Si Si5 0.928174 0.388452 0.356981
Si Si6 0.740843 0.200523 0.052458
Si Si7 0.522515 0.601277 0.442219
Si Si8 0.608213 0.777652 0.119107
O O1 0.947203 0.814342 0.065420
O O2 0.674038 0.890932 0.688763
O O3 0.007974 0.888284 0.021478
O O4 0.017145 0.914804 0.192611
O O5 0.500000 0.989830 0.250000
O O6 0.390524 0.919885 0.224340
O O7 0.122379 0.948592 0.769583
O O8 0.205647 0.009950 0.000512
O O9 0.266334 0.780457 0.307245
O O10 0.500000 0.756842 0.750000
O O11 0.118665 0.719627 0.216384
O O12 0.883755 0.324798 0.304304
O O13 0.757106 0.407771 0.206737
O O14 0.909621 0.153167 0.254512
O O15 0.798540 0.226651 0.214974
O O16 0.500000 0.180687 0.750000
O O17 0.750000 0.250000 0.000000
#
# Coordination Sequence:
#
# PCOD9303298 Si02
#       8
#     8   8   8   4   8   8   8   8
#     4  11  26  45  75 100 145 187 246 299 363 419
#     4  12  25  47  75 104 141 180 239 295 373 442
#     4  11  22  43  68  98 140 194 239 301 345 415
#     4  12  28  52  72 104 138 188 244 316 364 418
#     4  11  24  45  70 107 144 185 230 299 353 439
#     4  12  24  37  63 102 147 193 234 283 352 437
#     4  12  23  44  71 103 145 188 232 290 362 429
#     4  11  23  39  64 103 140 184 239 282 354 428
#
# _framework density 23.522065999999999
#
# number of rings (size 3 to 8) (size 9 to 14) (size 15 to 20)
#    0.000    0.533    4.667    4.000    1.867    2.133 
#    0.000    0.000    0.000    0.000    0.000    0.000 
#    0.000    0.000    0.000    0.000    0.000    0.000 
#
# Total GULP energy -167541.778389 kJ/mol
# GULP energy per Si atom -5584.725946 kJ/mol
# Density = 2.346853 g / cm^3
# Si number density = 23.522066 Si / 1000 Ang^3
#
#
#
# Elastic Constant Matrix: (Units=GPa)
#
#
# Indices 1 2 3 4 5 6 
#
# 1 102.0122 10.3724 29.6209 0.0004 6.2524 -0.0001
# 2 10.3724 57.7252 3.4526 0.0002 -13.5487 0.0000
# 3 29.6209 3.4526 66.8464 0.0018 1.2208 -0.0002
# 4 0.0004 0.0002 0.0018 -17.0408 0.0009 6.4093
# 5 6.2524 -13.5487 1.2208 0.0009 46.0035 -0.0001
# 6 -0.0001 0.0000 -0.0002 6.4093 -0.0001 23.9788
#
#
#
# Elastic Compliance Matrix: (Units=1/GPa)
#
#
# Indices 1 2 3 4 5 6 
#
# 1 0.011614 -0.002286 -0.004990 0.000000 -0.002119 0.000000
# 2 -0.002286 0.019135 -0.000084 0.000000 0.005949 0.000000
# 3 -0.004990 -0.000084 0.017171 0.000002 0.000198 0.000000
# 4 0.000000 0.000000 0.000002 -0.053322 0.000001 0.014252
# 5 -0.002119 0.005949 0.000198 0.000001 0.023772 0.000000
# 6 0.000000 0.000000 0.000000 0.014252 0.000000 0.037894
#
#
# Mechanical properties :
#
#
# Convention : Reuss Voigt Hill
#
# Bulk Modulus (GPa) = 30.11895 34.83063 32.47479
# Shear Modulus (GPa) = 60.93774 22.79748 41.86761
#
# Velocity S-wave (km/s) = 5.09538 3.11657 4.22350
# Velocity P-wave (km/s) = 6.88836 5.27166 6.13351
#
# Compressibility (1/GPa) = 0.03320168
#
# Stress axis : x y z
#
# Youngs Moduli (GPa) = 86.10411 52.25914 58.23651
#
# Poissons Ratio (x) = 0.11945 0.29057
# Poissons Ratio (y) = 0.19682 0.00490
# Poissons Ratio (z) = 0.42962 0.00440
#
# Static dielectric constant tensor:
#      x y z
#    x 2.036230 0.000000 0.060510 
#    y 0.000000 1.985930 0.000000 
#    z 0.060510 0.000000 1.894610 
# 
# From -- ./inp_files/169977.got.cif
#   From: 2010.05.17/outbox.cif.g08.bks.cpg/sg15_85_cif.got.tgz:169977.got - 2010.06.03 18:47:42.
