data_PCOD9303247
_publ_section_title
;
Structure prediction by ZEFSAII (Michael W. Deem and Ramdas Pophale) SiO2 
 PCOD9303247
Probable space group: C 2/C
;
_chemical_formula_sum "Si O2"
_cell_formula_units_Z 56
_cell_length_a 6.416799
_cell_length_b 23.081082
_cell_length_c 25.491036
_cell_angle_alpha 90.000000
_cell_angle_beta 43.354506
_cell_angle_gamma 90.000000
_cell_volume 2591.846001
_symmetry_space_group_name_H-M "C 2/C"
_symmetry_group_IT_number 15
_symmetry_cell_setting 'monoclinic'
loop_
_space_group_symop_operation_xyz
x,y,z
-x,y,1/2-z
-x,-y,-z
x,-y,1/2+z
1/2+x,1/2+y,z
1/2-x,1/2+y,1/2-z
1/2-x,1/2-y,-z
1/2+x,1/2-y,1/2+z
loop_
_atom_site_type_symbol
_atom_site_label
_atom_site_fract_x
_atom_site_fract_y
_atom_site_fract_z
Si Si1 0.195505 0.604635 0.921104
Si Si2 0.322425 0.704503 0.162472
Si Si3 0.864909 0.501539 0.431121
Si Si4 0.674965 0.707099 0.463307
Si Si5 0.972992 0.326489 0.372225
Si Si6 0.850519 0.438175 0.330835
Si Si7 0.862960 0.376658 0.583961
O O1 0.496825 0.573606 0.885847
O O2 0.974597 0.553659 0.943462
O O3 0.219561 0.649604 0.869021
O O4 0.036118 0.636228 0.997991
O O5 0.350369 0.721682 0.094618
O O6 0.462108 0.763204 0.161614
O O7 0.526877 0.647813 0.136945
O O8 0.000000 0.696719 0.250000
O O9 0.500000 0.500000 0.500000
O O10 0.930082 0.486028 0.359108
O O11 0.047672 0.557602 0.417554
O O12 0.750000 0.750000 0.500000
O O13 0.356713 0.676999 0.538683
O O14 0.956342 0.663057 0.408772
O O15 0.966161 0.376044 0.329922
O O16 0.000000 0.455299 0.250000
#
# Coordination Sequence:
#
# PCOD9303247 Si02
#       7
#     8   8   8   8   8   8   8
#     4  11  22  42  75 102 132 181 237 298 349 419
#     4  12  29  44  66 107 153 193 237 292 367 433
#     4  11  24  43  75 106 130 184 247 290 353 440
#     4  12  23  43  71 102 136 186 251 289 341 431
#     4  11  23  42  69 103 134 185 240 290 355 435
#     4  11  26  43  70 110 140 172 237 312 372 408
#     4  12  23  44  74  98 143 190 239 290 353 440
#
# _framework density 21.606223
#
# number of rings (size 3 to 8) (size 9 to 14) (size 15 to 20)
#    0.000    0.571    5.714    2.571    2.000    2.286 
#    0.000    4.286    0.000    0.000    0.000    0.000 
#    0.000    0.000    0.000    0.000    0.000    0.000 
#
# Total GULP energy -156190.904087 kJ/mol
# GULP energy per Si atom -5578.246575 kJ/mol
# Density = 2.155705 g / cm^3
# Si number density = 21.606223 Si / 1000 Ang^3
#
#
#
# Elastic Constant Matrix: (Units=GPa)
#
#
# Indices 1 2 3 4 5 6 
#
# 1 83.0247 31.6625 18.6222 0.0000 2.8501 0.0000
# 2 31.6625 101.0478 10.6805 0.0000 -0.5659 0.0000
# 3 18.6222 10.6805 72.2254 0.0000 -1.4911 0.0000
# 4 0.0000 0.0000 0.0000 17.5797 0.0000 -9.6179
# 5 2.8501 -0.5659 -1.4911 0.0000 33.1662 0.0000
# 6 0.0000 0.0000 0.0000 -9.6179 0.0000 24.7889
#
#
#
# Elastic Compliance Matrix: (Units=1/GPa)
#
#
# Indices 1 2 3 4 5 6 
#
# 1 0.014391 -0.004188 -0.003121 0.000000 -0.001448 0.000000
# 2 -0.004188 0.011272 -0.000576 0.000000 0.000526 0.000000
# 3 -0.003121 -0.000576 0.014755 0.000000 0.000922 0.000000
# 4 0.000000 0.000000 0.000000 0.072213 0.000000 0.028018
# 5 -0.001448 0.000526 0.000922 0.000000 0.030326 0.000000
# 6 0.000000 0.000000 0.000000 0.028018 0.000000 0.051212
#
#
# Mechanical properties :
#
#
# Convention : Reuss Voigt Hill
#
# Bulk Modulus (GPa) = 40.57147 42.02537 41.29842
# Shear Modulus (GPa) = 22.91947 28.12912 25.52430
#
# Velocity S-wave (km/s) = 3.26050 3.61210 3.44079
# Velocity P-wave (km/s) = 5.74394 6.07364 5.91109
#
# Compressibility (1/GPa) = 0.02464786
#
# Stress axis : x y z
#
# Youngs Moduli (GPa) = 69.48579 88.71270 67.77567
#
# Poissons Ratio (x) = 0.37150 0.21154
# Poissons Ratio (y) = 0.29098 0.03906
# Poissons Ratio (z) = 0.21688 0.05113
#
# Static dielectric constant tensor:
#      x y z
#    x 1.804690 0.000000 -0.015530 
#    y 0.000000 1.789490 0.000000 
#    z -0.015530 0.000000 1.846650 
# 
# From -- ./inp_files/286653.got.cif
#   From: 2010.05.17/outbox.cif.g08.bks.cpg/sg15_144_cif.got.tgz:286653.got - 2010.06.03 18:47:42.
