data_PCOD9303164
_publ_section_title
;
Structure prediction by ZEFSAII (Michael W. Deem and Ramdas Pophale) SiO2 
 PCOD9303164
Probable space group: C 2/C
;
_chemical_formula_sum "Si O2"
_cell_formula_units_Z 56
_cell_length_a 26.939471
_cell_length_b 5.304784
_cell_length_c 18.358408
_cell_angle_alpha 90.000000
_cell_angle_beta 106.870032
_cell_angle_gamma 90.000000
_cell_volume 2510.660951
_symmetry_space_group_name_H-M "C 2/C"
_symmetry_group_IT_number 15
_symmetry_cell_setting 'monoclinic'
loop_
_space_group_symop_operation_xyz
x,y,z
-x,y,1/2-z
-x,-y,-z
x,-y,1/2+z
1/2+x,1/2+y,z
1/2-x,1/2+y,1/2-z
1/2-x,1/2-y,-z
1/2+x,1/2-y,1/2+z
loop_
_atom_site_type_symbol
_atom_site_label
_atom_site_fract_x
_atom_site_fract_y
_atom_site_fract_z
Si Si1 0.715202 0.006664 0.482547
Si Si2 0.687348 0.033921 0.809967
Si Si3 0.199675 0.846753 0.183381
Si Si4 0.523178 0.945636 0.429503
Si Si5 0.873803 0.535081 0.445335
Si Si6 0.485026 0.555262 0.828885
Si Si7 0.618904 0.308240 0.684078
O O1 0.750000 0.250000 0.500000
O O2 0.750000 0.750000 0.500000
O O3 0.684340 0.016960 0.393698
O O4 0.676204 0.052528 0.532177
O O5 0.743878 0.173930 0.827092
O O6 0.632138 0.148926 0.761523
O O7 0.696234 0.803966 0.757522
O O8 0.152444 0.759010 0.111552
O O9 0.179031 0.124054 0.191257
O O10 0.507374 0.189239 0.374424
O O11 0.500000 0.000000 0.500000
O O12 0.583369 0.909739 0.476189
O O13 0.505797 0.691675 0.380857
O O14 0.897004 0.349727 0.393632
O O15 0.500000 0.545639 0.750000
O O16 0.422732 0.521362 0.814174
#
# Coordination Sequence:
#
# PCOD9303164 Si02
#       7
#     8   8   8   8   8   8   8
#     4  12  28  45  67 103 149 184 239 298 357 427
#     4  11  24  40  67 100 139 193 230 296 358 438
#     4  11  22  42  68  99 140 180 243 283 362 441
#     4  12  26  51  80 109 146 195 258 311 377 449
#     4  11  26  44  74 103 140 194 239 301 363 436
#     4  12  29  50  76 112 154 192 251 320 379 446
#     4  11  25  44  73 101 142 191 244 296 370 446
#
# _framework density 22.304884000000001
#
# number of rings (size 3 to 8) (size 9 to 14) (size 15 to 20)
#    0.000    0.571    4.286    2.571   10.000    1.143 
#    0.000    0.000    0.000    0.000    0.000    0.000 
#    0.000    0.000    0.000    0.000    0.000    0.000 
#
# Total GULP energy -156145.056844 kJ/mol
# GULP energy per Si atom -5576.609173 kJ/mol
# Density = 2.225412 g / cm^3
# Si number density = 22.304884 Si / 1000 Ang^3
#
#
#
# Elastic Constant Matrix: (Units=GPa)
#
#
# Indices 1 2 3 4 5 6 
#
# 1 91.3496 13.5717 34.8146 0.0000 7.9189 0.0000
# 2 13.5717 86.3859 49.5129 0.0000 7.9744 0.0000
# 3 34.8146 49.5129 150.2654 0.0000 2.6314 0.0000
# 4 0.0000 0.0000 0.0000 -5.0868 0.0000 -6.3005
# 5 7.9189 7.9744 2.6314 0.0000 35.9520 0.0000
# 6 0.0000 0.0000 0.0000 -6.3005 0.0000 24.0447
#
#
#
# Elastic Compliance Matrix: (Units=1/GPa)
#
#
# Indices 1 2 3 4 5 6 
#
# 1 0.012227 -0.000116 -0.002751 0.000000 -0.002466 0.000000
# 2 -0.000116 0.014565 -0.004722 0.000000 -0.002859 0.000000
# 3 -0.002751 -0.004722 0.008831 0.000000 0.001007 0.000000
# 4 0.000000 0.000000 0.000000 -0.148418 0.000000 -0.038890
# 5 -0.002466 -0.002859 0.001007 0.000000 0.028918 0.000000
# 6 0.000000 0.000000 0.000000 -0.038890 0.000000 0.031399
#
#
# Mechanical properties :
#
#
# Convention : Reuss Voigt Hill
#
# Bulk Modulus (GPa) = 48.91756 58.19993 53.55874
# Shear Modulus (GPa) = -164.01168 26.32209 -68.84480
#
# Velocity S-wave (km/s) = -8.58437 3.43899 -5.56169
# Velocity P-wave (km/s) = 8.73363 6.47444 4.14474
#
# Compressibility (1/GPa) = 0.02044256
#
# Stress axis : x y z
#
# Youngs Moduli (GPa) = 81.78934 68.65917 113.24228
#
# Poissons Ratio (x) = 0.00799 0.31155
# Poissons Ratio (y) = 0.00952 0.53474
# Poissons Ratio (z) = 0.22502 0.32421
#
# Static dielectric constant tensor:
#      x y z
#    x 1.985600 0.000000 0.046270 
#    y 0.000000 2.010680 0.000000 
#    z 0.046270 0.000000 1.919850 
# 
# From -- ./inp_files/221306.got.cif
#   From: 2010.05.17/outbox.cif.g08.bks.cpg/sg15_111_cif.got.tgz:221306.got - 2010.06.03 18:47:42.
