data_PCOD9303635
_publ_section_title
;
Structure prediction by ZEFSAII (Michael W. Deem and Ramdas Pophale) SiO2 
 PCOD9303635
Probable space group: C 2/C
;
_chemical_formula_sum "Si O2"
_cell_formula_units_Z 40
_cell_length_a 11.712858
_cell_length_b 14.378003
_cell_length_c 11.453403
_cell_angle_alpha 90.000000
_cell_angle_beta 72.397100
_cell_angle_gamma 90.000000
_cell_volume 1838.521861
_symmetry_space_group_name_H-M "C 2/C"
_symmetry_group_IT_number 15
_symmetry_cell_setting 'monoclinic'
loop_
_space_group_symop_operation_xyz
x,y,z
-x,y,1/2-z
-x,-y,-z
x,-y,1/2+z
1/2+x,1/2+y,z
1/2-x,1/2+y,1/2-z
1/2-x,1/2-y,-z
1/2+x,1/2-y,1/2+z
loop_
_atom_site_type_symbol
_atom_site_label
_atom_site_fract_x
_atom_site_fract_y
_atom_site_fract_z
Si Si1 0.276513 0.848032 0.551393
Si Si2 0.622097 0.893852 0.747955
Si Si3 0.527136 0.094863 0.865103
Si Si4 0.931653 0.002279 0.395007
Si Si5 0.264290 0.857099 0.024354
O O1 0.250000 0.750000 0.500000
O O2 0.299646 0.839779 0.682601
O O3 0.399826 0.895244 0.467827
O O4 0.166469 0.916340 0.564610
O O5 0.500000 0.841789 0.750000
O O6 0.694168 0.908532 0.607260
O O7 0.576551 0.991620 0.817362
O O8 0.500000 0.143284 0.750000
O O9 0.631138 0.134892 0.912899
O O10 0.000000 0.017726 0.250000
O O11 0.857471 0.906799 0.400984
O O12 0.000000 0.000000 0.500000
O O13 0.250000 0.750000 0.000000
#
# Coordination Sequence:
#
# PCOD9303635 Si02
#       5
#     8   8   8   8   8
#     4  12  27  46  76 112 148 194 254 311 370 449
#     4  11  22  46  78 106 143 188 256 309 366 438
#     4  11  25  45  79 108 143 192 257 305 371 435
#     4  12  29  50  72 105 158 202 241 306 391 450
#     4  12  28  48  77 112 151 196 253 314 374 452
#
# _framework density 21.756609000000001
#
# number of rings (size 3 to 8) (size 9 to 14) (size 15 to 20)
#    0.000    0.400    4.000    4.200    8.400    1.600 
#    0.000    0.000    0.000    0.000    0.000    0.000 
#    0.000    0.000    0.000    0.000    0.000    0.000 
#
# Total GULP energy -111773.293477 kJ/mol
# GULP energy per Si atom -5588.664674 kJ/mol
# Density = 2.170709 g / cm^3
# Si number density = 21.756609 Si / 1000 Ang^3
#
#
#
# Elastic Constant Matrix: (Units=GPa)
#
#
# Indices 1 2 3 4 5 6 
#
# 1 194.5608 71.7829 79.6196 0.0000 41.9599 0.0000
# 2 71.7829 143.8670 30.3068 0.0000 10.4276 0.0000
# 3 79.6196 30.3068 129.7130 0.0000 26.0369 0.0000
# 4 0.0000 0.0000 0.0000 19.9161 0.0000 9.5049
# 5 41.9599 10.4276 26.0369 0.0000 59.5076 0.0000
# 6 0.0000 0.0000 0.0000 9.5049 0.0000 16.7765
#
#
#
# Elastic Compliance Matrix: (Units=1/GPa)
#
#
# Indices 1 2 3 4 5 6 
#
# 1 0.008763 -0.003282 -0.003823 0.000000 -0.003931 0.000000
# 2 -0.003282 0.008559 -0.000163 0.000000 0.000886 0.000000
# 3 -0.003823 -0.000163 0.010466 0.000000 -0.001855 0.000000
# 4 0.000000 0.000000 0.000000 0.068818 0.000000 -0.038990
# 5 -0.003931 0.000886 -0.001855 0.000000 0.020233 0.000000
# 6 0.000000 0.000000 0.000000 -0.038990 0.000000 0.081697
#
#
# Mechanical properties :
#
#
# Convention : Reuss Voigt Hill
#
# Bulk Modulus (GPa) = 75.45935 92.39547 83.92741
# Shear Modulus (GPa) = 22.98965 38.33547 30.66256
#
# Velocity S-wave (km/s) = 3.25418 4.20219 3.75820
# Velocity P-wave (km/s) = 6.99130 8.13047 7.58231
#
# Compressibility (1/GPa) = 0.01325217
#
# Stress axis : x y z
#
# Youngs Moduli (GPa) = 114.11729 116.84207 95.54440
#
# Poissons Ratio (x) = 0.38348 0.36526
# Poissons Ratio (y) = 0.37454 0.01556
# Poissons Ratio (z) = 0.43626 0.01903
#
# Static dielectric constant tensor:
#      x y z
#    x 1.813140 0.000000 -0.002980 
#    y 0.000000 1.788880 0.000000 
#    z -0.002980 0.000000 1.903420 
# 
# From -- ./inp_files/85954.got.cif
#   From: 2010.05.17/outbox.cif.g08.bks.cpg/sg15_43_cif.got.tgz:85954.got - 2010.06.03 18:47:42.
