data_PCOD9303884
_publ_section_title
;
Structure prediction by ZEFSAII (Michael W. Deem and Ramdas Pophale) SiO2 
 PCOD9303884
Probable space group: C 2/C
;
_chemical_formula_sum "Si O2"
_cell_formula_units_Z 32
_cell_length_a 31.662931
_cell_length_b 7.373172
_cell_length_c 6.972020
_cell_angle_alpha 90.000000
_cell_angle_beta 128.132401
_cell_angle_gamma 90.000000
_cell_volume 1280.295721
_symmetry_space_group_name_H-M "C 2/C"
_symmetry_group_IT_number 15
_symmetry_cell_setting 'monoclinic'
loop_
_space_group_symop_operation_xyz
x,y,z
-x,y,1/2-z
-x,-y,-z
x,-y,1/2+z
1/2+x,1/2+y,z
1/2-x,1/2+y,1/2-z
1/2-x,1/2-y,-z
1/2+x,1/2-y,1/2+z
loop_
_atom_site_type_symbol
_atom_site_label
_atom_site_fract_x
_atom_site_fract_y
_atom_site_fract_z
Si Si1 0.387908 0.851371 0.908409
Si Si2 0.700321 0.258048 0.591215
Si Si3 0.961822 0.348425 0.795998
Si Si4 0.319188 0.327326 0.525681
O O1 0.334360 0.880699 0.630927
O O2 0.430008 0.754285 0.880505
O O3 0.369157 0.738741 0.040215
O O4 0.417356 0.033155 0.058726
O O5 0.684043 0.455735 0.469819
O O6 0.763887 0.229336 0.764009
O O7 0.684240 0.254958 0.768568
O O8 0.000000 0.247648 0.750000
O O9 0.000000 0.500000 0.000000
#
# Coordination Sequence:
#
# PCOD9303884 Si02
#       4
#     8   8   8   8
#     4  11  23  40  69  93 136 171 226 278 346 382
#     4  11  25  40  63 100 144 182 225 264 329 409
#     4   9  22  42  68  96 122 168 232 288 326 392
#     4  11  25  40  63 100 144 183 224 265 327 411
#
# _framework density 24.994225
#
# number of rings (size 3 to 8) (size 9 to 14) (size 15 to 20)
#    0.000    1.500    2.500    0.750   10.500    0.000 
#    0.000    0.000    0.000   19.500    0.000    0.000 
#    0.000    0.000    0.000    0.000    0.000    0.000 
#
# Total GULP energy -89581.488268 kJ/mol
# GULP energy per Si atom -5598.843017 kJ/mol
# Density = 2.493734 g / cm^3
# Si number density = 24.994225 Si / 1000 Ang^3
#
#
#
# Elastic Constant Matrix: (Units=GPa)
#
#
# Indices 1 2 3 4 5 6 
#
# 1 239.5708 40.5925 9.5475 0.0000 -2.3044 0.0000
# 2 40.5925 70.8174 18.2270 0.0000 4.6346 0.0000
# 3 9.5475 18.2270 141.0266 0.0000 1.7628 0.0000
# 4 0.0000 0.0000 0.0000 11.6382 0.0000 2.8522
# 5 -2.3044 4.6346 1.7628 0.0000 35.1196 0.0000
# 6 0.0000 0.0000 0.0000 2.8522 0.0000 30.5107
#
#
#
# Elastic Compliance Matrix: (Units=1/GPa)
#
#
# Indices 1 2 3 4 5 6 
#
# 1 0.004638 -0.002709 0.000028 0.000000 0.000660 0.000000
# 2 -0.002709 0.016308 -0.001896 0.000000 -0.002235 0.000000
# 3 0.000028 -0.001896 0.007336 0.000000 -0.000116 0.000000
# 4 0.000000 0.000000 0.000000 0.087939 0.000000 -0.008221
# 5 0.000660 -0.002235 -0.000116 0.000000 0.028818 0.000000
# 6 0.000000 0.000000 0.000000 -0.008221 0.000000 0.033544
#
#
# Mechanical properties :
#
#
# Convention : Reuss Voigt Hill
#
# Bulk Modulus (GPa) = 52.28307 65.34988 58.81648
# Shear Modulus (GPa) = 25.75811 40.99022 33.37416
#
# Velocity S-wave (km/s) = 3.21372 4.05407 3.65811
# Velocity P-wave (km/s) = 5.89357 6.93662 6.43626
#
# Compressibility (1/GPa) = 0.01912665
#
# Stress axis : x y z
#
# Youngs Moduli (GPa) = 215.59148 61.31951 136.32288
#
# Poissons Ratio (x) = 0.16612 -0.00380
# Poissons Ratio (y) = 0.58406 0.25852
# Poissons Ratio (z) = -0.00601 0.11629
#
# Static dielectric constant tensor:
#      x y z
#    x 2.044110 0.000000 -0.036450 
#    y 0.000000 1.968320 0.000000 
#    z -0.036450 0.000000 2.007920 
# 
# From -- ./inp_files/59603.got.cif
#   From: 2010.05.17/outbox.cif.g08.bks.cpg/sg15_30_cif.got.tgz:59603.got - 2010.06.03 18:47:42.
