data_PCOD9303219
_publ_section_title
;
Structure prediction by ZEFSAII (Michael W. Deem and Ramdas Pophale) SiO2 
 PCOD9303219
Probable space group: C 2/C
;
_chemical_formula_sum "Si O2"
_cell_formula_units_Z 64
_cell_length_a 12.118599
_cell_length_b 20.229781
_cell_length_c 24.832846
_cell_angle_alpha 90.000000
_cell_angle_beta 155.474385
_cell_angle_gamma 90.000000
_cell_volume 2527.102397
_symmetry_space_group_name_H-M "C 2/C"
_symmetry_group_IT_number 15
_symmetry_cell_setting 'monoclinic'
loop_
_space_group_symop_operation_xyz
x,y,z
-x,y,1/2-z
-x,-y,-z
x,-y,1/2+z
1/2+x,1/2+y,z
1/2-x,1/2+y,1/2-z
1/2-x,1/2-y,-z
1/2+x,1/2-y,1/2+z
loop_
_atom_site_type_symbol
_atom_site_label
_atom_site_fract_x
_atom_site_fract_y
_atom_site_fract_z
Si Si1 0.297303 0.336580 0.289811
Si Si2 0.241873 0.396569 0.793327
Si Si3 0.360973 0.507296 0.113898
Si Si4 0.347393 0.688735 0.240445
Si Si5 0.293888 0.715797 0.617766
Si Si6 0.569486 0.027018 0.663713
Si Si7 0.517187 0.107561 0.019169
Si Si8 0.642667 0.646210 0.038842
O O1 0.172616 0.264668 0.248438
O O2 0.531963 0.317872 0.351645
O O3 0.095402 0.394636 0.183193
O O4 0.441305 0.375106 0.403540
O O5 0.405454 0.358248 0.818730
O O6 0.151672 0.473654 0.746112
O O7 0.383008 0.383513 0.913024
O O8 0.950449 0.363820 0.661295
O O9 0.215501 0.512896 0.990586
O O10 0.202765 0.446366 0.067921
O O11 0.672321 0.492925 0.258386
O O12 0.263345 0.571175 0.102743
O O13 0.500000 0.691216 0.250000
O O14 0.086882 0.648952 0.103353
O O15 0.500000 0.747985 0.750000
O O16 0.102970 0.774884 0.517590
O O17 0.127565 0.663612 0.579153
#
# Coordination Sequence:
#
# PCOD9303219 Si02
#       8
#     8   8   8   8   8   8   8   8
#     4  12  24  42  68  99 140 186 244 303 357 428
#     4  11  23  43  70  98 137 186 242 292 361 443
#     4  11  25  42  68 109 146 190 236 298 372 440
#     4  12  24  45  68 100 143 190 233 301 381 441
#     4  12  20  39  71 106 139 171 242 310 360 426
#     4  12  25  47  69 103 147 193 244 300 359 435
#     4  11  23  37  70 102 144 182 232 300 375 436
#     4  11  22  42  72 102 128 189 249 300 351 436
#
# _framework density 25.325448000000002
#
# number of rings (size 3 to 8) (size 9 to 14) (size 15 to 20)
#    0.000    0.500    6.250    3.375    0.000    1.500 
#    4.500    0.625    0.000    0.000    0.000    0.000 
#    0.000    0.000    0.000    0.000    0.000    0.000 
#
# Total GULP energy -178484.881444 kJ/mol
# GULP energy per Si atom -5577.652545 kJ/mol
# Density = 2.526781 g / cm^3
# Si number density = 25.325448 Si / 1000 Ang^3
#
#
#
# Elastic Constant Matrix: (Units=GPa)
#
#
# Indices 1 2 3 4 5 6 
#
# 1 101.2048 29.3477 12.6748 -0.0050 -5.6919 -0.0033
# 2 29.3477 151.8791 -2.2462 -0.0080 0.4556 0.0009
# 3 12.6748 -2.2462 52.3658 -0.0164 -16.6343 0.0180
# 4 -0.0050 -0.0080 -0.0164 5.9386 -0.0050 10.4444
# 5 -5.6919 0.4556 -16.6343 -0.0050 36.0995 0.0066
# 6 -0.0033 0.0009 0.0180 10.4444 0.0066 38.7063
#
#
#
# Elastic Compliance Matrix: (Units=1/GPa)
#
#
# Indices 1 2 3 4 5 6 
#
# 1 0.010850 -0.002136 -0.002537 -0.000007 0.000569 0.000004
# 2 -0.002136 0.007009 0.000800 0.000021 -0.000057 -0.000006
# 3 -0.002537 0.000800 0.022978 0.000177 0.010178 -0.000061
# 4 -0.000007 0.000021 0.000177 0.320486 0.000141 -0.086480
# 5 0.000569 -0.000057 0.010178 0.000141 0.032481 -0.000048
# 6 0.000004 -0.000006 -0.000061 -0.086480 -0.000048 0.049171
#
#
# Mechanical properties :
#
#
# Convention : Reuss Voigt Hill
#
# Bulk Modulus (GPa) = 30.22051 42.77802 36.49926
# Shear Modulus (GPa) = 10.82831 33.86043 22.34437
#
# Velocity S-wave (km/s) = 2.07001 3.66048 2.97356
# Velocity P-wave (km/s) = 4.20381 5.89860 5.12179
#
# Compressibility (1/GPa) = 0.03309011
#
# Stress axis : x y z
#
# Youngs Moduli (GPa) = 92.16561 142.67614 43.51992
#
# Poissons Ratio (x) = 0.30473 0.11042
# Poissons Ratio (y) = 0.19685 -0.03480
# Poissons Ratio (z) = 0.23384 -0.11408
#
# Static dielectric constant tensor:
#      x y z
#    x 2.140370 0.000000 -0.031040 
#    y 0.000000 2.010390 0.000000 
#    z -0.031040 0.000000 2.072530 
# 
# From -- ./inp_files/293767.got.cif
#   From: 2010.05.17/outbox.cif.g08.bks.cpg/sg15_147_cif.got.tgz:293767.got - 2010.06.03 18:47:42.
