data_PCOD9303696
_publ_section_title
;
Structure prediction by ZEFSAII (Michael W. Deem and Ramdas Pophale) SiO2 
 PCOD9303696
Probable space group: C 2/C
;
_chemical_formula_sum "Si O2"
_cell_formula_units_Z 40
_cell_length_a 11.892839
_cell_length_b 14.037077
_cell_length_c 12.424604
_cell_angle_alpha 90.000000
_cell_angle_beta 106.341906
_cell_angle_gamma 90.000000
_cell_volume 1990.374993
_symmetry_space_group_name_H-M "C 2/C"
_symmetry_group_IT_number 15
_symmetry_cell_setting 'monoclinic'
loop_
_space_group_symop_operation_xyz
x,y,z
-x,y,1/2-z
-x,-y,-z
x,-y,1/2+z
1/2+x,1/2+y,z
1/2-x,1/2+y,1/2-z
1/2-x,1/2-y,-z
1/2+x,1/2-y,1/2+z
loop_
_atom_site_type_symbol
_atom_site_label
_atom_site_fract_x
_atom_site_fract_y
_atom_site_fract_z
Si Si1 0.110584 0.993018 0.440692
Si Si2 0.107494 0.074779 0.220479
Si Si3 0.584821 0.272773 0.457631
Si Si4 0.683872 0.684952 0.569809
Si Si5 0.753341 0.747873 0.185752
O O1 0.148031 0.003782 0.324336
O O2 0.175425 0.078718 0.518812
O O3 0.029396 0.981057 0.611439
O O4 0.125439 0.883548 0.472226
O O5 0.207706 0.144535 0.211901
O O6 0.000000 0.133493 0.250000
O O7 0.448048 0.275330 0.446917
O O8 0.656583 0.220553 0.571323
O O9 0.627516 0.240458 0.351525
O O10 0.750000 0.750000 0.500000
O O11 0.738431 0.690783 0.703764
#
# Coordination Sequence:
#
# PCOD9303696 Si02
#       5
#     8   8   8   8   8
#     4   9  20  37  66  93 121 147 219 262 297 342
#     4   8  17  35  60  92 118 150 196 255 301 357
#     4  11  24  40  60  99 123 155 206 266 300 358
#     4  12  22  38  63  94 121 165 199 255 312 365
#     4  11  23  36  59  95 129 158 193 259 317 361
#
# _framework density 20.096715
#
# number of rings (size 3 to 8) (size 9 to 14) (size 15 to 20)
#    1.200    0.400    4.000    1.200    5.600    0.000 
#    0.000    0.000    0.000    4.800   15.600    0.000 
#    0.000    0.000    0.000    0.000    0.000    0.000 
#
# Total GULP energy -111365.730802 kJ/mol
# GULP energy per Si atom -5568.286540 kJ/mol
# Density = 2.005097 g / cm^3
# Si number density = 20.096715 Si / 1000 Ang^3
#
#
#
# Elastic Constant Matrix: (Units=GPa)
#
#
# Indices 1 2 3 4 5 6 
#
# 1 95.2209 45.7099 34.6993 0.0000 -24.4032 0.0000
# 2 45.7099 74.0805 52.4900 0.0000 -4.8017 0.0000
# 3 34.6993 52.4900 154.3189 0.0000 1.2753 0.0000
# 4 0.0000 0.0000 0.0000 20.0860 0.0000 -10.6375
# 5 -24.4032 -4.8017 1.2753 0.0000 34.8554 0.0000
# 6 0.0000 0.0000 0.0000 -10.6375 0.0000 36.6250
#
#
#
# Elastic Compliance Matrix: (Units=1/GPa)
#
#
# Indices 1 2 3 4 5 6 
#
# 1 0.018700 -0.010186 -0.000837 0.000000 0.011720 0.000000
# 2 -0.010186 0.023586 -0.005702 0.000000 -0.003674 0.000000
# 3 -0.000837 -0.005702 0.008622 0.000000 -0.001687 0.000000
# 4 0.000000 0.000000 0.000000 0.058836 0.000000 0.017088
# 5 0.011720 -0.003674 -0.001687 0.000000 0.036451 0.000000
# 6 0.000000 0.000000 0.000000 0.017088 0.000000 0.032267
#
#
# Mechanical properties :
#
#
# Convention : Reuss Voigt Hill
#
# Bulk Modulus (GPa) = 57.27965 65.49097 61.38531
# Shear Modulus (GPa) = 22.96422 31.02800 26.99611
#
# Velocity S-wave (km/s) = 3.38403 3.93356 3.66909
# Velocity P-wave (km/s) = 6.62063 7.29994 6.96857
#
# Compressibility (1/GPa) = 0.01745821
#
# Stress axis : x y z
#
# Youngs Moduli (GPa) = 53.47564 42.39868 115.98718
#
# Poissons Ratio (x) = 0.43186 0.09709
# Poissons Ratio (y) = 0.54469 0.66133
# Poissons Ratio (z) = 0.04476 0.24175
#
# Static dielectric constant tensor:
#      x y z
#    x 1.755460 0.000000 -0.059900 
#    y 0.000000 1.678450 0.000000 
#    z -0.059900 0.000000 1.918470 
# 
# From -- ./inp_files/85703.got.cif
#   From: 2010.05.17/outbox.cif.g08.bks.cpg/sg15_43_cif.got.tgz:85703.got - 2010.06.03 18:47:42.
