data_PCOD9303774
_publ_section_title
;
Structure prediction by ZEFSAII (Michael W. Deem and Ramdas Pophale) SiO2 
 PCOD9303774
Probable space group: C 2/C
;
_chemical_formula_sum "Si O2"
_cell_formula_units_Z 36
_cell_length_a 8.819081
_cell_length_b 13.202998
_cell_length_c 26.799316
_cell_angle_alpha 90.000000
_cell_angle_beta 152.600790
_cell_angle_gamma 90.000000
_cell_volume 1436.000058
_symmetry_space_group_name_H-M "C 2/C"
_symmetry_group_IT_number 15
_symmetry_cell_setting 'monoclinic'
loop_
_space_group_symop_operation_xyz
x,y,z
-x,y,1/2-z
-x,-y,-z
x,-y,1/2+z
1/2+x,1/2+y,z
1/2-x,1/2+y,1/2-z
1/2-x,1/2-y,-z
1/2+x,1/2-y,1/2+z
loop_
_atom_site_type_symbol
_atom_site_label
_atom_site_fract_x
_atom_site_fract_y
_atom_site_fract_z
Si Si1 0.313743 0.698630 0.570848
Si Si2 0.500000 0.508530 0.250000
Si Si3 0.612429 0.101707 0.719420
Si Si4 0.165120 0.791096 0.920489
Si Si5 0.940834 0.388102 0.806835
O O1 0.250000 0.750000 0.500000
O O2 0.662249 0.641364 0.669894
O O3 0.353772 0.788495 0.623529
O O4 0.975837 0.646750 0.489517
O O5 0.579693 0.431586 0.227964
O O6 0.214734 0.586998 0.183493
O O7 0.412441 0.191067 0.635254
O O8 0.415498 0.996727 0.666277
O O9 0.843799 0.859549 0.816047
O O10 0.250000 0.750000 0.000000
#
# Coordination Sequence:
#
# PCOD9303774 Si02
#       5
#     8   4   8   8   8
#     4  11  23  39  62  95 124 161 205 256 308 363
#     4   8  16  40  64  82 116 168 202 238 304 364
#     4   9  21  39  61  88 124 162 202 255 299 368
#     4  11  23  39  62  95 124 161 205 256 308 363
#     4   9  21  39  61  88 124 162 202 255 299 368
#
# _framework density 25.069635999999999
#
# number of rings (size 3 to 8) (size 9 to 14) (size 15 to 20)
#    1.333    0.889    0.000    2.667    0.000    8.889 
#    0.000    2.222    0.000    0.000    0.000    0.000 
#    0.000    0.000    0.000    0.000    0.000    0.000 
#
# Total GULP energy -100204.925533 kJ/mol
# GULP energy per Si atom -5566.940307 kJ/mol
# Density = 2.501258 g / cm^3
# Si number density = 25.069636 Si / 1000 Ang^3
#
#
#
# Elastic Constant Matrix: (Units=GPa)
#
#
# Indices 1 2 3 4 5 6 
#
# 1 59.8053 -23.0401 6.5347 -0.0002 5.1112 0.0001
# 2 -23.0401 105.9854 1.9949 -0.0005 7.4515 0.0001
# 3 6.5347 1.9949 97.6878 0.0009 -4.4356 -0.0002
# 4 -0.0002 -0.0005 0.0009 0.1975 0.0003 -1.9271
# 5 5.1112 7.4515 -4.4356 0.0003 32.5265 0.0000
# 6 0.0001 0.0001 -0.0002 -1.9271 0.0000 37.6848
#
#
#
# Elastic Compliance Matrix: (Units=1/GPa)
#
#
# Indices 1 2 3 4 5 6 
#
# 1 0.018964 0.004448 -0.001551 0.000087 -0.004210 0.000004
# 2 0.004448 0.010641 -0.000661 0.000073 -0.003227 0.000004
# 3 -0.001551 -0.000661 0.010436 -0.000107 0.001818 -0.000005
# 4 0.000087 0.000073 -0.000107 10.102103 -0.000127 0.516606
# 5 -0.004210 -0.003227 0.001818 -0.000127 0.032393 -0.000006
# 6 0.000004 0.000004 -0.000005 0.516606 -0.000006 0.052954
#
#
# Mechanical properties :
#
#
# Convention : Reuss Voigt Hill
#
# Bulk Modulus (GPa) = 22.46523 26.05082 24.25803
# Shear Modulus (GPa) = 0.48838 32.61437 16.55138
#
# Velocity S-wave (km/s) = 0.44185 3.61078 2.57225
# Velocity P-wave (km/s) = 3.03988 5.27234 4.30340
#
# Compressibility (1/GPa) = 0.04451323
#
# Stress axis : x y z
#
# Youngs Moduli (GPa) = 52.73238 93.97198 95.81765
#
# Poissons Ratio (x) = -0.41796 0.14857
# Poissons Ratio (y) = -0.23454 0.06337
# Poissons Ratio (z) = 0.08176 0.06215
#
# Static dielectric constant tensor:
#      x y z
#    x 2.154700 0.000000 -0.024320 
#    y 0.000000 1.988310 0.000000 
#    z -0.024320 0.000000 1.968110 
# 
# From -- ./inp_files/311286.got.cif
#   From: 2010.05.17/outbox.cif.g08.bks.cpg/sg15_156_cif.got.tgz:311286.got - 2010.06.03 18:47:42.
