data_PCOD9303339
_publ_section_title
;
Structure prediction by ZEFSAII (Michael W. Deem and Ramdas Pophale) SiO2 
 PCOD9303339
Probable space group: C 2/C
;
_chemical_formula_sum "Si O2"
_cell_formula_units_Z 44
_cell_length_a 17.924639
_cell_length_b 17.200188
_cell_length_c 9.339540
_cell_angle_alpha 90.000000
_cell_angle_beta 132.475986
_cell_angle_gamma 90.000000
_cell_volume 2123.766204
_symmetry_space_group_name_H-M "C 2/C"
_symmetry_group_IT_number 15
_symmetry_cell_setting 'monoclinic'
loop_
_space_group_symop_operation_xyz
x,y,z
-x,y,1/2-z
-x,-y,-z
x,-y,1/2+z
1/2+x,1/2+y,z
1/2-x,1/2+y,1/2-z
1/2-x,1/2-y,-z
1/2+x,1/2-y,1/2+z
loop_
_atom_site_type_symbol
_atom_site_label
_atom_site_fract_x
_atom_site_fract_y
_atom_site_fract_z
Si Si1 0.290668 0.216173 0.400680
Si Si2 0.930823 0.964884 0.533601
Si Si3 0.600342 0.951940 0.157104
Si Si4 0.249622 0.138798 0.834211
Si Si5 0.000000 0.335473 0.250000
Si Si6 0.265219 0.584687 0.378506
O O1 0.250000 0.250000 0.500000
O O2 0.250226 0.277069 0.233909
O O3 0.413067 0.213700 0.559431
O O4 0.254795 0.131385 0.295465
O O5 0.846305 0.907209 0.359350
O O6 0.000000 0.930295 0.750000
O O7 0.870143 0.039160 0.514788
O O8 0.000000 0.000000 0.500000
O O9 0.649894 0.906333 0.088567
O O10 0.567975 0.889618 0.234630
O O11 0.683382 0.016806 0.301218
O O12 0.500000 0.000000 0.000000
O O13 0.241322 0.139421 0.992970
#
# Coordination Sequence:
#
# PCOD9303339 Si02
#       6
#     8   8   8   8   4   8
#     4  12  27  45  67  99 142 179 227 282 352 420
#     4  11  24  43  69 102 135 181 233 280 338 411
#     4  11  22  43  72 101 135 176 236 283 343 400
#     4  11  25  43  69 101 139 181 225 293 345 411
#     4  12  24  44  68 104 132 190 226 284 348 418
#     4  11  25  44  71 100 138 178 235 290 338 411
#
# _framework density 20.717911000000001
#
# number of rings (size 3 to 8) (size 9 to 14) (size 15 to 20)
#    0.000    0.727    5.455    1.636    6.364    0.000 
#    0.000    0.000    0.000    0.000    0.000    0.000 
#    0.000    0.000    0.000    0.000    0.000    0.000 
#
# Total GULP energy -122859.133048 kJ/mol
# GULP energy per Si atom -5584.506048 kJ/mol
# Density = 2.067076 g / cm^3
# Si number density = 20.717911 Si / 1000 Ang^3
#
#
#
# Elastic Constant Matrix: (Units=GPa)
#
#
# Indices 1 2 3 4 5 6 
#
# 1 121.6461 31.4699 37.0942 0.0000 -0.8491 0.0000
# 2 31.4699 61.5427 9.5764 0.0000 -2.8464 0.0000
# 3 37.0942 9.5764 72.3413 0.0000 -1.1022 0.0000
# 4 0.0000 0.0000 0.0000 28.6823 0.0000 -6.5748
# 5 -0.8491 -2.8464 -1.1022 0.0000 41.5542 0.0000
# 6 0.0000 0.0000 0.0000 -6.5748 0.0000 29.5424
#
#
#
# Elastic Compliance Matrix: (Units=1/GPa)
#
#
# Indices 1 2 3 4 5 6 
#
# 1 0.011001 -0.004858 -0.005001 0.000000 -0.000241 0.000000
# 2 -0.004858 0.018785 0.000023 0.000000 0.001188 0.000000
# 3 -0.005001 0.000023 0.016390 0.000000 0.000334 0.000000
# 4 0.000000 0.000000 0.000000 0.036739 0.000000 0.008176
# 5 -0.000241 0.001188 0.000334 0.000000 0.024150 0.000000
# 6 0.000000 0.000000 0.000000 0.008176 0.000000 0.035669
#
#
# Mechanical properties :
#
#
# Convention : Reuss Voigt Hill
#
# Bulk Modulus (GPa) = 37.73397 45.75681 41.74539
# Shear Modulus (GPa) = 29.19848 31.78175 30.49011
#
# Velocity S-wave (km/s) = 3.75818 3.92091 3.84041
# Velocity P-wave (km/s) = 6.08972 6.52929 6.31333
#
# Compressibility (1/GPa) = 0.02650132
#
# Stress axis : x y z
#
# Youngs Moduli (GPa) = 90.90247 53.23528 61.01272
#
# Poissons Ratio (x) = 0.25863 0.30515
# Poissons Ratio (y) = 0.44162 -0.00137
# Poissons Ratio (z) = 0.45464 -0.00120
#
# Static dielectric constant tensor:
#      x y z
#    x 1.658960 0.000000 -0.018470 
#    y 0.000000 1.806850 0.000000 
#    z -0.018470 0.000000 1.802780 
# 
# From -- ./inp_files/39336.got.cif
#   From: 2010.05.17/outbox.cif.g08.bks.cpg/sg15_20_cif.got.tgz:39336.got - 2010.06.03 18:47:42.
