data_PCOD9303937
_publ_section_title
;
Structure prediction by ZEFSAII (Michael W. Deem and Ramdas Pophale) SiO2 
 PCOD9303937
Probable space group: C 2/C
;
_chemical_formula_sum "Si O2"
_cell_formula_units_Z 36
_cell_length_a 11.178096
_cell_length_b 20.000812
_cell_length_c 11.299197
_cell_angle_alpha 90.000000
_cell_angle_beta 37.904015
_cell_angle_gamma 90.000000
_cell_volume 1551.930205
_symmetry_space_group_name_H-M "C 2/C"
_symmetry_group_IT_number 15
_symmetry_cell_setting 'monoclinic'
loop_
_space_group_symop_operation_xyz
x,y,z
-x,y,1/2-z
-x,-y,-z
x,-y,1/2+z
1/2+x,1/2+y,z
1/2-x,1/2+y,1/2-z
1/2-x,1/2-y,-z
1/2+x,1/2-y,1/2+z
loop_
_atom_site_type_symbol
_atom_site_label
_atom_site_fract_x
_atom_site_fract_y
_atom_site_fract_z
Si Si1 0.717070 0.376748 0.081648
Si Si2 0.358174 0.133700 0.202930
Si Si3 0.716320 0.316966 0.599028
Si Si4 0.718618 0.510085 0.779891
Si Si5 0.000000 0.418016 0.250000
O O1 0.500000 0.346143 0.250000
O O2 0.915696 0.345362 0.977778
O O3 0.221919 0.380143 0.603343
O O4 0.703809 0.443817 0.173493
O O5 0.644985 0.041302 0.723265
O O6 0.244781 0.189056 0.217265
O O7 0.315106 0.061374 0.178176
O O8 0.500000 0.342824 0.750000
O O9 0.750000 0.250000 0.500000
O O10 0.869372 0.369040 0.429876
O O11 0.500000 0.500000 0.000000
#
# Coordination Sequence:
#
# PCOD9303937 Si02
#       5
#     8   8   8   8   4
#     4  11  23  41  65 102 153 194 239 296 376 463
#     4  11  25  43  70 107 149 201 248 305 385 461
#     4  12  27  49  77 108 145 199 265 325 375 442
#     4  12  24  41  70 111 159 198 244 312 389 462
#     4  12  26  48  76 116 158 202 256 318 384 470
#
# _framework density 23.196919999999999
#
# number of rings (size 3 to 8) (size 9 to 14) (size 15 to 20)
#    0.000    0.444    5.556    3.333    3.111    0.889 
#    0.000    0.000    0.000   12.000    0.000    0.000 
#    0.000    0.000    0.000    0.000    0.000    0.000 
#
# Total GULP energy -100542.987430 kJ/mol
# GULP energy per Si atom -5585.721524 kJ/mol
# Density = 2.314412 g / cm^3
# Si number density = 23.196920 Si / 1000 Ang^3
#
#
#
# Elastic Constant Matrix: (Units=GPa)
#
#
# Indices 1 2 3 4 5 6 
#
# 1 179.5639 44.5550 77.9971 -0.0002 -10.9577 0.0002
# 2 44.5550 55.1738 26.2527 -0.0001 13.5256 0.0001
# 3 77.9971 26.2527 151.3355 -0.0002 -23.7456 0.0002
# 4 -0.0002 -0.0001 -0.0002 -4.4522 0.0002 0.5539
# 5 -10.9577 13.5256 -23.7456 0.0002 63.1217 -0.0002
# 6 0.0002 0.0001 0.0002 0.5539 -0.0002 5.2442
#
#
#
# Elastic Compliance Matrix: (Units=1/GPa)
#
#
# Indices 1 2 3 4 5 6 
#
# 1 0.008429 -0.005692 -0.003120 0.000000 0.001509 0.000000
# 2 -0.005692 0.025881 -0.002743 0.000000 -0.007566 0.000000
# 3 -0.003120 -0.002743 0.009245 0.000000 0.003524 0.000000
# 4 0.000000 0.000000 0.000000 -0.221697 0.000001 0.023417
# 5 0.001509 -0.007566 0.003524 0.000001 0.019051 0.000001
# 6 0.000000 0.000000 0.000000 0.023417 0.000001 0.188213
#
#
# Mechanical properties :
#
#
# Convention : Reuss Voigt Hill
#
# Bulk Modulus (GPa) = 48.91356 75.96475 62.43916
# Shear Modulus (GPa) = 84.67957 28.60063 56.64010
#
# Velocity S-wave (km/s) = 6.04846 3.51515 4.94672
# Velocity P-wave (km/s) = 8.36125 7.02096 7.72025
#
# Compressibility (1/GPa) = 0.02044423
#
# Stress axis : x y z
#
# Youngs Moduli (GPa) = 118.64286 38.63831 108.17133
#
# Poissons Ratio (x) = 0.21993 0.33748
# Poissons Ratio (y) = 0.67531 0.29674
# Poissons Ratio (z) = 0.37015 0.10599
#
# Static dielectric constant tensor:
#      x y z
#    x 1.977050 0.000000 0.061750 
#    y 0.000000 1.839130 0.000000 
#    z 0.061750 0.000000 1.906530 
# 
# From -- ./inp_files/92281.got.cif
#   From: 2010.05.17/outbox.cif.g08.bks.cpg/sg15_47_cif.got.tgz:92281.got - 2010.06.03 18:47:42.
