data_PCOD9303595
_publ_section_title
;
Structure prediction by ZEFSAII (Michael W. Deem and Ramdas Pophale) SiO2 
 PCOD9303595
Probable space group: C 2/C
;
_chemical_formula_sum "Si O2"
_cell_formula_units_Z 52
_cell_length_a 16.179217
_cell_length_b 10.062627
_cell_length_c 16.048095
_cell_angle_alpha 90.000000
_cell_angle_beta 66.099331
_cell_angle_gamma 90.000000
_cell_volume 2388.674437
_symmetry_space_group_name_H-M "C 2/C"
_symmetry_group_IT_number 15
_symmetry_cell_setting 'monoclinic'
loop_
_space_group_symop_operation_xyz
x,y,z
-x,y,1/2-z
-x,-y,-z
x,-y,1/2+z
1/2+x,1/2+y,z
1/2-x,1/2+y,1/2-z
1/2-x,1/2-y,-z
1/2+x,1/2-y,1/2+z
loop_
_atom_site_type_symbol
_atom_site_label
_atom_site_fract_x
_atom_site_fract_y
_atom_site_fract_z
Si Si1 0.683438 0.890923 0.744227
Si Si2 0.000000 0.290787 0.750000
Si Si3 0.748911 0.901601 0.531221
Si Si4 0.447864 0.592502 0.914728
Si Si5 0.662065 0.165702 0.563603
Si Si6 0.519584 0.313912 0.912935
Si Si7 0.813653 0.680333 0.748696
O O1 0.578714 0.873624 0.762570
O O2 0.737776 0.893749 0.634970
O O3 0.723278 0.767673 0.778240
O O4 0.700955 0.031878 0.779378
O O5 0.044642 0.195418 0.663097
O O6 0.750000 0.750000 0.500000
O O7 0.845788 0.958586 0.465987
O O8 0.675759 0.010627 0.532243
O O9 0.509320 0.462748 0.879837
O O10 0.470141 0.665043 0.992420
O O11 0.750000 0.250000 0.500000
O O12 0.570311 0.229409 0.567724
O O13 0.659637 0.168916 0.665365
O O14 0.605644 0.246554 0.835607
#
# Coordination Sequence:
#
# PCOD9303595 Si02
#       7
#     8   4   8   8   8   8   8
#     4  11  27  46  72 104 144 186 242 298 358 429
#     4  12  28  44  70 110 148 186 242 300 364 428
#     4  11  22  46  67  97 139 188 230 295 361 422
#     4  11  25  43  73 103 146 190 241 296 361 433
#     4  11  25  42  70 102 141 180 240 296 351 422
#     4  11  25  46  70 106 143 191 242 297 358 429
#     4  11  27  45  73  99 146 188 238 298 361 429
#
# _framework density 21.769396
#
# number of rings (size 3 to 8) (size 9 to 14) (size 15 to 20)
#    0.000    0.923    4.615    0.462   10.769    1.231 
#    0.000    1.538    0.000    0.000    0.000    0.000 
#    0.000    0.000    0.000    0.000    0.000    0.000 
#
# Total GULP energy -145451.748978 kJ/mol
# GULP energy per Si atom -5594.298038 kJ/mol
# Density = 2.171985 g / cm^3
# Si number density = 21.769396 Si / 1000 Ang^3
#
#
#
# Elastic Constant Matrix: (Units=GPa)
#
#
# Indices 1 2 3 4 5 6 
#
# 1 103.5322 53.4461 6.0462 0.0000 -13.8664 0.0000
# 2 53.4461 148.4161 21.2661 0.0000 1.8410 0.0000
# 3 6.0462 21.2661 40.6898 0.0000 -11.4952 0.0000
# 4 0.0000 0.0000 0.0000 20.5672 0.0000 -3.3970
# 5 -13.8664 1.8410 -11.4952 0.0000 24.4988 0.0000
# 6 0.0000 0.0000 0.0000 -3.3970 0.0000 42.1988
#
#
#
# Elastic Compliance Matrix: (Units=1/GPa)
#
#
# Indices 1 2 3 4 5 6 
#
# 1 0.013633 -0.005556 0.003661 0.000000 0.009852 0.000000
# 2 -0.005556 0.009705 -0.006157 0.000000 -0.006763 0.000000
# 3 0.003661 -0.006157 0.032240 0.000000 0.017662 0.000000
# 4 0.000000 0.000000 0.000000 0.049276 0.000000 0.003967
# 5 0.009852 -0.006763 0.017662 0.000000 0.055190 0.000000
# 6 0.000000 0.000000 0.000000 0.003967 0.000000 0.024017
#
#
# Mechanical properties :
#
#
# Convention : Reuss Voigt Hill
#
# Bulk Modulus (GPa) = 25.33347 50.46167 37.89757
# Shear Modulus (GPa) = 23.43873 31.57826 27.50850
#
# Velocity S-wave (km/s) = 3.28484 3.81278 3.55862
# Velocity P-wave (km/s) = 5.10386 6.52790 5.85930
#
# Compressibility (1/GPa) = 0.03947347
#
# Stress axis : x y z
#
# Youngs Moduli (GPa) = 73.35323 103.04242 31.01745
#
# Poissons Ratio (x) = 0.57251 -0.11356
# Poissons Ratio (y) = 0.40756 0.19098
# Poissons Ratio (z) = -0.26857 0.63444
#
# Static dielectric constant tensor:
#      x y z
#    x 1.785780 0.000000 -0.009590 
#    y 0.000000 1.834400 0.000000 
#    z -0.009590 0.000000 1.747970 
# 
# From -- ./inp_files/209478.got.cif
#   From: 2010.05.17/outbox.cif.g08.bks.cpg/sg15_105_cif.got.tgz:209478.got - 2010.06.03 18:47:42.
