data_PCOD9303284
_publ_section_title
;
Structure prediction by ZEFSAII (Michael W. Deem and Ramdas Pophale) SiO2 
 PCOD9303284
Probable space group: C 2/C
;
_chemical_formula_sum "Si O2"
_cell_formula_units_Z 52
_cell_length_a 19.770740
_cell_length_b 9.970358
_cell_length_c 19.007895
_cell_angle_alpha 90.000000
_cell_angle_beta 139.512172
_cell_angle_gamma 90.000000
_cell_volume 2432.786904
_symmetry_space_group_name_H-M "C 2/C"
_symmetry_group_IT_number 15
_symmetry_cell_setting 'monoclinic'
loop_
_space_group_symop_operation_xyz
x,y,z
-x,y,1/2-z
-x,-y,-z
x,-y,1/2+z
1/2+x,1/2+y,z
1/2-x,1/2+y,1/2-z
1/2-x,1/2-y,-z
1/2+x,1/2-y,1/2+z
loop_
_atom_site_type_symbol
_atom_site_label
_atom_site_fract_x
_atom_site_fract_y
_atom_site_fract_z
Si Si1 0.943929 0.179319 0.033679
Si Si2 0.782039 0.362003 0.969680
Si Si3 0.288458 0.528320 0.811579
Si Si4 0.402537 0.518676 0.260232
Si Si5 0.500000 0.291601 0.250000
Si Si6 0.165317 0.341516 0.972075
Si Si7 0.156150 0.264384 0.128465
O O1 0.993784 0.102031 0.139820
O O2 0.040312 0.214297 0.058365
O O3 0.883703 0.311590 0.009261
O O4 0.856240 0.086056 0.929038
O O5 0.686215 0.386191 0.841033
O O6 0.750000 0.250000 0.000000
O O7 0.807818 0.505192 0.023190
O O8 0.363088 0.537655 0.802812
O O9 0.192729 0.622812 0.713329
O O10 0.271543 0.369347 0.808904
O O11 0.420607 0.394391 0.223842
O O12 0.444096 0.203111 0.147385
O O13 0.250000 0.250000 0.000000
O O14 0.163099 0.319248 0.054598
#
# Coordination Sequence:
#
# PCOD9303284 Si02
#       7
#     8   8   8   8   4   8   8
#     4  11  24  42  72 103 134 180 231 280 349 410
#     4  12  27  47  70  99 145 181 231 288 343 407
#     4  11  22  43  68 101 136 177 224 283 342 407
#     4  11  22  45  67 103 136 185 226 278 353 410
#     4  12  22  42  74  94 142 186 228 282 336 414
#     4  12  26  47  68 106 136 183 233 281 341 410
#     4  11  24  44  71 100 138 177 230 282 343 406
#
# _framework density 21.374663999999999
#
# number of rings (size 3 to 8) (size 9 to 14) (size 15 to 20)
#    0.000    0.615    3.077    6.462    2.154    1.846 
#    5.538    0.000    0.000    0.000    0.000    0.000 
#    0.000    0.000    0.000    0.000    0.000    0.000 
#
# Total GULP energy -145424.736982 kJ/mol
# GULP energy per Si atom -5593.259115 kJ/mol
# Density = 2.132601 g / cm^3
# Si number density = 21.374664 Si / 1000 Ang^3
#
#
#
# Elastic Constant Matrix: (Units=GPa)
#
#
# Indices 1 2 3 4 5 6 
#
# 1 47.4186 25.3523 5.7327 0.0000 -1.7982 0.0000
# 2 25.3523 134.0786 42.2779 0.0000 -12.5482 0.0000
# 3 5.7327 42.2779 133.0689 0.0000 -0.8138 0.0000
# 4 0.0000 0.0000 0.0000 42.7899 0.0000 1.3928
# 5 -1.7982 -12.5482 -0.8138 0.0000 9.1228 0.0000
# 6 0.0000 0.0000 0.0000 1.3928 0.0000 39.8698
#
#
#
# Elastic Compliance Matrix: (Units=1/GPa)
#
#
# Indices 1 2 3 4 5 6 
#
# 1 0.023512 -0.004779 0.000494 0.000000 -0.001895 0.000000
# 2 -0.004779 0.010579 -0.003074 0.000000 0.013335 0.000000
# 3 0.000494 -0.003074 0.008450 0.000000 -0.003377 0.000000
# 4 0.000000 0.000000 0.000000 0.023397 0.000000 -0.000817
# 5 -0.001895 0.013335 -0.003377 0.000000 0.127283 0.000000
# 6 0.000000 0.000000 0.000000 -0.000817 0.000000 0.025110
#
#
# Mechanical properties :
#
#
# Convention : Reuss Voigt Hill
#
# Bulk Modulus (GPa) = 35.94100 51.25468 43.59784
# Shear Modulus (GPa) = 20.63360 34.43671 27.53516
#
# Velocity S-wave (km/s) = 3.11035 4.01820 3.59306
# Velocity P-wave (km/s) = 5.45438 6.74975 6.13635
#
# Compressibility (1/GPa) = 0.02782338
#
# Stress axis : x y z
#
# Youngs Moduli (GPa) = 42.53108 94.52537 118.34962
#
# Poissons Ratio (x) = 0.45172 -0.05844
# Poissons Ratio (y) = 0.20325 0.36377
# Poissons Ratio (z) = -0.02100 0.29054
#
# Static dielectric constant tensor:
#      x y z
#    x 1.778670 0.000000 0.015260 
#    y 0.000000 1.778510 0.000000 
#    z 0.015260 0.000000 1.807460 
# 
# From -- ./inp_files/255087.got.cif
#   From: 2010.05.17/outbox.cif.g08.bks.cpg/sg15_128_cif.got.tgz:255087.got - 2010.06.03 18:47:42.
