data_PCOD9303279
_publ_section_title
;
Structure prediction by ZEFSAII (Michael W. Deem and Ramdas Pophale) SiO2 
 PCOD9303279
Probable space group: C 2/C
;
_chemical_formula_sum "Si O2"
_cell_formula_units_Z 40
_cell_length_a 12.514789
_cell_length_b 8.637071
_cell_length_c 20.228840
_cell_angle_alpha 90.000000
_cell_angle_beta 70.937650
_cell_angle_gamma 90.000000
_cell_volume 2066.655307
_symmetry_space_group_name_H-M "C 2/C"
_symmetry_group_IT_number 15
_symmetry_cell_setting 'monoclinic'
loop_
_space_group_symop_operation_xyz
x,y,z
-x,y,1/2-z
-x,-y,-z
x,-y,1/2+z
1/2+x,1/2+y,z
1/2-x,1/2+y,1/2-z
1/2-x,1/2-y,-z
1/2+x,1/2-y,1/2+z
loop_
_atom_site_type_symbol
_atom_site_label
_atom_site_fract_x
_atom_site_fract_y
_atom_site_fract_z
Si Si1 0.727313 0.116092 0.818027
Si Si2 0.035540 0.412562 0.925491
Si Si3 0.790634 0.337401 0.925766
Si Si4 0.366131 0.688069 0.284199
Si Si5 0.275114 0.313600 0.067920
O O1 0.766398 0.232228 0.867484
O O2 0.694083 0.209474 0.759683
O O3 0.618688 0.022631 0.867291
O O4 0.822782 0.987645 0.785816
O O5 0.108344 0.261692 0.930303
O O6 0.923147 0.372193 0.908314
O O7 0.000000 0.500000 0.000000
O O8 0.727473 0.501512 0.932263
O O9 0.750000 0.250000 0.000000
O O10 0.500000 0.698976 0.250000
O O11 0.322070 0.751296 0.363354
O O12 0.250000 0.250000 0.000000
#
# Coordination Sequence:
#
# PCOD9303279 Si02
#       5
#     8   8   8   8   8
#     4  11  25  43  64  97 134 170 225 270 330 405
#     4  11  22  43  67  98 134 168 217 280 335 393
#     4  12  23  40  66  98 134 174 219 274 332 400
#     4  11  25  44  68  95 132 177 220 275 338 398
#     4  11  23  42  69  97 130 173 222 274 333 394
#
# _framework density 19.354945000000001
#
# number of rings (size 3 to 8) (size 9 to 14) (size 15 to 20)
#    0.000    0.800    4.000    3.600    0.000    5.600 
#    0.000    1.000    0.000    0.000    0.000    0.000 
#    0.000    0.000    0.000    0.000    0.000    0.000 
#
# Total GULP energy -111924.195170 kJ/mol
# GULP energy per Si atom -5596.209759 kJ/mol
# Density = 1.931089 g / cm^3
# Si number density = 19.354945 Si / 1000 Ang^3
#
#
#
# Elastic Constant Matrix: (Units=GPa)
#
#
# Indices 1 2 3 4 5 6 
#
# 1 111.6397 59.7732 54.9352 0.0000 0.4079 0.0000
# 2 59.7732 172.7538 61.2043 0.0000 13.7531 0.0000
# 3 54.9352 61.2043 140.8140 0.0000 15.8145 0.0000
# 4 0.0000 0.0000 0.0000 40.2564 0.0000 10.2937
# 5 0.4079 13.7531 15.8145 0.0000 29.2436 0.0000
# 6 0.0000 0.0000 0.0000 10.2937 0.0000 26.1343
#
#
#
# Elastic Compliance Matrix: (Units=1/GPa)
#
#
# Indices 1 2 3 4 5 6 
#
# 1 0.012603 -0.003258 -0.003889 0.000000 0.003460 0.000000
# 2 -0.003258 0.007766 -0.001809 0.000000 -0.002629 0.000000
# 3 -0.003889 -0.001809 0.009905 0.000000 -0.004451 0.000000
# 4 0.000000 0.000000 0.000000 0.027623 0.000000 -0.010880
# 5 0.003460 -0.002629 -0.004451 0.000000 0.037791 0.000000
# 6 0.000000 0.000000 0.000000 -0.010880 0.000000 0.042549
#
#
# Mechanical properties :
#
#
# Convention : Reuss Voigt Hill
#
# Bulk Modulus (GPa) = 80.89872 86.33700 83.61786
# Shear Modulus (GPa) = 31.19723 35.74650 33.47187
#
# Velocity S-wave (km/s) = 4.01914 4.30221 4.16308
# Velocity P-wave (km/s) = 7.96405 8.32963 8.14889
#
# Compressibility (1/GPa) = 0.01236113
#
# Stress axis : x y z
#
# Youngs Moduli (GPa) = 79.34622 128.76336 100.95789
#
# Poissons Ratio (x) = 0.41954 0.39264
# Poissons Ratio (y) = 0.25853 0.18266
# Poissons Ratio (z) = 0.30859 0.23296
#
# Static dielectric constant tensor:
#      x y z
#    x 1.640680 0.000000 -0.013530 
#    y 0.000000 1.659430 0.000000 
#    z -0.013530 0.000000 1.645650 
# 
# From -- ./inp_files/195051.got.cif
#   From: 2010.05.17/outbox.cif.g08.bks.cpg/sg15_98_cif.got.tgz:195051.got - 2010.06.03 18:47:42.
