data_PCOD9303276
_publ_section_title
;
Structure prediction by ZEFSAII (Michael W. Deem and Ramdas Pophale) SiO2 
 PCOD9303276
Probable space group: C 2/C
;
_chemical_formula_sum "Si O2"
_cell_formula_units_Z 56
_cell_length_a 11.984154
_cell_length_b 11.620831
_cell_length_c 21.667461
_cell_angle_alpha 90.000000
_cell_angle_beta 63.654703
_cell_angle_gamma 90.000000
_cell_volume 2704.123047
_symmetry_space_group_name_H-M "C 2/C"
_symmetry_group_IT_number 15
_symmetry_cell_setting 'monoclinic'
loop_
_space_group_symop_operation_xyz
x,y,z
-x,y,1/2-z
-x,-y,-z
x,-y,1/2+z
1/2+x,1/2+y,z
1/2-x,1/2+y,1/2-z
1/2-x,1/2-y,-z
1/2+x,1/2-y,1/2+z
loop_
_atom_site_type_symbol
_atom_site_label
_atom_site_fract_x
_atom_site_fract_y
_atom_site_fract_z
Si Si1 0.132786 0.790086 0.746166
Si Si2 0.870034 0.315446 0.499097
Si Si3 0.129913 0.717864 0.881600
Si Si4 0.773156 0.039510 0.931521
Si Si5 0.360305 0.549490 0.044853
Si Si6 0.835803 0.171254 0.618072
Si Si7 0.530488 0.466449 0.308109
O O1 0.161922 0.722212 0.801824
O O2 0.234064 0.757129 0.670623
O O3 0.116382 0.923991 0.769899
O O4 0.000000 0.757286 0.750000
O O5 0.750000 0.250000 0.500000
O O6 0.824762 0.438580 0.532900
O O7 0.912364 0.243038 0.548808
O O8 0.985943 0.318638 0.424998
O O9 0.216526 0.634026 0.900089
O O10 0.139666 0.845502 0.908040
O O11 0.807522 0.084180 0.991367
O O12 0.900878 0.991031 0.870312
O O13 0.287239 0.441114 0.092770
O O14 0.500000 0.500000 0.000000
O O15 0.911518 0.118524 0.656365
O O16 0.500000 0.408809 0.250000
#
# Coordination Sequence:
#
# PCOD9303276 Si02
#       7
#     8   8   8   8   8   8   8
#     4  11  24  41  65  93 127 174 223 270 326 401
#     4  12  22  40  68  99 130 174 227 272 323 402
#     4  12  24  42  65 100 140 171 220 282 336 394
#     4  12  24  40  68 102 133 171 221 280 338 399
#     4  12  21  43  69  98 130 179 222 271 340 405
#     4  12  23  40  71  96 128 170 228 273 327 402
#     4  11  22  43  67  93 128 175 222 268 336 404
#
# _framework density 20.709116000000002
#
# number of rings (size 3 to 8) (size 9 to 14) (size 15 to 20)
#    0.000    0.286    5.714    5.143    0.000    0.000 
#    0.000    0.000    3.143    0.000    0.000    0.000 
#    0.000    0.000    0.000    0.000    0.000    0.000 
#
# Total GULP energy -156567.061263 kJ/mol
# GULP energy per Si atom -5591.680759 kJ/mol
# Density = 2.066198 g / cm^3
# Si number density = 20.709116 Si / 1000 Ang^3
#
#
#
# Elastic Constant Matrix: (Units=GPa)
#
#
# Indices 1 2 3 4 5 6 
#
# 1 61.2192 11.1336 8.2823 0.0000 22.4683 0.0000
# 2 11.1336 69.9507 -2.5213 0.0000 1.7435 0.0000
# 3 8.2823 -2.5213 83.8142 0.0000 15.4857 0.0000
# 4 0.0000 0.0000 0.0000 40.3524 0.0000 10.2138
# 5 22.4683 1.7435 15.4857 0.0000 53.7030 0.0000
# 6 0.0000 0.0000 0.0000 10.2138 0.0000 26.7127
#
#
#
# Elastic Compliance Matrix: (Units=1/GPa)
#
#
# Indices 1 2 3 4 5 6 
#
# 1 0.019918 -0.002989 -0.000567 0.000000 -0.008073 0.000000
# 2 -0.002989 0.014780 0.000631 0.000000 0.000589 0.000000
# 3 -0.000567 0.000631 0.012640 0.000000 -0.003428 0.000000
# 4 0.000000 0.000000 0.000000 0.027437 0.000000 -0.010491
# 5 -0.008073 0.000589 -0.003428 0.000000 0.022968 0.000000
# 6 0.000000 0.000000 0.000000 -0.010491 0.000000 0.041447
#
#
# Mechanical properties :
#
#
# Convention : Reuss Voigt Hill
#
# Bulk Modulus (GPa) = 24.10366 27.64147 25.87257
# Shear Modulus (GPa) = 31.47281 37.35959 34.41620
#
# Velocity S-wave (km/s) = 3.90263 4.25198 4.08105
# Velocity P-wave (km/s) = 5.65436 6.12227 5.89296
#
# Compressibility (1/GPa) = 0.04148747
#
# Stress axis : x y z
#
# Youngs Moduli (GPa) = 50.20611 67.66061 79.11691
#
# Poissons Ratio (x) = 0.20226 0.04483
# Poissons Ratio (y) = 0.15009 -0.04994
# Poissons Ratio (z) = 0.02845 -0.04271
#
# Static dielectric constant tensor:
#      x y z
#    x 1.751900 0.000000 0.015610 
#    y 0.000000 1.747350 0.000000 
#    z 0.015610 0.000000 1.736310 
# 
# From -- ./inp_files/237555.got.cif
#   From: 2010.05.17/outbox.cif.g08.bks.cpg/sg15_119_cif.got.tgz:237555.got - 2010.06.03 18:47:42.
