data_PCOD9303697
_publ_section_title
;
Structure prediction by ZEFSAII (Michael W. Deem and Ramdas Pophale) SiO2 
 PCOD9303697
Probable space group: C 2/C
;
_chemical_formula_sum "Si O2"
_cell_formula_units_Z 48
_cell_length_a 22.938963
_cell_length_b 12.625712
_cell_length_c 8.701808
_cell_angle_alpha 90.000000
_cell_angle_beta 73.249280
_cell_angle_gamma 90.000000
_cell_volume 2413.285271
_symmetry_space_group_name_H-M "C 2/C"
_symmetry_group_IT_number 15
_symmetry_cell_setting 'monoclinic'
loop_
_space_group_symop_operation_xyz
x,y,z
-x,y,1/2-z
-x,-y,-z
x,-y,1/2+z
1/2+x,1/2+y,z
1/2-x,1/2+y,1/2-z
1/2-x,1/2-y,-z
1/2+x,1/2-y,1/2+z
loop_
_atom_site_type_symbol
_atom_site_label
_atom_site_fract_x
_atom_site_fract_y
_atom_site_fract_z
Si Si1 0.620914 0.683138 0.030637
Si Si2 0.840438 0.220042 0.175810
Si Si3 0.535666 0.589580 0.876953
Si Si4 0.291704 0.919502 0.033099
Si Si5 0.704781 0.859430 0.822715
Si Si6 0.651460 0.448346 0.089672
O O1 0.616504 0.722280 0.209446
O O2 0.650490 0.565606 0.019333
O O3 0.557884 0.673884 0.985940
O O4 0.664835 0.761610 0.906664
O O5 0.823332 0.333100 0.117107
O O6 0.775813 0.171312 0.281255
O O7 0.863415 0.140757 0.026102
O O8 0.500000 0.623852 0.750000
O O9 0.598990 0.548550 0.755990
O O10 0.500000 0.500000 0.000000
O O11 0.217924 0.917572 0.102740
O O12 0.309350 0.038151 0.064168
O O13 0.305418 0.889376 0.847146
#
# Coordination Sequence:
#
# PCOD9303697 Si02
#       6
#     8   8   8   8   8   8
#     4  12  23  39  61  90 128 168 209 266 321 370
#     4  11  23  37  62  90 130 176 208 251 315 386
#     4  12  26  41  62  90 126 167 217 273 329 375
#     4  11  23  39  60  94 134 177 212 244 309 397
#     4  11  23  36  60  91 132 175 214 251 305 388
#     4  11  23  40  61  92 136 167 210 264 317 379
#
# _framework density 19.889899
#
# number of rings (size 3 to 8) (size 9 to 14) (size 15 to 20)
#    0.000    0.667    3.333    6.500    7.000    0.000 
#    0.000    0.000    0.000    0.000    0.000   10.500 
#    5.000    0.167    0.000    0.000    0.000    0.000 
#
# Total GULP energy -134213.205971 kJ/mol
# GULP energy per Si atom -5592.216915 kJ/mol
# Density = 1.984463 g / cm^3
# Si number density = 19.889899 Si / 1000 Ang^3
#
#
#
# Elastic Constant Matrix: (Units=GPa)
#
#
# Indices 1 2 3 4 5 6 
#
# 1 82.9715 27.9395 66.5792 0.0000 32.5524 0.0000
# 2 27.9395 74.3042 22.7115 0.0000 -2.3010 0.0000
# 3 66.5792 22.7115 83.5428 0.0000 4.7016 0.0000
# 4 0.0000 0.0000 0.0000 39.1295 0.0000 4.7784
# 5 32.5524 -2.3010 4.7016 0.0000 46.5276 0.0000
# 6 0.0000 0.0000 0.0000 4.7784 0.0000 25.9203
#
#
#
# Elastic Compliance Matrix: (Units=1/GPa)
#
#
# Indices 1 2 3 4 5 6 
#
# 1 0.101737 -0.018095 -0.072516 0.000000 -0.064746 0.000000
# 2 -0.018095 0.017956 0.008827 0.000000 0.012656 0.000000
# 3 -0.072516 0.008827 0.064851 0.000000 0.044618 0.000000
# 4 0.000000 0.000000 0.000000 0.026145 0.000000 -0.004820
# 5 -0.064746 0.012656 0.044618 0.000000 0.062909 0.000000
# 6 0.000000 0.000000 0.000000 -0.004820 0.000000 0.039468
#
#
# Mechanical properties :
#
#
# Convention : Reuss Voigt Hill
#
# Bulk Modulus (GPa) = 47.67388 52.80878 50.24133
# Shear Modulus (GPa) = 10.33858 30.55471 20.44664
#
# Velocity S-wave (km/s) = 2.28236 3.92368 3.20971
# Velocity P-wave (km/s) = 5.56476 6.86551 6.24907
#
# Compressibility (1/GPa) = 0.02097585
#
# Stress axis : x y z
#
# Youngs Moduli (GPa) = 9.82926 55.69163 15.42000
#
# Poissons Ratio (x) = 1.00773 1.11820
# Poissons Ratio (y) = 0.17786 -0.13611
# Poissons Ratio (z) = 0.71278 -0.49158
#
# Static dielectric constant tensor:
#      x y z
#    x 1.740860 0.000000 0.049890 
#    y 0.000000 1.684500 0.000000 
#    z 0.049890 0.000000 1.755330 
# 
# From -- ./inp_files/60834.got.cif
#   From: 2010.05.17/outbox.cif.g08.bks.cpg/sg15_31_cif.got.tgz:60834.got - 2010.06.03 18:47:42.
