data_PCOD9303666
_publ_section_title
;
Structure prediction by ZEFSAII (Michael W. Deem and Ramdas Pophale) SiO2 
 PCOD9303666
Probable space group: C 2/C
;
_chemical_formula_sum "Si O2"
_cell_formula_units_Z 40
_cell_length_a 15.552033
_cell_length_b 7.360264
_cell_length_c 22.654903
_cell_angle_alpha 90.000000
_cell_angle_beta 39.174213
_cell_angle_gamma 90.000000
_cell_volume 1638.099251
_symmetry_space_group_name_H-M "C 2/C"
_symmetry_group_IT_number 15
_symmetry_cell_setting 'monoclinic'
loop_
_space_group_symop_operation_xyz
x,y,z
-x,y,1/2-z
-x,-y,-z
x,-y,1/2+z
1/2+x,1/2+y,z
1/2-x,1/2+y,1/2-z
1/2-x,1/2-y,-z
1/2+x,1/2-y,1/2+z
loop_
_atom_site_type_symbol
_atom_site_label
_atom_site_fract_x
_atom_site_fract_y
_atom_site_fract_z
Si Si1 0.344544 0.143227 0.829556
Si Si2 0.364799 0.473749 0.362779
Si Si3 0.791138 0.847241 0.734340
Si Si4 0.031057 0.194627 0.872256
Si Si5 0.348404 0.295883 0.574836
O O1 0.500000 0.074335 0.750000
O O2 0.336703 0.310132 0.880859
O O3 0.317149 0.241412 0.781179
O O4 0.241509 0.976449 0.890241
O O5 0.500000 0.455753 0.250000
O O6 0.402749 0.359839 0.401073
O O7 0.236634 0.376052 0.402348
O O8 0.628460 0.865624 0.809269
O O9 0.864372 0.777202 0.636149
O O10 0.860000 0.041946 0.703153
O O11 0.984841 0.191825 0.964292
#
# Coordination Sequence:
#
# PCOD9303666 Si02
#       5
#     8   8   8   8   8
#     4  11  24  44  72 101 140 188 227 286 351 406
#     4  11  22  48  70 102 145 180 230 289 344 416
#     4  12  23  45  69  97 144 180 223 296 339 404
#     4  12  26  47  70 103 141 182 235 288 348 414
#     4  12  26  45  74 105 136 187 236 280 350 420
#
# _framework density 24.418545999999999
#
# number of rings (size 3 to 8) (size 9 to 14) (size 15 to 20)
#    0.000    0.400    8.000    1.800    0.000    0.800 
#    3.600    2.000    0.000    0.000    0.000    0.000 
#    0.000    0.000    0.000    0.000    0.000    0.000 
#
# Total GULP energy -111890.048378 kJ/mol
# GULP energy per Si atom -5594.502419 kJ/mol
# Density = 2.436297 g / cm^3
# Si number density = 24.418546 Si / 1000 Ang^3
#
#
#
# Elastic Constant Matrix: (Units=GPa)
#
#
# Indices 1 2 3 4 5 6 
#
# 1 78.0135 -12.1082 5.3919 0.0000 6.8496 0.0001
# 2 -12.1082 76.6534 37.5988 0.0000 -15.3122 0.0002
# 3 5.3919 37.5988 119.4667 0.0000 9.9422 0.0000
# 4 0.0000 0.0000 0.0000 16.6603 0.0000 -8.3214
# 5 6.8496 -15.3122 9.9422 0.0000 29.4445 0.0000
# 6 0.0001 0.0002 0.0000 -8.3214 0.0000 41.7742
#
#
#
# Elastic Compliance Matrix: (Units=1/GPa)
#
#
# Indices 1 2 3 4 5 6 
#
# 1 0.013411 0.002452 -0.001259 0.000000 -0.001419 0.000000
# 2 0.002452 0.019339 -0.007189 0.000000 0.011914 0.000000
# 3 -0.001259 -0.007189 0.011294 0.000000 -0.007259 0.000000
# 4 0.000000 0.000000 0.000000 0.066655 0.000000 0.013278
# 5 -0.001419 0.011914 -0.007259 0.000000 0.042939 0.000000
# 6 0.000000 0.000000 0.000000 0.013278 0.000000 0.026583
#
#
# Mechanical properties :
#
#
# Convention : Reuss Voigt Hill
#
# Bulk Modulus (GPa) = 31.19829 37.32206 34.26018
# Shear Modulus (GPa) = 24.64327 33.79254 29.21790
#
# Velocity S-wave (km/s) = 3.18024 3.72410 3.46286
# Velocity P-wave (km/s) = 5.12733 5.81458 5.48174
#
# Compressibility (1/GPa) = 0.03205303
#
# Stress axis : x y z
#
# Youngs Moduli (GPa) = 74.56824 51.70901 88.54373
#
# Poissons Ratio (x) = -0.12681 0.11147
# Poissons Ratio (y) = -0.18287 0.63650
# Poissons Ratio (z) = 0.09388 0.37171
#
# Static dielectric constant tensor:
#      x y z
#    x 2.058790 0.000000 -0.020550 
#    y 0.000000 2.067160 0.000000 
#    z -0.020550 0.000000 1.910390 
# 
# From -- ./inp_files/272512.got.cif
#   From: 2010.05.17/outbox.cif.g08.bks.cpg/sg15_137_cif.got.tgz:272512.got - 2010.06.03 18:47:42.
