data_PCOD9303243
_publ_section_title
;
Structure prediction by ZEFSAII (Michael W. Deem and Ramdas Pophale) SiO2 
 PCOD9303243
Probable space group: C 2/C
;
_chemical_formula_sum "Si O2"
_cell_formula_units_Z 48
_cell_length_a 29.261840
_cell_length_b 7.975068
_cell_length_c 16.679065
_cell_angle_alpha 90.000000
_cell_angle_beta 146.561702
_cell_angle_gamma 90.000000
_cell_volume 2144.814760
_symmetry_space_group_name_H-M "C 2/C"
_symmetry_group_IT_number 15
_symmetry_cell_setting 'monoclinic'
loop_
_space_group_symop_operation_xyz
x,y,z
-x,y,1/2-z
-x,-y,-z
x,-y,1/2+z
1/2+x,1/2+y,z
1/2-x,1/2+y,1/2-z
1/2-x,1/2-y,-z
1/2+x,1/2-y,1/2+z
loop_
_atom_site_type_symbol
_atom_site_label
_atom_site_fract_x
_atom_site_fract_y
_atom_site_fract_z
Si Si1 0.087291 0.286854 0.332514
Si Si2 0.650419 0.861020 0.989895
Si Si3 0.005603 0.323648 0.466724
Si Si4 0.164908 0.881397 0.204703
Si Si5 0.876791 0.055761 0.669362
Si Si6 0.442616 0.645337 0.528062
O O1 0.132628 0.450813 0.433964
O O2 0.000000 0.260436 0.250000
O O3 0.055316 0.325479 0.196739
O O4 0.142526 0.117869 0.405119
O O5 0.649155 0.723276 0.916357
O O6 0.738751 0.846885 0.162217
O O7 0.580554 0.801300 0.950315
O O8 0.100594 0.268850 0.591458
O O9 0.000000 0.500000 0.500000
O O10 0.971198 0.194437 0.481466
O O11 0.153434 0.932209 0.282608
O O12 0.134543 0.024448 0.099202
O O13 0.977166 0.056490 0.818033
#
# Coordination Sequence:
#
# PCOD9303243 Si02
#       6
#     8   8   8   8   8   8
#     4  12  23  41  70 101 131 183 241 276 335 419
#     4  12  27  42  68 107 142 170 230 298 348 395
#     4  11  22  42  74  96 132 183 239 273 329 427
#     4  11  24  47  66 101 141 180 226 287 359 405
#     4  11  22  46  73  93 136 187 230 280 340 420
#     4  11  22  47  67  95 138 186 224 279 345 419
#
# _framework density 22.379556000000001
#
# number of rings (size 3 to 8) (size 9 to 14) (size 15 to 20)
#    0.000    0.667    3.333    7.000    0.000    3.333 
#    3.000    0.000    0.000    0.000    0.000    0.000 
#    0.000    0.000    0.000    0.000    0.000    0.000 
#
# Total GULP energy -134238.981181 kJ/mol
# GULP energy per Si atom -5593.290883 kJ/mol
# Density = 2.232862 g / cm^3
# Si number density = 22.379556 Si / 1000 Ang^3
#
#
#
# Elastic Constant Matrix: (Units=GPa)
#
#
# Indices 1 2 3 4 5 6 
#
# 1 29.2105 -8.4987 -10.9091 0.0000 -0.3770 0.0000
# 2 -8.4987 87.8120 17.0034 0.0000 9.9256 0.0000
# 3 -10.9091 17.0034 69.5645 0.0000 2.1692 0.0000
# 4 0.0000 0.0000 0.0000 34.5328 0.0000 -9.0489
# 5 -0.3770 9.9256 2.1692 0.0000 23.0639 0.0000
# 6 0.0000 0.0000 0.0000 -9.0489 0.0000 22.3413
#
#
#
# Elastic Compliance Matrix: (Units=1/GPa)
#
#
# Indices 1 2 3 4 5 6 
#
# 1 0.036933 0.002692 0.005166 0.000000 -0.001041 0.000000
# 2 0.002692 0.012725 -0.002526 0.000000 -0.005195 0.000000
# 3 0.005166 -0.002526 0.015813 0.000000 -0.000316 0.000000
# 4 0.000000 0.000000 0.000000 0.032396 0.000000 0.013121
# 5 -0.001041 -0.005195 -0.000316 0.000000 0.045606 0.000000
# 6 0.000000 0.000000 0.000000 0.013121 0.000000 0.050075
#
#
# Mechanical properties :
#
#
# Convention : Reuss Voigt Hill
#
# Bulk Modulus (GPa) = 13.13458 20.19757 16.66608
# Shear Modulus (GPa) = 24.00820 28.58703 26.29762
#
# Velocity S-wave (km/s) = 3.27888 3.57791 3.43165
# Velocity P-wave (km/s) = 4.49627 5.11011 4.81299
#
# Compressibility (1/GPa) = 0.07613488
#
# Stress axis : x y z
#
# Youngs Moduli (GPa) = 27.07572 78.58675 63.24046
#
# Poissons Ratio (x) = -0.21153 -0.32673
# Poissons Ratio (y) = -0.07288 0.15976
# Poissons Ratio (z) = -0.13989 0.19852
#
# Static dielectric constant tensor:
#      x y z
#    x 1.828720 0.000000 -0.016300 
#    y 0.000000 1.849370 0.000000 
#    z -0.016300 0.000000 1.779420 
# 
# From -- ./inp_files/224524.got.cif
#   From: 2010.05.17/outbox.cif.g08.bks.cpg/sg15_113_cif.got.tgz:224524.got - 2010.06.03 18:47:42.
