data_PCOD9303087
_publ_section_title
;
Structure prediction by ZEFSAII (Michael W. Deem and Ramdas Pophale) SiO2 
 PCOD9303087
Probable space group: C 2/C
;
_chemical_formula_sum "Si O2"
_cell_formula_units_Z 48
_cell_length_a 14.556129
_cell_length_b 9.477134
_cell_length_c 13.955231
_cell_angle_alpha 90.000000
_cell_angle_beta 87.652041
_cell_angle_gamma 90.000000
_cell_volume 1923.513253
_symmetry_space_group_name_H-M "C 2/C"
_symmetry_group_IT_number 15
_symmetry_cell_setting 'monoclinic'
loop_
_space_group_symop_operation_xyz
x,y,z
-x,y,1/2-z
-x,-y,-z
x,-y,1/2+z
1/2+x,1/2+y,z
1/2-x,1/2+y,1/2-z
1/2-x,1/2-y,-z
1/2+x,1/2-y,1/2+z
loop_
_atom_site_type_symbol
_atom_site_label
_atom_site_fract_x
_atom_site_fract_y
_atom_site_fract_z
Si Si1 0.425451 0.911397 0.622540
Si Si2 0.865075 0.357639 0.826592
Si Si3 0.626925 0.343409 0.666357
Si Si4 0.837439 0.106294 0.950240
Si Si5 0.578702 0.250297 0.868519
Si Si6 0.307162 0.104926 0.945500
O O1 0.371712 0.839487 0.712992
O O2 0.530494 0.863443 0.635115
O O3 0.388347 0.876421 0.519606
O O4 0.411364 0.080819 0.630919
O O5 0.808615 0.241191 0.888193
O O6 0.832120 0.514131 0.850820
O O7 0.617701 0.503082 0.630382
O O8 0.636292 0.321665 0.779282
O O9 0.528434 0.275290 0.647811
O O10 0.703277 0.259915 0.599779
O O11 0.896518 0.172532 0.033504
O O12 0.763948 0.002393 0.001761
#
# Coordination Sequence:
#
# PCOD9303087 Si02
#       6
#     8   8   8   8   8   8
#     4  11  22  41  73  96 123 183 231 274 318 397
#     4  11  22  42  68  98 127 172 235 270 319 395
#     4  11  24  45  68  95 132 179 225 269 329 406
#     4  12  27  40  64 106 138 168 212 287 340 391
#     4  11  22  44  71  92 130 180 228 275 327 390
#     4  12  23  43  66  96 135 174 216 266 343 403
#
# _framework density 24.954338
#
# number of rings (size 3 to 8) (size 9 to 14) (size 15 to 20)
#    0.000    0.667    5.000    4.000    0.000    5.333 
#    0.000    0.000    0.000    0.000    0.000    0.000 
#    0.000    0.000    0.000    0.000    0.000    0.000 
#
# Total GULP energy -134226.176839 kJ/mol
# GULP energy per Si atom -5592.757368 kJ/mol
# Density = 2.489754 g / cm^3
# Si number density = 24.954338 Si / 1000 Ang^3
#
#
#
# Elastic Constant Matrix: (Units=GPa)
#
#
# Indices 1 2 3 4 5 6 
#
# 1 51.4681 19.9981 20.5780 0.0000 12.0496 0.0000
# 2 19.9981 126.8889 70.3070 0.0000 -3.2038 0.0000
# 3 20.5780 70.3070 141.9292 0.0000 11.1601 0.0000
# 4 0.0000 0.0000 0.0000 25.1280 0.0000 -0.7880
# 5 12.0496 -3.2038 11.1601 0.0000 31.0920 0.0000
# 6 0.0000 0.0000 0.0000 -0.7880 0.0000 28.5187
#
#
#
# Elastic Compliance Matrix: (Units=1/GPa)
#
#
# Indices 1 2 3 4 5 6 
#
# 1 0.023230 -0.003326 -0.001014 0.000000 -0.008981 0.000000
# 2 -0.003326 0.011645 -0.005641 0.000000 0.004514 0.000000
# 3 -0.001014 -0.005641 0.010293 0.000000 -0.003883 0.000000
# 4 0.000000 0.000000 0.000000 0.039831 0.000000 0.001101
# 5 -0.008981 0.004514 -0.003883 0.000000 0.037502 0.000000
# 6 0.000000 0.000000 0.000000 0.001101 0.000000 0.035095
#
#
# Mechanical properties :
#
#
# Convention : Reuss Voigt Hill
#
# Bulk Modulus (GPa) = 39.67518 60.22806 49.95162
# Shear Modulus (GPa) = 26.88760 30.90795 28.89778
#
# Velocity S-wave (km/s) = 3.28605 3.52317 3.40667
# Velocity P-wave (km/s) = 5.50737 6.38263 5.96109
#
# Compressibility (1/GPa) = 0.02520467
#
# Stress axis : x y z
#
# Youngs Moduli (GPa) = 43.04766 85.87616 97.15787
#
# Poissons Ratio (x) = 0.28562 0.09855
# Poissons Ratio (y) = 0.14317 0.54808
# Poissons Ratio (z) = 0.04366 0.48443
#
# Static dielectric constant tensor:
#      x y z
#    x 2.051010 0.000000 -0.087060 
#    y 0.000000 1.911030 0.000000 
#    z -0.087060 0.000000 1.968970 
# 
# From -- ./inp_files/159705.got.cif
#   From: 2010.05.17/outbox.cif.g08.bks.cpg/sg15_80_cif.got.tgz:159705.got - 2010.06.03 18:47:42.
