data_PCOD9303171
_publ_section_title
;
Structure prediction by ZEFSAII (Michael W. Deem and Ramdas Pophale) SiO2 
 PCOD9303171
Probable space group: C 2/C
;
_chemical_formula_sum "Si O2"
_cell_formula_units_Z 52
_cell_length_a 12.157000
_cell_length_b 21.678875
_cell_length_c 9.595981
_cell_angle_alpha 90.000000
_cell_angle_beta 55.329082
_cell_angle_gamma 90.000000
_cell_volume 2079.950533
_symmetry_space_group_name_H-M "C 2/C"
_symmetry_group_IT_number 15
_symmetry_cell_setting 'monoclinic'
loop_
_space_group_symop_operation_xyz
x,y,z
-x,y,1/2-z
-x,-y,-z
x,-y,1/2+z
1/2+x,1/2+y,z
1/2-x,1/2+y,1/2-z
1/2-x,1/2-y,-z
1/2+x,1/2-y,1/2+z
loop_
_atom_site_type_symbol
_atom_site_label
_atom_site_fract_x
_atom_site_fract_y
_atom_site_fract_z
Si Si1 0.774914 0.635739 0.621114
Si Si2 0.805076 0.986998 0.219835
Si Si3 0.374423 0.419415 0.912251
Si Si4 0.066430 0.748238 0.903455
Si Si5 0.804058 0.678966 0.075892
Si Si6 0.631939 0.906737 0.723365
Si Si7 0.500000 0.306788 0.250000
O O1 0.794883 0.566004 0.655998
O O2 0.853916 0.684363 0.653319
O O3 0.819391 0.639931 0.429358
O O4 0.619125 0.652008 0.725101
O O5 0.852212 0.023508 0.321926
O O6 0.735490 0.039417 0.178721
O O7 0.898720 0.948308 0.046341
O O8 0.500000 0.386949 0.750000
O O9 0.255545 0.369429 0.993839
O O10 0.173961 0.793051 0.749972
O O11 0.047850 0.769153 0.078869
O O12 0.914845 0.731417 0.958521
O O13 0.880566 0.633592 0.129106
O O14 0.500000 0.934501 0.750000
#
# Coordination Sequence:
#
# PCOD9303171 Si02
#       7
#     8   8   8   8   8   8   4
#     4  12  24  39  70 105 140 185 237 299 359 418
#     4  11  26  45  70 109 140 192 236 300 355 435
#     4  11  26  47  74 103 148 188 240 291 365 429
#     4  12  23  43  68 107 140 189 239 300 348 428
#     4  11  25  43  72 106 140 188 241 299 357 421
#     4  11  22  42  69 102 146 182 238 294 363 421
#     4  12  24  38  70 104 146 184 250 296 356 416
#
# _framework density 25.000595000000001
#
# number of rings (size 3 to 8) (size 9 to 14) (size 15 to 20)
#    0.000    0.615    6.154    1.846    3.231    1.846 
#    0.000    3.077    0.000    0.000    0.000    0.000 
#    0.000    0.000    0.000    0.000    0.000    0.000 
#
# Total GULP energy -145313.096310 kJ/mol
# GULP energy per Si atom -5588.965243 kJ/mol
# Density = 2.494369 g / cm^3
# Si number density = 25.000595 Si / 1000 Ang^3
#
#
#
# Elastic Constant Matrix: (Units=GPa)
#
#
# Indices 1 2 3 4 5 6 
#
# 1 72.4503 35.4406 35.0528 0.0000 1.4200 0.0000
# 2 35.4406 58.1288 -5.8149 0.0000 7.1388 0.0000
# 3 35.0528 -5.8149 77.5692 0.0000 3.3675 0.0000
# 4 0.0000 0.0000 0.0000 42.6958 0.0000 -3.5931
# 5 1.4200 7.1388 3.3675 0.0000 29.7021 0.0000
# 6 0.0000 0.0000 0.0000 -3.5931 0.0000 31.3832
#
#
#
# Elastic Compliance Matrix: (Units=1/GPa)
#
#
# Indices 1 2 3 4 5 6 
#
# 1 0.032653 -0.022274 -0.016672 0.000000 0.005683 0.000000
# 2 -0.022274 0.033101 0.012910 0.000000 -0.008355 0.000000
# 3 -0.016672 0.012910 0.021600 0.000000 -0.004755 0.000000
# 4 0.000000 0.000000 0.000000 0.023649 0.000000 0.002708
# 5 0.005683 -0.008355 -0.004755 0.000000 0.035943 0.000000
# 6 0.000000 0.000000 0.000000 0.002708 0.000000 0.032174
#
#
# Mechanical properties :
#
#
# Convention : Reuss Voigt Hill
#
# Bulk Modulus (GPa) = 28.34417 37.50059 32.92238
# Shear Modulus (GPa) = 20.57994 30.32086 25.45040
#
# Velocity S-wave (km/s) = 2.87222 3.48631 3.19406
# Velocity P-wave (km/s) = 4.72880 5.58912 5.17686
#
# Compressibility (1/GPa) = 0.03528062
#
# Stress axis : x y z
#
# Youngs Moduli (GPa) = 30.62463 30.21058 46.29640
#
# Poissons Ratio (x) = 0.67292 0.77187
# Poissons Ratio (y) = 0.68214 -0.59767
# Poissons Ratio (z) = 0.51058 -0.39001
#
# Static dielectric constant tensor:
#      x y z
#    x 1.983840 0.000000 -0.048440 
#    y 0.000000 1.902530 0.000000 
#    z -0.048440 0.000000 2.116930 
# 
# From -- ./inp_files/91193.got.cif
#   From: 2010.05.17/outbox.cif.g08.bks.cpg/sg15_46_cif.got.tgz:91193.got - 2010.06.03 18:47:42.
