data_PCOD9303107
_publ_section_title
;
Structure prediction by ZEFSAII (Michael W. Deem and Ramdas Pophale) SiO2 
 PCOD9303107
Probable space group: C 2/C
;
_chemical_formula_sum "Si O2"
_cell_formula_units_Z 52
_cell_length_a 10.957656
_cell_length_b 29.106060
_cell_length_c 7.769942
_cell_angle_alpha 90.000000
_cell_angle_beta 107.301626
_cell_angle_gamma 90.000000
_cell_volume 2365.971996
_symmetry_space_group_name_H-M "C 2/C"
_symmetry_group_IT_number 15
_symmetry_cell_setting 'monoclinic'
loop_
_space_group_symop_operation_xyz
x,y,z
-x,y,1/2-z
-x,-y,-z
x,-y,1/2+z
1/2+x,1/2+y,z
1/2-x,1/2+y,1/2-z
1/2-x,1/2-y,-z
1/2+x,1/2-y,1/2+z
loop_
_atom_site_type_symbol
_atom_site_label
_atom_site_fract_x
_atom_site_fract_y
_atom_site_fract_z
Si Si1 0.302898 0.644950 0.463193
Si Si2 0.229587 0.782234 0.245169
Si Si3 0.578595 0.650603 0.452320
Si Si4 0.604887 0.814323 0.656997
Si Si5 0.838660 0.045006 0.535012
Si Si6 0.000000 0.291550 0.250000
Si Si7 0.616806 0.551142 0.540284
O O1 0.264908 0.682674 0.591570
O O2 0.457055 0.645270 0.531753
O O3 0.236369 0.660552 0.258948
O O4 0.262091 0.591709 0.467010
O O5 0.137355 0.738748 0.217490
O O6 0.373790 0.765898 0.265426
O O7 0.173075 0.811716 0.064937
O O8 0.500000 0.662096 0.250000
O O9 0.645172 0.600858 0.475524
O O10 0.500000 0.830948 0.750000
O O11 0.551357 0.817987 0.441222
O O12 0.867581 0.051201 0.748285
O O13 0.962260 0.045886 0.457727
O O14 0.802696 0.991447 0.499500
#
# Coordination Sequence:
#
# PCOD9303107 Si02
#       7
#     8   8   8   8   8   4   8
#     4  11  22  42  64  95 130 175 215 266 333 390
#     4  12  25  44  67  92 134 174 224 270 326 390
#     4  11  23  36  61  99 133 169 216 269 327 393
#     4  12  26  45  71  94 132 177 219 276 327 387
#     4   9  18  32  54  85 128 162 207 250 325 396
#     4  12  28  46  64  96 124 178 226 270 320 392
#     4   9  18  31  52  86 126 166 196 260 323 387
#
# _framework density 21.978282
#
# number of rings (size 3 to 8) (size 9 to 14) (size 15 to 20)
#    0.000    1.231    3.077    3.231    9.692    0.000 
#    0.000    0.000    0.000    0.000    2.000    3.231 
#    0.000    0.000    0.000    0.000    0.000    0.000 
#
# Total GULP energy -145062.316513 kJ/mol
# GULP energy per Si atom -5579.319866 kJ/mol
# Density = 2.192826 g / cm^3
# Si number density = 21.978282 Si / 1000 Ang^3
#
#
#
# Elastic Constant Matrix: (Units=GPa)
#
#
# Indices 1 2 3 4 5 6 
#
# 1 65.7299 11.4218 11.4740 0.0000 1.8852 0.0000
# 2 11.4218 144.2151 44.4942 0.0000 13.3785 0.0000
# 3 11.4740 44.4942 145.3764 0.0000 10.2417 0.0000
# 4 0.0000 0.0000 0.0000 30.5996 0.0000 0.5676
# 5 1.8852 13.3785 10.2417 0.0000 25.7182 0.0000
# 6 0.0000 0.0000 0.0000 0.5676 0.0000 14.1329
#
#
#
# Elastic Compliance Matrix: (Units=1/GPa)
#
#
# Indices 1 2 3 4 5 6 
#
# 1 0.015543 -0.000918 -0.000925 0.000000 -0.000293 0.000000
# 2 -0.000918 0.007966 -0.002138 0.000000 -0.003225 0.000000
# 3 -0.000925 -0.002138 0.007740 0.000000 -0.001902 0.000000
# 4 0.000000 0.000000 0.000000 0.032705 0.000000 -0.001314
# 5 -0.000293 -0.003225 -0.001902 0.000000 0.041339 0.000000
# 6 0.000000 0.000000 0.000000 -0.001314 0.000000 0.070809
#
#
# Mechanical properties :
#
#
# Convention : Reuss Voigt Hill
#
# Bulk Modulus (GPa) = 42.94497 54.45569 48.70033
# Shear Modulus (GPa) = 26.06501 33.28558 29.67530
#
# Velocity S-wave (km/s) = 3.44749 3.89585 3.67851
# Velocity P-wave (km/s) = 5.95223 6.71325 6.34416
#
# Compressibility (1/GPa) = 0.02328561
#
# Stress axis : x y z
#
# Youngs Moduli (GPa) = 64.33663 125.53795 129.19608
#
# Poissons Ratio (x) = 0.11530 0.11951
# Poissons Ratio (y) = 0.05909 0.27626
# Poissons Ratio (z) = 0.05951 0.26844
#
# Static dielectric constant tensor:
#      x y z
#    x 1.890130 0.000000 -0.065090 
#    y 0.000000 1.863500 0.000000 
#    z -0.065090 0.000000 1.836460 
# 
# From -- ./inp_files/33729.got.cif
#   From: 2010.05.17/outbox.cif.g08.bks.cpg/sg15_17_cif.got.tgz:33729.got - 2010.06.03 18:47:42.
