data_PCOD9303895
_publ_section_title
;
Structure prediction by ZEFSAII (Michael W. Deem and Ramdas Pophale) SiO2 
 PCOD9303895
Probable space group: C 2/C
;
_chemical_formula_sum "Si O2"
_cell_formula_units_Z 60
_cell_length_a 11.870841
_cell_length_b 13.170268
_cell_length_c 18.093140
_cell_angle_alpha 90.000000
_cell_angle_beta 114.893567
_cell_angle_gamma 90.000000
_cell_volume 2565.907740
_symmetry_space_group_name_H-M "C 2/C"
_symmetry_group_IT_number 15
_symmetry_cell_setting 'monoclinic'
loop_
_space_group_symop_operation_xyz
x,y,z
-x,y,1/2-z
-x,-y,-z
x,-y,1/2+z
1/2+x,1/2+y,z
1/2-x,1/2+y,1/2-z
1/2-x,1/2-y,-z
1/2+x,1/2-y,1/2+z
loop_
_atom_site_type_symbol
_atom_site_label
_atom_site_fract_x
_atom_site_fract_y
_atom_site_fract_z
Si Si1 0.226766 0.453275 0.794572
Si Si2 0.394308 0.900449 0.887162
Si Si3 0.029053 0.842976 0.670881
Si Si4 0.844345 0.696822 0.584547
Si Si5 0.840802 0.009281 0.598984
Si Si6 0.819208 0.813109 0.326547
Si Si7 0.158368 0.541844 0.437944
Si Si8 0.500000 0.651576 0.750000
O O1 0.128216 0.446844 0.701424
O O2 0.329903 0.370432 0.802164
O O3 0.300419 0.562583 0.820051
O O4 0.166729 0.424976 0.855736
O O5 0.277174 0.952017 0.896318
O O6 0.391385 0.777720 0.890477
O O7 0.534319 0.927425 0.945400
O O8 0.000000 0.855436 0.750000
O O9 0.984015 0.738214 0.623406
O O10 0.939028 0.923018 0.604562
O O11 0.750000 0.750000 0.500000
O O12 0.807323 0.709419 0.661554
O O13 0.839047 0.579643 0.565606
O O14 0.782679 0.071309 0.515640
O O15 0.918126 0.081865 0.673235
O O16 0.892443 0.795563 0.269345
#
# Coordination Sequence:
#
# PCOD9303895 Si02
#       8
#     8   8   8   8   8   8   8   4
#     4  11  24  43  67 102 127 178 227 275 331 401
#     4  12  23  45  66  94 139 179 216 274 342 403
#     4  12  20  41  71  94 124 174 229 272 322 402
#     4  11  23  42  67 102 134 171 218 283 343 395
#     4  12  21  45  70  94 131 179 225 270 335 396
#     4  11  23  40  70  93 134 176 221 274 331 403
#     4  11  27  40  65 103 140 170 217 282 343 394
#     4  12  24  44  72  94 130 188 232 272 328 414
#
# _framework density 23.383535999999999
#
# number of rings (size 3 to 8) (size 9 to 14) (size 15 to 20)
#    0.000    0.533    7.333    0.800    1.867    4.800 
#    0.000    0.667    0.000    0.000    0.000    0.000 
#    0.000    0.000    0.000    0.000    0.000    0.000 
#
# Total GULP energy -167019.509239 kJ/mol
# GULP energy per Si atom -5567.316975 kJ/mol
# Density = 2.333031 g / cm^3
# Si number density = 23.383536 Si / 1000 Ang^3
#
#
#
# Elastic Constant Matrix: (Units=GPa)
#
#
# Indices 1 2 3 4 5 6 
#
# 1 82.7347 18.0554 11.8586 0.0000 1.2730 0.0000
# 2 18.0554 45.8876 5.3526 0.0000 3.8999 0.0000
# 3 11.8586 5.3526 65.5534 0.0000 5.3130 0.0000
# 4 0.0000 0.0000 0.0000 24.0778 0.0000 4.0228
# 5 1.2730 3.8999 5.3130 0.0000 39.1576 0.0000
# 6 0.0000 0.0000 0.0000 4.0228 0.0000 11.1758
#
#
#
# Elastic Compliance Matrix: (Units=1/GPa)
#
#
# Indices 1 2 3 4 5 6 
#
# 1 0.013488 -0.005097 -0.002052 0.000000 0.000348 0.000000
# 2 -0.005097 0.024080 -0.000873 0.000000 -0.002114 0.000000
# 3 -0.002052 -0.000873 0.015859 0.000000 -0.001998 0.000000
# 4 0.000000 0.000000 0.000000 0.044190 0.000000 -0.015906
# 5 0.000348 -0.002114 -0.001998 0.000000 0.026008 0.000000
# 6 0.000000 0.000000 0.000000 -0.015906 0.000000 0.095205
#
#
# Mechanical properties :
#
#
# Convention : Reuss Voigt Hill
#
# Bulk Modulus (GPa) = 26.75034 29.41211 28.08122
# Shear Modulus (GPa) = 20.21560 25.47620 22.84590
#
# Velocity S-wave (km/s) = 2.94347 3.30433 3.12910
# Velocity P-wave (km/s) = 4.79757 5.21187 5.00900
#
# Compressibility (1/GPa) = 0.03738270
#
# Stress axis : x y z
#
# Youngs Moduli (GPa) = 74.14007 41.52908 63.05509
#
# Poissons Ratio (x) = 0.21169 0.12939
# Poissons Ratio (y) = 0.37792 0.05503
# Poissons Ratio (z) = 0.15213 0.03624
#
# Static dielectric constant tensor:
#      x y z
#    x 1.859150 0.000000 -0.018480 
#    y 0.000000 1.920270 0.000000 
#    z -0.018480 0.000000 2.016810 
# 
# From -- ./inp_files/198407.got.cif
#   From: 2010.05.17/outbox.cif.g08.bks.cpg/sg15_100_cif.got.tgz:198407.got - 2010.06.03 18:47:42.
