data_PCOD9303450
_publ_section_title
;
Structure prediction by ZEFSAII (Michael W. Deem and Ramdas Pophale) SiO2 
 PCOD9303450
Probable space group: C 2/C
;
_chemical_formula_sum "Si O2"
_cell_formula_units_Z 44
_cell_length_a 22.391206
_cell_length_b 10.589998
_cell_length_c 11.167760
_cell_angle_alpha 90.000000
_cell_angle_beta 46.897938
_cell_angle_gamma 90.000000
_cell_volume 1933.500109
_symmetry_space_group_name_H-M "C 2/C"
_symmetry_group_IT_number 15
_symmetry_cell_setting 'monoclinic'
loop_
_space_group_symop_operation_xyz
x,y,z
-x,y,1/2-z
-x,-y,-z
x,-y,1/2+z
1/2+x,1/2+y,z
1/2-x,1/2+y,1/2-z
1/2-x,1/2-y,-z
1/2+x,1/2-y,1/2+z
loop_
_atom_site_type_symbol
_atom_site_label
_atom_site_fract_x
_atom_site_fract_y
_atom_site_fract_z
Si Si1 0.312617 0.656172 0.975194
Si Si2 0.500000 0.709941 0.250000
Si Si3 0.879082 0.598128 0.013992
Si Si4 0.420411 0.488949 0.691306
Si Si5 0.167400 0.537338 0.684346
Si Si6 0.801652 0.198505 0.246935
O O1 0.390868 0.618079 0.791202
O O2 0.250000 0.750000 0.000000
O O3 0.256544 0.530181 0.068866
O O4 0.336350 0.719552 0.067137
O O5 0.452543 0.802741 0.404227
O O6 0.560228 0.615450 0.235212
O O7 0.880715 0.519232 0.134973
O O8 0.794683 0.677483 0.132735
O O9 0.871577 0.524726 0.895458
O O10 0.500000 0.500000 0.500000
O O11 0.343418 0.432393 0.726790
O O12 0.178471 0.685852 0.694405
#
# Coordination Sequence:
#
# PCOD9303450 Si02
#       6
#     8   4   8   8   8   8
#     4  11  25  42  73 109 143 185 245 300 361 443
#     4  12  26  46  66 106 146 194 236 302 376 430
#     4  11  24  42  74 101 147 188 242 299 365 442
#     4  12  26  45  72 105 145 185 244 307 373 435
#     4  11  22  44  71 105 138 191 241 294 354 441
#     4  11  23  44  73 100 142 193 238 297 367 445
#
# _framework density 22.756657000000001
#
# number of rings (size 3 to 8) (size 9 to 14) (size 15 to 20)
#    0.000    0.727    3.636    3.818    7.636    0.727 
#    0.000    0.000    0.000    0.000    0.000    0.000 
#    0.000    0.000    0.000    0.000    0.000    0.000 
#
# Total GULP energy -123005.378937 kJ/mol
# GULP energy per Si atom -5591.153588 kJ/mol
# Density = 2.270486 g / cm^3
# Si number density = 22.756657 Si / 1000 Ang^3
#
#
#
# Elastic Constant Matrix: (Units=GPa)
#
#
# Indices 1 2 3 4 5 6 
#
# 1 38.8711 2.6104 15.1747 0.0000 20.6427 0.0000
# 2 2.6104 64.5364 47.0556 0.0000 5.0022 0.0000
# 3 15.1747 47.0556 137.0916 0.0000 13.7320 0.0000
# 4 0.0000 0.0000 0.0000 40.7785 0.0000 -3.5958
# 5 20.6427 5.0022 13.7320 0.0000 46.3506 0.0000
# 6 0.0000 0.0000 0.0000 -3.5958 0.0000 33.5472
#
#
#
# Elastic Compliance Matrix: (Units=1/GPa)
#
#
# Indices 1 2 3 4 5 6 
#
# 1 0.034593 0.001945 -0.003022 0.000000 -0.014721 0.000000
# 2 0.001945 0.020778 -0.007251 0.000000 -0.000961 0.000000
# 3 -0.003022 -0.007251 0.010207 0.000000 -0.000896 0.000000
# 4 0.000000 0.000000 0.000000 0.024757 0.000000 0.002654
# 5 -0.014721 -0.000961 -0.000896 0.000000 0.028500 0.000000
# 6 0.000000 0.000000 0.000000 0.002654 0.000000 0.030093
#
#
# Mechanical properties :
#
#
# Convention : Reuss Voigt Hill
#
# Bulk Modulus (GPa) = 20.44052 41.13119 30.78586
# Shear Modulus (GPa) = 27.48902 35.84581 31.66741
#
# Velocity S-wave (km/s) = 3.47934 3.97316 3.73442
# Velocity P-wave (km/s) = 5.01425 6.25792 5.67029
#
# Compressibility (1/GPa) = 0.04892243
#
# Stress axis : x y z
#
# Youngs Moduli (GPa) = 28.90776 48.12827 97.96747
#
# Poissons Ratio (x) = -0.09363 0.29609
# Poissons Ratio (y) = -0.05624 0.71036
# Poissons Ratio (z) = 0.08737 0.34898
#
# Static dielectric constant tensor:
#      x y z
#    x 1.932820 0.000000 0.024580 
#    y 0.000000 1.821580 0.000000 
#    z 0.024580 0.000000 1.910840 
# 
# From -- ./inp_files/104374.got.cif
#   From: 2010.05.17/outbox.cif.g08.bks.cpg/sg15_53_cif.got.tgz:104374.got - 2010.06.03 18:47:42.
