data_PCOD9303660
_publ_section_title
;
Structure prediction by ZEFSAII (Michael W. Deem and Ramdas Pophale) SiO2 
 PCOD9303660
Probable space group: C 2/C
;
_chemical_formula_sum "Si O2"
_cell_formula_units_Z 56
_cell_length_a 15.299992
_cell_length_b 11.340994
_cell_length_c 13.516038
_cell_angle_alpha 90.000000
_cell_angle_beta 103.466313
_cell_angle_gamma 90.000000
_cell_volume 2280.785626
_symmetry_space_group_name_H-M "C 2/C"
_symmetry_group_IT_number 15
_symmetry_cell_setting 'monoclinic'
loop_
_space_group_symop_operation_xyz
x,y,z
-x,y,1/2-z
-x,-y,-z
x,-y,1/2+z
1/2+x,1/2+y,z
1/2-x,1/2+y,1/2-z
1/2-x,1/2-y,-z
1/2+x,1/2-y,1/2+z
loop_
_atom_site_type_symbol
_atom_site_label
_atom_site_fract_x
_atom_site_fract_y
_atom_site_fract_z
Si Si1 0.498406 0.864468 0.963948
Si Si2 0.206091 0.074109 0.838046
Si Si3 0.500000 0.690610 0.250000
Si Si4 0.352499 0.889110 0.216433
Si Si5 0.500000 0.921939 0.750000
Si Si6 0.938199 0.993018 0.361140
Si Si7 0.198096 0.632249 0.014611
Si Si8 0.600787 0.654622 0.988184
O O1 0.521374 0.852461 0.854193
O O2 0.574848 0.780066 0.029869
O O3 0.396827 0.829886 0.962297
O O4 0.500000 0.000000 0.000000
O O5 0.119291 0.045947 0.747780
O O6 0.275706 0.125677 0.776961
O O7 0.173197 0.155217 0.919846
O O8 0.249446 0.957023 0.899382
O O9 0.413057 0.772687 0.223240
O O10 0.498102 0.604062 0.342693
O O11 0.321418 0.923767 0.097931
O O12 0.419353 0.993948 0.263622
O O13 0.874760 0.052361 0.426968
O O14 0.005253 0.895186 0.420266
O O15 0.250000 0.750000 0.000000
#
# Coordination Sequence:
#
# PCOD9303660 Si02
#       8
#     8   8   4   8   4   8   8   8
#     4  12  27  51  76 104 143 196 252 297 364 441
#     4  12  25  48  69 114 148 186 245 309 366 429
#     4  11  22  47  76 102 138 199 243 290 362 448
#     4  11  25  44  75 105 146 187 244 299 361 431
#     4  11  24  47  76 102 140 197 241 296 364 432
#     4  11  24  47  73 105 145 194 238 291 366 439
#     4  12  27  45  74 107 147 194 242 302 366 435
#     4  11  27  45  76 105 147 190 245 302 360 431
#
# _framework density 24.552944
#
# number of rings (size 3 to 8) (size 9 to 14) (size 15 to 20)
#    0.000    0.571    4.286    2.571   10.000    0.000 
#    2.571    1.429    0.000    0.000    0.000    0.000 
#    0.000    0.000    0.000    0.000    0.000    0.000 
#
# Total GULP energy -156785.021692 kJ/mol
# GULP energy per Si atom -5599.465060 kJ/mol
# Density = 2.449706 g / cm^3
# Si number density = 24.552944 Si / 1000 Ang^3
#
#
#
# Elastic Constant Matrix: (Units=GPa)
#
#
# Indices 1 2 3 4 5 6 
#
# 1 91.9759 20.2417 11.2951 0.0000 -38.2006 0.0000
# 2 20.2417 76.4296 4.6189 0.0000 -8.7269 0.0000
# 3 11.2951 4.6189 103.0538 0.0000 -12.5116 0.0000
# 4 0.0000 0.0000 0.0000 37.9262 0.0000 0.0515
# 5 -38.2006 -8.7269 -12.5116 0.0000 54.0578 0.0000
# 6 0.0000 0.0000 0.0000 0.0515 0.0000 26.8912
#
#
#
# Elastic Compliance Matrix: (Units=1/GPa)
#
#
# Indices 1 2 3 4 5 6 
#
# 1 0.016051 -0.003000 -0.000315 0.000000 0.010785 0.000000
# 2 -0.003000 0.013903 -0.000287 0.000000 0.000058 0.000000
# 3 -0.000315 -0.000287 0.009999 0.000000 0.002045 0.000000
# 4 0.000000 0.000000 0.000000 0.026367 0.000000 -0.000050
# 5 0.010785 0.000058 0.002045 0.000000 0.026603 0.000000
# 6 0.000000 0.000000 0.000000 -0.000050 0.000000 0.037187
#
#
# Mechanical properties :
#
#
# Convention : Reuss Voigt Hill
#
# Bulk Modulus (GPa) = 30.53736 38.19674 34.36705
# Shear Modulus (GPa) = 33.73105 39.46193 36.59649
#
# Velocity S-wave (km/s) = 3.71051 4.01336 3.86491
# Velocity P-wave (km/s) = 5.55172 6.08825 5.82616
#
# Compressibility (1/GPa) = 0.03274678
#
# Stress axis : x y z
#
# Youngs Moduli (GPa) = 62.30183 71.92947 100.00598
#
# Poissons Ratio (x) = 0.21582 0.03154
# Poissons Ratio (y) = 0.18693 0.02873
# Poissons Ratio (z) = 0.01965 0.02066
#
# Static dielectric constant tensor:
#      x y z
#    x 1.980240 0.000000 0.034450 
#    y 0.000000 2.091420 0.000000 
#    z 0.034450 0.000000 2.098320 
# 
# From -- ./inp_files/152644.got.cif
#   From: 2010.05.17/outbox.cif.g08.bks.cpg/sg15_77_cif.got.tgz:152644.got - 2010.06.03 18:47:42.
