data_PCOD9303771
_publ_section_title
;
Structure prediction by ZEFSAII (Michael W. Deem and Ramdas Pophale) SiO2 
 PCOD9303771
Probable space group: C 2/C
;
_chemical_formula_sum "Si O2"
_cell_formula_units_Z 64
_cell_length_a 23.718745
_cell_length_b 19.614298
_cell_length_c 19.982934
_cell_angle_alpha 90.000000
_cell_angle_beta 21.353549
_cell_angle_gamma 90.000000
_cell_volume 3385.091821
_symmetry_space_group_name_H-M "C 2/C"
_symmetry_group_IT_number 15
_symmetry_cell_setting 'monoclinic'
loop_
_space_group_symop_operation_xyz
x,y,z
-x,y,1/2-z
-x,-y,-z
x,-y,1/2+z
1/2+x,1/2+y,z
1/2-x,1/2+y,1/2-z
1/2-x,1/2-y,-z
1/2+x,1/2-y,1/2+z
loop_
_atom_site_type_symbol
_atom_site_label
_atom_site_fract_x
_atom_site_fract_y
_atom_site_fract_z
Si Si1 0.448046 0.036714 0.987691
Si Si2 0.306269 0.180713 0.319393
Si Si3 0.956598 0.322093 0.068316
Si Si4 0.881727 0.965193 0.320757
Si Si5 0.402916 0.320540 0.075310
Si Si6 0.410424 0.545312 0.152581
Si Si7 0.056468 0.820034 0.310575
Si Si8 0.593086 0.053172 0.209734
O O1 0.501975 0.990230 0.865688
O O2 0.521898 0.111762 0.909575
O O3 0.264739 0.048317 0.181475
O O4 0.500000 0.000000 0.000000
O O5 0.427523 0.170541 0.123935
O O6 0.360623 0.248735 0.297809
O O7 0.321142 0.113605 0.346907
O O8 0.128970 0.187445 0.492072
O O9 0.014205 0.250524 0.034461
O O10 0.777306 0.318950 0.245216
O O11 0.884241 0.885513 0.295492
O O12 0.720312 0.990229 0.529886
O O13 0.000000 0.973295 0.250000
O O14 0.917442 0.007244 0.215304
O O15 0.408363 0.329768 0.149753
O O16 0.502524 0.382937 0.937349
O O17 0.500000 0.500000 0.000000
O O18 0.500000 0.083593 0.250000
#
# Coordination Sequence:
#
# PCOD9303771 Si02
#       8
#     8   8   8   8   8   8   8   8
#     4  12  25  42  69  97 128 171 223 268 322 382
#     4  11  23  39  62  90 130 173 221 261 317 385
#     4  11  23  40  67  97 130 167 216 272 321 380
#     4  12  27  44  62  93 135 172 217 265 327 383
#     4  11  23  40  67  97 130 166 216 271 324 377
#     4  12  25  42  69  97 129 171 219 271 323 383
#     4  11  23  39  62  91 129 175 218 264 316 385
#     4  12  27  44  62  92 132 176 215 265 324 386
#
# _framework density 18.90643
#
# number of rings (size 3 to 8) (size 9 to 14) (size 15 to 20)
#    0.000    0.500    5.000    5.250    7.000    1.000 
#    0.000    0.000    0.000    1.500    0.000    0.000 
#    0.000    0.000    0.000    0.000    0.000    0.000 
#
# Total GULP energy -178793.999964 kJ/mol
# GULP energy per Si atom -5587.312499 kJ/mol
# Density = 1.886340 g / cm^3
# Si number density = 18.906430 Si / 1000 Ang^3
#
#
#
# Elastic Constant Matrix: (Units=GPa)
#
#
# Indices 1 2 3 4 5 6 
#
# 1 86.5361 39.3838 43.2207 -0.0016 -16.7838 0.0007
# 2 39.3838 119.1750 47.1457 -0.0011 -5.8162 -0.0024
# 3 43.2207 47.1457 125.6999 0.0084 -23.0920 -0.0154
# 4 -0.0016 -0.0011 0.0084 28.6099 -0.0046 -1.9936
# 5 -16.7838 -5.8162 -23.0920 -0.0046 43.0964 0.0013
# 6 0.0007 -0.0024 -0.0154 -1.9936 0.0013 5.9794
#
#
#
# Elastic Compliance Matrix: (Units=1/GPa)
#
#
# Indices 1 2 3 4 5 6 
#
# 1 0.015610 -0.003671 -0.003288 0.000001 0.003822 -0.000012
# 2 -0.003671 0.010737 -0.003063 0.000001 -0.001622 -0.000003
# 3 -0.003288 -0.003063 0.011007 -0.000001 0.004204 0.000026
# 4 0.000001 0.000001 -0.000001 0.035784 0.000004 0.011931
# 5 0.003822 -0.001622 0.004204 0.000004 0.026726 0.000005
# 6 -0.000012 -0.000003 0.000026 0.011931 0.000005 0.171219
#
#
# Mechanical properties :
#
#
# Convention : Reuss Voigt Hill
#
# Bulk Modulus (GPa) = 57.77127 65.65682 61.71404
# Shear Modulus (GPa) = 16.84081 28.98119 22.91100
#
# Velocity S-wave (km/s) = 2.98777 3.91944 3.48488
# Velocity P-wave (km/s) = 6.52113 7.43541 6.99323
#
# Compressibility (1/GPa) = 0.01730964
#
# Stress axis : x y z
#
# Youngs Moduli (GPa) = 64.05977 93.13856 90.85076
#
# Poissons Ratio (x) = 0.34195 0.29875
# Poissons Ratio (y) = 0.23519 0.27823
# Poissons Ratio (z) = 0.21065 0.28524
#
# Static dielectric constant tensor:
#      x y z
#    x 1.793600 -0.000040 -0.131260 
#    y -0.000040 1.668850 0.000020 
#    z -0.131260 0.000020 1.651780 
# 
# From -- ./inp_files/255978.got.cif
#   From: 2010.05.17/outbox.cif.g08.bks.cpg/sg15_128_cif.got.tgz:255978.got - 2010.06.03 18:47:42.
