data_PCOD9303233
_publ_section_title
;
Structure prediction by ZEFSAII (Michael W. Deem and Ramdas Pophale) SiO2 
 PCOD9303233
Probable space group: C 2/C
;
_chemical_formula_sum "Si O2"
_cell_formula_units_Z 40
_cell_length_a 16.862220
_cell_length_b 19.467475
_cell_length_c 10.075313
_cell_angle_alpha 90.000000
_cell_angle_beta 147.238791
_cell_angle_gamma 90.000000
_cell_volume 1789.747465
_symmetry_space_group_name_H-M "C 2/C"
_symmetry_group_IT_number 15
_symmetry_cell_setting 'monoclinic'
loop_
_space_group_symop_operation_xyz
x,y,z
-x,y,1/2-z
-x,-y,-z
x,-y,1/2+z
1/2+x,1/2+y,z
1/2-x,1/2+y,1/2-z
1/2-x,1/2-y,-z
1/2+x,1/2-y,1/2+z
loop_
_atom_site_type_symbol
_atom_site_label
_atom_site_fract_x
_atom_site_fract_y
_atom_site_fract_z
Si Si1 0.669510 0.735025 0.214697
Si Si2 0.672894 0.017861 0.741141
Si Si3 0.352606 0.294932 0.239891
Si Si4 0.351606 0.460879 0.237327
Si Si5 0.144840 0.354355 0.376690
O O1 0.794264 0.770917 0.302815
O O2 0.726188 0.660232 0.338454
O O3 0.626193 0.780645 0.281365
O O4 0.515240 0.727200 0.928501
O O5 0.729742 0.015165 0.671986
O O6 0.682088 0.094336 0.812801
O O7 0.500000 0.000000 0.500000
O O8 0.785190 0.978863 0.998556
O O9 0.355266 0.377761 0.243494
O O10 0.250000 0.250000 0.000000
O O11 0.500000 0.500000 0.500000
O O12 0.000000 0.375911 0.250000
#
# Coordination Sequence:
#
# PCOD9303233 Si02
#       5
#     8   8   8   8   8
#     4  11  24  43  69 103 138 184 235 294 364 439
#     4  12  27  46  76 106 145 196 250 307 367 448
#     4  12  27  45  72 106 149 189 239 307 377 444
#     4  12  28  50  74 107 151 199 251 306 374 452
#     4  11  22  42  73 101 137 182 242 297 355 434
#
# _framework density 22.349520999999999
#
# number of rings (size 3 to 8) (size 9 to 14) (size 15 to 20)
#    0.000    0.400    4.000    4.200    2.800    6.400 
#    0.000    0.000    0.000    0.000    0.000    0.000 
#    0.000    0.000    0.000    0.000    0.000    0.000 
#
# Total GULP energy -111626.473561 kJ/mol
# GULP energy per Si atom -5581.323678 kJ/mol
# Density = 2.229865 g / cm^3
# Si number density = 22.349521 Si / 1000 Ang^3
#
#
#
# Elastic Constant Matrix: (Units=GPa)
#
#
# Indices 1 2 3 4 5 6 
#
# 1 72.2970 -0.0270 -8.4231 0.0000 3.0644 0.0000
# 2 -0.0270 94.9084 41.7726 0.0000 3.6708 0.0000
# 3 -8.4231 41.7726 136.1463 0.0000 10.3748 0.0000
# 4 0.0000 0.0000 0.0000 27.8765 0.0000 -7.8162
# 5 3.0644 3.6708 10.3748 0.0000 40.4518 0.0000
# 6 0.0000 0.0000 0.0000 -7.8162 0.0000 24.9943
#
#
#
# Elastic Compliance Matrix: (Units=1/GPa)
#
#
# Indices 1 2 3 4 5 6 
#
# 1 0.014015 -0.000429 0.001098 0.000000 -0.001304 0.000000
# 2 -0.000429 0.012196 -0.003760 0.000000 -0.000110 0.000000
# 3 0.001098 -0.003760 0.008717 0.000000 -0.001978 0.000000
# 4 0.000000 0.000000 0.000000 0.039320 0.000000 0.012296
# 5 -0.001304 -0.000110 -0.001978 0.000000 0.025337 0.000000
# 6 0.000000 0.000000 0.000000 0.012296 0.000000 0.043854
#
#
# Mechanical properties :
#
#
# Convention : Reuss Voigt Hill
#
# Bulk Modulus (GPa) = 34.78732 41.11075 37.94904
# Shear Modulus (GPa) = 31.40650 36.66647 34.03649
#
# Velocity S-wave (km/s) = 3.75272 4.05482 3.90669
# Velocity P-wave (km/s) = 5.86312 6.35267 6.11280
#
# Compressibility (1/GPa) = 0.02874611
#
# Stress axis : x y z
#
# Youngs Moduli (GPa) = 71.35270 81.99736 114.71404
#
# Poissons Ratio (x) = 0.03517 -0.12596
# Poissons Ratio (y) = 0.03060 0.43133
# Poissons Ratio (z) = -0.07835 0.30831
#
# Static dielectric constant tensor:
#      x y z
#    x 1.850040 0.000000 0.013550 
#    y 0.000000 1.851090 0.000000 
#    z 0.013550 0.000000 1.707370 
# 
# From -- ./inp_files/106883.got.cif
#   From: 2010.05.17/outbox.cif.g08.bks.cpg/sg15_54_cif.got.tgz:106883.got - 2010.06.03 18:47:42.
