data_PCOD9303507
_publ_section_title
;
Structure prediction by ZEFSAII (Michael W. Deem and Ramdas Pophale) SiO2 
 PCOD9303507
Probable space group: C 2/C
;
_chemical_formula_sum "Si O2"
_cell_formula_units_Z 32
_cell_length_a 14.209470
_cell_length_b 15.186628
_cell_length_c 11.547606
_cell_angle_alpha 90.000000
_cell_angle_beta 31.596852
_cell_angle_gamma 90.000000
_cell_volume 1305.605614
_symmetry_space_group_name_H-M "C 2/C"
_symmetry_group_IT_number 15
_symmetry_cell_setting 'monoclinic'
loop_
_space_group_symop_operation_xyz
x,y,z
-x,y,1/2-z
-x,-y,-z
x,-y,1/2+z
1/2+x,1/2+y,z
1/2-x,1/2+y,1/2-z
1/2-x,1/2-y,-z
1/2+x,1/2-y,1/2+z
loop_
_atom_site_type_symbol
_atom_site_label
_atom_site_fract_x
_atom_site_fract_y
_atom_site_fract_z
Si Si1 0.795599 0.433357 0.921020
Si Si2 0.000000 0.073417 0.250000
Si Si3 0.736675 0.299454 0.390750
Si Si4 0.000000 0.219210 0.750000
Si Si5 0.568502 0.836699 0.906784
O O1 0.829206 0.421686 0.748494
O O2 0.000000 0.442357 0.750000
O O3 0.672113 0.512969 0.092349
O O4 0.672530 0.346516 0.077882
O O5 0.933905 0.136560 0.421811
O O6 0.750000 0.250000 0.500000
O O7 0.703698 0.225419 0.331789
O O8 0.909260 0.351954 0.164976
O O9 0.997619 0.280807 0.637573
#
# Coordination Sequence:
#
# PCOD9303507 Si02
#       5
#     8   4   8   4   8
#     4  11  24  45  76 114 153 189 246 322 383 430
#     4  11  28  50  70 113 160 194 246 315 384 454
#     4  12  25  47  75 106 147 206 254 297 371 462
#     4  11  22  44  78 117 142 190 268 311 368 434
#     4  12  22  44  80 108 142 197 259 312 358 452
#
# _framework density 24.509696999999999
#
# number of rings (size 3 to 8) (size 9 to 14) (size 15 to 20)
#    0.000    0.500    6.250    2.250    0.000    3.000 
#    0.000   17.500    0.000    0.000    0.000    0.000 
#    0.000    0.000    0.000    0.000    0.000    0.000 
#
# Total GULP energy -89376.547165 kJ/mol
# GULP energy per Si atom -5586.034198 kJ/mol
# Density = 2.445391 g / cm^3
# Si number density = 24.509697 Si / 1000 Ang^3
#
#
#
# Elastic Constant Matrix: (Units=GPa)
#
#
# Indices 1 2 3 4 5 6 
#
# 1 104.2000 21.8098 19.7129 -0.0022 -1.6566 0.0010
# 2 21.8098 77.0704 44.7249 -0.0017 -6.1022 0.0011
# 3 19.7129 44.7249 210.6388 -0.0023 -12.7253 0.0011
# 4 -0.0022 -0.0017 -0.0023 20.5644 0.0012 -22.5669
# 5 -1.6566 -6.1022 -12.7253 0.0012 50.6800 -0.0008
# 6 0.0010 0.0011 0.0011 -22.5669 -0.0008 -4.6051
#
#
#
# Elastic Compliance Matrix: (Units=1/GPa)
#
#
# Indices 1 2 3 4 5 6 
#
# 1 0.010230 -0.002672 -0.000395 0.000000 -0.000087 0.000000
# 2 -0.002672 0.015548 -0.002989 0.000000 0.001034 0.000000
# 3 -0.000395 -0.002989 0.005480 0.000000 0.001003 0.000000
# 4 0.000000 0.000000 0.000000 0.007625 -0.000001 -0.037364
# 5 -0.000087 0.001034 0.001003 -0.000001 0.020105 0.000000
# 6 0.000000 0.000000 0.000000 -0.037364 0.000000 -0.034049
#
#
# Mechanical properties :
#
#
# Convention : Reuss Voigt Hill
#
# Bulk Modulus (GPa) = 52.23423 62.71160 57.47291
# Shear Modulus (GPa) = 115.12255 33.70530 74.41392
#
# Velocity S-wave (km/s) = 6.86092 3.71237 5.51606
# Velocity P-wave (km/s) = 9.17174 6.63457 8.00432
#
# Compressibility (1/GPa) = 0.01914454
#
# Stress axis : x y z
#
# Youngs Moduli (GPa) = 97.75494 64.31846 182.49420
#
# Poissons Ratio (x) = 0.17188 0.07212
# Poissons Ratio (y) = 0.26124 0.54541
# Poissons Ratio (z) = 0.03863 0.19223
#
# Static dielectric constant tensor:
#      x y z
#    x 1.959530 0.000000 -0.040870 
#    y 0.000000 2.024900 0.000000 
#    z -0.040870 0.000000 2.063130 
# 
# From -- ./inp_files/98067.got.cif
#   From: 2010.05.17/outbox.cif.g08.bks.cpg/sg15_50_cif.got.tgz:98067.got - 2010.06.03 18:47:42.
