data_PCOD9303278
_publ_section_title
;
Structure prediction by ZEFSAII (Michael W. Deem and Ramdas Pophale) SiO2 
 PCOD9303278
Probable space group: C 2/C
;
_chemical_formula_sum "Si O2"
_cell_formula_units_Z 48
_cell_length_a 22.157382
_cell_length_b 18.932212
_cell_length_c 13.674375
_cell_angle_alpha 90.000000
_cell_angle_beta 158.244580
_cell_angle_gamma 90.000000
_cell_volume 2126.110269
_symmetry_space_group_name_H-M "C 2/C"
_symmetry_group_IT_number 15
_symmetry_cell_setting 'monoclinic'
loop_
_space_group_symop_operation_xyz
x,y,z
-x,y,1/2-z
-x,-y,-z
x,-y,1/2+z
1/2+x,1/2+y,z
1/2-x,1/2+y,1/2-z
1/2-x,1/2-y,-z
1/2+x,1/2-y,1/2+z
loop_
_atom_site_type_symbol
_atom_site_label
_atom_site_fract_x
_atom_site_fract_y
_atom_site_fract_z
Si Si1 0.935367 0.456059 0.811177
Si Si2 0.049365 0.683187 0.059952
Si Si3 0.728597 0.001055 0.116719
Si Si4 0.541261 0.592177 0.417938
Si Si5 0.252113 0.267378 0.293810
Si Si6 0.797314 0.352950 0.008391
O O1 0.788443 0.484573 0.524164
O O2 0.886467 0.381163 0.779952
O O3 0.088020 0.461537 0.966967
O O4 0.000000 0.500000 0.000000
O O5 0.938424 0.727677 0.968370
O O6 0.923968 0.651156 0.788881
O O7 0.185257 0.727450 0.208106
O O8 0.888109 0.968221 0.405512
O O9 0.688637 0.084772 0.052551
O O10 0.500000 0.561265 0.250000
O O11 0.672972 0.654433 0.598300
O O12 0.382835 0.631698 0.221867
O O13 0.314561 0.221302 0.479516
#
# Coordination Sequence:
#
# PCOD9303278 Si02
#       6
#     8   8   8   8   8   8
#     4  11  22  43  67  97 135 176 228 282 335 401
#     4  12  23  42  70  98 136 173 229 284 336 401
#     4  11  25  41  68  99 133 181 225 277 347 404
#     4  12  23  43  66  95 139 178 218 278 348 402
#     4  12  24  40  69 101 132 178 228 282 337 400
#     4  12  23  39  66 102 131 171 229 282 335 401
#
# _framework density 22.576438
#
# number of rings (size 3 to 8) (size 9 to 14) (size 15 to 20)
#    0.000    0.333    6.667    3.500    2.333    0.000 
#    0.000    0.833    3.667    0.000    0.000    0.000 
#    0.000    0.000    0.000    0.000    0.000    0.000 
#
# Total GULP energy -134114.131299 kJ/mol
# GULP energy per Si atom -5588.088804 kJ/mol
# Density = 2.252505 g / cm^3
# Si number density = 22.576438 Si / 1000 Ang^3
#
#
#
# Elastic Constant Matrix: (Units=GPa)
#
#
# Indices 1 2 3 4 5 6 
#
# 1 144.7947 31.0174 37.8427 0.0000 8.0379 0.0000
# 2 31.0174 101.5481 37.8666 0.0000 -18.1808 0.0000
# 3 37.8427 37.8666 65.3339 0.0000 -17.3359 0.0000
# 4 0.0000 0.0000 0.0000 19.5382 0.0000 -6.8815
# 5 8.0379 -18.1808 -17.3359 0.0000 33.7180 0.0000
# 6 0.0000 0.0000 0.0000 -6.8815 0.0000 50.3989
#
#
#
# Elastic Compliance Matrix: (Units=1/GPa)
#
#
# Indices 1 2 3 4 5 6 
#
# 1 0.009169 -0.001676 -0.005974 0.000000 -0.006161 0.000000
# 2 -0.001676 0.013238 -0.005445 0.000000 0.004738 0.000000
# 3 -0.005974 -0.005445 0.024921 0.000000 0.011301 0.000000
# 4 0.000000 0.000000 0.000000 0.053768 0.000000 0.007341
# 5 -0.006161 0.004738 0.011301 0.000000 0.039492 0.000000
# 6 0.000000 0.000000 0.000000 0.007341 0.000000 0.020844
#
#
# Mechanical properties :
#
#
# Convention : Reuss Voigt Hill
#
# Bulk Modulus (GPa) = 47.30796 58.34779 52.82788
# Shear Modulus (GPa) = 25.68502 34.39434 30.03968
#
# Velocity S-wave (km/s) = 3.37663 3.90739 3.65166
# Velocity P-wave (km/s) = 6.01683 6.80129 6.42105
#
# Compressibility (1/GPa) = 0.02113809
#
# Stress axis : x y z
#
# Youngs Moduli (GPa) = 109.06679 75.54018 40.12729
#
# Poissons Ratio (x) = 0.12659 0.23973
# Poissons Ratio (y) = 0.18278 0.21848
# Poissons Ratio (z) = 0.65158 0.41129
#
# Static dielectric constant tensor:
#      x y z
#    x 1.878350 0.000000 0.039970 
#    y 0.000000 1.873670 0.000000 
#    z 0.039970 0.000000 1.880180 
# 
# From -- ./inp_files/114296.got.cif
#   From: 2010.05.17/outbox.cif.g08.bks.cpg/sg15_58_cif.got.tgz:114296.got - 2010.06.03 18:47:42.
