data_PCOD9303667
_publ_section_title
;
Structure prediction by ZEFSAII (Michael W. Deem and Ramdas Pophale) SiO2 
 PCOD9303667
Probable space group: C 2/C
;
_chemical_formula_sum "Si O2"
_cell_formula_units_Z 64
_cell_length_a 15.454657
_cell_length_b 17.137099
_cell_length_c 14.934142
_cell_angle_alpha 90.000000
_cell_angle_beta 44.598339
_cell_angle_gamma 90.000000
_cell_volume 2777.128490
_symmetry_space_group_name_H-M "C 2/C"
_symmetry_group_IT_number 15
_symmetry_cell_setting 'monoclinic'
loop_
_space_group_symop_operation_xyz
x,y,z
-x,y,1/2-z
-x,-y,-z
x,-y,1/2+z
1/2+x,1/2+y,z
1/2-x,1/2+y,1/2-z
1/2-x,1/2-y,-z
1/2+x,1/2-y,1/2+z
loop_
_atom_site_type_symbol
_atom_site_label
_atom_site_fract_x
_atom_site_fract_y
_atom_site_fract_z
Si Si1 0.513753 0.710924 0.138140
Si Si2 0.977142 0.279340 0.669615
Si Si3 0.167576 0.540386 0.422949
Si Si4 0.725834 0.663512 0.292210
Si Si5 0.031019 0.652389 0.939505
Si Si6 0.957757 0.891744 0.422439
Si Si7 0.832427 0.950387 0.976563
Si Si8 0.735681 0.585163 0.780183
O O1 0.500000 0.737320 0.250000
O O2 0.381921 0.690714 0.193844
O O3 0.555937 0.782122 0.043693
O O4 0.593864 0.631833 0.077425
O O5 0.831031 0.280805 0.755644
O O6 0.037714 0.323174 0.539193
O O7 0.030960 0.191662 0.634673
O O8 0.000000 0.317071 0.750000
O O9 0.202834 0.601278 0.319634
O O10 0.026989 0.567636 0.540239
O O11 0.240694 0.549857 0.460901
O O12 0.214227 0.461371 0.343315
O O13 0.650226 0.623249 0.427231
O O14 0.164844 0.654104 0.794404
O O15 0.091459 0.900033 0.369823
O O16 0.922177 0.973898 0.402951
O O17 0.762410 0.953895 0.123479
#
# Coordination Sequence:
#
# PCOD9303667 Si02
#       8
#     8   8   8   8   8   8   8   8
#     4  12  24  43  74 107 149 190 241 302 370 430
#     4  11  27  47  73 104 146 194 239 296 370 437
#     4  11  26  46  71 106 147 191 243 302 360 434
#     4  11  22  48  70 105 150 186 242 306 360 430
#     4  11  27  50  69 105 151 193 240 300 366 442
#     4  12  25  45  74 104 146 190 244 307 355 429
#     4  12  26  43  72 111 139 192 247 296 366 430
#     4  12  25  46  74 104 145 192 241 302 365 429
#
# _framework density 23.045386000000001
#
# number of rings (size 3 to 8) (size 9 to 14) (size 15 to 20)
#    0.000    0.500    5.000    2.250    3.500    3.000 
#    0.000    0.000    0.000    0.000    0.000    0.000 
#    0.000    0.000    0.000    0.000    0.000    0.000 
#
# Total GULP energy -178635.442685 kJ/mol
# GULP energy per Si atom -5582.357584 kJ/mol
# Density = 2.299293 g / cm^3
# Si number density = 23.045386 Si / 1000 Ang^3
#
#
#
# Elastic Constant Matrix: (Units=GPa)
#
#
# Indices 1 2 3 4 5 6 
#
# 1 96.4554 15.6419 55.3556 0.0000 14.3703 0.0000
# 2 15.6419 60.6775 15.9164 0.0000 -0.4597 0.0000
# 3 55.3556 15.9164 111.5779 0.0000 4.7744 0.0000
# 4 0.0000 0.0000 0.0000 24.1359 0.0000 -15.5048
# 5 14.3703 -0.4597 4.7744 0.0000 40.4320 0.0000
# 6 0.0000 0.0000 0.0000 -15.5048 0.0000 24.2012
#
#
#
# Elastic Compliance Matrix: (Units=1/GPa)
#
#
# Indices 1 2 3 4 5 6 
#
# 1 0.015554 -0.002154 -0.007208 0.000000 -0.004702 0.000000
# 2 -0.002154 0.017429 -0.001466 0.000000 0.001137 0.000000
# 3 -0.007208 -0.001466 0.012703 0.000000 0.001045 0.000000
# 4 0.000000 0.000000 0.000000 0.070410 0.000000 0.045109
# 5 -0.004702 0.001137 0.001045 0.000000 0.026293 0.000000
# 6 0.000000 0.000000 0.000000 0.045109 0.000000 0.070220
#
#
# Mechanical properties :
#
#
# Convention : Reuss Voigt Hill
#
# Bulk Modulus (GPa) = 41.61678 49.17097 45.39387
# Shear Modulus (GPa) = 20.63767 29.87362 25.25564
#
# Velocity S-wave (km/s) = 2.99578 3.60432 3.31404
# Velocity P-wave (km/s) = 5.48307 6.22128 5.86380
#
# Compressibility (1/GPa) = 0.02402877
#
# Stress axis : x y z
#
# Youngs Moduli (GPa) = 64.29193 57.37518 78.72276
#
# Poissons Ratio (x) = 0.12361 0.56744
# Poissons Ratio (y) = 0.13852 0.11541
# Poissons Ratio (z) = 0.46342 0.08411
#
# Static dielectric constant tensor:
#      x y z
#    x 1.826430 0.000000 0.009300 
#    y 0.000000 2.049400 0.000000 
#    z 0.009300 0.000000 1.964540 
# 
# From -- ./inp_files/155491.got.cif
#   From: 2010.05.17/outbox.cif.g08.bks.cpg/sg15_78_cif.got.tgz:155491.got - 2010.06.03 18:47:42.
