data_PCOD9303302
_publ_section_title
;
Structure prediction by ZEFSAII (Michael W. Deem and Ramdas Pophale) SiO2 
 PCOD9303302
Probable space group: C 2/C
;
_chemical_formula_sum "Si O2"
_cell_formula_units_Z 40
_cell_length_a 14.623070
_cell_length_b 15.062469
_cell_length_c 8.748232
_cell_angle_alpha 90.000000
_cell_angle_beta 74.900540
_cell_angle_gamma 90.000000
_cell_volume 1860.356124
_symmetry_space_group_name_H-M "C 2/C"
_symmetry_group_IT_number 15
_symmetry_cell_setting 'monoclinic'
loop_
_space_group_symop_operation_xyz
x,y,z
-x,y,1/2-z
-x,-y,-z
x,-y,1/2+z
1/2+x,1/2+y,z
1/2-x,1/2+y,1/2-z
1/2-x,1/2-y,-z
1/2+x,1/2-y,1/2+z
loop_
_atom_site_type_symbol
_atom_site_label
_atom_site_fract_x
_atom_site_fract_y
_atom_site_fract_z
Si Si1 0.726828 0.947309 0.193676
Si Si2 0.016636 0.255204 0.925887
Si Si3 0.937870 0.064367 0.627039
Si Si4 0.194622 0.257777 0.363391
Si Si5 0.682625 0.114951 0.376379
O O1 0.833895 0.973452 0.192903
O O2 0.703987 0.856979 0.293349
O O3 0.666826 0.032948 0.267726
O O4 0.719852 0.925655 0.018264
O O5 0.072740 0.163751 0.931553
O O6 0.083982 0.334418 0.949108
O O7 0.000000 0.266516 0.750000
O O8 0.915983 0.244108 0.052044
O O9 0.000000 0.075797 0.750000
O O10 0.000000 0.000000 0.500000
O O11 0.250000 0.250000 0.500000
O O12 0.244257 0.186238 0.229583
#
# Coordination Sequence:
#
# PCOD9303302 Si02
#       5
#     8   8   8   8   8
#     4  12  26  45  73 105 146 194 239 299 371 430
#     4  11  24  44  73 103 144 191 239 296 362 434
#     4  11  22  43  69 103 135 180 241 293 354 420
#     4  12  23  46  73 102 146 189 234 303 362 426
#     4  12  26  48  71 108 148 187 249 297 362 442
#
# _framework density 21.501259999999998
#
# number of rings (size 3 to 8) (size 9 to 14) (size 15 to 20)
#    0.000    0.400    4.000    5.400    0.000    1.600 
#    0.000    0.000    0.000    0.000    0.000    0.000 
#    0.000    0.000    0.000    0.000    0.000    0.000 
#
# Total GULP energy -111899.046867 kJ/mol
# GULP energy per Si atom -5594.952343 kJ/mol
# Density = 2.145232 g / cm^3
# Si number density = 21.501260 Si / 1000 Ang^3
#
#
#
# Elastic Constant Matrix: (Units=GPa)
#
#
# Indices 1 2 3 4 5 6 
#
# 1 72.8874 8.9867 23.1832 0.0000 -2.6194 0.0000
# 2 8.9867 133.7774 37.0059 0.0000 1.0974 0.0000
# 3 23.1832 37.0059 78.6083 0.0000 -3.4991 0.0000
# 4 0.0000 0.0000 0.0000 46.5604 0.0000 -9.9071
# 5 -2.6194 1.0974 -3.4991 0.0000 24.9701 0.0000
# 6 0.0000 0.0000 0.0000 -9.9071 0.0000 24.1444
#
#
#
# Elastic Compliance Matrix: (Units=1/GPa)
#
#
# Indices 1 2 3 4 5 6 
#
# 1 0.015169 0.000229 -0.004539 0.000000 0.000945 0.000000
# 2 0.000229 0.008620 -0.004167 0.000000 -0.000939 0.000000
# 3 -0.004539 -0.004167 0.016109 0.000000 0.001964 0.000000
# 4 0.000000 0.000000 0.000000 0.023532 0.000000 0.009656
# 5 0.000945 -0.000939 0.001964 0.000000 0.040464 0.000000
# 6 0.000000 0.000000 0.000000 0.009656 0.000000 0.045379
#
#
# Mechanical properties :
#
#
# Convention : Reuss Voigt Hill
#
# Bulk Modulus (GPa) = 43.58598 47.06940 45.32769
# Shear Modulus (GPa) = 28.75586 33.54148 31.14867
#
# Velocity S-wave (km/s) = 3.66102 3.95394 3.81030
# Velocity P-wave (km/s) = 6.17949 6.54094 6.36278
#
# Compressibility (1/GPa) = 0.02294316
#
# Stress axis : x y z
#
# Youngs Moduli (GPa) = 65.92221 116.00635 62.07568
#
# Poissons Ratio (x) = -0.02656 0.28179
# Poissons Ratio (y) = -0.01509 0.25869
# Poissons Ratio (z) = 0.29925 0.48344
#
# Static dielectric constant tensor:
#      x y z
#    x 1.768060 0.000000 -0.022570 
#    y 0.000000 1.823180 0.000000 
#    z -0.022570 0.000000 1.792510 
# 
# From -- ./inp_files/37791.got.cif
#   From: 2010.05.17/outbox.cif.g08.bks.cpg/sg15_19_cif.got.tgz:37791.got - 2010.06.03 18:47:42.
