data_PCOD9303362
_publ_section_title
;
Structure prediction by ZEFSAII (Michael W. Deem and Ramdas Pophale) SiO2 
 PCOD9303362
Probable space group: C 2/C
;
_chemical_formula_sum "Si O2"
_cell_formula_units_Z 36
_cell_length_a 12.288875
_cell_length_b 25.103450
_cell_length_c 5.297882
_cell_angle_alpha 90.000000
_cell_angle_beta 118.595697
_cell_angle_gamma 90.000000
_cell_volume 1434.999319
_symmetry_space_group_name_H-M "C 2/C"
_symmetry_group_IT_number 15
_symmetry_cell_setting 'monoclinic'
loop_
_space_group_symop_operation_xyz
x,y,z
-x,y,1/2-z
-x,-y,-z
x,-y,1/2+z
1/2+x,1/2+y,z
1/2-x,1/2+y,1/2-z
1/2-x,1/2-y,-z
1/2+x,1/2-y,1/2+z
loop_
_atom_site_type_symbol
_atom_site_label
_atom_site_fract_x
_atom_site_fract_y
_atom_site_fract_z
Si Si1 0.639020 0.147590 0.511483
Si Si2 0.500000 0.626414 0.250000
Si Si3 0.171491 0.218749 0.622787
Si Si4 0.000000 0.056875 0.750000
Si Si5 0.500000 0.799762 0.250000
Si Si6 0.725348 0.028467 0.506630
O O1 0.739133 0.194346 0.560782
O O2 0.606750 0.161650 0.766380
O O3 0.693482 0.090099 0.515491
O O4 0.500000 0.148741 0.250000
O O5 0.613640 0.664963 0.442023
O O6 0.475721 0.592336 0.473769
O O7 0.250000 0.250000 0.500000
O O8 0.053797 0.258450 0.519081
O O9 0.874941 0.024854 0.665591
O O10 0.677919 0.006052 0.188925
#
# Coordination Sequence:
#
# PCOD9303362 Si02
#       6
#     8   4   8   4   4   8
#     4  11  25  44  73 106 150 200 243 308 366 453
#     4  11  22  43  74 108 140 196 232 307 373 432
#     4   9  20  45  68 108 150 190 248 298 370 441
#     4  12  24  47  79 104 146 181 252 319 378 426
#     4   9  22  44  73 106 154 189 252 300 375 440
#     4  12  28  48  76 110 145 197 253 313 376 441
#
# _framework density 25.087119999999999
#
# number of rings (size 3 to 8) (size 9 to 14) (size 15 to 20)
#    0.000    1.333    2.222    2.000    3.111    3.556 
#   18.000    0.000    0.000    0.000    0.000    0.000 
#    0.000    0.000    0.000    0.000    0.000    0.000 
#
# Total GULP energy -100574.286509 kJ/mol
# GULP energy per Si atom -5587.460362 kJ/mol
# Density = 2.503002 g / cm^3
# Si number density = 25.087120 Si / 1000 Ang^3
#
#
#
# Elastic Constant Matrix: (Units=GPa)
#
#
# Indices 1 2 3 4 5 6 
#
# 1 81.0584 59.5739 37.8290 0.0000 -1.1295 0.0000
# 2 59.5739 152.9766 47.9061 0.0000 -22.8708 0.0000
# 3 37.8290 47.9061 115.3365 0.0000 -2.8634 0.0000
# 4 0.0000 0.0000 0.0000 15.3944 0.0000 -3.6068
# 5 -1.1295 -22.8708 -2.8634 0.0000 52.7197 0.0000
# 6 0.0000 0.0000 0.0000 -3.6068 0.0000 52.0761
#
#
#
# Elastic Compliance Matrix: (Units=1/GPa)
#
#
# Indices 1 2 3 4 5 6 
#
# 1 0.018794 -0.006628 -0.003477 0.000000 -0.002661 0.000000
# 2 -0.006628 0.010392 -0.002037 0.000000 0.004256 0.000000
# 3 -0.003477 -0.002037 0.010647 0.000000 -0.000380 0.000000
# 4 0.000000 0.000000 0.000000 0.066030 0.000000 0.004573
# 5 -0.002661 0.004256 -0.000380 0.000000 0.020737 0.000000
# 6 0.000000 0.000000 0.000000 0.004573 0.000000 0.019519
#
#
# Mechanical properties :
#
#
# Convention : Reuss Voigt Hill
#
# Bulk Modulus (GPa) = 64.31221 71.10994 67.71107
# Shear Modulus (GPa) = 28.47595 37.64220 33.05908
#
# Velocity S-wave (km/s) = 3.37275 3.87778 3.63405
# Velocity P-wave (km/s) = 6.39206 6.96106 6.68262
#
# Compressibility (1/GPa) = 0.01554915
#
# Stress axis : x y z
#
# Youngs Moduli (GPa) = 53.20967 96.22641 93.91934
#
# Poissons Ratio (x) = 0.63777 0.32658
# Poissons Ratio (y) = 0.35266 0.19131
# Poissons Ratio (z) = 0.18502 0.19601
#
# Static dielectric constant tensor:
#      x y z
#    x 2.066070 0.000000 0.054010 
#    y 0.000000 1.911710 0.000000 
#    z 0.054010 0.000000 2.163820 
# 
# From -- ./inp_files/7447.got.cif
#   From: 2010.05.17/outbox.cif.g08.bks.cpg/sg15_4_cif.got.tgz:7447.got - 2010.06.03 18:47:42.
