data_PCOD9303925
_publ_section_title
;
Structure prediction by ZEFSAII (Michael W. Deem and Ramdas Pophale) SiO2 
 PCOD9303925
Probable space group: C 2/C
;
_chemical_formula_sum "Si O2"
_cell_formula_units_Z 52
_cell_length_a 27.376934
_cell_length_b 12.442801
_cell_length_c 9.717669
_cell_angle_alpha 90.000000
_cell_angle_beta 127.935657
_cell_angle_gamma 90.000000
_cell_volume 2610.825296
_symmetry_space_group_name_H-M "C 2/C"
_symmetry_group_IT_number 15
_symmetry_cell_setting 'monoclinic'
loop_
_space_group_symop_operation_xyz
x,y,z
-x,y,1/2-z
-x,-y,-z
x,-y,1/2+z
1/2+x,1/2+y,z
1/2-x,1/2+y,1/2-z
1/2-x,1/2-y,-z
1/2+x,1/2-y,1/2+z
loop_
_atom_site_type_symbol
_atom_site_label
_atom_site_fract_x
_atom_site_fract_y
_atom_site_fract_z
Si Si1 0.491852 0.125888 0.512676
Si Si2 0.182371 0.435672 0.007361
Si Si3 0.232030 0.021773 0.099687
Si Si4 0.863513 0.795920 0.973417
Si Si5 0.500000 0.263267 0.250000
Si Si6 0.100858 0.356745 0.415779
Si Si7 0.816857 0.197834 0.089042
O O1 0.497548 0.189268 0.381230
O O2 0.427440 0.143286 0.481176
O O3 0.545347 0.160266 0.711544
O O4 0.500000 0.000000 0.500000
O O5 0.233486 0.469641 0.209670
O O6 0.215904 0.439678 0.918147
O O7 0.153500 0.320503 0.993220
O O8 0.131002 0.528667 0.930982
O O9 0.186555 0.117710 0.062264
O O10 0.193194 0.925918 0.963294
O O11 0.934507 0.824836 0.131286
O O12 0.855365 0.787898 0.795141
O O13 0.150975 0.264555 0.476522
O O14 0.750000 0.250000 0.000000
#
# Coordination Sequence:
#
# PCOD9303925 Si02
#       7
#     8   8   8   8   4   8   8
#     4  11  23  41  64 101 141 183 228 280 344 414
#     4  12  24  41  71 106 141 177 226 294 358 414
#     4  12  26  43  70 103 138 188 226 292 355 413
#     4  12  25  46  68 103 140 180 245 285 346 413
#     4  12  26  44  70  98 142 190 232 294 324 410
#     4  11  24  41  69 102 141 182 221 279 361 417
#     4  12  22  47  70  97 144 179 228 292 353 419
#
# _framework density 19.917074
#
# number of rings (size 3 to 8) (size 9 to 14) (size 15 to 20)
#    0.000    0.308    6.154    3.231    4.308    1.231 
#    0.000    2.308    0.000    0.000    0.000    0.000 
#    0.000    0.000    0.000    0.000    0.000    0.000 
#
# Total GULP energy -145527.769360 kJ/mol
# GULP energy per Si atom -5597.221898 kJ/mol
# Density = 1.987174 g / cm^3
# Si number density = 19.917074 Si / 1000 Ang^3
#
#
#
# Elastic Constant Matrix: (Units=GPa)
#
#
# Indices 1 2 3 4 5 6 
#
# 1 150.8518 44.6618 22.8603 0.0000 -6.9685 0.0000
# 2 44.6618 84.1401 -3.2108 0.0000 0.9470 0.0000
# 3 22.8603 -3.2108 60.6799 0.0000 4.5503 0.0000
# 4 0.0000 0.0000 0.0000 24.6087 0.0000 -0.7493
# 5 -6.9685 0.9470 4.5503 0.0000 41.7407 0.0000
# 6 0.0000 0.0000 0.0000 -0.7493 0.0000 38.0876
#
#
#
# Elastic Compliance Matrix: (Units=1/GPa)
#
#
# Indices 1 2 3 4 5 6 
#
# 1 0.008690 -0.004775 -0.003673 0.000000 0.001960 0.000000
# 2 -0.004775 0.014537 0.002674 0.000000 -0.001419 0.000000
# 3 -0.003673 0.002674 0.018205 0.000000 -0.002658 0.000000
# 4 0.000000 0.000000 0.000000 0.040660 0.000000 0.000800
# 5 0.001960 -0.001419 -0.002658 0.000000 0.024607 0.000000
# 6 0.000000 0.000000 0.000000 0.000800 0.000000 0.026271
#
#
# Mechanical properties :
#
#
# Convention : Reuss Voigt Hill
#
# Bulk Modulus (GPa) = 33.46216 47.14382 40.30299
# Shear Modulus (GPa) = 32.36684 36.31142 34.33913
#
# Velocity S-wave (km/s) = 4.03560 4.27445 4.15674
# Velocity P-wave (km/s) = 6.20902 6.93416 6.58159
#
# Compressibility (1/GPa) = 0.02988451
#
# Stress axis : x y z
#
# Youngs Moduli (GPa) = 115.07658 68.78786 54.93086
#
# Poissons Ratio (x) = 0.32845 0.20178
# Poissons Ratio (y) = 0.54947 -0.14691
# Poissons Ratio (z) = 0.42272 -0.18397
#
# Static dielectric constant tensor:
#      x y z
#    x 1.715050 0.000000 0.023880 
#    y 0.000000 1.672210 0.000000 
#    z 0.023880 0.000000 1.729170 
# 
# From -- ./inp_files/65609.got.cif
#   From: 2010.05.17/outbox.cif.g08.bks.cpg/sg15_33_cif.got.tgz:65609.got - 2010.06.03 18:47:42.
