data_PCOD9303565
_publ_section_title
;
Structure prediction by ZEFSAII (Michael W. Deem and Ramdas Pophale) SiO2 
 PCOD9303565
Probable space group: C 2/C
;
_chemical_formula_sum "Si O2"
_cell_formula_units_Z 56
_cell_length_a 9.499570
_cell_length_b 16.619831
_cell_length_c 19.225705
_cell_angle_alpha 90.000000
_cell_angle_beta 73.386376
_cell_angle_gamma 90.000000
_cell_volume 2908.665264
_symmetry_space_group_name_H-M "C 2/C"
_symmetry_group_IT_number 15
_symmetry_cell_setting 'monoclinic'
loop_
_space_group_symop_operation_xyz
x,y,z
-x,y,1/2-z
-x,-y,-z
x,-y,1/2+z
1/2+x,1/2+y,z
1/2-x,1/2+y,1/2-z
1/2-x,1/2-y,-z
1/2+x,1/2-y,1/2+z
loop_
_atom_site_type_symbol
_atom_site_label
_atom_site_fract_x
_atom_site_fract_y
_atom_site_fract_z
Si Si1 0.649064 0.236554 0.693545
Si Si2 0.332368 0.529885 0.029227
Si Si3 0.203702 0.302475 0.574051
Si Si4 0.369100 0.143056 0.091748
Si Si5 0.123503 0.617311 0.568495
Si Si6 0.832075 0.177861 0.795096
Si Si7 0.303152 0.040830 0.604389
O O1 0.500000 0.267237 0.750000
O O2 0.758705 0.304282 0.651815
O O3 0.620137 0.180950 0.630733
O O4 0.731417 0.187817 0.742105
O O5 0.303698 0.617026 0.068506
O O6 0.232795 0.456422 0.071922
O O7 0.500000 0.500000 0.000000
O O8 0.269834 0.543242 0.960751
O O9 0.250000 0.250000 0.500000
O O10 0.208519 0.243788 0.640050
O O11 0.036496 0.331909 0.584218
O O12 0.339541 0.050919 0.115553
O O13 0.335600 0.151327 0.013717
O O14 0.959837 0.584336 0.580847
O O15 0.802143 0.089801 0.830178
O O16 0.000000 0.189357 0.750000
#
# Coordination Sequence:
#
# PCOD9303565 Si02
#       7
#     8   8   8   8   8   8   8
#     4  12  27  44  66 104 137 184 232 281 347 416
#     4  11  24  40  70 109 133 166 236 285 341 404
#     4  12  23  43  74  98 137 182 231 283 343 412
#     4  11  23  45  73  98 137 182 231 283 347 404
#     4  11  22  45  72  97 137 182 227 286 338 413
#     4  12  26  44  68  98 144 182 229 282 349 413
#     4  11  22  47  68  96 138 182 220 288 345 407
#
# _framework density 19.252814999999998
#
# number of rings (size 3 to 8) (size 9 to 14) (size 15 to 20)
#    0.000    0.571    7.143    1.286    4.000    2.857 
#    2.571    2.143    0.000    0.000    0.000    0.000 
#    0.000    0.000    0.000    0.000    0.000    0.000 
#
# Total GULP energy -156493.823393 kJ/mol
# GULP energy per Si atom -5589.065121 kJ/mol
# Density = 1.920899 g / cm^3
# Si number density = 19.252815 Si / 1000 Ang^3
#
#
#
# Elastic Constant Matrix: (Units=GPa)
#
#
# Indices 1 2 3 4 5 6 
#
# 1 96.6913 28.9960 15.7885 0.0000 -18.1320 0.0000
# 2 28.9960 89.4247 48.5987 0.0000 -7.5311 0.0000
# 3 15.7885 48.5987 85.9515 0.0000 -12.7426 0.0000
# 4 0.0000 0.0000 0.0000 26.0849 0.0000 -14.2423
# 5 -18.1320 -7.5311 -12.7426 0.0000 35.0768 0.0000
# 6 0.0000 0.0000 0.0000 -14.2423 0.0000 27.6579
#
#
#
# Elastic Compliance Matrix: (Units=1/GPa)
#
#
# Indices 1 2 3 4 5 6 
#
# 1 0.012519 -0.004025 0.000853 0.000000 0.005917 0.000000
# 2 -0.004025 0.017438 -0.009379 0.000000 -0.001744 0.000000
# 3 0.000853 -0.009379 0.017490 0.000000 0.004781 0.000000
# 4 0.000000 0.000000 0.000000 0.053331 0.000000 0.027462
# 5 0.005917 -0.001744 0.004781 0.000000 0.032930 0.000000
# 6 0.000000 0.000000 0.000000 0.027462 0.000000 0.050298
#
#
# Mechanical properties :
#
#
# Convention : Reuss Voigt Hill
#
# Bulk Modulus (GPa) = 44.75076 50.98156 47.86616
# Shear Modulus (GPa) = 23.08883 29.67621 26.38252
#
# Velocity S-wave (km/s) = 3.46677 3.93032 3.70580
# Velocity P-wave (km/s) = 6.27047 6.86543 6.57468
#
# Compressibility (1/GPa) = 0.02234599
#
# Stress axis : x y z
#
# Youngs Moduli (GPa) = 79.87541 57.34651 57.17705
#
# Poissons Ratio (x) = 0.23081 -0.04879
# Poissons Ratio (y) = 0.32148 0.53626
# Poissons Ratio (z) = -0.06816 0.53785
#
# Static dielectric constant tensor:
#      x y z
#    x 1.655890 0.000000 -0.002810 
#    y 0.000000 1.695810 0.000000 
#    z -0.002810 0.000000 1.627730 
# 
# From -- ./inp_files/190929.got.cif
#   From: 2010.05.17/outbox.cif.g08.bks.cpg/sg15_96_cif.got.tgz:190929.got - 2010.06.03 18:47:42.
