data_PCOD9303461
_publ_section_title
;
Structure prediction by ZEFSAII (Michael W. Deem and Ramdas Pophale) SiO2 
 PCOD9303461
Probable space group: C 2/C
;
_chemical_formula_sum "Si O2"
_cell_formula_units_Z 36
_cell_length_a 7.474472
_cell_length_b 15.925056
_cell_length_c 13.962573
_cell_angle_alpha 90.000000
_cell_angle_beta 117.851362
_cell_angle_gamma 90.000000
_cell_volume 1469.464343
_symmetry_space_group_name_H-M "C 2/C"
_symmetry_group_IT_number 15
_symmetry_cell_setting 'monoclinic'
loop_
_space_group_symop_operation_xyz
x,y,z
-x,y,1/2-z
-x,-y,-z
x,-y,1/2+z
1/2+x,1/2+y,z
1/2-x,1/2+y,1/2-z
1/2-x,1/2-y,-z
1/2+x,1/2-y,1/2+z
loop_
_atom_site_type_symbol
_atom_site_label
_atom_site_fract_x
_atom_site_fract_y
_atom_site_fract_z
Si Si1 0.671966 0.459546 0.668305
Si Si2 0.500000 0.686516 0.250000
Si Si3 0.837774 0.900229 0.037575
Si Si4 0.776649 0.807484 0.414752
Si Si5 0.045523 0.445401 0.107499
O O1 0.565079 0.376917 0.683255
O O2 0.761492 0.432352 0.587247
O O3 0.487279 0.524047 0.606751
O O4 0.826776 0.501861 0.782269
O O5 0.684516 0.749728 0.309915
O O6 0.697420 0.879734 0.092352
O O7 0.993520 0.828200 0.049152
O O8 0.750000 0.750000 0.500000
O O9 0.641260 0.891702 0.397056
O O10 0.000000 0.500000 0.000000
#
# Coordination Sequence:
#
# PCOD9303461 Si02
#       5
#     8   4   8   8   8
#     4  11  22  44  72 110 137 189 244 295 351 442
#     4  12  22  44  72 102 154 184 234 310 372 418
#     4  11  24  45  77 101 144 189 245 292 361 437
#     4  12  26  45  69 106 147 187 232 307 373 416
#     4  12  25  45  75 105 142 191 249 294 359 447
#
# _framework density 24.498723999999999
#
# number of rings (size 3 to 8) (size 9 to 14) (size 15 to 20)
#    0.000    0.444    4.444    5.333    0.000    3.556 
#    0.000    0.000    0.000    0.000    0.000    0.000 
#    0.000    0.000    0.000    0.000    0.000    0.000 
#
# Total GULP energy -100742.508540 kJ/mol
# GULP energy per Si atom -5596.806030 kJ/mol
# Density = 2.444296 g / cm^3
# Si number density = 24.498724 Si / 1000 Ang^3
#
#
#
# Elastic Constant Matrix: (Units=GPa)
#
#
# Indices 1 2 3 4 5 6 
#
# 1 92.4091 -3.8729 18.6658 0.0000 -14.5531 0.0000
# 2 -3.8729 83.5867 20.0347 0.0000 8.7397 0.0000
# 3 18.6658 20.0347 129.3459 0.0000 11.5323 0.0000
# 4 0.0000 0.0000 0.0000 40.7486 0.0000 -7.4048
# 5 -14.5531 8.7397 11.5323 0.0000 38.9793 0.0000
# 6 0.0000 0.0000 0.0000 -7.4048 0.0000 30.3406
#
#
#
# Elastic Compliance Matrix: (Units=1/GPa)
#
#
# Indices 1 2 3 4 5 6 
#
# 1 0.012106 0.000580 -0.002289 0.000000 0.005067 0.000000
# 2 0.000580 0.012653 -0.001859 0.000000 -0.002071 0.000000
# 3 -0.002289 -0.001859 0.008616 0.000000 -0.002987 0.000000
# 4 0.000000 0.000000 0.000000 0.025680 0.000000 0.006267
# 5 0.005067 -0.002071 -0.002987 0.000000 0.028894 0.000000
# 6 0.000000 0.000000 0.000000 0.006267 0.000000 0.034489
#
#
# Mechanical properties :
#
#
# Convention : Reuss Voigt Hill
#
# Bulk Modulus (GPa) = 38.11159 41.66631 39.88895
# Shear Modulus (GPa) = 36.14850 40.04798 38.09824
#
# Velocity S-wave (km/s) = 3.84542 4.04752 3.94777
# Velocity P-wave (km/s) = 5.94195 6.23600 6.09075
#
# Compressibility (1/GPa) = 0.02623874
#
# Stress axis : x y z
#
# Youngs Moduli (GPa) = 82.60385 79.03567 116.06762
#
# Poissons Ratio (x) = -0.04581 0.26563
# Poissons Ratio (y) = -0.04788 0.21575
# Poissons Ratio (z) = 0.18904 0.14691
#
# Static dielectric constant tensor:
#      x y z
#    x 2.086100 0.000000 0.074990 
#    y 0.000000 1.982340 0.000000 
#    z 0.074990 0.000000 2.077350 
# 
# From -- ./inp_files/77004.got.cif
#   From: 2010.05.17/outbox.cif.g08.bks.cpg/sg15_39_cif.got.tgz:77004.got - 2010.06.03 18:47:42.
