data_PCOD9303752
_publ_section_title
;
Structure prediction by ZEFSAII (Michael W. Deem and Ramdas Pophale) SiO2 
 PCOD9303752
Probable space group: C 2/C
;
_chemical_formula_sum "Si O2"
_cell_formula_units_Z 32
_cell_length_a 9.284586
_cell_length_b 18.540003
_cell_length_c 7.625168
_cell_angle_alpha 90.000000
_cell_angle_beta 110.230859
_cell_angle_gamma 90.000000
_cell_volume 1231.591479
_symmetry_space_group_name_H-M "C 2/C"
_symmetry_group_IT_number 15
_symmetry_cell_setting 'monoclinic'
loop_
_space_group_symop_operation_xyz
x,y,z
-x,y,1/2-z
-x,-y,-z
x,-y,1/2+z
1/2+x,1/2+y,z
1/2-x,1/2+y,1/2-z
1/2-x,1/2-y,-z
1/2+x,1/2-y,1/2+z
loop_
_atom_site_type_symbol
_atom_site_label
_atom_site_fract_x
_atom_site_fract_y
_atom_site_fract_z
Si Si1 0.574199 0.770747 0.971188
Si Si2 0.768940 0.065570 0.257083
Si Si3 0.313286 0.091032 0.890744
Si Si4 0.581423 0.624904 0.504069
O O1 0.500000 0.780054 0.750000
O O2 0.750000 0.750000 0.000000
O O3 0.571017 0.842932 0.087658
O O4 0.494116 0.703233 0.031692
O O5 0.690541 0.091449 0.400585
O O6 0.946653 0.067533 0.402417
O O7 0.682487 0.991914 0.167713
O O8 0.788933 0.112251 0.089489
O O9 0.158052 0.114248 0.724792
#
# Coordination Sequence:
#
# PCOD9303752 Si02
#       4
#     8   8   8   8
#     4  12  24  45  72 103 148 191 230 296 367 415
#     4  11  23  38  73 109 134 186 243 290 349 418
#     4  12  23  43  73 105 142 183 242 302 345 416
#     4  11  23  40  72 106 138 187 246 295 342 426
#
# _framework density 25.982641000000001
#
# number of rings (size 3 to 8) (size 9 to 14) (size 15 to 20)
#    0.000    0.500    7.500    1.500    3.500    0.000 
#    0.000   15.000    0.000    0.000    0.000    0.000 
#    0.000    0.000    0.000    0.000    0.000    0.000 
#
# Total GULP energy -89399.020807 kJ/mol
# GULP energy per Si atom -5587.438800 kJ/mol
# Density = 2.592350 g / cm^3
# Si number density = 25.982641 Si / 1000 Ang^3
#
#
#
# Elastic Constant Matrix: (Units=GPa)
#
#
# Indices 1 2 3 4 5 6 
#
# 1 58.5786 54.7712 50.7071 0.0000 -0.8244 0.0000
# 2 54.7712 213.3580 78.1758 0.0000 -10.1503 0.0000
# 3 50.7071 78.1758 123.9958 0.0000 12.5224 0.0000
# 4 0.0000 0.0000 0.0000 51.5563 0.0000 29.0948
# 5 -0.8244 -10.1503 12.5224 0.0000 43.4454 0.0000
# 6 0.0000 0.0000 0.0000 29.0948 0.0000 0.8608
#
#
#
# Elastic Compliance Matrix: (Units=1/GPa)
#
#
# Indices 1 2 3 4 5 6 
#
# 1 0.029087 -0.003769 -0.009770 0.000000 0.002487 0.000000
# 2 -0.003769 0.006884 -0.003043 0.000000 0.002414 0.000000
# 3 -0.009770 -0.003043 0.014491 0.000000 -0.005073 0.000000
# 4 0.000000 0.000000 0.000000 -0.001073 0.000000 0.036272
# 5 0.002487 0.002414 -0.005073 0.000000 0.025091 0.000000
# 6 0.000000 0.000000 0.000000 0.036272 0.000000 -0.064274
#
#
# Mechanical properties :
#
#
# Convention : Reuss Voigt Hill
#
# Bulk Modulus (GPa) = 57.80729 84.80453 71.30591
# Shear Modulus (GPa) = 101.75997 33.32439 67.54218
#
# Velocity S-wave (km/s) = 6.26495 3.58517 5.10407
# Velocity P-wave (km/s) = 8.63884 7.06029 7.88915
#
# Compressibility (1/GPa) = 0.01729886
#
# Stress axis : x y z
#
# Youngs Moduli (GPa) = 34.37953 145.25983 69.00871
#
# Poissons Ratio (x) = 0.54746 0.67422
# Poissons Ratio (y) = 0.12957 0.20998
# Poissons Ratio (z) = 0.33589 0.44201
#
# Static dielectric constant tensor:
#      x y z
#    x 2.128410 0.000000 -0.013480 
#    y 0.000000 2.181290 0.000000 
#    z -0.013480 0.000000 1.969410 
# 
# From -- ./inp_files/40076.got.cif
#   From: 2010.05.17/outbox.cif.g08.bks.cpg/sg15_21_cif.got.tgz:40076.got - 2010.06.03 18:47:42.
