data_PCOD9303759
_publ_section_title
;
Structure prediction by ZEFSAII (Michael W. Deem and Ramdas Pophale) SiO2 
 PCOD9303759
Probable space group: C 2/C
;
_chemical_formula_sum "Si O2"
_cell_formula_units_Z 48
_cell_length_a 20.881792
_cell_length_b 14.209951
_cell_length_c 12.006333
_cell_angle_alpha 90.000000
_cell_angle_beta 144.149715
_cell_angle_gamma 90.000000
_cell_volume 2086.522961
_symmetry_space_group_name_H-M "C 2/C"
_symmetry_group_IT_number 15
_symmetry_cell_setting 'monoclinic'
loop_
_space_group_symop_operation_xyz
x,y,z
-x,y,1/2-z
-x,-y,-z
x,-y,1/2+z
1/2+x,1/2+y,z
1/2-x,1/2+y,1/2-z
1/2-x,1/2-y,-z
1/2+x,1/2-y,1/2+z
loop_
_atom_site_type_symbol
_atom_site_label
_atom_site_fract_x
_atom_site_fract_y
_atom_site_fract_z
Si Si1 0.913210 0.319896 0.219233
Si Si2 0.382507 0.874139 0.591403
Si Si3 0.186507 0.192219 0.122650
Si Si4 0.826503 0.876794 0.644186
Si Si5 0.851716 0.081513 0.662340
Si Si6 0.081056 0.736294 0.131221
O O1 0.802559 0.379537 0.069325
O O2 0.000000 0.350996 0.250000
O O3 0.980970 0.310790 0.427882
O O4 0.874968 0.211854 0.145879
O O5 0.500000 0.925291 0.750000
O O6 0.377095 0.789202 0.494403
O O7 0.264728 0.923024 0.434040
O O8 0.386484 0.820273 0.713838
O O9 0.167430 0.147214 0.215713
O O10 0.313158 0.223499 0.297662
O O11 0.162523 0.124378 0.982499
O O12 0.886869 0.974013 0.704809
O O13 0.924426 0.155592 0.834691
#
# Coordination Sequence:
#
# PCOD9303759 Si02
#       6
#     8   8   8   8   8   8
#     4  11  23  39  60  83 122 163 199 237 307 373
#     4   9  17  34  60  85 109 152 205 243 298 357
#     4   9  18  38  59  80 117 156 195 243 296 361
#     4  11  23  39  59  91 121 159 199 251 307 358
#     4   9  21  37  59  88 120 152 204 257 296 349
#     4   9  18  38  59  79 113 161 198 242 290 361
#
# _framework density 23.004778000000002
#
# number of rings (size 3 to 8) (size 9 to 14) (size 15 to 20)
#    0.000    2.333    1.667    3.000    0.000    2.667 
#    6.000    5.000    0.000    0.000    0.000    0.000 
#    0.000    0.000    0.000    0.000    0.000    0.000 
#
# Total GULP energy -133970.208782 kJ/mol
# GULP energy per Si atom -5582.092033 kJ/mol
# Density = 2.295242 g / cm^3
# Si number density = 23.004778 Si / 1000 Ang^3
#
#
#
# Elastic Constant Matrix: (Units=GPa)
#
#
# Indices 1 2 3 4 5 6 
#
# 1 60.7079 -0.0439 22.2129 0.0000 -3.4651 0.0000
# 2 -0.0439 91.8801 4.2915 0.0000 -21.2045 0.0000
# 3 22.2129 4.2915 111.0088 0.0000 -15.2184 0.0000
# 4 0.0000 0.0000 0.0000 12.7207 0.0000 -4.2391
# 5 -3.4651 -21.2045 -15.2184 0.0000 31.4330 0.0000
# 6 0.0000 0.0000 0.0000 -4.2391 0.0000 5.7296
#
#
#
# Elastic Compliance Matrix: (Units=1/GPa)
#
#
# Indices 1 2 3 4 5 6 
#
# 1 0.017781 0.000276 -0.003507 0.000000 0.000448 0.000000
# 2 0.000276 0.012952 0.000692 0.000000 0.009103 0.000000
# 3 -0.003507 0.000692 0.010384 0.000000 0.005107 0.000000
# 4 0.000000 0.000000 0.000000 0.104337 0.000000 0.077195
# 5 0.000448 0.009103 0.005107 0.000000 0.040477 0.000000
# 6 0.000000 0.000000 0.000000 0.077195 0.000000 0.231645
#
#
# Mechanical properties :
#
#
# Convention : Reuss Voigt Hill
#
# Bulk Modulus (GPa) = 27.74821 35.16864 31.45842
# Shear Modulus (GPa) = 11.50303 25.78575 18.64439
#
# Velocity S-wave (km/s) = 2.23856 3.35160 2.84994
# Velocity P-wave (km/s) = 4.33239 5.50439 4.95318
#
# Compressibility (1/GPa) = 0.03603836
#
# Stress axis : x y z
#
# Youngs Moduli (GPa) = 56.23848 77.20575 96.30620
#
# Poissons Ratio (x) = -0.02129 0.33777
# Poissons Ratio (y) = -0.01551 -0.06665
# Poissons Ratio (z) = 0.19725 -0.05343
#
# Static dielectric constant tensor:
#      x y z
#    x 1.924890 0.000000 0.084530 
#    y 0.000000 1.835840 0.000000 
#    z 0.084530 0.000000 1.937020 
# 
# From -- ./inp_files/96186.got.cif
#   From: 2010.05.17/outbox.cif.g08.bks.cpg/sg15_49_cif.got.tgz:96186.got - 2010.06.03 18:47:42.
