data_PCOD9303331
_publ_section_title
;
Structure prediction by ZEFSAII (Michael W. Deem and Ramdas Pophale) SiO2 
 PCOD9303331
Probable space group: C 2/C
;
_chemical_formula_sum "Si O2"
_cell_formula_units_Z 36
_cell_length_a 13.089463
_cell_length_b 11.874969
_cell_length_c 20.073112
_cell_angle_alpha 90.000000
_cell_angle_beta 28.329185
_cell_angle_gamma 90.000000
_cell_volume 1480.603505
_symmetry_space_group_name_H-M "C 2/C"
_symmetry_group_IT_number 15
_symmetry_cell_setting 'monoclinic'
loop_
_space_group_symop_operation_xyz
x,y,z
-x,y,1/2-z
-x,-y,-z
x,-y,1/2+z
1/2+x,1/2+y,z
1/2-x,1/2+y,1/2-z
1/2-x,1/2-y,-z
1/2+x,1/2-y,1/2+z
loop_
_atom_site_type_symbol
_atom_site_label
_atom_site_fract_x
_atom_site_fract_y
_atom_site_fract_z
Si Si1 0.647978 0.155157 0.367069
Si Si2 0.806235 0.595499 0.909723
Si Si3 0.034450 0.283633 0.397104
Si Si4 0.000000 0.982429 0.750000
Si Si5 0.289551 0.117165 0.482319
O O1 0.462348 0.172181 0.529504
O O2 0.837425 0.093824 0.299091
O O3 0.526784 0.094193 0.376703
O O4 0.754031 0.261488 0.268008
O O5 0.881656 0.638185 0.939529
O O6 0.772390 0.461731 0.927506
O O7 0.000000 0.629068 0.750000
O O8 0.590354 0.665096 0.021549
O O9 0.120484 0.062234 0.629316
O O10 0.250000 0.250000 0.500000
#
# Coordination Sequence:
#
# PCOD9303331 Si02
#       5
#     8   8   8   4   8
#     4  12  25  46  78 107 143 192 241 303 356 432
#     4  11  22  43  71 103 142 182 241 300 352 427
#     4  11  22  43  73 110 134 182 248 296 354 422
#     4  12  24  50  70 100 140 198 250 276 358 438
#     4  12  30  45  69 105 153 189 234 299 369 428
#
# _framework density 24.314409999999999
#
# number of rings (size 3 to 8) (size 9 to 14) (size 15 to 20)
#    0.000    0.444    6.667    2.000    4.667    0.000 
#    0.000    2.222    0.000    0.000    0.000    0.000 
#    0.000    0.000    0.000    0.000    0.000    0.000 
#
# Total GULP energy -100602.129442 kJ/mol
# GULP energy per Si atom -5589.007191 kJ/mol
# Density = 2.425907 g / cm^3
# Si number density = 24.314410 Si / 1000 Ang^3
#
#
#
# Elastic Constant Matrix: (Units=GPa)
#
#
# Indices 1 2 3 4 5 6 
#
# 1 57.1787 23.8469 2.4187 -0.0033 -8.0661 0.0005
# 2 23.8469 117.9129 -0.3975 0.0005 0.1354 0.0002
# 3 2.4187 -0.3975 93.6460 -0.0085 23.5080 0.0050
# 4 -0.0033 0.0005 -0.0085 35.9911 0.0066 1.7280
# 5 -8.0661 0.1354 23.5080 0.0066 27.0226 -0.0009
# 6 0.0005 0.0002 0.0050 1.7280 -0.0009 23.9025
#
#
#
# Elastic Compliance Matrix: (Units=1/GPa)
#
#
# Indices 1 2 3 4 5 6 
#
# 1 0.020539 -0.004173 -0.002677 0.000000 0.008480 0.000000
# 2 -0.004173 0.009329 0.000604 0.000000 -0.001817 0.000000
# 3 -0.002677 0.000604 0.014011 0.000006 -0.012991 -0.000004
# 4 0.000000 0.000000 0.000006 0.027881 -0.000012 -0.002016
# 5 0.008480 -0.001817 -0.012991 -0.000012 0.050848 0.000005
# 6 0.000000 0.000000 -0.000004 -0.002016 0.000005 0.041982
#
#
# Mechanical properties :
#
#
# Convention : Reuss Voigt Hill
#
# Bulk Modulus (GPa) = 31.86042 35.60823 33.73433
# Shear Modulus (GPa) = 26.66023 33.57454 30.11739
#
# Velocity S-wave (km/s) = 3.31490 3.72001 3.52328
# Velocity P-wave (km/s) = 5.27100 5.75569 5.51867
#
# Compressibility (1/GPa) = 0.03138690
#
# Stress axis : x y z
#
# Youngs Moduli (GPa) = 48.68829 107.19463 71.37054
#
# Poissons Ratio (x) = 0.44728 0.19106
# Poissons Ratio (y) = 0.20316 -0.04308
# Poissons Ratio (z) = 0.13034 -0.06470
#
# Static dielectric constant tensor:
#      x y z
#    x 1.926330 0.000000 -0.029400 
#    y 0.000000 1.990060 0.000010 
#    z -0.029400 0.000010 1.959860 
# 
# From -- ./inp_files/94761.got.cif
#   From: 2010.05.17/outbox.cif.g08.bks.cpg/sg15_48_cif.got.tgz:94761.got - 2010.06.03 18:47:42.
