data_PCOD9303434
_publ_section_title
;
Structure prediction by ZEFSAII (Michael W. Deem and Ramdas Pophale) SiO2 
 PCOD9303434
Probable space group: C 2/C
;
_chemical_formula_sum "Si O2"
_cell_formula_units_Z 28
_cell_length_a 11.905478
_cell_length_b 14.034659
_cell_length_c 7.746753
_cell_angle_alpha 90.000000
_cell_angle_beta 73.522993
_cell_angle_gamma 90.000000
_cell_volume 1241.243429
_symmetry_space_group_name_H-M "C 2/C"
_symmetry_group_IT_number 15
_symmetry_cell_setting 'monoclinic'
loop_
_space_group_symop_operation_xyz
x,y,z
-x,y,1/2-z
-x,-y,-z
x,-y,1/2+z
1/2+x,1/2+y,z
1/2-x,1/2+y,1/2-z
1/2-x,1/2-y,-z
1/2+x,1/2-y,1/2+z
loop_
_atom_site_type_symbol
_atom_site_label
_atom_site_fract_x
_atom_site_fract_y
_atom_site_fract_z
Si Si1 0.413044 0.935177 0.920986
Si Si2 0.500000 0.257083 0.750000
Si Si3 0.699368 0.883773 0.196079
Si Si4 0.471982 0.609201 0.561738
O O1 0.500000 0.882511 0.750000
O O2 0.333531 0.009857 0.851865
O O3 0.332844 0.877584 0.086921
O O4 0.500000 0.000000 0.000000
O O5 0.392559 0.188521 0.849061
O O6 0.465135 0.323184 0.604381
O O7 0.834050 0.869929 0.099113
O O8 0.500000 0.624338 0.750000
O O9 0.500000 0.500000 0.500000
#
# Coordination Sequence:
#
# PCOD9303434 Si02
#       4
#     8   4   8   8
#     4   9  17  35  66 101 136 173 222 285 353 407
#     4  12  26  46  72 106 140 178 248 300 336 414
#     4  11  22  44  70 106 139 182 237 295 340 423
#     4  12  27  49  70  99 144 195 230 284 368 425
#
# _framework density 22.558026000000002
#
# number of rings (size 3 to 8) (size 9 to 14) (size 15 to 20)
#    0.000    1.143    5.714    2.571    0.000    2.286 
#    0.000    0.000    0.000    0.000    0.000    0.000 
#    0.000    0.000    0.000    0.000    0.000    0.000 
#
# Total GULP energy -78241.521513 kJ/mol
# GULP energy per Si atom -5588.680108 kJ/mol
# Density = 2.250668 g / cm^3
# Si number density = 22.558026 Si / 1000 Ang^3
#
#
#
# Elastic Constant Matrix: (Units=GPa)
#
#
# Indices 1 2 3 4 5 6 
#
# 1 78.4936 8.7566 -18.7524 0.0000 -9.9273 0.0000
# 2 8.7566 90.4706 19.8054 0.0000 -1.1439 0.0000
# 3 -18.7524 19.8054 88.8987 0.0000 7.1784 0.0000
# 4 0.0000 0.0000 0.0000 39.3142 0.0000 -3.7048
# 5 -9.9273 -1.1439 7.1784 0.0000 35.1857 0.0000
# 6 0.0000 0.0000 0.0000 -3.7048 0.0000 16.9978
#
#
#
# Elastic Compliance Matrix: (Units=1/GPa)
#
#
# Indices 1 2 3 4 5 6 
#
# 1 0.014136 -0.002020 0.003167 0.000000 0.003277 0.000000
# 2 -0.002020 0.011938 -0.003123 0.000000 0.000455 0.000000
# 3 0.003167 -0.003123 0.012759 0.000000 -0.001811 0.000000
# 4 0.000000 0.000000 0.000000 0.025970 0.000000 0.005660
# 5 0.003277 0.000455 -0.001811 0.000000 0.029729 0.000000
# 6 0.000000 0.000000 0.000000 0.005660 0.000000 0.060065
#
#
# Mechanical properties :
#
#
# Convention : Reuss Voigt Hill
#
# Bulk Modulus (GPa) = 28.66752 30.83132 29.74942
# Shear Modulus (GPa) = 29.38147 34.83643 32.10895
#
# Velocity S-wave (km/s) = 3.61291 3.93403 3.77688
# Velocity P-wave (km/s) = 5.49000 5.85941 5.67771
#
# Compressibility (1/GPa) = 0.03488269
#
# Stress axis : x y z
#
# Youngs Moduli (GPa) = 70.73945 83.76481 78.37732
#
# Poissons Ratio (x) = 0.16922 -0.24826
# Poissons Ratio (y) = 0.14291 0.24474
# Poissons Ratio (z) = -0.22406 0.26156
#
# Static dielectric constant tensor:
#      x y z
#    x 1.825400 0.000000 -0.006070 
#    y 0.000000 1.833720 0.000000 
#    z -0.006070 0.000000 1.901790 
# 
# From -- ./inp_files/27266.got.cif
#   From: 2010.05.17/outbox.cif.g08.bks.cpg/sg15_14_cif.got.tgz:27266.got - 2010.06.03 18:47:42.
