data_PCOD9303539
_publ_section_title
;
Structure prediction by ZEFSAII (Michael W. Deem and Ramdas Pophale) SiO2 
 PCOD9303539
Probable space group: C 2/C
;
_chemical_formula_sum "Si O2"
_cell_formula_units_Z 60
_cell_length_a 8.848123
_cell_length_b 11.736408
_cell_length_c 26.680639
_cell_angle_alpha 90.000000
_cell_angle_beta 78.470183
_cell_angle_gamma 90.000000
_cell_volume 2714.746239
_symmetry_space_group_name_H-M "C 2/C"
_symmetry_group_IT_number 15
_symmetry_cell_setting 'monoclinic'
loop_
_space_group_symop_operation_xyz
x,y,z
-x,y,1/2-z
-x,-y,-z
x,-y,1/2+z
1/2+x,1/2+y,z
1/2-x,1/2+y,1/2-z
1/2-x,1/2-y,-z
1/2+x,1/2-y,1/2+z
loop_
_atom_site_type_symbol
_atom_site_label
_atom_site_fract_x
_atom_site_fract_y
_atom_site_fract_z
Si Si1 0.390692 0.520654 0.414409
Si Si2 0.687976 0.754756 0.812842
Si Si3 0.043468 0.588515 0.689366
Si Si4 0.245961 0.958338 0.896210
Si Si5 0.500000 0.609187 0.750000
Si Si6 0.342052 0.649008 0.519644
Si Si7 0.427783 0.263185 0.416005
Si Si8 0.251143 0.991027 0.672007
O O1 0.568517 0.549544 0.390502
O O2 0.377664 0.564129 0.471600
O O3 0.351938 0.386517 0.412520
O O4 0.273738 0.567057 0.380683
O O5 0.850058 0.700812 0.819636
O O6 0.626935 0.682673 0.770246
O O7 0.558970 0.746200 0.864614
O O8 0.703189 0.885307 0.796396
O O9 0.148393 0.490105 0.657937
O O10 0.000000 0.571248 0.750000
O O11 0.885895 0.583652 0.667771
O O12 0.242246 0.068574 0.933726
O O13 0.315844 0.845585 0.918114
O O14 0.590223 0.538008 0.702334
O O15 0.250000 0.750000 0.500000
O O16 0.484882 0.712125 0.537400
#
# Coordination Sequence:
#
# PCOD9303539 Si02
#       8
#     8   8   8   8   4   8   8   8
#     4  11  25  47  69 106 143 186 240 300 363 436
#     4  12  25  46  69 101 145 184 239 299 357 430
#     4  12  25  45  72 105 140 186 242 295 361 432
#     4  11  24  46  75 102 147 188 240 303 362 435
#     4  12  26  46  68 102 142 190 234 304 354 440
#     4  11  25  45  71 104 148 188 243 301 361 434
#     4  11  22  45  70 101 140 191 235 298 362 432
#     4  12  27  44  72 103 142 187 244 294 369 427
#
# _framework density 22.101512
#
# number of rings (size 3 to 8) (size 9 to 14) (size 15 to 20)
#    0.000    0.533    6.667    2.400    1.867    3.733 
#    0.000    0.000    0.000    0.000    0.000    0.000 
#    0.000    0.000    0.000    0.000    0.000    0.000 
#
# Total GULP energy -167539.442215 kJ/mol
# GULP energy per Si atom -5584.648074 kJ/mol
# Density = 2.205121 g / cm^3
# Si number density = 22.101512 Si / 1000 Ang^3
#
#
#
# Elastic Constant Matrix: (Units=GPa)
#
#
# Indices 1 2 3 4 5 6 
#
# 1 80.3363 37.5054 36.2727 0.0000 7.4190 0.0000
# 2 37.5054 104.2759 -4.5110 0.0000 1.2626 0.0000
# 3 36.2727 -4.5110 75.0440 0.0000 5.1105 0.0000
# 4 0.0000 0.0000 0.0000 13.6032 0.0000 5.6818
# 5 7.4190 1.2626 5.1105 0.0000 28.2247 0.0000
# 6 0.0000 0.0000 0.0000 5.6818 0.0000 40.7176
#
#
#
# Elastic Compliance Matrix: (Units=1/GPa)
#
#
# Indices 1 2 3 4 5 6 
#
# 1 0.021285 -0.008072 -0.010547 0.000000 -0.003324 0.000000
# 2 -0.008072 0.012684 0.004615 0.000000 0.000719 0.000000
# 3 -0.010547 0.004615 0.018757 0.000000 -0.000830 0.000000
# 4 0.000000 0.000000 0.000000 0.078062 0.000000 -0.010893
# 5 -0.003324 0.000719 -0.000830 0.000000 0.036422 0.000000
# 6 0.000000 0.000000 0.000000 -0.010893 0.000000 0.026079
#
#
# Mechanical properties :
#
#
# Convention : Reuss Voigt Hill
#
# Bulk Modulus (GPa) = 40.45460 44.24340 42.34900
# Shear Modulus (GPa) = 21.78298 29.20170 25.49234
#
# Velocity S-wave (km/s) = 3.14281 3.63885 3.39989
# Velocity P-wave (km/s) = 5.61368 6.14139 5.88346
#
# Compressibility (1/GPa) = 0.02471907
#
# Stress axis : x y z
#
# Youngs Moduli (GPa) = 46.98128 78.83897 53.31230
#
# Poissons Ratio (x) = 0.63637 0.56229
# Poissons Ratio (y) = 0.37922 -0.24604
# Poissons Ratio (z) = 0.49551 -0.36384
#
# Static dielectric constant tensor:
#      x y z
#    x 1.840630 0.000000 0.031960 
#    y 0.000000 1.859160 0.000000 
#    z 0.031960 0.000000 1.982830 
# 
# From -- ./inp_files/307136.got.cif
#   From: 2010.05.17/outbox.cif.g08.bks.cpg/sg15_154_cif.got.tgz:307136.got - 2010.06.03 18:47:42.
