data_PCOD9303680
_publ_section_title
;
Structure prediction by ZEFSAII (Michael W. Deem and Ramdas Pophale) SiO2 
 PCOD9303680
Probable space group: C 2/C
;
_chemical_formula_sum "Si O2"
_cell_formula_units_Z 52
_cell_length_a 21.177779
_cell_length_b 17.752580
_cell_length_c 9.343586
_cell_angle_alpha 90.000000
_cell_angle_beta 46.384731
_cell_angle_gamma 90.000000
_cell_volume 2543.237269
_symmetry_space_group_name_H-M "C 2/C"
_symmetry_group_IT_number 15
_symmetry_cell_setting 'monoclinic'
loop_
_space_group_symop_operation_xyz
x,y,z
-x,y,1/2-z
-x,-y,-z
x,-y,1/2+z
1/2+x,1/2+y,z
1/2-x,1/2+y,1/2-z
1/2-x,1/2-y,-z
1/2+x,1/2-y,1/2+z
loop_
_atom_site_type_symbol
_atom_site_label
_atom_site_fract_x
_atom_site_fract_y
_atom_site_fract_z
Si Si1 0.603429 0.789931 0.099539
Si Si2 0.769008 0.058010 0.950068
Si Si3 0.209837 0.424060 0.856379
Si Si4 0.058992 0.970454 0.781615
Si Si5 0.622559 0.327820 0.802318
Si Si6 0.000000 0.216217 0.750000
Si Si7 0.159838 0.778511 0.209978
O O1 0.500000 0.781337 0.250000
O O2 0.635896 0.749752 0.195393
O O3 0.629517 0.877614 0.046698
O O4 0.645324 0.751373 0.892955
O O5 0.711480 0.075214 0.180757
O O6 0.821511 0.131659 0.814920
O O7 0.721029 0.007935 0.904213
O O8 0.846185 0.004273 0.882515
O O9 0.291946 0.372516 0.779819
O O10 0.071575 0.881583 0.772303
O O11 0.000000 0.997962 0.750000
O O12 0.000000 0.000000 0.000000
O O13 0.562062 0.321842 0.035907
O O14 0.922557 0.246595 0.761850
O O15 0.250000 0.750000 0.000000
#
# Coordination Sequence:
#
# PCOD9303680 Si02
#       7
#     8   8   8   8   8   4   8
#     4  12  25  45  70 100 138 181 239 294 343 409
#     4  11  24  41  65  94 136 185 229 279 350 421
#     4  11  25  45  64  98 138 183 232 283 353 421
#     4  11  23  33  56  93 138 175 208 267 342 422
#     4  11  23  39  65  98 138 178 227 278 348 422
#     4  12  22  40  68 104 138 176 226 282 352 428
#     4  12  25  45  72 100 143 181 232 288 353 419
#
# _framework density 20.446380999999999
#
# number of rings (size 3 to 8) (size 9 to 14) (size 15 to 20)
#    0.000    0.615    4.615    3.692    8.615    0.000 
#    0.000    0.769    1.692    0.000    0.000    0.000 
#    0.000    0.000    0.000    0.000    0.000    0.000 
#
# Total GULP energy -144951.264537 kJ/mol
# GULP energy per Si atom -5575.048636 kJ/mol
# Density = 2.039984 g / cm^3
# Si number density = 20.446381 Si / 1000 Ang^3
#
#
#
# Elastic Constant Matrix: (Units=GPa)
#
#
# Indices 1 2 3 4 5 6 
#
# 1 50.7584 6.7511 14.8544 0.0000 4.0204 0.0000
# 2 6.7511 51.4874 17.3646 0.0000 9.5941 0.0000
# 3 14.8544 17.3646 100.1252 0.0000 6.7761 0.0000
# 4 0.0000 0.0000 0.0000 33.6795 0.0000 5.4584
# 5 4.0204 9.5941 6.7761 0.0000 30.1579 0.0000
# 6 0.0000 0.0000 0.0000 5.4584 0.0000 -0.6286
#
#
#
# Elastic Compliance Matrix: (Units=1/GPa)
#
#
# Indices 1 2 3 4 5 6 
#
# 1 0.020829 -0.001501 -0.002716 0.000000 -0.001689 0.000000
# 2 -0.001501 0.021805 -0.003151 0.000000 -0.006029 0.000000
# 3 -0.002716 -0.003151 0.011012 0.000000 -0.001110 0.000000
# 4 0.000000 0.000000 0.000000 0.012334 0.000000 0.107097
# 5 -0.001689 -0.006029 -0.001110 0.000000 0.035551 0.000000
# 6 0.000000 0.000000 0.000000 0.107097 0.000000 -0.660813
#
#
# Mechanical properties :
#
#
# Convention : Reuss Voigt Hill
#
# Bulk Modulus (GPa) = 25.69901 31.14569 28.42235
# Shear Modulus (GPa) = -9.40600 23.53515 7.06458
#
# Velocity S-wave (km/s) = -2.14716 3.39642 1.86083
# Velocity P-wave (km/s) = 2.53952 5.53596 4.30674
#
# Compressibility (1/GPa) = 0.03891201
#
# Stress axis : x y z
#
# Youngs Moduli (GPa) = 48.00933 45.86089 90.81036
#
# Poissons Ratio (x) = 0.06882 0.24661
# Poissons Ratio (y) = 0.07204 0.28614
# Poissons Ratio (z) = 0.13038 0.14451
#
# Static dielectric constant tensor:
#      x y z
#    x 1.794140 0.000000 0.024170 
#    y 0.000000 1.840380 0.000000 
#    z 0.024170 0.000000 1.695570 
# 
# From -- ./inp_files/56947.got.cif
#   From: 2010.05.17/outbox.cif.g08.bks.cpg/sg15_29_cif.got.tgz:56947.got - 2010.06.03 18:47:42.
