data_PCOD9303607
_publ_section_title
;
Structure prediction by ZEFSAII (Michael W. Deem and Ramdas Pophale) SiO2 
 PCOD9303607
Probable space group: C 2/C
;
_chemical_formula_sum "Si O2"
_cell_formula_units_Z 56
_cell_length_a 16.545766
_cell_length_b 9.332614
_cell_length_c 24.356780
_cell_angle_alpha 90.000000
_cell_angle_beta 136.098084
_cell_angle_gamma 90.000000
_cell_volume 2608.015262
_symmetry_space_group_name_H-M "C 2/C"
_symmetry_group_IT_number 15
_symmetry_cell_setting 'monoclinic'
loop_
_space_group_symop_operation_xyz
x,y,z
-x,y,1/2-z
-x,-y,-z
x,-y,1/2+z
1/2+x,1/2+y,z
1/2-x,1/2+y,1/2-z
1/2-x,1/2-y,-z
1/2+x,1/2-y,1/2+z
loop_
_atom_site_type_symbol
_atom_site_label
_atom_site_fract_x
_atom_site_fract_y
_atom_site_fract_z
Si Si1 0.768194 0.493879 0.261998
Si Si2 0.629393 0.982834 0.798492
Si Si3 0.273799 0.107297 0.546113
Si Si4 0.857163 0.662694 0.025923
Si Si5 0.049003 0.865220 0.992299
Si Si6 0.315882 0.222372 0.880204
Si Si7 0.887051 0.773091 0.360901
O O1 0.860512 0.457630 0.258423
O O2 0.777257 0.402965 0.321550
O O3 0.794600 0.657841 0.291594
O O4 0.650163 0.431410 0.177094
O O5 0.500000 0.932086 0.750000
O O6 0.665810 0.095020 0.864077
O O7 0.722473 0.851396 0.842267
O O8 0.250000 0.250000 0.500000
O O9 0.140490 0.068960 0.495185
O O10 0.343903 0.995081 0.543937
O O11 0.985364 0.728247 0.098389
O O12 0.750000 0.750000 0.000000
O O13 0.840360 0.664264 0.952689
O O14 0.108974 0.772456 0.070706
O O15 0.938746 0.779191 0.916661
O O16 0.000000 0.000000 0.000000
#
# Coordination Sequence:
#
# PCOD9303607 Si02
#       7
#     8   8   8   8   8   8   8
#     4  12  25  44  72 106 141 185 239 287 360 431
#     4  12  25  47  68 102 146 188 225 290 369 419
#     4  12  26  42  71 104 140 179 233 300 353 404
#     4  11  24  46  72 102 137 187 242 285 348 424
#     4  11  22  46  70 100 140 185 240 287 349 419
#     4  11  25  42  73 100 135 190 237 285 345 435
#     4  11  25  44  72 105 140 185 240 292 351 431
#
# _framework density 21.472266000000001
#
# number of rings (size 3 to 8) (size 9 to 14) (size 15 to 20)
#    0.000    0.571    5.714    1.714    6.000    1.143 
#    0.000    0.000    0.000    0.857    0.000    0.000 
#    0.000    0.000    0.000    0.000    0.000    0.000 
#
# Total GULP energy -156260.387151 kJ/mol
# GULP energy per Si atom -5580.728113 kJ/mol
# Density = 2.142339 g / cm^3
# Si number density = 21.472266 Si / 1000 Ang^3
#
#
#
# Elastic Constant Matrix: (Units=GPa)
#
#
# Indices 1 2 3 4 5 6 
#
# 1 101.7272 29.5464 37.4375 0.0000 12.0967 0.0000
# 2 29.5464 87.7561 38.6349 0.0000 -3.2512 0.0000
# 3 37.4375 38.6349 85.4619 0.0000 4.3170 0.0000
# 4 0.0000 0.0000 0.0000 41.6812 0.0000 -5.8968
# 5 12.0967 -3.2512 4.3170 0.0000 42.9046 0.0000
# 6 0.0000 0.0000 0.0000 -5.8968 0.0000 33.4515
#
#
#
# Elastic Compliance Matrix: (Units=1/GPa)
#
#
# Indices 1 2 3 4 5 6 
#
# 1 0.012480 -0.002484 -0.004178 0.000000 -0.003287 0.000000
# 2 -0.002484 0.014851 -0.005747 0.000000 0.002404 0.000000
# 3 -0.004178 -0.005747 0.016174 0.000000 -0.000885 0.000000
# 4 0.000000 0.000000 0.000000 0.024605 0.000000 0.004337
# 5 -0.003287 0.002404 -0.000885 0.000000 0.024505 0.000000
# 6 0.000000 0.000000 0.000000 0.004337 0.000000 0.030659
#
#
# Mechanical properties :
#
#
# Convention : Reuss Voigt Hill
#
# Bulk Modulus (GPa) = 53.51369 54.02032 53.76701
# Shear Modulus (GPa) = 32.39997 34.89589 33.64793
#
# Velocity S-wave (km/s) = 3.88870 4.03570 3.96288
# Velocity P-wave (km/s) = 6.71855 6.85045 6.78482
#
# Compressibility (1/GPa) = 0.01868681
#
# Stress axis : x y z
#
# Youngs Moduli (GPa) = 80.12713 67.33675 61.82781
#
# Poissons Ratio (x) = 0.16729 0.25831
# Poissons Ratio (y) = 0.19906 0.35531
# Poissons Ratio (z) = 0.33477 0.38697
#
# Static dielectric constant tensor:
#      x y z
#    x 1.743620 0.000000 -0.001660 
#    y 0.000000 1.812030 0.000000 
#    z -0.001660 0.000000 1.842690 
# 
# From -- ./inp_files/298594.got.cif
#   From: 2010.05.17/outbox.cif.g08.bks.cpg/sg15_150_cif.got.tgz:298594.got - 2010.06.03 18:47:42.
