data_PCOD9303682
_publ_section_title
;
Structure prediction by ZEFSAII (Michael W. Deem and Ramdas Pophale) SiO2 
 PCOD9303682
Probable space group: C 2/C
;
_chemical_formula_sum "Si O2"
_cell_formula_units_Z 32
_cell_length_a 8.094128
_cell_length_b 11.651711
_cell_length_c 26.392887
_cell_angle_alpha 90.000000
_cell_angle_beta 137.886545
_cell_angle_gamma 90.000000
_cell_volume 1669.209181
_symmetry_space_group_name_H-M "C 2/C"
_symmetry_group_IT_number 15
_symmetry_cell_setting 'monoclinic'
loop_
_space_group_symop_operation_xyz
x,y,z
-x,y,1/2-z
-x,-y,-z
x,-y,1/2+z
1/2+x,1/2+y,z
1/2-x,1/2+y,1/2-z
1/2-x,1/2-y,-z
1/2+x,1/2-y,1/2+z
loop_
_atom_site_type_symbol
_atom_site_label
_atom_site_fract_x
_atom_site_fract_y
_atom_site_fract_z
Si Si1 0.728865 0.643662 0.930597
Si Si2 0.247336 0.280360 0.662820
Si Si3 0.827731 0.795378 0.462485
Si Si4 0.538129 0.002153 0.424543
O O1 0.445369 0.679320 0.867050
O O2 0.834111 0.581135 0.904589
O O3 0.810162 0.560660 0.994943
O O4 0.885841 0.761096 0.974758
O O5 0.500000 0.272588 0.750000
O O6 0.288402 0.271672 0.611437
O O7 0.107058 0.400789 0.638980
O O8 0.750000 0.750000 0.500000
O O9 0.729600 0.924211 0.437357
#
# Coordination Sequence:
#
# PCOD9303682 Si02
#       4
#     8   8   8   8
#     4   9  19  35  57  82 104 136 185 224 257 314
#     4  11  23  35  51  82 116 141 171 216 271 323
#     4   9  18  36  60  80 100 137 186 223 256 309
#     4   9  18  36  59  77 102 141 181 223 265 307
#
# _framework density 19.170755
#
# number of rings (size 3 to 8) (size 9 to 14) (size 15 to 20)
#    0.000    2.500    0.000    4.500    0.000    6.000 
#    0.000    3.750    0.000    0.000    0.000    0.000 
#    0.000    0.000    0.000    0.000    0.000    0.000 
#
# Total GULP energy -89192.199239 kJ/mol
# GULP energy per Si atom -5574.512452 kJ/mol
# Density = 1.912712 g / cm^3
# Si number density = 19.170755 Si / 1000 Ang^3
#
#
#
# Elastic Constant Matrix: (Units=GPa)
#
#
# Indices 1 2 3 4 5 6 
#
# 1 54.8644 26.2340 31.7949 0.0000 1.8764 0.0000
# 2 26.2340 90.3832 39.4538 0.0000 20.8109 0.0000
# 3 31.7949 39.4538 148.8977 0.0000 20.7150 0.0000
# 4 0.0000 0.0000 0.0000 16.0571 0.0000 10.9733
# 5 1.8764 20.8109 20.7150 0.0000 18.9156 0.0000
# 6 0.0000 0.0000 0.0000 10.9733 0.0000 47.0188
#
#
#
# Elastic Compliance Matrix: (Units=1/GPa)
#
#
# Indices 1 2 3 4 5 6 
#
# 1 0.024158 -0.007491 -0.004704 0.000000 0.010996 0.000000
# 2 -0.007491 0.017640 -0.000564 0.000000 -0.018047 0.000000
# 3 -0.004704 -0.000564 0.009106 0.000000 -0.008885 0.000000
# 4 0.000000 0.000000 0.000000 0.074095 0.000000 -0.017292
# 5 0.010996 -0.018047 -0.008885 0.000000 0.081361 0.000000
# 6 0.000000 0.000000 0.000000 -0.017292 0.000000 0.025304
#
#
# Mechanical properties :
#
#
# Convention : Reuss Voigt Hill
#
# Bulk Modulus (GPa) = 39.38911 54.34564 46.86737
# Shear Modulus (GPa) = 18.82231 29.50914 24.16572
#
# Velocity S-wave (km/s) = 3.13681 3.92762 3.55428
# Velocity P-wave (km/s) = 5.80607 6.99843 6.42995
#
# Compressibility (1/GPa) = 0.02538773
#
# Stress axis : x y z
#
# Youngs Moduli (GPa) = 41.39386 56.69082 109.81851
#
# Poissons Ratio (x) = 0.42465 0.51654
# Poissons Ratio (y) = 0.31006 0.06192
# Poissons Ratio (z) = 0.19470 0.03196
#
# Static dielectric constant tensor:
#      x y z
#    x 1.713230 0.000000 0.009810 
#    y 0.000000 1.732340 0.000000 
#    z 0.009810 0.000000 1.621420 
# 
# From -- ./inp_files/131773.got.cif
#   From: 2010.05.17/outbox.cif.g08.bks.cpg/sg15_66_cif.got.tgz:131773.got - 2010.06.03 18:47:42.
