data_PCOD9303861
_publ_section_title
;
Structure prediction by ZEFSAII (Michael W. Deem and Ramdas Pophale) SiO2 
 PCOD9303861
Probable space group: C 2/C
;
_chemical_formula_sum "Si O2"
_cell_formula_units_Z 40
_cell_length_a 24.684707
_cell_length_b 7.353865
_cell_length_c 9.011197
_cell_angle_alpha 90.000000
_cell_angle_beta 83.693542
_cell_angle_gamma 90.000000
_cell_volume 1625.885776
_symmetry_space_group_name_H-M "C 2/C"
_symmetry_group_IT_number 15
_symmetry_cell_setting 'monoclinic'
loop_
_space_group_symop_operation_xyz
x,y,z
-x,y,1/2-z
-x,-y,-z
x,-y,1/2+z
1/2+x,1/2+y,z
1/2-x,1/2+y,1/2-z
1/2-x,1/2-y,-z
1/2+x,1/2-y,1/2+z
loop_
_atom_site_type_symbol
_atom_site_label
_atom_site_fract_x
_atom_site_fract_y
_atom_site_fract_z
Si Si1 0.447667 0.885761 0.165982
Si Si2 0.798617 0.155498 0.620630
Si Si3 0.868655 0.915091 0.817827
Si Si4 0.411761 0.803409 0.870448
Si Si5 0.289521 0.110522 0.400862
O O1 0.500000 0.843204 0.250000
O O2 0.401373 0.743238 0.229435
O O3 0.427994 0.086188 0.219169
O O4 0.452795 0.856818 0.989125
O O5 0.841809 0.155909 0.476347
O O6 0.793883 0.328237 0.727755
O O7 0.822314 0.999215 0.725382
O O8 0.740348 0.081582 0.584214
O O9 0.906497 0.089392 0.844248
O O10 0.351267 0.871588 0.937515
O O11 0.250000 0.250000 0.500000
#
# Coordination Sequence:
#
# PCOD9303861 Si02
#       5
#     8   8   8   8   8
#     4  12  28  48  74 101 133 186 238 292 355 401
#     4  11  23  41  66 103 137 185 222 278 341 414
#     4  11  24  47  69 100 146 176 235 283 343 413
#     4  11  27  45  70 104 142 177 233 289 342 412
#     4  11  23  40  66  99 140 177 224 270 339 412
#
# _framework density 24.601973000000001
#
# number of rings (size 3 to 8) (size 9 to 14) (size 15 to 20)
#    0.000    0.800    6.000    0.600   11.200    2.400 
#    0.000    0.000    0.000    0.000    0.000    0.000 
#    0.000    0.000    0.000    0.000    0.000    0.000 
#
# Total GULP energy -112180.490762 kJ/mol
# GULP energy per Si atom -5609.024538 kJ/mol
# Density = 2.454598 g / cm^3
# Si number density = 24.601973 Si / 1000 Ang^3
#
#
#
# Elastic Constant Matrix: (Units=GPa)
#
#
# Indices 1 2 3 4 5 6 
#
# 1 73.5242 -1.5687 -1.5933 0.0000 17.6578 0.0000
# 2 -1.5687 112.3860 26.1657 0.0000 -7.4820 0.0000
# 3 -1.5933 26.1657 97.2644 0.0000 4.3293 0.0000
# 4 0.0000 0.0000 0.0000 38.0897 0.0000 1.0450
# 5 17.6578 -7.4820 4.3293 0.0000 39.8992 0.0000
# 6 0.0000 0.0000 0.0000 1.0450 0.0000 33.1158
#
#
#
# Elastic Compliance Matrix: (Units=1/GPa)
#
#
# Indices 1 2 3 4 5 6 
#
# 1 0.015265 -0.000401 0.000665 0.000000 -0.006903 0.000000
# 2 -0.000401 0.009676 -0.002711 0.000000 0.002286 0.000000
# 3 0.000665 -0.002711 0.011111 0.000000 -0.002008 0.000000
# 4 0.000000 0.000000 0.000000 0.026277 0.000000 -0.000829
# 5 -0.006903 0.002286 -0.002008 0.000000 0.028765 0.000000
# 6 0.000000 0.000000 0.000000 -0.000829 0.000000 0.030223
#
#
# Mechanical properties :
#
#
# Convention : Reuss Voigt Hill
#
# Bulk Modulus (GPa) = 32.09594 36.57577 34.33586
# Shear Modulus (GPa) = 36.60423 39.56566 38.08495
#
# Velocity S-wave (km/s) = 3.86146 4.01463 3.93879
# Velocity P-wave (km/s) = 5.74069 6.03232 5.88831
#
# Compressibility (1/GPa) = 0.03115659
#
# Stress axis : x y z
#
# Youngs Moduli (GPa) = 65.51082 103.35119 90.00152
#
# Poissons Ratio (x) = 0.04148 -0.05988
# Poissons Ratio (y) = 0.02629 0.24402
# Poissons Ratio (z) = -0.04358 0.28021
#
# Static dielectric constant tensor:
#      x y z
#    x 1.957160 0.000000 0.044850 
#    y 0.000000 1.933780 0.000000 
#    z 0.044850 0.000000 1.921210 
# 
# From -- ./inp_files/59911.got.cif
#   From: 2010.05.17/outbox.cif.g08.bks.cpg/sg15_30_cif.got.tgz:59911.got - 2010.06.03 18:47:42.
