data_PCOD9303764
_publ_section_title
;
Structure prediction by ZEFSAII (Michael W. Deem and Ramdas Pophale) SiO2 
 PCOD9303764
Probable space group: C 2/C
;
_chemical_formula_sum "Si O2"
_cell_formula_units_Z 32
_cell_length_a 14.563032
_cell_length_b 9.557774
_cell_length_c 22.092200
_cell_angle_alpha 90.000000
_cell_angle_beta 153.217989
_cell_angle_gamma 90.000000
_cell_volume 1385.594302
_symmetry_space_group_name_H-M "C 2/C"
_symmetry_group_IT_number 15
_symmetry_cell_setting 'monoclinic'
loop_
_space_group_symop_operation_xyz
x,y,z
-x,y,1/2-z
-x,-y,-z
x,-y,1/2+z
1/2+x,1/2+y,z
1/2-x,1/2+y,1/2-z
1/2-x,1/2-y,-z
1/2+x,1/2-y,1/2+z
loop_
_atom_site_type_symbol
_atom_site_label
_atom_site_fract_x
_atom_site_fract_y
_atom_site_fract_z
Si Si1 0.423801 0.941665 0.856514
Si Si2 0.902718 0.196618 0.486412
Si Si3 0.208326 0.422459 0.346470
Si Si4 0.714810 0.479227 0.348726
O O1 0.503447 0.781998 0.901949
O O2 0.355940 0.006600 0.754697
O O3 0.246753 0.952238 0.802439
O O4 0.607431 0.022817 0.999180
O O5 0.090974 0.165578 0.551785
O O6 0.754850 0.311736 0.369531
O O7 0.787714 0.053554 0.433321
O O8 0.000000 0.358003 0.250000
O O9 0.500000 0.509742 0.250000
#
# Coordination Sequence:
#
# PCOD9303764 Si02
#       4
#     8   8   8   8
#     4   9  22  38  62  90 119 160 203 246 295 366
#     4   9  22  40  57  90 122 153 210 243 292 365
#     4  11  23  39  60  92 126 157 198 250 308 346
#     4   9  19  39  64  90 115 159 206 242 298 354
#
# _framework density 23.094784000000001
#
# number of rings (size 3 to 8) (size 9 to 14) (size 15 to 20)
#    1.500    1.000    0.000    0.750    3.500    6.000 
#    0.000    1.250    0.000    0.000    0.000    0.000 
#    0.000    0.000    0.000    0.000    0.000    0.000 
#
# Total GULP energy -89238.670197 kJ/mol
# GULP energy per Si atom -5577.416887 kJ/mol
# Density = 2.304222 g / cm^3
# Si number density = 23.094784 Si / 1000 Ang^3
#
#
#
# Elastic Constant Matrix: (Units=GPa)
#
#
# Indices 1 2 3 4 5 6 
#
# 1 70.2218 -3.3657 60.7976 0.0001 15.2944 -0.0001
# 2 -3.3657 60.0448 2.9148 -0.0005 -8.0327 0.0000
# 3 60.7976 2.9148 67.6829 0.0001 23.4945 -0.0001
# 4 0.0001 -0.0005 0.0001 16.5104 0.0001 4.2954
# 5 15.2944 -8.0327 23.4945 0.0001 50.5342 -0.0001
# 6 -0.0001 0.0000 -0.0001 4.2954 -0.0001 10.0498
#
#
#
# Elastic Compliance Matrix: (Units=1/GPa)
#
#
# Indices 1 2 3 4 5 6 
#
# 1 0.071877 0.008954 -0.069035 0.000000 0.011765 0.000000
# 2 0.008954 0.018360 -0.010620 0.000000 0.005146 0.000000
# 3 -0.069035 -0.010620 0.084160 0.000000 -0.019922 0.000000
# 4 0.000000 0.000000 0.000000 0.068146 0.000000 -0.029126
# 5 0.011765 0.005146 -0.019922 0.000000 0.026308 0.000000
# 6 0.000000 0.000000 0.000000 -0.029126 0.000000 0.111953
#
#
# Mechanical properties :
#
#
# Convention : Reuss Voigt Hill
#
# Bulk Modulus (GPa) = 30.30759 35.40478 32.85618
# Shear Modulus (GPa) = 9.37726 24.59240 16.98483
#
# Velocity S-wave (km/s) = 2.01721 3.26674 2.71484
# Velocity P-wave (km/s) = 4.31012 5.43988 4.90762
#
# Compressibility (1/GPa) = 0.03299504
#
# Stress axis : x y z
#
# Youngs Moduli (GPa) = 13.91259 54.46596 11.88216
#
# Poissons Ratio (x) = -0.48769 0.82028
# Poissons Ratio (y) = -0.12457 0.12619
# Poissons Ratio (z) = 0.96046 0.57844
#
# Static dielectric constant tensor:
#      x y z
#    x 1.835060 0.000000 0.010590 
#    y 0.000000 1.929220 0.000000 
#    z 0.010590 0.000000 1.897050 
# 
# From -- ./inp_files/237855.got.cif
#   From: 2010.05.17/outbox.cif.g08.bks.cpg/sg15_119_cif.got.tgz:237855.got - 2010.06.03 18:47:42.
