data_PCOD9303572
_publ_section_title
;
Structure prediction by ZEFSAII (Michael W. Deem and Ramdas Pophale) SiO2 
 PCOD9303572
Probable space group: C 2/C
;
_chemical_formula_sum "Si O2"
_cell_formula_units_Z 64
_cell_length_a 18.541685
_cell_length_b 8.354524
_cell_length_c 28.715319
_cell_angle_alpha 90.000000
_cell_angle_beta 39.769248
_cell_angle_gamma 90.000000
_cell_volume 2845.502946
_symmetry_space_group_name_H-M "C 2/C"
_symmetry_group_IT_number 15
_symmetry_cell_setting 'monoclinic'
loop_
_space_group_symop_operation_xyz
x,y,z
-x,y,1/2-z
-x,-y,-z
x,-y,1/2+z
1/2+x,1/2+y,z
1/2-x,1/2+y,1/2-z
1/2-x,1/2-y,-z
1/2+x,1/2-y,1/2+z
loop_
_atom_site_type_symbol
_atom_site_label
_atom_site_fract_x
_atom_site_fract_y
_atom_site_fract_z
Si Si1 0.726469 0.371402 0.232401
Si Si2 0.580577 0.686706 0.971425
Si Si3 0.862302 0.677366 0.142147
Si Si4 0.001237 0.974220 0.698521
Si Si5 0.882451 0.774534 0.942855
Si Si6 0.838010 0.856381 0.606024
Si Si7 0.601831 0.089988 0.053888
Si Si8 0.688718 0.732581 0.601160
O O1 0.816125 0.511654 0.184254
O O2 0.698810 0.315178 0.298066
O O3 0.615340 0.446045 0.262080
O O4 0.780792 0.216635 0.179967
O O5 0.650772 0.816894 0.907349
O O6 0.607877 0.532432 0.925692
O O7 0.608915 0.645001 0.010489
O O8 0.451069 0.743111 0.037887
O O9 0.994270 0.686927 0.089198
O O10 0.053803 0.868481 0.630022
O O11 0.000000 0.887638 0.750000
O O12 0.088075 0.117789 0.665276
O O13 0.928828 0.595534 0.926711
O O14 0.750000 0.750000 0.000000
O O15 0.742289 0.837455 0.614969
O O16 0.641752 0.156775 0.083580
O O17 0.709679 0.121578 0.968052
#
# Coordination Sequence:
#
# PCOD9303572 Si02
#       8
#     8   8   8   8   8   8   8   8
#     4  12  28  46  71 103 153 190 239 296 367 451
#     4  11  27  44  75 105 142 189 242 306 355 421
#     4  12  27  46  70 105 143 196 240 299 367 431
#     4  12  27  49  72 101 147 194 236 299 375 443
#     4  12  27  46  72 109 142 186 244 306 362 426
#     4  11  24  45  70 106 142 185 237 299 354 436
#     4  11  24  43  75 104 138 183 246 304 345 435
#     4  11  22  45  74 103 134 189 243 294 360 428
#
# _framework density 22.491631000000002
#
# number of rings (size 3 to 8) (size 9 to 14) (size 15 to 20)
#    0.000    0.500    5.000    2.250   12.250    1.000 
#    0.000    0.625    0.000    0.000    0.000    0.000 
#    0.000    0.000    0.000    0.000    0.000    0.000 
#
# Total GULP energy -178776.992489 kJ/mol
# GULP energy per Si atom -5586.781015 kJ/mol
# Density = 2.244044 g / cm^3
# Si number density = 22.491631 Si / 1000 Ang^3
#
#
#
# Elastic Constant Matrix: (Units=GPa)
#
#
# Indices 1 2 3 4 5 6 
#
# 1 77.0769 -7.1589 48.8116 0.0004 14.1352 0.0011
# 2 -7.1589 57.7008 33.5170 0.0004 10.9389 0.0013
# 3 48.8116 33.5170 144.0511 0.0003 19.3737 -0.0007
# 4 0.0004 0.0004 0.0003 38.5006 -0.0001 -9.4163
# 5 14.1352 10.9389 19.3737 -0.0001 47.1191 0.0004
# 6 0.0011 0.0013 -0.0007 -9.4163 0.0004 5.5095
#
#
#
# Elastic Compliance Matrix: (Units=1/GPa)
#
#
# Indices 1 2 3 4 5 6 
#
# 1 0.019456 0.007791 -0.007809 -0.000003 -0.004435 -0.000012
# 2 0.007791 0.023539 -0.007481 -0.000004 -0.004726 -0.000014
# 3 -0.007809 -0.007481 0.011411 0.000002 -0.000612 0.000009
# 4 -0.000003 -0.000004 0.000002 0.044628 0.000000 0.076274
# 5 -0.004435 -0.004726 -0.000612 0.000000 0.023902 0.000000
# 6 -0.000012 -0.000014 0.000009 0.076274 0.000000 0.311862
#
#
# Mechanical properties :
#
#
# Convention : Reuss Voigt Hill
#
# Bulk Modulus (GPa) = 25.37607 47.68536 36.53071
# Shear Modulus (GPa) = 10.80068 31.80312 21.30190
#
# Velocity S-wave (km/s) = 2.19374 3.76440 3.08084
# Velocity P-wave (km/s) = 4.20994 6.33574 5.37891
#
# Compressibility (1/GPa) = 0.03940721
#
# Stress axis : x y z
#
# Youngs Moduli (GPa) = 51.39740 42.48285 87.63388
#
# Poissons Ratio (x) = -0.33097 0.68433
# Poissons Ratio (y) = -0.40042 0.65561
# Poissons Ratio (z) = 0.40136 0.31782
#
# Static dielectric constant tensor:
#      x y z
#    x 1.836160 0.000000 0.033860 
#    y 0.000000 1.871700 0.000000 
#    z 0.033860 0.000000 1.851010 
# 
# From -- ./inp_files/315694.got.cif
#   From: 2010.05.17/outbox.cif.g08.bks.cpg/sg15_158_cif.got.tgz:315694.got - 2010.06.03 18:47:42.
