data_PCOD9303105
_publ_section_title
;
Structure prediction by ZEFSAII (Michael W. Deem and Ramdas Pophale) SiO2 
 PCOD9303105
Probable space group: C 2/C
;
_chemical_formula_sum "Si O2"
_cell_formula_units_Z 52
_cell_length_a 19.197174
_cell_length_b 14.126728
_cell_length_c 16.456156
_cell_angle_alpha 90.000000
_cell_angle_beta 33.784714
_cell_angle_gamma 90.000000
_cell_volume 2481.645761
_symmetry_space_group_name_H-M "C 2/C"
_symmetry_group_IT_number 15
_symmetry_cell_setting 'monoclinic'
loop_
_space_group_symop_operation_xyz
x,y,z
-x,y,1/2-z
-x,-y,-z
x,-y,1/2+z
1/2+x,1/2+y,z
1/2-x,1/2+y,1/2-z
1/2-x,1/2-y,-z
1/2+x,1/2-y,1/2+z
loop_
_atom_site_type_symbol
_atom_site_label
_atom_site_fract_x
_atom_site_fract_y
_atom_site_fract_z
Si Si1 0.500000 0.190821 0.250000
Si Si2 0.396498 0.568293 0.643324
Si Si3 0.042223 0.374143 0.294648
Si Si4 0.321416 0.928219 0.619725
Si Si5 0.211844 0.721998 0.757432
Si Si6 0.107485 0.186285 0.518343
Si Si7 0.844983 0.557639 0.284394
O O1 0.400495 0.257446 0.390777
O O2 0.438255 0.128124 0.239731
O O3 0.500000 0.500000 0.500000
O O4 0.293899 0.499332 0.783366
O O5 0.313867 0.637979 0.666090
O O6 0.474461 0.639011 0.625107
O O7 0.103387 0.303561 0.299306
O O8 0.143501 0.456973 0.183624
O O9 0.000000 0.332311 0.250000
O O10 0.927257 0.428356 0.449252
O O11 0.274547 0.820188 0.670570
O O12 0.371057 0.951515 0.662589
O O13 0.150229 0.743108 0.904858
O O14 0.208403 0.102978 0.422507
#
# Coordination Sequence:
#
# PCOD9303105 Si02
#       7
#     4   8   8   8   8   8   8
#     4  12  24  38  66 100 144 164 218 270 342 398
#     4  12  22  43  70  99 131 171 230 272 327 396
#     4  12  25  42  65  95 131 170 219 271 330 392
#     4  11  25  42  72  97 126 179 224 276 328 395
#     4  11  23  43  71  94 131 171 233 272 331 396
#     4  11  24  42  66 102 130 180 213 278 329 396
#     4  11  22  42  64  93 133 168 214 262 332 396
#
# _framework density 20.953837
#
# number of rings (size 3 to 8) (size 9 to 14) (size 15 to 20)
#    0.000    0.615    5.385    4.615    2.154    1.846 
#    0.000    0.000    1.692    0.000    0.000    0.000 
#    0.000    0.000    0.000    0.000    0.000    0.000 
#
# Total GULP energy -145351.289031 kJ/mol
# GULP energy per Si atom -5590.434194 kJ/mol
# Density = 2.090615 g / cm^3
# Si number density = 20.953837 Si / 1000 Ang^3
#
#
#
# Elastic Constant Matrix: (Units=GPa)
#
#
# Indices 1 2 3 4 5 6 
#
# 1 78.7170 14.7679 43.8824 0.0000 -13.3533 0.0000
# 2 14.7679 80.0045 14.8577 0.0000 -7.5001 0.0000
# 3 43.8824 14.8577 57.8569 0.0000 -5.1429 0.0000
# 4 0.0000 0.0000 0.0000 15.3024 0.0000 -3.5072
# 5 -13.3533 -7.5001 -5.1429 0.0000 26.8202 0.0000
# 6 0.0000 0.0000 0.0000 -3.5072 0.0000 11.3451
#
#
#
# Elastic Compliance Matrix: (Units=1/GPa)
#
#
# Indices 1 2 3 4 5 6 
#
# 1 0.023797 -0.000409 -0.017194 0.000000 0.008437 0.000000
# 2 -0.000409 0.013387 -0.002862 0.000000 0.002991 0.000000
# 3 -0.017194 -0.002862 0.030752 0.000000 -0.003464 0.000000
# 4 0.000000 0.000000 0.000000 0.070333 0.000000 0.021742
# 5 0.008437 0.002991 -0.003464 0.000000 0.041658 0.000000
# 6 0.000000 0.000000 0.000000 0.021742 0.000000 0.094865
#
#
# Mechanical properties :
#
#
# Convention : Reuss Voigt Hill
#
# Bulk Modulus (GPa) = 37.02838 40.39938 38.71388
# Shear Modulus (GPa) = 15.39774 20.23156 17.81465
#
# Velocity S-wave (km/s) = 2.71374 3.11067 2.91896
# Velocity P-wave (km/s) = 5.24680 5.67659 5.46592
#
# Compressibility (1/GPa) = 0.02700631
#
# Stress axis : x y z
#
# Youngs Moduli (GPa) = 42.02249 74.70148 32.51798
#
# Poissons Ratio (x) = 0.03052 0.55912
# Poissons Ratio (y) = 0.01717 0.09306
# Poissons Ratio (z) = 0.72254 0.21379
#
# Static dielectric constant tensor:
#      x y z
#    x 1.765340 0.000000 -0.013350 
#    y 0.000000 1.753320 0.000000 
#    z -0.013350 0.000000 1.760670 
# 
# From -- ./inp_files/162467.got.cif
#   From: 2010.05.17/outbox.cif.g08.bks.cpg/sg15_82_cif.got.tgz:162467.got - 2010.06.03 18:47:42.
