data_PCOD9303365
_publ_section_title
;
Structure prediction by ZEFSAII (Michael W. Deem and Ramdas Pophale) SiO2 
 PCOD9303365
Probable space group: C 2/C
;
_chemical_formula_sum "Si O2"
_cell_formula_units_Z 48
_cell_length_a 11.401956
_cell_length_b 10.259206
_cell_length_c 17.247857
_cell_angle_alpha 90.000000
_cell_angle_beta 97.737295
_cell_angle_gamma 90.000000
_cell_volume 1999.199943
_symmetry_space_group_name_H-M "C 2/C"
_symmetry_group_IT_number 15
_symmetry_cell_setting 'monoclinic'
loop_
_space_group_symop_operation_xyz
x,y,z
-x,y,1/2-z
-x,-y,-z
x,-y,1/2+z
1/2+x,1/2+y,z
1/2-x,1/2+y,1/2-z
1/2-x,1/2-y,-z
1/2+x,1/2-y,1/2+z
loop_
_atom_site_type_symbol
_atom_site_label
_atom_site_fract_x
_atom_site_fract_y
_atom_site_fract_z
Si Si1 0.091303 0.004286 0.327759
Si Si2 0.028553 0.658403 0.164341
Si Si3 0.591305 0.391302 0.074596
Si Si4 0.674543 0.971507 0.944983
Si Si5 0.553802 0.747413 0.407549
Si Si6 0.164514 0.595965 0.627384
O O1 0.116342 0.155720 0.349804
O O2 0.000000 0.997461 0.250000
O O3 0.204932 0.914420 0.326617
O O4 0.023667 0.955135 0.398180
O O5 0.905718 0.635749 0.105617
O O6 0.000000 0.688050 0.250000
O O7 0.109821 0.769193 0.133615
O O8 0.095117 0.521481 0.162533
O O9 0.695081 0.497104 0.075476
O O10 0.567781 0.323603 0.990729
O O11 0.610975 0.111041 0.926039
O O12 0.675237 0.937019 0.036231
O O13 0.417446 0.776972 0.372979
#
# Coordination Sequence:
#
# PCOD9303365 Si02
#       6
#     8   8   8   8   8   8
#     4  12  29  45  60 102 150 181 228 292 356 416
#     4  11  24  43  69 103 136 179 233 289 352 412
#     4  12  23  43  69 100 137 182 228 286 349 416
#     4  11  22  43  75 102 133 178 238 291 338 418
#     4  11  22  44  73 100 129 184 239 281 346 420
#     4  11  23  46  73  98 137 180 237 290 344 420
#
# _framework density 24.009602999999998
#
# number of rings (size 3 to 8) (size 9 to 14) (size 15 to 20)
#    0.000    0.667    5.000    3.500    2.333    4.667 
#    3.000    0.000    0.000    0.000    0.000    0.000 
#    0.000    0.000    0.000    0.000    0.000    0.000 
#
# Total GULP energy -134346.508329 kJ/mol
# GULP energy per Si atom -5597.771180 kJ/mol
# Density = 2.395496 g / cm^3
# Si number density = 24.009603 Si / 1000 Ang^3
#
#
#
# Elastic Constant Matrix: (Units=GPa)
#
#
# Indices 1 2 3 4 5 6 
#
# 1 105.5263 9.2499 6.8942 0.0000 13.3836 0.0000
# 2 9.2499 67.2890 8.6778 0.0000 -2.6454 0.0000
# 3 6.8942 8.6778 97.2234 0.0000 13.0562 0.0000
# 4 0.0000 0.0000 0.0000 142.7322 0.0000 17.7773
# 5 13.3836 -2.6454 13.0562 0.0000 26.1466 0.0000
# 6 0.0000 0.0000 0.0000 17.7773 0.0000 25.7566
#
#
#
# Elastic Compliance Matrix: (Units=1/GPa)
#
#
# Indices 1 2 3 4 5 6 
#
# 1 0.010312 -0.001655 0.000158 0.000000 -0.005525 0.000000
# 2 -0.001655 0.015436 -0.001698 0.000000 0.003257 0.000000
# 3 0.000158 -0.001698 0.011212 0.000000 -0.005851 0.000000
# 4 0.000000 0.000000 0.000000 0.007665 0.000000 -0.005290
# 5 -0.005525 0.003257 -0.005851 0.000000 0.044325 0.000000
# 6 0.000000 0.000000 0.000000 -0.005290 0.000000 0.042477
#
#
# Mechanical properties :
#
#
# Convention : Reuss Voigt Hill
#
# Bulk Modulus (GPa) = 32.71144 35.52030 34.11587
# Shear Modulus (GPa) = 33.78267 55.27487 44.52877
#
# Velocity S-wave (km/s) = 3.75513 4.80333 4.31121
# Velocity P-wave (km/s) = 5.69695 6.75196 6.24677
#
# Compressibility (1/GPa) = 0.03057035
#
# Stress axis : x y z
#
# Youngs Moduli (GPa) = 96.97689 64.78458 89.19280
#
# Poissons Ratio (x) = 0.10723 -0.01413
# Poissons Ratio (y) = 0.16051 0.15142
# Poissons Ratio (z) = -0.01537 0.10999
#
# Static dielectric constant tensor:
#      x y z
#    x 1.968830 0.000000 0.050650 
#    y 0.000000 2.025930 0.000000 
#    z 0.050650 0.000000 1.895200 
# 
# From -- ./inp_files/196570.got.cif
#   From: 2010.05.17/outbox.cif.g08.bks.cpg/sg15_99_cif.got.tgz:196570.got - 2010.06.03 18:47:42.
