data_PCOD9303790
_publ_section_title
;
Structure prediction by ZEFSAII (Michael W. Deem and Ramdas Pophale) SiO2 
 PCOD9303790
Probable space group: C 2/C
;
_chemical_formula_sum "Si O2"
_cell_formula_units_Z 32
_cell_length_a 6.744181
_cell_length_b 26.238742
_cell_length_c 9.998400
_cell_angle_alpha 90.000000
_cell_angle_beta 107.403375
_cell_angle_gamma 90.000000
_cell_volume 1688.311128
_symmetry_space_group_name_H-M "C 2/C"
_symmetry_group_IT_number 15
_symmetry_cell_setting 'monoclinic'
loop_
_space_group_symop_operation_xyz
x,y,z
-x,y,1/2-z
-x,-y,-z
x,-y,1/2+z
1/2+x,1/2+y,z
1/2-x,1/2+y,1/2-z
1/2-x,1/2-y,-z
1/2+x,1/2-y,1/2+z
loop_
_atom_site_type_symbol
_atom_site_label
_atom_site_fract_x
_atom_site_fract_y
_atom_site_fract_z
Si Si1 0.323955 0.012171 0.127949
Si Si2 0.485043 0.739855 0.591567
Si Si3 0.771428 0.440440 0.882864
Si Si4 0.672245 0.322852 0.896139
O O1 0.500000 0.981123 0.250000
O O2 0.475831 0.052615 0.084045
O O3 0.199128 0.040145 0.220813
O O4 0.219640 0.977295 0.996540
O O5 0.500000 0.726833 0.750000
O O6 0.250000 0.750000 0.500000
O O7 0.584007 0.696042 0.519541
O O8 0.621900 0.790524 0.593783
O O9 0.713693 0.382779 0.897698
O O10 0.500000 0.309640 0.750000
#
# Coordination Sequence:
#
# PCOD9303790 Si02
#       4
#     8   8   8   8
#     4   7  14  30  53  81 119 159 197 250 303 352
#     4  11  24  44  63  91 127 161 210 271 319 380
#     4   8  16  32  54  85 117 162 202 246 310 363
#     4  11  23  39  65  92 121 167 214 256 323 382
#
# _framework density 18.953852999999999
#
# number of rings (size 3 to 8) (size 9 to 14) (size 15 to 20)
#    1.500    1.000    2.500    0.000    3.500    0.000 
#    4.500    3.750    0.000    0.000    0.000    0.000 
#    0.000    0.000    0.000    0.000    0.000    0.000 
#
# Total GULP energy -89082.493976 kJ/mol
# GULP energy per Si atom -5567.655873 kJ/mol
# Density = 1.891071 g / cm^3
# Si number density = 18.953853 Si / 1000 Ang^3
#
#
#
# Elastic Constant Matrix: (Units=GPa)
#
#
# Indices 1 2 3 4 5 6 
#
# 1 112.0849 68.3574 76.2585 0.0000 -7.9889 0.0000
# 2 68.3574 132.6086 86.1212 0.0000 -19.2066 0.0000
# 3 76.2585 86.1212 162.9364 0.0000 -24.0571 0.0000
# 4 0.0000 0.0000 0.0000 21.7662 0.0000 8.9226
# 5 -7.9889 -19.2066 -24.0571 0.0000 49.2492 0.0000
# 6 0.0000 0.0000 0.0000 8.9226 0.0000 12.0816
#
#
#
# Elastic Compliance Matrix: (Units=1/GPa)
#
#
# Indices 1 2 3 4 5 6 
#
# 1 0.014987 -0.004960 -0.004655 0.000000 -0.001777 0.000000
# 2 -0.004960 0.013247 -0.004350 0.000000 0.002237 0.000000
# 3 -0.004655 -0.004350 0.011050 0.000000 0.002946 0.000000
# 4 0.000000 0.000000 0.000000 0.065891 0.000000 -0.048662
# 5 -0.001777 0.002237 0.002946 0.000000 0.022328 0.000000
# 6 0.000000 0.000000 0.000000 -0.048662 0.000000 0.118709
#
#
# Mechanical properties :
#
#
# Convention : Reuss Voigt Hill
#
# Bulk Modulus (GPa) = 88.07392 96.56712 92.32052
# Shear Modulus (GPa) = 17.99032 28.41225 23.20128
#
# Velocity S-wave (km/s) = 3.08419 3.87592 3.50250
# Velocity P-wave (km/s) = 7.69749 8.43146 8.07282
#
# Compressibility (1/GPa) = 0.01135410
#
# Stress axis : x y z
#
# Youngs Moduli (GPa) = 66.72349 75.49030 90.49376
#
# Poissons Ratio (x) = 0.37441 0.42128
# Poissons Ratio (y) = 0.33093 0.39366
# Poissons Ratio (z) = 0.31062 0.32840
#
# Static dielectric constant tensor:
#      x y z
#    x 1.710350 0.000000 -0.008830 
#    y 0.000000 1.597210 0.000000 
#    z -0.008830 0.000000 1.658320 
# 
# From -- ./inp_files/20242.got.cif
#   From: 2010.05.17/outbox.cif.g08.bks.cpg/sg15_11_cif.got.tgz:20242.got - 2010.06.03 18:47:42.
