data_PCOD9303481
_publ_section_title
;
Structure prediction by ZEFSAII (Michael W. Deem and Ramdas Pophale) SiO2 
 PCOD9303481
Probable space group: C 2/C
;
_chemical_formula_sum "Si O2"
_cell_formula_units_Z 40
_cell_length_a 9.126293
_cell_length_b 10.889050
_cell_length_c 17.281573
_cell_angle_alpha 90.000000
_cell_angle_beta 98.913474
_cell_angle_gamma 90.000000
_cell_volume 1696.644942
_symmetry_space_group_name_H-M "C 2/C"
_symmetry_group_IT_number 15
_symmetry_cell_setting 'monoclinic'
loop_
_space_group_symop_operation_xyz
x,y,z
-x,y,1/2-z
-x,-y,-z
x,-y,1/2+z
1/2+x,1/2+y,z
1/2-x,1/2+y,1/2-z
1/2-x,1/2-y,-z
1/2+x,1/2-y,1/2+z
loop_
_atom_site_type_symbol
_atom_site_label
_atom_site_fract_x
_atom_site_fract_y
_atom_site_fract_z
Si Si1 0.695701 0.801920 0.092154
Si Si2 0.659679 0.006951 0.973779
Si Si3 0.064285 0.892746 0.947636
Si Si4 0.146134 0.408249 0.812611
Si Si5 0.148888 0.017438 0.794541
O O1 0.545076 0.723898 0.068096
O O2 0.823861 0.711430 0.133063
O O3 0.712638 0.902105 0.162769
O O4 0.728210 0.882187 0.018405
O O5 0.645613 0.008789 0.880616
O O6 0.500000 0.000000 0.000000
O O7 0.767320 0.115834 0.008090
O O8 0.087848 0.943971 0.863270
O O9 0.000000 0.000000 0.000000
O O10 0.282412 0.432118 0.766184
O O11 0.000000 0.402358 0.750000
O O12 0.000000 0.083333 0.750000
#
# Coordination Sequence:
#
# PCOD9303481 Si02
#       5
#     8   8   8   8   8
#     4  11  24  44  77  99 139 199 241 288 382 427
#     4  11  25  47  72 105 143 188 246 301 360 445
#     4  11  22  44  74 102 141 185 247 297 355 447
#     4  12  24  46  68 106 147 184 241 305 364 438
#     4  11  23  44  70 107 150 189 242 309 363 435
#
# _framework density 23.575941
#
# number of rings (size 3 to 8) (size 9 to 14) (size 15 to 20)
#    0.000    0.800    4.000    3.600    2.800    0.800 
#   14.400    0.000    0.000    0.000    0.000    0.000 
#    0.000    0.000    0.000    0.000    0.000    0.000 
#
# Total GULP energy -111542.294534 kJ/mol
# GULP energy per Si atom -5577.114727 kJ/mol
# Density = 2.352228 g / cm^3
# Si number density = 23.575941 Si / 1000 Ang^3
#
#
#
# Elastic Constant Matrix: (Units=GPa)
#
#
# Indices 1 2 3 4 5 6 
#
# 1 158.8568 50.2208 70.4063 0.0000 25.6409 0.0000
# 2 50.2208 96.1507 44.1123 0.0000 17.0310 0.0000
# 3 70.4063 44.1123 189.5150 0.0000 15.2710 0.0000
# 4 0.0000 0.0000 0.0000 15.1658 0.0000 7.8989
# 5 25.6409 17.0310 15.2710 0.0000 64.2038 0.0000
# 6 0.0000 0.0000 0.0000 7.8989 0.0000 29.6063
#
#
#
# Elastic Compliance Matrix: (Units=1/GPa)
#
#
# Indices 1 2 3 4 5 6 
#
# 1 0.008632 -0.003074 -0.002324 0.000000 -0.002079 0.000000
# 2 -0.003074 0.013143 -0.001769 0.000000 -0.001838 0.000000
# 3 -0.002324 -0.001769 0.006565 0.000000 -0.000164 0.000000
# 4 0.000000 0.000000 0.000000 0.076579 0.000000 -0.020431
# 5 -0.002079 -0.001838 -0.000164 0.000000 0.016932 0.000000
# 6 0.000000 0.000000 0.000000 -0.020431 0.000000 0.039228
#
#
# Mechanical properties :
#
#
# Convention : Reuss Voigt Hill
#
# Bulk Modulus (GPa) = 71.39749 86.00015 78.69882
# Shear Modulus (GPa) = 27.76495 40.44739 34.10617
#
# Velocity S-wave (km/s) = 3.43546 4.14650 3.80761
# Velocity P-wave (km/s) = 6.78869 7.71244 7.26526
#
# Compressibility (1/GPa) = 0.01400610
#
# Stress axis : x y z
#
# Youngs Moduli (GPa) = 115.84151 76.08453 152.32395
#
# Poissons Ratio (x) = 0.23392 0.35398
# Poissons Ratio (y) = 0.35614 0.26946
# Poissons Ratio (z) = 0.26920 0.13460
#
# Static dielectric constant tensor:
#      x y z
#    x 1.973000 0.000000 0.034420 
#    y 0.000000 1.817900 0.000000 
#    z 0.034420 0.000000 1.910920 
# 
# From -- ./inp_files/187969.got.cif
#   From: 2010.05.17/outbox.cif.g08.bks.cpg/sg15_94_cif.got.tgz:187969.got - 2010.06.03 18:47:42.
