data_PCOD9303437
_publ_section_title
;
Structure prediction by ZEFSAII (Michael W. Deem and Ramdas Pophale) SiO2 
 PCOD9303437
Probable space group: C 2/C
;
_chemical_formula_sum "Si O2"
_cell_formula_units_Z 56
_cell_length_a 11.780710
_cell_length_b 13.986318
_cell_length_c 29.480683
_cell_angle_alpha 90.000000
_cell_angle_beta 31.195609
_cell_angle_gamma 90.000000
_cell_volume 2515.995423
_symmetry_space_group_name_H-M "C 2/C"
_symmetry_group_IT_number 15
_symmetry_cell_setting 'monoclinic'
loop_
_space_group_symop_operation_xyz
x,y,z
-x,y,1/2-z
-x,-y,-z
x,-y,1/2+z
1/2+x,1/2+y,z
1/2-x,1/2+y,1/2-z
1/2-x,1/2-y,-z
1/2+x,1/2-y,1/2+z
loop_
_atom_site_type_symbol
_atom_site_label
_atom_site_fract_x
_atom_site_fract_y
_atom_site_fract_z
Si Si1 0.745429 0.491976 0.649604
Si Si2 0.146840 0.918572 0.086346
Si Si3 0.962611 0.295190 0.556458
Si Si4 0.757703 0.108963 0.668112
Si Si5 0.870838 0.513730 0.922368
Si Si6 0.812372 0.405727 0.850748
Si Si7 0.133340 0.794678 0.497038
O O1 0.500000 0.493214 0.750000
O O2 0.737379 0.531732 0.600992
O O3 0.845120 0.385298 0.619027
O O4 0.904016 0.545585 0.630459
O O5 0.883591 0.907913 0.173114
O O6 0.281711 0.819582 0.035807
O O7 0.225249 0.976681 0.014750
O O8 0.901755 0.194649 0.598961
O O9 0.858182 0.287425 0.542841
O O10 0.500000 0.134129 0.750000
O O11 0.775867 0.007443 0.637252
O O12 0.886460 0.433860 0.876952
O O13 0.760567 0.608691 0.939992
O O14 0.000000 0.379644 0.750000
O O15 0.618733 0.328944 0.914273
O O16 0.250000 0.750000 0.500000
#
# Coordination Sequence:
#
# PCOD9303437 Si02
#       7
#     8   8   8   8   8   8   8
#     4  11  26  43  68 101 140 181 225 284 356 400
#     4  11  23  44  70  97 137 179 230 278 339 420
#     4  11  23  42  65 101 132 179 234 277 332 415
#     4  11  23  40  69  99 137 172 228 282 343 393
#     4  11  22  44  70  95 133 186 231 270 337 426
#     4  11  25  43  70 102 139 180 231 283 348 403
#     4  12  23  41  69  99 135 177 229 285 342 410
#
# _framework density 22.257591000000001
#
# number of rings (size 3 to 8) (size 9 to 14) (size 15 to 20)
#    0.000    0.857    2.857    5.571    4.000    1.143 
#    0.000    4.286    0.000    0.000    0.000    0.000 
#    0.000    0.000    0.000    0.000    0.000    0.000 
#
# Total GULP energy -156261.447712 kJ/mol
# GULP energy per Si atom -5580.765990 kJ/mol
# Density = 2.220693 g / cm^3
# Si number density = 22.257591 Si / 1000 Ang^3
#
#
#
# Elastic Constant Matrix: (Units=GPa)
#
#
# Indices 1 2 3 4 5 6 
#
# 1 145.4479 -9.8295 48.3749 -0.0001 -18.4365 -0.0008
# 2 -9.8295 44.7277 8.3443 -0.0004 -4.9919 -0.0004
# 3 48.3749 8.3443 91.6310 -0.0007 -16.6789 -0.0022
# 4 -0.0001 -0.0004 -0.0007 18.3125 -0.0009 -5.5597
# 5 -18.4365 -4.9919 -16.6789 -0.0009 41.8164 0.0012
# 6 -0.0008 -0.0004 -0.0022 -5.5597 0.0012 41.5986
#
#
#
# Elastic Compliance Matrix: (Units=1/GPa)
#
#
# Indices 1 2 3 4 5 6 
#
# 1 0.008905 0.003080 -0.004529 0.000000 0.002487 0.000000
# 2 0.003080 0.023971 -0.003279 0.000001 0.002912 0.000000
# 3 -0.004529 -0.003279 0.014199 0.000001 0.003275 0.000001
# 4 0.000000 0.000001 0.000001 0.056917 0.000001 0.007607
# 5 0.002487 0.002912 0.003275 0.000001 0.026665 0.000000
# 6 0.000000 0.000000 0.000001 0.007607 0.000000 0.025056
#
#
# Mechanical properties :
#
#
# Convention : Reuss Voigt Hill
#
# Bulk Modulus (GPa) = 26.58249 41.73178 34.15714
# Shear Modulus (GPa) = 28.13596 36.00661 32.07128
#
# Velocity S-wave (km/s) = 3.55928 4.02646 3.80006
# Velocity P-wave (km/s) = 5.37219 6.35662 5.88502
#
# Compressibility (1/GPa) = 0.03761874
#
# Stress axis : x y z
#
# Youngs Moduli (GPa) = 112.29637 41.71727 70.42730
#
# Poissons Ratio (x) = -0.12847 0.31896
# Poissons Ratio (y) = -0.34582 0.23091
# Poissons Ratio (z) = 0.50858 0.13678
#
# Static dielectric constant tensor:
#      x y z
#    x 1.893720 0.000000 -0.008380 
#    y 0.000000 1.777990 0.000000 
#    z -0.008380 0.000000 1.877380 
# 
# From -- ./inp_files/311300.got.cif
#   From: 2010.05.17/outbox.cif.g08.bks.cpg/sg15_156_cif.got.tgz:311300.got - 2010.06.03 18:47:42.
