data_PCOD9303698
_publ_section_title
;
Structure prediction by ZEFSAII (Michael W. Deem and Ramdas Pophale) SiO2 
 PCOD9303698
Probable space group: C 2/C
;
_chemical_formula_sum "Si O2"
_cell_formula_units_Z 48
_cell_length_a 21.147867
_cell_length_b 12.423878
_cell_length_c 8.996216
_cell_angle_alpha 90.000000
_cell_angle_beta 99.234087
_cell_angle_gamma 90.000000
_cell_volume 2333.021835
_symmetry_space_group_name_H-M "C 2/C"
_symmetry_group_IT_number 15
_symmetry_cell_setting 'monoclinic'
loop_
_space_group_symop_operation_xyz
x,y,z
-x,y,1/2-z
-x,-y,-z
x,-y,1/2+z
1/2+x,1/2+y,z
1/2-x,1/2+y,1/2-z
1/2-x,1/2-y,-z
1/2+x,1/2-y,1/2+z
loop_
_atom_site_type_symbol
_atom_site_label
_atom_site_fract_x
_atom_site_fract_y
_atom_site_fract_z
Si Si1 0.842434 0.208437 0.780044
Si Si2 0.695026 0.086749 0.409687
Si Si3 0.837499 0.051120 0.517852
Si Si4 0.694142 0.862128 0.251481
Si Si5 0.873625 0.834665 0.617720
Si Si6 0.045279 0.015523 0.157703
O O1 0.837700 0.326538 0.709066
O O2 0.865293 0.128480 0.656693
O O3 0.769471 0.169313 0.784845
O O4 0.880935 0.203528 0.948970
O O5 0.772349 0.102336 0.434155
O O6 0.678021 0.108830 0.574853
O O7 0.682802 0.966565 0.348848
O O8 0.886777 0.022148 0.407009
O O9 0.823947 0.935423 0.588244
O O10 0.653969 0.762171 0.297102
O O11 0.935552 0.888021 0.717755
O O12 0.000000 0.943865 0.250000
O O13 0.000000 0.000000 0.000000
#
# Coordination Sequence:
#
# PCOD9303698 Si02
#       6
#     8   8   8   8   8   8
#     4  11  23  37  62  90 130 178 214 256 324 391
#     4  11  23  39  60  94 134 180 214 259 308 406
#     4  11  23  40  61  92 136 169 214 268 329 385
#     4  11  23  36  60  91 132 177 223 253 319 388
#     4  12  23  39  61  90 128 171 211 272 326 384
#     4  12  26  41  62  90 126 167 219 274 332 382
#
# _framework density 20.574175
#
# number of rings (size 3 to 8) (size 9 to 14) (size 15 to 20)
#    0.000    0.667    3.333    6.500    7.000    0.000 
#    0.000    0.000    0.000    0.000    0.000   10.500 
#    0.000    0.000    0.000    0.000    0.000    0.000 
#
# Total GULP energy -133687.907425 kJ/mol
# GULP energy per Si atom -5570.329476 kJ/mol
# Density = 2.052735 g / cm^3
# Si number density = 20.574175 Si / 1000 Ang^3
#
#
#
# Elastic Constant Matrix: (Units=GPa)
#
#
# Indices 1 2 3 4 5 6 
#
# 1 63.2531 29.4802 37.5069 0.0000 -5.5324 0.0000
# 2 29.4802 116.7319 47.9334 0.0000 -2.5113 0.0000
# 3 37.5069 47.9334 164.0953 0.0000 5.4452 0.0000
# 4 0.0000 0.0000 0.0000 47.8531 0.0000 -0.1363
# 5 -5.5324 -2.5113 5.4452 0.0000 35.5731 0.0000
# 6 0.0000 0.0000 0.0000 -0.1363 0.0000 22.3456
#
#
#
# Elastic Compliance Matrix: (Units=1/GPa)
#
#
# Indices 1 2 3 4 5 6 
#
# 1 0.019879 -0.003448 -0.003649 0.000000 0.003407 0.000000
# 2 -0.003448 0.010378 -0.002261 0.000000 0.000542 0.000000
# 3 -0.003649 -0.002261 0.007652 0.000000 -0.001898 0.000000
# 4 0.000000 0.000000 0.000000 0.020898 0.000000 0.000127
# 5 0.003407 0.000542 -0.001898 0.000000 0.028970 0.000000
# 6 0.000000 0.000000 0.000000 0.000127 0.000000 0.044752
#
#
# Mechanical properties :
#
#
# Convention : Reuss Voigt Hill
#
# Bulk Modulus (GPa) = 52.11051 63.76905 57.93978
# Shear Modulus (GPa) = 31.71735 36.43168 34.07452
#
# Velocity S-wave (km/s) = 3.93059 4.21259 4.07403
# Velocity P-wave (km/s) = 6.78104 7.39751 7.09598
#
# Compressibility (1/GPa) = 0.01918999
#
# Stress axis : x y z
#
# Youngs Moduli (GPa) = 50.30532 96.36034 130.69078
#
# Poissons Ratio (x) = 0.33229 0.47693
# Poissons Ratio (y) = 0.17348 0.29552
# Poissons Ratio (z) = 0.18358 0.21789
#
# Static dielectric constant tensor:
#      x y z
#    x 1.779710 0.000000 -0.011010 
#    y 0.000000 1.815090 0.000000 
#    z -0.011010 0.000000 1.795080 
# 
# From -- ./inp_files/60554.got.cif
#   From: 2010.05.17/outbox.cif.g08.bks.cpg/sg15_31_cif.got.tgz:60554.got - 2010.06.03 18:47:42.
