data_PCOD9303356
_publ_section_title
;
Structure prediction by ZEFSAII (Michael W. Deem and Ramdas Pophale) SiO2 
 PCOD9303356
Probable space group: C 2/C
;
_chemical_formula_sum "Si O2"
_cell_formula_units_Z 48
_cell_length_a 17.376267
_cell_length_b 12.964147
_cell_length_c 12.141338
_cell_angle_alpha 90.000000
_cell_angle_beta 127.098718
_cell_angle_gamma 90.000000
_cell_volume 2181.477415
_symmetry_space_group_name_H-M "C 2/C"
_symmetry_group_IT_number 15
_symmetry_cell_setting 'monoclinic'
loop_
_space_group_symop_operation_xyz
x,y,z
-x,y,1/2-z
-x,-y,-z
x,-y,1/2+z
1/2+x,1/2+y,z
1/2-x,1/2+y,1/2-z
1/2-x,1/2-y,-z
1/2+x,1/2-y,1/2+z
loop_
_atom_site_type_symbol
_atom_site_label
_atom_site_fract_x
_atom_site_fract_y
_atom_site_fract_z
Si Si1 0.946793 0.164485 0.954895
Si Si2 0.751324 0.639833 0.061509
Si Si3 0.286461 0.165092 0.350409
Si Si4 0.408513 0.754409 0.255229
Si Si5 0.555820 0.469463 0.394549
Si Si6 0.888136 0.540493 0.627358
O O1 0.853074 0.233990 0.889346
O O2 0.985554 0.123195 0.872444
O O3 0.037143 0.227207 0.084899
O O4 0.928221 0.056911 0.001352
O O5 0.756131 0.639147 0.199213
O O6 0.838401 0.568481 0.098505
O O7 0.750000 0.750000 0.000000
O O8 0.655582 0.578770 0.946367
O O9 0.186755 0.183195 0.331902
O O10 0.353421 0.087822 0.479859
O O11 0.500000 0.747473 0.250000
O O12 0.364922 0.868335 0.195759
O O13 0.500000 0.525940 0.250000
O O14 0.000000 0.524695 0.750000
#
# Coordination Sequence:
#
# PCOD9303356 Si02
#       6
#     8   8   8   8   8   8
#     4  11  23  43  75 107 140 190 238 304 369 432
#     4  12  29  48  71 106 151 201 240 301 379 443
#     4  12  25  47  76 106 149 192 247 309 367 444
#     4  11  22  43  73 111 139 184 244 305 364 427
#     4  11  25  43  71 108 147 184 244 300 367 440
#     4  11  26  46  75 108 143 195 252 307 364 442
#
# _framework density 22.003436000000001
#
# number of rings (size 3 to 8) (size 9 to 14) (size 15 to 20)
#    0.000    0.667    5.000    3.000    4.667    5.333 
#    0.000    0.000    0.000    0.000    0.000    0.000 
#    0.000    0.000    0.000    0.000    0.000    0.000 
#
# Total GULP energy -133899.649439 kJ/mol
# GULP energy per Si atom -5579.152060 kJ/mol
# Density = 2.195336 g / cm^3
# Si number density = 22.003436 Si / 1000 Ang^3
#
#
#
# Elastic Constant Matrix: (Units=GPa)
#
#
# Indices 1 2 3 4 5 6 
#
# 1 70.0376 18.4530 18.6728 0.0000 30.1514 0.0000
# 2 18.4530 106.3807 24.7527 0.0000 8.0870 0.0000
# 3 18.6728 24.7527 82.8854 0.0000 29.1911 0.0000
# 4 0.0000 0.0000 0.0000 22.7896 0.0000 9.1548
# 5 30.1514 8.0870 29.1911 0.0000 31.1019 0.0000
# 6 0.0000 0.0000 0.0000 9.1548 0.0000 40.3900
#
#
#
# Elastic Compliance Matrix: (Units=1/GPa)
#
#
# Indices 1 2 3 4 5 6 
#
# 1 0.026830 -0.003684 0.005794 0.000000 -0.030490 0.000000
# 2 -0.003684 0.010610 -0.003921 0.000000 0.004493 0.000000
# 3 0.005794 -0.003921 0.020240 0.000000 -0.023594 0.000000
# 4 0.000000 0.000000 0.000000 0.048275 0.000000 -0.010942
# 5 -0.030490 0.004493 -0.023594 0.000000 0.082687 0.000000
# 6 0.000000 0.000000 0.000000 -0.010942 0.000000 0.027239
#
#
# Mechanical properties :
#
#
# Convention : Reuss Voigt Hill
#
# Bulk Modulus (GPa) = 18.49865 42.56229 30.53047
# Shear Modulus (GPa) = 21.05064 32.01799 26.53432
#
# Velocity S-wave (km/s) = 3.09641 3.81876 3.47640
# Velocity P-wave (km/s) = 4.60533 6.23132 5.47898
#
# Compressibility (1/GPa) = 0.05405799
#
# Stress axis : x y z
#
# Youngs Moduli (GPa) = 37.27145 94.25018 49.40729
#
# Poissons Ratio (x) = 0.34725 -0.28627
# Poissons Ratio (y) = 0.13732 0.19372
# Poissons Ratio (z) = -0.21596 0.36955
#
# Static dielectric constant tensor:
#      x y z
#    x 1.842160 0.000000 -0.042440 
#    y 0.000000 1.789710 0.000000 
#    z -0.042440 0.000000 1.889130 
# 
# From -- ./inp_files/111792.got.cif
#   From: 2010.05.17/outbox.cif.g08.bks.cpg/sg15_56_cif.got.tgz:111792.got - 2010.06.03 18:47:42.
