data_PCOD9303527
_publ_section_title
;
Structure prediction by ZEFSAII (Michael W. Deem and Ramdas Pophale) SiO2 
 PCOD9303527
Probable space group: C 2/C
;
_chemical_formula_sum "Si O2"
_cell_formula_units_Z 48
_cell_length_a 13.916618
_cell_length_b 12.791354
_cell_length_c 19.666012
_cell_angle_alpha 90.000000
_cell_angle_beta 40.781682
_cell_angle_gamma 90.000000
_cell_volume 2286.643390
_symmetry_space_group_name_H-M "C 2/C"
_symmetry_group_IT_number 15
_symmetry_cell_setting 'monoclinic'
loop_
_space_group_symop_operation_xyz
x,y,z
-x,y,1/2-z
-x,-y,-z
x,-y,1/2+z
1/2+x,1/2+y,z
1/2-x,1/2+y,1/2-z
1/2-x,1/2-y,-z
1/2+x,1/2-y,1/2+z
loop_
_atom_site_type_symbol
_atom_site_label
_atom_site_fract_x
_atom_site_fract_y
_atom_site_fract_z
Si Si1 0.564122 0.461917 0.861074
Si Si2 0.687735 0.123538 0.365131
Si Si3 0.500000 0.067608 0.750000
Si Si4 0.500000 0.278218 0.250000
Si Si5 0.458406 0.898698 0.881650
Si Si6 0.173043 0.864950 0.409739
Si Si7 0.683036 0.453661 0.102498
O O1 0.691382 0.391631 0.759605
O O2 0.634508 0.556093 0.867928
O O3 0.466940 0.506873 0.851467
O O4 0.448552 0.397628 0.969185
O O5 0.533529 0.093583 0.414205
O O6 0.665889 0.243364 0.396423
O O7 0.740795 0.047356 0.396924
O O8 0.656988 0.122651 0.658044
O O9 0.517026 0.993294 0.805538
O O10 0.504730 0.205087 0.180869
O O11 0.641659 0.353498 0.170266
O O12 0.286019 0.913609 0.986207
#
# Coordination Sequence:
#
# PCOD9303527 Si02
#       7
#     8   8   4   4   8   8   8
#     4  11  24  48  69 100 142 176 233 283 336 413
#     4  12  26  43  70 104 137 181 224 285 346 405
#     4  11  22  45  68  98 138 181 224 285 332 408
#     4  11  24  41  74  96 132 187 220 289 344 396
#     4  11  25  43  67 101 137 177 235 278 341 408
#     4  11  26  44  75  98 136 190 224 281 347 399
#     4  12  24  45  68 101 141 178 228 288 340 406
#
# _framework density 20.991467
#
# number of rings (size 3 to 8) (size 9 to 14) (size 15 to 20)
#    0.000    0.667    5.000    2.000    2.333    3.333 
#    0.000    0.000    0.000    0.000    0.000    0.000 
#    0.000    0.000    0.000    0.000    0.000    0.000 
#
# Total GULP energy -134071.165853 kJ/mol
# GULP energy per Si atom -5586.298577 kJ/mol
# Density = 2.094369 g / cm^3
# Si number density = 20.991467 Si / 1000 Ang^3
#
#
#
# Elastic Constant Matrix: (Units=GPa)
#
#
# Indices 1 2 3 4 5 6 
#
# 1 83.1211 37.0374 -12.1080 0.0000 -4.2447 0.0000
# 2 37.0374 68.5781 35.3755 0.0000 9.0224 0.0000
# 3 -12.1080 35.3755 86.6130 0.0000 -0.2146 0.0000
# 4 0.0000 0.0000 0.0000 22.9721 0.0000 33.7823
# 5 -4.2447 9.0224 -0.2146 0.0000 34.3252 0.0000
# 6 0.0000 0.0000 0.0000 33.7823 0.0000 -116.1622
#
#
#
# Elastic Compliance Matrix: (Units=1/GPa)
#
#
# Indices 1 2 3 4 5 6 
#
# 1 0.022249 -0.018552 0.010706 0.000000 0.007695 0.000000
# 2 -0.018552 0.034806 -0.016838 0.000000 -0.011548 0.000000
# 3 0.010706 -0.016838 0.019934 0.000000 0.005874 0.000000
# 4 0.000000 0.000000 0.000000 0.030491 0.000000 0.008867
# 5 0.007695 -0.011548 0.005874 0.000000 0.033157 0.000000
# 6 0.000000 0.000000 0.000000 0.008867 0.000000 -0.006030
#
#
# Mechanical properties :
#
#
# Convention : Reuss Voigt Hill
#
# Bulk Modulus (GPa) = 36.20106 39.88024 38.04065
# Shear Modulus (GPa) = 25.88235 0.09418 12.98826
#
# Velocity S-wave (km/s) = 3.51521 0.21204 2.49015
# Velocity P-wave (km/s) = 5.81022 4.37030 5.14092
#
# Compressibility (1/GPa) = 0.02762350
#
# Stress axis : x y z
#
# Youngs Moduli (GPa) = 44.94490 28.73041 50.16543
#
# Poissons Ratio (x) = 0.53300 -0.53709
# Poissons Ratio (y) = 0.83380 0.84469
# Poissons Ratio (z) = -0.48120 0.48376
#
# Static dielectric constant tensor:
#      x y z
#    x 1.763550 0.000000 0.019720 
#    y 0.000000 1.721170 0.000000 
#    z 0.019720 0.000000 1.781490 
# 
# From -- ./inp_files/243945.got.cif
#   From: 2010.05.17/outbox.cif.g08.bks.cpg/sg15_122_cif.got.tgz:243945.got - 2010.06.03 18:47:42.
