data_PCOD9303176
_publ_section_title
;
Structure prediction by ZEFSAII (Michael W. Deem and Ramdas Pophale) SiO2 
 PCOD9303176
Probable space group: C 2/C
;
_chemical_formula_sum "Si O2"
_cell_formula_units_Z 60
_cell_length_a 16.327411
_cell_length_b 11.834769
_cell_length_c 20.866836
_cell_angle_alpha 90.000000
_cell_angle_beta 47.096865
_cell_angle_gamma 90.000000
_cell_volume 2953.552487
_symmetry_space_group_name_H-M "C 2/C"
_symmetry_group_IT_number 15
_symmetry_cell_setting 'monoclinic'
loop_
_space_group_symop_operation_xyz
x,y,z
-x,y,1/2-z
-x,-y,-z
x,-y,1/2+z
1/2+x,1/2+y,z
1/2-x,1/2+y,1/2-z
1/2-x,1/2-y,-z
1/2+x,1/2-y,1/2+z
loop_
_atom_site_type_symbol
_atom_site_label
_atom_site_fract_x
_atom_site_fract_y
_atom_site_fract_z
Si Si1 0.578444 0.864928 0.993167
Si Si2 0.876025 0.643814 0.288410
Si Si3 0.440566 0.355854 0.071188
Si Si4 0.500000 0.561585 0.250000
Si Si5 0.165622 0.963272 0.960621
Si Si6 0.895600 0.499352 0.647197
Si Si7 0.302572 0.635683 0.440959
Si Si8 0.339943 0.386512 0.259754
O O1 0.575015 0.733458 0.977357
O O2 0.699755 0.904082 0.951666
O O3 0.559703 0.918393 0.933096
O O4 0.488302 0.901280 0.094367
O O5 0.787476 0.582025 0.380814
O O6 0.881125 0.572038 0.219488
O O7 0.834889 0.773267 0.304411
O O8 0.000000 0.645184 0.250000
O O9 0.382838 0.468897 0.074725
O O10 0.379958 0.336248 0.170300
O O11 0.570801 0.368758 0.018983
O O12 0.413620 0.637491 0.337633
O O13 0.426506 0.478002 0.243416
O O14 0.171241 0.045422 0.018084
O O15 0.778033 0.553348 0.689242
O O16 0.250000 0.750000 0.500000
#
# Coordination Sequence:
#
# PCOD9303176 Si02
#       8
#     8   8   8   4   8   8   8   8
#     4  11  23  43  65  98 133 177 229 281 339 407
#     4  12  25  43  67 104 140 178 232 287 345 413
#     4  11  22  42  69  94 132 177 232 276 335 418
#     4  12  26  48  72  98 142 186 226 296 352 414
#     4  11  24  42  66  99 137 177 222 289 342 404
#     4  11  24  42  68  94 138 179 222 289 342 400
#     4  12  25  47  69 101 139 178 233 285 353 417
#     4  12  23  45  71 100 134 183 235 271 347 423
#
# _framework density 20.314520000000002
#
# number of rings (size 3 to 8) (size 9 to 14) (size 15 to 20)
#    0.000    0.533    7.333    1.600    0.000    0.000 
#    8.400    1.333    0.000    0.000    0.000    0.000 
#    0.000    0.000    0.000    0.000    0.000    0.000 
#
# Total GULP energy -167415.686904 kJ/mol
# GULP energy per Si atom -5580.522897 kJ/mol
# Density = 2.026828 g / cm^3
# Si number density = 20.314520 Si / 1000 Ang^3
#
#
#
# Elastic Constant Matrix: (Units=GPa)
#
#
# Indices 1 2 3 4 5 6 
#
# 1 88.8494 22.6410 17.5360 0.0000 -15.8433 0.0000
# 2 22.6410 63.1689 36.8553 0.0000 -9.7664 0.0000
# 3 17.5360 36.8553 92.2276 0.0000 -12.2170 0.0000
# 4 0.0000 0.0000 0.0000 17.0647 0.0000 0.5234
# 5 -15.8433 -9.7664 -12.2170 0.0000 32.5139 0.0000
# 6 0.0000 0.0000 0.0000 0.5234 0.0000 31.7809
#
#
#
# Elastic Compliance Matrix: (Units=1/GPa)
#
#
# Indices 1 2 3 4 5 6 
#
# 1 0.013197 -0.003736 -0.000329 0.000000 0.005184 0.000000
# 2 -0.003736 0.022036 -0.007851 0.000000 0.001849 0.000000
# 3 -0.000329 -0.007851 0.014427 0.000000 0.002902 0.000000
# 4 0.000000 0.000000 0.000000 0.058630 0.000000 -0.000966
# 5 0.005184 0.001849 0.002902 0.000000 0.034928 0.000000
# 6 0.000000 0.000000 0.000000 -0.000966 0.000000 0.031481
#
#
# Mechanical properties :
#
#
# Convention : Reuss Voigt Hill
#
# Bulk Modulus (GPa) = 38.71891 44.25673 41.48782
# Shear Modulus (GPa) = 24.13823 27.41946 25.77885
#
# Velocity S-wave (km/s) = 3.45080 3.67788 3.56615
# Velocity P-wave (km/s) = 5.91426 6.31417 6.11749
#
# Compressibility (1/GPa) = 0.02582717
#
# Stress axis : x y z
#
# Youngs Moduli (GPa) = 75.77744 45.38064 69.31454
#
# Poissons Ratio (x) = 0.16955 0.02283
# Poissons Ratio (y) = 0.28312 0.54415
# Poissons Ratio (z) = 0.02496 0.35626
#
# Static dielectric constant tensor:
#      x y z
#    x 1.711220 0.000000 0.004350 
#    y 0.000000 1.865510 0.000000 
#    z 0.004350 0.000000 1.731420 
# 
# From -- ./inp_files/248771.got.cif
#   From: 2010.05.17/outbox.cif.g08.bks.cpg/sg15_125_cif.got.tgz:248771.got - 2010.06.03 18:47:42.
