data_PCOD9303259
_publ_section_title
;
Structure prediction by ZEFSAII (Michael W. Deem and Ramdas Pophale) SiO2 
 PCOD9303259
Probable space group: C 2/C
;
_chemical_formula_sum "Si O2"
_cell_formula_units_Z 64
_cell_length_a 16.387324
_cell_length_b 14.128126
_cell_length_c 13.418866
_cell_angle_alpha 90.000000
_cell_angle_beta 121.291059
_cell_angle_gamma 90.000000
_cell_volume 2654.854697
_symmetry_space_group_name_H-M "C 2/C"
_symmetry_group_IT_number 15
_symmetry_cell_setting 'monoclinic'
loop_
_space_group_symop_operation_xyz
x,y,z
-x,y,1/2-z
-x,-y,-z
x,-y,1/2+z
1/2+x,1/2+y,z
1/2-x,1/2+y,1/2-z
1/2-x,1/2-y,-z
1/2+x,1/2-y,1/2+z
loop_
_atom_site_type_symbol
_atom_site_label
_atom_site_fract_x
_atom_site_fract_y
_atom_site_fract_z
Si Si1 0.361566 0.178744 0.686933
Si Si2 0.067940 0.575905 0.593710
Si Si3 0.776726 0.991688 0.737024
Si Si4 0.019784 0.233014 0.971973
Si Si5 0.310419 0.294413 0.262893
Si Si6 0.735017 0.461930 0.988594
Si Si7 0.943865 0.857755 0.621636
Si Si8 0.792841 0.855207 0.934350
O O1 0.442980 0.130152 0.807401
O O2 0.274100 0.209496 0.706391
O O3 0.318445 0.099049 0.588027
O O4 0.394045 0.266906 0.641724
O O5 0.166648 0.522530 0.674789
O O6 0.065952 0.664596 0.518524
O O7 0.000000 0.500000 0.500000
O O8 0.828194 0.093108 0.760333
O O9 0.781925 0.938530 0.636539
O O10 0.801565 0.923927 0.843115
O O11 0.101197 0.175458 0.965645
O O12 0.007049 0.180225 0.070735
O O13 0.913260 0.244587 0.861918
O O14 0.269505 0.233593 0.144004
O O15 0.752250 0.573002 0.014665
O O16 0.635692 0.427086 0.973573
O O17 0.000000 0.903831 0.750000
#
# Coordination Sequence:
#
# PCOD9303259 Si02
#       8
#     8   8   8   8   8   8   8   8
#     4  11  22  43  63 103 136 174 229 285 349 397
#     4  11  23  43  66 100 135 180 230 277 350 404
#     4  11  24  45  68  96 136 183 228 281 343 412
#     4  12  24  40  72  96 132 186 217 291 348 402
#     4  11  23  45  66  93 137 181 225 278 347 410
#     4  12  26  40  71  97 135 184 225 279 346 413
#     4  12  23  38  65 105 135 166 230 289 347 399
#     4  12  24  47  68  99 141 179 230 283 344 418
#
# _framework density 24.106779
#
# number of rings (size 3 to 8) (size 9 to 14) (size 15 to 20)
#    0.000    0.500    7.500    2.625    3.500    3.500 
#    0.000    0.000    0.000    0.000    0.000    0.000 
#    0.000    0.000    0.000    0.000    0.000    0.000 
#
# Total GULP energy -178926.436883 kJ/mol
# GULP energy per Si atom -5591.451153 kJ/mol
# Density = 2.405191 g / cm^3
# Si number density = 24.106779 Si / 1000 Ang^3
#
#
#
# Elastic Constant Matrix: (Units=GPa)
#
#
# Indices 1 2 3 4 5 6 
#
# 1 46.5621 9.5301 14.6721 0.0000 11.8217 0.0000
# 2 9.5301 102.9012 21.3088 0.0000 14.0284 0.0000
# 3 14.6721 21.3088 91.7826 0.0000 20.5313 0.0000
# 4 0.0000 0.0000 0.0000 44.9534 0.0000 5.8257
# 5 11.8217 14.0284 20.5313 0.0000 32.0971 0.0000
# 6 0.0000 0.0000 0.0000 5.8257 0.0000 31.7546
#
#
#
# Elastic Compliance Matrix: (Units=1/GPa)
#
#
# Indices 1 2 3 4 5 6 
#
# 1 0.024123 -0.000826 -0.002051 0.000000 -0.007212 0.000000
# 2 -0.000826 0.010573 -0.001584 0.000000 -0.003304 0.000000
# 3 -0.002051 -0.001584 0.013148 0.000000 -0.006963 0.000000
# 4 0.000000 0.000000 0.000000 0.022787 0.000000 -0.004181
# 5 -0.007212 -0.003304 -0.006963 0.000000 0.039710 0.000000
# 6 0.000000 0.000000 0.000000 -0.004181 0.000000 0.032259
#
#
# Mechanical properties :
#
#
# Convention : Reuss Voigt Hill
#
# Bulk Modulus (GPa) = 25.69209 36.91863 31.30536
# Shear Modulus (GPa) = 30.39593 34.81000 32.60296
#
# Velocity S-wave (km/s) = 3.55475 3.80411 3.68154
# Velocity P-wave (km/s) = 5.24682 5.88582 5.57548
#
# Compressibility (1/GPa) = 0.03892249
#
# Stress axis : x y z
#
# Youngs Moduli (GPa) = 41.45401 94.58144 76.05457
#
# Poissons Ratio (x) = 0.07814 0.15600
# Poissons Ratio (y) = 0.03425 0.12044
# Poissons Ratio (z) = 0.08503 0.14977
#
# Static dielectric constant tensor:
#      x y z
#    x 2.013110 0.000000 -0.021750 
#    y 0.000000 1.959250 0.000000 
#    z -0.021750 0.000000 1.926000 
# 
# From -- ./inp_files/162594.got.cif
#   From: 2010.05.17/outbox.cif.g08.bks.cpg/sg15_82_cif.got.tgz:162594.got - 2010.06.03 18:47:42.
