data_PCOD9303643
_publ_section_title
;
Structure prediction by ZEFSAII (Michael W. Deem and Ramdas Pophale) SiO2 
 PCOD9303643
Probable space group: C 2/C
;
_chemical_formula_sum "Si O2"
_cell_formula_units_Z 52
_cell_length_a 12.181856
_cell_length_b 9.285275
_cell_length_c 24.906164
_cell_angle_alpha 90.000000
_cell_angle_beta 123.018572
_cell_angle_gamma 90.000000
_cell_volume 2362.191085
_symmetry_space_group_name_H-M "C 2/C"
_symmetry_group_IT_number 15
_symmetry_cell_setting 'monoclinic'
loop_
_space_group_symop_operation_xyz
x,y,z
-x,y,1/2-z
-x,-y,-z
x,-y,1/2+z
1/2+x,1/2+y,z
1/2-x,1/2+y,1/2-z
1/2-x,1/2-y,-z
1/2+x,1/2-y,1/2+z
loop_
_atom_site_type_symbol
_atom_site_label
_atom_site_fract_x
_atom_site_fract_y
_atom_site_fract_z
Si Si1 0.211914 0.467409 0.316609
Si Si2 0.742945 0.687742 0.256683
Si Si3 0.092599 0.411181 0.987087
Si Si4 0.969071 0.094506 0.940476
Si Si5 0.372390 0.604928 0.618154
Si Si6 0.000000 0.949516 0.750000
Si Si7 0.529879 0.072635 0.354298
O O1 0.244124 0.626037 0.300544
O O2 0.237496 0.355686 0.273506
O O3 0.315736 0.410256 0.387857
O O4 0.078711 0.479683 0.316556
O O5 0.605217 0.636323 0.243356
O O6 0.875235 0.612633 0.316308
O O7 0.033401 0.250939 0.965379
O O8 0.085367 0.481039 0.925895
O O9 0.231487 0.407758 0.053337
O O10 0.000000 0.500000 0.000000
O O11 0.031759 0.039392 0.901569
O O12 0.000000 0.000000 0.000000
O O13 0.408298 0.535824 0.684261
O O14 0.403230 0.772246 0.634316
#
# Coordination Sequence:
#
# PCOD9303643 Si02
#       7
#     8   8   8   8   8   4   8
#     4  12  26  47  75 109 150 199 252 309 381 454
#     4  12  26  48  70 110 153 194 252 306 381 449
#     4  11  23  46  73 107 144 192 249 316 374 446
#     4  11  22  47  68 104 141 188 251 295 367 451
#     4  11  23  44  72 102 144 199 242 300 377 448
#     4  12  26  44  70 108 158 186 252 316 372 452
#     4  11  24  46  76 103 146 198 251 302 381 452
#
# _framework density 22.013459999999998
#
# number of rings (size 3 to 8) (size 9 to 14) (size 15 to 20)
#    0.000    0.615    4.615    5.077    6.462    0.000 
#    5.538    1.538    0.000    0.000    0.000    0.000 
#    0.000    0.000    0.000    0.000    0.000    0.000 
#
# Total GULP energy -145061.990734 kJ/mol
# GULP energy per Si atom -5579.307336 kJ/mol
# Density = 2.196336 g / cm^3
# Si number density = 22.013460 Si / 1000 Ang^3
#
#
#
# Elastic Constant Matrix: (Units=GPa)
#
#
# Indices 1 2 3 4 5 6 
#
# 1 88.7470 34.8161 53.5600 0.0000 4.3698 0.0000
# 2 34.8161 50.2061 37.5295 0.0000 -12.7431 0.0000
# 3 53.5600 37.5295 135.8395 0.0000 7.8767 0.0000
# 4 0.0000 0.0000 0.0000 16.8566 0.0000 3.5086
# 5 4.3698 -12.7431 7.8767 0.0000 52.5034 0.0000
# 6 0.0000 0.0000 0.0000 3.5086 0.0000 22.8904
#
#
#
# Elastic Compliance Matrix: (Units=1/GPa)
#
#
# Indices 1 2 3 4 5 6 
#
# 1 0.017884 -0.010250 -0.004024 0.000000 -0.003372 0.000000
# 2 -0.010250 0.033995 -0.005930 0.000000 0.009994 0.000000
# 3 -0.004024 -0.005930 0.010744 0.000000 -0.002716 0.000000
# 4 0.000000 0.000000 0.000000 0.061279 0.000000 -0.009393
# 5 -0.003372 0.009994 -0.002716 0.000000 0.022160 0.000000
# 6 0.000000 0.000000 0.000000 -0.009393 0.000000 0.045126
#
#
# Mechanical properties :
#
#
# Convention : Reuss Voigt Hill
#
# Bulk Modulus (GPa) = 45.01450 58.51153 51.76302
# Shear Modulus (GPa) = 20.92044 28.37588 24.64816
#
# Velocity S-wave (km/s) = 3.08612 3.59419 3.34980
# Velocity P-wave (km/s) = 5.76123 6.62283 6.20700
#
# Compressibility (1/GPa) = 0.02221506
#
# Stress axis : x y z
#
# Youngs Moduli (GPa) = 55.91727 29.41599 93.07375
#
# Poissons Ratio (x) = 0.30150 0.37453
# Poissons Ratio (y) = 0.57313 0.55196
# Poissons Ratio (z) = 0.22501 0.17445
#
# Static dielectric constant tensor:
#      x y z
#    x 1.820530 0.000000 0.007570 
#    y 0.000000 1.802360 0.000000 
#    z 0.007570 0.000000 1.672350 
# 
# From -- ./inp_files/291687.got.cif
#   From: 2010.05.17/outbox.cif.g08.bks.cpg/sg15_146_cif.got.tgz:291687.got - 2010.06.03 18:47:42.
