data_PCOD9303150
_publ_section_title
;
Structure prediction by ZEFSAII (Michael W. Deem and Ramdas Pophale) SiO2 
 PCOD9303150
Probable space group: C 2/C
;
_chemical_formula_sum "Si O2"
_cell_formula_units_Z 40
_cell_length_a 19.054950
_cell_length_b 15.007503
_cell_length_c 17.390412
_cell_angle_alpha 90.000000
_cell_angle_beta 22.261342
_cell_angle_gamma 90.000000
_cell_volume 1883.963915
_symmetry_space_group_name_H-M "C 2/C"
_symmetry_group_IT_number 15
_symmetry_cell_setting 'monoclinic'
loop_
_space_group_symop_operation_xyz
x,y,z
-x,y,1/2-z
-x,-y,-z
x,-y,1/2+z
1/2+x,1/2+y,z
1/2-x,1/2+y,1/2-z
1/2-x,1/2-y,-z
1/2+x,1/2-y,1/2+z
loop_
_atom_site_type_symbol
_atom_site_label
_atom_site_fract_x
_atom_site_fract_y
_atom_site_fract_z
Si Si1 0.181149 0.866197 0.304417
Si Si2 0.686294 0.029851 0.235646
Si Si3 0.733183 0.326871 0.733405
Si Si4 0.937303 0.071957 0.733815
Si Si5 0.615352 0.932362 0.058992
O O1 0.273450 0.777340 0.243193
O O2 0.157568 0.868274 0.236205
O O3 0.973932 0.865561 0.550144
O O4 0.279211 0.955327 0.234209
O O5 0.658652 0.123075 0.307318
O O6 0.523495 0.997496 0.346236
O O7 0.875505 0.036670 0.995615
O O8 0.823217 0.354545 0.561515
O O9 0.000000 0.116458 0.750000
O O10 0.796284 0.991204 0.895126
O O11 0.500000 0.900933 0.250000
#
# Coordination Sequence:
#
# PCOD9303150 Si02
#       5
#     8   8   8   8   8
#     4  11  23  42  68  96 135 177 223 275 319 399
#     4  11  22  42  68  93 130 178 225 275 322 395
#     4  11  23  41  64 100 131 174 229 265 325 394
#     4  11  22  43  64  98 135 170 221 274 334 384
#     4  12  23  39  69  98 131 174 220 275 333 388
#
# _framework density 21.231829999999999
#
# number of rings (size 3 to 8) (size 9 to 14) (size 15 to 20)
#    0.000    0.800    6.000    3.000    2.800    0.000 
#    0.000   10.000    0.000    0.000    0.000    0.000 
#    0.000    0.000    0.000    0.000    0.000    0.000 
#
# Total GULP energy -111858.841318 kJ/mol
# GULP energy per Si atom -5592.942066 kJ/mol
# Density = 2.118350 g / cm^3
# Si number density = 21.231830 Si / 1000 Ang^3
#
#
#
# Elastic Constant Matrix: (Units=GPa)
#
#
# Indices 1 2 3 4 5 6 
#
# 1 81.4692 1.4425 31.6062 0.0074 22.5649 -0.0050
# 2 1.4425 66.7089 16.4046 0.0189 13.0741 -0.0083
# 3 31.6062 16.4046 113.1491 0.0246 19.7750 -0.0033
# 4 0.0074 0.0189 0.0246 12.7920 -0.0058 1.8628
# 5 22.5649 13.0741 19.7750 -0.0058 42.1969 -0.0012
# 6 -0.0050 -0.0083 -0.0033 1.8628 -0.0012 17.4869
#
#
#
# Elastic Compliance Matrix: (Units=1/GPa)
#
#
# Indices 1 2 3 4 5 6 
#
# 1 0.015576 0.001928 -0.003344 -0.000010 -0.007360 0.000005
# 2 0.001928 0.016462 -0.002019 -0.000025 -0.005185 0.000010
# 3 -0.003344 -0.002019 0.010503 -0.000017 -0.002508 0.000002
# 4 -0.000010 -0.000025 -0.000017 0.079406 0.000032 -0.008459
# 5 -0.007360 -0.005185 -0.002508 0.000032 0.030416 -0.000006
# 6 0.000005 0.000010 0.000002 -0.008459 -0.000006 0.058087
#
#
# Mechanical properties :
#
#
# Convention : Reuss Voigt Hill
#
# Bulk Modulus (GPa) = 28.03438 40.02597 34.03017
# Shear Modulus (GPa) = 21.81403 28.62010 25.21707
#
# Velocity S-wave (km/s) = 3.20882 3.67547 3.45004
# Velocity P-wave (km/s) = 5.19243 6.07494 5.65094
#
# Compressibility (1/GPa) = 0.03567049
#
# Stress axis : x y z
#
# Youngs Moduli (GPa) = 64.20028 60.74765 95.20976
#
# Poissons Ratio (x) = -0.11712 0.31840
# Poissons Ratio (y) = -0.12378 0.19222
# Poissons Ratio (z) = 0.21470 0.12265
#
# Static dielectric constant tensor:
#      x y z
#    x 1.785400 0.000000 -0.015240 
#    y 0.000000 1.717640 0.000000 
#    z -0.015240 0.000000 1.806680 
# 
# From -- ./inp_files/46913.got.cif
#   From: 2010.05.17/outbox.cif.g08.bks.cpg/sg15_24_cif.got.tgz:46913.got - 2010.06.03 18:47:42.
