data_PCOD9303568
_publ_section_title
;
Structure prediction by ZEFSAII (Michael W. Deem and Ramdas Pophale) SiO2 
 PCOD9303568
Probable space group: C 2/C
;
_chemical_formula_sum "Si O2"
_cell_formula_units_Z 48
_cell_length_a 7.380193
_cell_length_b 20.539875
_cell_length_c 13.904396
_cell_angle_alpha 90.000000
_cell_angle_beta 108.898052
_cell_angle_gamma 90.000000
_cell_volume 1994.127948
_symmetry_space_group_name_H-M "C 2/C"
_symmetry_group_IT_number 15
_symmetry_cell_setting 'monoclinic'
loop_
_space_group_symop_operation_xyz
x,y,z
-x,y,1/2-z
-x,-y,-z
x,-y,1/2+z
1/2+x,1/2+y,z
1/2-x,1/2+y,1/2-z
1/2-x,1/2-y,-z
1/2+x,1/2-y,1/2+z
loop_
_atom_site_type_symbol
_atom_site_label
_atom_site_fract_x
_atom_site_fract_y
_atom_site_fract_z
Si Si1 0.269422 0.541816 0.231844
Si Si2 0.806048 0.174460 0.765446
Si Si3 0.776578 0.187992 0.184927
Si Si4 0.647165 0.441928 0.547136
Si Si5 0.404139 0.920255 0.406836
Si Si6 0.209814 0.858845 0.011851
O O1 0.500000 0.535108 0.250000
O O2 0.209681 0.615142 0.196436
O O3 0.239551 0.535765 0.340111
O O4 0.161205 0.485053 0.158453
O O5 0.807933 0.252548 0.769481
O O6 0.644405 0.140886 0.671917
O O7 0.793394 0.156767 0.875625
O O8 0.000000 0.149043 0.750000
O O9 0.000000 0.191169 0.250000
O O10 0.742835 0.192880 0.063994
O O11 0.500000 0.500000 0.500000
O O12 0.777882 0.419793 0.481719
O O13 0.502542 0.383660 0.550192
O O14 0.372446 0.914527 0.030754
#
# Coordination Sequence:
#
# PCOD9303568 Si02
#       6
#     8   8   8   8   8   8
#     4  11  22  45  73 105 156 194 237 315 377 430
#     4  12  26  47  75 107 150 200 254 310 373 445
#     4  11  24  47  71 104 154 197 244 314 375 432
#     4  12  23  43  74 108 151 193 242 304 369 443
#     4  12  26  47  78 114 149 200 253 300 378 457
#     4  12  25  47  75 109 147 199 250 307 371 450
#
# _framework density 24.070671999999998
#
# number of rings (size 3 to 8) (size 9 to 14) (size 15 to 20)
#    0.000    0.333    6.667    3.500    0.000    4.000 
#    0.000    7.500    0.000    0.000    0.000    0.000 
#    0.000    0.000    0.000    0.000    0.000    0.000 
#
# Total GULP energy -134395.207118 kJ/mol
# GULP energy per Si atom -5599.800297 kJ/mol
# Density = 2.401589 g / cm^3
# Si number density = 24.070672 Si / 1000 Ang^3
#
#
#
# Elastic Constant Matrix: (Units=GPa)
#
#
# Indices 1 2 3 4 5 6 
#
# 1 103.3343 22.8408 37.5510 0.0000 -14.7719 0.0000
# 2 22.8408 106.0684 38.9709 0.0000 -8.2923 0.0000
# 3 37.5510 38.9709 169.4731 0.0000 -8.2977 0.0000
# 4 0.0000 0.0000 0.0000 44.3129 0.0000 -10.1412
# 5 -14.7719 -8.2923 -8.2977 0.0000 28.2352 0.0000
# 6 0.0000 0.0000 0.0000 -10.1412 0.0000 12.5985
#
#
#
# Elastic Compliance Matrix: (Units=1/GPa)
#
#
# Indices 1 2 3 4 5 6 
#
# 1 0.011405 -0.001340 -0.001974 0.000000 0.004993 0.000000
# 2 -0.001340 0.010613 -0.002055 0.000000 0.001812 0.000000
# 3 -0.001974 -0.002055 0.006829 0.000000 0.000370 0.000000
# 4 0.000000 0.000000 0.000000 0.027663 0.000000 0.022267
# 5 0.004993 0.001812 0.000370 0.000000 0.038670 0.000000
# 6 0.000000 0.000000 0.000000 0.022267 0.000000 0.097298
#
#
# Mechanical properties :
#
#
# Convention : Reuss Voigt Hill
#
# Bulk Modulus (GPa) = 55.22469 64.17792 59.70131
# Shear Modulus (GPa) = 23.89459 35.66353 29.77906
#
# Velocity S-wave (km/s) = 3.15411 3.85335 3.52113
# Velocity P-wave (km/s) = 6.02138 6.82041 6.43331
#
# Compressibility (1/GPa) = 0.01810784
#
# Stress axis : x y z
#
# Youngs Moduli (GPa) = 87.68264 94.22315 146.43924
#
# Poissons Ratio (x) = 0.12627 0.28913
# Poissons Ratio (y) = 0.11751 0.30091
# Poissons Ratio (z) = 0.17312 0.19362
#
# Static dielectric constant tensor:
#      x y z
#    x 1.957010 0.000000 0.001440 
#    y 0.000000 1.971380 0.000000 
#    z 0.001440 0.000000 1.926090 
# 
# From -- ./inp_files/87283.got.cif
#   From: 2010.05.17/outbox.cif.g08.bks.cpg/sg15_44_cif.got.tgz:87283.got - 2010.06.03 18:47:42.
