data_PCOD9303486
_publ_section_title
;
Structure prediction by ZEFSAII (Michael W. Deem and Ramdas Pophale) SiO2 
 PCOD9303486
Probable space group: C 2/C
;
_chemical_formula_sum "Si O2"
_cell_formula_units_Z 64
_cell_length_a 13.531773
_cell_length_b 14.944095
_cell_length_c 18.068311
_cell_angle_alpha 90.000000
_cell_angle_beta 50.735074
_cell_angle_gamma 90.000000
_cell_volume 2828.854681
_symmetry_space_group_name_H-M "C 2/C"
_symmetry_group_IT_number 15
_symmetry_cell_setting 'monoclinic'
loop_
_space_group_symop_operation_xyz
x,y,z
-x,y,1/2-z
-x,-y,-z
x,-y,1/2+z
1/2+x,1/2+y,z
1/2-x,1/2+y,1/2-z
1/2-x,1/2-y,-z
1/2+x,1/2-y,1/2+z
loop_
_atom_site_type_symbol
_atom_site_label
_atom_site_fract_x
_atom_site_fract_y
_atom_site_fract_z
Si Si1 0.222444 0.852308 0.530158
Si Si2 0.324902 0.774669 0.149523
Si Si3 0.055484 0.465783 0.147418
Si Si4 0.625974 0.168388 0.144011
Si Si5 0.771926 0.541267 0.739996
Si Si6 0.715748 0.646643 0.205289
Si Si7 0.411312 0.415197 0.047397
Si Si8 0.997557 0.728950 0.060975
O O1 0.250000 0.750000 0.500000
O O2 0.347058 0.909528 0.447776
O O3 0.184770 0.858079 0.633518
O O4 0.117434 0.883894 0.521597
O O5 0.242419 0.708650 0.135674
O O6 0.253833 0.866990 0.202952
O O7 0.354273 0.720182 0.210595
O O8 0.448104 0.800506 0.043881
O O9 0.120276 0.561052 0.137258
O O10 0.000000 0.422800 0.250000
O O11 0.922279 0.481117 0.167896
O O12 0.500000 0.192839 0.250000
O O13 0.600889 0.208039 0.074865
O O14 0.702923 0.452690 0.743688
O O15 0.717852 0.561596 0.847232
O O16 0.863809 0.680319 0.140606
O O17 0.473146 0.334275 0.063856
O O18 0.500000 0.500000 0.000000
#
# Coordination Sequence:
#
# PCOD9303486 Si02
#       8
#     8   8   8   8   8   8   8   8
#     4  12  26  46  70 103 147 197 246 310 368 449
#     4  12  26  44  72 109 147 191 237 310 375 437
#     4  11  23  41  75 103 134 186 245 297 364 439
#     4  11  22  44  74 106 143 182 237 300 371 440
#     4  12  24  47  74 106 144 190 242 309 368 441
#     4  12  25  48  70 106 149 187 249 306 360 447
#     4  12  27  48  72 104 149 194 243 302 380 445
#     4  12  24  45  72 105 142 192 236 303 369 437
#
# _framework density 22.623998
#
# number of rings (size 3 to 8) (size 9 to 14) (size 15 to 20)
#    0.000    0.250    6.250    2.625    3.500    2.000 
#    0.000    3.750    0.000    0.000    0.000    0.000 
#    0.000    0.000    0.000    0.000    0.000    0.000 
#
# Total GULP energy -179096.047548 kJ/mol
# GULP energy per Si atom -5596.751486 kJ/mol
# Density = 2.257250 g / cm^3
# Si number density = 22.623998 Si / 1000 Ang^3
#
#
#
# Elastic Constant Matrix: (Units=GPa)
#
#
# Indices 1 2 3 4 5 6 
#
# 1 63.1438 32.7644 16.5376 0.0000 19.9337 0.0000
# 2 32.7644 129.4924 24.5075 0.0000 18.0364 0.0000
# 3 16.5376 24.5075 110.3163 0.0000 24.8681 0.0000
# 4 0.0000 0.0000 0.0000 39.8403 0.0000 2.7057
# 5 19.9337 18.0364 24.8681 0.0000 43.6116 0.0000
# 6 0.0000 0.0000 0.0000 2.7057 0.0000 42.0039
#
#
#
# Elastic Compliance Matrix: (Units=1/GPa)
#
#
# Indices 1 2 3 4 5 6 
#
# 1 0.020388 -0.004038 -0.000499 0.000000 -0.007364 0.000000
# 2 -0.004038 0.009138 -0.001135 0.000000 -0.001286 0.000000
# 3 -0.000499 -0.001135 0.010597 0.000000 -0.005345 0.000000
# 4 0.000000 0.000000 0.000000 0.025210 0.000000 -0.001624
# 5 -0.007364 -0.001286 -0.005345 0.000000 0.029875 0.000000
# 6 0.000000 0.000000 0.000000 -0.001624 0.000000 0.023912
#
#
# Mechanical properties :
#
#
# Convention : Reuss Voigt Hill
#
# Bulk Modulus (GPa) = 34.74875 50.06351 42.40613
# Shear Modulus (GPa) = 35.69959 40.36735 38.03347
#
# Velocity S-wave (km/s) = 3.97665 4.22865 4.10458
# Velocity P-wave (km/s) = 6.03967 6.78369 6.42246
#
# Compressibility (1/GPa) = 0.02877801
#
# Stress axis : x y z
#
# Youngs Moduli (GPa) = 49.04908 109.43089 94.36937
#
# Poissons Ratio (x) = 0.44192 0.04711
# Poissons Ratio (y) = 0.19808 0.10708
# Poissons Ratio (z) = 0.02448 0.12417
#
# Static dielectric constant tensor:
#      x y z
#    x 1.889450 0.000000 -0.020300 
#    y 0.000000 1.802050 0.000000 
#    z -0.020300 0.000000 1.852830 
# 
# From -- ./inp_files/205723.got.cif
#   From: 2010.05.17/outbox.cif.g08.bks.cpg/sg15_103_cif.got.tgz:205723.got - 2010.06.03 18:47:42.
