data_PCOD9303945
_publ_section_title
;
Structure prediction by ZEFSAII (Michael W. Deem and Ramdas Pophale) SiO2 
 PCOD9303945
Probable space group: C 2/C
;
_chemical_formula_sum "Si O2"
_cell_formula_units_Z 40
_cell_length_a 12.424988
_cell_length_b 11.994219
_cell_length_c 24.893096
_cell_angle_alpha 90.000000
_cell_angle_beta 30.470148
_cell_angle_gamma 90.000000
_cell_volume 1881.184425
_symmetry_space_group_name_H-M "C 2/C"
_symmetry_group_IT_number 15
_symmetry_cell_setting 'monoclinic'
loop_
_space_group_symop_operation_xyz
x,y,z
-x,y,1/2-z
-x,-y,-z
x,-y,1/2+z
1/2+x,1/2+y,z
1/2-x,1/2+y,1/2-z
1/2-x,1/2-y,-z
1/2+x,1/2-y,1/2+z
loop_
_atom_site_type_symbol
_atom_site_label
_atom_site_fract_x
_atom_site_fract_y
_atom_site_fract_z
Si Si1 0.542301 0.042500 0.041529
Si Si2 0.549844 0.371740 0.468003
Si Si3 0.897307 0.665370 0.904887
Si Si4 0.156960 0.736609 0.320164
Si Si5 0.345478 0.280743 0.364455
O O1 0.745130 0.121574 0.943846
O O2 0.350830 0.123321 0.142219
O O3 0.500000 0.000000 0.000000
O O4 0.575504 0.945630 0.070679
O O5 0.500000 0.500000 0.500000
O O6 0.769553 0.352509 0.404688
O O7 0.579117 0.333992 0.393920
O O8 0.351738 0.293621 0.571945
O O9 0.120897 0.723465 0.797978
O O10 0.750000 0.750000 0.000000
O O11 0.993064 0.714238 0.342426
O O12 0.500000 0.319003 0.250000
#
# Coordination Sequence:
#
# PCOD9303945 Si02
#       5
#     8   8   8   8   8
#     4  11  24  44  67  95 132 175 220 275 340 404
#     4  11  23  41  65  96 132 172 220 281 340 398
#     4  12  25  42  66  99 131 169 223 279 332 402
#     4  11  24  44  65  94 133 175 221 273 338 413
#     4  11  23  43  67  94 130 177 224 272 338 413
#
# _framework density 21.263200000000001
#
# number of rings (size 3 to 8) (size 9 to 14) (size 15 to 20)
#    0.000    0.800    0.000   10.200    0.000    8.000 
#    0.000    2.000    0.000    0.000    0.000    0.000 
#    0.000    0.000    0.000    0.000    0.000    0.000 
#
# Total GULP energy -111769.265393 kJ/mol
# GULP energy per Si atom -5588.463270 kJ/mol
# Density = 2.121480 g / cm^3
# Si number density = 21.263200 Si / 1000 Ang^3
#
#
#
# Elastic Constant Matrix: (Units=GPa)
#
#
# Indices 1 2 3 4 5 6 
#
# 1 112.0924 29.1984 21.0516 0.0000 -11.2089 0.0000
# 2 29.1984 132.7118 68.3973 0.0000 4.7922 0.0000
# 3 21.0516 68.3973 158.0176 0.0001 8.0763 -0.0003
# 4 0.0000 0.0000 0.0001 23.2719 -0.0002 7.3195
# 5 -11.2089 4.7922 8.0763 -0.0002 37.3304 0.0000
# 6 0.0000 0.0000 -0.0003 7.3195 0.0000 43.1181
#
#
#
# Elastic Compliance Matrix: (Units=1/GPa)
#
#
# Indices 1 2 3 4 5 6 
#
# 1 0.009890 -0.001969 -0.000637 0.000000 0.003360 0.000000
# 2 -0.001969 0.010095 -0.004056 0.000000 -0.001010 0.000000
# 3 -0.000637 -0.004056 0.008243 0.000000 -0.001454 0.000000
# 4 0.000000 0.000000 0.000000 0.045394 0.000000 -0.007706
# 5 0.003360 -0.001010 -0.001454 0.000000 0.028241 0.000000
# 6 0.000000 0.000000 0.000000 -0.007706 0.000000 0.024500
#
#
# Mechanical properties :
#
#
# Convention : Reuss Voigt Hill
#
# Bulk Modulus (GPa) = 67.09351 71.12405 69.10878
# Shear Modulus (GPa) = 34.56520 39.68906 37.12713
#
# Velocity S-wave (km/s) = 4.03623 4.32506 4.18314
# Velocity P-wave (km/s) = 7.30369 7.64614 7.47688
#
# Compressibility (1/GPa) = 0.01490457
#
# Stress axis : x y z
#
# Youngs Moduli (GPa) = 101.11513 99.05915 121.31403
#
# Poissons Ratio (x) = 0.19504 0.07728
# Poissons Ratio (y) = 0.19908 0.49201
# Poissons Ratio (z) = 0.06442 0.40175
#
# Static dielectric constant tensor:
#      x y z
#    x 1.835750 0.000000 -0.031240 
#    y 0.000000 1.696390 0.000000 
#    z -0.031240 0.000000 1.735910 
# 
# From -- ./inp_files/292355.got.cif
#   From: 2010.05.17/outbox.cif.g08.bks.cpg/sg15_147_cif.got.tgz:292355.got - 2010.06.03 18:47:42.
