data_PCOD9303992
_publ_section_title
;
Structure prediction by ZEFSAII (Michael W. Deem and Ramdas Pophale) SiO2 
 PCOD9303992
Probable space group: C 2/C
;
_chemical_formula_sum "Si O2"
_cell_formula_units_Z 24
_cell_length_a 7.730394
_cell_length_b 26.849185
_cell_length_c 9.346124
_cell_angle_alpha 90.000000
_cell_angle_beta 32.281794
_cell_angle_gamma 90.000000
_cell_volume 1036.033096
_symmetry_space_group_name_H-M "C 2/C"
_symmetry_group_IT_number 15
_symmetry_cell_setting 'monoclinic'
loop_
_space_group_symop_operation_xyz
x,y,z
-x,y,1/2-z
-x,-y,-z
x,-y,1/2+z
1/2+x,1/2+y,z
1/2-x,1/2+y,1/2-z
1/2-x,1/2-y,-z
1/2+x,1/2-y,1/2+z
loop_
_atom_site_type_symbol
_atom_site_label
_atom_site_fract_x
_atom_site_fract_y
_atom_site_fract_z
Si Si1 0.555571 0.551488 0.878472
Si Si2 0.254626 0.777916 0.705435
Si Si3 0.311702 0.890201 0.635188
O O1 0.500000 0.543086 0.750000
O O2 0.909639 0.576763 0.632301
O O3 0.500000 0.500000 0.000000
O O4 0.307285 0.588209 0.130585
O O5 0.526862 0.736026 0.496308
O O6 0.404741 0.832689 0.593146
O O7 0.000000 0.775610 0.750000
O O8 0.000000 0.891546 0.750000
#
# Coordination Sequence:
#
# PCOD9303992 Si02
#       3
#     8   8   8
#     4  12  26  45  65  91 128 169 214 264 324 384
#     4   9  17  32  58  93 127 160 204 257 307 362
#     4  11  23  41  68  98 128 166 215 265 314 373
#
# _framework density 23.165282999999999
#
# number of rings (size 3 to 8) (size 9 to 14) (size 15 to 20)
#    0.000    1.333    0.000    6.000    0.000    8.000 
#    0.000    0.000    0.000   20.000    0.000    0.000 
#    0.000    0.000    0.000    0.000    0.000    0.000 
#
# Total GULP energy -67124.361946 kJ/mol
# GULP energy per Si atom -5593.696829 kJ/mol
# Density = 2.311256 g / cm^3
# Si number density = 23.165283 Si / 1000 Ang^3
#
#
#
# Elastic Constant Matrix: (Units=GPa)
#
#
# Indices 1 2 3 4 5 6 
#
# 1 65.4761 34.9724 28.2839 0.0000 10.4677 0.0000
# 2 34.9724 148.9023 71.8331 0.0000 -15.2277 0.0000
# 3 28.2839 71.8331 173.3656 0.0000 -4.4173 0.0000
# 4 0.0000 0.0000 0.0000 63.3851 0.0000 -2.6281
# 5 10.4677 -15.2277 -4.4173 0.0000 41.8540 0.0000
# 6 0.0000 0.0000 0.0000 -2.6281 0.0000 19.0692
#
#
#
# Elastic Compliance Matrix: (Units=1/GPa)
#
#
# Indices 1 2 3 4 5 6 
#
# 1 0.019384 -0.004531 -0.001454 0.000000 -0.006650 0.000000
# 2 -0.004531 0.009767 -0.003197 0.000000 0.004349 0.000000
# 3 -0.001454 -0.003197 0.007329 0.000000 -0.000026 0.000000
# 4 0.000000 0.000000 0.000000 0.015867 0.000000 0.002187
# 5 -0.006650 0.004349 -0.000026 0.000000 0.027136 0.000000
# 6 0.000000 0.000000 0.000000 0.002187 0.000000 0.052742
#
#
# Mechanical properties :
#
#
# Convention : Reuss Voigt Hill
#
# Bulk Modulus (GPa) = 55.20031 73.10253 64.15142
# Shear Modulus (GPa) = 31.92247 41.70528 36.81387
#
# Velocity S-wave (km/s) = 3.71621 4.24764 3.99078
# Velocity P-wave (km/s) = 6.50340 7.46204 6.99915
#
# Compressibility (1/GPa) = 0.01811584
#
# Stress axis : x y z
#
# Youngs Moduli (GPa) = 51.58772 102.38481 136.43706
#
# Poissons Ratio (x) = 0.46393 0.19844
# Poissons Ratio (y) = 0.23376 0.43617
# Poissons Ratio (z) = 0.07503 0.32731
#
# Static dielectric constant tensor:
#      x y z
#    x 1.947700 0.000000 -0.028140 
#    y 0.000000 1.865800 0.000000 
#    z -0.028140 0.000000 1.807780 
# 
# From -- ./inp_files/25220.got.cif
#   From: 2010.05.17/outbox.cif.g08.bks.cpg/sg15_13_cif.got.tgz:25220.got - 2010.06.03 18:47:42.
