data_PCOD9303290
_publ_section_title
;
Structure prediction by ZEFSAII (Michael W. Deem and Ramdas Pophale) SiO2 
 PCOD9303290
Probable space group: C 2/C
;
_chemical_formula_sum "Si O2"
_cell_formula_units_Z 48
_cell_length_a 15.658881
_cell_length_b 8.879012
_cell_length_c 28.118782
_cell_angle_alpha 90.000000
_cell_angle_beta 141.600366
_cell_angle_gamma 90.000000
_cell_volume 2428.361332
_symmetry_space_group_name_H-M "C 2/C"
_symmetry_group_IT_number 15
_symmetry_cell_setting 'monoclinic'
loop_
_space_group_symop_operation_xyz
x,y,z
-x,y,1/2-z
-x,-y,-z
x,-y,1/2+z
1/2+x,1/2+y,z
1/2-x,1/2+y,1/2-z
1/2-x,1/2-y,-z
1/2+x,1/2-y,1/2+z
loop_
_atom_site_type_symbol
_atom_site_label
_atom_site_fract_x
_atom_site_fract_y
_atom_site_fract_z
Si Si1 0.647692 0.356549 0.927310
Si Si2 0.406908 0.151759 0.949737
Si Si3 0.393492 0.799386 0.341712
Si Si4 0.665199 0.445494 0.828928
Si Si5 0.165955 0.350123 0.687285
Si Si6 0.609048 0.679262 0.958427
O O1 0.507061 0.268696 0.857263
O O2 0.699121 0.390649 0.896873
O O3 0.618171 0.506729 0.945255
O O4 0.750000 0.250000 0.000000
O O5 0.454437 0.223330 0.921054
O O6 0.251629 0.101097 0.867663
O O7 0.403164 0.266502 0.991921
O O8 0.500000 0.000000 0.000000
O O9 0.255271 0.711240 0.269607
O O10 0.373456 0.975739 0.324341
O O11 0.500000 0.458781 0.750000
O O12 0.740361 0.349197 0.820150
O O13 0.028496 0.252652 0.623283
O O14 0.750000 0.750000 0.000000
#
# Coordination Sequence:
#
# PCOD9303290 Si02
#       6
#     8   8   8   8   8   8
#     4  12  25  42  67  99 138 174 230 285 336 406
#     4  11  22  43  69  96 137 181 227 283 348 418
#     4  11  23  42  67  98 134 176 223 279 346 401
#     4  11  22  43  68  96 132 182 221 267 355 413
#     4  11  24  43  69  94 137 175 226 280 340 419
#     4  12  24  42  70  99 130 180 232 276 340 419
#
# _framework density 19.766416
#
# number of rings (size 3 to 8) (size 9 to 14) (size 15 to 20)
#    0.000    0.667    6.667    3.000    2.333    0.667 
#    3.000    0.000    0.000    0.000    0.000    0.000 
#    0.000    0.000    0.000    0.000    0.000    0.000 
#
# Total GULP energy -133839.814981 kJ/mol
# GULP energy per Si atom -5576.658958 kJ/mol
# Density = 1.972143 g / cm^3
# Si number density = 19.766416 Si / 1000 Ang^3
#
#
#
# Elastic Constant Matrix: (Units=GPa)
#
#
# Indices 1 2 3 4 5 6 
#
# 1 85.5875 49.3434 25.7989 0.0000 1.9550 0.0000
# 2 49.3434 130.0179 44.5684 0.0000 -1.3513 0.0000
# 3 25.7989 44.5684 110.1418 0.0000 11.1266 0.0000
# 4 0.0000 0.0000 0.0000 38.8728 0.0000 3.9052
# 5 1.9550 -1.3513 11.1266 0.0000 50.7985 0.0000
# 6 0.0000 0.0000 0.0000 3.9052 0.0000 23.6498
#
#
#
# Elastic Compliance Matrix: (Units=1/GPa)
#
#
# Indices 1 2 3 4 5 6 
#
# 1 0.015154 -0.005287 -0.001367 0.000000 -0.000424 0.000000
# 2 -0.005287 0.010830 -0.003266 0.000000 0.001207 0.000000
# 3 -0.001367 -0.003266 0.010967 0.000000 -0.002436 0.000000
# 4 0.000000 0.000000 0.000000 0.026159 0.000000 -0.004320
# 5 -0.000424 0.001207 -0.002436 0.000000 0.020268 0.000000
# 6 0.000000 0.000000 0.000000 -0.004320 0.000000 0.042997
#
#
# Mechanical properties :
#
#
# Convention : Reuss Voigt Hill
#
# Bulk Modulus (GPa) = 58.44286 62.79650 60.61968
# Shear Modulus (GPa) = 32.91262 36.39998 34.65630
#
# Velocity S-wave (km/s) = 4.08496 4.29593 4.19178
# Velocity P-wave (km/s) = 7.20279 7.51299 7.35952
#
# Compressibility (1/GPa) = 0.01711073
#
# Stress axis : x y z
#
# Youngs Moduli (GPa) = 65.99022 92.33931 91.18191
#
# Poissons Ratio (x) = 0.48817 0.12468
# Poissons Ratio (y) = 0.34887 0.29778
# Poissons Ratio (z) = 0.09024 0.30156
#
# Static dielectric constant tensor:
#      x y z
#    x 1.730050 0.000000 -0.010790 
#    y 0.000000 1.646420 0.000000 
#    z -0.010790 0.000000 1.700980 
# 
# From -- ./inp_files/295404.got.cif
#   From: 2010.05.17/outbox.cif.g08.bks.cpg/sg15_148_cif.got.tgz:295404.got - 2010.06.03 18:47:42.
