data_PCOD9303480
_publ_section_title
;
Structure prediction by ZEFSAII (Michael W. Deem and Ramdas Pophale) SiO2 
 PCOD9303480
Probable space group: C 2/C
;
_chemical_formula_sum "Si O2"
_cell_formula_units_Z 52
_cell_length_a 18.026305
_cell_length_b 16.384305
_cell_length_c 9.099770
_cell_angle_alpha 90.000000
_cell_angle_beta 121.886843
_cell_angle_gamma 90.000000
_cell_volume 2282.025122
_symmetry_space_group_name_H-M "C 2/C"
_symmetry_group_IT_number 15
_symmetry_cell_setting 'monoclinic'
loop_
_space_group_symop_operation_xyz
x,y,z
-x,y,1/2-z
-x,-y,-z
x,-y,1/2+z
1/2+x,1/2+y,z
1/2-x,1/2+y,1/2-z
1/2-x,1/2-y,-z
1/2+x,1/2-y,1/2+z
loop_
_atom_site_type_symbol
_atom_site_label
_atom_site_fract_x
_atom_site_fract_y
_atom_site_fract_z
Si Si1 0.500000 0.351668 0.250000
Si Si2 0.239281 0.424135 0.655526
Si Si3 0.538013 0.925147 0.453273
Si Si4 0.255292 0.176365 0.620247
Si Si5 0.660206 0.420896 0.250686
Si Si6 0.210334 0.663438 0.411311
Si Si7 0.074718 0.300963 0.994900
O O1 0.567986 0.406213 0.230255
O O2 0.549149 0.290177 0.415656
O O3 0.139018 0.450046 0.558461
O O4 0.248896 0.398690 0.497429
O O5 0.313021 0.489445 0.777714
O O6 0.231793 0.349079 0.763159
O O7 0.500000 0.917869 0.250000
O O8 0.506130 0.844903 0.508861
O O9 0.500000 0.000000 0.500000
O O10 0.250000 0.250000 0.500000
O O11 0.178841 0.152050 0.653835
O O12 0.344450 0.187522 0.806473
O O13 0.734338 0.405894 0.450650
O O14 0.250000 0.750000 0.500000
O O15 0.114346 0.660242 0.384965
#
# Coordination Sequence:
#
# PCOD9303480 Si02
#       7
#     4   8   8   8   8   8   8
#     4  12  26  46  76 108 148 202 264 300 360 458
#     4  12  25  46  72 103 149 186 241 306 371 445
#     4  12  27  41  66 109 148 183 232 312 387 447
#     4  11  25  45  73 109 142 194 246 310 375 441
#     4  11  26  45  73 104 144 200 248 296 373 446
#     4  11  22  44  74 101 136 202 244 293 368 446
#     4  11  24  45  72 109 143 192 254 308 375 446
#
# _framework density 22.786778999999999
#
# number of rings (size 3 to 8) (size 9 to 14) (size 15 to 20)
#    0.000    0.615    3.077    5.538    7.538    0.000 
#    0.000    3.077    0.000    0.000    0.000    0.000 
#    0.000    0.000    0.000    0.000    0.000    0.000 
#
# Total GULP energy -145112.351514 kJ/mol
# GULP energy per Si atom -5581.244289 kJ/mol
# Density = 2.273492 g / cm^3
# Si number density = 22.786779 Si / 1000 Ang^3
#
#
#
# Elastic Constant Matrix: (Units=GPa)
#
#
# Indices 1 2 3 4 5 6 
#
# 1 190.1416 58.1569 36.1808 0.0000 -14.6077 0.0000
# 2 58.1569 101.1693 29.5114 0.0000 -6.9283 0.0000
# 3 36.1808 29.5114 115.8730 0.0000 -25.5061 0.0000
# 4 0.0000 0.0000 0.0000 -6.7494 0.0000 8.9665
# 5 -14.6077 -6.9283 -25.5061 0.0000 30.4608 0.0000
# 6 0.0000 0.0000 0.0000 8.9665 0.0000 38.5221
#
#
#
# Elastic Compliance Matrix: (Units=1/GPa)
#
#
# Indices 1 2 3 4 5 6 
#
# 1 0.006596 -0.003439 -0.000809 0.000000 0.001704 0.000000
# 2 -0.003439 0.012472 -0.002257 0.000000 -0.000703 0.000000
# 3 -0.000809 -0.002257 0.011351 0.000000 0.008604 0.000000
# 4 0.000000 0.000000 0.000000 -0.113167 0.000000 0.026341
# 5 0.001704 -0.000703 0.008604 0.000000 0.040691 0.000000
# 6 0.000000 0.000000 0.000000 0.026341 0.000000 0.019828
#
#
# Mechanical properties :
#
#
# Convention : Reuss Voigt Hill
#
# Bulk Modulus (GPa) = 57.44090 72.76468 65.10279
# Shear Modulus (GPa) = -1463.39420 31.33569 -716.02925
#
# Velocity S-wave (km/s) = -25.36939 3.71235 -17.74577
# Velocity P-wave (km/s) = 28.85964 7.09772 19.78006
#
# Compressibility (1/GPa) = 0.01740920
#
# Stress axis : x y z
#
# Youngs Moduli (GPa) = 151.60990 80.18169 88.09500
#
# Poissons Ratio (x) = 0.27575 0.07123
# Poissons Ratio (y) = 0.52140 0.19885
# Poissons Ratio (z) = 0.12259 0.18099
#
# Static dielectric constant tensor:
#      x y z
#    x 1.568770 0.000000 0.053540 
#    y 0.000000 1.942280 0.000000 
#    z 0.053540 0.000000 1.892220 
# 
# From -- ./inp_files/49225.got.cif
#   From: 2010.05.17/outbox.cif.g08.bks.cpg/sg15_25_cif.got.tgz:49225.got - 2010.06.03 18:47:42.
