data_PCOD9303566
_publ_section_title
;
Structure prediction by ZEFSAII (Michael W. Deem and Ramdas Pophale) SiO2 
 PCOD9303566
Probable space group: C 2/C
;
_chemical_formula_sum "Si O2"
_cell_formula_units_Z 56
_cell_length_a 9.523526
_cell_length_b 16.336110
_cell_length_c 24.428449
_cell_angle_alpha 90.000000
_cell_angle_beta 130.931519
_cell_angle_gamma 90.000000
_cell_volume 2871.262244
_symmetry_space_group_name_H-M "C 2/C"
_symmetry_group_IT_number 15
_symmetry_cell_setting 'monoclinic'
loop_
_space_group_symop_operation_xyz
x,y,z
-x,y,1/2-z
-x,-y,-z
x,-y,1/2+z
1/2+x,1/2+y,z
1/2-x,1/2+y,1/2-z
1/2-x,1/2-y,-z
1/2+x,1/2-y,1/2+z
loop_
_atom_site_type_symbol
_atom_site_label
_atom_site_fract_x
_atom_site_fract_y
_atom_site_fract_z
Si Si1 0.265596 0.136019 0.404040
Si Si2 0.570182 0.698900 0.709606
Si Si3 0.657250 0.447823 0.380087
Si Si4 0.500798 0.213195 0.688328
Si Si5 0.874539 0.692902 0.069757
Si Si6 0.676228 0.538802 0.014680
Si Si7 0.944273 0.609435 0.564927
O O1 0.457941 0.149801 0.420601
O O2 0.322929 0.144332 0.482988
O O3 0.122309 0.204811 0.346854
O O4 0.182460 0.044665 0.374812
O O5 0.500000 0.724476 0.750000
O O6 0.517222 0.602784 0.688277
O O7 0.781670 0.724609 0.762686
O O8 0.462234 0.747987 0.636220
O O9 0.640367 0.440535 0.441596
O O10 0.846824 0.405980 0.404898
O O11 0.500000 0.176486 0.750000
O O12 0.441637 0.160568 0.620244
O O13 0.743514 0.622022 0.060049
O O14 0.750000 0.750000 0.000000
O O15 0.845892 0.475497 0.055328
O O16 0.500000 0.500000 0.000000
#
# Coordination Sequence:
#
# PCOD9303566 Si02
#       7
#     8   8   8   8   8   8   8
#     4  11  23  45  74  99 132 181 241 278 337 416
#     4  12  26  45  68  99 141 181 230 278 355 415
#     4  11  22  47  71  96 132 186 228 280 342 418
#     4  12  27  43  66 103 141 182 227 288 351 411
#     4  12  23  43  74  98 138 180 227 289 345 402
#     4  11  24  40  70 108 134 166 232 293 341 397
#     4  11  22  45  72  99 135 183 236 278 339 416
#
# _framework density 19.503616000000001
#
# number of rings (size 3 to 8) (size 9 to 14) (size 15 to 20)
#    0.000    0.571    7.143    1.286    4.000    2.857 
#    2.571    0.714    0.000    0.000    0.000    0.000 
#    0.000    0.000    0.000    0.000    0.000    0.000 
#
# Total GULP energy -156277.913192 kJ/mol
# GULP energy per Si atom -5581.354043 kJ/mol
# Density = 1.945923 g / cm^3
# Si number density = 19.503616 Si / 1000 Ang^3
#
#
#
# Elastic Constant Matrix: (Units=GPa)
#
#
# Indices 1 2 3 4 5 6 
#
# 1 96.1753 27.0602 15.8003 0.0000 4.4876 0.0000
# 2 27.0602 92.6816 45.9672 0.0000 1.2285 0.0000
# 3 15.8003 45.9672 95.5358 0.0000 -1.9828 0.0000
# 4 0.0000 0.0000 0.0000 2.8271 0.0000 -5.8390
# 5 4.4876 1.2285 -1.9828 0.0000 41.1587 0.0000
# 6 0.0000 0.0000 0.0000 -5.8390 0.0000 27.4632
#
#
#
# Elastic Compliance Matrix: (Units=1/GPa)
#
#
# Indices 1 2 3 4 5 6 
#
# 1 0.011394 -0.003106 -0.000414 0.000000 -0.001170 0.000000
# 2 -0.003106 0.015041 -0.006733 0.000000 -0.000435 0.000000
# 3 -0.000414 -0.006733 0.013794 0.000000 0.000911 0.000000
# 4 0.000000 0.000000 0.000000 0.630655 0.000000 0.134084
# 5 -0.001170 -0.000435 0.000911 0.000000 0.024481 0.000000
# 6 0.000000 0.000000 0.000000 0.134084 0.000000 0.064920
#
#
# Mechanical properties :
#
#
# Convention : Reuss Voigt Hill
#
# Bulk Modulus (GPa) = 50.69894 51.33867 51.01881
# Shear Modulus (GPa) = 6.35029 27.32746 16.83888
#
# Velocity S-wave (km/s) = 1.80638 3.74725 2.94151
# Velocity P-wave (km/s) = 5.51378 6.71583 6.14427
#
# Compressibility (1/GPa) = 0.01972428
#
# Stress axis : x y z
#
# Youngs Moduli (GPa) = 87.76419 66.48371 72.49491
#
# Poissons Ratio (x) = 0.20648 0.03004
# Poissons Ratio (y) = 0.27257 0.48807
# Poissons Ratio (z) = 0.03637 0.44760
#
# Static dielectric constant tensor:
#      x y z
#    x 1.669780 0.000000 -0.020990 
#    y 0.000000 1.689590 0.000000 
#    z -0.020990 0.000000 1.719120 
# 
# From -- ./inp_files/265601.got.cif
#   From: 2010.05.17/outbox.cif.g08.bks.cpg/sg15_133_cif.got.tgz:265601.got - 2010.06.03 18:47:42.
