data_PCOD9303487
_publ_section_title
;
Structure prediction by ZEFSAII (Michael W. Deem and Ramdas Pophale) SiO2 
 PCOD9303487
Probable space group: C 2/C
;
_chemical_formula_sum "Si O2"
_cell_formula_units_Z 40
_cell_length_a 22.999188
_cell_length_b 7.211931
_cell_length_c 10.665033
_cell_angle_alpha 90.000000
_cell_angle_beta 103.236303
_cell_angle_gamma 90.000000
_cell_volume 1721.998589
_symmetry_space_group_name_H-M "C 2/C"
_symmetry_group_IT_number 15
_symmetry_cell_setting 'monoclinic'
loop_
_space_group_symop_operation_xyz
x,y,z
-x,y,1/2-z
-x,-y,-z
x,-y,1/2+z
1/2+x,1/2+y,z
1/2-x,1/2+y,1/2-z
1/2-x,1/2-y,-z
1/2+x,1/2-y,1/2+z
loop_
_atom_site_type_symbol
_atom_site_label
_atom_site_fract_x
_atom_site_fract_y
_atom_site_fract_z
Si Si1 0.435380 0.386680 0.717511
Si Si2 0.962322 0.498937 0.853094
Si Si3 0.681084 0.521495 0.208810
Si Si4 0.131249 0.299001 0.539839
Si Si5 0.212508 0.376239 0.076324
O O1 0.500000 0.483992 0.750000
O O2 0.445267 0.209731 0.812156
O O3 0.378603 0.498008 0.737883
O O4 0.415702 0.298567 0.575595
O O5 0.903887 0.381223 0.858154
O O6 0.000000 0.434516 0.750000
O O7 0.000000 0.500000 0.000000
O O8 0.740182 0.491665 0.318472
O O9 0.680853 0.724151 0.148005
O O10 0.676915 0.360615 0.103322
O O11 0.165965 0.474771 0.497772
O O12 0.250000 0.250000 0.000000
#
# Coordination Sequence:
#
# PCOD9303487 Si02
#       5
#     8   8   8   8   8
#     4  11  25  47  73 111 150 190 255 309 371 464
#     4  11  22  44  74 106 152 201 246 308 377 451
#     4  12  27  47  73 108 144 195 249 312 375 448
#     4  12  26  47  77 107 151 200 248 314 384 449
#     4  12  28  46  72 106 145 193 251 308 375 447
#
# _framework density 23.228822999999998
#
# number of rings (size 3 to 8) (size 9 to 14) (size 15 to 20)
#    0.000    0.400    8.000    1.200    5.600    3.200 
#    3.600    0.000    0.000    0.000    0.000    0.000 
#    0.000    0.000    0.000    0.000    0.000    0.000 
#
# Total GULP energy -111868.745410 kJ/mol
# GULP energy per Si atom -5593.437271 kJ/mol
# Density = 2.317595 g / cm^3
# Si number density = 23.228823 Si / 1000 Ang^3
#
#
#
# Elastic Constant Matrix: (Units=GPa)
#
#
# Indices 1 2 3 4 5 6 
#
# 1 110.4291 19.3332 8.5065 0.0000 -11.3012 0.0000
# 2 19.3332 82.1155 -0.0183 0.0000 -0.8905 0.0000
# 3 8.5065 -0.0183 70.5638 0.0000 0.1579 0.0000
# 4 0.0000 0.0000 0.0000 15.0742 0.0000 -6.3262
# 5 -11.3012 -0.8905 0.1579 0.0000 35.4607 0.0000
# 6 0.0000 0.0000 0.0000 -6.3262 0.0000 37.9508
#
#
#
# Elastic Compliance Matrix: (Units=1/GPa)
#
#
# Indices 1 2 3 4 5 6 
#
# 1 0.009865 -0.002289 -0.001197 0.000000 0.003092 0.000000
# 2 -0.002289 0.012713 0.000280 0.000000 -0.000412 0.000000
# 3 -0.001197 0.000280 0.014317 0.000000 -0.000438 0.000000
# 4 0.000000 0.000000 0.000000 0.071328 0.000000 0.011890
# 5 0.003092 -0.000412 -0.000438 0.000000 0.029177 0.000000
# 6 0.000000 0.000000 0.000000 0.011890 0.000000 0.028332
#
#
# Mechanical properties :
#
#
# Convention : Reuss Voigt Hill
#
# Bulk Modulus (GPa) = 32.80553 35.41681 34.11117
# Shear Modulus (GPa) = 27.42664 33.38296 30.40480
#
# Velocity S-wave (km/s) = 3.43988 3.79507 3.62183
# Velocity P-wave (km/s) = 5.47088 5.87226 5.67512
#
# Compressibility (1/GPa) = 0.03048266
#
# Stress axis : x y z
#
# Youngs Moduli (GPa) = 101.36870 78.66231 69.84760
#
# Poissons Ratio (x) = 0.18008 0.08359
# Poissons Ratio (y) = 0.23207 -0.01957
# Poissons Ratio (z) = 0.12131 -0.02204
#
# Static dielectric constant tensor:
#      x y z
#    x 1.977160 0.000000 -0.045410 
#    y 0.000000 1.880580 0.000000 
#    z -0.045410 0.000000 0.674130 
# 
# From -- ./inp_files/54198.got.cif
#   From: 2010.05.17/outbox.cif.g08.bks.cpg/sg15_28_cif.got.tgz:54198.got - 2010.06.03 18:47:42.
