data_PCOD9303610
_publ_section_title
;
Structure prediction by ZEFSAII (Michael W. Deem and Ramdas Pophale) SiO2 
 PCOD9303610
Probable space group: C 2/C
;
_chemical_formula_sum "Si O2"
_cell_formula_units_Z 60
_cell_length_a 13.251951
_cell_length_b 8.688340
_cell_length_c 23.762907
_cell_angle_alpha 90.000000
_cell_angle_beta 63.103255
_cell_angle_gamma 90.000000
_cell_volume 2440.028947
_symmetry_space_group_name_H-M "C 2/C"
_symmetry_group_IT_number 15
_symmetry_cell_setting 'monoclinic'
loop_
_space_group_symop_operation_xyz
x,y,z
-x,y,1/2-z
-x,-y,-z
x,-y,1/2+z
1/2+x,1/2+y,z
1/2-x,1/2+y,1/2-z
1/2-x,1/2-y,-z
1/2+x,1/2-y,1/2+z
loop_
_atom_site_type_symbol
_atom_site_label
_atom_site_fract_x
_atom_site_fract_y
_atom_site_fract_z
Si Si1 0.315872 0.896217 0.336163
Si Si2 0.500000 0.000000 0.000000
Si Si3 0.614339 0.684058 0.759218
Si Si4 0.482268 0.903856 0.866635
Si Si5 0.221332 0.178454 0.566066
Si Si6 0.172274 0.808533 0.864208
Si Si7 0.095516 0.175838 0.272869
Si Si8 0.734531 0.160433 0.446905
O O1 0.333321 0.819664 0.270671
O O2 0.280653 0.756392 0.384016
O O3 0.428570 0.974828 0.334794
O O4 0.213625 0.019504 0.367137
O O5 0.513320 0.033879 0.070394
O O6 0.396020 0.117042 0.025113
O O7 0.500000 0.689603 0.750000
O O8 0.590837 0.810928 0.814525
O O9 0.719489 0.742408 0.696352
O O10 0.636518 0.502669 0.765543
O O11 0.387255 0.770420 0.888093
O O12 0.250000 0.250000 0.500000
O O13 0.331670 0.209245 0.577904
O O14 0.199743 0.000337 0.568514
O O15 0.072505 0.793652 0.844714
O O16 0.000000 0.169038 0.250000
O O17 0.750000 0.250000 0.500000
#
# Coordination Sequence:
#
# PCOD9303610 Si02
#       8
#     8   4   8   8   8   8   8   8
#     4  11  24  44  71 101 143 183 241 308 368 440
#     4  12  26  46  74 108 144 192 256 298 380 440
#     4  11  22  46  70  98 145 187 241 297 369 451
#     4  11  25  47  73 106 140 201 239 306 383 443
#     4  11  22  47  73  97 143 186 234 298 371 437
#     4  11  24  45  70 106 139 199 234 297 386 434
#     4  11  27  42  65 107 146 185 241 301 358 445
#     4  12  25  47  71 103 142 187 247 309 362 443
#
# _framework density 24.589870000000001
#
# number of rings (size 3 to 8) (size 9 to 14) (size 15 to 20)
#    0.000    0.800    5.333    2.400    7.467    1.067 
#    0.000    0.667    0.000    0.000    0.000    0.000 
#    0.000    0.000    0.000    0.000    0.000    0.000 
#
# Total GULP energy -167215.549807 kJ/mol
# GULP energy per Si atom -5573.851660 kJ/mol
# Density = 2.453390 g / cm^3
# Si number density = 24.589870 Si / 1000 Ang^3
#
#
#
# Elastic Constant Matrix: (Units=GPa)
#
#
# Indices 1 2 3 4 5 6 
#
# 1 95.0740 29.9083 22.2265 0.0000 30.1344 0.0000
# 2 29.9083 163.5935 43.5729 0.0000 24.9772 0.0000
# 3 22.2265 43.5729 108.6257 0.0000 50.4368 0.0000
# 4 0.0000 0.0000 0.0000 42.4446 0.0000 11.1848
# 5 30.1344 24.9772 50.4368 0.0000 45.9327 0.0000
# 6 0.0000 0.0000 0.0000 11.1848 0.0000 31.3975
#
#
#
# Elastic Compliance Matrix: (Units=1/GPa)
#
#
# Indices 1 2 3 4 5 6 
#
# 1 0.014057 -0.001629 0.003362 0.000000 -0.012028 0.000000
# 2 -0.001629 0.007080 -0.002479 0.000000 -0.000059 0.000000
# 3 0.003362 -0.002479 0.020220 0.000000 -0.023060 0.000000
# 4 0.000000 0.000000 0.000000 0.026001 0.000000 -0.009262
# 5 -0.012028 -0.000059 -0.023060 0.000000 0.055015 0.000000
# 6 0.000000 0.000000 0.000000 -0.009262 0.000000 0.035149
#
#
# Mechanical properties :
#
#
# Convention : Reuss Voigt Hill
#
# Bulk Modulus (GPa) = 25.08555 62.07874 43.58214
# Shear Modulus (GPa) = 29.01885 42.06065 35.53975
#
# Velocity S-wave (km/s) = 3.43901 4.14029 3.80584
# Velocity P-wave (km/s) = 5.09831 6.93949 6.08889
#
# Compressibility (1/GPa) = 0.03986359
#
# Stress axis : x y z
#
# Youngs Moduli (GPa) = 71.13923 141.24581 49.45707
#
# Poissons Ratio (x) = 0.23008 -0.16627
# Poissons Ratio (y) = 0.11588 0.12262
# Poissons Ratio (z) = -0.23917 0.35020
#
# Static dielectric constant tensor:
#      x y z
#    x 2.073360 0.000000 -0.777300 
#    y 0.000000 1.270940 0.000000 
#    z -0.777300 0.000000 -7.097330 
# 
# From -- ./inp_files/273121.got.cif
#   From: 2010.05.17/outbox.cif.g08.bks.cpg/sg15_137_cif.got.tgz:273121.got - 2010.06.03 18:47:42.
