data_PCOD9303240
_publ_section_title
;
Structure prediction by ZEFSAII (Michael W. Deem and Ramdas Pophale) SiO2 
 PCOD9303240
Probable space group: C 2/C
;
_chemical_formula_sum "Si O2"
_cell_formula_units_Z 56
_cell_length_a 17.113305
_cell_length_b 11.312035
_cell_length_c 11.761403
_cell_angle_alpha 90.000000
_cell_angle_beta 69.279482
_cell_angle_gamma 90.000000
_cell_volume 2129.574171
_symmetry_space_group_name_H-M "C 2/C"
_symmetry_group_IT_number 15
_symmetry_cell_setting 'monoclinic'
loop_
_space_group_symop_operation_xyz
x,y,z
-x,y,1/2-z
-x,-y,-z
x,-y,1/2+z
1/2+x,1/2+y,z
1/2-x,1/2+y,1/2-z
1/2-x,1/2-y,-z
1/2+x,1/2-y,1/2+z
loop_
_atom_site_type_symbol
_atom_site_label
_atom_site_fract_x
_atom_site_fract_y
_atom_site_fract_z
Si Si1 0.123754 0.482610 0.409208
Si Si2 0.563388 0.794204 0.615387
Si Si3 0.598636 0.438766 0.192166
Si Si4 0.871193 0.316834 0.303638
Si Si5 0.798313 0.928761 0.048180
Si Si6 0.205900 0.913565 0.766693
Si Si7 0.933921 0.262751 0.504478
O O1 0.072340 0.602140 0.449709
O O2 0.101325 0.411035 0.305577
O O3 0.217544 0.530705 0.342698
O O4 0.109880 0.602296 0.024218
O O5 0.500000 0.832742 0.750000
O O6 0.619919 0.695485 0.648457
O O7 0.512172 0.722715 0.541417
O O8 0.500000 0.446010 0.250000
O O9 0.632529 0.490242 0.291423
O O10 0.640708 0.529373 0.083234
O O11 0.793571 0.371241 0.415328
O O12 0.828889 0.210795 0.253324
O O13 0.935558 0.273225 0.366746
O O14 0.852200 0.816278 0.069043
O O15 0.773672 0.057144 0.114965
#
# Coordination Sequence:
#
# PCOD9303240 Si02
#       7
#     8   8   8   8   8   8   8
#     4  11  26  45  75 107 142 194 247 292 365 436
#     4  11  27  48  68 104 149 193 243 300 366 435
#     4  11  24  44  68 104 141 184 238 292 365 429
#     4  11  24  46  75 110 145 187 251 301 363 434
#     4  11  22  42  74 104 145 183 239 302 358 431
#     4  11  23  46  75 107 143 189 238 304 363 432
#     4  12  24  46  73 101 151 190 235 305 362 429
#
# _framework density 26.296337999999999
#
# number of rings (size 3 to 8) (size 9 to 14) (size 15 to 20)
#    0.000    0.857    2.857    4.286    2.000    4.571 
#    0.000    0.000    0.000    0.000    0.000    0.000 
#    0.000    0.000    0.000    0.000    0.000    0.000 
#
# Total GULP energy -156407.497796 kJ/mol
# GULP energy per Si atom -5585.982064 kJ/mol
# Density = 2.623649 g / cm^3
# Si number density = 26.296338 Si / 1000 Ang^3
#
#
#
# Elastic Constant Matrix: (Units=GPa)
#
#
# Indices 1 2 3 4 5 6 
#
# 1 42.0307 4.8664 11.7838 0.0000 -4.3216 0.0000
# 2 4.8664 105.5534 48.5705 0.0000 1.5886 0.0000
# 3 11.7838 48.5705 128.0075 0.0000 -11.4487 0.0000
# 4 0.0000 0.0000 0.0000 64.1020 0.0000 7.8736
# 5 -4.3216 1.5886 -11.4487 0.0000 36.7188 0.0000
# 6 0.0000 0.0000 0.0000 7.8736 0.0000 28.4048
#
#
#
# Elastic Compliance Matrix: (Units=1/GPa)
#
#
# Indices 1 2 3 4 5 6 
#
# 1 0.024608 -0.000268 -0.001958 0.000000 0.002297 0.000000
# 2 -0.000268 0.011612 -0.004556 0.000000 -0.001955 0.000000
# 3 -0.001958 -0.004556 0.009997 0.000000 0.003084 0.000000
# 4 0.000000 0.000000 0.000000 0.016150 0.000000 -0.004477
# 5 0.002297 -0.001955 0.003084 0.000000 0.028550 0.000000
# 6 0.000000 0.000000 0.000000 -0.004477 0.000000 0.036446
#
#
# Mechanical properties :
#
#
# Convention : Reuss Voigt Hill
#
# Bulk Modulus (GPa) = 30.62545 45.11479 37.87012
# Shear Modulus (GPa) = 32.93522 39.86984 36.40253
#
# Velocity S-wave (km/s) = 3.54286 3.89803 3.72468
# Velocity P-wave (km/s) = 5.32985 6.11989 5.73849
#
# Compressibility (1/GPa) = 0.03265258
#
# Stress axis : x y z
#
# Youngs Moduli (GPa) = 40.63654 86.11635 100.03117
#
# Poissons Ratio (x) = 0.02309 0.19588
# Poissons Ratio (y) = 0.01089 0.45576
# Poissons Ratio (z) = 0.07957 0.39236
#
# Static dielectric constant tensor:
#      x y z
#    x 2.314340 0.000000 0.368030 
#    y 0.000000 2.035970 0.000000 
#    z 0.368030 0.000000 2.640650 
# 
# From -- ./inp_files/110969.got.cif
#   From: 2010.05.17/outbox.cif.g08.bks.cpg/sg15_56_cif.got.tgz:110969.got - 2010.06.03 18:47:42.
