data_PCOD9303516
_publ_section_title
;
Structure prediction by ZEFSAII (Michael W. Deem and Ramdas Pophale) SiO2 
 PCOD9303516
Probable space group: C 2/C
;
_chemical_formula_sum "Si O2"
_cell_formula_units_Z 56
_cell_length_a 8.244031
_cell_length_b 21.631658
_cell_length_c 20.994604
_cell_angle_alpha 90.000000
_cell_angle_beta 134.406002
_cell_angle_gamma 90.000000
_cell_volume 2674.719120
_symmetry_space_group_name_H-M "C 2/C"
_symmetry_group_IT_number 15
_symmetry_cell_setting 'monoclinic'
loop_
_space_group_symop_operation_xyz
x,y,z
-x,y,1/2-z
-x,-y,-z
x,-y,1/2+z
1/2+x,1/2+y,z
1/2-x,1/2+y,1/2-z
1/2-x,1/2-y,-z
1/2+x,1/2-y,1/2+z
loop_
_atom_site_type_symbol
_atom_site_label
_atom_site_fract_x
_atom_site_fract_y
_atom_site_fract_z
Si Si1 0.545890 0.000519 0.870337
Si Si2 0.855062 0.019256 0.831120
Si Si3 0.964247 0.371553 0.563973
Si Si4 0.274146 0.418510 0.536907
Si Si5 0.918346 0.202915 0.009349
Si Si6 0.948777 0.723930 0.165277
Si Si7 0.966190 0.161288 0.883025
O O1 0.713278 0.005493 0.856309
O O2 0.295098 0.003939 0.771919
O O3 0.589029 0.935731 0.916021
O O4 0.603611 0.053392 0.937295
O O5 0.074874 0.975601 0.896216
O O6 0.892706 0.092651 0.844442
O O7 0.140447 0.386651 0.557411
O O8 0.042797 0.323448 0.638775
O O9 0.733088 0.344731 0.471894
O O10 0.416635 0.364281 0.542552
O O11 0.176116 0.227315 0.082496
O O12 0.750000 0.250000 0.000000
O O13 0.858096 0.188671 0.918677
O O14 0.059446 0.789918 0.180485
O O15 0.000000 0.702189 0.250000
#
# Coordination Sequence:
#
# PCOD9303516 Si02
#       7
#     8   8   8   8   8   8   8
#     4  11  24  42  67 100 137 178 223 280 341 407
#     4  11  24  41  68 100 136 180 225 279 347 406
#     4  11  24  43  71  96 138 176 229 273 342 412
#     4  12  23  44  68 104 136 179 226 283 340 411
#     4  11  23  43  72  96 130 181 233 275 344 411
#     4  11  26  46  67  99 136 182 225 289 342 402
#     4  11  22  45  67  95 137 181 223 278 346 405
#
# _framework density 20.936776999999999
#
# number of rings (size 3 to 8) (size 9 to 14) (size 15 to 20)
#    0.000    0.857    2.857    6.000    4.000    2.857 
#    0.000    1.429    0.000    0.000    0.000    0.000 
#    0.000    0.000    0.000    0.000    0.000    0.000 
#
# Total GULP energy -156599.113957 kJ/mol
# GULP energy per Si atom -5592.825498 kJ/mol
# Density = 2.088912 g / cm^3
# Si number density = 20.936777 Si / 1000 Ang^3
#
#
#
# Elastic Constant Matrix: (Units=GPa)
#
#
# Indices 1 2 3 4 5 6 
#
# 1 84.8609 27.7183 22.7414 0.0000 -12.7013 0.0000
# 2 27.7183 90.5052 6.9161 0.0000 -11.2497 0.0000
# 3 22.7414 6.9161 78.1070 0.0000 -10.2535 0.0000
# 4 0.0000 0.0000 0.0000 26.0425 0.0000 -8.2206
# 5 -12.7013 -11.2497 -10.2535 0.0000 16.0894 0.0000
# 6 0.0000 0.0000 0.0000 -8.2206 0.0000 44.6992
#
#
#
# Elastic Compliance Matrix: (Units=1/GPa)
#
#
# Indices 1 2 3 4 5 6 
#
# 1 0.014811 -0.003385 -0.003043 0.000000 0.007386 0.000000
# 2 -0.003385 0.012875 0.000738 0.000000 0.006800 0.000000
# 3 -0.003043 0.000738 0.014597 0.000000 0.007417 0.000000
# 4 0.000000 0.000000 0.000000 0.040765 0.000000 0.007497
# 5 0.007386 0.006800 0.007417 0.000000 0.077464 0.000000
# 6 0.000000 0.000000 0.000000 0.007497 0.000000 0.023751
#
#
# Mechanical properties :
#
#
# Convention : Reuss Voigt Hill
#
# Bulk Modulus (GPa) = 32.35975 40.91387 36.63681
# Shear Modulus (GPa) = 24.27852 30.43935 27.35894
#
# Velocity S-wave (km/s) = 3.40900 3.81710 3.61881
# Velocity P-wave (km/s) = 5.56638 6.24588 5.91589
#
# Compressibility (1/GPa) = 0.03090259
#
# Stress axis : x y z
#
# Youngs Moduli (GPa) = 67.51910 77.67159 68.50643
#
# Poissons Ratio (x) = 0.26295 0.20846
# Poissons Ratio (y) = 0.22858 -0.05058
# Poissons Ratio (z) = 0.20546 -0.05735
#
# Static dielectric constant tensor:
#      x y z
#    x 1.761540 0.000000 0.014200 
#    y 0.000000 1.757090 0.000000 
#    z 0.014200 0.000000 1.758960 
# 
# From -- ./inp_files/233917.got.cif
#   From: 2010.05.17/outbox.cif.g08.bks.cpg/sg15_117_cif.got.tgz:233917.got - 2010.06.03 18:47:42.
