data_PCOD9303197
_publ_section_title
;
Structure prediction by ZEFSAII (Michael W. Deem and Ramdas Pophale) SiO2 
 PCOD9303197
Probable space group: C 2/C
;
_chemical_formula_sum "Si O2"
_cell_formula_units_Z 28
_cell_length_a 11.786734
_cell_length_b 7.161952
_cell_length_c 15.085738
_cell_angle_alpha 90.000000
_cell_angle_beta 49.624388
_cell_angle_gamma 90.000000
_cell_volume 970.153517
_symmetry_space_group_name_H-M "C 2/C"
_symmetry_group_IT_number 15
_symmetry_cell_setting 'monoclinic'
loop_
_space_group_symop_operation_xyz
x,y,z
-x,y,1/2-z
-x,-y,-z
x,-y,1/2+z
1/2+x,1/2+y,z
1/2-x,1/2+y,1/2-z
1/2-x,1/2-y,-z
1/2+x,1/2-y,1/2+z
loop_
_atom_site_type_symbol
_atom_site_label
_atom_site_fract_x
_atom_site_fract_y
_atom_site_fract_z
Si Si1 0.130735 0.070267 0.124812
Si Si2 0.365726 0.190293 0.578730
Si Si3 0.000000 0.000000 0.500000
Si Si4 0.149092 0.536974 0.715595
O O1 0.272190 0.938027 0.061289
O O2 0.000000 0.984225 0.250000
O O3 0.162046 0.272692 0.151776
O O4 0.060155 0.082837 0.065314
O O5 0.507081 0.274541 0.457496
O O6 0.293740 0.402767 0.630561
O O7 0.365825 0.093873 0.674167
O O8 0.000000 0.447846 0.750000
#
# Coordination Sequence:
#
# PCOD9303197 Si02
#       4
#     8   8   4   8
#     4  11  23  46  67  97 136 173 221 272 326 394
#     4  12  23  42  69  97 133 176 218 272 330 390
#     4  12  24  44  68 100 138 170 220 278 324 394
#     4  11  22  42  70  94 130 175 220 266 330 391
#
# _framework density 28.861409999999999
#
# number of rings (size 3 to 8) (size 9 to 14) (size 15 to 20)
#    0.000    0.571    8.571    1.714    0.000    1.143 
#    0.000    2.857    0.000    0.000    0.000    0.000 
#    0.000    0.000    0.000    0.000    0.000    0.000 
#
# Total GULP energy -78237.607636 kJ/mol
# GULP energy per Si atom -5588.400545 kJ/mol
# Density = 2.879572 g / cm^3
# Si number density = 28.861410 Si / 1000 Ang^3
#
#
#
# Elastic Constant Matrix: (Units=GPa)
#
#
# Indices 1 2 3 4 5 6 
#
# 1 171.3084 75.3349 15.0941 0.0000 14.1024 0.0000
# 2 75.3349 196.0965 38.0174 0.0000 1.3764 0.0000
# 3 15.0941 38.0174 33.4466 0.0000 -6.1773 0.0000
# 4 0.0000 0.0000 0.0000 74.8352 0.0000 48.1039
# 5 14.1024 1.3764 -6.1773 0.0000 44.3531 0.0000
# 6 0.0000 0.0000 0.0000 48.1039 0.0000 326.1129
#
#
#
# Elastic Compliance Matrix: (Units=1/GPa)
#
#
# Indices 1 2 3 4 5 6 
#
# 1 0.007248 -0.002631 -0.000710 0.000000 -0.002322 0.000000
# 2 -0.002631 0.007566 -0.007495 0.000000 -0.000442 0.000000
# 3 -0.000710 -0.007495 0.039847 0.000000 0.006008 0.000000
# 4 0.000000 0.000000 0.000000 0.014762 0.000000 -0.002178
# 5 -0.002322 -0.000442 0.006008 0.000000 0.024135 0.000000
# 6 0.000000 0.000000 0.000000 -0.002178 0.000000 0.003388
#
#
# Mechanical properties :
#
#
# Convention : Reuss Voigt Hill
#
# Bulk Modulus (GPa) = 30.31089 73.08269 51.69679
# Shear Modulus (GPa) = 38.57622 107.22060 72.89841
#
# Velocity S-wave (km/s) = 3.65992 6.10171 5.03120
# Velocity P-wave (km/s) = 5.32776 8.66129 7.19038
#
# Compressibility (1/GPa) = 0.03299144
#
# Stress axis : x y z
#
# Youngs Moduli (GPa) = 137.97097 132.16604 25.09584
#
# Poissons Ratio (x) = 0.34767 0.01781
# Poissons Ratio (y) = 0.36294 0.18809
# Poissons Ratio (z) = 0.09791 0.99055
#
# Static dielectric constant tensor:
#      x y z
#    x 15.526460 0.000000 -16.172570 
#    y 0.000000 2.610570 0.000000 
#    z -16.172570 0.000000 21.518980 
# 
# From -- ./inp_files/140445.got.cif
#   From: 2010.05.17/outbox.cif.g08.bks.cpg/sg15_71_cif.got.tgz:140445.got - 2010.06.03 18:47:42.
