data_PCOD9303270
_publ_section_title
;
Structure prediction by ZEFSAII (Michael W. Deem and Ramdas Pophale) SiO2 
 PCOD9303270
Probable space group: C 2/C
;
_chemical_formula_sum "Si O2"
_cell_formula_units_Z 60
_cell_length_a 16.784750
_cell_length_b 5.268770
_cell_length_c 26.651824
_cell_angle_alpha 90.000000
_cell_angle_beta 92.955867
_cell_angle_gamma 90.000000
_cell_volume 2353.817909
_symmetry_space_group_name_H-M "C 2/C"
_symmetry_group_IT_number 15
_symmetry_cell_setting 'monoclinic'
loop_
_space_group_symop_operation_xyz
x,y,z
-x,y,1/2-z
-x,-y,-z
x,-y,1/2+z
1/2+x,1/2+y,z
1/2-x,1/2+y,1/2-z
1/2-x,1/2-y,-z
1/2+x,1/2-y,1/2+z
loop_
_atom_site_type_symbol
_atom_site_label
_atom_site_fract_x
_atom_site_fract_y
_atom_site_fract_z
Si Si1 0.288492 0.873338 0.179145
Si Si2 0.685224 0.036251 0.515908
Si Si3 0.645797 0.733145 0.608842
Si Si4 0.883192 0.345605 0.081528
Si Si5 0.543572 0.652681 0.044360
Si Si6 0.524106 0.828246 0.854237
Si Si7 0.500000 0.880907 0.750000
Si Si8 0.633790 0.601788 0.786183
O O1 0.198677 0.850141 0.157412
O O2 0.334093 0.789334 0.129664
O O3 0.317293 0.655021 0.218549
O O4 0.311025 0.159132 0.195517
O O5 0.750000 0.250000 0.500000
O O6 0.593206 0.130905 0.518163
O O7 0.692820 0.917442 0.571766
O O8 0.672336 0.840169 0.469316
O O9 0.613566 0.497284 0.575192
O O10 0.562787 0.844967 0.625781
O O11 0.968965 0.216649 0.077272
O O12 0.914215 0.625997 0.098548
O O13 0.500000 0.500000 0.000000
O O14 0.522063 0.011233 0.803571
O O15 0.563546 0.591956 0.826313
O O16 0.577803 0.709610 0.740231
#
# Coordination Sequence:
#
# PCOD9303270 Si02
#       8
#     8   8   8   8   8   8   4   8
#     4  11  25  40  68  99 139 180 220 281 357 412
#     4  12  27  40  60  95 141 180 229 285 344 414
#     4  12  25  41  63  97 137 184 225 288 346 415
#     4  11  22  43  66  94 130 184 232 288 338 413
#     4  12  24  40  63  92 129 183 243 281 332 400
#     4   9  20  43  69  95 128 173 230 284 343 412
#     4   8  20  44  76  98 130 168 236 288 348 418
#     4   9  22  45  69  99 131 175 226 282 348 425
#
# _framework density 25.490501999999999
#
# number of rings (size 3 to 8) (size 9 to 14) (size 15 to 20)
#    0.800    0.533    2.667    2.800    7.467    1.600 
#    0.000    1.333    0.000    0.000    0.000    0.000 
#    0.000    0.000    0.000    0.000    0.000    0.000 
#
# Total GULP energy -167063.497008 kJ/mol
# GULP energy per Si atom -5568.783234 kJ/mol
# Density = 2.543248 g / cm^3
# Si number density = 25.490502 Si / 1000 Ang^3
#
#
#
# Elastic Constant Matrix: (Units=GPa)
#
#
# Indices 1 2 3 4 5 6 
#
# 1 136.0152 16.3272 25.1275 0.0000 -7.8240 0.0000
# 2 16.3272 63.9767 5.0524 0.0000 2.5396 0.0000
# 3 25.1275 5.0524 80.7548 0.0000 -5.5214 0.0000
# 4 0.0000 0.0000 0.0000 18.7351 0.0000 12.7162
# 5 -7.8240 2.5396 -5.5214 0.0000 67.0615 0.0000
# 6 0.0000 0.0000 0.0000 12.7162 0.0000 31.7157
#
#
#
# Elastic Compliance Matrix: (Units=1/GPa)
#
#
# Indices 1 2 3 4 5 6 
#
# 1 0.008059 -0.001905 -0.002332 0.000000 0.000820 0.000000
# 2 -0.001905 0.016189 -0.000480 0.000000 -0.000875 0.000000
# 3 -0.002332 -0.000480 0.013196 0.000000 0.000833 0.000000
# 4 0.000000 0.000000 0.000000 0.073332 0.000000 -0.029402
# 5 0.000820 -0.000875 0.000833 0.000000 0.015109 0.000000
# 6 0.000000 0.000000 0.000000 -0.029402 0.000000 0.043319
#
#
# Mechanical properties :
#
#
# Convention : Reuss Voigt Hill
#
# Bulk Modulus (GPa) = 35.70202 41.52900 38.61551
# Shear Modulus (GPa) = 26.59935 39.11845 32.85890
#
# Velocity S-wave (km/s) = 3.23383 3.92168 3.59425
# Velocity P-wave (km/s) = 5.28961 6.06906 5.69269
#
# Compressibility (1/GPa) = 0.02800962
#
# Stress axis : x y z
#
# Youngs Moduli (GPa) = 124.08709 61.76849 75.78147
#
# Poissons Ratio (x) = 0.11767 0.17675
# Poissons Ratio (y) = 0.23639 0.03637
# Poissons Ratio (z) = 0.28941 0.02964
#
# Static dielectric constant tensor:
#      x y z
#    x 2.092670 0.000000 0.010400 
#    y 0.000000 2.202630 0.000000 
#    z 0.010400 0.000000 2.045410 
# 
# From -- ./inp_files/314901.got.cif
#   From: 2010.05.17/outbox.cif.g08.bks.cpg/sg15_158_cif.got.tgz:314901.got - 2010.06.03 18:47:42.
