data_PCOD9303325
_publ_section_title
;
Structure prediction by ZEFSAII (Michael W. Deem and Ramdas Pophale) SiO2 
 PCOD9303325
Probable space group: C 2/C
;
_chemical_formula_sum "Si O2"
_cell_formula_units_Z 60
_cell_length_a 14.797564
_cell_length_b 17.240267
_cell_length_c 12.404574
_cell_angle_alpha 90.000000
_cell_angle_beta 114.413680
_cell_angle_gamma 90.000000
_cell_volume 2881.619016
_symmetry_space_group_name_H-M "C 2/C"
_symmetry_group_IT_number 15
_symmetry_cell_setting 'monoclinic'
loop_
_space_group_symop_operation_xyz
x,y,z
-x,y,1/2-z
-x,-y,-z
x,-y,1/2+z
1/2+x,1/2+y,z
1/2-x,1/2+y,1/2-z
1/2-x,1/2-y,-z
1/2+x,1/2-y,1/2+z
loop_
_atom_site_type_symbol
_atom_site_label
_atom_site_fract_x
_atom_site_fract_y
_atom_site_fract_z
Si Si1 0.500000 0.252597 0.250000
Si Si2 0.820887 0.674972 0.041548
Si Si3 0.883328 0.793886 0.395417
Si Si4 0.724055 0.084578 0.864004
Si Si5 0.771505 0.924087 0.813849
Si Si6 0.955864 0.814007 0.847052
Si Si7 0.083065 0.368170 0.123762
Si Si8 0.636621 0.886606 0.552903
O O1 0.427843 0.202728 0.138343
O O2 0.430560 0.297858 0.299714
O O3 0.775026 0.618923 0.106754
O O4 0.750000 0.750000 0.000000
O O5 0.839096 0.634456 0.936278
O O6 0.782298 0.839729 0.354914
O O7 0.861652 0.704940 0.416599
O O8 0.961300 0.827289 0.520390
O O9 0.623113 0.085250 0.745376
O O10 0.790110 0.011047 0.863319
O O11 0.697687 0.092660 0.975894
O O12 0.863829 0.871758 0.820565
O O13 0.689634 0.926993 0.679115
O O14 0.929279 0.722670 0.848474
O O15 0.000000 0.824881 0.750000
O O16 0.978951 0.401062 0.028985
#
# Coordination Sequence:
#
# PCOD9303325 Si02
#       8
#     4   8   8   8   8   8   8   8
#     4  12  20  42  66 102 122 164 220 274 310 368
#     4  12  21  42  69  94 130 166 219 265 310 385
#     4  11  22  43  71  95 123 168 225 266 314 371
#     4  12  27  42  64  99 133 172 209 266 326 390
#     4  12  26  43  64  99 136 171 206 261 338 382
#     4  11  22  43  71  95 124 168 222 271 312 376
#     4  11  22  43  70  96 121 170 227 266 312 374
#     4  11  23  46  66  93 128 171 221 267 312 377
#
# _framework density 20.821629000000001
#
# number of rings (size 3 to 8) (size 9 to 14) (size 15 to 20)
#    0.000    0.533    5.333    4.800    1.867    1.067 
#    6.000    0.000    0.000    0.000    0.000    0.000 
#    0.000    0.000    0.000    0.000    0.000    0.000 
#
# Total GULP energy -167810.438745 kJ/mol
# GULP energy per Si atom -5593.681291 kJ/mol
# Density = 2.077424 g / cm^3
# Si number density = 20.821629 Si / 1000 Ang^3
#
#
#
# Elastic Constant Matrix: (Units=GPa)
#
#
# Indices 1 2 3 4 5 6 
#
# 1 75.9653 22.1264 19.8452 0.0000 -24.4700 0.0000
# 2 22.1264 30.7354 23.4732 0.0000 -7.3910 0.0000
# 3 19.8452 23.4732 93.2166 0.0000 -25.1838 0.0000
# 4 0.0000 0.0000 0.0000 -0.0641 0.0000 9.2104
# 5 -24.4700 -7.3910 -25.1838 0.0000 51.9778 0.0000
# 6 0.0000 0.0000 0.0000 9.2104 0.0000 -8.2257
#
#
#
# Elastic Compliance Matrix: (Units=1/GPa)
#
#
# Indices 1 2 3 4 5 6 
#
# 1 0.019072 -0.012832 0.001270 0.000000 0.007770 0.000000
# 2 -0.012832 0.048955 -0.010755 0.000000 -0.004291 0.000000
# 3 0.001270 -0.010755 0.014859 0.000000 0.006268 0.000000
# 4 0.000000 0.000000 0.000000 0.097571 0.000000 0.109251
# 5 0.007770 -0.004291 0.006268 0.000000 0.025323 0.000000
# 6 0.000000 0.000000 0.000000 0.109251 0.000000 0.000760
#
#
# Mechanical properties :
#
#
# Convention : Reuss Voigt Hill
#
# Bulk Modulus (GPa) = 26.14169 36.75631 31.44900
# Shear Modulus (GPa) = 18.94473 17.70244 18.32359
#
# Velocity S-wave (km/s) = 3.01966 2.91897 2.96974
# Velocity P-wave (km/s) = 4.97394 5.38997 5.18613
#
# Compressibility (1/GPa) = 0.03825307
#
# Stress axis : x y z
#
# Youngs Moduli (GPa) = 52.43186 20.42681 67.29958
#
# Poissons Ratio (x) = 0.26211 -0.08546
# Poissons Ratio (y) = 0.67279 0.72380
# Poissons Ratio (z) = -0.06658 0.21969
#
# Static dielectric constant tensor:
#      x y z
#    x 1.780170 0.000000 0.021150 
#    y 0.000000 1.814880 0.000000 
#    z 0.021150 0.000000 1.744050 
# 
# From -- ./inp_files/98811.got.cif
#   From: 2010.05.17/outbox.cif.g08.bks.cpg/sg15_50_cif.got.tgz:98811.got - 2010.06.03 18:47:42.
