data_PCOD9303583
_publ_section_title
;
Structure prediction by ZEFSAII (Michael W. Deem and Ramdas Pophale) SiO2 
 PCOD9303583
Probable space group: C 2/C
;
_chemical_formula_sum "Si O2"
_cell_formula_units_Z 28
_cell_length_a 7.864144
_cell_length_b 17.909558
_cell_length_c 12.986690
_cell_angle_alpha 90.000000
_cell_angle_beta 37.096460
_cell_angle_gamma 90.000000
_cell_volume 1103.230859
_symmetry_space_group_name_H-M "C 2/C"
_symmetry_group_IT_number 15
_symmetry_cell_setting 'monoclinic'
loop_
_space_group_symop_operation_xyz
x,y,z
-x,y,1/2-z
-x,-y,-z
x,-y,1/2+z
1/2+x,1/2+y,z
1/2-x,1/2+y,1/2-z
1/2-x,1/2-y,-z
1/2+x,1/2-y,1/2+z
loop_
_atom_site_type_symbol
_atom_site_label
_atom_site_fract_x
_atom_site_fract_y
_atom_site_fract_z
Si Si1 0.000000 0.452301 0.250000
Si Si2 0.535019 0.657866 0.901107
Si Si3 0.751523 0.465659 0.055851
Si Si4 0.449477 0.292287 0.662496
O O1 0.797570 0.399734 0.279805
O O2 0.798704 0.500277 0.420249
O O3 0.301476 0.622673 0.938810
O O4 0.685653 0.735369 0.798785
O O5 0.416598 0.661259 0.074602
O O6 0.500000 0.490270 0.250000
O O7 0.000000 0.500000 0.000000
O O8 0.500000 0.329585 0.750000
O O9 0.750000 0.250000 0.500000
#
# Coordination Sequence:
#
# PCOD9303583 Si02
#       4
#     4   8   8   8
#     4  12  24  48  80 118 154 204 272 330 402 484
#     4  11  22  45  77 121 158 201 272 310 417 493
#     4  12  28  51  79 111 160 219 269 337 393 467
#     4   9  18  39  73 117 161 204 243 334 399 473
#
# _framework density 25.380001
#
# number of rings (size 3 to 8) (size 9 to 14) (size 15 to 20)
#    0.000    1.143    7.143    0.857    0.000    1.143 
#   10.286    1.429    0.000    0.000    0.000    0.000 
#    0.000    0.000    0.000    0.000    0.000    0.000 
#
# Total GULP energy -78261.358811 kJ/mol
# GULP energy per Si atom -5590.097058 kJ/mol
# Density = 2.532224 g / cm^3
# Si number density = 25.380001 Si / 1000 Ang^3
#
#
#
# Elastic Constant Matrix: (Units=GPa)
#
#
# Indices 1 2 3 4 5 6 
#
# 1 132.8109 54.0507 56.3265 -0.0020 -3.1299 0.0007
# 2 54.0507 101.2696 49.3775 -0.0011 2.7638 0.0007
# 3 56.3265 49.3775 162.8440 -0.0125 29.3155 0.0053
# 4 -0.0020 -0.0011 -0.0125 42.8135 0.0017 12.3394
# 5 -3.1299 2.7638 29.3155 0.0017 45.9630 -0.0004
# 6 0.0007 0.0007 0.0053 12.3394 -0.0004 29.5872
#
#
#
# Elastic Compliance Matrix: (Units=1/GPa)
#
#
# Indices 1 2 3 4 5 6 
#
# 1 0.010563 -0.004327 -0.002844 -0.000001 0.002794 0.000001
# 2 -0.004327 0.013486 -0.002704 -0.000001 0.000619 0.000001
# 3 -0.002844 -0.002704 0.008981 0.000004 -0.005760 -0.000003
# 4 -0.000001 -0.000001 0.000004 0.026548 -0.000003 -0.011072
# 5 0.002794 0.000619 -0.005760 -0.000003 0.025583 0.000003
# 6 0.000001 0.000001 -0.000003 -0.011072 0.000003 0.038416
#
#
# Mechanical properties :
#
#
# Convention : Reuss Voigt Hill
#
# Bulk Modulus (GPa) = 75.30625 79.60376 77.45500
# Shear Modulus (GPa) = 33.84007 39.48406 36.66206
#
# Velocity S-wave (km/s) = 3.65545 3.94853 3.80481
# Velocity P-wave (km/s) = 6.89582 7.22639 7.06304
#
# Compressibility (1/GPa) = 0.01327911
#
# Stress axis : x y z
#
# Youngs Moduli (GPa) = 94.67313 74.15367 111.34103
#
# Poissons Ratio (x) = 0.32086 0.31670
# Poissons Ratio (y) = 0.40965 0.30105
# Poissons Ratio (z) = 0.26929 0.20050
#
# Static dielectric constant tensor:
#      x y z
#    x 1.996390 0.000000 -0.154620 
#    y 0.000000 2.043450 0.000010 
#    z -0.154620 0.000010 1.477670 
# 
# From -- ./inp_files/22455.got.cif
#   From: 2010.05.17/outbox.cif.g08.bks.cpg/sg15_12_cif.got.tgz:22455.got - 2010.06.03 18:47:42.
