data_PCOD9303818
_publ_section_title
;
Structure prediction by ZEFSAII (Michael W. Deem and Ramdas Pophale) SiO2 
 PCOD9303818
Probable space group: C 2/C
;
_chemical_formula_sum "Si O2"
_cell_formula_units_Z 32
_cell_length_a 15.047606
_cell_length_b 4.803353
_cell_length_c 19.211375
_cell_angle_alpha 90.000000
_cell_angle_beta 62.788779
_cell_angle_gamma 90.000000
_cell_volume 1234.899921
_symmetry_space_group_name_H-M "C 2/C"
_symmetry_group_IT_number 15
_symmetry_cell_setting 'monoclinic'
loop_
_space_group_symop_operation_xyz
x,y,z
-x,y,1/2-z
-x,-y,-z
x,-y,1/2+z
1/2+x,1/2+y,z
1/2-x,1/2+y,1/2-z
1/2-x,1/2-y,-z
1/2+x,1/2-y,1/2+z
loop_
_atom_site_type_symbol
_atom_site_label
_atom_site_fract_x
_atom_site_fract_y
_atom_site_fract_z
Si Si1 0.325147 0.792422 0.407891
Si Si2 0.926676 0.286149 0.068795
Si Si3 0.773505 0.676550 0.198524
Si Si4 0.427952 0.314927 0.426134
O O1 0.250000 0.750000 0.500000
O O2 0.411234 0.008848 0.400514
O O3 0.273856 0.823615 0.351966
O O4 0.378380 0.496086 0.384310
O O5 0.865774 0.189481 0.021866
O O6 0.979055 0.014397 0.082866
O O7 0.000000 0.500000 0.000000
O O8 0.705576 0.435337 0.257937
O O9 0.866385 0.485189 0.141297
#
# Coordination Sequence:
#
# PCOD9303818 Si02
#       4
#     8   8   8   8
#     4  12  23  43  73 111 147 198 267 316 377 475
#     4  11  24  45  76 111 151 203 267 309 391 486
#     4  12  29  46  73 113 162 200 251 343 420 454
#     4  11  23  39  76 107 140 196 269 310 359 463
#
# _framework density 25.913032000000001
#
# number of rings (size 3 to 8) (size 9 to 14) (size 15 to 20)
#    0.000    0.500    5.000    2.250   10.500    0.000 
#    0.000    1.250    5.500    0.000    0.000    0.000 
#    0.000    0.000    0.000    0.000    0.000    0.000 
#
# Total GULP energy -89204.665712 kJ/mol
# GULP energy per Si atom -5575.291607 kJ/mol
# Density = 2.585405 g / cm^3
# Si number density = 25.913032 Si / 1000 Ang^3
#
#
#
# Elastic Constant Matrix: (Units=GPa)
#
#
# Indices 1 2 3 4 5 6 
#
# 1 81.7797 45.2945 50.2919 0.0003 20.2466 0.0050
# 2 45.2945 201.7790 57.5584 0.0006 -3.1864 0.0093
# 3 50.2919 57.5584 120.7765 -0.0014 6.5868 0.0002
# 4 0.0003 0.0006 -0.0014 62.9968 -0.0007 -0.6309
# 5 20.2466 -3.1864 6.5868 -0.0007 40.8492 0.0005
# 6 0.0050 0.0093 0.0002 -0.6309 0.0005 55.2797
#
#
#
# Elastic Compliance Matrix: (Units=1/GPa)
#
#
# Indices 1 2 3 4 5 6 
#
# 1 0.020027 -0.002780 -0.006519 0.000000 -0.009092 -0.000001
# 2 -0.002780 0.006154 -0.001893 0.000000 0.002163 -0.000001
# 3 -0.006519 -0.001893 0.011832 0.000000 0.001175 0.000001
# 4 0.000000 0.000000 0.000000 0.015876 0.000000 0.000181
# 5 -0.009092 0.002163 0.001175 0.000000 0.028966 0.000000
# 6 -0.000001 -0.000001 0.000001 0.000181 0.000000 0.018092
#
#
# Mechanical properties :
#
#
# Convention : Reuss Voigt Hill
#
# Bulk Modulus (GPa) = 63.97925 78.95831 71.46878
# Shear Modulus (GPa) = 38.89793 48.57119 43.73456
#
# Velocity S-wave (km/s) = 3.87860 4.33412 4.11267
# Velocity P-wave (km/s) = 6.69340 7.45539 7.08465
#
# Compressibility (1/GPa) = 0.01563007
#
# Stress axis : x y z
#
# Youngs Moduli (GPa) = 49.93146 162.49224 84.51307
#
# Poissons Ratio (x) = 0.45168 0.55094
# Poissons Ratio (y) = 0.13879 0.16001
# Poissons Ratio (z) = 0.32550 0.30766
#
# Static dielectric constant tensor:
#      x y z
#    x 2.321660 -0.000010 -0.019610 
#    y -0.000010 2.212620 0.000000 
#    z -0.019610 0.000000 2.103220 
# 
# From -- ./inp_files/201822.got.cif
#   From: 2010.05.17/outbox.cif.g08.bks.cpg/sg15_101_cif.got.tgz:201822.got - 2010.06.03 18:47:42.
