data_PCOD9303612
_publ_section_title
;
Structure prediction by ZEFSAII (Michael W. Deem and Ramdas Pophale) SiO2 
 PCOD9303612
Probable space group: C 2/C
;
_chemical_formula_sum "Si O2"
_cell_formula_units_Z 40
_cell_length_a 26.409342
_cell_length_b 13.506829
_cell_length_c 14.118727
_cell_angle_alpha 90.000000
_cell_angle_beta 22.440384
_cell_angle_gamma 90.000000
_cell_volume 1922.443732
_symmetry_space_group_name_H-M "C 2/C"
_symmetry_group_IT_number 15
_symmetry_cell_setting 'monoclinic'
loop_
_space_group_symop_operation_xyz
x,y,z
-x,y,1/2-z
-x,-y,-z
x,-y,1/2+z
1/2+x,1/2+y,z
1/2-x,1/2+y,1/2-z
1/2-x,1/2-y,-z
1/2+x,1/2-y,1/2+z
loop_
_atom_site_type_symbol
_atom_site_label
_atom_site_fract_x
_atom_site_fract_y
_atom_site_fract_z
Si Si1 0.567701 0.892821 0.878408
Si Si2 0.802543 0.713524 0.809882
Si Si3 0.352528 0.560851 0.530274
Si Si4 0.279901 0.660978 0.160840
Si Si5 0.644793 0.864322 0.542603
O O1 0.642786 0.864880 0.844637
O O2 0.658056 0.893920 0.628474
O O3 0.457873 0.809360 0.046512
O O4 0.500000 0.000000 0.000000
O O5 0.736374 0.608304 0.898604
O O6 0.768057 0.790107 0.785248
O O7 0.750000 0.750000 0.000000
O O8 0.353885 0.443026 0.534436
O O9 0.270028 0.596818 0.765276
O O10 0.500000 0.597355 0.250000
O O11 0.349908 0.745983 0.978234
O O12 0.500000 0.897475 0.750000
#
# Coordination Sequence:
#
# PCOD9303612 Si02
#       5
#     8   8   8   8   8
#     4  12  24  47  74 106 141 194 248 298 366 441
#     4  11  27  46  70 108 147 189 244 303 363 437
#     4  11  25  45  70 105 146 183 238 295 364 430
#     4  11  24  45  72 102 144 189 239 303 360 434
#     4  11  22  46  71 101 143 188 238 295 356 438
#
# _framework density 20.806851000000002
#
# number of rings (size 3 to 8) (size 9 to 14) (size 15 to 20)
#    0.000    0.800    6.000    1.200    8.400    0.000 
#    0.000    2.000    0.000    0.000    0.000    0.000 
#    0.000    0.000    0.000    0.000    0.000    0.000 
#
# Total GULP energy -111649.753629 kJ/mol
# GULP energy per Si atom -5582.487681 kJ/mol
# Density = 2.075949 g / cm^3
# Si number density = 20.806851 Si / 1000 Ang^3
#
#
#
# Elastic Constant Matrix: (Units=GPa)
#
#
# Indices 1 2 3 4 5 6 
#
# 1 131.4038 31.5272 48.5287 0.0000 14.3652 0.0000
# 2 31.5272 100.8015 25.9566 0.0000 20.9930 0.0000
# 3 48.5287 25.9566 129.9310 0.0000 7.4345 0.0000
# 4 0.0000 0.0000 0.0000 31.1298 0.0000 -5.8994
# 5 14.3652 20.9930 7.4345 0.0000 47.5431 0.0000
# 6 0.0000 0.0000 0.0000 -5.8994 0.0000 13.3486
#
#
#
# Elastic Compliance Matrix: (Units=1/GPa)
#
#
# Indices 1 2 3 4 5 6 
#
# 1 0.009336 -0.001817 -0.003036 0.000000 -0.001544 0.000000
# 2 -0.001817 0.011777 -0.001421 0.000000 -0.004429 0.000000
# 3 -0.003036 -0.001421 0.009107 0.000000 0.000120 0.000000
# 4 0.000000 0.000000 0.000000 0.035060 0.000000 0.015495
# 5 -0.001544 -0.004429 0.000120 0.000000 0.023437 0.000000
# 6 0.000000 0.000000 0.000000 0.015495 0.000000 0.081762
#
#
# Mechanical properties :
#
#
# Convention : Reuss Voigt Hill
#
# Bulk Modulus (GPa) = 56.58106 63.79571 60.18839
# Shear Modulus (GPa) = 26.46671 35.47922 30.97297
#
# Velocity S-wave (km/s) = 3.57041 4.13385 3.86242
# Velocity P-wave (km/s) = 6.65204 7.31522 6.99150
#
# Compressibility (1/GPa) = 0.01767376
#
# Stress axis : x y z
#
# Youngs Moduli (GPa) = 107.11351 84.91170 109.80407
#
# Poissons Ratio (x) = 0.15426 0.33333
# Poissons Ratio (y) = 0.19459 0.15600
# Poissons Ratio (z) = 0.32516 0.12064
#
# Static dielectric constant tensor:
#      x y z
#    x 1.758520 0.000000 -0.017820 
#    y 0.000000 1.741460 0.000000 
#    z -0.017820 0.000000 1.815260 
# 
# From -- ./inp_files/178277.got.cif
#   From: 2010.05.17/outbox.cif.g08.bks.cpg/sg15_90_cif.got.tgz:178277.got - 2010.06.03 18:47:42.
