data_PCOD9303465
_publ_section_title
;
Structure prediction by ZEFSAII (Michael W. Deem and Ramdas Pophale) SiO2 
 PCOD9303465
Probable space group: C 2/C
;
_chemical_formula_sum "Si O2"
_cell_formula_units_Z 56
_cell_length_a 27.647406
_cell_length_b 8.762126
_cell_length_c 18.535388
_cell_angle_alpha 90.000000
_cell_angle_beta 146.097735
_cell_angle_gamma 90.000000
_cell_volume 2504.533727
_symmetry_space_group_name_H-M "C 2/C"
_symmetry_group_IT_number 15
_symmetry_cell_setting 'monoclinic'
loop_
_space_group_symop_operation_xyz
x,y,z
-x,y,1/2-z
-x,-y,-z
x,-y,1/2+z
1/2+x,1/2+y,z
1/2-x,1/2+y,1/2-z
1/2-x,1/2-y,-z
1/2+x,1/2-y,1/2+z
loop_
_atom_site_type_symbol
_atom_site_label
_atom_site_fract_x
_atom_site_fract_y
_atom_site_fract_z
Si Si1 0.961321 0.782280 0.410295
Si Si2 0.164995 0.732161 0.660130
Si Si3 0.293805 0.044916 0.384929
Si Si4 0.457249 0.259120 0.566166
Si Si5 0.052308 0.038207 0.752180
Si Si6 0.259051 0.432166 0.518538
Si Si7 0.381988 0.035862 0.767212
O O1 0.936186 0.828404 0.460520
O O2 0.933745 0.876852 0.306546
O O3 0.924093 0.612058 0.355137
O O4 0.065277 0.780681 0.535932
O O5 0.228803 0.872905 0.748687
O O6 0.182601 0.621131 0.615441
O O7 0.173601 0.628473 0.742801
O O8 0.377405 0.156094 0.493160
O O9 0.250479 0.032598 0.409046
O O10 0.490210 0.394480 0.657268
O O11 0.539609 0.146419 0.658961
O O12 0.000000 0.127305 0.750000
O O13 0.147558 0.985278 0.893667
O O14 0.250000 0.250000 0.500000
O O15 0.180470 0.503994 0.376062
#
# Coordination Sequence:
#
# PCOD9303465 Si02
#       7
#     8   8   8   8   8   8   8
#     4  11  24  47  67  98 139 177 223 281 341 394
#     4  11  24  42  66 102 133 172 226 278 331 402
#     4  12  25  39  72 103 133 175 226 276 339 399
#     4  11  22  44  72  99 130 182 223 274 340 396
#     4  12  28  44  68  98 138 180 226 282 339 399
#     4  12  24  44  66  99 132 175 228 275 331 404
#     4  11  22  46  70  92 142 175 219 279 332 405
#
# _framework density 22.359452999999998
#
# number of rings (size 3 to 8) (size 9 to 14) (size 15 to 20)
#    0.000    0.571    5.714    3.000    4.000    1.714 
#    0.000    0.000    0.000    0.000    0.000    0.000 
#    0.000    0.000    0.000    0.000    0.000    0.000 
#
# Total GULP energy -156762.609377 kJ/mol
# GULP energy per Si atom -5598.664621 kJ/mol
# Density = 2.230856 g / cm^3
# Si number density = 22.359453 Si / 1000 Ang^3
#
#
#
# Elastic Constant Matrix: (Units=GPa)
#
#
# Indices 1 2 3 4 5 6 
#
# 1 94.9378 2.8088 5.4526 0.0000 11.2669 0.0000
# 2 2.8088 22.2718 6.7158 0.0000 -3.5285 0.0000
# 3 5.4526 6.7158 77.0390 0.0000 6.7650 0.0000
# 4 0.0000 0.0000 0.0000 24.0674 0.0000 -3.5104
# 5 11.2669 -3.5285 6.7650 0.0000 29.8794 0.0000
# 6 0.0000 0.0000 0.0000 -3.5104 0.0000 17.8114
#
#
#
# Elastic Compliance Matrix: (Units=1/GPa)
#
#
# Indices 1 2 3 4 5 6 
#
# 1 0.011127 -0.002030 -0.000226 0.000000 -0.004384 0.000000
# 2 -0.002030 0.047747 -0.004674 0.000000 0.007462 0.000000
# 3 -0.000226 -0.004674 0.013718 0.000000 -0.003573 0.000000
# 4 0.000000 0.000000 0.000000 0.042780 0.000000 0.008431
# 5 -0.004384 0.007462 -0.003573 0.000000 0.036811 0.000000
# 6 0.000000 0.000000 0.000000 0.008431 0.000000 0.057805
#
#
# Mechanical properties :
#
#
# Convention : Reuss Voigt Hill
#
# Bulk Modulus (GPa) = 17.02621 24.91143 20.96882
# Shear Modulus (GPa) = 20.54028 26.30307 23.42168
#
# Velocity S-wave (km/s) = 3.03420 3.43355 3.24003
# Velocity P-wave (km/s) = 4.46166 5.18503 4.83689
#
# Compressibility (1/GPa) = 0.05873297
#
# Stress axis : x y z
#
# Youngs Moduli (GPa) = 89.87528 20.94354 72.89921
#
# Poissons Ratio (x) = 0.04251 0.01644
# Poissons Ratio (y) = 0.18243 0.34073
# Poissons Ratio (z) = 0.02027 0.09789
#
# Static dielectric constant tensor:
#      x y z
#    x 1.830510 0.000000 -0.045020 
#    y 0.000000 1.809290 0.000000 
#    z -0.045020 0.000000 1.815850 
# 
# From -- ./inp_files/259022.got.cif
#   From: 2010.05.17/outbox.cif.g08.bks.cpg/sg15_130_cif.got.tgz:259022.got - 2010.06.03 18:47:42.
