data_PCOD9303864
_publ_section_title
;
Structure prediction by ZEFSAII (Michael W. Deem and Ramdas Pophale) SiO2 
 PCOD9303864
Probable space group: C 2/C
;
_chemical_formula_sum "Si O2"
_cell_formula_units_Z 40
_cell_length_a 13.240883
_cell_length_b 12.394694
_cell_length_c 20.507205
_cell_angle_alpha 90.000000
_cell_angle_beta 30.624689
_cell_angle_gamma 90.000000
_cell_volume 1714.465018
_symmetry_space_group_name_H-M "C 2/C"
_symmetry_group_IT_number 15
_symmetry_cell_setting 'monoclinic'
loop_
_space_group_symop_operation_xyz
x,y,z
-x,y,1/2-z
-x,-y,-z
x,-y,1/2+z
1/2+x,1/2+y,z
1/2-x,1/2+y,1/2-z
1/2-x,1/2-y,-z
1/2+x,1/2-y,1/2+z
loop_
_atom_site_type_symbol
_atom_site_label
_atom_site_fract_x
_atom_site_fract_y
_atom_site_fract_z
Si Si1 0.440381 0.051875 0.964585
Si Si2 0.773379 0.252377 0.372748
Si Si3 0.581008 0.433317 0.131566
Si Si4 0.032950 0.080253 0.420595
Si Si5 0.291011 0.274147 0.241909
O O1 0.267225 0.138357 0.072730
O O2 0.316860 0.958637 0.995347
O O3 0.623493 0.128859 0.840319
O O4 0.500000 0.000000 0.000000
O O5 0.656391 0.343051 0.475846
O O6 0.695815 0.249502 0.341934
O O7 0.000000 0.279555 0.250000
O O8 0.500000 0.445689 0.250000
O O9 0.467916 0.513712 0.145208
O O10 0.497552 0.317849 0.154667
O O11 0.211765 0.166804 0.322396
O O12 0.000000 0.000000 0.500000
#
# Coordination Sequence:
#
# PCOD9303864 Si02
#       5
#     8   8   8   8   8
#     4  11  23  40  67 101 132 178 236 277 338 417
#     4  11  23  42  71 101 133 183 233 286 339 415
#     4  12  23  44  73  99 139 187 228 284 353 408
#     4  11  24  46  70 104 143 178 232 294 343 412
#     4  11  24  41  70 103 136 182 237 282 346 416
#
# _framework density 23.330893
#
# number of rings (size 3 to 8) (size 9 to 14) (size 15 to 20)
#    0.000    0.800    4.000    4.200    0.000    3.200 
#    0.000    5.000    0.000    0.000    0.000    0.000 
#    0.000    0.000    0.000    0.000    0.000    0.000 
#
# Total GULP energy -111788.018564 kJ/mol
# GULP energy per Si atom -5589.400928 kJ/mol
# Density = 2.327779 g / cm^3
# Si number density = 23.330893 Si / 1000 Ang^3
#
#
#
# Elastic Constant Matrix: (Units=GPa)
#
#
# Indices 1 2 3 4 5 6 
#
# 1 108.8887 53.0764 16.4160 -0.0002 11.9595 0.0005
# 2 53.0764 108.5343 31.0806 -0.0012 -7.0345 -0.0001
# 3 16.4160 31.0806 35.4103 -0.0044 5.8606 0.0013
# 4 -0.0002 -0.0012 -0.0044 40.3361 0.0004 17.7778
# 5 11.9595 -7.0345 5.8606 0.0004 38.7884 -0.0006
# 6 0.0005 -0.0001 0.0013 17.7778 -0.0006 16.8079
#
#
#
# Elastic Compliance Matrix: (Units=1/GPa)
#
#
# Indices 1 2 3 4 5 6 
#
# 1 0.013056 -0.007031 0.001021 0.000001 -0.005455 -0.000001
# 2 -0.007031 0.016717 -0.012589 -0.000003 0.007102 0.000005
# 3 0.001021 -0.012589 0.040254 0.000011 -0.008680 -0.000015
# 4 0.000001 -0.000003 0.000011 0.046442 -0.000004 -0.049122
# 5 -0.005455 0.007102 -0.008680 -0.000004 0.030062 0.000006
# 6 -0.000001 0.000005 -0.000015 -0.049122 0.000006 0.111452
#
#
# Mechanical properties :
#
#
# Convention : Reuss Voigt Hill
#
# Bulk Modulus (GPa) = 30.46064 50.44216 40.45140
# Shear Modulus (GPa) = 16.33328 29.33716 22.83522
#
# Velocity S-wave (km/s) = 2.64876 3.54988 3.13190
# Velocity P-wave (km/s) = 4.73696 6.20238 5.51853
#
# Compressibility (1/GPa) = 0.03282926
#
# Stress axis : x y z
#
# Youngs Moduli (GPa) = 76.59387 59.81814 24.84253
#
# Poissons Ratio (x) = 0.42056 -0.02537
# Poissons Ratio (y) = 0.53851 0.31275
# Poissons Ratio (z) = -0.07822 0.75307
#
# Static dielectric constant tensor:
#      x y z
#    x 1.858730 -0.000010 -0.003250 
#    y -0.000010 1.884360 0.000010 
#    z -0.003250 0.000010 1.911560 
# 
# From -- ./inp_files/273752.got.cif
#   From: 2010.05.17/outbox.cif.g08.bks.cpg/sg15_137_cif.got.tgz:273752.got - 2010.06.03 18:47:42.
