data_PCOD9303591
_publ_section_title
;
Structure prediction by ZEFSAII (Michael W. Deem and Ramdas Pophale) SiO2 
 PCOD9303591
Probable space group: C 2/C
;
_chemical_formula_sum "Si O2"
_cell_formula_units_Z 60
_cell_length_a 11.098463
_cell_length_b 8.866635
_cell_length_c 29.118749
_cell_angle_alpha 90.000000
_cell_angle_beta 112.560181
_cell_angle_gamma 90.000000
_cell_volume 2646.186796
_symmetry_space_group_name_H-M "C 2/C"
_symmetry_group_IT_number 15
_symmetry_cell_setting 'monoclinic'
loop_
_space_group_symop_operation_xyz
x,y,z
-x,y,1/2-z
-x,-y,-z
x,-y,1/2+z
1/2+x,1/2+y,z
1/2-x,1/2+y,1/2-z
1/2-x,1/2-y,-z
1/2+x,1/2-y,1/2+z
loop_
_atom_site_type_symbol
_atom_site_label
_atom_site_fract_x
_atom_site_fract_y
_atom_site_fract_z
Si Si1 0.625295 0.297188 0.373018
Si Si2 0.630903 0.711054 0.211463
Si Si3 0.371701 0.177297 0.490694
Si Si4 0.500000 0.068887 0.750000
Si Si5 0.198428 0.023378 0.799919
Si Si6 0.237273 0.472496 0.834640
Si Si7 0.838765 0.339149 0.476796
Si Si8 0.144612 0.284230 0.620552
O O1 0.605696 0.403993 0.325510
O O2 0.743245 0.363645 0.419949
O O3 0.498593 0.266756 0.384387
O O4 0.675968 0.134417 0.363598
O O5 0.515936 0.823856 0.208135
O O6 0.746937 0.831853 0.219499
O O7 0.645618 0.597816 0.256171
O O8 0.634385 0.610332 0.166541
O O9 0.250000 0.250000 0.500000
O O10 0.522506 0.233225 0.518545
O O11 0.348836 0.191483 0.432777
O O12 0.372942 0.000616 0.503702
O O13 0.629946 0.975841 0.777962
O O14 0.309141 0.930113 0.843926
O O15 0.267518 0.640421 0.853744
O O16 0.750000 0.250000 0.500000
#
# Coordination Sequence:
#
# PCOD9303591 Si02
#       8
#     8   8   8   4   8   8   8   8
#     4  11  26  44  72 101 138 183 232 292 345 423
#     4  11  23  43  64  94 132 179 226 279 342 403
#     4  11  27  46  74 106 142 186 230 296 361 431
#     4  12  22  42  64  88 138 174 222 276 342 392
#     4  11  22  46  65  98 138 177 232 286 342 407
#     4  11  27  42  65 100 132 184 227 284 342 411
#     4  11  24  49  71 103 144 184 228 292 366 425
#     4  12  24  46  69 104 138 176 240 286 348 422
#
# _framework density 22.674136000000001
#
# number of rings (size 3 to 8) (size 9 to 14) (size 15 to 20)
#    0.000    0.800    5.333    0.800    3.733    1.600 
#    4.800    0.000    0.000    0.000    0.000    0.000 
#    0.000    0.000    0.000    0.000    0.000    0.000 
#
# Total GULP energy -167563.254599 kJ/mol
# GULP energy per Si atom -5585.441820 kJ/mol
# Density = 2.262253 g / cm^3
# Si number density = 22.674136 Si / 1000 Ang^3
#
#
#
# Elastic Constant Matrix: (Units=GPa)
#
#
# Indices 1 2 3 4 5 6 
#
# 1 177.2030 51.9658 42.0242 0.0000 -17.0747 0.0000
# 2 51.9658 107.1282 21.0018 0.0000 -7.6151 0.0000
# 3 42.0242 21.0018 61.7511 0.0000 -12.1236 0.0000
# 4 0.0000 0.0000 0.0000 27.9445 0.0000 -6.2867
# 5 -17.0747 -7.6151 -12.1236 0.0000 30.2499 0.0000
# 6 0.0000 0.0000 0.0000 -6.2867 0.0000 27.0242
#
#
#
# Elastic Compliance Matrix: (Units=1/GPa)
#
#
# Indices 1 2 3 4 5 6 
#
# 1 0.007554 -0.002775 -0.003796 0.000000 0.002044 0.000000
# 2 -0.002775 0.011065 -0.001775 0.000000 0.000508 0.000000
# 3 -0.003796 -0.001775 0.020484 0.000000 0.005620 0.000000
# 4 0.000000 0.000000 0.000000 0.037761 0.000000 0.008785
# 5 0.002044 0.000508 0.005620 0.000000 0.036592 0.000000
# 6 0.000000 0.000000 0.000000 0.008785 0.000000 0.039047
#
#
# Mechanical properties :
#
#
# Convention : Reuss Voigt Hill
#
# Bulk Modulus (GPa) = 44.61948 64.00731 54.31340
# Shear Modulus (GPa) = 28.30191 32.44977 30.37584
#
# Velocity S-wave (km/s) = 3.53682 3.78714 3.66412
# Velocity P-wave (km/s) = 6.03325 6.88576 6.47356
#
# Compressibility (1/GPa) = 0.02241174
#
# Stress axis : x y z
#
# Youngs Moduli (GPa) = 132.37727 90.37715 48.81759
#
# Poissons Ratio (x) = 0.25079 0.18530
# Poissons Ratio (y) = 0.36734 0.08665
# Poissons Ratio (z) = 0.50248 0.16042
#
# Static dielectric constant tensor:
#      x y z
#    x 1.871440 0.000000 0.020870 
#    y 0.000000 1.838360 0.000000 
#    z 0.020870 0.000000 1.882810 
# 
# From -- ./inp_files/310344.got.cif
#   From: 2010.05.17/outbox.cif.g08.bks.cpg/sg15_156_cif.got.tgz:310344.got - 2010.06.03 18:47:42.
