data_PCOD9303330
_publ_section_title
;
Structure prediction by ZEFSAII (Michael W. Deem and Ramdas Pophale) SiO2 
 PCOD9303330
Probable space group: C 2/C
;
_chemical_formula_sum "Si O2"
_cell_formula_units_Z 60
_cell_length_a 19.754565
_cell_length_b 12.144237
_cell_length_c 16.358616
_cell_angle_alpha 90.000000
_cell_angle_beta 44.361878
_cell_angle_gamma 90.000000
_cell_volume 2743.962107
_symmetry_space_group_name_H-M "C 2/C"
_symmetry_group_IT_number 15
_symmetry_cell_setting 'monoclinic'
loop_
_space_group_symop_operation_xyz
x,y,z
-x,y,1/2-z
-x,-y,-z
x,-y,1/2+z
1/2+x,1/2+y,z
1/2-x,1/2+y,1/2-z
1/2-x,1/2-y,-z
1/2+x,1/2-y,1/2+z
loop_
_atom_site_type_symbol
_atom_site_label
_atom_site_fract_x
_atom_site_fract_y
_atom_site_fract_z
Si Si1 0.520923 0.193594 0.827954
Si Si2 0.848209 0.138854 0.212873
Si Si3 0.855100 0.489541 0.748367
Si Si4 0.362466 0.189931 0.097439
Si Si5 0.863239 0.931962 0.532061
Si Si6 0.587767 0.396398 0.334474
Si Si7 0.354476 0.700880 0.890394
Si Si8 0.000000 0.627655 0.250000
O O1 0.500000 0.180985 0.750000
O O2 0.562481 0.313237 0.814349
O O3 0.601540 0.110697 0.794494
O O4 0.426675 0.170317 0.962796
O O5 0.749286 0.188498 0.330706
O O6 0.851765 0.162984 0.112023
O O7 0.847614 0.006112 0.216759
O O8 0.871813 0.408480 0.656567
O O9 0.740027 0.493918 0.865997
O O10 0.922905 0.437709 0.761909
O O11 0.392562 0.305865 0.112694
O O12 0.858853 0.906264 0.440677
O O13 0.979609 0.947256 0.438187
O O14 0.615735 0.331707 0.226888
O O15 0.431212 0.789086 0.859322
O O16 0.250000 0.750000 0.000000
#
# Coordination Sequence:
#
# PCOD9303330 Si02
#       8
#     8   8   8   8   8   8   8   4
#     4  12  28  48  70 103 151 197 237 287 363 450
#     4  11  28  45  72 107 136 193 242 297 363 435
#     4  11  24  44  70 107 145 191 233 297 362 428
#     4  11  25  49  74 104 139 188 248 304 363 426
#     4  11  22  43  71 101 138 180 238 301 352 415
#     4  12  24  46  72 105 142 186 241 305 363 426
#     4  12  22  39  70 107 140 176 233 305 360 414
#     4  12  20  40  66 106 142 176 238 286 364 406
#
# _framework density 21.866191000000001
#
# number of rings (size 3 to 8) (size 9 to 14) (size 15 to 20)
#    0.000    0.533    6.000    1.600    3.733    3.733 
#    0.000    0.000    0.000    0.000    0.000    0.000 
#    0.000    0.000    0.000    0.000    0.000    0.000 
#
# Total GULP energy -167152.750725 kJ/mol
# GULP energy per Si atom -5571.758357 kJ/mol
# Density = 2.181642 g / cm^3
# Si number density = 21.866191 Si / 1000 Ang^3
#
#
#
# Elastic Constant Matrix: (Units=GPa)
#
#
# Indices 1 2 3 4 5 6 
#
# 1 74.4621 12.8987 56.9243 0.0000 -11.9732 0.0000
# 2 12.8987 78.2212 29.0983 0.0000 -6.3959 0.0000
# 3 56.9243 29.0983 147.6491 0.0000 -14.3290 0.0000
# 4 0.0000 0.0000 0.0000 3.9699 0.0000 -1.9122
# 5 -11.9732 -6.3959 -14.3290 0.0000 45.9469 0.0000
# 6 0.0000 0.0000 0.0000 -1.9122 0.0000 29.2299
#
#
#
# Elastic Compliance Matrix: (Units=1/GPa)
#
#
# Indices 1 2 3 4 5 6 
#
# 1 0.019394 -0.000312 -0.007145 0.000000 0.002782 0.000000
# 2 -0.000312 0.013855 -0.002507 0.000000 0.001066 0.000000
# 3 -0.007145 -0.002507 0.010113 0.000000 0.000943 0.000000
# 4 0.000000 0.000000 0.000000 0.260090 0.000000 0.017015
# 5 0.002782 0.001066 0.000943 0.000000 0.022932 0.000000
# 6 0.000000 0.000000 0.000000 0.017015 0.000000 0.035325
#
#
# Mechanical properties :
#
#
# Convention : Reuss Voigt Hill
#
# Bulk Modulus (GPa) = 42.67485 55.35276 49.01380
# Shear Modulus (GPa) = 12.83868 29.25675 21.04771
#
# Velocity S-wave (km/s) = 2.42574 3.66182 3.10590
# Velocity P-wave (km/s) = 5.23492 6.57631 5.94358
#
# Compressibility (1/GPa) = 0.02343300
#
# Stress axis : x y z
#
# Youngs Moduli (GPa) = 51.56358 72.17394 98.88104
#
# Poissons Ratio (x) = 0.02255 0.70654
# Poissons Ratio (y) = 0.01611 0.24787
# Poissons Ratio (z) = 0.36844 0.18092
#
# Static dielectric constant tensor:
#      x y z
#    x 1.858750 0.000000 0.001640 
#    y 0.000000 1.877350 0.000000 
#    z 0.001640 0.000000 1.772770 
# 
# From -- ./inp_files/215160.got.cif
#   From: 2010.05.17/outbox.cif.g08.bks.cpg/sg15_108_cif.got.tgz:215160.got - 2010.06.03 18:47:42.
