data_PCOD9303536
_publ_section_title
;
Structure prediction by ZEFSAII (Michael W. Deem and Ramdas Pophale) SiO2 
 PCOD9303536
Probable space group: C 2/C
;
_chemical_formula_sum "Si O2"
_cell_formula_units_Z 56
_cell_length_a 12.568515
_cell_length_b 7.208193
_cell_length_c 24.062211
_cell_angle_alpha 90.000000
_cell_angle_beta 107.612231
_cell_angle_gamma 90.000000
_cell_volume 2077.764236
_symmetry_space_group_name_H-M "C 2/C"
_symmetry_group_IT_number 15
_symmetry_cell_setting 'monoclinic'
loop_
_space_group_symop_operation_xyz
x,y,z
-x,y,1/2-z
-x,-y,-z
x,-y,1/2+z
1/2+x,1/2+y,z
1/2-x,1/2+y,1/2-z
1/2-x,1/2-y,-z
1/2+x,1/2-y,1/2+z
loop_
_atom_site_type_symbol
_atom_site_label
_atom_site_fract_x
_atom_site_fract_y
_atom_site_fract_z
Si Si1 0.930750 0.792319 0.296085
Si Si2 0.811054 0.107150 0.397605
Si Si3 0.290779 0.007082 0.230160
Si Si4 0.776089 0.299404 0.940154
Si Si5 0.000000 0.745762 0.750000
Si Si6 0.588931 0.166176 0.413483
Si Si7 0.000000 0.500000 0.500000
Si Si8 0.533877 0.725654 0.377757
O O1 0.825453 0.923930 0.270109
O O2 0.858267 0.602699 0.290088
O O3 0.000000 0.780091 0.250000
O O4 0.013467 0.790549 0.360956
O O5 0.720386 0.190702 0.425234
O O6 0.937018 0.175380 0.406491
O O7 0.744926 0.130053 0.328231
O O8 0.810602 0.886930 0.412096
O O9 0.384251 0.864736 0.223878
O O10 0.655205 0.365495 0.901110
O O11 0.876215 0.441856 0.956800
O O12 0.750000 0.250000 0.000000
O O13 0.990586 0.829316 0.809808
O O14 0.554038 0.171825 0.471390
O O15 0.559341 0.946341 0.393091
#
# Coordination Sequence:
#
# PCOD9303536 Si02
#       8
#     8   8   8   8   4   8   4   8
#     4  12  24  43  68 102 137 183 230 287 349 417
#     4  11  22  45  69  98 139 178 225 284 344 410
#     4  12  22  42  71  96 143 183 224 286 347 413
#     4  11  23  46  72  98 134 182 228 286 348 406
#     4  12  20  42  72 100 136 190 222 276 356 414
#     4  11  23  43  68  97 135 182 229 284 351 404
#     4  12  24  48  72  94 138 180 232 290 344 412
#     4  11  23  43  73 102 137 184 231 285 349 420
#
# _framework density 26.952047
#
# number of rings (size 3 to 8) (size 9 to 14) (size 15 to 20)
#    0.000    0.571    9.286    1.714    0.000    0.571 
#    5.143    4.286    0.000    0.000    0.000    0.000 
#    0.000    0.000    0.000    0.000    0.000    0.000 
#
# Total GULP energy -156180.484867 kJ/mol
# GULP energy per Si atom -5577.874460 kJ/mol
# Density = 2.689070 g / cm^3
# Si number density = 26.952047 Si / 1000 Ang^3
#
#
#
# Elastic Constant Matrix: (Units=GPa)
#
#
# Indices 1 2 3 4 5 6 
#
# 1 259.2418 61.2260 41.4832 0.0000 35.3138 0.0000
# 2 61.2260 43.9613 10.8901 0.0000 -2.0680 0.0000
# 3 41.4832 10.8901 75.5593 0.0000 -8.5377 0.0000
# 4 0.0000 0.0000 0.0000 11.7865 0.0000 -0.8614
# 5 35.3138 -2.0680 -8.5377 0.0000 15.0528 0.0000
# 6 0.0000 0.0000 0.0000 -0.8614 0.0000 32.3370
#
#
#
# Elastic Compliance Matrix: (Units=1/GPa)
#
#
# Indices 1 2 3 4 5 6 
#
# 1 0.022490 -0.030607 -0.015357 0.000000 -0.065676 0.000000
# 2 -0.030607 0.065272 0.017655 0.000000 0.090786 0.000000
# 3 -0.015357 0.017655 0.025073 0.000000 0.052674 0.000000
# 4 0.000000 0.000000 0.000000 0.085009 0.000000 0.002265
# 5 -0.065676 0.090786 0.052674 0.000000 0.262857 0.000000
# 6 0.000000 0.000000 0.000000 0.002265 0.000000 0.030985
#
#
# Mechanical properties :
#
#
# Convention : Reuss Voigt Hill
#
# Bulk Modulus (GPa) = 17.78856 67.32899 42.55878
# Shear Modulus (GPa) = 8.81766 29.51278 19.16522
#
# Velocity S-wave (km/s) = 1.81072 3.31268 2.66951
# Velocity P-wave (km/s) = 3.31452 6.29818 5.03255
#
# Compressibility (1/GPa) = 0.05621590
#
# Stress axis : x y z
#
# Youngs Moduli (GPa) = 44.46455 15.32043 39.88344
#
# Poissons Ratio (x) = 0.46892 0.61249
# Poissons Ratio (y) = 1.36095 -0.70413
# Poissons Ratio (z) = 0.68284 -0.27048
#
# Static dielectric constant tensor:
#      x y z
#    x 2.155420 0.000000 -0.081010 
#    y 0.000000 2.761710 0.000000 
#    z -0.081010 0.000000 2.146210 
# 
# From -- ./inp_files/291657.got.cif
#   From: 2010.05.17/outbox.cif.g08.bks.cpg/sg15_146_cif.got.tgz:291657.got - 2010.06.03 18:47:42.
