data_PCOD9303699
_publ_section_title
;
Structure prediction by ZEFSAII (Michael W. Deem and Ramdas Pophale) SiO2 
 PCOD9303699
Probable space group: C 2/C
;
_chemical_formula_sum "Si O2"
_cell_formula_units_Z 64
_cell_length_a 23.322468
_cell_length_b 11.590972
_cell_length_c 12.200567
_cell_angle_alpha 90.000000
_cell_angle_beta 83.067440
_cell_angle_gamma 90.000000
_cell_volume 3274.066884
_symmetry_space_group_name_H-M "C 2/C"
_symmetry_group_IT_number 15
_symmetry_cell_setting 'monoclinic'
loop_
_space_group_symop_operation_xyz
x,y,z
-x,y,1/2-z
-x,-y,-z
x,-y,1/2+z
1/2+x,1/2+y,z
1/2-x,1/2+y,1/2-z
1/2-x,1/2-y,-z
1/2+x,1/2-y,1/2+z
loop_
_atom_site_type_symbol
_atom_site_label
_atom_site_fract_x
_atom_site_fract_y
_atom_site_fract_z
Si Si1 0.567696 0.132456 0.969018
Si Si2 0.230377 0.193432 0.185402
Si Si3 0.863987 0.789483 0.387854
Si Si4 0.316640 0.470294 0.984345
Si Si5 0.062984 0.630887 0.549304
Si Si6 0.358742 0.719313 0.628967
Si Si7 0.642170 0.891145 0.235608
Si Si8 0.216918 0.586542 0.124664
O O1 0.504616 0.160038 0.935507
O O2 0.613473 0.120253 0.860275
O O3 0.586348 0.227986 0.053087
O O4 0.566175 0.006020 0.024161
O O5 0.192917 0.124010 0.107357
O O6 0.295630 0.220356 0.132684
O O7 0.198829 0.312424 0.217889
O O8 0.237010 0.119651 0.293537
O O9 0.873254 0.790789 0.254416
O O10 0.809422 0.703381 0.417271
O O11 0.848970 0.916080 0.434790
O O12 0.349669 0.405175 0.074640
O O13 0.251633 0.508683 0.032122
O O14 0.095631 0.703588 0.447875
O O15 0.096283 0.649728 0.655272
O O16 0.664827 0.017170 0.194755
#
# Coordination Sequence:
#
# PCOD9303699 Si02
#       8
#     8   8   8   8   8   8   8   8
#     4  11  25  42  67  95 128 167 223 275 326 380
#     4  11  23  37  63  94 128 175 207 259 327 392
#     4  11  25  40  62  96 133 170 216 271 327 386
#     4  12  22  39  62  92 132 173 217 255 326 394
#     4  11  24  44  68  94 125 175 218 275 326 381
#     4  11  23  44  64  96 131 171 218 265 330 396
#     4  12  22  43  66  97 133 170 219 268 326 388
#     4  11  23  36  60  96 136 170 206 266 322 396
#
# _framework density 19.547554000000002
#
# number of rings (size 3 to 8) (size 9 to 14) (size 15 to 20)
#    0.000    0.750    3.750    4.875    3.500    0.500 
#    0.000    0.625    0.000    0.000    0.000    0.000 
#    0.000    0.000    0.000    0.000    0.000    0.000 
#
# Total GULP energy -178903.351244 kJ/mol
# GULP energy per Si atom -5590.729726 kJ/mol
# Density = 1.950306 g / cm^3
# Si number density = 19.547554 Si / 1000 Ang^3
#
#
#
# Elastic Constant Matrix: (Units=GPa)
#
#
# Indices 1 2 3 4 5 6 
#
# 1 30.3611 17.5769 8.2931 0.0000 7.5096 0.0000
# 2 17.5769 93.4625 26.4772 0.0000 -1.9873 0.0000
# 3 8.2931 26.4772 49.8478 0.0000 21.8698 0.0000
# 4 0.0000 0.0000 0.0000 28.0052 0.0000 -0.6970
# 5 7.5096 -1.9873 21.8698 0.0000 25.8201 0.0000
# 6 0.0000 0.0000 0.0000 -0.6970 0.0000 27.5093
#
#
#
# Elastic Compliance Matrix: (Units=1/GPa)
#
#
# Indices 1 2 3 4 5 6 
#
# 1 0.041505 -0.010022 0.006449 0.000000 -0.018305 0.000000
# 2 -0.010022 0.017127 -0.014779 0.000000 0.016751 0.000000
# 3 0.006449 -0.014779 0.044813 0.000000 -0.040971 0.000000
# 4 0.000000 0.000000 0.000000 0.035730 0.000000 0.000905
# 5 -0.018305 0.016751 -0.040971 0.000000 0.080045 0.000000
# 6 0.000000 0.000000 0.000000 0.000905 0.000000 0.036374
#
#
# Mechanical properties :
#
#
# Convention : Reuss Voigt Hill
#
# Bulk Modulus (GPa) = 14.98315 30.92953 22.95634
# Shear Modulus (GPa) = 15.89592 24.35521 20.12557
#
# Velocity S-wave (km/s) = 2.85475 3.53363 3.21217
# Velocity P-wave (km/s) = 4.30671 5.70138 5.05240
#
# Compressibility (1/GPa) = 0.06674164
#
# Stress axis : x y z
#
# Youngs Moduli (GPa) = 24.09360 58.38642 22.31476
#
# Poissons Ratio (x) = 0.58514 -0.14391
# Poissons Ratio (y) = 0.24146 0.32980
# Poissons Ratio (z) = -0.15538 0.86291
#
# Static dielectric constant tensor:
#      x y z
#    x 1.664170 0.000000 0.003090 
#    y 0.000000 1.671210 0.000000 
#    z 0.003090 0.000000 1.705310 
# 
# From -- ./inp_files/117588.got.cif
#   From: 2010.05.17/outbox.cif.g08.bks.cpg/sg15_59_cif.got.tgz:117588.got - 2010.06.03 18:47:42.
