data_PCOD9303394
_publ_section_title
;
Structure prediction by ZEFSAII (Michael W. Deem and Ramdas Pophale) SiO2 
 PCOD9303394
Probable space group: C 2/C
;
_chemical_formula_sum "Si O2"
_cell_formula_units_Z 36
_cell_length_a 7.255982
_cell_length_b 23.149083
_cell_length_c 11.580711
_cell_angle_alpha 90.000000
_cell_angle_beta 69.505816
_cell_angle_gamma 90.000000
_cell_volume 1822.087876
_symmetry_space_group_name_H-M "C 2/C"
_symmetry_group_IT_number 15
_symmetry_cell_setting 'monoclinic'
loop_
_space_group_symop_operation_xyz
x,y,z
-x,y,1/2-z
-x,-y,-z
x,-y,1/2+z
1/2+x,1/2+y,z
1/2-x,1/2+y,1/2-z
1/2-x,1/2-y,-z
1/2+x,1/2-y,1/2+z
loop_
_atom_site_type_symbol
_atom_site_label
_atom_site_fract_x
_atom_site_fract_y
_atom_site_fract_z
Si Si1 0.884450 0.980903 0.648574
Si Si2 0.831883 0.636835 0.378738
Si Si3 0.077377 0.658354 0.549157
Si Si4 0.500000 0.939444 0.250000
Si Si5 0.492720 0.289163 0.884740
O O1 0.695590 0.021471 0.719191
O O2 0.000000 0.977592 0.750000
O O3 0.788545 0.919612 0.634246
O O4 0.000000 0.000000 0.500000
O O5 0.675446 0.687662 0.415385
O O6 0.000000 0.649649 0.250000
O O7 0.949243 0.635603 0.471096
O O8 0.298705 0.678411 0.472301
O O9 0.998333 0.719909 0.611274
O O10 0.062606 0.605067 0.637317
O O11 0.500000 0.306319 0.750000
#
# Coordination Sequence:
#
# PCOD9303394 Si02
#       5
#     8   8   8   4   8
#     4  12  28  47  71 102 141 189 238 293 351 418
#     4  12  24  41  69 100 132 179 232 282 343 416
#     4  11  25  43  70 100 139 183 226 295 349 415
#     4  12  26  46  70 104 142 180 238 290 354 418
#     4  11  22  44  67 101 139 179 233 283 352 420
#
# _framework density 19.757555
#
# number of rings (size 3 to 8) (size 9 to 14) (size 15 to 20)
#    0.000    0.444    4.444    4.000    3.111    1.778 
#    0.000    1.111    0.000    0.000    0.000    0.000 
#    0.000    0.000    0.000    0.000    0.000    0.000 
#
# Total GULP energy -100267.402428 kJ/mol
# GULP energy per Si atom -5570.411246 kJ/mol
# Density = 1.971259 g / cm^3
# Si number density = 19.757555 Si / 1000 Ang^3
#
#
#
# Elastic Constant Matrix: (Units=GPa)
#
#
# Indices 1 2 3 4 5 6 
#
# 1 113.7682 67.8832 20.1968 0.0000 19.9716 0.0000
# 2 67.8832 104.0987 38.1348 0.0000 -13.6253 0.0000
# 3 20.1968 38.1348 40.7970 0.0000 29.6697 0.0000
# 4 0.0000 0.0000 0.0000 34.0289 0.0000 -14.2160
# 5 19.9716 -13.6253 29.6697 0.0000 24.1594 0.0000
# 6 0.0000 0.0000 0.0000 -14.2160 0.0000 90.1854
#
#
#
# Elastic Compliance Matrix: (Units=1/GPa)
#
#
# Indices 1 2 3 4 5 6 
#
# 1 0.008129 0.001829 -0.014939 0.000000 0.012658 0.000000
# 2 0.001829 -0.001272 0.017823 0.000000 -0.024117 0.000000
# 3 -0.014939 0.017823 -0.009770 0.000000 0.034399 0.000000
# 4 0.000000 0.000000 0.000000 0.031458 0.000000 0.004959
# 5 0.012658 -0.024117 0.034399 0.000000 -0.024918 0.000000
# 6 0.000000 0.000000 0.000000 0.004959 0.000000 0.011870
#
#
# Mechanical properties :
#
#
# Convention : Reuss Voigt Hill
#
# Bulk Modulus (GPa) = 153.54729 56.78817 105.16773
# Shear Modulus (GPa) = 606.63474 38.50469 322.56971
#
# Velocity S-wave (km/s) = 17.54155 4.41938 12.79134
# Velocity P-wave (km/s) = 22.09432 7.40582 16.47733
#
# Compressibility (1/GPa) = 0.00651265
#
# Stress axis : x y z
#
# Youngs Moduli (GPa) = 123.02132 -786.10968 -102.35853
#
# Poissons Ratio (x) = 1.43753 -1.52913
# Poissons Ratio (y) = -0.22497 1.82435
# Poissons Ratio (z) = 1.83781 14.01092
#
# Static dielectric constant tensor:
#      x y z
#    x 1.643640 0.000000 -0.064750 
#    y 0.000000 1.682200 0.000000 
#    z -0.064750 0.000000 1.705840 
# 
# From -- ./inp_files/72434.got.cif
#   From: 2010.05.17/outbox.cif.g08.bks.cpg/sg15_37_cif.got.tgz:72434.got - 2010.06.03 18:47:42.
