data_PCOD9303318
_publ_section_title
;
Structure prediction by ZEFSAII (Michael W. Deem and Ramdas Pophale) SiO2 
 PCOD9303318
Probable space group: C 2/C
;
_chemical_formula_sum "Si O2"
_cell_formula_units_Z 36
_cell_length_a 20.352468
_cell_length_b 6.841256
_cell_length_c 23.146015
_cell_angle_alpha 90.000000
_cell_angle_beta 24.258406
_cell_angle_gamma 90.000000
_cell_volume 1324.082996
_symmetry_space_group_name_H-M "C 2/C"
_symmetry_group_IT_number 15
_symmetry_cell_setting 'monoclinic'
loop_
_space_group_symop_operation_xyz
x,y,z
-x,y,1/2-z
-x,-y,-z
x,-y,1/2+z
1/2+x,1/2+y,z
1/2-x,1/2+y,1/2-z
1/2-x,1/2-y,-z
1/2+x,1/2-y,1/2+z
loop_
_atom_site_type_symbol
_atom_site_label
_atom_site_fract_x
_atom_site_fract_y
_atom_site_fract_z
Si Si1 0.047182 0.064333 0.569497
Si Si2 0.079906 0.310375 0.312156
Si Si3 0.646563 0.330236 0.161949
Si Si4 0.890557 0.357122 0.624387
Si Si5 0.000000 0.799727 0.750000
O O1 0.977796 0.155419 0.567142
O O2 0.916083 0.102192 0.725197
O O3 0.199409 0.197985 0.461427
O O4 0.066800 0.830932 0.549180
O O5 0.227154 0.192002 0.223543
O O6 0.047190 0.312970 0.270023
O O7 0.500000 0.218539 0.250000
O O8 0.391087 0.024021 0.184767
O O9 0.645792 0.537396 0.126840
O O10 0.000000 0.500000 0.500000
#
# Coordination Sequence:
#
# PCOD9303318 Si02
#       5
#     8   8   8   8   4
#     4  11  22  43  70 102 140 189 236 296 358 425
#     4  11  24  45  70 103 144 187 239 295 365 424
#     4   9  20  39  73  98 140 187 236 292 361 427
#     4  12  26  44  70 105 144 188 245 299 353 441
#     4   8  20  42  70  98 144 174 242 294 354 424
#
# _framework density 27.188627
#
# number of rings (size 3 to 8) (size 9 to 14) (size 15 to 20)
#    0.667    0.889    2.222    3.333    0.000    2.667 
#    2.000    4.444    0.000    0.000    0.000    0.000 
#    0.000    0.000    0.000    0.000    0.000    0.000 
#
# Total GULP energy -100594.651796 kJ/mol
# GULP energy per Si atom -5588.591766 kJ/mol
# Density = 2.712674 g / cm^3
# Si number density = 27.188627 Si / 1000 Ang^3
#
#
#
# Elastic Constant Matrix: (Units=GPa)
#
#
# Indices 1 2 3 4 5 6 
#
# 1 215.4233 75.2485 43.1811 -0.0095 17.4780 0.0236
# 2 75.2485 128.9036 28.0696 -0.0192 18.2025 0.0541
# 3 43.1811 28.0696 44.4980 -0.0048 13.7946 0.0131
# 4 -0.0095 -0.0192 -0.0048 41.1505 0.0032 18.0126
# 5 17.4780 18.2025 13.7946 0.0032 41.6736 -0.0102
# 6 0.0236 0.0541 0.0131 18.0126 -0.0102 34.7628
#
#
#
# Elastic Compliance Matrix: (Units=1/GPa)
#
#
# Indices 1 2 3 4 5 6 
#
# 1 0.006545 -0.002826 -0.004569 -0.000001 0.000002 0.000002
# 2 -0.002826 0.010413 -0.003102 0.000013 -0.002336 -0.000021
# 3 -0.004569 -0.003102 0.031034 0.000005 -0.007002 -0.000009
# 4 -0.000001 0.000013 0.000005 0.031430 -0.000013 -0.016286
# 5 0.000002 -0.002336 -0.007002 -0.000013 0.027333 0.000021
# 6 0.000002 -0.000021 -0.000009 -0.016286 0.000021 0.037205
#
#
# Mechanical properties :
#
#
# Convention : Reuss Voigt Hill
#
# Bulk Modulus (GPa) = 37.04015 75.75816 56.39915
# Shear Modulus (GPa) = 28.74347 39.67242 34.20794
#
# Velocity S-wave (km/s) = 3.25497 3.82403 3.55092
# Velocity P-wave (km/s) = 5.27062 6.88637 6.13194
#
# Compressibility (1/GPa) = 0.02699773
#
# Stress axis : x y z
#
# Youngs Moduli (GPa) = 152.79190 96.03617 32.22269
#
# Poissons Ratio (x) = 0.27139 0.14723
# Poissons Ratio (y) = 0.43178 0.09995
# Poissons Ratio (z) = 0.69813 0.29790
#
# Static dielectric constant tensor:
#      x y z
#    x 2.141620 -0.000010 0.025720 
#    y -0.000010 2.197770 0.000000 
#    z 0.025720 0.000000 2.302050 
# 
# From -- ./inp_files/208215.got.cif
#   From: 2010.05.17/outbox.cif.g08.bks.cpg/sg15_105_cif.got.tgz:208215.got - 2010.06.03 18:47:42.
