data_PCOD9303719
_publ_section_title
;
Structure prediction by ZEFSAII (Michael W. Deem and Ramdas Pophale) SiO2 
 PCOD9303719
Probable space group: C 2/C
;
_chemical_formula_sum "Si O2"
_cell_formula_units_Z 36
_cell_length_a 20.607677
_cell_length_b 13.124235
_cell_length_c 4.659673
_cell_angle_alpha 90.000000
_cell_angle_beta 100.902343
_cell_angle_gamma 90.000000
_cell_volume 1237.508769
_symmetry_space_group_name_H-M "C 2/C"
_symmetry_group_IT_number 15
_symmetry_cell_setting 'monoclinic'
loop_
_space_group_symop_operation_xyz
x,y,z
-x,y,1/2-z
-x,-y,-z
x,-y,1/2+z
1/2+x,1/2+y,z
1/2-x,1/2+y,1/2-z
1/2-x,1/2-y,-z
1/2+x,1/2-y,1/2+z
loop_
_atom_site_type_symbol
_atom_site_label
_atom_site_fract_x
_atom_site_fract_y
_atom_site_fract_z
Si Si1 0.000000 0.213047 0.750000
Si Si2 0.894676 0.070168 0.892127
Si Si3 0.206854 0.825149 0.772389
Si Si4 0.338886 0.141196 0.162454
Si Si5 0.069089 0.619574 0.713260
O O1 0.041691 0.141415 0.570836
O O2 0.958902 0.287267 0.505630
O O3 0.838136 0.123882 0.025547
O O4 0.893662 0.962238 0.058367
O O5 0.264236 0.893669 0.673537
O O6 0.172893 0.750805 0.509411
O O7 0.113307 0.651568 0.022621
O O8 0.250000 0.250000 0.500000
O O9 0.378653 0.071695 0.967487
O O10 0.000000 0.567860 0.750000
#
# Coordination Sequence:
#
# PCOD9303719 Si02
#       5
#     4   8   8   8   8
#     4  12  26  44  66  88 144 202 228 256 330 400
#     4  12  31  46  65  96 140 188 239 277 330 405
#     4  11  24  44  71  91 126 178 240 296 343 387
#     4  11  23  37  65 100 122 172 232 293 343 381
#     4  12  22  36  63 100 136 170 227 281 331 392
#
# _framework density 29.090705
#
# number of rings (size 3 to 8) (size 9 to 14) (size 15 to 20)
#    0.000    0.444    4.444    3.333   12.444    0.000 
#    0.000    0.000    0.000    0.000    0.000    0.000 
#    0.000   17.778    0.000    0.000    0.000    0.000 
#
# Total GULP energy -100840.314533 kJ/mol
# GULP energy per Si atom -5602.239696 kJ/mol
# Density = 2.902449 g / cm^3
# Si number density = 29.090705 Si / 1000 Ang^3
#
#
#
# Elastic Constant Matrix: (Units=GPa)
#
#
# Indices 1 2 3 4 5 6 
#
# 1 241.3076 47.0767 77.6329 0.0000 -46.0240 0.0000
# 2 47.0767 92.0739 36.6133 0.0000 -8.8517 0.0000
# 3 77.6329 36.6133 242.3665 0.0000 11.6211 0.0000
# 4 0.0000 0.0000 0.0000 60.8890 0.0000 -27.3041
# 5 -46.0240 -8.8517 11.6211 0.0000 84.6758 0.0000
# 6 0.0000 0.0000 0.0000 -27.3041 0.0000 36.5205
#
#
#
# Elastic Compliance Matrix: (Units=1/GPa)
#
#
# Indices 1 2 3 4 5 6 
#
# 1 0.005647 -0.001927 -0.001666 0.000000 0.003096 0.000000
# 2 -0.001927 0.012394 -0.001275 0.000000 0.000423 0.000000
# 3 -0.001666 -0.001275 0.004935 0.000000 -0.001716 0.000000
# 4 0.000000 0.000000 0.000000 0.024706 0.000000 0.018471
# 5 0.003096 0.000423 -0.001716 0.000000 0.013772 0.000000
# 6 0.000000 0.000000 0.000000 0.018471 0.000000 0.041192
#
#
# Mechanical properties :
#
#
# Convention : Reuss Voigt Hill
#
# Bulk Modulus (GPa) = 75.53763 99.82153 87.67958
# Shear Modulus (GPa) = 42.81004 64.04540 53.42772
#
# Velocity S-wave (km/s) = 3.84031 4.69719 4.29020
# Velocity P-wave (km/s) = 6.75919 7.98789 7.39909
#
# Compressibility (1/GPa) = 0.01323844
#
# Stress axis : x y z
#
# Youngs Moduli (GPa) = 177.09947 80.68488 202.65120
#
# Poissons Ratio (x) = 0.15547 0.33762
# Poissons Ratio (y) = 0.34125 0.25846
# Poissons Ratio (z) = 0.29505 0.10290
#
# Static dielectric constant tensor:
#      x y z
#    x 2.511750 0.000000 -0.054200 
#    y 0.000000 2.386920 0.000000 
#    z -0.054200 0.000000 2.247360 
# 
# From -- ./inp_files/10082.got.cif
#   From: 2010.05.17/outbox.cif.g08.bks.cpg/sg15_6_cif.got.tgz:10082.got - 2010.06.03 18:47:42.
