data_PCOD9303559
_publ_section_title
;
Structure prediction by ZEFSAII (Michael W. Deem and Ramdas Pophale) SiO2 
 PCOD9303559
Probable space group: C 2/C
;
_chemical_formula_sum "Si O2"
_cell_formula_units_Z 60
_cell_length_a 22.983100
_cell_length_b 6.960197
_cell_length_c 16.419979
_cell_angle_alpha 90.000000
_cell_angle_beta 93.333927
_cell_angle_gamma 90.000000
_cell_volume 2622.207735
_symmetry_space_group_name_H-M "C 2/C"
_symmetry_group_IT_number 15
_symmetry_cell_setting 'monoclinic'
loop_
_space_group_symop_operation_xyz
x,y,z
-x,y,1/2-z
-x,-y,-z
x,-y,1/2+z
1/2+x,1/2+y,z
1/2-x,1/2+y,1/2-z
1/2-x,1/2-y,-z
1/2+x,1/2-y,1/2+z
loop_
_atom_site_type_symbol
_atom_site_label
_atom_site_fract_x
_atom_site_fract_y
_atom_site_fract_z
Si Si1 0.211032 0.549177 0.932371
Si Si2 0.990347 0.662560 0.394095
Si Si3 0.500000 0.565245 0.750000
Si Si4 0.121583 0.518029 0.198373
Si Si5 0.180857 0.184269 0.821203
Si Si6 0.401390 0.657385 0.198077
Si Si7 0.770595 0.429605 0.887198
Si Si8 0.577246 0.848633 0.454932
O O1 0.198181 0.353492 0.884097
O O2 0.248669 0.708098 0.885524
O O3 0.147141 0.635543 0.950632
O O4 0.243290 0.511936 0.020840
O O5 0.014374 0.810048 0.330224
O O6 0.944959 0.537421 0.335785
O O7 0.949347 0.736324 0.464542
O O8 0.044473 0.551624 0.438886
O O9 0.556104 0.440454 0.734166
O O10 0.146908 0.704811 0.247254
O O11 0.128206 0.337083 0.259162
O O12 0.162203 0.519683 0.122627
O O13 0.139527 0.007152 0.841983
O O14 0.239471 0.058910 0.815711
O O15 0.440118 0.732541 0.127002
#
# Coordination Sequence:
#
# PCOD9303559 Si02
#       8
#     8   8   4   8   8   8   8   8
#     4  11  23  48  68 101 141 184 234 295 354 427
#     4  11  24  44  74 103 139 188 236 297 360 429
#     4  12  24  46  68 106 136 186 232 298 364 424
#     4  12  25  44  68 105 142 185 236 293 354 421
#     4  12  24  42  68 102 137 186 230 286 354 420
#     4  12  25  44  69 101 144 180 235 290 359 424
#     4  11  26  43  73 100 139 189 237 288 352 428
#     4  11  22  45  72 101 140 186 237 290 360 428
#
# _framework density 22.881482999999999
#
# number of rings (size 3 to 8) (size 9 to 14) (size 15 to 20)
#    0.000    0.533    5.333    2.800    3.733    0.533 
#    2.400    0.000    0.000    0.000    0.000    0.000 
#    0.000    0.000    0.000    0.000    0.000    0.000 
#
# Total GULP energy -167327.943754 kJ/mol
# GULP energy per Si atom -5577.598125 kJ/mol
# Density = 2.282940 g / cm^3
# Si number density = 22.881483 Si / 1000 Ang^3
#
#
#
# Elastic Constant Matrix: (Units=GPa)
#
#
# Indices 1 2 3 4 5 6 
#
# 1 70.3507 16.0115 -13.4077 0.0000 4.5609 0.0000
# 2 16.0115 85.8590 28.0831 0.0000 -10.9416 0.0000
# 3 -13.4077 28.0831 87.0838 0.0000 -6.9286 0.0000
# 4 0.0000 0.0000 0.0000 2.8588 0.0000 14.6965
# 5 4.5609 -10.9416 -6.9286 0.0000 31.0119 0.0000
# 6 0.0000 0.0000 0.0000 14.6965 0.0000 35.5676
#
#
#
# Elastic Compliance Matrix: (Units=1/GPa)
#
#
# Indices 1 2 3 4 5 6 
#
# 1 0.016191 -0.004648 0.003738 0.000000 -0.003186 0.000000
# 2 -0.004648 0.014791 -0.005107 0.000000 0.004761 0.000000
# 3 0.003738 -0.005107 0.013763 0.000000 0.000723 0.000000
# 4 0.000000 0.000000 0.000000 -0.311164 0.000000 0.128573
# 5 -0.003186 0.004761 0.000723 0.000000 0.034556 0.000000
# 6 0.000000 0.000000 0.000000 0.128573 0.000000 -0.025011
#
#
# Mechanical properties :
#
#
# Convention : Reuss Voigt Hill
#
# Bulk Modulus (GPa) = 30.56946 33.85192 32.21069
# Shear Modulus (GPa) = -21.37332 28.06145 3.34406
#
# Velocity S-wave (km/s) = -3.05960 3.50577 1.21022
# Velocity P-wave (km/s) = 0.95256 5.58693 4.00757
#
# Compressibility (1/GPa) = 0.03271239
#
# Stress axis : x y z
#
# Youngs Moduli (GPa) = 61.76102 67.60908 72.65785
#
# Poissons Ratio (x) = 0.31426 -0.27162
# Poissons Ratio (y) = 0.28708 0.37104
# Poissons Ratio (z) = -0.23089 0.34526
#
# Static dielectric constant tensor:
#      x y z
#    x 1.933180 0.000000 0.038500 
#    y 0.000000 1.852960 0.000000 
#    z 0.038500 0.000000 1.908210 
# 
# From -- ./inp_files/221266.got.cif
#   From: 2010.05.17/outbox.cif.g08.bks.cpg/sg15_111_cif.got.tgz:221266.got - 2010.06.03 18:47:42.
