data_PCOD9303800
_publ_section_title
;
Structure prediction by ZEFSAII (Michael W. Deem and Ramdas Pophale) SiO2 
 PCOD9303800
Probable space group: C 2/C
;
_chemical_formula_sum "Si O2"
_cell_formula_units_Z 44
_cell_length_a 25.110083
_cell_length_b 6.676963
_cell_length_c 10.889841
_cell_angle_alpha 90.000000
_cell_angle_beta 83.369263
_cell_angle_gamma 90.000000
_cell_volume 1813.568173
_symmetry_space_group_name_H-M "C 2/C"
_symmetry_group_IT_number 15
_symmetry_cell_setting 'monoclinic'
loop_
_space_group_symop_operation_xyz
x,y,z
-x,y,1/2-z
-x,-y,-z
x,-y,1/2+z
1/2+x,1/2+y,z
1/2-x,1/2+y,1/2-z
1/2-x,1/2-y,-z
1/2+x,1/2-y,1/2+z
loop_
_atom_site_type_symbol
_atom_site_label
_atom_site_fract_x
_atom_site_fract_y
_atom_site_fract_z
Si Si1 0.754735 0.500723 0.407999
Si Si2 0.500000 0.455226 0.250000
Si Si3 0.449952 0.861389 0.930260
Si Si4 0.164239 0.169895 0.559916
Si Si5 0.810514 0.840957 0.774443
Si Si6 0.073675 0.672433 0.788458
O O1 0.796110 0.642588 0.468194
O O2 0.692602 0.510163 0.464019
O O3 0.785228 0.296999 0.386238
O O4 0.744571 0.611598 0.282363
O O5 0.508943 0.304186 0.133435
O O6 0.452277 0.610701 0.232679
O O7 0.394923 0.735000 0.946356
O O8 0.439443 0.031788 0.827358
O O9 0.453065 0.913048 0.076551
O O10 0.168258 0.055452 0.687306
O O11 0.862096 0.711525 0.715432
#
# Coordination Sequence:
#
# PCOD9303800 Si02
#       6
#     8   4   8   8   8   8
#     4  11  23  39  67 102 143 189 245 291 360 441
#     4  12  28  52  80 108 144 196 254 322 378 434
#     4  12  27  51  79 110 152 194 251 315 375 453
#     4  11  23  42  66 101 143 194 242 296 361 439
#     4  12  22  42  68 103 146 193 242 296 360 440
#     4  12  28  50  79 114 145 195 250 308 379 446
#
# _framework density 24.261562999999999
#
# number of rings (size 3 to 8) (size 9 to 14) (size 15 to 20)
#    0.000    0.364    7.273    1.636    0.000    4.364 
#    6.545    0.000    0.000    0.000    0.000    0.000 
#    0.000    0.000    0.000    0.000    0.000    0.000 
#
# Total GULP energy -122536.820717 kJ/mol
# GULP energy per Si atom -5569.855487 kJ/mol
# Density = 2.420634 g / cm^3
# Si number density = 24.261563 Si / 1000 Ang^3
#
#
#
# Elastic Constant Matrix: (Units=GPa)
#
#
# Indices 1 2 3 4 5 6 
#
# 1 63.3211 15.0045 1.2205 0.0000 -4.2035 0.0000
# 2 15.0045 98.7882 34.6042 0.0000 10.7678 0.0000
# 3 1.2205 34.6042 98.0230 0.0000 0.7350 0.0000
# 4 0.0000 0.0000 0.0000 -3.1709 0.0000 18.0080
# 5 -4.2035 10.7678 0.7350 0.0000 28.0907 0.0000
# 6 0.0000 0.0000 0.0000 18.0080 0.0000 28.8661
#
#
#
# Elastic Compliance Matrix: (Units=1/GPa)
#
#
# Indices 1 2 3 4 5 6 
#
# 1 0.016802 -0.003283 0.000922 0.000000 0.003749 0.000000
# 2 -0.003283 0.012742 -0.004418 0.000000 -0.005260 0.000000
# 3 0.000922 -0.004418 0.011738 0.000000 0.001524 0.000000
# 4 0.000000 0.000000 0.000000 -0.069420 0.000000 0.043307
# 5 0.003749 -0.005260 0.001524 0.000000 0.038136 0.000000
# 6 0.000000 0.000000 0.000000 0.043307 0.000000 0.007626
#
#
# Mechanical properties :
#
#
# Convention : Reuss Voigt Hill
#
# Bulk Modulus (GPa) = 36.07092 40.19897 38.13494
# Shear Modulus (GPa) = 123.68564 24.71072 74.19818
#
# Velocity S-wave (km/s) = 7.14778 3.19488 5.53615
# Velocity P-wave (km/s) = 9.11157 5.49678 7.52447
#
# Compressibility (1/GPa) = 0.02772316
#
# Stress axis : x y z
#
# Youngs Moduli (GPa) = 59.51797 78.47888 85.19039
#
# Poissons Ratio (x) = 0.25768 -0.07853
# Poissons Ratio (y) = 0.19542 0.37637
# Poissons Ratio (z) = -0.05486 0.34672
#
# Static dielectric constant tensor:
#      x y z
#    x 1.948350 0.000000 -0.025030 
#    y 0.000000 2.111780 0.000000 
#    z -0.025030 0.000000 2.342720 
# 
# From -- ./inp_files/124970.got.cif
#   From: 2010.05.17/outbox.cif.g08.bks.cpg/sg15_63_cif.got.tgz:124970.got - 2010.06.03 18:47:42.
