data_PCOD9303257
_publ_section_title
;
Structure prediction by ZEFSAII (Michael W. Deem and Ramdas Pophale) SiO2 
 PCOD9303257
Probable space group: C 2/C
;
_chemical_formula_sum "Si O2"
_cell_formula_units_Z 56
_cell_length_a 19.840288
_cell_length_b 15.035076
_cell_length_c 17.714250
_cell_angle_alpha 90.000000
_cell_angle_beta 29.198429
_cell_angle_gamma 90.000000
_cell_volume 2577.804455
_symmetry_space_group_name_H-M "C 2/C"
_symmetry_group_IT_number 15
_symmetry_cell_setting 'monoclinic'
loop_
_space_group_symop_operation_xyz
x,y,z
-x,y,1/2-z
-x,-y,-z
x,-y,1/2+z
1/2+x,1/2+y,z
1/2-x,1/2+y,1/2-z
1/2-x,1/2-y,-z
1/2+x,1/2-y,1/2+z
loop_
_atom_site_type_symbol
_atom_site_label
_atom_site_fract_x
_atom_site_fract_y
_atom_site_fract_z
Si Si1 0.634826 0.919032 0.945108
Si Si2 0.314134 0.073048 0.707721
Si Si3 0.000000 0.909639 0.250000
Si Si4 0.656768 0.835458 0.085905
Si Si5 0.544459 0.736374 0.588857
Si Si6 0.500000 0.882276 0.750000
Si Si7 0.787219 0.267255 0.740884
Si Si8 0.243691 0.502283 0.084370
O O1 0.713831 0.843205 0.820729
O O2 0.682672 0.016790 0.873036
O O3 0.472229 0.915995 0.082193
O O4 0.659472 0.893832 0.007179
O O5 0.250057 0.170084 0.756143
O O6 0.240561 0.007430 0.840763
O O7 0.027405 0.842066 0.292856
O O8 0.873563 0.966320 0.407312
O O9 0.500000 0.807071 0.250000
O O10 0.706762 0.901477 0.100991
O O11 0.750000 0.750000 0.000000
O O12 0.572201 0.816961 0.619221
O O13 0.684626 0.709807 0.410209
O O14 0.439440 0.765545 0.627076
O O15 0.387874 0.939681 0.813975
#
# Coordination Sequence:
#
# PCOD9303257 Si02
#       8
#     8   8   4   8   8   4   8   8
#     4  11  24  44  70 102 134 184 236 282 339 416
#     4  11  24  44  73 102 137 187 232 279 348 422
#     4  11  26  42  67 106 142 172 225 296 360 407
#     4  12  27  46  69  96 133 183 234 285 342 405
#     4  11  24  42  68 106 141 180 223 285 358 414
#     4  11  22  42  77  98 134 186 231 280 342 429
#     4  12  24  43  69 101 145 178 233 289 346 418
#     4  12  24  47  69 100 138 179 237 284 346 418
#
# _framework density 21.723914000000001
#
# number of rings (size 3 to 8) (size 9 to 14) (size 15 to 20)
#    0.000    0.571    3.571    4.286    7.000    2.286 
#    2.571    1.429    0.000    0.000    0.000    0.000 
#    0.000    0.000    0.000    0.000    0.000    0.000 
#
# Total GULP energy -156602.219410 kJ/mol
# GULP energy per Si atom -5592.936408 kJ/mol
# Density = 2.167447 g / cm^3
# Si number density = 21.723914 Si / 1000 Ang^3
#
#
#
# Elastic Constant Matrix: (Units=GPa)
#
#
# Indices 1 2 3 4 5 6 
#
# 1 47.5494 8.5736 -0.3462 0.0003 14.3663 -0.0002
# 2 8.5736 92.8790 38.4737 0.0001 5.4799 0.0000
# 3 -0.3462 38.4737 97.0885 0.0008 16.7264 -0.0006
# 4 0.0003 0.0001 0.0008 41.2232 -0.0004 2.1745
# 5 14.3663 5.4799 16.7264 -0.0004 23.4261 0.0003
# 6 -0.0002 0.0000 -0.0006 2.1745 0.0003 40.7765
#
#
#
# Elastic Compliance Matrix: (Units=1/GPa)
#
#
# Indices 1 2 3 4 5 6 
#
# 1 0.027586 -0.003385 0.004809 0.000000 -0.019559 0.000000
# 2 -0.003385 0.013307 -0.005823 0.000000 0.003120 0.000000
# 3 0.004809 -0.005823 0.014707 0.000000 -0.012088 0.000000
# 4 0.000000 0.000000 0.000000 0.024327 0.000001 -0.001297
# 5 -0.019559 0.003120 -0.012088 0.000001 0.062583 -0.000001
# 6 0.000000 0.000000 0.000000 -0.001297 -0.000001 0.024593
#
#
# Mechanical properties :
#
#
# Convention : Reuss Voigt Hill
#
# Bulk Modulus (GPa) = 21.36605 36.76878 29.06742
# Shear Modulus (GPa) = 26.10963 33.80620 29.95792
#
# Velocity S-wave (km/s) = 3.47058 3.94912 3.71756
# Velocity P-wave (km/s) = 5.09083 6.14461 5.64238
#
# Compressibility (1/GPa) = 0.04680322
#
# Stress axis : x y z
#
# Youngs Moduli (GPa) = 36.25092 75.14816 67.99468
#
# Poissons Ratio (x) = 0.25434 -0.32700
# Poissons Ratio (y) = 0.12269 0.39592
# Poissons Ratio (z) = -0.17434 0.43758
#
# Static dielectric constant tensor:
#      x y z
#    x 1.806320 0.000000 0.035530 
#    y 0.000000 1.818310 0.000000 
#    z 0.035530 0.000000 1.817450 
# 
# From -- ./inp_files/215751.got.cif
#   From: 2010.05.17/outbox.cif.g08.bks.cpg/sg15_108_cif.got.tgz:215751.got - 2010.06.03 18:47:42.
