data_PCOD9303026
_publ_section_title
;
Structure prediction by ZEFSAII (Michael W. Deem and Ramdas Pophale) SiO2 
 PCOD9303026
Probable space group: C 2/C
;
_chemical_formula_sum "Si O2"
_cell_formula_units_Z 40
_cell_length_a 10.507745
_cell_length_b 11.721684
_cell_length_c 17.448563
_cell_angle_alpha 90.000000
_cell_angle_beta 119.803002
_cell_angle_gamma 90.000000
_cell_volume 1864.869834
_symmetry_space_group_name_H-M "C 2/C"
_symmetry_group_IT_number 15
_symmetry_cell_setting 'monoclinic'
loop_
_space_group_symop_operation_xyz
x,y,z
-x,y,1/2-z
-x,-y,-z
x,-y,1/2+z
1/2+x,1/2+y,z
1/2-x,1/2+y,1/2-z
1/2-x,1/2-y,-z
1/2+x,1/2-y,1/2+z
loop_
_atom_site_type_symbol
_atom_site_label
_atom_site_fract_x
_atom_site_fract_y
_atom_site_fract_z
Si Si1 0.614546 0.136254 0.077222
Si Si2 0.357234 0.261483 0.756563
Si Si3 0.287563 0.475496 0.492471
Si Si4 0.421414 0.671109 0.443790
Si Si5 0.504600 0.974695 0.330706
O O1 0.717333 0.213618 0.162335
O O2 0.717524 0.061371 0.052150
O O3 0.533306 0.050444 0.108948
O O4 0.495729 0.211901 0.995820
O O5 0.500000 0.302615 0.750000
O O6 0.346230 0.316122 0.838074
O O7 0.394163 0.129729 0.785834
O O8 0.321602 0.605874 0.477003
O O9 0.438510 0.408889 0.529639
O O10 0.167551 0.429534 0.396089
O O11 0.500000 0.042508 0.250000
#
# Coordination Sequence:
#
# PCOD9303026 Si02
#       5
#     8   8   8   8   8
#     4  12  24  44  67  99 137 176 220 284 341 397
#     4  11  22  41  68  92 130 176 221 271 334 402
#     4  11  23  42  69  98 127 177 227 273 342 408
#     4  11  23  42  70  98 131 174 228 279 330 411
#     4  11  24  43  66  96 135 177 221 271 341 413
#
# _framework density 21.449217000000001
#
# number of rings (size 3 to 8) (size 9 to 14) (size 15 to 20)
#    0.000    0.800    4.000    4.800    0.000    2.400 
#    3.600    0.000    0.000    0.000    0.000    0.000 
#    0.000    0.000    0.000    0.000    0.000    0.000 
#
# Total GULP energy -111689.548280 kJ/mol
# GULP energy per Si atom -5584.477414 kJ/mol
# Density = 2.140040 g / cm^3
# Si number density = 21.449217 Si / 1000 Ang^3
#
#
#
# Elastic Constant Matrix: (Units=GPa)
#
#
# Indices 1 2 3 4 5 6 
#
# 1 74.0107 48.3409 42.9074 0.0000 -22.3427 0.0000
# 2 48.3409 80.7186 33.3965 0.0000 -20.6492 0.0000
# 3 42.9074 33.3965 141.3694 0.0000 -14.8848 0.0000
# 4 0.0000 0.0000 0.0000 5.6783 0.0000 2.5436
# 5 -22.3427 -20.6492 -14.8848 0.0000 39.5111 0.0000
# 6 0.0000 0.0000 0.0000 2.5436 0.0000 34.0772
#
#
#
# Elastic Compliance Matrix: (Units=1/GPa)
#
#
# Indices 1 2 3 4 5 6 
#
# 1 0.025878 -0.011988 -0.004312 0.000000 0.006743 0.000000
# 2 -0.011988 0.020917 -0.000901 0.000000 0.003813 0.000000
# 3 -0.004312 -0.000901 0.008631 0.000000 0.000342 0.000000
# 4 0.000000 0.000000 0.000000 0.182203 0.000000 -0.013600
# 5 0.006743 0.003813 0.000342 0.000000 0.031244 0.000000
# 6 0.000000 0.000000 0.000000 -0.013600 0.000000 0.030360
#
#
# Mechanical properties :
#
#
# Convention : Reuss Voigt Hill
#
# Bulk Modulus (GPa) = 47.56889 60.59871 54.08380
# Shear Modulus (GPa) = 14.67811 27.28358 20.98085
#
# Velocity S-wave (km/s) = 2.61879 3.57039 3.13095
# Velocity P-wave (km/s) = 5.60086 6.73130 6.19193
#
# Compressibility (1/GPa) = 0.02102214
#
# Stress axis : x y z
#
# Youngs Moduli (GPa) = 38.64346 47.80896 115.85654
#
# Poissons Ratio (x) = 0.57316 0.49958
# Poissons Ratio (y) = 0.46328 0.10441
# Poissons Ratio (z) = 0.16663 0.04308
#
# Static dielectric constant tensor:
#      x y z
#    x 1.808680 0.000000 -0.020650 
#    y 0.000000 1.809430 0.000000 
#    z -0.020650 0.000000 1.789110 
# 
# From -- ./inp_files/141697.got.cif
#   From: 2010.05.17/outbox.cif.g08.bks.cpg/sg15_71_cif.got.tgz:141697.got - 2010.06.03 18:47:42.
