data_PCOD9303691
_publ_section_title
;
Structure prediction by ZEFSAII (Michael W. Deem and Ramdas Pophale) SiO2 
 PCOD9303691
Probable space group: C 2/C
;
_chemical_formula_sum "Si O2"
_cell_formula_units_Z 32
_cell_length_a 9.500118
_cell_length_b 10.710336
_cell_length_c 18.628422
_cell_angle_alpha 90.000000
_cell_angle_beta 53.004816
_cell_angle_gamma 90.000000
_cell_volume 1513.855020
_symmetry_space_group_name_H-M "C 2/C"
_symmetry_group_IT_number 15
_symmetry_cell_setting 'monoclinic'
loop_
_space_group_symop_operation_xyz
x,y,z
-x,y,1/2-z
-x,-y,-z
x,-y,1/2+z
1/2+x,1/2+y,z
1/2-x,1/2+y,1/2-z
1/2-x,1/2-y,-z
1/2+x,1/2-y,1/2+z
loop_
_atom_site_type_symbol
_atom_site_label
_atom_site_fract_x
_atom_site_fract_y
_atom_site_fract_z
Si Si1 0.716368 0.754730 0.890162
Si Si2 0.691783 0.981588 0.656228
Si Si3 0.465888 0.009497 0.095078
Si Si4 0.961632 0.234457 0.107524
O O1 0.732522 0.618561 0.850684
O O2 0.650078 0.866608 0.860384
O O3 0.903975 0.788131 0.868314
O O4 0.580419 0.739610 0.998584
O O5 0.500000 0.968744 0.750000
O O6 0.646475 0.978516 0.584802
O O7 0.819437 0.872108 0.640633
O O8 0.387122 0.874946 0.140384
O O9 0.500000 0.000000 0.000000
#
# Coordination Sequence:
#
# PCOD9303691 Si02
#       4
#     8   8   8   8
#     4   9  19  37  60  81 107 146 189 231 271 324
#     4  11  23  36  54  85 118 145 180 228 282 333
#     4   9  20  37  57  82 108 142 190 230 267 327
#     4   9  19  37  59  83 109 144 191 230 270 328
#
# _framework density 21.138089000000001
#
# number of rings (size 3 to 8) (size 9 to 14) (size 15 to 20)
#    0.000    2.500    0.000    2.250    0.000   10.000 
#    0.000    1.250    0.000    0.000    0.000    0.000 
#    0.000    0.000    0.000    0.000    0.000    0.000 
#
# Total GULP energy -89344.718012 kJ/mol
# GULP energy per Si atom -5584.044876 kJ/mol
# Density = 2.108998 g / cm^3
# Si number density = 21.138089 Si / 1000 Ang^3
#
#
#
# Elastic Constant Matrix: (Units=GPa)
#
#
# Indices 1 2 3 4 5 6 
#
# 1 62.5031 107.3012 17.2212 0.0000 -8.3163 0.0000
# 2 107.3012 251.9243 27.3818 0.0000 -41.1299 0.0000
# 3 17.2212 27.3818 49.0081 0.0000 0.6154 0.0000
# 4 0.0000 0.0000 0.0000 3.1735 0.0000 -25.5817
# 5 -8.3163 -41.1299 0.6154 0.0000 27.1826 0.0000
# 6 0.0000 0.0000 0.0000 -25.5817 0.0000 50.2921
#
#
#
# Elastic Compliance Matrix: (Units=1/GPa)
#
#
# Indices 1 2 3 4 5 6 
#
# 1 0.080487 -0.039311 -0.005883 0.000000 -0.034724 0.000000
# 2 -0.039311 0.024970 -0.000461 0.000000 0.025765 0.000000
# 3 -0.005883 -0.000461 0.022767 0.000000 -0.003012 0.000000
# 4 0.000000 0.000000 0.000000 -0.101637 0.000000 -0.051699
# 5 -0.034724 0.025765 -0.003012 0.000000 0.065218 0.000000
# 6 0.000000 0.000000 0.000000 -0.051699 0.000000 -0.006414
#
#
# Mechanical properties :
#
#
# Convention : Reuss Voigt Hill
#
# Bulk Modulus (GPa) = 27.08981 74.13824 50.61402
# Shear Modulus (GPa) = 26.45432 30.23172 28.34302
#
# Velocity S-wave (km/s) = 3.54149 3.78590 3.66574
# Velocity P-wave (km/s) = 5.43750 7.36615 6.47405
#
# Compressibility (1/GPa) = 0.03691425
#
# Stress axis : x y z
#
# Youngs Moduli (GPa) = 12.42441 40.04849 43.92280
#
# Poissons Ratio (x) = 1.57436 0.25838
# Poissons Ratio (y) = 0.48842 0.02024
# Poissons Ratio (z) = 0.07309 0.01846
#
# Static dielectric constant tensor:
#      x y z
#    x 1.743320 0.000000 0.049900 
#    y 0.000000 1.770640 0.000000 
#    z 0.049900 0.000000 1.823500 
# 
# From -- ./inp_files/131732.got.cif
#   From: 2010.05.17/outbox.cif.g08.bks.cpg/sg15_66_cif.got.tgz:131732.got - 2010.06.03 18:47:42.
