data_PCOD9303305
_publ_section_title
;
Structure prediction by ZEFSAII (Michael W. Deem and Ramdas Pophale) SiO2 
 PCOD9303305
Probable space group: C 2/C
;
_chemical_formula_sum "Si O2"
_cell_formula_units_Z 32
_cell_length_a 21.382434
_cell_length_b 6.299198
_cell_length_c 8.951003
_cell_angle_alpha 90.000000
_cell_angle_beta 94.353290
_cell_angle_gamma 90.000000
_cell_volume 1202.151872
_symmetry_space_group_name_H-M "C 2/C"
_symmetry_group_IT_number 15
_symmetry_cell_setting 'monoclinic'
loop_
_space_group_symop_operation_xyz
x,y,z
-x,y,1/2-z
-x,-y,-z
x,-y,1/2+z
1/2+x,1/2+y,z
1/2-x,1/2+y,1/2-z
1/2-x,1/2-y,-z
1/2+x,1/2-y,1/2+z
loop_
_atom_site_type_symbol
_atom_site_label
_atom_site_fract_x
_atom_site_fract_y
_atom_site_fract_z
Si Si1 0.224333 0.423947 0.111429
Si Si2 0.658523 0.681789 0.681280
Si Si3 0.593821 0.267684 0.663081
Si Si4 0.940636 0.568569 0.144159
O O1 0.282970 0.439435 0.232904
O O2 0.192849 0.655992 0.072614
O O3 0.164065 0.318479 0.172660
O O4 0.250000 0.250000 0.000000
O O5 0.605624 0.512187 0.624325
O O6 0.621328 0.815970 0.800419
O O7 0.566842 0.181610 0.815136
O O8 0.557665 0.139043 0.526641
O O9 0.000000 0.646953 0.250000
#
# Coordination Sequence:
#
# PCOD9303305 Si02
#       4
#     8   8   8   8
#     4  11  22  43  69 108 146 183 235 304 375 446
#     4  11  24  42  73 109 144 191 244 303 381 439
#     4  11  25  46  74 110 147 198 248 311 372 438
#     4  11  26  48  72 106 149 202 255 310 360 441
#
# _framework density 26.618932000000001
#
# number of rings (size 3 to 8) (size 9 to 14) (size 15 to 20)
#    0.000    1.000    5.000    0.750    0.000    7.000 
#    0.000    0.000    0.000    0.000    0.000    0.000 
#    0.000    0.000    0.000    0.000    0.000    0.000 
#
# Total GULP energy -89274.310610 kJ/mol
# GULP energy per Si atom -5579.644413 kJ/mol
# Density = 2.655835 g / cm^3
# Si number density = 26.618932 Si / 1000 Ang^3
#
#
#
# Elastic Constant Matrix: (Units=GPa)
#
#
# Indices 1 2 3 4 5 6 
#
# 1 111.4573 24.4018 32.4618 0.0000 3.8896 0.0000
# 2 24.4018 178.2364 73.4357 0.0000 -6.5731 0.0000
# 3 32.4618 73.4357 113.6326 0.0000 6.1986 0.0000
# 4 0.0000 0.0000 0.0000 18.0188 0.0000 1.0103
# 5 3.8896 -6.5731 6.1986 0.0000 53.1992 0.0000
# 6 0.0000 0.0000 0.0000 1.0103 0.0000 45.8818
#
#
#
# Elastic Compliance Matrix: (Units=1/GPa)
#
#
# Indices 1 2 3 4 5 6 
#
# 1 0.009805 -0.000293 -0.002587 0.000000 -0.000452 0.000000
# 2 -0.000293 0.007781 -0.005030 0.000000 0.001569 0.000000
# 3 -0.002587 -0.005030 0.012896 0.000000 -0.001935 0.000000
# 4 0.000000 0.000000 0.000000 0.055566 0.000000 -0.001223
# 5 -0.000452 0.001569 -0.001935 0.000000 0.019250 0.000000
# 6 0.000000 0.000000 0.000000 -0.001223 0.000000 0.021822
#
#
# Mechanical properties :
#
#
# Convention : Reuss Voigt Hill
#
# Bulk Modulus (GPa) = 68.20768 73.76942 70.98855
# Shear Modulus (GPa) = 33.82296 41.62177 37.72237
#
# Velocity S-wave (km/s) = 3.56846 3.95855 3.76856
# Velocity P-wave (km/s) = 6.53131 6.97616 6.75739
#
# Compressibility (1/GPa) = 0.01466111
#
# Stress axis : x y z
#
# Youngs Moduli (GPa) = 101.98391 128.51605 77.54448
#
# Poissons Ratio (x) = 0.03768 0.20061
# Poissons Ratio (y) = 0.02990 0.39008
# Poissons Ratio (z) = 0.26384 0.64649
#
# Static dielectric constant tensor:
#      x y z
#    x 2.024480 0.000000 -0.023870 
#    y 0.000000 2.329010 0.000000 
#    z -0.023870 0.000000 2.139130 
# 
# From -- ./inp_files/120485.got.cif
#   From: 2010.05.17/outbox.cif.g08.bks.cpg/sg15_61_cif.got.tgz:120485.got - 2010.06.03 18:47:42.
