data_PCOD9303451
_publ_section_title
;
Structure prediction by ZEFSAII (Michael W. Deem and Ramdas Pophale) SiO2 
 PCOD9303451
Probable space group: C 2/C
;
_chemical_formula_sum "Si O2"
_cell_formula_units_Z 48
_cell_length_a 11.486088
_cell_length_b 10.893177
_cell_length_c 21.131593
_cell_angle_alpha 90.000000
_cell_angle_beta 50.628683
_cell_angle_gamma 90.000000
_cell_volume 2043.935624
_symmetry_space_group_name_H-M "C 2/C"
_symmetry_group_IT_number 15
_symmetry_cell_setting 'monoclinic'
loop_
_space_group_symop_operation_xyz
x,y,z
-x,y,1/2-z
-x,-y,-z
x,-y,1/2+z
1/2+x,1/2+y,z
1/2-x,1/2+y,1/2-z
1/2-x,1/2-y,-z
1/2+x,1/2-y,1/2+z
loop_
_atom_site_type_symbol
_atom_site_label
_atom_site_fract_x
_atom_site_fract_y
_atom_site_fract_z
Si Si1 0.882565 0.190780 0.844376
Si Si2 0.340698 0.299694 0.837864
Si Si3 0.829859 0.534604 0.659158
Si Si4 0.568344 0.463515 0.586692
Si Si5 0.755518 0.951587 0.165207
Si Si6 0.141557 0.440035 0.585055
O O1 0.728683 0.147665 0.863144
O O2 0.948756 0.068045 0.853206
O O3 0.866302 0.294146 0.903049
O O4 0.000000 0.230569 0.750000
O O5 0.500000 0.269092 0.750000
O O6 0.266909 0.416703 0.829204
O O7 0.382123 0.339717 0.894862
O O8 0.228967 0.186086 0.867120
O O9 0.796121 0.556999 0.744579
O O10 0.003666 0.497069 0.593742
O O11 0.406622 0.466644 0.609842
O O12 0.703713 0.512024 0.497480
O O13 0.638008 0.011621 0.158023
#
# Coordination Sequence:
#
# PCOD9303451 Si02
#       6
#     8   8   8   8   8   8
#     4  11  22  44  71  92 131 182 226 282 338 399
#     4  11  23  43  71  93 131 182 230 288 333 398
#     4  11  23  42  68  97 132 174 234 282 334 408
#     4  11  24  46  65  96 140 177 225 281 348 403
#     4  12  24  42  67  96 134 182 227 274 344 409
#     4  12  27  39  65 106 137 171 227 286 342 413
#
# _framework density 23.484103999999999
#
# number of rings (size 3 to 8) (size 9 to 14) (size 15 to 20)
#    0.000    0.667    3.333    5.500    2.333    6.000 
#    0.000    0.000    0.000    0.000    0.000    0.000 
#    0.000    0.000    0.000    0.000    0.000    0.000 
#
# Total GULP energy -134323.055859 kJ/mol
# GULP energy per Si atom -5596.793994 kJ/mol
# Density = 2.343065 g / cm^3
# Si number density = 23.484104 Si / 1000 Ang^3
#
#
#
# Elastic Constant Matrix: (Units=GPa)
#
#
# Indices 1 2 3 4 5 6 
#
# 1 121.0551 22.3863 6.2436 0.0000 -7.3399 0.0000
# 2 22.3863 80.7029 -6.5119 0.0000 5.8932 0.0000
# 3 6.2436 -6.5119 58.4669 0.0000 -12.4201 0.0000
# 4 0.0000 0.0000 0.0000 5.4799 0.0000 -5.6785
# 5 -7.3399 5.8932 -12.4201 0.0000 21.1001 0.0000
# 6 0.0000 0.0000 0.0000 -5.6785 0.0000 -9.1151
#
#
#
# Elastic Compliance Matrix: (Units=1/GPa)
#
#
# Indices 1 2 3 4 5 6 
#
# 1 0.009026 -0.002809 -0.000506 0.000000 0.003626 0.000000
# 2 -0.002809 0.013553 0.000912 0.000000 -0.004226 0.000000
# 3 -0.000506 0.000912 0.019621 0.000000 0.011119 0.000000
# 4 0.000000 0.000000 0.000000 0.110896 0.000000 -0.069086
# 5 0.003626 -0.004226 0.011119 0.000000 0.056380 0.000000
# 6 0.000000 0.000000 0.000000 -0.069086 0.000000 -0.066669
#
#
# Mechanical properties :
#
#
# Convention : Reuss Voigt Hill
#
# Bulk Modulus (GPa) = 26.74377 33.82899 30.28638
# Shear Modulus (GPa) = 31.23454 19.36677 25.30066
#
# Velocity S-wave (km/s) = 3.65091 2.87483 3.28587
# Velocity P-wave (km/s) = 5.40231 5.04538 5.22689
#
# Compressibility (1/GPa) = 0.03739189
#
# Stress axis : x y z
#
# Youngs Moduli (GPa) = 110.78799 73.78647 50.96498
#
# Poissons Ratio (x) = 0.20730 0.02581
# Poissons Ratio (y) = 0.31126 -0.04647
# Poissons Ratio (z) = 0.05611 -0.06728
#
# Static dielectric constant tensor:
#      x y z
#    x 1.891000 0.000000 0.009840 
#    y 0.000000 1.933090 0.000000 
#    z 0.009840 0.000000 1.890100 
# 
# From -- ./inp_files/196054.got.cif
#   From: 2010.05.17/outbox.cif.g08.bks.cpg/sg15_99_cif.got.tgz:196054.got - 2010.06.03 18:47:42.
