data_PCOD9303850
_publ_section_title
;
Structure prediction by ZEFSAII (Michael W. Deem and Ramdas Pophale) SiO2 
 PCOD9303850
Probable space group: C 2/C
;
_chemical_formula_sum "Si O2"
_cell_formula_units_Z 40
_cell_length_a 24.993800
_cell_length_b 8.562224
_cell_length_c 9.742930
_cell_angle_alpha 90.000000
_cell_angle_beta 124.528503
_cell_angle_gamma 90.000000
_cell_volume 1717.724886
_symmetry_space_group_name_H-M "C 2/C"
_symmetry_group_IT_number 15
_symmetry_cell_setting 'monoclinic'
loop_
_space_group_symop_operation_xyz
x,y,z
-x,y,1/2-z
-x,-y,-z
x,-y,1/2+z
1/2+x,1/2+y,z
1/2-x,1/2+y,1/2-z
1/2-x,1/2-y,-z
1/2+x,1/2-y,1/2+z
loop_
_atom_site_type_symbol
_atom_site_label
_atom_site_fract_x
_atom_site_fract_y
_atom_site_fract_z
Si Si1 0.876292 0.372997 0.221987
Si Si2 0.278577 0.871724 0.649952
Si Si3 0.898120 0.199982 0.975179
Si Si4 0.946655 0.308823 0.789426
Si Si5 0.139899 0.145374 0.049022
O O1 0.808389 0.472767 0.122650
O O2 0.928194 0.511349 0.282816
O O3 0.873620 0.279503 0.359862
O O4 0.893357 0.256265 0.124228
O O5 0.250000 0.750000 0.500000
O O6 0.336149 0.791627 0.819887
O O7 0.215755 0.901118 0.652514
O O8 0.956726 0.247695 0.958460
O O9 0.895025 0.014777 0.965835
O O10 0.887134 0.211929 0.634179
O O11 0.000000 0.292246 0.750000
#
# Coordination Sequence:
#
# PCOD9303850 Si02
#       5
#     8   8   8   8   8
#     4  11  25  42  68  98 132 171 219 263 324 391
#     4  11  23  40  65  98 135 173 207 259 315 395
#     4  11  25  42  68 100 131 171 215 269 327 386
#     4  11  25  46  68  91 127 174 223 272 327 387
#     4  12  24  43  67  98 135 171 215 268 323 387
#
# _framework density 23.286617
#
# number of rings (size 3 to 8) (size 9 to 14) (size 15 to 20)
#    0.000    0.800    4.000    4.800    2.800    5.600 
#    0.000    2.000    0.000    0.000    0.000    0.000 
#    0.000    0.000    0.000    0.000    0.000    0.000 
#
# Total GULP energy -111786.864882 kJ/mol
# GULP energy per Si atom -5589.343244 kJ/mol
# Density = 2.323362 g / cm^3
# Si number density = 23.286617 Si / 1000 Ang^3
#
#
#
# Elastic Constant Matrix: (Units=GPa)
#
#
# Indices 1 2 3 4 5 6 
#
# 1 106.3090 28.1300 16.3146 0.0000 -25.0862 0.0000
# 2 28.1300 97.6183 -10.0132 0.0000 -2.9921 0.0000
# 3 16.3146 -10.0132 49.5212 0.0000 -17.5901 0.0000
# 4 0.0000 0.0000 0.0000 27.1036 0.0000 -1.6967
# 5 -25.0862 -2.9921 -17.5901 0.0000 28.8857 0.0000
# 6 0.0000 0.0000 0.0000 -1.6967 0.0000 -1.7164
#
#
#
# Elastic Compliance Matrix: (Units=1/GPa)
#
#
# Indices 1 2 3 4 5 6 
#
# 1 0.012926 -0.003566 -0.001433 0.000000 0.009984 0.000000
# 2 -0.003566 0.011656 0.003650 0.000000 0.000333 0.000000
# 3 -0.001433 0.003650 0.026918 0.000000 0.015525 0.000000
# 4 0.000000 0.000000 0.000000 0.034745 0.000000 -0.034347
# 5 0.009984 0.000333 0.015525 0.000000 0.052778 0.000000
# 6 0.000000 0.000000 0.000000 -0.034347 0.000000 -0.548674
#
#
# Mechanical properties :
#
#
# Convention : Reuss Voigt Hill
#
# Bulk Modulus (GPa) = 20.49080 35.81235 28.15158
# Shear Modulus (GPa) = -12.79805 25.45574 6.32884
#
# Velocity S-wave (km/s) = -2.34687 3.30987 1.65036
# Velocity P-wave (km/s) = 1.21439 5.47899 3.96825
#
# Compressibility (1/GPa) = 0.04880238
#
# Stress axis : x y z
#
# Youngs Moduli (GPa) = 77.36423 85.79179 37.14950
#
# Poissons Ratio (x) = 0.30591 0.05324
# Poissons Ratio (y) = 0.27586 -0.13560
# Poissons Ratio (z) = 0.11088 -0.31314
#
# Static dielectric constant tensor:
#      x y z
#    x 2.008480 0.000000 0.008460 
#    y 0.000000 1.832470 0.000000 
#    z 0.008460 0.000000 1.880250 
# 
# From -- ./inp_files/60079.got.cif
#   From: 2010.05.17/outbox.cif.g08.bks.cpg/sg15_31_cif.got.tgz:60079.got - 2010.06.03 18:47:42.
