data_PCOD9303459
_publ_section_title
;
Structure prediction by ZEFSAII (Michael W. Deem and Ramdas Pophale) SiO2 
 PCOD9303459
Probable space group: C 2/C
;
_chemical_formula_sum "Si O2"
_cell_formula_units_Z 44
_cell_length_a 23.259842
_cell_length_b 12.166323
_cell_length_c 10.875258
_cell_angle_alpha 90.000000
_cell_angle_beta 139.322334
_cell_angle_gamma 90.000000
_cell_volume 2005.958364
_symmetry_space_group_name_H-M "C 2/C"
_symmetry_group_IT_number 15
_symmetry_cell_setting 'monoclinic'
loop_
_space_group_symop_operation_xyz
x,y,z
-x,y,1/2-z
-x,-y,-z
x,-y,1/2+z
1/2+x,1/2+y,z
1/2-x,1/2+y,1/2-z
1/2-x,1/2-y,-z
1/2+x,1/2-y,1/2+z
loop_
_atom_site_type_symbol
_atom_site_label
_atom_site_fract_x
_atom_site_fract_y
_atom_site_fract_z
Si Si1 0.746240 0.323571 0.616774
Si Si2 0.568460 0.673765 0.264083
Si Si3 0.000000 0.418850 0.750000
Si Si4 0.243367 0.420899 0.430438
Si Si5 0.899987 0.737305 0.932115
Si Si6 0.364942 0.884472 0.021136
O O1 0.750000 0.250000 0.500000
O O2 0.750139 0.451405 0.587054
O O3 0.658708 0.290161 0.553025
O O4 0.832907 0.322161 0.846595
O O5 0.500000 0.624356 0.250000
O O6 0.663855 0.629549 0.452003
O O7 0.564762 0.673865 0.110079
O O8 0.573974 0.803166 0.302383
O O9 0.983441 0.334898 0.611611
O O10 0.916316 0.500166 0.603918
O O11 0.168752 0.350582 0.239563
O O12 0.222753 0.403902 0.540832
#
# Coordination Sequence:
#
# PCOD9303459 Si02
#       6
#     8   8   4   8   8   8
#     4  12  25  43  74 105 140 195 239 295 366 445
#     4  11  23  43  73  98 140 195 243 298 364 439
#     4  12  24  42  74 114 146 186 240 322 358 414
#     4  11  23  45  75  96 145 200 239 299 369 436
#     4  11  24  45  68 108 152 183 249 306 364 430
#     4  11  22  44  72 106 140 186 242 299 367 435
#
# _framework density 21.934650999999999
#
# number of rings (size 3 to 8) (size 9 to 14) (size 15 to 20)
#    0.000    0.727    6.364    2.182    0.000    5.818 
#    1.636    0.909    0.000    0.000    0.000    0.000 
#    0.000    0.000    0.000    0.000    0.000    0.000 
#
# Total GULP energy -122616.118794 kJ/mol
# GULP energy per Si atom -5573.459945 kJ/mol
# Density = 2.188473 g / cm^3
# Si number density = 21.934651 Si / 1000 Ang^3
#
#
#
# Elastic Constant Matrix: (Units=GPa)
#
#
# Indices 1 2 3 4 5 6 
#
# 1 163.9289 25.2530 40.8369 0.0000 -0.8215 0.0000
# 2 25.2530 39.0159 -11.4502 0.0000 -6.6886 0.0000
# 3 40.8369 -11.4502 70.9062 0.0000 -5.6315 0.0000
# 4 0.0000 0.0000 0.0000 25.6454 0.0000 -12.3452
# 5 -0.8215 -6.6886 -5.6315 0.0000 31.6188 0.0000
# 6 0.0000 0.0000 0.0000 -12.3452 0.0000 80.5805
#
#
#
# Elastic Compliance Matrix: (Units=1/GPa)
#
#
# Indices 1 2 3 4 5 6 
#
# 1 0.009056 -0.008318 -0.006776 0.000000 -0.002731 0.000000
# 2 -0.008318 0.035957 0.011344 0.000000 0.009411 0.000000
# 3 -0.006776 0.011344 0.020301 0.000000 0.005839 0.000000
# 4 0.000000 0.000000 0.000000 0.042098 0.000000 0.006450
# 5 -0.002731 0.009411 0.005839 0.000000 0.034587 0.000000
# 6 0.000000 0.000000 0.000000 0.006450 0.000000 0.013398
#
#
# Mechanical properties :
#
#
# Convention : Reuss Voigt Hill
#
# Bulk Modulus (GPa) = 17.29636 42.57005 29.93320
# Shear Modulus (GPa) = 27.44736 42.18304 34.81520
#
# Velocity S-wave (km/s) = 3.54124 4.39010 3.98832
# Velocity P-wave (km/s) = 4.96216 6.71916 5.90636
#
# Compressibility (1/GPa) = 0.05781563
#
# Stress axis : x y z
#
# Youngs Moduli (GPa) = 110.42646 27.81095 49.25833
#
# Poissons Ratio (x) = 0.23133 0.33376
# Poissons Ratio (y) = 0.91853 -0.55881
# Poissons Ratio (z) = 0.74821 -0.31550
#
# Static dielectric constant tensor:
#      x y z
#    x 1.902460 0.000000 -0.062750 
#    y 0.000000 1.820130 0.000000 
#    z -0.062750 0.000000 1.870930 
# 
# From -- ./inp_files/118120.got.cif
#   From: 2010.05.17/outbox.cif.g08.bks.cpg/sg15_60_cif.got.tgz:118120.got - 2010.06.03 18:47:42.
