data_PCOD9303765
_publ_section_title
;
Structure prediction by ZEFSAII (Michael W. Deem and Ramdas Pophale) SiO2 
 PCOD9303765
Probable space group: C 2/C
;
_chemical_formula_sum "Si O2"
_cell_formula_units_Z 56
_cell_length_a 11.277024
_cell_length_b 8.747050
_cell_length_c 28.363431
_cell_angle_alpha 90.000000
_cell_angle_beta 65.293248
_cell_angle_gamma 90.000000
_cell_volume 2541.675926
_symmetry_space_group_name_H-M "C 2/C"
_symmetry_group_IT_number 15
_symmetry_cell_setting 'monoclinic'
loop_
_space_group_symop_operation_xyz
x,y,z
-x,y,1/2-z
-x,-y,-z
x,-y,1/2+z
1/2+x,1/2+y,z
1/2-x,1/2+y,1/2-z
1/2-x,1/2-y,-z
1/2+x,1/2-y,1/2+z
loop_
_atom_site_type_symbol
_atom_site_label
_atom_site_fract_x
_atom_site_fract_y
_atom_site_fract_z
Si Si1 0.980156 0.054374 0.613983
Si Si2 0.377456 0.964336 0.235211
Si Si3 0.772413 0.170141 0.575672
Si Si4 0.161807 0.891393 0.999798
Si Si5 0.587552 0.326307 0.280353
Si Si6 0.464565 0.836987 0.485130
Si Si7 0.011883 0.286468 0.369408
O O1 0.101227 0.040413 0.557786
O O2 0.873614 0.141591 0.600631
O O3 0.000791 0.147050 0.658461
O O4 0.934925 0.884795 0.635641
O O5 0.500000 0.919279 0.250000
O O6 0.381427 0.147954 0.232777
O O7 0.227792 0.907445 0.268092
O O8 0.411213 0.893058 0.178642
O O9 0.824559 0.295872 0.530319
O O10 0.638338 0.218851 0.621543
O O11 0.769000 0.013839 0.545319
O O12 0.047030 0.809684 0.989340
O O13 0.250000 0.750000 0.000000
O O14 0.500000 0.380518 0.250000
O O15 0.494187 0.846580 0.425288
O O16 0.500000 0.000000 0.500000
#
# Coordination Sequence:
#
# PCOD9303765 Si02
#       7
#     8   8   8   8   8   8   8
#     4  11  24  44  66  98 133 178 225 280 346 408
#     4  11  27  50  73 104 138 180 234 302 356 421
#     4  11  23  43  64  97 143 183 220 278 343 416
#     4  11  23  40  63  95 143 178 219 275 337 410
#     4  11  27  50  75 103 138 179 241 296 357 424
#     4  11  23  39  61 100 137 175 228 273 329 420
#     4  12  24  41  71  95 133 180 225 276 350 407
#
# _framework density 22.032706000000001
#
# number of rings (size 3 to 8) (size 9 to 14) (size 15 to 20)
#    0.000    0.857    2.857    3.857    8.000    5.714 
#    0.000    0.000    0.000    0.000    0.000    0.000 
#    0.000    0.000    0.000    0.000    0.000    0.000 
#
# Total GULP energy -156408.507396 kJ/mol
# GULP energy per Si atom -5586.018121 kJ/mol
# Density = 2.198256 g / cm^3
# Si number density = 22.032706 Si / 1000 Ang^3
#
#
#
# Elastic Constant Matrix: (Units=GPa)
#
#
# Indices 1 2 3 4 5 6 
#
# 1 75.6866 12.1471 32.3765 0.0000 12.5903 0.0000
# 2 12.1471 80.0327 17.7920 0.0000 9.4194 0.0000
# 3 32.3765 17.7920 104.6281 0.0000 13.8439 0.0000
# 4 0.0000 0.0000 0.0000 34.5149 0.0000 -0.1797
# 5 12.5903 9.4194 13.8439 0.0000 35.5559 0.0000
# 6 0.0000 0.0000 0.0000 -0.1797 0.0000 34.9568
#
#
#
# Elastic Compliance Matrix: (Units=1/GPa)
#
#
# Indices 1 2 3 4 5 6 
#
# 1 0.015797 -0.001025 -0.004228 0.000000 -0.003676 0.000000
# 2 -0.001025 0.013307 -0.001610 0.000000 -0.002535 0.000000
# 3 -0.004228 -0.001610 0.011476 0.000000 -0.002545 0.000000
# 4 0.000000 0.000000 0.000000 0.028974 0.000000 0.000149
# 5 -0.003676 -0.002535 -0.002545 0.000000 0.031089 0.000000
# 6 0.000000 0.000000 0.000000 0.000149 0.000000 0.028607
#
#
# Mechanical properties :
#
#
# Convention : Reuss Voigt Hill
#
# Bulk Modulus (GPa) = 37.23775 42.77539 40.00657
# Shear Modulus (GPa) = 32.91049 34.20764 33.55907
#
# Velocity S-wave (km/s) = 3.86905 3.94456 3.90699
# Velocity P-wave (km/s) = 6.07431 6.34056 6.20886
#
# Compressibility (1/GPa) = 0.02685447
#
# Stress axis : x y z
#
# Youngs Moduli (GPa) = 63.30394 75.14936 87.13555
#
# Poissons Ratio (x) = 0.07704 0.36837
# Poissons Ratio (y) = 0.06489 0.14030
# Poissons Ratio (z) = 0.26762 0.12100
#
# Static dielectric constant tensor:
#      x y z
#    x 1.917240 0.000000 -0.034250 
#    y 0.000000 1.769290 0.000000 
#    z -0.034250 0.000000 1.778190 
# 
# From -- ./inp_files/291525.got.cif
#   From: 2010.05.17/outbox.cif.g08.bks.cpg/sg15_146_cif.got.tgz:291525.got - 2010.06.03 18:47:42.
