data_PCOD9303482
_publ_section_title
;
Structure prediction by ZEFSAII (Michael W. Deem and Ramdas Pophale) SiO2 
 PCOD9303482
Probable space group: C 2/C
;
_chemical_formula_sum "Si O2"
_cell_formula_units_Z 40
_cell_length_a 9.125104
_cell_length_b 17.483222
_cell_length_c 11.866036
_cell_angle_alpha 90.000000
_cell_angle_beta 67.944120
_cell_angle_gamma 90.000000
_cell_volume 1754.524537
_symmetry_space_group_name_H-M "C 2/C"
_symmetry_group_IT_number 15
_symmetry_cell_setting 'monoclinic'
loop_
_space_group_symop_operation_xyz
x,y,z
-x,y,1/2-z
-x,-y,-z
x,-y,1/2+z
1/2+x,1/2+y,z
1/2-x,1/2+y,1/2-z
1/2-x,1/2-y,-z
1/2+x,1/2-y,1/2+z
loop_
_atom_site_type_symbol
_atom_site_label
_atom_site_fract_x
_atom_site_fract_y
_atom_site_fract_z
Si Si1 0.748313 0.949557 0.848570
Si Si2 0.373354 0.104113 0.699176
Si Si3 0.446983 0.672266 0.638499
Si Si4 0.947197 0.072741 0.085857
Si Si5 0.603815 0.804261 0.992752
O O1 0.908259 0.926977 0.868369
O O2 0.635961 0.890544 0.943134
O O3 0.790184 0.933982 0.705345
O O4 0.690978 0.037668 0.865559
O O5 0.500000 0.069993 0.750000
O O6 0.224511 0.132587 0.815461
O O7 0.458531 0.179006 0.619917
O O8 0.500000 0.657394 0.750000
O O9 0.552211 0.638754 0.506956
O O10 0.437892 0.760196 0.609448
O O11 0.000000 0.000000 0.000000
O O12 0.750000 0.750000 0.000000
#
# Coordination Sequence:
#
# PCOD9303482 Si02
#       5
#     8   8   8   8   8
#     4  11  25  44  75 109 143 194 249 303 368 447
#     4  12  25  46  76 107 153 191 248 310 371 444
#     4  12  27  48  72 108 145 193 250 309 366 445
#     4  11  22  44  74 102 144 191 242 299 376 441
#     4  12  26  47  73 104 152 202 244 302 380 442
#
# _framework density 22.798200000000001
#
# number of rings (size 3 to 8) (size 9 to 14) (size 15 to 20)
#    0.000    0.400    6.000    1.800    2.800    1.600 
#    7.200    0.000    0.000    0.000    0.000    0.000 
#    0.000    0.000    0.000    0.000    0.000    0.000 
#
# Total GULP energy -111465.156079 kJ/mol
# GULP energy per Si atom -5573.257804 kJ/mol
# Density = 2.274631 g / cm^3
# Si number density = 22.798200 Si / 1000 Ang^3
#
#
#
# Elastic Constant Matrix: (Units=GPa)
#
#
# Indices 1 2 3 4 5 6 
#
# 1 42.6437 1.8879 25.0048 0.0000 7.8120 0.0000
# 2 1.8879 76.6215 15.3568 0.0000 0.7614 0.0000
# 3 25.0048 15.3568 118.4296 0.0000 -1.7767 0.0000
# 4 0.0000 0.0000 0.0000 53.5724 0.0000 3.6996
# 5 7.8120 0.7614 -1.7767 0.0000 32.0355 0.0000
# 6 0.0000 0.0000 0.0000 3.6996 0.0000 47.3657
#
#
#
# Elastic Compliance Matrix: (Units=1/GPa)
#
#
# Indices 1 2 3 4 5 6 
#
# 1 0.028380 0.000612 -0.006181 0.000000 -0.007278 0.000000
# 2 0.000612 0.013418 -0.001878 0.000000 -0.000572 0.000000
# 3 -0.006181 -0.001878 0.010024 0.000000 0.002108 0.000000
# 4 0.000000 0.000000 0.000000 0.018768 0.000000 -0.001466
# 5 -0.007278 -0.000572 0.002108 0.000000 0.033121 0.000000
# 6 0.000000 0.000000 0.000000 -0.001466 0.000000 0.021227
#
#
# Mechanical properties :
#
#
# Convention : Reuss Voigt Hill
#
# Bulk Modulus (GPa) = 27.07872 35.79931 31.43902
# Shear Modulus (GPa) = 32.86436 39.62439 36.24438
#
# Velocity S-wave (km/s) = 3.80087 4.17351 3.99154
# Velocity P-wave (km/s) = 5.58261 6.24188 5.92143
#
# Compressibility (1/GPa) = 0.03692936
#
# Stress axis : x y z
#
# Youngs Moduli (GPa) = 35.23549 74.52617 99.76164
#
# Poissons Ratio (x) = -0.04559 0.61659
# Poissons Ratio (y) = -0.02156 0.18732
# Poissons Ratio (z) = 0.21778 0.13994
#
# Static dielectric constant tensor:
#      x y z
#    x 1.932270 0.000000 0.009070 
#    y 0.000000 1.501160 0.000000 
#    z 0.009070 0.000000 1.936020 
# 
# From -- ./inp_files/87082.got.cif
#   From: 2010.05.17/outbox.cif.g08.bks.cpg/sg15_44_cif.got.tgz:87082.got - 2010.06.03 18:47:42.
