data_PCOD9303531
_publ_section_title
;
Structure prediction by ZEFSAII (Michael W. Deem and Ramdas Pophale) SiO2 
 PCOD9303531
Probable space group: C 2/C
;
_chemical_formula_sum "Si O2"
_cell_formula_units_Z 56
_cell_length_a 10.865767
_cell_length_b 9.895937
_cell_length_c 24.393688
_cell_angle_alpha 90.000000
_cell_angle_beta 75.606984
_cell_angle_gamma 90.000000
_cell_volume 2540.652557
_symmetry_space_group_name_H-M "C 2/C"
_symmetry_group_IT_number 15
_symmetry_cell_setting 'monoclinic'
loop_
_space_group_symop_operation_xyz
x,y,z
-x,y,1/2-z
-x,-y,-z
x,-y,1/2+z
1/2+x,1/2+y,z
1/2-x,1/2+y,1/2-z
1/2-x,1/2-y,-z
1/2+x,1/2-y,1/2+z
loop_
_atom_site_type_symbol
_atom_site_label
_atom_site_fract_x
_atom_site_fract_y
_atom_site_fract_z
Si Si1 0.566557 0.142003 0.005931
Si Si2 0.713439 0.549504 0.588013
Si Si3 0.192088 0.440302 0.307139
Si Si4 0.444426 0.799523 0.864738
Si Si5 0.375859 0.728781 0.449805
Si Si6 0.396293 0.089551 0.840562
Si Si7 0.219432 0.268584 0.779991
O O1 0.710552 0.118019 0.970322
O O2 0.497134 0.253310 0.975778
O O3 0.543453 0.169268 0.071820
O O4 0.500000 0.000000 0.000000
O O5 0.809114 0.524399 0.628051
O O6 0.621641 0.656001 0.625868
O O7 0.641954 0.416250 0.576409
O O8 0.254341 0.573165 0.272829
O O9 0.268539 0.310158 0.278209
O O10 0.045541 0.410381 0.307993
O O11 0.577503 0.779754 0.819340
O O12 0.369843 0.928894 0.848090
O O13 0.250000 0.750000 0.500000
O O14 0.383912 0.841085 0.401501
O O15 0.307463 0.178974 0.810970
#
# Coordination Sequence:
#
# PCOD9303531 Si02
#       7
#     8   8   8   8   8   8   8
#     4  12  21  42  69  95 136 180 223 271 335 412
#     4  12  25  42  64 105 139 169 229 282 343 408
#     4  11  25  45  70  98 131 182 230 284 342 410
#     4  11  26  42  68 102 139 176 220 284 343 405
#     4  12  22  37  71  97 131 178 218 273 335 405
#     4  11  22  45  69  96 130 180 229 270 343 409
#     4  11  25  46  69  98 135 176 236 282 341 410
#
# _framework density 22.041581999999998
#
# number of rings (size 3 to 8) (size 9 to 14) (size 15 to 20)
#    0.000    0.571    5.714    2.571    2.000    3.429 
#    2.571    0.000    0.000    0.000    0.000    0.000 
#    0.000    0.000    0.000    0.000    0.000    0.000 
#
# Total GULP energy -156504.389857 kJ/mol
# GULP energy per Si atom -5589.442495 kJ/mol
# Density = 2.199141 g / cm^3
# Si number density = 22.041582 Si / 1000 Ang^3
#
#
#
# Elastic Constant Matrix: (Units=GPa)
#
#
# Indices 1 2 3 4 5 6 
#
# 1 49.6556 41.8188 3.5623 0.0000 0.4363 0.0000
# 2 41.8188 152.4579 36.5647 0.0000 -9.7552 0.0000
# 3 3.5623 36.5647 84.7831 0.0000 2.6372 0.0000
# 4 0.0000 0.0000 0.0000 46.3033 0.0000 -1.5474
# 5 0.4363 -9.7552 2.6372 0.0000 33.1161 0.0000
# 6 0.0000 0.0000 0.0000 -1.5474 0.0000 42.6813
#
#
#
# Elastic Compliance Matrix: (Units=1/GPa)
#
#
# Indices 1 2 3 4 5 6 
#
# 1 0.026849 -0.008148 0.002478 0.000000 -0.002951 0.000000
# 2 -0.008148 0.009986 -0.004069 0.000000 0.003373 0.000000
# 3 0.002478 -0.004069 0.013517 0.000000 -0.002308 0.000000
# 4 0.000000 0.000000 0.000000 0.021623 0.000000 0.000784
# 5 -0.002951 0.003373 -0.002308 0.000000 0.031413 0.000000
# 6 0.000000 0.000000 0.000000 0.000784 0.000000 0.023458
#
#
# Mechanical properties :
#
#
# Convention : Reuss Voigt Hill
#
# Bulk Modulus (GPa) = 32.39033 50.08758 41.23896
# Shear Modulus (GPa) = 31.92538 38.08353 35.00446
#
# Velocity S-wave (km/s) = 3.80994 4.16120 3.98943
# Velocity P-wave (km/s) = 5.83791 6.77206 6.32226
#
# Compressibility (1/GPa) = 0.03087341
#
# Stress axis : x y z
#
# Youngs Moduli (GPa) = 37.24590 100.14228 73.97861
#
# Poissons Ratio (x) = 0.81591 -0.18328
# Poissons Ratio (y) = 0.30346 0.30103
# Poissons Ratio (z) = -0.09228 0.40750
#
# Static dielectric constant tensor:
#      x y z
#    x 1.905610 0.000000 0.070900 
#    y 0.000000 1.826390 0.000000 
#    z 0.070900 0.000000 1.827130 
# 
# From -- ./inp_files/291523.got.cif
#   From: 2010.05.17/outbox.cif.g08.bks.cpg/sg15_146_cif.got.tgz:291523.got - 2010.06.03 18:47:42.
