data_PCOD9303549
_publ_section_title
;
Structure prediction by ZEFSAII (Michael W. Deem and Ramdas Pophale) SiO2 
 PCOD9303549
Probable space group: C 2/C
;
_chemical_formula_sum "Si O2"
_cell_formula_units_Z 40
_cell_length_a 9.905802
_cell_length_b 14.983879
_cell_length_c 12.637586
_cell_angle_alpha 90.000000
_cell_angle_beta 63.954133
_cell_angle_gamma 90.000000
_cell_volume 1685.266046
_symmetry_space_group_name_H-M "C 2/C"
_symmetry_group_IT_number 15
_symmetry_cell_setting 'monoclinic'
loop_
_space_group_symop_operation_xyz
x,y,z
-x,y,1/2-z
-x,-y,-z
x,-y,1/2+z
1/2+x,1/2+y,z
1/2-x,1/2+y,1/2-z
1/2-x,1/2-y,-z
1/2+x,1/2-y,1/2+z
loop_
_atom_site_type_symbol
_atom_site_label
_atom_site_fract_x
_atom_site_fract_y
_atom_site_fract_z
Si Si1 0.911332 0.421887 0.593892
Si Si2 0.435401 0.742416 0.015624
Si Si3 0.183000 0.997693 0.307521
Si Si4 0.342969 0.329844 0.337325
Si Si5 0.375119 0.398929 0.954415
O O1 0.839448 0.452856 0.729558
O O2 0.758524 0.400606 0.582025
O O3 0.000000 0.500000 0.500000
O O4 0.013932 0.334221 0.556876
O O5 0.364768 0.670911 0.956957
O O6 0.573948 0.698638 0.026268
O O7 0.300571 0.770687 0.138672
O O8 0.031048 0.056368 0.360894
O O9 0.170715 0.922546 0.219361
O O10 0.181068 0.950055 0.421491
O O11 0.500000 0.288441 0.250000
#
# Coordination Sequence:
#
# PCOD9303549 Si02
#       5
#     8   8   8   8   8
#     4  12  26  48  70 106 146 186 244 305 358 429
#     4  11  26  43  73 106 142 186 242 299 360 425
#     4  11  25  46  72 103 143 192 237 297 359 437
#     4  11  22  45  71 100 145 185 239 294 357 435
#     4  11  26  44  74 102 144 197 239 292 372 422
#
# _framework density 23.735125
#
# number of rings (size 3 to 8) (size 9 to 14) (size 15 to 20)
#    0.000    0.800    4.000    2.400    5.600    0.800 
#    0.000    0.000    0.000    0.000    0.000    0.000 
#    0.000    0.000    0.000    0.000    0.000    0.000 
#
# Total GULP energy -111887.611876 kJ/mol
# GULP energy per Si atom -5594.380594 kJ/mol
# Density = 2.368110 g / cm^3
# Si number density = 23.735125 Si / 1000 Ang^3
#
#
#
# Elastic Constant Matrix: (Units=GPa)
#
#
# Indices 1 2 3 4 5 6 
#
# 1 74.4847 11.2771 14.7139 0.0000 -20.6854 0.0000
# 2 11.2771 97.0206 55.8532 0.0000 -5.7998 0.0000
# 3 14.7139 55.8532 122.6684 0.0000 -40.3257 0.0000
# 4 0.0000 0.0000 0.0000 39.8742 0.0000 -10.5825
# 5 -20.6854 -5.7998 -40.3257 0.0000 37.6163 0.0000
# 6 0.0000 0.0000 0.0000 -10.5825 0.0000 12.2972
#
#
#
# Elastic Compliance Matrix: (Units=1/GPa)
#
#
# Indices 1 2 3 4 5 6 
#
# 1 0.016691 -0.003268 0.003610 0.000000 0.012544 0.000000
# 2 -0.003268 0.015998 -0.010303 0.000000 -0.010376 0.000000
# 3 0.003610 -0.010303 0.019365 0.000000 0.021157 0.000000
# 4 0.000000 0.000000 0.000000 0.032502 0.000000 0.027970
# 5 0.012544 -0.010376 0.021157 0.000000 0.054563 0.000000
# 6 0.000000 0.000000 0.000000 0.027970 0.000000 0.105390
#
#
# Mechanical properties :
#
#
# Convention : Reuss Voigt Hill
#
# Bulk Modulus (GPa) = 31.12238 50.87357 40.99797
# Shear Modulus (GPa) = 18.17239 32.11285 25.14262
#
# Velocity S-wave (km/s) = 2.77001 3.68226 3.25822
# Velocity P-wave (km/s) = 4.83440 6.28961 5.60939
#
# Compressibility (1/GPa) = 0.03213122
#
# Stress axis : x y z
#
# Youngs Moduli (GPa) = 59.91234 62.50758 51.63903
#
# Poissons Ratio (x) = 0.20430 -0.18641
# Poissons Ratio (y) = 0.19581 0.53204
# Poissons Ratio (z) = -0.21628 0.64402
#
# Static dielectric constant tensor:
#      x y z
#    x 1.885850 0.000000 0.043940 
#    y 0.000000 1.922140 0.000000 
#    z 0.043940 0.000000 1.996750 
# 
# From -- ./inp_files/143292.got.cif
#   From: 2010.05.17/outbox.cif.g08.bks.cpg/sg15_72_cif.got.tgz:143292.got - 2010.06.03 18:47:42.
