data_PCOD9303103
_publ_section_title
;
Structure prediction by ZEFSAII (Michael W. Deem and Ramdas Pophale) SiO2 
 PCOD9303103
Probable space group: C 2/C
;
_chemical_formula_sum "Si O2"
_cell_formula_units_Z 44
_cell_length_a 15.131006
_cell_length_b 7.821191
_cell_length_c 19.338946
_cell_angle_alpha 90.000000
_cell_angle_beta 113.159693
_cell_angle_gamma 90.000000
_cell_volume 2104.184320
_symmetry_space_group_name_H-M "C 2/C"
_symmetry_group_IT_number 15
_symmetry_cell_setting 'monoclinic'
loop_
_space_group_symop_operation_xyz
x,y,z
-x,y,1/2-z
-x,-y,-z
x,-y,1/2+z
1/2+x,1/2+y,z
1/2-x,1/2+y,1/2-z
1/2-x,1/2-y,-z
1/2+x,1/2-y,1/2+z
loop_
_atom_site_type_symbol
_atom_site_label
_atom_site_fract_x
_atom_site_fract_y
_atom_site_fract_z
Si Si1 0.854326 0.380102 0.832241
Si Si2 0.500000 0.376680 0.750000
Si Si3 0.478389 0.302101 0.478942
Si Si4 0.328087 0.385114 0.204827
Si Si5 0.347998 0.201334 0.066844
Si Si6 0.541443 0.884946 0.380725
O O1 0.769785 0.507219 0.828958
O O2 0.820152 0.268935 0.756617
O O3 0.947976 0.493392 0.840978
O O4 0.887767 0.250941 0.903364
O O5 0.584361 0.493504 0.745315
O O6 0.456837 0.257644 0.677274
O O7 0.500000 0.500000 0.500000
O O8 0.568773 0.237589 0.462593
O O9 0.469494 0.202115 0.548077
O O10 0.356487 0.312144 0.138722
O O11 0.364565 0.004152 0.092081
O O12 0.250000 0.250000 0.000000
#
# Coordination Sequence:
#
# PCOD9303103 Si02
#       6
#     8   4   8   8   8   8
#     4  11  24  42  63  90 126 168 207 254 315 373
#     4  12  24  40  64  94 124 162 210 258 308 370
#     4  11  23  41  65  92 126 167 208 255 311 372
#     4  12  24  41  62  93 126 165 210 259 311 372
#     4  11  23  40  64  92 123 162 210 259 307 367
#     4  11  22  42  64  91 127 167 205 257 313 368
#
# _framework density 20.910715
#
# number of rings (size 3 to 8) (size 9 to 14) (size 15 to 20)
#    0.000    0.727    0.000   10.909    0.000    2.909 
#    0.000    3.636    0.000    0.000    0.000    0.000 
#    0.000    0.000    0.000    0.000    0.000    0.000 
#
# Total GULP energy -123122.981523 kJ/mol
# GULP energy per Si atom -5596.499160 kJ/mol
# Density = 2.086312 g / cm^3
# Si number density = 20.910715 Si / 1000 Ang^3
#
#
#
# Elastic Constant Matrix: (Units=GPa)
#
#
# Indices 1 2 3 4 5 6 
#
# 1 57.7134 15.5697 12.7260 0.0000 8.3220 0.0000
# 2 15.5697 101.7396 26.8347 0.0000 2.0044 0.0000
# 3 12.7260 26.8347 90.8874 0.0000 -4.9722 0.0000
# 4 0.0000 0.0000 0.0000-9818.0827 0.0000**********
# 5 8.3220 2.0044 -4.9722 0.0000 35.0778 0.0000
# 6 0.0000 0.0000 0.0000********** 0.0000**********
#
#
#
# Elastic Compliance Matrix: (Units=1/GPa)
#
#
# Indices 1 2 3 4 5 6 
#
# 1 0.019113 -0.002231 -0.002276 0.000000 -0.004730 0.000000
# 2 -0.002231 0.010959 -0.002951 0.000000 -0.000515 0.000000
# 3 -0.002276 -0.002951 0.012327 0.000000 0.002456 0.000000
# 4 0.000000 0.000000 0.000000 0.014031 0.000000 -0.012302
# 5 -0.004730 -0.000515 0.002456 0.000000 0.030008 0.000000
# 6 0.000000 0.000000 0.000000 -0.012302 0.000000 0.010708
#
#
# Mechanical properties :
#
#
# Convention : Reuss Voigt Hill
#
# Bulk Modulus (GPa) = 36.38856 40.06681 38.22768
# Shear Modulus (GPa) = 41.24582 -4516.60624 -2237.68021
#
# Velocity S-wave (km/s) = 4.44607 -46.52566 -32.74805
# Velocity P-wave (km/s) = 6.61788 53.54419 37.57116
#
# Compressibility (1/GPa) = 0.02748117
#
# Stress axis : x y z
#
# Youngs Moduli (GPa) = 52.32089 91.24819 81.12212
#
# Poissons Ratio (x) = 0.20361 0.18464
# Poissons Ratio (y) = 0.11675 0.23943
# Poissons Ratio (z) = 0.11909 0.26931
#
# Static dielectric constant tensor:
#      x y z
#    x 1.726390 0.000000 0.013480 
#    y 0.000000 1.732140 0.000000 
#    z 0.013480 0.000000 1.742890 
# 
# From -- ./inp_files/203073.got.cif
#   From: 2010.05.17/outbox.cif.g08.bks.cpg/sg15_102_cif.got.tgz:203073.got - 2010.06.03 18:47:42.
