data_PCOD9303111
_publ_section_title
;
Structure prediction by ZEFSAII (Michael W. Deem and Ramdas Pophale) SiO2 
 PCOD9303111
Probable space group: C 2/C
;
_chemical_formula_sum "Si O2"
_cell_formula_units_Z 36
_cell_length_a 15.346406
_cell_length_b 7.810750
_cell_length_c 22.667566
_cell_angle_alpha 90.000000
_cell_angle_beta 139.900688
_cell_angle_gamma 90.000000
_cell_volume 1750.118069
_symmetry_space_group_name_H-M "C 2/C"
_symmetry_group_IT_number 15
_symmetry_cell_setting 'monoclinic'
loop_
_space_group_symop_operation_xyz
x,y,z
-x,y,1/2-z
-x,-y,-z
x,-y,1/2+z
1/2+x,1/2+y,z
1/2-x,1/2+y,1/2-z
1/2-x,1/2-y,-z
1/2+x,1/2-y,1/2+z
loop_
_atom_site_type_symbol
_atom_site_label
_atom_site_fract_x
_atom_site_fract_y
_atom_site_fract_z
Si Si1 0.439704 0.377841 0.866523
Si Si2 0.500000 0.112949 0.250000
Si Si3 0.792435 0.623338 0.706017
Si Si4 0.042060 0.307927 0.535572
Si Si5 0.904096 0.191247 0.584927
O O1 0.309976 0.501156 0.810351
O O2 0.393620 0.220665 0.802221
O O3 0.558853 0.490216 0.898968
O O4 0.485731 0.311062 0.954176
O O5 0.534964 0.228057 0.324438
O O6 0.625539 0.993426 0.296893
O O7 0.699980 0.764140 0.625282
O O8 0.000000 0.500000 0.500000
O O9 0.976348 0.263274 0.564104
O O10 0.750000 0.250000 0.500000
#
# Coordination Sequence:
#
# PCOD9303111 Si02
#       5
#     8   4   8   8   8
#     4  11  22  42  65  91 123 166 209 253 306 367
#     4  12  24  40  60  94 128 162 204 254 310 366
#     4  11  23  40  63  92 124 162 207 255 307 369
#     4  11  23  41  65  91 122 164 208 253 305 366
#     4  11  24  41  63  90 124 164 204 255 309 364
#
# _framework density 20.570042999999998
#
# number of rings (size 3 to 8) (size 9 to 14) (size 15 to 20)
#    0.000    0.889    0.000   10.667    0.000    4.444 
#    0.000    4.444    0.000    0.000    0.000    0.000 
#    0.000    0.000    0.000    0.000    0.000    0.000 
#
# Total GULP energy -100687.259383 kJ/mol
# GULP energy per Si atom -5593.736632 kJ/mol
# Density = 2.052322 g / cm^3
# Si number density = 20.570043 Si / 1000 Ang^3
#
#
#
# Elastic Constant Matrix: (Units=GPa)
#
#
# Indices 1 2 3 4 5 6 
#
# 1 103.3200 48.2043 61.8360 0.0000 -6.8233 0.0000
# 2 48.2043 89.7803 48.2534 0.0000 -19.1756 0.0000
# 3 61.8360 48.2534 144.4463 0.0000 -29.9430 0.0000
# 4 0.0000 0.0000 0.0000 50.3880 0.0000 -1.8233
# 5 -6.8233 -19.1756 -29.9430 0.0000 39.7703 0.0000
# 6 0.0000 0.0000 0.0000 -1.8233 0.0000 39.9308
#
#
#
# Elastic Compliance Matrix: (Units=1/GPa)
#
#
# Indices 1 2 3 4 5 6 
#
# 1 0.015672 -0.006429 -0.005506 0.000000 -0.004556 0.000000
# 2 -0.006429 0.016691 -0.001640 0.000000 0.005710 0.000000
# 3 -0.005506 -0.001640 0.011219 0.000000 0.006712 0.000000
# 4 0.000000 0.000000 0.000000 0.019879 0.000000 0.000908
# 5 -0.004556 0.005710 0.006712 0.000000 0.032169 0.000000
# 6 0.000000 0.000000 0.000000 0.000908 0.000000 0.025085
#
#
# Mechanical properties :
#
#
# Convention : Reuss Voigt Hill
#
# Bulk Modulus (GPa) = 60.85333 72.68156 66.76745
# Shear Modulus (GPa) = 32.60675 37.96801 35.28738
#
# Velocity S-wave (km/s) = 3.98572 4.30093 4.14632
# Velocity P-wave (km/s) = 7.12945 7.75077 7.44659
#
# Compressibility (1/GPa) = 0.01643295
#
# Stress axis : x y z
#
# Youngs Moduli (GPa) = 63.80626 59.91285 89.13218
#
# Poissons Ratio (x) = 0.38515 0.49078
# Poissons Ratio (y) = 0.41018 0.14618
# Poissons Ratio (z) = 0.35133 0.09826
#
# Static dielectric constant tensor:
#      x y z
#    x 1.705750 0.000000 0.026360 
#    y 0.000000 1.768560 0.000000 
#    z 0.026360 0.000000 1.730180 
# 
# From -- ./inp_files/150278.got.cif
#   From: 2010.05.17/outbox.cif.g08.bks.cpg/sg15_76_cif.got.tgz:150278.got - 2010.06.03 18:47:42.
