data_PCOD9303631
_publ_section_title
;
Structure prediction by ZEFSAII (Michael W. Deem and Ramdas Pophale) SiO2 
 PCOD9303631
Probable space group: C 2/C
;
_chemical_formula_sum "Si O2"
_cell_formula_units_Z 52
_cell_length_a 18.485160
_cell_length_b 13.136786
_cell_length_c 29.691718
_cell_angle_alpha 90.000000
_cell_angle_beta 161.231459
_cell_angle_gamma 90.000000
_cell_volume 2319.854014
_symmetry_space_group_name_H-M "C 2/C"
_symmetry_group_IT_number 15
_symmetry_cell_setting 'monoclinic'
loop_
_space_group_symop_operation_xyz
x,y,z
-x,y,1/2-z
-x,-y,-z
x,-y,1/2+z
1/2+x,1/2+y,z
1/2-x,1/2+y,1/2-z
1/2-x,1/2-y,-z
1/2+x,1/2-y,1/2+z
loop_
_atom_site_type_symbol
_atom_site_label
_atom_site_fract_x
_atom_site_fract_y
_atom_site_fract_z
Si Si1 0.500000 0.500000 0.000000
Si Si2 0.333407 0.168787 0.011965
Si Si3 0.569229 0.276562 0.071388
Si Si4 0.882126 0.943811 0.255506
Si Si5 0.597216 0.187678 0.652367
Si Si6 0.160737 0.088021 0.185057
Si Si7 0.758481 0.399699 0.893888
O O1 0.478689 0.375499 0.993239
O O2 0.571058 0.512150 0.094779
O O3 0.385456 0.230090 0.996968
O O4 0.574649 0.116380 0.165330
O O5 0.250000 0.250000 0.000000
O O6 0.130835 0.089033 0.888327
O O7 0.780669 0.310883 0.227502
O O8 0.645718 0.187603 0.082728
O O9 0.773356 0.848479 0.217703
O O10 0.875363 0.033502 0.288451
O O11 0.743363 0.991048 0.132130
O O12 0.530875 0.304914 0.607771
O O13 0.394408 0.112561 0.520627
O O14 0.500000 0.376111 0.750000
#
# Coordination Sequence:
#
# PCOD9303631 Si02
#       7
#     4   8   8   8   8   8   8
#     4  12  22  46  76 104 144 200 238 308 388 424
#     4  11  22  46  76 110 146 192 251 312 378 440
#     4  11  24  47  78 105 150 189 254 320 361 453
#     4  12  24  45  76 109 146 198 245 307 383 444
#     4  11  23  47  71 100 152 188 245 313 367 444
#     4  11  23  44  74 106 148 189 249 316 366 449
#     4  12  28  45  69 110 145 202 245 294 384 463
#
# _framework density 22.415203000000002
#
# number of rings (size 3 to 8) (size 9 to 14) (size 15 to 20)
#    0.000    0.615    9.231    0.462    2.154    1.846 
#    2.769    4.615    0.000    0.000    0.000    0.000 
#    0.000    0.000    0.000    0.000    0.000    0.000 
#
# Total GULP energy -144836.565719 kJ/mol
# GULP energy per Si atom -5570.637143 kJ/mol
# Density = 2.236418 g / cm^3
# Si number density = 22.415203 Si / 1000 Ang^3
#
#
#
# Elastic Constant Matrix: (Units=GPa)
#
#
# Indices 1 2 3 4 5 6 
#
# 1 79.5212 32.4847 11.4913 0.0145 7.7548 -0.0029
# 2 32.4847 116.5357 -3.2502 0.0174 -2.2979 -0.0001
# 3 11.4913 -3.2502 67.0032 -0.0762 5.1785 0.0505
# 4 0.0145 0.0174 -0.0762 41.0870 0.0375 -13.8163
# 5 7.7548 -2.2979 5.1785 0.0375 36.7673 -0.0059
# 6 -0.0029 -0.0001 0.0505 -13.8163 -0.0059 62.8208
#
#
#
# Elastic Compliance Matrix: (Units=1/GPa)
#
#
# Indices 1 2 3 4 5 6 
#
# 1 0.015005 -0.004314 -0.002545 -0.000005 -0.003076 0.000001
# 2 -0.004314 0.009842 0.001112 -0.000002 0.001369 -0.000001
# 3 -0.002545 0.001112 0.015537 0.000029 -0.001582 -0.000006
# 4 -0.000005 -0.000002 0.000029 0.026282 -0.000029 0.005780
# 5 -0.003076 0.001369 -0.001582 -0.000029 0.028155 -0.000003
# 6 0.000001 -0.000001 -0.000006 0.005780 -0.000003 0.017190
#
#
# Mechanical properties :
#
#
# Convention : Reuss Voigt Hill
#
# Bulk Modulus (GPa) = 34.61560 38.27910 36.44735
# Shear Modulus (GPa) = 37.55522 42.95732 40.25627
#
# Velocity S-wave (km/s) = 4.09765 4.38246 4.24245
# Velocity P-wave (km/s) = 6.15338 6.53623 6.34769
#
# Compressibility (1/GPa) = 0.02888871
#
# Stress axis : x y z
#
# Youngs Moduli (GPa) = 66.64229 101.60824 64.36088
#
# Poissons Ratio (x) = 0.43839 0.16380
# Poissons Ratio (y) = 0.28753 -0.07154
# Poissons Ratio (z) = 0.16961 -0.11295
#
# Static dielectric constant tensor:
#      x y z
#    x 1.817290 -0.000010 -0.016430 
#    y -0.000010 1.815380 -0.000010 
#    z -0.016430 -0.000010 1.872830 
# 
# From -- ./inp_files/316452.got.cif
#   From: 2010.05.17/outbox.cif.g08.bks.cpg/sg15_159_cif.got.tgz:316452.got - 2010.06.03 18:47:42.
