data_PCOD9303960
_publ_section_title
;
Structure prediction by ZEFSAII (Michael W. Deem and Ramdas Pophale) SiO2 
 PCOD9303960
Probable space group: C 2/C
;
_chemical_formula_sum "Si O2"
_cell_formula_units_Z 52
_cell_length_a 5.222782
_cell_length_b 30.925791
_cell_length_c 16.528690
_cell_angle_alpha 90.000000
_cell_angle_beta 63.225850
_cell_angle_gamma 90.000000
_cell_volume 2383.471991
_symmetry_space_group_name_H-M "C 2/C"
_symmetry_group_IT_number 15
_symmetry_cell_setting 'monoclinic'
loop_
_space_group_symop_operation_xyz
x,y,z
-x,y,1/2-z
-x,-y,-z
x,-y,1/2+z
1/2+x,1/2+y,z
1/2-x,1/2+y,1/2-z
1/2-x,1/2-y,-z
1/2+x,1/2-y,1/2+z
loop_
_atom_site_type_symbol
_atom_site_label
_atom_site_fract_x
_atom_site_fract_y
_atom_site_fract_z
Si Si1 0.515007 0.422997 0.605727
Si Si2 0.500000 0.284049 0.750000
Si Si3 0.381941 0.399517 0.090391
Si Si4 0.500000 0.126323 0.250000
Si Si5 0.170598 0.988403 0.309481
Si Si6 0.359635 0.157705 0.601464
Si Si7 0.148987 0.656104 0.396584
Si Si8 0.500000 0.272574 0.250000
O O1 0.480491 0.410148 0.516904
O O2 0.507140 0.474092 0.619090
O O3 0.787044 0.394298 0.592803
O O4 0.273068 0.404292 0.699739
O O5 0.572417 0.315156 0.663475
O O6 0.218815 0.255589 0.772724
O O7 0.303593 0.444611 0.142932
O O8 0.611294 0.375993 0.113979
O O9 0.111843 0.367676 0.113069
O O10 0.501827 0.154343 0.330721
O O11 0.500000 0.003160 0.250000
O O12 0.000000 0.980879 0.250000
O O13 0.486648 0.173548 0.497359
O O14 0.212402 0.196635 0.669241
#
# Coordination Sequence:
#
# PCOD9303960 Si02
#       8
#     8   4   8   4   8   8   8   4
#     4  11  23  41  67 101 141 181 233 282 350 396
#     4  12  26  44  74 106 138 175 223 288 368 410
#     4  11  25  44  69 100 136 189 231 284 331 413
#     4  12  17  40  64  99 134 178 229 282 338 413
#     4  12  26  41  65 104 141 185 231 286 334 396
#     4  11  26  48  72  99 137 186 237 277 349 405
#     4  11  24  41  73 103 137 182 225 286 349 427
#     4  12  29  48  70 103 140 181 226 294 342 429
#
# _framework density 21.816914000000001
#
# number of rings (size 3 to 8) (size 9 to 14) (size 15 to 20)
#    0.000    0.615    3.846    3.692    3.231    1.231 
#    0.000    3.846    0.000    0.000    0.000    0.000 
#    0.000    0.000    0.000    0.000    0.000    0.000 
#
# Total GULP energy -145319.480543 kJ/mol
# GULP energy per Si atom -5589.210790 kJ/mol
# Density = 2.176726 g / cm^3
# Si number density = 21.816914 Si / 1000 Ang^3
#
#
#
# Elastic Constant Matrix: (Units=GPa)
#
#
# Indices 1 2 3 4 5 6 
#
# 1 99.4728 19.6605 23.5132 0.0000 -10.1028 0.0000
# 2 19.6605 105.2142 40.5979 0.0000 -11.2256 0.0000
# 3 23.5132 40.5979 60.3500 0.0000 -10.8421 0.0000
# 4 0.0000 0.0000 0.0000 93.8999 0.0000 -91.1183
# 5 -10.1028 -11.2256 -10.8421 0.0000 24.0870 0.0000
# 6 0.0000 0.0000 0.0000 -91.1183 0.0000 141.8829
#
#
#
# Elastic Compliance Matrix: (Units=1/GPa)
#
#
# Indices 1 2 3 4 5 6 
#
# 1 0.011280 -0.000409 -0.003595 0.000000 0.002923 0.000000
# 2 -0.000409 0.012967 -0.008170 0.000000 0.002194 0.000000
# 3 -0.003595 -0.008170 0.024492 0.000000 0.005709 0.000000
# 4 0.000000 0.000000 0.000000 0.028262 0.000000 0.018150
# 5 0.002923 0.002194 0.005709 0.000000 0.046335 0.000000
# 6 0.000000 0.000000 0.000000 0.018150 0.000000 0.018704
#
#
# Mechanical properties :
#
#
# Convention : Reuss Voigt Hill
#
# Bulk Modulus (GPa) = 40.99544 48.06446 44.52995
# Shear Modulus (GPa) = 28.65026 64.05833 46.35429
#
# Velocity S-wave (km/s) = 3.62776 5.42453 4.61444
# Velocity P-wave (km/s) = 6.03150 7.83024 6.98898
#
# Compressibility (1/GPa) = 0.02439296
#
# Stress axis : x y z
#
# Youngs Moduli (GPa) = 88.64934 77.11707 40.82954
#
# Poissons Ratio (x) = 0.03154 0.14678
# Poissons Ratio (y) = 0.03625 0.33356
# Poissons Ratio (z) = 0.31868 0.63002
#
# Static dielectric constant tensor:
#      x y z
#    x 1.844850 0.000000 -0.013540 
#    y 0.000000 1.811230 0.000000 
#    z -0.013540 0.000000 1.812590 
# 
# From -- ./inp_files/186086.got.cif
#   From: 2010.05.17/outbox.cif.g08.bks.cpg/sg15_94_cif.got.tgz:186086.got - 2010.06.03 18:47:42.
