data_PCOD9303341
_publ_section_title
;
Structure prediction by ZEFSAII (Michael W. Deem and Ramdas Pophale) SiO2 
 PCOD9303341
Probable space group: C 2/C
;
_chemical_formula_sum "Si O2"
_cell_formula_units_Z 48
_cell_length_a 8.328439
_cell_length_b 26.481347
_cell_length_c 14.566308
_cell_angle_alpha 90.000000
_cell_angle_beta 140.947927
_cell_angle_gamma 90.000000
_cell_volume 2024.006688
_symmetry_space_group_name_H-M "C 2/C"
_symmetry_group_IT_number 15
_symmetry_cell_setting 'monoclinic'
loop_
_space_group_symop_operation_xyz
x,y,z
-x,y,1/2-z
-x,-y,-z
x,-y,1/2+z
1/2+x,1/2+y,z
1/2-x,1/2+y,1/2-z
1/2-x,1/2-y,-z
1/2+x,1/2-y,1/2+z
loop_
_atom_site_type_symbol
_atom_site_label
_atom_site_fract_x
_atom_site_fract_y
_atom_site_fract_z
Si Si1 0.746792 0.955732 0.407268
Si Si2 0.914499 0.681940 0.901498
Si Si3 0.899240 0.033184 0.600973
Si Si4 0.712377 0.293040 0.655498
Si Si5 0.412255 0.650211 0.580619
Si Si6 0.949315 0.875577 0.629986
O O1 0.500000 0.931701 0.250000
O O2 0.880101 0.978514 0.375854
O O3 0.922450 0.914822 0.535594
O O4 0.687974 0.995402 0.463917
O O5 0.914727 0.740478 0.873411
O O6 0.696119 0.653054 0.747475
O O7 0.789005 0.680667 0.946728
O O8 0.183111 0.654766 0.013644
O O9 0.000000 0.027633 0.750000
O O10 0.829633 0.091734 0.551579
O O11 0.579188 0.320848 0.511084
O O12 0.673898 0.334990 0.716173
O O13 0.000000 0.283876 0.750000
O O14 0.000000 0.901810 0.750000
#
# Coordination Sequence:
#
# PCOD9303341 Si02
#       6
#     8   8   8   8   8   8
#     4  11  26  48  72 104 144 181 234 300 358 422
#     4  11  24  43  71 101 143 188 241 294 353 419
#     4  11  23  47  71 104 135 182 238 285 356 426
#     4  12  25  44  69 101 145 189 242 292 348 426
#     4  11  22  43  72 102 137 189 239 291 350 425
#     4  12  27  46  68 107 145 191 237 297 359 419
#
# _framework density 23.715336000000001
#
# number of rings (size 3 to 8) (size 9 to 14) (size 15 to 20)
#    0.000    0.667    5.000    3.500    2.333    1.333 
#    6.000    0.000    0.000    0.000    0.000    0.000 
#    0.000    0.000    0.000    0.000    0.000    0.000 
#
# Total GULP energy -134054.492779 kJ/mol
# GULP energy per Si atom -5585.603866 kJ/mol
# Density = 2.366136 g / cm^3
# Si number density = 23.715336 Si / 1000 Ang^3
#
#
#
# Elastic Constant Matrix: (Units=GPa)
#
#
# Indices 1 2 3 4 5 6 
#
# 1 64.1035 3.0973 31.4445 0.0000 -14.7737 0.0000
# 2 3.0973 128.3992 22.4975 0.0000 -7.5599 0.0000
# 3 31.4445 22.4975 103.3820 0.0000 -11.0217 0.0000
# 4 0.0000 0.0000 0.0000 6.6432 0.0000 -1.5563
# 5 -14.7737 -7.5599 -11.0217 0.0000 40.3654 0.0000
# 6 0.0000 0.0000 0.0000 -1.5563 0.0000 27.0000
#
#
#
# Elastic Compliance Matrix: (Units=1/GPa)
#
#
# Indices 1 2 3 4 5 6 
#
# 1 0.019613 0.000838 -0.005527 0.000000 0.005826 0.000000
# 2 0.000838 0.008178 -0.001894 0.000000 0.001321 0.000000
# 3 -0.005527 -0.001894 0.011858 0.000000 0.000860 0.000000
# 4 0.000000 0.000000 0.000000 0.152590 0.000000 0.008796
# 5 0.005826 0.001321 0.000860 0.000000 0.027388 0.000000
# 6 0.000000 0.000000 0.000000 0.008796 0.000000 0.037544
#
#
# Mechanical properties :
#
#
# Convention : Reuss Voigt Hill
#
# Bulk Modulus (GPa) = 37.75859 45.55150 41.65504
# Shear Modulus (GPa) = 17.91067 30.72475 24.31771
#
# Velocity S-wave (km/s) = 2.75114 3.60330 3.20566
# Velocity P-wave (km/s) = 5.10371 6.04657 5.59504
#
# Compressibility (1/GPa) = 0.02648404
#
# Stress axis : x y z
#
# Youngs Moduli (GPa) = 50.98644 122.28552 84.33356
#
# Poissons Ratio (x) = -0.10251 0.46609
# Poissons Ratio (y) = -0.04274 0.15970
# Poissons Ratio (z) = 0.28179 0.23157
#
# Static dielectric constant tensor:
#      x y z
#    x 1.999120 0.000000 0.014110 
#    y 0.000000 1.911510 0.000000 
#    z 0.014110 0.000000 1.941250 
# 
# From -- ./inp_files/139040.got.cif
#   From: 2010.05.17/outbox.cif.g08.bks.cpg/sg15_70_cif.got.tgz:139040.got - 2010.06.03 18:47:42.
