data_PCOD9303060
_publ_section_title
;
Structure prediction by ZEFSAII (Michael W. Deem and Ramdas Pophale) SiO2 
 PCOD9303060
Probable space group: C 2/C
;
_chemical_formula_sum "Si O2"
_cell_formula_units_Z 44
_cell_length_a 12.174986
_cell_length_b 9.442329
_cell_length_c 19.051667
_cell_angle_alpha 90.000000
_cell_angle_beta 56.281755
_cell_angle_gamma 90.000000
_cell_volume 1821.745460
_symmetry_space_group_name_H-M "C 2/C"
_symmetry_group_IT_number 15
_symmetry_cell_setting 'monoclinic'
loop_
_space_group_symop_operation_xyz
x,y,z
-x,y,1/2-z
-x,-y,-z
x,-y,1/2+z
1/2+x,1/2+y,z
1/2-x,1/2+y,1/2-z
1/2-x,1/2-y,-z
1/2+x,1/2-y,1/2+z
loop_
_atom_site_type_symbol
_atom_site_label
_atom_site_fract_x
_atom_site_fract_y
_atom_site_fract_z
Si Si1 0.076811 0.147612 0.964980
Si Si2 0.000000 0.984603 0.250000
Si Si3 0.147486 0.516162 0.633806
Si Si4 0.281477 0.737944 0.818385
Si Si5 0.493168 0.726208 0.147223
Si Si6 0.405761 0.886525 0.994101
O O1 0.225390 0.111557 0.893721
O O2 0.063161 0.218121 0.046658
O O3 0.001167 0.254704 0.940571
O O4 0.000000 0.000000 0.000000
O O5 0.115028 0.882938 0.237671
O O6 0.957077 0.092869 0.326104
O O7 0.147339 0.382623 0.684861
O O8 0.161213 0.451118 0.550538
O O9 0.027520 0.623834 0.668726
O O10 0.164443 0.777751 0.806690
O O11 0.201691 0.675190 0.913962
O O12 0.500000 0.000000 0.000000
#
# Coordination Sequence:
#
# PCOD9303060 Si02
#       6
#     8   4   8   8   8   8
#     4  11  22  41  70 106 136 164 214 281 343 399
#     4  12  30  46  68  90 138 186 232 266 320 396
#     4  12  23  41  72  99 137 172 214 278 350 380
#     4  11  26  46  66  99 133 178 226 270 329 399
#     4  11  26  46  66  99 133 178 226 270 329 399
#     4  11  22  41  70 106 136 164 214 281 343 399
#
# _framework density 24.152660000000001
#
# number of rings (size 3 to 8) (size 9 to 14) (size 15 to 20)
#    0.000    0.727    7.273    2.182    5.091    3.636 
#    0.000    0.000    0.000    0.000    0.000    0.000 
#    0.000    0.000    0.000    0.000    0.000    0.000 
#
# Total GULP energy -123238.492116 kJ/mol
# GULP energy per Si atom -5601.749642 kJ/mol
# Density = 2.409769 g / cm^3
# Si number density = 24.152660 Si / 1000 Ang^3
#
#
#
# Elastic Constant Matrix: (Units=GPa)
#
#
# Indices 1 2 3 4 5 6 
#
# 1 58.6321 35.1445 0.0100 0.0000 -16.7655 0.0000
# 2 35.1445 166.1752 11.4234 0.0000 -4.7668 0.0000
# 3 0.0100 11.4234 33.1453 0.0000 2.3719 0.0000
# 4 0.0000 0.0000 0.0000 22.4462 0.0000 -2.0084
# 5 -16.7655 -4.7668 2.3719 0.0000 21.9939 0.0000
# 6 0.0000 0.0000 0.0000 -2.0084 0.0000 53.7396
#
#
#
# Elastic Compliance Matrix: (Units=1/GPa)
#
#
# Indices 1 2 3 4 5 6 
#
# 1 0.025105 -0.004816 0.000360 0.000000 0.018054 0.000000
# 2 -0.004816 0.007143 -0.002326 0.000000 -0.001872 0.000000
# 3 0.000360 -0.002326 0.031229 0.000000 -0.003597 0.000000
# 4 0.000000 0.000000 0.000000 0.044700 0.000000 0.001671
# 5 0.018054 -0.001872 -0.003597 0.000000 0.059212 0.000000
# 6 0.000000 0.000000 0.000000 0.001671 0.000000 0.018671
#
#
# Mechanical properties :
#
#
# Convention : Reuss Voigt Hill
#
# Bulk Modulus (GPa) = 20.03508 39.01203 29.52356
# Shear Modulus (GPa) = 23.12019 33.72759 28.42389
#
# Velocity S-wave (km/s) = 3.09731 3.74094 3.43424
# Velocity P-wave (km/s) = 4.59394 5.90312 5.28919
#
# Compressibility (1/GPa) = 0.04991244
#
# Stress axis : x y z
#
# Youngs Moduli (GPa) = 39.83290 140.00606 32.02125
#
# Poissons Ratio (x) = 0.67431 -0.01154
# Poissons Ratio (y) = 0.19185 0.07449
# Poissons Ratio (z) = -0.01436 0.32568
#
# Static dielectric constant tensor:
#      x y z
#    x 1.970940 0.000000 0.035410 
#    y 0.000000 1.890600 0.000000 
#    z 0.035410 0.000000 2.005610 
# 
# From -- ./inp_files/230289.got.cif
#   From: 2010.05.17/outbox.cif.g08.bks.cpg/sg15_116_cif.got.tgz:230289.got - 2010.06.03 18:47:42.
