data_PCOD9303542
_publ_section_title
;
Structure prediction by ZEFSAII (Michael W. Deem and Ramdas Pophale) SiO2 
 PCOD9303542
Probable space group: C 2/C
;
_chemical_formula_sum "Si O2"
_cell_formula_units_Z 40
_cell_length_a 9.301090
_cell_length_b 11.643974
_cell_length_c 16.608436
_cell_angle_alpha 90.000000
_cell_angle_beta 80.699009
_cell_angle_gamma 90.000000
_cell_volume 1775.073098
_symmetry_space_group_name_H-M "C 2/C"
_symmetry_group_IT_number 15
_symmetry_cell_setting 'monoclinic'
loop_
_space_group_symop_operation_xyz
x,y,z
-x,y,1/2-z
-x,-y,-z
x,-y,1/2+z
1/2+x,1/2+y,z
1/2-x,1/2+y,1/2-z
1/2-x,1/2-y,-z
1/2+x,1/2-y,1/2+z
loop_
_atom_site_type_symbol
_atom_site_label
_atom_site_fract_x
_atom_site_fract_y
_atom_site_fract_z
Si Si1 0.150575 0.846031 0.964619
Si Si2 0.880932 0.532451 0.945427
Si Si3 0.580739 0.892185 0.816051
Si Si4 0.146500 0.824146 0.414668
Si Si5 0.133864 0.956450 0.798424
O O1 0.145211 0.857868 0.867598
O O2 0.236831 0.960978 0.980862
O O3 0.250000 0.750000 0.000000
O O4 0.988915 0.840579 0.013180
O O5 0.809055 0.655162 0.935257
O O6 0.960920 0.481420 0.859815
O O7 0.000000 0.500000 0.000000
O O8 0.500000 0.828278 0.750000
O O9 0.626732 0.800635 0.878254
O O10 0.723085 0.952687 0.769479
O O11 0.127495 0.923135 0.347649
O O12 0.000000 0.940919 0.750000
#
# Coordination Sequence:
#
# PCOD9303542 Si02
#       5
#     8   8   8   8   8
#     4  11  22  45  70  95 135 188 237 281 354 431
#     4  11  25  42  68 101 139 182 237 295 348 434
#     4  12  23  47  67 100 145 179 236 302 356 416
#     4  11  24  45  71  95 139 192 229 287 368 423
#     4  11  25  42  66 103 136 177 242 296 353 431
#
# _framework density 22.534284
#
# number of rings (size 3 to 8) (size 9 to 14) (size 15 to 20)
#    0.000    0.800    6.000    3.000    5.600    2.400 
#    3.600    0.000    0.000    0.000    0.000    0.000 
#    0.000    0.000    0.000    0.000    0.000    0.000 
#
# Total GULP energy -111690.296694 kJ/mol
# GULP energy per Si atom -5584.514835 kJ/mol
# Density = 2.248299 g / cm^3
# Si number density = 22.534284 Si / 1000 Ang^3
#
#
#
# Elastic Constant Matrix: (Units=GPa)
#
#
# Indices 1 2 3 4 5 6 
#
# 1 185.6514 47.8685 69.8307 0.0000 3.0823 0.0000
# 2 47.8685 65.7078 24.5931 0.0000 -19.4023 0.0000
# 3 69.8307 24.5931 94.2609 0.0000 -15.7215 0.0000
# 4 0.0000 0.0000 0.0000 33.5694 0.0000 3.4035
# 5 3.0823 -19.4023 -15.7215 0.0000 64.2584 0.0000
# 6 0.0000 0.0000 0.0000 3.4035 0.0000 41.9750
#
#
#
# Elastic Compliance Matrix: (Units=1/GPa)
#
#
# Indices 1 2 3 4 5 6 
#
# 1 0.009057 -0.005436 -0.005878 0.000000 -0.003514 0.000000
# 2 -0.005436 0.021283 -0.000428 0.000000 0.006582 0.000000
# 3 -0.005878 -0.000428 0.015743 0.000000 0.004004 0.000000
# 4 0.000000 0.000000 0.000000 0.030036 0.000000 -0.002435
# 5 -0.003514 0.006582 0.004004 0.000000 0.018698 0.000000
# 6 0.000000 0.000000 0.000000 -0.002435 0.000000 0.024021
#
#
# Mechanical properties :
#
#
# Convention : Reuss Voigt Hill
#
# Bulk Modulus (GPa) = 44.24819 70.02274 57.13546
# Shear Modulus (GPa) = 33.36593 41.51573 37.44083
#
# Velocity S-wave (km/s) = 3.85213 4.29690 4.08058
# Velocity P-wave (km/s) = 6.28202 7.46720 6.90010
#
# Compressibility (1/GPa) = 0.02259979
#
# Stress axis : x y z
#
# Youngs Moduli (GPa) = 110.41008 46.98640 63.52199
#
# Poissons Ratio (x) = 0.25541 0.37335
# Poissons Ratio (y) = 0.60018 0.02718
# Poissons Ratio (z) = 0.64894 0.02011
#
# Static dielectric constant tensor:
#      x y z
#    x 1.617400 0.000000 -0.147590 
#    y 0.000000 1.910940 0.000000 
#    z -0.147590 0.000000 1.636090 
# 
# From -- ./inp_files/187815.got.cif
#   From: 2010.05.17/outbox.cif.g08.bks.cpg/sg15_94_cif.got.tgz:187815.got - 2010.06.03 18:47:42.
