data_PCOD9303249
_publ_section_title
;
Structure prediction by ZEFSAII (Michael W. Deem and Ramdas Pophale) SiO2 
 PCOD9303249
Probable space group: C 2/C
;
_chemical_formula_sum "Si O2"
_cell_formula_units_Z 48
_cell_length_a 8.703217
_cell_length_b 18.544779
_cell_length_c 28.121414
_cell_angle_alpha 90.000000
_cell_angle_beta 149.649961
_cell_angle_gamma 90.000000
_cell_volume 2293.358785
_symmetry_space_group_name_H-M "C 2/C"
_symmetry_group_IT_number 15
_symmetry_cell_setting 'monoclinic'
loop_
_space_group_symop_operation_xyz
x,y,z
-x,y,1/2-z
-x,-y,-z
x,-y,1/2+z
1/2+x,1/2+y,z
1/2-x,1/2+y,1/2-z
1/2-x,1/2-y,-z
1/2+x,1/2-y,1/2+z
loop_
_atom_site_type_symbol
_atom_site_label
_atom_site_fract_x
_atom_site_fract_y
_atom_site_fract_z
Si Si1 0.710122 0.769787 0.261436
Si Si2 0.797053 0.954075 0.982562
Si Si3 0.816323 0.068865 0.823199
Si Si4 0.246001 0.800638 0.546289
Si Si5 0.743021 0.939539 0.141920
Si Si6 0.595966 0.205256 0.916374
O O1 0.500000 0.743060 0.250000
O O2 0.720143 0.856186 0.272122
O O3 0.592578 0.755937 0.176625
O O4 0.048179 0.741104 0.360705
O O5 0.622412 0.881299 0.920937
O O6 0.544679 0.009268 0.932286
O O7 0.017471 0.924726 0.082522
O O8 0.000000 0.000000 0.000000
O O9 0.500000 0.028379 0.750000
O O10 0.077535 0.042244 0.858207
O O11 0.250000 0.750000 0.500000
O O12 0.901144 0.816879 0.469526
O O13 0.605590 0.859376 0.115399
O O14 0.000000 0.951917 0.250000
O O15 0.750000 0.250000 0.000000
#
# Coordination Sequence:
#
# PCOD9303249 Si02
#       6
#     8   8   8   8   8   8
#     4  11  22  42  75 106 140 193 255 299 371 449
#     4  12  25  45  68 106 148 189 245 306 373 452
#     4  11  22  43  74 100 138 195 241 291 372 454
#     4  12  23  44  74 103 143 198 249 306 371 446
#     4  12  25  45  71 102 146 196 243 303 379 451
#     4  12  26  44  73 110 148 189 252 320 375 436
#
# _framework density 20.930001000000001
#
# number of rings (size 3 to 8) (size 9 to 14) (size 15 to 20)
#    0.000    0.333    6.667    3.500    0.000    0.667 
#    0.000    1.667    0.000    0.000    0.000    0.000 
#    0.000    0.000    0.000    0.000    0.000    0.000 
#
# Total GULP energy -133794.942124 kJ/mol
# GULP energy per Si atom -5574.789255 kJ/mol
# Density = 2.088236 g / cm^3
# Si number density = 20.930001 Si / 1000 Ang^3
#
#
#
# Elastic Constant Matrix: (Units=GPa)
#
#
# Indices 1 2 3 4 5 6 
#
# 1 145.0134 41.7332 42.6883 0.0002 11.2719 0.0002
# 2 41.7332 62.0600 15.6318 -0.0019 -6.4498 -0.0009
# 3 42.6883 15.6318 123.8405 -0.0097 -11.1197 -0.0046
# 4 0.0002 -0.0019 -0.0097 9.6560 0.0011 1.2916
# 5 11.2719 -6.4498 -11.1197 0.0011 57.3676 0.0014
# 6 0.0002 -0.0009 -0.0046 1.2916 0.0014 2.2510
#
#
#
# Elastic Compliance Matrix: (Units=1/GPa)
#
#
# Indices 1 2 3 4 5 6 
#
# 1 0.009764 -0.006172 -0.002871 -0.000003 -0.003169 -0.000006
# 2 -0.006172 0.020670 -0.000167 0.000003 0.003504 0.000004
# 3 -0.002871 -0.000167 0.009296 0.000007 0.002347 0.000014
# 4 -0.000003 0.000003 0.000007 0.112171 0.000002 -0.064362
# 5 -0.003169 0.003504 0.002347 0.000002 0.018903 -0.000006
# 6 -0.000006 0.000004 0.000014 -0.064362 -0.000006 0.481170
#
#
# Mechanical properties :
#
#
# Convention : Reuss Voigt Hill
#
# Bulk Modulus (GPa) = 46.92562 59.00227 52.96394
# Shear Modulus (GPa) = 7.38010 29.24564 18.31287
#
# Velocity S-wave (km/s) = 1.87983 3.74211 2.96118
# Velocity P-wave (km/s) = 5.21350 6.85001 6.08701
#
# Compressibility (1/GPa) = 0.02131032
#
# Stress axis : x y z
#
# Youngs Moduli (GPa) = 102.42168 48.37922 107.56864
#
# Poissons Ratio (x) = 0.29859 0.30883
# Poissons Ratio (y) = 0.63213 0.01796
# Poissons Ratio (z) = 0.29405 0.00808
#
# Static dielectric constant tensor:
#      x y z
#    x 1.841670 -0.000010 0.041760 
#    y -0.000010 1.772100 0.000000 
#    z 0.041760 0.000000 1.821550 
# 
# From -- ./inp_files/308841.got.cif
#   From: 2010.05.17/outbox.cif.g08.bks.cpg/sg15_155_cif.got.tgz:308841.got - 2010.06.03 18:47:42.
