data_PCOD9303170
_publ_section_title
;
Structure prediction by ZEFSAII (Michael W. Deem and Ramdas Pophale) SiO2 
 PCOD9303170
Probable space group: C 2/C
;
_chemical_formula_sum "Si O2"
_cell_formula_units_Z 48
_cell_length_a 19.213915
_cell_length_b 6.051583
_cell_length_c 23.098389
_cell_angle_alpha 90.000000
_cell_angle_beta 53.945963
_cell_angle_gamma 90.000000
_cell_volume 2171.332399
_symmetry_space_group_name_H-M "C 2/C"
_symmetry_group_IT_number 15
_symmetry_cell_setting 'monoclinic'
loop_
_space_group_symop_operation_xyz
x,y,z
-x,y,1/2-z
-x,-y,-z
x,-y,1/2+z
1/2+x,1/2+y,z
1/2-x,1/2+y,1/2-z
1/2-x,1/2-y,-z
1/2+x,1/2-y,1/2+z
loop_
_atom_site_type_symbol
_atom_site_label
_atom_site_fract_x
_atom_site_fract_y
_atom_site_fract_z
Si Si1 0.844778 0.125365 0.654204
Si Si2 0.229685 0.728157 0.188433
Si Si3 0.338987 0.875547 0.967817
Si Si4 0.902272 0.548066 0.818761
Si Si5 0.987251 0.248904 0.976296
Si Si6 0.746837 0.367887 0.598446
O O1 0.798257 0.170547 0.737190
O O2 0.799112 0.233689 0.621094
O O3 0.938458 0.226566 0.608307
O O4 0.825324 0.869148 0.651733
O O5 0.155353 0.558616 0.204445
O O6 0.234331 0.897558 0.134312
O O7 0.397073 0.757478 0.987431
O O8 0.391918 0.906679 0.882781
O O9 0.250000 0.750000 0.000000
O O10 0.306427 0.103778 0.013286
O O11 0.847389 0.765271 0.862417
O O12 0.000000 0.578681 0.750000
O O13 0.000000 0.500000 0.000000
O O14 0.000000 0.000000 0.000000
#
# Coordination Sequence:
#
# PCOD9303170 Si02
#       6
#     8   8   8   8   8   8
#     4  11  23  42  71 103 144 193 246 319 376 451
#     4  11  22  42  69 102 143 188 247 306 384 450
#     4  12  25  49  76 106 149 202 247 312 388 459
#     4  11  26  45  69 104 142 189 250 307 381 458
#     4  12  28  48  76 113 153 195 264 316 374 454
#     4  11  23  44  71 101 140 194 249 302 378 457
#
# _framework density 22.106242999999999
#
# number of rings (size 3 to 8) (size 9 to 14) (size 15 to 20)
#    0.000    0.667    5.000    2.500    2.333    2.000 
#    6.000    0.000    0.000    0.000    0.000    0.000 
#    0.000    0.000    0.000    0.000    0.000    0.000 
#
# Total GULP energy -133751.333738 kJ/mol
# GULP energy per Si atom -5572.972239 kJ/mol
# Density = 2.205593 g / cm^3
# Si number density = 22.106243 Si / 1000 Ang^3
#
#
#
# Elastic Constant Matrix: (Units=GPa)
#
#
# Indices 1 2 3 4 5 6 
#
# 1 117.2286 37.6927 31.6852 0.0039 -7.2110 0.0051
# 2 37.6927 80.1065 21.2139 0.0330 1.2524 0.0356
# 3 31.6852 21.2139 121.5606 -0.0047 1.3429 0.0021
# 4 0.0039 0.0330 -0.0047 29.4381 0.0029 2.4263
# 5 -7.2110 1.2524 1.3429 0.0029 42.8782 0.0002
# 6 0.0051 0.0356 0.0021 2.4263 0.0002 33.7136
#
#
#
# Elastic Compliance Matrix: (Units=1/GPa)
#
#
# Indices 1 2 3 4 5 6 
#
# 1 0.010645 -0.004508 -0.002010 0.000003 0.001985 0.000003
# 2 -0.004508 0.015001 -0.001430 -0.000015 -0.001151 -0.000014
# 3 -0.002010 -0.001430 0.009006 0.000003 -0.000578 0.000001
# 4 0.000003 -0.000015 0.000003 0.034172 -0.000002 -0.002459
# 5 0.001985 -0.001151 -0.000578 -0.000002 0.023707 0.000001
# 6 0.000003 -0.000014 0.000001 -0.002459 0.000001 0.029839
#
#
# Mechanical properties :
#
#
# Convention : Reuss Voigt Hill
#
# Bulk Modulus (GPa) = 53.31400 55.56436 54.43918
# Shear Modulus (GPa) = 34.59761 36.42622 35.51191
#
# Velocity S-wave (km/s) = 3.96038 4.06369 4.01237
# Velocity P-wave (km/s) = 6.71434 6.87079 6.79302
#
# Compressibility (1/GPa) = 0.01875680
#
# Stress axis : x y z
#
# Youngs Moduli (GPa) = 93.94059 66.66167 111.03414
#
# Poissons Ratio (x) = 0.30048 0.22317
# Poissons Ratio (y) = 0.42344 0.15881
# Poissons Ratio (z) = 0.18882 0.09534
#
# Static dielectric constant tensor:
#      x y z
#    x 1.907980 0.000040 0.101500 
#    y 0.000040 1.978430 0.000030 
#    z 0.101500 0.000030 1.930740 
# 
# From -- ./inp_files/278839.got.cif
#   From: 2010.05.17/outbox.cif.g08.bks.cpg/sg15_140_cif.got.tgz:278839.got - 2010.06.03 18:47:42.
