data_PCOD9303886
_publ_section_title
;
Structure prediction by ZEFSAII (Michael W. Deem and Ramdas Pophale) SiO2 
 PCOD9303886
Probable space group: C 2/C
;
_chemical_formula_sum "Si O2"
_cell_formula_units_Z 56
_cell_length_a 9.083452
_cell_length_b 27.266450
_cell_length_c 11.742436
_cell_angle_alpha 90.000000
_cell_angle_beta 65.689835
_cell_angle_gamma 90.000000
_cell_volume 2650.412759
_symmetry_space_group_name_H-M "C 2/C"
_symmetry_group_IT_number 15
_symmetry_cell_setting 'monoclinic'
loop_
_space_group_symop_operation_xyz
x,y,z
-x,y,1/2-z
-x,-y,-z
x,-y,1/2+z
1/2+x,1/2+y,z
1/2-x,1/2+y,1/2-z
1/2-x,1/2-y,-z
1/2+x,1/2-y,1/2+z
loop_
_atom_site_type_symbol
_atom_site_label
_atom_site_fract_x
_atom_site_fract_y
_atom_site_fract_z
Si Si1 0.606531 0.102750 0.445766
Si Si2 0.204306 0.643657 0.861176
Si Si3 0.090537 0.469642 0.614098
Si Si4 0.588643 0.590637 0.530816
Si Si5 0.641473 0.654718 0.294402
Si Si6 0.228325 0.573732 0.642176
Si Si7 0.691657 0.250073 0.153556
O O1 0.449652 0.137324 0.506983
O O2 0.535040 0.048058 0.443679
O O3 0.727151 0.121695 0.312583
O O4 0.698581 0.103447 0.536065
O O5 0.359807 0.625556 0.882053
O O6 0.173318 0.606233 0.767012
O O7 0.235549 0.699421 0.818874
O O8 0.261938 0.446226 0.528203
O O9 0.138114 0.523026 0.645650
O O10 0.000000 0.444778 0.750000
O O11 0.578359 0.623231 0.420920
O O12 0.417968 0.564705 0.602217
O O13 0.500000 0.666048 0.250000
O O14 0.725759 0.703115 0.315783
O O15 0.500000 0.249110 0.250000
O O16 0.750000 0.250000 0.000000
#
# Coordination Sequence:
#
# PCOD9303886 Si02
#       7
#     8   8   8   8   8   8   8
#     4  11  24  44  70  97 143 181 234 291 345 420
#     4  11  25  45  71 101 141 187 230 294 352 427
#     4  11  23  40  69  98 133 186 236 283 348 419
#     4  11  23  44  68  95 142 178 232 286 347 413
#     4  12  25  45  71 105 137 182 232 296 348 417
#     4  12  24  43  65 104 140 182 231 289 356 413
#     4  12  26  46  77 106 140 191 245 288 365 435
#
# _framework density 21.128784
#
# number of rings (size 3 to 8) (size 9 to 14) (size 15 to 20)
#    0.000    0.571    4.286    4.286    2.000    2.286 
#    0.000    3.571    0.000    0.000    0.000    0.000 
#    0.000    0.000    0.000    0.000    0.000    0.000 
#
# Total GULP energy -156336.303131 kJ/mol
# GULP energy per Si atom -5583.439398 kJ/mol
# Density = 2.108069 g / cm^3
# Si number density = 21.128784 Si / 1000 Ang^3
#
#
#
# Elastic Constant Matrix: (Units=GPa)
#
#
# Indices 1 2 3 4 5 6 
#
# 1 116.6393 27.8349 35.7244 0.0000 -8.0522 0.0000
# 2 27.8349 101.8982 24.3277 0.0000 -9.4806 0.0000
# 3 35.7244 24.3277 76.9489 0.0000 -3.3555 0.0000
# 4 0.0000 0.0000 0.0000 22.2962 0.0000 -7.2939
# 5 -8.0522 -9.4806 -3.3555 0.0000 45.3919 0.0000
# 6 0.0000 0.0000 0.0000 -7.2939 0.0000 -96.6750
#
#
#
# Elastic Compliance Matrix: (Units=1/GPa)
#
#
# Indices 1 2 3 4 5 6 
#
# 1 0.010354 -0.001714 -0.004214 0.000000 0.001167 0.000000
# 2 -0.001714 0.011078 -0.002628 0.000000 0.001816 0.000000
# 3 -0.004214 -0.002628 0.015777 0.000000 -0.000130 0.000000
# 4 0.000000 0.000000 0.000000 0.043770 0.000000 -0.003302
# 5 0.001167 0.001816 -0.000130 0.000000 0.022607 0.000000
# 6 0.000000 0.000000 0.000000 -0.003302 0.000000 -0.010095
#
#
# Mechanical properties :
#
#
# Convention : Reuss Voigt Hill
#
# Bulk Modulus (GPa) = 49.75580 52.36227 51.05903
# Shear Modulus (GPa) = 42.62518 8.04258 25.33388
#
# Velocity S-wave (km/s) = 4.49642 1.95313 3.46645
# Velocity P-wave (km/s) = 7.11034 5.47015 6.34348
#
# Compressibility (1/GPa) = 0.02009816
#
# Stress axis : x y z
#
# Youngs Moduli (GPa) = 96.58423 90.26855 63.38266
#
# Poissons Ratio (x) = 0.15468 0.26710
# Poissons Ratio (y) = 0.16550 0.16655
# Poissons Ratio (z) = 0.40702 0.23720
#
# Static dielectric constant tensor:
#      x y z
#    x 1.749610 0.000000 0.002590 
#    y 0.000000 1.748280 0.000000 
#    z 0.002590 0.000000 1.793760 
# 
# From -- ./inp_files/81247.got.cif
#   From: 2010.05.17/outbox.cif.g08.bks.cpg/sg15_41_cif.got.tgz:81247.got - 2010.06.03 18:47:42.
