data_PCOD9303932
_publ_section_title
;
Structure prediction by ZEFSAII (Michael W. Deem and Ramdas Pophale) SiO2 
 PCOD9303932
Probable space group: C 2/C
;
_chemical_formula_sum "Si O2"
_cell_formula_units_Z 44
_cell_length_a 28.602928
_cell_length_b 6.318086
_cell_length_c 10.378590
_cell_angle_alpha 90.000000
_cell_angle_beta 93.094378
_cell_angle_gamma 90.000000
_cell_volume 1872.840128
_symmetry_space_group_name_H-M "C 2/C"
_symmetry_group_IT_number 15
_symmetry_cell_setting 'monoclinic'
loop_
_space_group_symop_operation_xyz
x,y,z
-x,y,1/2-z
-x,-y,-z
x,-y,1/2+z
1/2+x,1/2+y,z
1/2-x,1/2+y,1/2-z
1/2-x,1/2-y,-z
1/2+x,1/2-y,1/2+z
loop_
_atom_site_type_symbol
_atom_site_label
_atom_site_fract_x
_atom_site_fract_y
_atom_site_fract_z
Si Si1 0.201797 0.350297 0.040784
Si Si2 0.000000 0.732155 0.750000
Si Si3 0.043262 0.076878 0.593586
Si Si4 0.623760 0.461453 0.434813
Si Si5 0.834659 0.355314 0.191006
Si Si6 0.068645 0.407960 0.791704
O O1 0.186732 0.542577 0.943319
O O2 0.162534 0.172460 0.013396
O O3 0.250000 0.250000 0.000000
O O4 0.199916 0.392646 0.193576
O O5 0.961010 0.884086 0.805858
O O6 0.967102 0.581520 0.657640
O O7 0.092141 0.091787 0.527955
O O8 0.041786 0.296113 0.669587
O O9 0.000000 0.000000 0.500000
O O10 0.649742 0.614814 0.337979
O O11 0.586648 0.289009 0.377056
O O12 0.882874 0.475644 0.234625
#
# Coordination Sequence:
#
# PCOD9303932 Si02
#       6
#     8   4   8   8   8   8
#     4  11  27  46  74 110 142 189 240 301 377 448
#     4  12  24  38  60  92 136 176 234 290 352 414
#     4  12  24  40  63  97 138 190 241 301 356 430
#     4  11  24  44  71  98 140 185 244 300 362 434
#     4  11  25  48  74 104 147 189 239 305 368 442
#     4  11  23  41  64  96 134 184 238 292 359 427
#
# _framework density 23.493728000000001
#
# number of rings (size 3 to 8) (size 9 to 14) (size 15 to 20)
#    0.000    0.727    0.000    8.182    2.545    8.000 
#    0.000    0.000    0.000    0.000    0.000    0.000 
#    0.000    0.000    0.000    0.000    0.000    0.000 
#
# Total GULP energy -122885.333448 kJ/mol
# GULP energy per Si atom -5585.696975 kJ/mol
# Density = 2.344026 g / cm^3
# Si number density = 23.493728 Si / 1000 Ang^3
#
#
#
# Elastic Constant Matrix: (Units=GPa)
#
#
# Indices 1 2 3 4 5 6 
#
# 1 54.7732 -17.9243 -4.7050 0.0000 -11.4131 0.0000
# 2 -17.9243 52.5714 4.5432 0.0000 5.7543 0.0000
# 3 -4.7050 4.5432 83.5908 0.0000 -19.3739 0.0000
# 4 0.0000 0.0000 0.0000 -45.2662 0.0000 -30.2585
# 5 -11.4131 5.7543 -19.3739 0.0000 38.9060 0.0000
# 6 0.0000 0.0000 0.0000 -30.2585 0.0000 22.3734
#
#
#
# Elastic Compliance Matrix: (Units=1/GPa)
#
#
# Indices 1 2 3 4 5 6 
#
# 1 0.022009 0.006560 0.002435 0.000000 0.006698 0.000000
# 2 0.006560 0.021572 -0.001240 0.000000 -0.001883 0.000000
# 3 0.002435 -0.001240 0.013990 0.000000 0.007864 0.000000
# 4 0.000000 0.000000 0.000000 -0.011602 0.000000 -0.015692
# 5 0.006698 -0.001883 0.007864 0.000000 0.031863 0.000000
# 6 0.000000 0.000000 0.000000 -0.015692 0.000000 0.023474
#
#
# Mechanical properties :
#
#
# Convention : Reuss Voigt Hill
#
# Bulk Modulus (GPa) = 13.68335 17.19591 15.43963
# Shear Modulus (GPa) = 45.39061 17.13741 31.26401
#
# Velocity S-wave (km/s) = 4.40026 2.70376 3.65189
# Velocity P-wave (km/s) = 5.62612 4.13308 4.93637
#
# Compressibility (1/GPa) = 0.07308152
#
# Stress axis : x y z
#
# Youngs Moduli (GPa) = 45.43631 46.35688 71.47882
#
# Poissons Ratio (x) = -0.30412 -0.17403
# Poissons Ratio (y) = -0.29808 0.08861
# Poissons Ratio (z) = -0.11063 0.05747
#
# Static dielectric constant tensor:
#      x y z
#    x 1.841860 0.000000 0.042680 
#    y 0.000000 1.914260 0.000000 
#    z 0.042680 0.000000 2.057560 
# 
# From -- ./inp_files/124986.got.cif
#   From: 2010.05.17/outbox.cif.g08.bks.cpg/sg15_63_cif.got.tgz:124986.got - 2010.06.03 18:47:42.
