data_PCOD9303227
_publ_section_title
;
Structure prediction by ZEFSAII (Michael W. Deem and Ramdas Pophale) SiO2 
 PCOD9303227
Probable space group: C 2/C
;
_chemical_formula_sum "Si O2"
_cell_formula_units_Z 52
_cell_length_a 7.781236
_cell_length_b 17.461735
_cell_length_c 18.600587
_cell_angle_alpha 90.000000
_cell_angle_beta 89.414997
_cell_angle_gamma 90.000000
_cell_volume 2527.202210
_symmetry_space_group_name_H-M "C 2/C"
_symmetry_group_IT_number 15
_symmetry_cell_setting 'monoclinic'
loop_
_space_group_symop_operation_xyz
x,y,z
-x,y,1/2-z
-x,-y,-z
x,-y,1/2+z
1/2+x,1/2+y,z
1/2-x,1/2+y,1/2-z
1/2-x,1/2-y,-z
1/2+x,1/2-y,1/2+z
loop_
_atom_site_type_symbol
_atom_site_label
_atom_site_fract_x
_atom_site_fract_y
_atom_site_fract_z
Si Si1 0.326440 0.245951 0.784955
Si Si2 0.691697 0.592455 0.716680
Si Si3 0.823146 0.979547 0.036876
Si Si4 0.000000 0.347850 0.750000
Si Si5 0.332513 0.186538 0.947533
Si Si6 0.849797 0.484127 0.829640
Si Si7 0.875892 0.576945 0.575756
O O1 0.500000 0.280516 0.750000
O O2 0.291171 0.167836 0.741963
O O3 0.160744 0.298344 0.774495
O O4 0.339839 0.222381 0.867930
O O5 0.500000 0.596287 0.750000
O O6 0.785272 0.521645 0.755966
O O7 0.715815 0.591012 0.630629
O O8 0.787263 0.889261 0.045791
O O9 0.808619 0.018142 0.115050
O O10 0.682757 0.019103 0.985583
O O11 0.000000 0.000000 0.000000
O O12 0.065402 0.403467 0.686663
O O13 0.525229 0.150787 0.957561
O O14 0.250000 0.250000 0.000000
O O15 0.983377 0.538505 0.871507
#
# Coordination Sequence:
#
# PCOD9303227 Si02
#       7
#     8   8   8   4   8   8   8
#     4  12  25  46  68  98 142 180 231 285 351 407
#     4  12  21  41  72  98 130 184 232 274 341 416
#     4  11  25  43  66 101 135 174 225 278 342 414
#     4  12  28  40  70 102 136 172 234 296 340 396
#     4  11  25  42  69  95 133 180 223 276 345 410
#     4  11  22  45  64  97 133 178 223 282 337 407
#     4  11  22  42  72  94 135 181 223 279 342 409
#
# _framework density 20.576114
#
# number of rings (size 3 to 8) (size 9 to 14) (size 15 to 20)
#    0.000    0.615    6.923    2.769    4.308    1.846 
#    0.000    0.769    0.000    0.000    0.000    0.000 
#    0.000    0.000    0.000    0.000    0.000    0.000 
#
# Total GULP energy -145217.195847 kJ/mol
# GULP energy per Si atom -5585.276763 kJ/mol
# Density = 2.052928 g / cm^3
# Si number density = 20.576114 Si / 1000 Ang^3
#
#
#
# Elastic Constant Matrix: (Units=GPa)
#
#
# Indices 1 2 3 4 5 6 
#
# 1 126.1407 52.8627 28.1636 0.0000 -29.8859 0.0000
# 2 52.8627 106.2336 52.0080 0.0000 -15.5120 0.0000
# 3 28.1636 52.0080 113.0723 0.0000 -35.6030 0.0000
# 4 0.0000 0.0000 0.0000 29.7713 0.0000 -11.5114
# 5 -29.8859 -15.5120 -35.6030 0.0000 43.1298 0.0000
# 6 0.0000 0.0000 0.0000 -11.5114 0.0000 -51.6853
#
#
#
# Elastic Compliance Matrix: (Units=1/GPa)
#
#
# Indices 1 2 3 4 5 6 
#
# 1 0.011713 -0.005762 0.002210 0.000000 0.007869 0.000000
# 2 -0.005762 0.014986 -0.006780 0.000000 -0.004199 0.000000
# 3 0.002210 -0.006780 0.015034 0.000000 0.011503 0.000000
# 4 0.000000 0.000000 0.000000 0.030926 0.000000 -0.006888
# 5 0.007869 -0.004199 0.011503 0.000000 0.036624 0.000000
# 6 0.000000 0.000000 0.000000 -0.006888 0.000000 -0.017814
#
#
# Mechanical properties :
#
#
# Convention : Reuss Voigt Hill
#
# Bulk Modulus (GPa) = 47.46037 67.94612 57.70325
# Shear Modulus (GPa) = 41.96187 18.40400 30.18293
#
# Velocity S-wave (km/s) = 4.52081 2.99396 3.83416
# Velocity P-wave (km/s) = 7.09691 6.71157 6.90693
#
# Compressibility (1/GPa) = 0.02107021
#
# Stress axis : x y z
#
# Youngs Moduli (GPa) = 85.37541 66.72735 66.51589
#
# Poissons Ratio (x) = 0.38445 -0.14701
# Poissons Ratio (y) = 0.49189 0.45099
# Poissons Ratio (z) = -0.18870 0.45243
#
# Static dielectric constant tensor:
#      x y z
#    x 1.786720 0.000000 -0.038530 
#    y 0.000000 1.706450 0.000000 
#    z -0.038530 0.000000 1.762380 
# 
# From -- ./inp_files/190451.got.cif
#   From: 2010.05.17/outbox.cif.g08.bks.cpg/sg15_96_cif.got.tgz:190451.got - 2010.06.03 18:47:42.
