data_PCOD9303883
_publ_section_title
;
Structure prediction by ZEFSAII (Michael W. Deem and Ramdas Pophale) SiO2 
 PCOD9303883
Probable space group: C 2/C
;
_chemical_formula_sum "Si O2"
_cell_formula_units_Z 40
_cell_length_a 9.041363
_cell_length_b 27.881068
_cell_length_c 12.636918
_cell_angle_alpha 90.000000
_cell_angle_beta 32.662537
_cell_angle_gamma 90.000000
_cell_volume 1719.209628
_symmetry_space_group_name_H-M "C 2/C"
_symmetry_group_IT_number 15
_symmetry_cell_setting 'monoclinic'
loop_
_space_group_symop_operation_xyz
x,y,z
-x,y,1/2-z
-x,-y,-z
x,-y,1/2+z
1/2+x,1/2+y,z
1/2-x,1/2+y,1/2-z
1/2-x,1/2-y,-z
1/2+x,1/2-y,1/2+z
loop_
_atom_site_type_symbol
_atom_site_label
_atom_site_fract_x
_atom_site_fract_y
_atom_site_fract_z
Si Si1 0.847694 0.841824 0.492526
Si Si2 0.211410 0.945521 0.924299
Si Si3 0.702936 0.516778 0.220445
Si Si4 0.137592 0.296742 0.832267
Si Si5 0.589127 0.808484 0.318335
O O1 0.745704 0.896003 0.540775
O O2 0.795363 0.824735 0.644765
O O3 0.676521 0.805858 0.520334
O O4 0.172795 0.844325 0.288799
O O5 0.500000 0.974672 0.750000
O O6 0.185034 0.940042 0.814822
O O7 0.953337 0.972743 0.127144
O O8 0.500000 0.529744 0.250000
O O9 0.000000 0.500000 0.000000
O O10 0.260355 0.243231 0.757872
O O11 0.143136 0.311569 0.951987
O O12 0.500000 0.813748 0.250000
#
# Coordination Sequence:
#
# PCOD9303883 Si02
#       5
#     8   8   8   8   8
#     4  11  25  42  65 100 131 180 235 291 333 408
#     4  11  23  45  69 105 138 175 242 283 345 422
#     4  11  24  44  75 103 140 184 221 283 359 427
#     4  11  23  40  69  88 128 180 234 279 336 399
#     4  12  25  41  62  97 136 183 230 288 350 406
#
# _framework density 23.266504999999999
#
# number of rings (size 3 to 8) (size 9 to 14) (size 15 to 20)
#    0.000    0.800    6.000    1.800    2.800    3.200 
#    7.200    0.000    0.000    0.000    0.000    0.000 
#    0.000    0.000    0.000    0.000    0.000    0.000 
#
# Total GULP energy -111545.864176 kJ/mol
# GULP energy per Si atom -5577.293209 kJ/mol
# Density = 2.321355 g / cm^3
# Si number density = 23.266505 Si / 1000 Ang^3
#
#
#
# Elastic Constant Matrix: (Units=GPa)
#
#
# Indices 1 2 3 4 5 6 
#
# 1 100.3283 3.5719 39.7740 0.0000 16.0443 0.0000
# 2 3.5719 39.8508 -0.1476 0.0000 -7.1530 0.0000
# 3 39.7740 -0.1476 132.4125 0.0000 4.5668 0.0000
# 4 0.0000 0.0000 0.0000 15.0368 0.0000 -4.8591
# 5 16.0443 -7.1530 4.5668 0.0000 55.1261 0.0000
# 6 0.0000 0.0000 0.0000 -4.8591 0.0000 18.8700
#
#
#
# Elastic Compliance Matrix: (Units=1/GPa)
#
#
# Indices 1 2 3 4 5 6 
#
# 1 0.011950 -0.001696 -0.003474 0.000000 -0.003410 0.000000
# 2 -0.001696 0.025934 0.000406 0.000000 0.003825 0.000000
# 3 -0.003474 0.000406 0.008584 0.000000 0.000353 0.000000
# 4 0.000000 0.000000 0.000000 0.072540 0.000000 0.018679
# 5 -0.003410 0.003825 0.000353 0.000000 0.019600 0.000000
# 6 0.000000 0.000000 0.000000 0.018679 0.000000 0.057804
#
#
# Mechanical properties :
#
#
# Convention : Reuss Voigt Hill
#
# Bulk Modulus (GPa) = 27.07034 39.88758 33.47896
# Shear Modulus (GPa) = 22.90928 33.09947 28.00438
#
# Velocity S-wave (km/s) = 3.14131 3.77586 3.47311
# Velocity P-wave (km/s) = 4.98169 6.01585 5.52303
#
# Compressibility (1/GPa) = 0.03694080
#
# Stress axis : x y z
#
# Youngs Moduli (GPa) = 83.68044 38.55982 116.49674
#
# Poissons Ratio (x) = 0.06540 0.40470
# Poissons Ratio (y) = 0.14193 -0.04735
# Poissons Ratio (z) = 0.29070 -0.01567
#
# Static dielectric constant tensor:
#      x y z
#    x 0.837790 0.000000 -0.777750 
#    y 0.000000 1.905070 0.000000 
#    z -0.777750 0.000000 1.431420 
# 
# From -- ./inp_files/81997.got.cif
#   From: 2010.05.17/outbox.cif.g08.bks.cpg/sg15_41_cif.got.tgz:81997.got - 2010.06.03 18:47:42.
