data_PCOD9303374
_publ_section_title
;
Structure prediction by ZEFSAII (Michael W. Deem and Ramdas Pophale) SiO2 
 PCOD9303374
Probable space group: C 2/C
;
_chemical_formula_sum "Si O2"
_cell_formula_units_Z 36
_cell_length_a 14.122763
_cell_length_b 9.260176
_cell_length_c 23.946613
_cell_angle_alpha 90.000000
_cell_angle_beta 154.711795
_cell_angle_gamma 90.000000
_cell_volume 1337.782529
_symmetry_space_group_name_H-M "C 2/C"
_symmetry_group_IT_number 15
_symmetry_cell_setting 'monoclinic'
loop_
_space_group_symop_operation_xyz
x,y,z
-x,y,1/2-z
-x,-y,-z
x,-y,1/2+z
1/2+x,1/2+y,z
1/2-x,1/2+y,1/2-z
1/2-x,1/2-y,-z
1/2+x,1/2-y,1/2+z
loop_
_atom_site_type_symbol
_atom_site_label
_atom_site_fract_x
_atom_site_fract_y
_atom_site_fract_z
Si Si1 0.028857 0.283527 0.877010
Si Si2 0.724280 0.832557 0.879347
Si Si3 0.369465 0.341588 0.481661
Si Si4 0.685242 0.482327 0.739000
Si Si5 0.000000 0.129267 0.250000
O O1 0.948062 0.316015 0.766417
O O2 0.926626 0.429996 0.849570
O O3 0.272658 0.253962 0.967525
O O4 0.872623 0.145497 0.807297
O O5 0.764701 0.004646 0.908744
O O6 0.953385 0.787324 0.969354
O O7 0.510663 0.382454 0.611735
O O8 0.171738 0.227974 0.375764
O O9 0.633875 0.465447 0.776915
#
# Coordination Sequence:
#
# PCOD9303374 Si02
#       5
#     8   8   8   8   4
#     4  12  27  50  77 111 154 199 255 317 382 452
#     4  11  22  43  76 105 147 191 257 303 378 443
#     4  11  24  45  77 109 143 203 250 313 374 456
#     4  12  29  47  76 110 151 204 252 316 383 447
#     4  12  28  46  70 112 162 188 262 314 382 448
#
# _framework density 26.910202999999999
#
# number of rings (size 3 to 8) (size 9 to 14) (size 15 to 20)
#    0.000    0.444    5.556    2.000    7.778    1.778 
#    0.000    3.333    0.000    0.000    0.000    0.000 
#    0.000    0.000    0.000    0.000    0.000    0.000 
#
# Total GULP energy -100816.357079 kJ/mol
# GULP energy per Si atom -5600.908727 kJ/mol
# Density = 2.684895 g / cm^3
# Si number density = 26.910203 Si / 1000 Ang^3
#
#
#
# Elastic Constant Matrix: (Units=GPa)
#
#
# Indices 1 2 3 4 5 6 
#
# 1 198.5239 21.4233 48.6970 -0.0001 -6.1445 0.0000
# 2 21.4233 82.5860 60.1404 0.0004 23.7162 0.0000
# 3 48.6970 60.1404 195.1036 0.0058 4.1405 -0.0016
# 4 -0.0001 0.0004 0.0058 54.8527 -0.0002 2.9371
# 5 -6.1445 23.7162 4.1405 -0.0002 55.1136 -0.0001
# 6 0.0000 0.0000 -0.0016 2.9371 -0.0001 23.8539
#
#
#
# Elastic Compliance Matrix: (Units=1/GPa)
#
#
# Indices 1 2 3 4 5 6 
#
# 1 0.005439 -0.000925 -0.001095 0.000000 0.001087 0.000000
# 2 -0.000925 0.018374 -0.005271 0.000000 -0.007614 0.000000
# 3 -0.001095 -0.005271 0.006989 -0.000001 0.001621 0.000001
# 4 0.000000 0.000000 -0.000001 0.018352 0.000000 -0.002260
# 5 0.001087 -0.007614 0.001621 0.000000 0.021420 0.000000
# 6 0.000000 0.000000 0.000001 -0.002260 0.000000 0.042200
#
#
# Mechanical properties :
#
#
# Convention : Reuss Voigt Hill
#
# Bulk Modulus (GPa) = 61.65862 81.85943 71.75902
# Shear Modulus (GPa) = 37.66088 49.82758 43.74423
#
# Velocity S-wave (km/s) = 3.74505 4.30772 4.03620
# Velocity P-wave (km/s) = 6.45469 7.43152 6.96026
#
# Compressibility (1/GPa) = 0.01621833
#
# Stress axis : x y z
#
# Youngs Moduli (GPa) = 183.84397 54.42620 143.07593
#
# Poissons Ratio (x) = 0.05037 0.15673
# Poissons Ratio (y) = 0.17013 0.75416
# Poissons Ratio (z) = 0.20139 0.28688
#
# Static dielectric constant tensor:
#      x y z
#    x 2.124180 0.000000 -0.002580 
#    y 0.000000 1.925440 0.000000 
#    z -0.002580 0.000000 2.088980 
# 
# From -- ./inp_files/295498.got.cif
#   From: 2010.05.17/outbox.cif.g08.bks.cpg/sg15_148_cif.got.tgz:295498.got - 2010.06.03 18:47:42.
