data_PCOD9303931
_publ_section_title
;
Structure prediction by ZEFSAII (Michael W. Deem and Ramdas Pophale) SiO2 
 PCOD9303931
Probable space group: C 2/C
;
_chemical_formula_sum "Si O2"
_cell_formula_units_Z 52
_cell_length_a 5.399560
_cell_length_b 14.904827
_cell_length_c 32.098102
_cell_angle_alpha 90.000000
_cell_angle_beta 68.893719
_cell_angle_gamma 90.000000
_cell_volume 2409.940412
_symmetry_space_group_name_H-M "C 2/C"
_symmetry_group_IT_number 15
_symmetry_cell_setting 'monoclinic'
loop_
_space_group_symop_operation_xyz
x,y,z
-x,y,1/2-z
-x,-y,-z
x,-y,1/2+z
1/2+x,1/2+y,z
1/2-x,1/2+y,1/2-z
1/2-x,1/2-y,-z
1/2+x,1/2-y,1/2+z
loop_
_atom_site_type_symbol
_atom_site_label
_atom_site_fract_x
_atom_site_fract_y
_atom_site_fract_z
Si Si1 0.132704 0.300041 0.325755
Si Si2 0.408512 0.208199 0.925694
Si Si3 0.500000 0.596288 0.750000
Si Si4 0.936318 0.672395 0.416256
Si Si5 0.500000 0.007075 0.250000
Si Si6 0.810643 0.512813 0.971681
Si Si7 0.494772 0.856757 0.817130
Si Si8 0.500000 0.734793 0.250000
O O1 0.991131 0.330858 0.375290
O O2 0.399341 0.348431 0.295795
O O3 0.227086 0.199567 0.328179
O O4 0.982366 0.296526 0.291547
O O5 0.661315 0.267694 0.927795
O O6 0.151879 0.272086 0.931313
O O7 0.349944 0.116977 0.954741
O O8 0.735314 0.539871 0.752891
O O9 0.881767 0.572403 0.437333
O O10 0.055931 0.656264 0.362218
O O11 0.571534 0.051092 0.200688
O O12 0.500000 0.500000 0.000000
O O13 0.000000 0.500000 0.000000
O O14 0.736339 0.824061 0.772230
#
# Coordination Sequence:
#
# PCOD9303931 Si02
#       8
#     8   8   4   8   4   8   8   4
#     4  11  23  41  64  95 139 190 236 283 336 408
#     4  11  26  47  75 109 144 188 234 295 360 426
#     4  12  26  38  59  99 138 188 232 284 340 402
#     4  11  26  47  75 109 144 188 234 295 360 426
#     4  12  26  38  59  99 138 188 232 284 340 402
#     4  12  28  52  78 110 142 180 236 302 368 442
#     4  11  23  41  64  95 139 190 236 283 336 408
#     4  12  16  40  72  88 140 186 250 266 334 406
#
# _framework density 21.577297000000002
#
# number of rings (size 3 to 8) (size 9 to 14) (size 15 to 20)
#    0.000    0.615    4.615    2.769    2.154    3.692 
#    2.769    0.000    0.000    0.000    0.000    0.000 
#    0.000    0.000    0.000    0.000    0.000    0.000 
#
# Total GULP energy -144817.895304 kJ/mol
# GULP energy per Si atom -5569.919050 kJ/mol
# Density = 2.152819 g / cm^3
# Si number density = 21.577297 Si / 1000 Ang^3
#
#
#
# Elastic Constant Matrix: (Units=GPa)
#
#
# Indices 1 2 3 4 5 6 
#
# 1 145.1127 48.2462 35.9041 0.0000 9.4691 0.0000
# 2 48.2462 98.3687 30.1350 0.0000 4.0390 0.0000
# 3 35.9041 30.1350 76.4912 0.0000 2.9706 0.0000
# 4 0.0000 0.0000 0.0000 -16.0100 0.0000 29.3406
# 5 9.4691 4.0390 2.9706 0.0000 31.8123 0.0000
# 6 0.0000 0.0000 0.0000 29.3406 0.0000 24.4188
#
#
#
# Elastic Compliance Matrix: (Units=1/GPa)
#
#
# Indices 1 2 3 4 5 6 
#
# 1 0.008827 -0.003416 -0.002722 0.000000 -0.001940 0.000000
# 2 -0.003416 0.012918 -0.003474 0.000000 -0.000299 0.000000
# 3 -0.002722 -0.003474 0.015728 0.000000 -0.000217 0.000000
# 4 0.000000 0.000000 0.000000 -0.019507 0.000000 0.023438
# 5 -0.001940 -0.000299 -0.000217 0.000000 0.032070 0.000000
# 6 0.000000 0.000000 0.000000 0.023438 0.000000 0.012789
#
#
# Mechanical properties :
#
#
# Convention : Reuss Voigt Hill
#
# Bulk Modulus (GPa) = 54.79876 60.94926 57.87401
# Shear Modulus (GPa) = 56.73247 21.75671 39.24459
#
# Velocity S-wave (km/s) = 5.13320 3.17884 4.26935
# Velocity P-wave (km/s) = 7.78361 6.46387 7.15424
#
# Compressibility (1/GPa) = 0.01824859
#
# Stress axis : x y z
#
# Youngs Moduli (GPa) = 113.28958 77.41307 63.57935
#
# Poissons Ratio (x) = 0.26442 0.17308
# Poissons Ratio (y) = 0.38696 0.22089
# Poissons Ratio (z) = 0.30840 0.26895
#
# Static dielectric constant tensor:
#      x y z
#    x 1.808660 0.000000 0.023930 
#    y 0.000000 1.907730 0.000000 
#    z 0.023930 0.000000 1.831730 
# 
# From -- ./inp_files/305366.got.cif
#   From: 2010.05.17/outbox.cif.g08.bks.cpg/sg15_153_cif.got.tgz:305366.got - 2010.06.03 18:47:42.
