data_PCOD9303573
_publ_section_title
;
Structure prediction by ZEFSAII (Michael W. Deem and Ramdas Pophale) SiO2 
 PCOD9303573
Probable space group: C 2/C
;
_chemical_formula_sum "Si O2"
_cell_formula_units_Z 44
_cell_length_a 14.139406
_cell_length_b 13.307359
_cell_length_c 13.527350
_cell_angle_alpha 90.000000
_cell_angle_beta 49.590018
_cell_angle_gamma 90.000000
_cell_volume 1938.041688
_symmetry_space_group_name_H-M "C 2/C"
_symmetry_group_IT_number 15
_symmetry_cell_setting 'monoclinic'
loop_
_space_group_symop_operation_xyz
x,y,z
-x,y,1/2-z
-x,-y,-z
x,-y,1/2+z
1/2+x,1/2+y,z
1/2-x,1/2+y,1/2-z
1/2-x,1/2-y,-z
1/2+x,1/2-y,1/2+z
loop_
_atom_site_type_symbol
_atom_site_label
_atom_site_fract_x
_atom_site_fract_y
_atom_site_fract_z
Si Si1 0.645412 0.525768 0.159528
Si Si2 0.086167 0.243534 0.284587
Si Si3 0.236274 0.567289 0.094370
Si Si4 0.265544 0.417760 0.226898
Si Si5 0.500000 0.196039 0.250000
Si Si6 0.991198 0.819296 0.454289
O O1 0.500000 0.495377 0.250000
O O2 0.638872 0.633620 0.217518
O O3 0.723515 0.442057 0.165419
O O4 0.713485 0.522973 0.008776
O O5 0.195230 0.320142 0.237227
O O6 0.010229 0.235417 0.438753
O O7 0.000000 0.275023 0.250000
O O8 0.204336 0.514135 0.218630
O O9 0.117522 0.628425 0.141364
O O10 0.352828 0.640916 0.028941
O O11 0.410192 0.408680 0.100388
O O12 0.530439 0.259354 0.328678
#
# Coordination Sequence:
#
# PCOD9303573 Si02
#       6
#     8   8   8   8   4   8
#     4  11  22  45  75 104 140 192 244 292 352 430
#     4  11  26  44  69 108 146 192 236 294 368 426
#     4  12  25  45  71 106 145 185 243 299 358 435
#     4  12  24  44  71 105 139 186 241 293 357 421
#     4  12  28  46  74 108 144 192 238 304 378 404
#     4  12  23  47  74 101 141 190 253 295 343 443
#
# _framework density 22.703329
#
# number of rings (size 3 to 8) (size 9 to 14) (size 15 to 20)
#    0.000    0.364    3.636    6.545    1.273    2.909 
#    0.000    1.818    0.000    0.000    0.000    0.000 
#    0.000    0.000    0.000    0.000    0.000    0.000 
#
# Total GULP energy -122942.474571 kJ/mol
# GULP energy per Si atom -5588.294299 kJ/mol
# Density = 2.265165 g / cm^3
# Si number density = 22.703329 Si / 1000 Ang^3
#
#
#
# Elastic Constant Matrix: (Units=GPa)
#
#
# Indices 1 2 3 4 5 6 
#
# 1 101.1838 46.6608 8.1499 0.0000 17.8906 0.0000
# 2 46.6608 67.2402 13.6231 0.0000 7.8747 0.0000
# 3 8.1499 13.6231 73.9420 0.0000 24.4433 0.0000
# 4 0.0000 0.0000 0.0000 12.7887 0.0000 7.3652
# 5 17.8906 7.8747 24.4433 0.0000 28.6113 0.0000
# 6 0.0000 0.0000 0.0000 7.3652 0.0000 51.8246
#
#
#
# Elastic Compliance Matrix: (Units=1/GPa)
#
#
# Indices 1 2 3 4 5 6 
#
# 1 0.016481 -0.010957 0.003640 0.000000 -0.010400 0.000000
# 2 -0.010957 0.022866 -0.004445 0.000000 0.004355 0.000000
# 3 0.003640 -0.004445 0.019914 0.000000 -0.018066 0.000000
# 4 0.000000 0.000000 0.000000 0.085165 0.000000 -0.012103
# 5 -0.010400 0.004355 -0.018066 0.000000 0.055689 0.000000
# 6 0.000000 0.000000 0.000000 -0.012103 0.000000 0.021016
#
#
# Mechanical properties :
#
#
# Convention : Reuss Voigt Hill
#
# Bulk Modulus (GPa) = 27.98138 42.13708 35.05923
# Shear Modulus (GPa) = 19.48813 30.24039 24.86426
#
# Velocity S-wave (km/s) = 2.93299 3.65359 3.31294
# Velocity P-wave (km/s) = 4.88073 6.03311 5.48726
#
# Compressibility (1/GPa) = 0.03573805
#
# Stress axis : x y z
#
# Youngs Moduli (GPa) = 60.67510 43.73353 50.21630
#
# Poissons Ratio (x) = 0.47917 -0.18279
# Poissons Ratio (y) = 0.66479 0.22320
# Poissons Ratio (z) = -0.22086 0.19439
#
# Static dielectric constant tensor:
#      x y z
#    x 1.796010 0.000000 0.034610 
#    y 0.000000 1.824930 0.000000 
#    z 0.034610 0.000000 1.840260 
# 
# From -- ./inp_files/96097.got.cif
#   From: 2010.05.17/outbox.cif.g08.bks.cpg/sg15_49_cif.got.tgz:96097.got - 2010.06.03 18:47:42.
