data_PCOD9303677
_publ_section_title
;
Structure prediction by ZEFSAII (Michael W. Deem and Ramdas Pophale) SiO2 
 PCOD9303677
Probable space group: C 2/C
;
_chemical_formula_sum "Si O2"
_cell_formula_units_Z 44
_cell_length_a 8.955198
_cell_length_b 25.910153
_cell_length_c 10.862861
_cell_angle_alpha 90.000000
_cell_angle_beta 56.196260
_cell_angle_gamma 90.000000
_cell_volume 2094.417801
_symmetry_space_group_name_H-M "C 2/C"
_symmetry_group_IT_number 15
_symmetry_cell_setting 'monoclinic'
loop_
_space_group_symop_operation_xyz
x,y,z
-x,y,1/2-z
-x,-y,-z
x,-y,1/2+z
1/2+x,1/2+y,z
1/2-x,1/2+y,1/2-z
1/2-x,1/2-y,-z
1/2+x,1/2-y,1/2+z
loop_
_atom_site_type_symbol
_atom_site_label
_atom_site_fract_x
_atom_site_fract_y
_atom_site_fract_z
Si Si1 0.764747 0.859114 0.009073
Si Si2 0.850280 0.481855 0.667397
Si Si3 0.000000 0.566659 0.750000
Si Si4 0.500000 0.113015 0.250000
Si Si5 0.500000 0.431744 0.750000
Si Si6 0.143647 0.197753 0.778564
Si Si7 0.000459 0.696456 0.045411
O O1 0.596944 0.897532 0.107625
O O2 0.814066 0.832899 0.115441
O O3 0.933679 0.892189 0.885626
O O4 0.679849 0.821010 0.945937
O O5 0.664384 0.470151 0.691162
O O6 0.000000 0.500000 0.500000
O O7 0.851300 0.528761 0.762475
O O8 0.884648 0.428418 0.725060
O O9 0.562217 0.152474 0.114528
O O10 0.333528 0.205562 0.622685
O O11 0.000000 0.172406 0.750000
O O12 0.052335 0.251434 0.860652
#
# Coordination Sequence:
#
# PCOD9303677 Si02
#       7
#     8   8   4   4   4   8   8
#     4  12  26  47  73 104 142 196 240 298 365 435
#     4  11  24  46  72 105 144 188 240 303 356 431
#     4  11  22  50  69 100 148 181 240 293 368 424
#     4  11  24  44  78  97 151 196 232 299 362 412
#     4  12  26  44  77 105 141 187 246 294 372 438
#     4  12  28  44  73 107 148 187 248 298 360 433
#     4  12  25  48  70 105 149 194 239 300 360 429
#
# _framework density 21.008223999999998
#
# number of rings (size 3 to 8) (size 9 to 14) (size 15 to 20)
#    0.000    0.364    6.364    1.091    5.091    0.727 
#    1.636    0.000    0.000    0.000    0.000    0.000 
#    0.000    0.000    0.000    0.000    0.000    0.000 
#
# Total GULP energy -122774.545143 kJ/mol
# GULP energy per Si atom -5580.661143 kJ/mol
# Density = 2.096041 g / cm^3
# Si number density = 21.008224 Si / 1000 Ang^3
#
#
#
# Elastic Constant Matrix: (Units=GPa)
#
#
# Indices 1 2 3 4 5 6 
#
# 1 115.5986 32.7809 45.2083 0.0000 4.1885 0.0000
# 2 32.7809 89.5488 42.0185 0.0000 2.6803 0.0000
# 3 45.2083 42.0185 103.2054 0.0000 2.0388 0.0000
# 4 0.0000 0.0000 0.0000 27.2146 0.0000 32.8282
# 5 4.1885 2.6803 2.0388 0.0000 33.0730 0.0000
# 6 0.0000 0.0000 0.0000 32.8282 0.0000 203.2953
#
#
#
# Elastic Compliance Matrix: (Units=1/GPa)
#
#
# Indices 1 2 3 4 5 6 
#
# 1 0.010789 -0.002117 -0.003846 0.000000 -0.000958 0.000000
# 2 -0.002117 0.014239 -0.004859 0.000000 -0.000586 0.000000
# 3 -0.003846 -0.004859 0.013351 0.000000 0.000058 0.000000
# 4 0.000000 0.000000 0.000000 0.045634 0.000000 -0.007369
# 5 -0.000958 -0.000586 0.000058 0.000000 0.030401 0.000000
# 6 0.000000 0.000000 0.000000 -0.007369 0.000000 0.006109
#
#
# Mechanical properties :
#
#
# Convention : Reuss Voigt Hill
#
# Bulk Modulus (GPa) = 59.74375 60.92983 60.33679
# Shear Modulus (GPa) = 33.84217 65.27291 49.55754
#
# Velocity S-wave (km/s) = 4.01796 5.58011 4.86218
# Velocity P-wave (km/s) = 7.07286 8.40135 7.76556
#
# Compressibility (1/GPa) = 0.01673815
#
# Stress axis : x y z
#
# Youngs Moduli (GPa) = 92.68300 70.22866 74.90137
#
# Poissons Ratio (x) = 0.14864 0.28804
# Poissons Ratio (y) = 0.19617 0.36391
# Poissons Ratio (z) = 0.35642 0.34121
#
# Static dielectric constant tensor:
#      x y z
#    x 1.707330 0.000000 0.014760 
#    y 0.000000 1.771190 0.000000 
#    z 0.014760 0.000000 1.748640 
# 
# From -- ./inp_files/79730.got.cif
#   From: 2010.05.17/outbox.cif.g08.bks.cpg/sg15_40_cif.got.tgz:79730.got - 2010.06.03 18:47:42.
