data_PCOD9303676
_publ_section_title
;
Structure prediction by ZEFSAII (Michael W. Deem and Ramdas Pophale) SiO2 
 PCOD9303676
Probable space group: C 2/C
;
_chemical_formula_sum "Si O2"
_cell_formula_units_Z 44
_cell_length_a 10.314359
_cell_length_b 11.004719
_cell_length_c 16.756571
_cell_angle_alpha 90.000000
_cell_angle_beta 70.077583
_cell_angle_gamma 90.000000
_cell_volume 1788.157453
_symmetry_space_group_name_H-M "C 2/C"
_symmetry_group_IT_number 15
_symmetry_cell_setting 'monoclinic'
loop_
_space_group_symop_operation_xyz
x,y,z
-x,y,1/2-z
-x,-y,-z
x,-y,1/2+z
1/2+x,1/2+y,z
1/2-x,1/2+y,1/2-z
1/2-x,1/2-y,-z
1/2+x,1/2-y,1/2+z
loop_
_atom_site_type_symbol
_atom_site_label
_atom_site_fract_x
_atom_site_fract_y
_atom_site_fract_z
Si Si1 0.316725 0.544695 0.921276
Si Si2 0.523155 0.680739 0.152085
Si Si3 0.971074 0.635369 0.537118
Si Si4 0.774734 0.975342 0.620358
Si Si5 0.500000 0.878223 0.750000
Si Si6 0.574050 0.293744 0.367444
O O1 0.343525 0.406647 0.888480
O O2 0.191326 0.622346 0.913669
O O3 0.451017 0.617116 0.867424
O O4 0.300925 0.541824 0.020445
O O5 0.500000 0.697572 0.250000
O O6 0.537517 0.806028 0.101042
O O7 0.390893 0.609504 0.139819
O O8 0.000000 0.500000 0.500000
O O9 0.017214 0.724482 0.456859
O O10 0.804875 0.114271 0.637926
O O11 0.618062 0.944992 0.675147
O O12 0.409947 0.800336 0.706558
#
# Coordination Sequence:
#
# PCOD9303676 Si02
#       6
#     8   8   8   8   4   8
#     4  11  22  48  83 105 145 206 264 315 398 468
#     4  11  25  49  77 115 156 201 263 330 384 471
#     4  12  25  46  76 109 152 207 254 316 401 464
#     4  11  23  48  79 111 149 205 265 316 399 459
#     4  12  26  44  76 120 154 202 266 330 366 472
#     4  11  23  47  77 108 147 201 263 315 386 463
#
# _framework density 24.606334
#
# number of rings (size 3 to 8) (size 9 to 14) (size 15 to 20)
#    0.000    0.727    5.455    2.727    5.091    2.182 
#    8.182    0.000    4.000    0.000    0.000    0.000 
#    0.000    0.000    0.000    0.000    0.000    0.000 
#
# Total GULP energy -123278.979210 kJ/mol
# GULP energy per Si atom -5603.589964 kJ/mol
# Density = 2.455033 g / cm^3
# Si number density = 24.606334 Si / 1000 Ang^3
#
#
#
# Elastic Constant Matrix: (Units=GPa)
#
#
# Indices 1 2 3 4 5 6 
#
# 1 60.4944 29.1388 3.3527 0.0000 2.0159 0.0000
# 2 29.1388 142.1934 45.2298 0.0000 8.1037 0.0000
# 3 3.3527 45.2298 107.2296 0.0000 7.8496 0.0000
# 4 0.0000 0.0000 0.0000 25.6001 0.0000 1.7547
# 5 2.0159 8.1037 7.8496 0.0000 30.9291 0.0000
# 6 0.0000 0.0000 0.0000 1.7547 0.0000 14.7118
#
#
#
# Elastic Compliance Matrix: (Units=1/GPa)
#
#
# Indices 1 2 3 4 5 6 
#
# 1 0.018474 -0.004144 0.001201 0.000000 -0.000423 0.000000
# 2 -0.004144 0.009102 -0.003622 0.000000 -0.001195 0.000000
# 3 0.001201 -0.003622 0.010956 0.000000 -0.001910 0.000000
# 4 0.000000 0.000000 0.000000 0.039384 0.000000 -0.004697
# 5 -0.000423 -0.001195 -0.001910 0.000000 0.033157 0.000000
# 6 0.000000 0.000000 0.000000 -0.004697 0.000000 0.068533
#
#
# Mechanical properties :
#
#
# Convention : Reuss Voigt Hill
#
# Bulk Modulus (GPa) = 39.36628 51.70667 45.53647
# Shear Modulus (GPa) = 24.85046 29.72795 27.28920
#
# Velocity S-wave (km/s) = 3.18137 3.47960 3.33383
# Velocity P-wave (km/s) = 5.43397 6.09940 5.77628
#
# Compressibility (1/GPa) = 0.02540245
#
# Stress axis : x y z
#
# Youngs Moduli (GPa) = 54.13038 109.86438 91.27501
#
# Poissons Ratio (x) = 0.45525 -0.10964
# Poissons Ratio (y) = 0.22430 0.33062
# Poissons Ratio (z) = -0.06502 0.39796
#
# Static dielectric constant tensor:
#      x y z
#    x 2.079000 0.000000 -0.015000 
#    y 0.000000 2.037990 0.000000 
#    z -0.015000 0.000000 1.885940 
# 
# From -- ./inp_files/195955.got.cif
#   From: 2010.05.17/outbox.cif.g08.bks.cpg/sg15_98_cif.got.tgz:195955.got - 2010.06.03 18:47:42.
