data_PCOD9303173
_publ_section_title
;
Structure prediction by ZEFSAII (Michael W. Deem and Ramdas Pophale) SiO2 
 PCOD9303173
Probable space group: C 2/C
;
_chemical_formula_sum "Si O2"
_cell_formula_units_Z 52
_cell_length_a 24.036300
_cell_length_b 13.778864
_cell_length_c 19.326231
_cell_angle_alpha 90.000000
_cell_angle_beta 21.534087
_cell_angle_gamma 90.000000
_cell_volume 2349.410902
_symmetry_space_group_name_H-M "C 2/C"
_symmetry_group_IT_number 15
_symmetry_cell_setting 'monoclinic'
loop_
_space_group_symop_operation_xyz
x,y,z
-x,y,1/2-z
-x,-y,-z
x,-y,1/2+z
1/2+x,1/2+y,z
1/2-x,1/2+y,1/2-z
1/2-x,1/2-y,-z
1/2+x,1/2-y,1/2+z
loop_
_atom_site_type_symbol
_atom_site_label
_atom_site_fract_x
_atom_site_fract_y
_atom_site_fract_z
Si Si1 0.224865 0.611735 0.793154
Si Si2 0.646470 0.179036 0.483497
Si Si3 0.032294 0.522755 0.138141
Si Si4 0.424397 0.212245 0.088101
Si Si5 0.500000 0.507541 0.250000
Si Si6 0.622134 0.315251 0.684684
Si Si7 0.254833 0.045413 0.356242
O O1 0.371480 0.676744 0.640858
O O2 0.248563 0.530327 0.705204
O O3 0.157482 0.569084 0.942278
O O4 0.092302 0.684197 0.918898
O O5 0.607087 0.164808 0.449948
O O6 0.544382 0.269551 0.624711
O O7 0.820460 0.188685 0.302804
O O8 0.593314 0.083868 0.584082
O O9 0.000000 0.571666 0.250000
O O10 0.883613 0.512864 0.262179
O O11 0.309432 0.151588 0.269660
O O12 0.389959 0.579623 0.334435
O O13 0.401585 0.452434 0.420798
O O14 0.750000 0.250000 0.500000
#
# Coordination Sequence:
#
# PCOD9303173 Si02
#       7
#     8   8   8   8   4   8   8
#     4  11  23  47  69  96 132 175 222 271 325 397
#     4  12  21  38  63  93 129 169 211 266 326 397
#     4  11  22  42  69  94 129 177 221 265 330 392
#     4  11  23  43  71  94 128 178 220 270 328 383
#     4  12  24  40  62  94 134 170 218 284 320 390
#     4  12  23  35  57  96 133 164 210 260 336 392
#     4  11  23  47  67  95 135 177 218 270 334 391
#
# _framework density 22.133209000000001
#
# number of rings (size 3 to 8) (size 9 to 14) (size 15 to 20)
#    0.000    0.615    4.615    5.538    0.000    0.000 
#    6.923    3.077    0.000    0.000    0.000    0.000 
#    0.000    0.000    0.000    0.000    0.000    0.000 
#
# Total GULP energy -145248.329804 kJ/mol
# GULP energy per Si atom -5586.474223 kJ/mol
# Density = 2.208283 g / cm^3
# Si number density = 22.133209 Si / 1000 Ang^3
#
#
#
# Elastic Constant Matrix: (Units=GPa)
#
#
# Indices 1 2 3 4 5 6 
#
# 1 82.8257 -0.0886 12.8733 -0.0015 17.6715 0.0012
# 2 -0.0886 30.1830 -0.5964 -0.0004 9.9951 0.0007
# 3 12.8733 -0.5964 79.4086 -0.0002 32.0132 0.0010
# 4 -0.0015 -0.0004 -0.0002 42.1070 -0.0001 4.0412
# 5 17.6715 9.9951 32.0132 -0.0001 39.9806 -0.0004
# 6 0.0012 0.0007 0.0010 4.0412 -0.0004 13.5950
#
#
#
# Elastic Compliance Matrix: (Units=1/GPa)
#
#
# Indices 1 2 3 4 5 6 
#
# 1 0.013488 0.002415 0.000706 0.000001 -0.007131 -0.000002
# 2 0.002415 0.038442 0.006205 0.000001 -0.015646 -0.000003
# 3 0.000706 0.006205 0.019605 0.000000 -0.017562 -0.000002
# 4 0.000001 0.000001 0.000000 0.024446 -0.000001 -0.007267
# 5 -0.007131 -0.015646 -0.017562 -0.000001 0.046137 0.000004
# 6 -0.000002 -0.000003 -0.000002 -0.007267 0.000004 0.075717
#
#
# Mechanical properties :
#
#
# Convention : Reuss Voigt Hill
#
# Bulk Modulus (GPa) = 11.08799 24.08821 17.58810
# Shear Modulus (GPa) = 21.81067 31.15179 26.48123
#
# Velocity S-wave (km/s) = 3.14256 3.75569 3.46272
# Velocity P-wave (km/s) = 4.26475 5.45105 4.89398
#
# Compressibility (1/GPa) = 0.09018766
#
# Stress axis : x y z
#
# Youngs Moduli (GPa) = 74.14115 26.01311 51.00726
#
# Poissons Ratio (x) = -0.06282 -0.03603
# Poissons Ratio (y) = -0.17905 -0.31650
# Poissons Ratio (z) = -0.05237 -0.16141
#
# Static dielectric constant tensor:
#      x y z
#    x 1.929740 0.000000 -0.003040 
#    y 0.000000 1.813440 0.000000 
#    z -0.003040 0.000000 1.917870 
# 
# From -- ./inp_files/257787.got.cif
#   From: 2010.05.17/outbox.cif.g08.bks.cpg/sg15_129_cif.got.tgz:257787.got - 2010.06.03 18:47:42.
