data_PCOD9303623
_publ_section_title
;
Structure prediction by ZEFSAII (Michael W. Deem and Ramdas Pophale) SiO2 
 PCOD9303623
Probable space group: C 2/C
;
_chemical_formula_sum "Si O2"
_cell_formula_units_Z 40
_cell_length_a 8.579092
_cell_length_b 12.206224
_cell_length_c 15.330882
_cell_angle_alpha 90.000000
_cell_angle_beta 92.350239
_cell_angle_gamma 90.000000
_cell_volume 1604.073739
_symmetry_space_group_name_H-M "C 2/C"
_symmetry_group_IT_number 15
_symmetry_cell_setting 'monoclinic'
loop_
_space_group_symop_operation_xyz
x,y,z
-x,y,1/2-z
-x,-y,-z
x,-y,1/2+z
1/2+x,1/2+y,z
1/2-x,1/2+y,1/2-z
1/2-x,1/2-y,-z
1/2+x,1/2-y,1/2+z
loop_
_atom_site_type_symbol
_atom_site_label
_atom_site_fract_x
_atom_site_fract_y
_atom_site_fract_z
Si Si1 0.719826 0.500759 0.389407
Si Si2 0.335717 0.143139 0.041902
Si Si3 0.895559 0.707870 0.333942
Si Si4 0.573959 0.394202 0.660083
Si Si5 0.660344 0.839934 0.235464
O O1 0.743235 0.411314 0.621988
O O2 0.553803 0.555225 0.408915
O O3 0.716878 0.398728 0.323924
O O4 0.824106 0.452699 0.469977
O O5 0.495938 0.195517 0.079493
O O6 0.091213 0.235728 0.179842
O O7 0.250000 0.250000 0.000000
O O8 0.802610 0.594960 0.336000
O O9 0.761020 0.799391 0.320345
O O10 0.000000 0.715198 0.250000
O O11 0.500000 0.436328 0.750000
O O12 0.500000 0.904805 0.250000
#
# Coordination Sequence:
#
# PCOD9303623 Si02
#       5
#     8   8   8   8   8
#     4  12  24  43  75 100 144 197 232 312 378 408
#     4  12  25  45  68 107 149 184 244 306 360 440
#     4  12  23  45  70 103 148 190 247 295 361 452
#     4  11  22  46  72  98 144 186 249 293 350 453
#     4  11  23  47  74 106 147 186 255 299 355 447
#
# _framework density 24.936506999999999
#
# number of rings (size 3 to 8) (size 9 to 14) (size 15 to 20)
#    0.000    0.400    8.000    1.800    0.000    2.400 
#    0.000    6.000    0.000    0.000    0.000    0.000 
#    0.000    0.000    0.000    0.000    0.000    0.000 
#
# Total GULP energy -111477.517159 kJ/mol
# GULP energy per Si atom -5573.875858 kJ/mol
# Density = 2.487975 g / cm^3
# Si number density = 24.936507 Si / 1000 Ang^3
#
#
#
# Elastic Constant Matrix: (Units=GPa)
#
#
# Indices 1 2 3 4 5 6 
#
# 1 133.1179 32.9620 21.5902 0.0000 40.7488 0.0000
# 2 32.9620 53.3883 13.1453 0.0000 11.2711 0.0000
# 3 21.5902 13.1453 65.3686 0.0000 11.0524 0.0000
# 4 0.0000 0.0000 0.0000 26.7328 0.0000 6.0193
# 5 40.7488 11.2711 11.0524 0.0000 53.2653 0.0000
# 6 0.0000 0.0000 0.0000 6.0193 0.0000 34.0684
#
#
#
# Elastic Compliance Matrix: (Units=1/GPa)
#
#
# Indices 1 2 3 4 5 6 
#
# 1 0.011200 -0.005034 -0.001470 0.000000 -0.007198 0.000000
# 2 -0.005034 0.022607 -0.002825 0.000000 -0.000347 0.000000
# 3 -0.001470 -0.002825 0.016644 0.000000 -0.001731 0.000000
# 4 0.000000 0.000000 0.000000 0.038957 0.000000 -0.006883
# 5 -0.007198 -0.000347 -0.001731 0.000000 0.024713 0.000000
# 6 0.000000 0.000000 0.000000 -0.006883 0.000000 0.030569
#
#
# Mechanical properties :
#
#
# Convention : Reuss Voigt Hill
#
# Bulk Modulus (GPa) = 31.45184 43.03000 37.24092
# Shear Modulus (GPa) = 28.74444 35.09177 31.91810
#
# Velocity S-wave (km/s) = 3.39883 3.75540 3.58156
# Velocity P-wave (km/s) = 5.29556 6.00810 5.66305
#
# Compressibility (1/GPa) = 0.03179464
#
# Stress axis : x y z
#
# Youngs Moduli (GPa) = 89.28224 44.23362 60.08100
#
# Poissons Ratio (x) = 0.22265 0.08832
# Poissons Ratio (y) = 0.44940 0.16973
# Poissons Ratio (z) = 0.13125 0.12496
#
# Static dielectric constant tensor:
#      x y z
#    x 2.163200 0.000000 0.024490 
#    y 0.000000 1.998910 0.000000 
#    z 0.024490 0.000000 2.095400 
# 
# From -- ./inp_files/188452.got.cif
#   From: 2010.05.17/outbox.cif.g08.bks.cpg/sg15_95_cif.got.tgz:188452.got - 2010.06.03 18:47:42.
