data_PCOD9303428
_publ_section_title
;
Structure prediction by ZEFSAII (Michael W. Deem and Ramdas Pophale) SiO2 
 PCOD9303428
Probable space group: C 2/C
;
_chemical_formula_sum "Si O2"
_cell_formula_units_Z 60
_cell_length_a 18.541876
_cell_length_b 17.833892
_cell_length_c 18.834897
_cell_angle_alpha 90.000000
_cell_angle_beta 152.940862
_cell_angle_gamma 90.000000
_cell_volume 2833.273206
_symmetry_space_group_name_H-M "C 2/C"
_symmetry_group_IT_number 15
_symmetry_cell_setting 'monoclinic'
loop_
_space_group_symop_operation_xyz
x,y,z
-x,y,1/2-z
-x,-y,-z
x,-y,1/2+z
1/2+x,1/2+y,z
1/2-x,1/2+y,1/2-z
1/2-x,1/2-y,-z
1/2+x,1/2-y,1/2+z
loop_
_atom_site_type_symbol
_atom_site_label
_atom_site_fract_x
_atom_site_fract_y
_atom_site_fract_z
Si Si1 0.024061 0.843319 0.151417
Si Si2 0.360600 0.292050 0.782690
Si Si3 0.871392 0.711422 0.946088
Si Si4 0.500000 0.532239 0.750000
Si Si5 0.642310 0.209179 0.964783
Si Si6 0.902778 0.074856 0.411559
Si Si7 0.965223 0.554728 0.403909
Si Si8 0.361548 0.968084 0.069037
O O1 0.202711 0.820303 0.319790
O O2 0.987780 0.910414 0.172884
O O3 0.924309 0.766936 0.055885
O O4 0.996857 0.874493 0.049207
O O5 0.352055 0.250335 0.851371
O O6 0.480740 0.254586 0.832523
O O7 0.202280 0.287389 0.598766
O O8 0.398599 0.378543 0.834763
O O9 0.986661 0.640536 0.039926
O O10 0.330015 0.487342 0.595067
O O11 0.627230 0.121443 0.933737
O O12 0.750000 0.250000 0.000000
O O13 0.722411 0.057722 0.275976
O O14 0.000000 0.000000 0.500000
O O15 0.000000 0.500000 0.500000
O O16 0.072357 0.519382 0.436480
O O17 0.500000 0.983032 0.250000
#
# Coordination Sequence:
#
# PCOD9303428 Si02
#       8
#     8   8   8   4   8   8   8   8
#     4  11  24  43  68 105 138 188 238 301 367 449
#     4  11  23  43  69 101 140 186 238 307 369 434
#     4  11  22  44  70 103 140 178 246 303 366 443
#     4  12  28  50  76 106 152 198 248 300 384 444
#     4  12  27  45  68 104 144 196 247 301 374 447
#     4  11  24  40  71 105 142 185 245 306 368 440
#     4  12  24  45  72 106 143 191 246 305 377 434
#     4  12  28  50  75 107 154 199 249 310 371 458
#
# _framework density 21.176919000000002
#
# number of rings (size 3 to 8) (size 9 to 14) (size 15 to 20)
#    0.000    0.533    1.333    8.400    3.733    2.667 
#    1.200    0.000    0.000    0.000    0.000    0.000 
#    0.000    0.000    0.000    0.000    0.000    0.000 
#
# Total GULP energy -167361.354979 kJ/mol
# GULP energy per Si atom -5578.711833 kJ/mol
# Density = 2.112872 g / cm^3
# Si number density = 21.176919 Si / 1000 Ang^3
#
#
#
# Elastic Constant Matrix: (Units=GPa)
#
#
# Indices 1 2 3 4 5 6 
#
# 1 62.2918 26.4223 16.8035 -0.0008 8.4538 -0.0001
# 2 26.4223 109.6942 30.0680 -0.0022 17.2614 -0.0023
# 3 16.8035 30.0680 113.7336 -0.0023 19.9369 -0.0021
# 4 -0.0008 -0.0022 -0.0023 21.8422 -0.0023 5.7943
# 5 8.4538 17.2614 19.9369 -0.0023 42.4659 -0.0010
# 6 -0.0001 -0.0023 -0.0021 5.7943 -0.0010 36.8277
#
#
#
# Elastic Compliance Matrix: (Units=1/GPa)
#
#
# Indices 1 2 3 4 5 6 
#
# 1 0.018237 -0.003773 -0.001449 0.000000 -0.001417 0.000000
# 2 -0.003773 0.010979 -0.001846 0.000000 -0.002845 0.000000
# 3 -0.001449 -0.001846 0.010148 0.000000 -0.003725 0.000000
# 4 0.000000 0.000000 0.000000 0.047777 0.000002 -0.007517
# 5 -0.001417 -0.002845 -0.003725 0.000002 0.026736 0.000000
# 6 0.000000 0.000000 0.000000 -0.007517 0.000000 0.028336
#
#
# Mechanical properties :
#
#
# Convention : Reuss Voigt Hill
#
# Bulk Modulus (GPa) = 39.63896 48.03414 43.83655
# Shear Modulus (GPa) = 30.34776 34.38886 32.36831
#
# Velocity S-wave (km/s) = 3.78968 4.03412 3.91381
# Velocity P-wave (km/s) = 6.15691 6.66561 6.41630
#
# Compressibility (1/GPa) = 0.02522771
#
# Stress axis : x y z
#
# Youngs Moduli (GPa) = 54.83421 91.08511 98.54491
#
# Poissons Ratio (x) = 0.34364 0.14275
# Poissons Ratio (y) = 0.20687 0.18195
# Poissons Ratio (z) = 0.07943 0.16818
#
# Static dielectric constant tensor:
#      x y z
#    x 1.763030 0.000000 -0.019630 
#    y 0.000000 1.990350 0.000000 
#    z -0.019630 0.000000 1.693540 
# 
# From -- ./inp_files/211762.got.cif
#   From: 2010.05.17/outbox.cif.g08.bks.cpg/sg15_106_cif.got.tgz:211762.got - 2010.06.03 18:47:42.
