data_PCOD9303408
_publ_section_title
;
Structure prediction by ZEFSAII (Michael W. Deem and Ramdas Pophale) SiO2 
 PCOD9303408
Probable space group: C 2/C
;
_chemical_formula_sum "Si O2"
_cell_formula_units_Z 48
_cell_length_a 17.092652
_cell_length_b 14.907751
_cell_length_c 17.748809
_cell_angle_alpha 90.000000
_cell_angle_beta 33.689074
_cell_angle_gamma 90.000000
_cell_volume 2508.636979
_symmetry_space_group_name_H-M "C 2/C"
_symmetry_group_IT_number 15
_symmetry_cell_setting 'monoclinic'
loop_
_space_group_symop_operation_xyz
x,y,z
-x,y,1/2-z
-x,-y,-z
x,-y,1/2+z
1/2+x,1/2+y,z
1/2-x,1/2+y,1/2-z
1/2-x,1/2-y,-z
1/2+x,1/2-y,1/2+z
loop_
_atom_site_type_symbol
_atom_site_label
_atom_site_fract_x
_atom_site_fract_y
_atom_site_fract_z
Si Si1 0.624641 0.710648 0.814027
Si Si2 0.189629 0.456991 0.306963
Si Si3 0.857350 0.331443 0.411425
Si Si4 0.795800 0.200712 0.039475
Si Si5 0.843401 0.508789 0.341023
Si Si6 0.896134 0.369601 0.554564
O O1 0.683475 0.613068 0.789182
O O2 0.715606 0.751882 0.673043
O O3 0.637856 0.779795 0.872856
O O4 0.462464 0.706472 0.919194
O O5 0.155708 0.486021 0.248437
O O6 0.206400 0.548988 0.339695
O O7 0.052887 0.404857 0.449166
O O8 0.750000 0.250000 0.500000
O O9 0.791572 0.419779 0.425424
O O10 0.895293 0.353615 0.466697
O O11 0.000000 0.311212 0.250000
O O12 0.746989 0.097523 0.074659
O O13 0.750000 0.250000 0.000000
O O14 0.000000 0.524765 0.250000
#
# Coordination Sequence:
#
# PCOD9303408 Si02
#       6
#     8   8   8   8   8   8
#     4  12  25  46  69  99 137 175 228 284 336 402
#     4  11  23  42  70  98 128 181 224 271 336 403
#     4  11  24  44  68  97 132 180 222 276 335 398
#     4  12  27  44  68 101 136 179 223 281 342 407
#     4  11  22  44  68  97 135 179 224 273 342 409
#     4  11  23  42  70  96 135 175 225 272 337 405
#
# _framework density 19.133897000000001
#
# number of rings (size 3 to 8) (size 9 to 14) (size 15 to 20)
#    0.000    0.667    6.667    2.500    2.333    0.667 
#    3.000    0.000    0.000    0.000    0.000    0.000 
#    0.000    0.000    0.000    0.000    0.000    0.000 
#
# Total GULP energy -134158.965966 kJ/mol
# GULP energy per Si atom -5589.956915 kJ/mol
# Density = 1.909035 g / cm^3
# Si number density = 19.133897 Si / 1000 Ang^3
#
#
#
# Elastic Constant Matrix: (Units=GPa)
#
#
# Indices 1 2 3 4 5 6 
#
# 1 94.6260 60.4417 70.3752 0.0002 14.7239 -0.0001
# 2 60.4417 159.8724 73.6596 0.0002 -4.5519 -0.0001
# 3 70.3752 73.6596 109.2906 0.0004 4.5292 -0.0002
# 4 0.0002 0.0002 0.0004 33.0750 -0.0001 -9.4858
# 5 14.7239 -4.5519 4.5292 -0.0001 39.1849 0.0001
# 6 -0.0001 -0.0001 -0.0002 -9.4858 0.0001 27.6987
#
#
#
# Elastic Compliance Matrix: (Units=1/GPa)
#
#
# Indices 1 2 3 4 5 6 
#
# 1 0.022947 -0.003231 -0.012284 0.000000 -0.007578 0.000000
# 2 -0.003231 0.009651 -0.004542 0.000000 0.002860 0.000000
# 3 -0.012284 -0.004542 0.020048 0.000000 0.001771 0.000000
# 4 0.000000 0.000000 0.000000 0.033527 0.000000 0.011482
# 5 -0.007578 0.002860 0.001771 0.000000 0.028495 0.000000
# 6 0.000000 0.000000 0.000000 0.011482 0.000000 0.040035
#
#
# Mechanical properties :
#
#
# Convention : Reuss Voigt Hill
#
# Bulk Modulus (GPa) = 79.80713 85.86022 82.83367
# Shear Modulus (GPa) = 25.12606 30.61255 27.86930
#
# Velocity S-wave (km/s) = 3.62770 4.00423 3.82061
# Velocity P-wave (km/s) = 7.70372 8.14550 7.92769
#
# Compressibility (1/GPa) = 0.01253021
#
# Stress axis : x y z
#
# Youngs Moduli (GPa) = 43.57829 103.61748 49.87962
#
# Poissons Ratio (x) = 0.33482 0.61274
# Poissons Ratio (y) = 0.14081 0.22657
# Poissons Ratio (z) = 0.53534 0.47066
#
# Static dielectric constant tensor:
#      x y z
#    x 1.649560 0.000000 -0.003300 
#    y 0.000000 1.665830 0.000000 
#    z -0.003300 0.000000 1.662470 
# 
# From -- ./inp_files/66434.got.cif
#   From: 2010.05.17/outbox.cif.g08.bks.cpg/sg15_34_cif.got.tgz:66434.got - 2010.06.03 18:47:42.
