data_PCOD9303621
_publ_section_title
;
Structure prediction by ZEFSAII (Michael W. Deem and Ramdas Pophale) SiO2 
 PCOD9303621
Probable space group: C 2/C
;
_chemical_formula_sum "Si O2"
_cell_formula_units_Z 44
_cell_length_a 7.301391
_cell_length_b 18.328967
_cell_length_c 15.037154
_cell_angle_alpha 90.000000
_cell_angle_beta 59.923336
_cell_angle_gamma 90.000000
_cell_volume 1741.421315
_symmetry_space_group_name_H-M "C 2/C"
_symmetry_group_IT_number 15
_symmetry_cell_setting 'monoclinic'
loop_
_space_group_symop_operation_xyz
x,y,z
-x,y,1/2-z
-x,-y,-z
x,-y,1/2+z
1/2+x,1/2+y,z
1/2-x,1/2+y,1/2-z
1/2-x,1/2-y,-z
1/2+x,1/2-y,1/2+z
loop_
_atom_site_type_symbol
_atom_site_label
_atom_site_fract_x
_atom_site_fract_y
_atom_site_fract_z
Si Si1 0.494882 0.470458 0.347774
Si Si2 0.126674 0.672038 0.514206
Si Si3 0.207356 0.666107 0.762533
Si Si4 0.220125 0.513995 0.555983
Si Si5 0.000000 0.437052 0.750000
Si Si6 0.750648 0.173135 0.289738
O O1 0.500000 0.508171 0.250000
O O2 0.622955 0.396257 0.296943
O O3 0.268219 0.471161 0.452681
O O4 0.623561 0.504049 0.399285
O O5 0.250000 0.750000 0.500000
O O6 0.232182 0.600029 0.532647
O O7 0.128782 0.655638 0.409860
O O8 0.896462 0.673294 0.615037
O O9 0.305559 0.743713 0.717365
O O10 0.000000 0.655428 0.750000
O O11 0.011190 0.488089 0.659514
O O12 0.186255 0.379771 0.726588
O O13 0.000000 0.172427 0.250000
#
# Coordination Sequence:
#
# PCOD9303621 Si02
#       6
#     8   8   8   8   4   8
#     4  11  26  44  73 106 151 197 249 316 390 450
#     4  12  23  47  78 105 140 203 258 305 389 459
#     4  11  22  46  72 106 145 196 248 312 376 456
#     4  11  27  46  71 109 153 196 253 320 380 467
#     4  12  30  48  72 118 156 196 260 314 386 458
#     4  11  27  46  77 108 153 202 253 314 380 456
#
# _framework density 25.266717
#
# number of rings (size 3 to 8) (size 9 to 14) (size 15 to 20)
#    0.000    0.727    5.455    1.091   11.455    2.182 
#    0.000    1.818    0.000    0.000    0.000    0.000 
#    0.000    0.000    0.000    0.000    0.000    0.000 
#
# Total GULP energy -122923.029405 kJ/mol
# GULP energy per Si atom -5587.410428 kJ/mol
# Density = 2.520921 g / cm^3
# Si number density = 25.266717 Si / 1000 Ang^3
#
#
#
# Elastic Constant Matrix: (Units=GPa)
#
#
# Indices 1 2 3 4 5 6 
#
# 1 57.2721 33.5733 16.1432 0.0000 13.7457 0.0000
# 2 33.5733 146.5281 60.5719 0.0000 -6.1685 0.0000
# 3 16.1432 60.5719 227.4133 0.0000 1.1394 0.0000
# 4 0.0000 0.0000 0.0000 49.9030 0.0000 -1.4164
# 5 13.7457 -6.1685 1.1394 0.0000 35.5045 0.0000
# 6 0.0000 0.0000 0.0000 -1.4164 0.0000 37.7255
#
#
#
# Elastic Compliance Matrix: (Units=1/GPa)
#
#
# Indices 1 2 3 4 5 6 
#
# 1 0.023225 -0.005709 -0.000078 0.000000 -0.009981 0.000000
# 2 -0.005709 0.009143 -0.002049 0.000000 0.003865 0.000000
# 3 -0.000078 -0.002049 0.004951 0.000000 -0.000485 0.000000
# 4 0.000000 0.000000 0.000000 0.020060 0.000000 0.000753
# 5 -0.009981 0.003865 -0.000485 0.000000 0.032717 0.000000
# 6 0.000000 0.000000 0.000000 0.000753 0.000000 0.026536
#
#
# Mechanical properties :
#
#
# Convention : Reuss Voigt Hill
#
# Bulk Modulus (GPa) = 46.19905 72.42113 59.31009
# Shear Modulus (GPa) = 35.83740 46.02162 40.92951
#
# Velocity S-wave (km/s) = 3.77020 4.27245 4.02916
# Velocity P-wave (km/s) = 6.10547 7.28446 6.72087
#
# Compressibility (1/GPa) = 0.02164547
#
# Stress axis : x y z
#
# Youngs Moduli (GPa) = 43.05730 109.37822 201.97724
#
# Poissons Ratio (x) = 0.62448 0.01574
# Poissons Ratio (y) = 0.24583 0.41390
# Poissons Ratio (z) = 0.00336 0.22414
#
# Static dielectric constant tensor:
#      x y z
#    x 2.529270 0.000000 -0.464110 
#    y 0.000000 1.989200 0.000000 
#    z -0.464110 0.000000 2.517760 
# 
# From -- ./inp_files/134765.got.cif
#   From: 2010.05.17/outbox.cif.g08.bks.cpg/sg15_68_cif.got.tgz:134765.got - 2010.06.03 18:47:42.
