data_PCOD9303014
_publ_section_title
;
Structure prediction by ZEFSAII (Michael W. Deem and Ramdas Pophale) SiO2 
 PCOD9303014
Probable space group: C 2/C
;
_chemical_formula_sum "Si O2"
_cell_formula_units_Z 52
_cell_length_a 11.336677
_cell_length_b 21.521830
_cell_length_c 13.533467
_cell_angle_alpha 90.000000
_cell_angle_beta 140.678378
_cell_angle_gamma 90.000000
_cell_volume 2092.373166
_symmetry_space_group_name_H-M "C 2/C"
_symmetry_group_IT_number 15
_symmetry_cell_setting 'monoclinic'
loop_
_space_group_symop_operation_xyz
x,y,z
-x,y,1/2-z
-x,-y,-z
x,-y,1/2+z
1/2+x,1/2+y,z
1/2-x,1/2+y,1/2-z
1/2-x,1/2-y,-z
1/2+x,1/2-y,1/2+z
loop_
_atom_site_type_symbol
_atom_site_label
_atom_site_fract_x
_atom_site_fract_y
_atom_site_fract_z
Si Si1 0.213010 0.906865 0.739299
Si Si2 0.213582 0.371497 0.358082
Si Si3 0.984086 0.681025 0.123540
Si Si4 0.271888 0.988396 0.590151
Si Si5 0.525044 0.286014 0.882262
Si Si6 0.500000 0.494243 0.750000
Si Si7 0.254372 0.300730 0.198693
O O1 0.416566 0.874736 0.872991
O O2 0.088113 0.845817 0.651087
O O3 0.142218 0.948935 0.782671
O O4 0.202933 0.948654 0.636739
O O5 0.283747 0.439065 0.435707
O O6 0.274088 0.309099 0.455554
O O7 0.274241 0.359059 0.284143
O O8 0.000000 0.376094 0.250000
O O9 0.092565 0.747137 0.186068
O O10 0.000000 0.664895 0.250000
O O11 0.784286 0.688058 0.941748
O O12 0.500000 0.985012 0.750000
O O13 0.146702 0.968418 0.414404
O O14 0.500000 0.286084 0.750000
O O15 0.438319 0.228455 0.882613
#
# Coordination Sequence:
#
# PCOD9303014 Si02
#       7
#     8   8   8   8   8   4   8
#     4  11  24  45  72  99 139 179 229 287 348 414
#     4  11  24  39  66 103 140 174 228 288 344 421
#     4  11  25  46  70  97 139 183 230 285 344 418
#     4  11  26  47  71 105 144 183 237 288 345 423
#     4  11  22  41  67  99 136 178 221 284 351 407
#     4  12  24  46  74 100 144 184 228 294 354 400
#     4  11  24  41  69  99 134 180 227 284 345 414
#
# _framework density 24.852162
#
# number of rings (size 3 to 8) (size 9 to 14) (size 15 to 20)
#    0.000    0.923    3.846    1.846    8.615    1.846 
#    2.769    0.000    5.077    0.000    0.000    0.000 
#    0.000    0.000    0.000    0.000    0.000    0.000 
#
# Total GULP energy -145291.660026 kJ/mol
# GULP energy per Si atom -5588.140770 kJ/mol
# Density = 2.479560 g / cm^3
# Si number density = 24.852162 Si / 1000 Ang^3
#
#
#
# Elastic Constant Matrix: (Units=GPa)
#
#
# Indices 1 2 3 4 5 6 
#
# 1 77.8451 15.0738 23.8822 0.0000 -14.4651 0.0000
# 2 15.0738 58.4140 22.1555 0.0000 -8.3065 0.0000
# 3 23.8822 22.1555 152.4644 0.0000 -20.1484 0.0000
# 4 0.0000 0.0000 0.0000 54.3586 0.0000 10.4071
# 5 -14.4651 -8.3065 -20.1484 0.0000 38.6417 0.0000
# 6 0.0000 0.0000 0.0000 10.4071 0.0000 26.9639
#
#
#
# Elastic Compliance Matrix: (Units=1/GPa)
#
#
# Indices 1 2 3 4 5 6 
#
# 1 0.014547 -0.002651 -0.001342 0.000000 0.004176 0.000000
# 2 -0.002651 0.018869 -0.002064 0.000000 0.001987 0.000000
# 3 -0.001342 -0.002064 0.007458 0.000000 0.002943 0.000000
# 4 0.000000 0.000000 0.000000 0.019864 0.000000 -0.007667
# 5 0.004176 0.001987 0.002943 0.000000 0.029404 0.000000
# 6 0.000000 0.000000 0.000000 -0.007667 0.000000 0.040046
#
#
# Mechanical properties :
#
#
# Convention : Reuss Voigt Hill
#
# Bulk Modulus (GPa) = 34.77029 45.66071 40.21550
# Shear Modulus (GPa) = 32.91910 39.16696 36.04303
#
# Velocity S-wave (km/s) = 3.64345 3.97419 3.81241
# Velocity P-wave (km/s) = 5.63213 6.28265 5.96626
#
# Compressibility (1/GPa) = 0.02876019
#
# Stress axis : x y z
#
# Youngs Moduli (GPa) = 68.74282 52.99756 134.08653
#
# Poissons Ratio (x) = 0.14051 0.17988
# Poissons Ratio (y) = 0.18225 0.27676
# Poissons Ratio (z) = 0.09222 0.10939
#
# Static dielectric constant tensor:
#      x y z
#    x 2.130770 0.000000 0.053670 
#    y 0.000000 1.912530 0.000000 
#    z 0.053670 0.000000 2.214160 
# 
# From -- ./inp_files/91319.got.cif
#   From: 2010.05.17/outbox.cif.g08.bks.cpg/sg15_46_cif.got.tgz:91319.got - 2010.06.03 18:47:42.
