data_PCOD9303813
_publ_section_title
;
Structure prediction by ZEFSAII (Michael W. Deem and Ramdas Pophale) SiO2 
 PCOD9303813
Probable space group: C 2/C
;
_chemical_formula_sum "Si O2"
_cell_formula_units_Z 48
_cell_length_a 5.196069
_cell_length_b 31.362450
_cell_length_c 14.787554
_cell_angle_alpha 90.000000
_cell_angle_beta 111.358309
_cell_angle_gamma 90.000000
_cell_volume 2244.298729
_symmetry_space_group_name_H-M "C 2/C"
_symmetry_group_IT_number 15
_symmetry_cell_setting 'monoclinic'
loop_
_space_group_symop_operation_xyz
x,y,z
-x,y,1/2-z
-x,-y,-z
x,-y,1/2+z
1/2+x,1/2+y,z
1/2-x,1/2+y,1/2-z
1/2-x,1/2-y,-z
1/2+x,1/2-y,1/2+z
loop_
_atom_site_type_symbol
_atom_site_label
_atom_site_fract_x
_atom_site_fract_y
_atom_site_fract_z
Si Si1 0.181188 0.669638 0.684251
Si Si2 0.002913 0.388637 0.504685
Si Si3 0.933075 0.073934 0.339780
Si Si4 0.806297 0.338436 0.653957
Si Si5 0.564312 0.255137 0.565004
Si Si6 0.725766 0.027945 0.474250
O O1 0.500000 0.659576 0.750000
O O2 0.042413 0.638966 0.590623
O O3 0.159715 0.718163 0.645208
O O4 0.000000 0.665605 0.750000
O O5 0.943495 0.357035 0.580939
O O6 0.776149 0.426713 0.474595
O O7 0.290926 0.413610 0.565763
O O8 0.802694 0.120218 0.308153
O O9 0.715186 0.045799 0.369307
O O10 0.000000 0.055029 0.250000
O O11 0.584714 0.303654 0.600450
O O12 0.000000 0.315133 0.750000
O O13 0.750000 0.250000 0.500000
O O14 0.250000 0.250000 0.500000
O O15 0.500000 0.000000 0.500000
O O16 0.000000 0.000000 0.500000
#
# Coordination Sequence:
#
# PCOD9303813 Si02
#       6
#     8   8   8   8   8   8
#     4  12  28  47  71 101 144 198 249 291 350 428
#     4  11  24  46  75 100 148 187 235 306 356 435
#     4  11  23  42  75 112 148 185 239 304 376 429
#     4  11  23  39  70 107 143 185 238 296 374 428
#     4  12  25  45  71  99 144 192 241 302 360 415
#     4  11  24  45  73 104 145 189 233 292 371 439
#
# _framework density 21.387526000000001
#
# number of rings (size 3 to 8) (size 9 to 14) (size 15 to 20)
#    0.000    0.667    5.000    2.500    4.667    0.667 
#    0.000    2.500    0.000    0.000    0.000    0.000 
#    0.000    0.000    0.000    0.000    0.000    0.000 
#
# Total GULP energy -133900.928094 kJ/mol
# GULP energy per Si atom -5579.205337 kJ/mol
# Density = 2.133885 g / cm^3
# Si number density = 21.387526 Si / 1000 Ang^3
#
#
#
# Elastic Constant Matrix: (Units=GPa)
#
#
# Indices 1 2 3 4 5 6 
#
# 1 158.9358 41.5655 66.4588 0.0000 -14.6050 0.0000
# 2 41.5655 108.0905 43.6795 0.0000 -14.3818 0.0000
# 3 66.4588 43.6795 116.3304 0.0000 -19.3341 0.0000
# 4 0.0000 0.0000 0.0000 15.6132 0.0000 -0.8943
# 5 -14.6050 -14.3818 -19.3341 0.0000 55.1087 0.0000
# 6 0.0000 0.0000 0.0000 -0.8943 0.0000 27.7764
#
#
#
# Elastic Compliance Matrix: (Units=1/GPa)
#
#
# Indices 1 2 3 4 5 6 
#
# 1 0.008485 -0.001508 -0.004219 0.000000 0.000375 0.000000
# 2 -0.001508 0.011292 -0.003138 0.000000 0.001446 0.000000
# 3 -0.004219 -0.003138 0.012597 0.000000 0.002483 0.000000
# 4 0.000000 0.000000 0.000000 0.064167 0.000000 0.002066
# 5 0.000375 0.001446 0.002483 0.000000 0.019494 0.000000
# 6 0.000000 0.000000 0.000000 0.002066 0.000000 0.036068
#
#
# Mechanical properties :
#
#
# Convention : Reuss Voigt Hill
#
# Bulk Modulus (GPa) = 68.28559 76.30713 72.29636
# Shear Modulus (GPa) = 28.61825 35.14318 31.88071
#
# Velocity S-wave (km/s) = 3.66195 4.05799 3.86505
# Velocity P-wave (km/s) = 7.06236 7.59685 7.33448
#
# Compressibility (1/GPa) = 0.01464438
#
# Stress axis : x y z
#
# Youngs Moduli (GPa) = 117.85845 88.55899 79.38307
#
# Poissons Ratio (x) = 0.13355 0.33489
# Poissons Ratio (y) = 0.17774 0.24910
# Poissons Ratio (z) = 0.49721 0.27789
#
# Static dielectric constant tensor:
#      x y z
#    x 1.569090 0.000000 0.176740 
#    y 0.000000 1.787600 0.000000 
#    z 0.176740 0.000000 1.794500 
# 
# From -- ./inp_files/130918.got.cif
#   From: 2010.05.17/outbox.cif.g08.bks.cpg/sg15_66_cif.got.tgz:130918.got - 2010.06.03 18:47:42.
