data_PCOD9303006
_publ_section_title
;
Structure prediction by ZEFSAII (Michael W. Deem and Ramdas Pophale) SiO2 
 PCOD9303006
Probable space group: C 2/C
;
_chemical_formula_sum "Si O2"
_cell_formula_units_Z 40
_cell_length_a 15.397914
_cell_length_b 7.261104
_cell_length_c 17.500059
_cell_angle_alpha 90.000000
_cell_angle_beta 111.441869
_cell_angle_gamma 90.000000
_cell_volume 1821.190057
_symmetry_space_group_name_H-M "C 2/C"
_symmetry_group_IT_number 15
_symmetry_cell_setting 'monoclinic'
loop_
_space_group_symop_operation_xyz
x,y,z
-x,y,1/2-z
-x,-y,-z
x,-y,1/2+z
1/2+x,1/2+y,z
1/2-x,1/2+y,1/2-z
1/2-x,1/2-y,-z
1/2+x,1/2-y,1/2+z
loop_
_atom_site_type_symbol
_atom_site_label
_atom_site_fract_x
_atom_site_fract_y
_atom_site_fract_z
Si Si1 0.976544 0.218477 0.327733
Si Si2 0.217295 0.582108 0.352271
Si Si3 0.148752 0.658306 0.962054
Si Si4 0.333817 0.921681 0.390190
Si Si5 0.168827 0.907426 0.237237
O O1 0.906527 0.355583 0.349506
O O2 0.000000 0.284086 0.250000
O O3 0.068852 0.204404 0.408491
O O4 0.923810 0.024571 0.300816
O O5 0.156370 0.494765 0.398187
O O6 0.292680 0.728447 0.410104
O O7 0.161544 0.706573 0.272266
O O8 0.275558 0.428870 0.324370
O O9 0.250000 0.750000 0.000000
O O10 0.126763 0.557172 0.034284
O O11 0.240337 0.002528 0.320707
#
# Coordination Sequence:
#
# PCOD9303006 Si02
#       5
#     8   8   8   8   8
#     4  11  22  41  67  96 131 174 225 273 328 401
#     4   9  21  39  72  91 128 177 222 269 329 395
#     4  12  24  39  70 101 139 174 212 279 344 396
#     4   9  21  41  66  93 133 171 226 270 330 396
#     4   9  20  41  69  89 127 174 233 268 322 396
#
# _framework density 21.963661999999999
#
# number of rings (size 3 to 8) (size 9 to 14) (size 15 to 20)
#    1.200    0.800    0.000    3.600    2.800    0.000 
#    0.000    7.000    0.000    0.000    0.000    0.000 
#    0.000    0.000    0.000    0.000    0.000    0.000 
#
# Total GULP energy -111560.010332 kJ/mol
# GULP energy per Si atom -5578.000517 kJ/mol
# Density = 2.191367 g / cm^3
# Si number density = 21.963662 Si / 1000 Ang^3
#
#
#
# Elastic Constant Matrix: (Units=GPa)
#
#
# Indices 1 2 3 4 5 6 
#
# 1 68.1216 25.5982 0.4058 0.0000 9.4930 0.0000
# 2 25.5982 85.4108 24.4172 0.0000 5.3820 0.0000
# 3 0.4058 24.4172 27.1198 0.0000 19.8753 0.0000
# 4 0.0000 0.0000 0.0000 34.5713 0.0000 -1.0408
# 5 9.4930 5.3820 19.8753 0.0000 46.7889 0.0000
# 6 0.0000 0.0000 0.0000 -1.0408 0.0000 12.4338
#
#
#
# Elastic Compliance Matrix: (Units=1/GPa)
#
#
# Indices 1 2 3 4 5 6 
#
# 1 0.019483 -0.009582 0.015137 0.000000 -0.009281 0.000000
# 2 -0.009582 0.021787 -0.027676 0.000000 0.011195 0.000000
# 3 0.015137 -0.027676 0.089276 0.000000 -0.037811 0.000000
# 4 0.000000 0.000000 0.000000 0.028999 0.000000 0.002427
# 5 -0.009281 0.011195 -0.037811 0.000000 0.038029 0.000000
# 6 0.000000 0.000000 0.000000 0.002427 0.000000 0.080629
#
#
# Mechanical properties :
#
#
# Convention : Reuss Voigt Hill
#
# Bulk Modulus (GPa) = 11.58699 31.27718 21.43208
# Shear Modulus (GPa) = 14.23639 27.44088 20.83863
#
# Velocity S-wave (km/s) = 2.54870 3.53849 3.08357
# Velocity P-wave (km/s) = 3.73472 5.56470 4.73888
#
# Compressibility (1/GPa) = 0.08630370
#
# Stress axis : x y z
#
# Youngs Moduli (GPa) = 51.32571 45.89986 11.20128
#
# Poissons Ratio (x) = 0.43981 -0.16956
# Poissons Ratio (y) = 0.49180 0.31001
# Poissons Ratio (z) = -0.77693 1.27034
#
# Static dielectric constant tensor:
#      x y z
#    x 1.802000 0.000000 0.012350 
#    y 0.000000 1.831490 0.000000 
#    z 0.012350 0.000000 1.826040 
# 
# From -- ./inp_files/202843.got.cif
#   From: 2010.05.17/outbox.cif.g08.bks.cpg/sg15_102_cif.got.tgz:202843.got - 2010.06.03 18:47:42.
