data_PCOD9303848
_publ_section_title
;
Structure prediction by ZEFSAII (Michael W. Deem and Ramdas Pophale) SiO2 
 PCOD9303848
Probable space group: C 2/C
;
_chemical_formula_sum "Si O2"
_cell_formula_units_Z 64
_cell_length_a 17.447934
_cell_length_b 22.032189
_cell_length_c 14.423227
_cell_angle_alpha 90.000000
_cell_angle_beta 145.786868
_cell_angle_gamma 90.000000
_cell_volume 3117.534514
_symmetry_space_group_name_H-M "C 2/C"
_symmetry_group_IT_number 15
_symmetry_cell_setting 'monoclinic'
loop_
_space_group_symop_operation_xyz
x,y,z
-x,y,1/2-z
-x,-y,-z
x,-y,1/2+z
1/2+x,1/2+y,z
1/2-x,1/2+y,1/2-z
1/2-x,1/2-y,-z
1/2+x,1/2-y,1/2+z
loop_
_atom_site_type_symbol
_atom_site_label
_atom_site_fract_x
_atom_site_fract_y
_atom_site_fract_z
Si Si1 0.999666 0.088154 0.640172
Si Si2 0.251141 0.749784 0.820515
Si Si3 0.500089 0.140532 0.360767
Si Si4 0.730023 0.065361 0.261395
Si Si5 0.730447 0.934621 0.198859
Si Si6 0.340151 0.872806 0.194327
Si Si7 0.659734 0.127343 0.013872
Si Si8 0.998916 0.777297 0.061258
O O1 0.867015 0.060889 0.457502
O O2 0.999243 0.161394 0.621771
O O3 0.000000 0.076863 0.750000
O O4 0.132344 0.061077 0.722726
O O5 0.182368 0.698492 0.814061
O O6 0.318401 0.801295 0.950479
O O7 0.134992 0.776123 0.636791
O O8 0.368646 0.723330 0.871782
O O9 0.500000 0.132014 0.250000
O O10 0.372308 0.107164 0.281380
O O11 0.628429 0.107452 0.537385
O O12 0.499843 0.212532 0.383672
O O13 0.751048 0.097509 0.183766
O O14 0.674301 0.000032 0.173792
O O15 0.750960 0.902882 0.318389
O O16 0.499991 0.886608 0.372683
O O17 0.308216 0.891793 0.058180
#
# Coordination Sequence:
#
# PCOD9303848 Si02
#       8
#     8   8   8   8   8   8   8   8
#     4  12  26  45  69  98 137 180 218 272 336 398
#     4  12  19  40  63  92 132 172 207 276 329 390
#     4  12  24  43  71 102 131 170 224 280 338 398
#     4  12  25  46  66  96 134 178 222 275 326 389
#     4  12  25  46  66  96 134 178 222 275 326 389
#     4  11  23  40  65  96 128 170 220 275 336 389
#     4  11  23  40  65  96 128 170 220 275 336 389
#     4  12  21  40  71  94 136 170 215 270 349 390
#
# _framework density 20.529042
#
# number of rings (size 3 to 8) (size 9 to 14) (size 15 to 20)
#    0.000    0.250    7.500    2.250    0.000    2.000 
#    0.000    5.625    0.000    0.000    0.000    0.000 
#    0.000    0.000    0.000    0.000    0.000    0.000 
#
# Total GULP energy -178859.628888 kJ/mol
# GULP energy per Si atom -5589.363403 kJ/mol
# Density = 2.048232 g / cm^3
# Si number density = 20.529042 Si / 1000 Ang^3
#
#
#
# Elastic Constant Matrix: (Units=GPa)
#
#
# Indices 1 2 3 4 5 6 
#
# 1 119.7995 6.7152 68.4052 0.0000 -32.7277 0.0000
# 2 6.7152 83.0588 -9.7289 0.0000 -16.0161 0.0000
# 3 68.4052 -9.7289 66.8934 0.0000 -2.1757 0.0000
# 4 0.0000 0.0000 0.0000 2.4056 0.0000 -0.1620
# 5 -32.7277 -16.0161 -2.1757 0.0000 35.3626 0.0000
# 6 0.0000 0.0000 0.0000 -0.1620 0.0000 2.5648
#
#
#
# Elastic Compliance Matrix: (Units=1/GPa)
#
#
# Indices 1 2 3 4 5 6 
#
# 1 0.042740 -0.001470 -0.042741 0.000000 0.036260 0.000000
# 2 -0.001470 0.013548 0.003636 0.000000 0.005000 0.000000
# 3 -0.042741 0.003636 0.058068 0.000000 -0.034336 0.000000
# 4 0.000000 0.000000 0.000000 0.417474 0.000000 0.026373
# 5 0.036260 0.005000 -0.034336 0.000000 0.061989 0.000000
# 6 0.000000 0.000000 0.000000 0.026373 0.000000 0.391561
#
#
# Mechanical properties :
#
#
# Convention : Reuss Voigt Hill
#
# Bulk Modulus (GPa) = 30.11331 44.50385 37.30858
# Shear Modulus (GPa) = 4.63995 21.69062 13.16529
#
# Velocity S-wave (km/s) = 1.50502 3.25404 2.53514
# Velocity P-wave (km/s) = 4.20959 5.98698 5.17516
#
# Compressibility (1/GPa) = 0.03320790
#
# Stress axis : x y z
#
# Youngs Moduli (GPa) = 23.39717 73.80900 17.22131
#
# Poissons Ratio (x) = 0.10848 0.73605
# Poissons Ratio (y) = 0.03439 -0.06262
# Poissons Ratio (z) = 1.00001 -0.26837
#
# Static dielectric constant tensor:
#      x y z
#    x 1.709020 0.000000 0.022130 
#    y 0.000000 1.801830 0.000000 
#    z 0.022130 0.000000 1.731760 
# 
# From -- ./inp_files/164259.got.cif
#   From: 2010.05.17/outbox.cif.g08.bks.cpg/sg15_83_cif.got.tgz:164259.got - 2010.06.03 18:47:42.
