data_PCOD9303126
_publ_section_title
;
Structure prediction by ZEFSAII (Michael W. Deem and Ramdas Pophale) SiO2 
 PCOD9303126
Probable space group: C 2/C
;
_chemical_formula_sum "Si O2"
_cell_formula_units_Z 48
_cell_length_a 25.092506
_cell_length_b 10.192179
_cell_length_c 13.887162
_cell_angle_alpha 90.000000
_cell_angle_beta 41.906255
_cell_angle_gamma 90.000000
_cell_volume 2372.165595
_symmetry_space_group_name_H-M "C 2/C"
_symmetry_group_IT_number 15
_symmetry_cell_setting 'monoclinic'
loop_
_space_group_symop_operation_xyz
x,y,z
-x,y,1/2-z
-x,-y,-z
x,-y,1/2+z
1/2+x,1/2+y,z
1/2-x,1/2+y,1/2-z
1/2-x,1/2-y,-z
1/2+x,1/2-y,1/2+z
loop_
_atom_site_type_symbol
_atom_site_label
_atom_site_fract_x
_atom_site_fract_y
_atom_site_fract_z
Si Si1 0.316917 0.925308 0.988983
Si Si2 0.768567 0.811378 0.872674
Si Si3 0.415509 0.435436 0.585515
Si Si4 0.561410 0.850696 0.520901
Si Si5 0.386330 0.071587 0.192419
Si Si6 0.808983 0.184321 0.702331
O O1 0.398215 0.885761 0.932557
O O2 0.324802 0.930907 0.863779
O O3 0.247419 0.836300 0.128505
O O4 0.292223 0.068661 0.057015
O O5 0.857526 0.872928 0.745804
O O6 0.746748 0.717265 0.813201
O O7 0.750000 0.750000 0.000000
O O8 0.500000 0.500000 0.500000
O O9 0.432123 0.306011 0.500416
O O10 0.361137 0.552979 0.615864
O O11 0.471123 0.896300 0.627049
O O12 0.606179 0.937240 0.377785
O O13 0.364633 0.191975 0.151703
#
# Coordination Sequence:
#
# PCOD9303126 Si02
#       6
#     8   8   8   8   8   8
#     4  11  23  39  68  96 128 172 228 277 337 404
#     4  11  24  44  69  98 136 181 231 277 344 415
#     4  11  23  44  69  97 141 177 223 286 350 400
#     4  11  22  42  66  94 137 173 216 285 335 417
#     4  11  23  41  67  94 131 177 224 271 344 408
#     4  11  23  43  68  95 131 177 225 283 338 405
#
# _framework density 20.234676
#
# number of rings (size 3 to 8) (size 9 to 14) (size 15 to 20)
#    0.000    1.000    5.000    2.000    0.000    0.000 
#    6.000    0.833    0.000    0.000    0.000    0.000 
#    0.000    0.000    0.000    0.000    0.000    0.000 
#
# Total GULP energy -133929.580015 kJ/mol
# GULP energy per Si atom -5580.399167 kJ/mol
# Density = 2.018862 g / cm^3
# Si number density = 20.234676 Si / 1000 Ang^3
#
#
#
# Elastic Constant Matrix: (Units=GPa)
#
#
# Indices 1 2 3 4 5 6 
#
# 1 66.6497 46.0722 27.3614 0.0000 -11.4367 0.0000
# 2 46.0722 126.1278 46.2735 0.0000 -10.5331 0.0000
# 3 27.3614 46.2735 77.2598 0.0000 6.1457 0.0000
# 4 0.0000 0.0000 0.0000 34.2820 0.0000 -6.5844
# 5 -11.4367 -10.5331 6.1457 0.0000 32.9371 0.0000
# 6 0.0000 0.0000 0.0000 -6.5844 0.0000 20.5386
#
#
#
# Elastic Compliance Matrix: (Units=1/GPa)
#
#
# Indices 1 2 3 4 5 6 
#
# 1 0.022151 -0.005700 -0.004972 0.000000 0.006796 0.000000
# 2 -0.005700 0.012314 -0.005596 0.000000 0.003003 0.000000
# 3 -0.004972 -0.005596 0.018611 0.000000 -0.006988 0.000000
# 4 0.000000 0.000000 0.000000 0.031084 0.000000 0.009965
# 5 0.006796 0.003003 -0.006988 0.000000 0.034985 0.000000
# 6 0.000000 0.000000 0.000000 0.009965 0.000000 0.051884
#
#
# Mechanical properties :
#
#
# Convention : Reuss Voigt Hill
#
# Bulk Modulus (GPa) = 48.67964 56.60572 52.64268
# Shear Modulus (GPa) = 23.76305 27.57355 25.66830
#
# Velocity S-wave (km/s) = 3.43063 3.69547 3.56551
# Velocity P-wave (km/s) = 6.30889 6.80029 6.55919
#
# Compressibility (1/GPa) = 0.02054247
#
# Stress axis : x y z
#
# Youngs Moduli (GPa) = 45.14456 81.20683 53.73068
#
# Poissons Ratio (x) = 0.46287 0.26712
# Poissons Ratio (y) = 0.25732 0.30066
# Poissons Ratio (z) = 0.22444 0.45441
#
# Static dielectric constant tensor:
#      x y z
#    x 1.675660 0.000000 -0.021680 
#    y 0.000000 1.736370 0.000000 
#    z -0.021680 0.000000 1.753190 
# 
# From -- ./inp_files/166379.got.cif
#   From: 2010.05.17/outbox.cif.g08.bks.cpg/sg15_84_cif.got.tgz:166379.got - 2010.06.03 18:47:42.
