data_PCOD9303447
_publ_section_title
;
Structure prediction by ZEFSAII (Michael W. Deem and Ramdas Pophale) SiO2 
 PCOD9303447
Probable space group: C 2/C
;
_chemical_formula_sum "Si O2"
_cell_formula_units_Z 60
_cell_length_a 26.970274
_cell_length_b 5.857428
_cell_length_c 17.548039
_cell_angle_alpha 90.000000
_cell_angle_beta 70.906851
_cell_angle_gamma 90.000000
_cell_volume 2619.673800
_symmetry_space_group_name_H-M "C 2/C"
_symmetry_group_IT_number 15
_symmetry_cell_setting 'monoclinic'
loop_
_space_group_symop_operation_xyz
x,y,z
-x,y,1/2-z
-x,-y,-z
x,-y,1/2+z
1/2+x,1/2+y,z
1/2-x,1/2+y,1/2-z
1/2-x,1/2-y,-z
1/2+x,1/2-y,1/2+z
loop_
_atom_site_type_symbol
_atom_site_label
_atom_site_fract_x
_atom_site_fract_y
_atom_site_fract_z
Si Si1 0.393275 0.633527 0.811757
Si Si2 0.641979 0.716977 0.502623
Si Si3 0.804212 0.834789 0.772152
Si Si4 0.356773 0.013914 0.135284
Si Si5 0.290796 0.595127 0.630937
Si Si6 0.979856 0.243148 0.976397
Si Si7 0.044243 0.541817 0.327470
Si Si8 0.500000 0.654736 0.250000
O O1 0.365673 0.717053 0.903418
O O2 0.348848 0.491265 0.788014
O O3 0.418003 0.848623 0.754985
O O4 0.445412 0.475869 0.794329
O O5 0.659086 0.929490 0.441049
O O6 0.684814 0.531446 0.453617
O O7 0.582054 0.694629 0.502782
O O8 0.830749 0.620076 0.717660
O O9 0.759213 0.757636 0.853580
O O10 0.776020 0.940386 0.711336
O O11 0.340616 0.273582 0.141187
O O12 0.416770 0.979354 0.124370
O O13 0.004782 0.269176 0.879222
O O14 0.000000 0.500000 0.000000
O O15 0.000000 0.000000 0.000000
O O16 0.013383 0.324810 0.312956
#
# Coordination Sequence:
#
# PCOD9303447 Si02
#       8
#     8   8   8   8   8   8   8   4
#     4  12  27  46  69 106 151 192 251 307 397 463
#     4  11  27  43  66 106 155 191 237 322 384 453
#     4  11  23  43  76 103 133 188 246 312 370 463
#     4  11  22  44  71 100 135 189 249 304 369 447
#     4  11  23  44  76 103 136 183 256 311 378 452
#     4  12  27  44  75 112 152 202 263 318 376 453
#     4  12  25  45  71 103 145 203 251 306 375 462
#     4  12  26  44  72 102 150 196 246 302 376 466
#
# _framework density 22.903614999999999
#
# number of rings (size 3 to 8) (size 9 to 14) (size 15 to 20)
#    0.000    0.533    5.333    2.800    5.600    1.600 
#    0.000    0.667    0.000    0.000    0.000    0.000 
#    0.000    0.000    0.000    0.000    0.000    0.000 
#
# Total GULP energy -167103.854806 kJ/mol
# GULP energy per Si atom -5570.128494 kJ/mol
# Density = 2.285149 g / cm^3
# Si number density = 22.903615 Si / 1000 Ang^3
#
#
#
# Elastic Constant Matrix: (Units=GPa)
#
#
# Indices 1 2 3 4 5 6 
#
# 1 90.0534 20.1462 30.0997 0.0000 -33.2643 0.0000
# 2 20.1462 77.3780 35.7839 0.0000 -16.4592 0.0000
# 3 30.0997 35.7839 159.9411 0.0000 -18.7580 0.0000
# 4 0.0000 0.0000 0.0000 -13.3801 0.0000 -2.9976
# 5 -33.2643 -16.4592 -18.7580 0.0000 48.0934 0.0000
# 6 0.0000 0.0000 0.0000 -2.9976 0.0000 42.0313
#
#
#
# Elastic Compliance Matrix: (Units=1/GPa)
#
#
# Indices 1 2 3 4 5 6 
#
# 1 0.015463 -0.001279 -0.001489 0.000000 0.009676 0.000000
# 2 -0.001279 0.015235 -0.002788 0.000000 0.003242 0.000000
# 3 -0.001489 -0.002788 0.007255 0.000000 0.000846 0.000000
# 4 0.000000 0.000000 0.000000 -0.073563 0.000000 -0.005246
# 5 0.009676 0.003242 0.000846 0.000000 0.028925 0.000000
# 6 0.000000 0.000000 0.000000 -0.005246 0.000000 0.023418
#
#
# Mechanical properties :
#
#
# Convention : Reuss Voigt Hill
#
# Bulk Modulus (GPa) = 37.25481 55.49246 46.37364
# Shear Modulus (GPa) = 135.89759 31.43845 83.66802
#
# Velocity S-wave (km/s) = 7.71125 3.70894 6.05060
# Velocity P-wave (km/s) = 9.77679 6.52862 8.31290
#
# Compressibility (1/GPa) = 0.02684217
#
# Stress axis : x y z
#
# Youngs Moduli (GPa) = 64.67205 65.63658 137.82797
#
# Poissons Ratio (x) = 0.08395 0.20522
# Poissons Ratio (y) = 0.08272 0.38422
# Poissons Ratio (z) = 0.09629 0.18298
#
# Static dielectric constant tensor:
#      x y z
#    x 1.539610 0.000000 0.037040 
#    y 0.000000 1.871990 0.000000 
#    z 0.037040 0.000000 1.939660 
# 
# From -- ./inp_files/223869.got.cif
#   From: 2010.05.17/outbox.cif.g08.bks.cpg/sg15_112_cif.got.tgz:223869.got - 2010.06.03 18:47:42.
