data_PCOD9303309
_publ_section_title
;
Structure prediction by ZEFSAII (Michael W. Deem and Ramdas Pophale) SiO2 
 PCOD9303309
Probable space group: C 2/C
;
_chemical_formula_sum "Si O2"
_cell_formula_units_Z 44
_cell_length_a 13.221181
_cell_length_b 16.059063
_cell_length_c 14.705347
_cell_angle_alpha 90.000000
_cell_angle_beta 138.485467
_cell_angle_gamma 90.000000
_cell_volume 2069.449252
_symmetry_space_group_name_H-M "C 2/C"
_symmetry_group_IT_number 15
_symmetry_cell_setting 'monoclinic'
loop_
_space_group_symop_operation_xyz
x,y,z
-x,y,1/2-z
-x,-y,-z
x,-y,1/2+z
1/2+x,1/2+y,z
1/2-x,1/2+y,1/2-z
1/2-x,1/2-y,-z
1/2+x,1/2-y,1/2+z
loop_
_atom_site_type_symbol
_atom_site_label
_atom_site_fract_x
_atom_site_fract_y
_atom_site_fract_z
Si Si1 0.885014 0.027441 0.034585
Si Si2 0.809070 0.907710 0.822731
Si Si3 0.997407 0.388577 0.517909
Si Si4 0.265409 0.239930 0.903212
Si Si5 0.000000 0.114200 0.750000
Si Si6 0.425305 0.969111 0.102304
O O1 0.940012 0.948057 0.131257
O O2 0.822666 0.987652 0.898330
O O3 0.024886 0.089695 0.111766
O O4 0.741367 0.066459 0.989135
O O5 0.673231 0.908845 0.658521
O O6 0.761829 0.828237 0.851284
O O7 0.976000 0.411911 0.398362
O O8 0.929259 0.298981 0.489729
O O9 0.910516 0.447037 0.532427
O O10 0.129090 0.174102 0.792105
O O11 0.250000 0.250000 0.000000
O O12 0.500000 0.986626 0.250000
#
# Coordination Sequence:
#
# PCOD9303309 Si02
#       6
#     8   8   8   8   4   8
#     4  11  23  40  66  95 133 178 220 275 328 401
#     4  11  24  41  64  97 136 174 221 275 337 402
#     4  11  24  41  68 101 131 177 222 272 345 399
#     4  12  24  42  65 101 137 174 216 288 345 395
#     4  12  22  38  68  98 132 174 224 274 344 390
#     4  11  22  43  69  97 135 173 223 278 332 403
#
# _framework density 21.261695
#
# number of rings (size 3 to 8) (size 9 to 14) (size 15 to 20)
#    0.000    0.727    5.455    2.182    2.545    0.000 
#    0.000    0.909    2.000    0.000    0.000    0.000 
#    0.000    0.000    0.000    0.000    0.000    0.000 
#
# Total GULP energy -122813.327280 kJ/mol
# GULP energy per Si atom -5582.423967 kJ/mol
# Density = 2.121330 g / cm^3
# Si number density = 21.261695 Si / 1000 Ang^3
#
#
#
# Elastic Constant Matrix: (Units=GPa)
#
#
# Indices 1 2 3 4 5 6 
#
# 1 122.3823 14.6107 35.8193 -0.0001 1.5139 0.0000
# 2 14.6107 42.4185 5.7246 -0.0001 -1.1842 0.0000
# 3 35.8193 5.7246 58.1232 -0.0002 1.4415 -0.0001
# 4 -0.0001 -0.0001 -0.0002 12.0135 -0.0001 7.6635
# 5 1.5139 -1.1842 1.4415 -0.0001 40.3912 -0.0001
# 6 0.0000 0.0000 -0.0001 7.6635 -0.0001 44.9161
#
#
#
# Elastic Compliance Matrix: (Units=1/GPa)
#
#
# Indices 1 2 3 4 5 6 
#
# 1 0.010272 -0.002728 -0.006056 0.000000 -0.000249 0.000000
# 2 -0.002728 0.024642 -0.000767 0.000000 0.000852 0.000000
# 3 -0.006056 -0.000767 0.021026 0.000000 -0.000546 0.000000
# 4 0.000000 0.000000 0.000000 0.093406 0.000000 -0.015937
# 5 -0.000249 0.000852 -0.000546 0.000000 0.024812 0.000000
# 6 0.000000 0.000000 0.000000 -0.015937 0.000000 0.024983
#
#
# Mechanical properties :
#
#
# Convention : Reuss Voigt Hill
#
# Bulk Modulus (GPa) = 27.14544 37.24815 32.19680
# Shear Modulus (GPa) = 21.69006 30.58211 26.13609
#
# Velocity S-wave (km/s) = 3.19744 3.79669 3.50988
# Velocity P-wave (km/s) = 5.14067 6.06439 5.62153
#
# Compressibility (1/GPa) = 0.03683860
#
# Stress axis : x y z
#
# Youngs Moduli (GPa) = 97.34972 40.58189 47.56065
#
# Poissons Ratio (x) = 0.11070 0.28801
# Poissons Ratio (y) = 0.26556 0.03648
# Poissons Ratio (z) = 0.58951 0.03113
#
# Static dielectric constant tensor:
#      x y z
#    x 1.803420 0.000000 0.017160 
#    y 0.000000 1.767350 0.000000 
#    z 0.017160 0.000000 1.844440 
# 
# From -- ./inp_files/154977.got.cif
#   From: 2010.05.17/outbox.cif.g08.bks.cpg/sg15_78_cif.got.tgz:154977.got - 2010.06.03 18:47:42.
