data_PCOD9303057
_publ_section_title
;
Structure prediction by ZEFSAII (Michael W. Deem and Ramdas Pophale) SiO2 
 PCOD9303057
Probable space group: C 2/C
;
_chemical_formula_sum "Si O2"
_cell_formula_units_Z 56
_cell_length_a 11.948635
_cell_length_b 14.836954
_cell_length_c 14.364677
_cell_angle_alpha 90.000000
_cell_angle_beta 99.483187
_cell_angle_gamma 90.000000
_cell_volume 2511.787588
_symmetry_space_group_name_H-M "C 2/C"
_symmetry_group_IT_number 15
_symmetry_cell_setting 'monoclinic'
loop_
_space_group_symop_operation_xyz
x,y,z
-x,y,1/2-z
-x,-y,-z
x,-y,1/2+z
1/2+x,1/2+y,z
1/2-x,1/2+y,1/2-z
1/2-x,1/2-y,-z
1/2+x,1/2-y,1/2+z
loop_
_atom_site_type_symbol
_atom_site_label
_atom_site_fract_x
_atom_site_fract_y
_atom_site_fract_z
Si Si1 0.450320 0.065673 0.914980
Si Si2 0.856815 0.705240 0.235289
Si Si3 0.625642 0.361395 0.747401
Si Si4 0.500000 0.635706 0.750000
Si Si5 0.402942 0.432266 0.956707
Si Si6 0.385994 0.763267 0.522265
Si Si7 0.500000 0.032855 0.250000
Si Si8 0.304696 0.480638 0.120957
O O1 0.440931 0.162579 0.962848
O O2 0.319698 0.048838 0.864528
O O3 0.525446 0.035253 0.837422
O O4 0.500000 0.000000 0.000000
O O5 0.723050 0.708011 0.232903
O O6 0.914393 0.793198 0.288576
O O7 0.903301 0.605904 0.267610
O O8 0.892645 0.711358 0.131703
O O9 0.500000 0.325762 0.750000
O O10 0.618840 0.427504 0.656056
O O11 0.666725 0.419092 0.841488
O O12 0.588823 0.576930 0.822459
O O13 0.433542 0.332013 0.994418
O O14 0.500000 0.500000 0.000000
O O15 0.300810 0.463894 0.009316
O O16 0.250000 0.750000 0.500000
#
# Coordination Sequence:
#
# PCOD9303057 Si02
#       8
#     8   8   8   4   8   8   4   8
#     4  12  25  43  70 107 149 193 239 303 374 428
#     4  11  22  41  70 103 140 189 245 297 361 436
#     4  12  24  41  68 104 144 186 238 301 374 433
#     4  11  22  42  74 101 132 184 255 296 344 437
#     4  12  24  43  71 102 143 189 247 297 359 433
#     4  12  22  42  71 103 134 194 250 290 351 449
#     4  11  24  42  66 107 148 188 235 308 372 425
#     4  12  23  43  71 104 136 188 250 295 358 444
#
# _framework density 22.294879999999999
#
# number of rings (size 3 to 8) (size 9 to 14) (size 15 to 20)
#    0.000    0.286    9.286    0.000    0.000    0.000 
#    1.286    0.000    0.000    1.714    0.000    0.000 
#    0.000    0.000    0.000    0.000    0.000    0.000 
#
# Total GULP energy -156097.654753 kJ/mol
# GULP energy per Si atom -5574.916241 kJ/mol
# Density = 2.224414 g / cm^3
# Si number density = 22.294880 Si / 1000 Ang^3
#
#
#
# Elastic Constant Matrix: (Units=GPa)
#
#
# Indices 1 2 3 4 5 6 
#
# 1 106.3808 24.0357 -4.9697 0.0000 7.1280 0.0000
# 2 24.0357 114.4370 15.5354 0.0000 -4.3115 0.0000
# 3 -4.9697 15.5354 86.4737 0.0000 -3.6530 0.0000
# 4 0.0000 0.0000 0.0000 26.1793 0.0000 -0.0894
# 5 7.1280 -4.3115 -3.6530 0.0000 31.1007 0.0000
# 6 0.0000 0.0000 0.0000 -0.0894 0.0000 34.8720
#
#
#
# Elastic Compliance Matrix: (Units=1/GPa)
#
#
# Indices 1 2 3 4 5 6 
#
# 1 0.010143 -0.002348 0.000897 0.000000 -0.002545 0.000000
# 2 -0.002348 0.009535 -0.001778 0.000000 0.001651 0.000000
# 3 0.000897 -0.001778 0.011976 0.000000 0.000954 0.000000
# 4 0.000000 0.000000 0.000000 0.038199 0.000000 0.000098
# 5 -0.002545 0.001651 0.000954 0.000000 0.033078 0.000000
# 6 0.000000 0.000000 0.000000 0.000098 0.000000 0.028677
#
#
# Mechanical properties :
#
#
# Convention : Reuss Voigt Hill
#
# Bulk Modulus (GPa) = 39.68912 41.83268 40.76090
# Shear Modulus (GPa) = 34.13817 36.60973 35.37395
#
# Velocity S-wave (km/s) = 3.91731 4.05664 3.98759
# Velocity P-wave (km/s) = 6.18878 6.38325 6.28677
#
# Compressibility (1/GPa) = 0.02519582
#
# Stress axis : x y z
#
# Youngs Moduli (GPa) = 98.58862 104.87422 83.50339
#
# Poissons Ratio (x) = 0.24626 -0.07493
# Poissons Ratio (y) = 0.23150 0.14849
# Poissons Ratio (z) = -0.08846 0.18649
#
# Static dielectric constant tensor:
#      x y z
#    x 1.950180 0.000000 0.022140 
#    y 0.000000 1.849760 0.000000 
#    z 0.022140 0.000000 1.959750 
# 
# From -- ./inp_files/144296.got.cif
#   From: 2010.05.17/outbox.cif.g08.bks.cpg/sg15_73_cif.got.tgz:144296.got - 2010.06.03 18:47:42.
