data_PCOD9303313
_publ_section_title
;
Structure prediction by ZEFSAII (Michael W. Deem and Ramdas Pophale) SiO2 
 PCOD9303313
Probable space group: C 2/C
;
_chemical_formula_sum "Si O2"
_cell_formula_units_Z 36
_cell_length_a 15.940179
_cell_length_b 12.438555
_cell_length_c 27.888077
_cell_angle_alpha 90.000000
_cell_angle_beta 161.465745
_cell_angle_gamma 90.000000
_cell_volume 1757.653957
_symmetry_space_group_name_H-M "C 2/C"
_symmetry_group_IT_number 15
_symmetry_cell_setting 'monoclinic'
loop_
_space_group_symop_operation_xyz
x,y,z
-x,y,1/2-z
-x,-y,-z
x,-y,1/2+z
1/2+x,1/2+y,z
1/2-x,1/2+y,1/2-z
1/2-x,1/2-y,-z
1/2+x,1/2-y,1/2+z
loop_
_atom_site_type_symbol
_atom_site_label
_atom_site_fract_x
_atom_site_fract_y
_atom_site_fract_z
Si Si1 0.096393 0.483702 0.913282
Si Si2 0.995028 0.909786 0.800873
Si Si3 0.521781 0.459697 0.066650
Si Si4 0.000000 0.885362 0.250000
Si Si5 0.010927 0.706602 0.433280
O O1 0.794975 0.500911 0.737099
O O2 0.110371 0.360690 0.940629
O O3 0.224554 0.567023 0.021568
O O4 0.273531 0.501278 0.962477
O O5 0.000000 0.860055 0.750000
O O6 0.771049 0.848372 0.708082
O O7 0.909185 0.032836 0.742862
O O8 0.523962 0.332641 0.079160
O O9 0.500000 0.500000 0.000000
O O10 0.255701 0.820839 0.403031
#
# Coordination Sequence:
#
# PCOD9303313 Si02
#       5
#     8   8   8   4   8
#     4  11  24  48  68 101 138 184 237 287 342 424
#     4   9  20  39  70 102 136 166 230 294 344 408
#     4  12  28  46  69  97 150 184 235 286 352 421
#     4   8  20  34  68  96 136 160 230 274 348 404
#     4  11  22  43  70 101 132 189 226 285 352 412
#
# _framework density 20.481846999999998
#
# number of rings (size 3 to 8) (size 9 to 14) (size 15 to 20)
#    0.667    0.889    2.222    2.000    3.111    2.667 
#    4.000    0.000    0.000    0.000    0.000    0.000 
#    0.000    0.000    0.000    0.000    0.000    0.000 
#
# Total GULP energy -100218.694198 kJ/mol
# GULP energy per Si atom -5567.705233 kJ/mol
# Density = 2.043523 g / cm^3
# Si number density = 20.481847 Si / 1000 Ang^3
#
#
#
# Elastic Constant Matrix: (Units=GPa)
#
#
# Indices 1 2 3 4 5 6 
#
# 1 100.2425 -8.3155 -0.1037 -0.0015 1.5707 -0.0027
# 2 -8.3155 29.4304 27.5253 0.0080 1.5045 -0.0071
# 3 -0.1037 27.5253 70.0811 0.0366 -8.6680 0.0099
# 4 -0.0015 0.0080 0.0366 24.6064 -0.0044 11.4999
# 5 1.5707 1.5045 -8.6680 -0.0044 30.0753 -0.0010
# 6 -0.0027 -0.0071 0.0099 11.4999 -0.0010 20.1689
#
#
#
# Elastic Compliance Matrix: (Units=1/GPa)
#
#
# Indices 1 2 3 4 5 6 
#
# 1 0.010410 0.004997 -0.002121 0.000000 -0.001405 0.000004
# 2 0.004997 0.058614 -0.024275 0.000001 -0.010189 0.000032
# 3 -0.002121 -0.024275 0.024850 -0.000025 0.008487 -0.000006
# 4 0.000000 0.000001 -0.000025 0.055404 0.000000 -0.031590
# 5 -0.001405 -0.010189 0.008487 0.000000 0.036279 -0.000006
# 6 0.000004 0.000032 -0.000006 -0.031590 -0.000006 0.067594
#
#
# Mechanical properties :
#
#
# Convention : Reuss Voigt Hill
#
# Bulk Modulus (GPa) = 19.57815 26.44068 23.00942
# Shear Modulus (GPa) = 15.97577 27.01330 21.49453
#
# Velocity S-wave (km/s) = 2.79587 3.63559 3.24303
# Velocity P-wave (km/s) = 4.47237 5.52818 5.02806
#
# Compressibility (1/GPa) = 0.05107734
#
# Stress axis : x y z
#
# Youngs Moduli (GPa) = 96.06017 17.06064 40.24155
#
# Poissons Ratio (x) = -0.08525 0.08535
# Poissons Ratio (y) = -0.48000 0.97684
# Poissons Ratio (z) = 0.20374 0.41414
#
# Static dielectric constant tensor:
#      x y z
#    x 1.796070 0.000000 -0.035480 
#    y 0.000000 1.725250 -0.000010 
#    z -0.035480 -0.000010 1.715790 
# 
# From -- ./inp_files/315987.got.cif
#   From: 2010.05.17/outbox.cif.g08.bks.cpg/sg15_158_cif.got.tgz:315987.got - 2010.06.03 18:47:42.
