data_PCOD9303199
_publ_section_title
;
Structure prediction by ZEFSAII (Michael W. Deem and Ramdas Pophale) SiO2 
 PCOD9303199
Probable space group: C 2/C
;
_chemical_formula_sum "Si O2"
_cell_formula_units_Z 32
_cell_length_a 12.695774
_cell_length_b 5.955138
_cell_length_c 21.224623
_cell_angle_alpha 90.000000
_cell_angle_beta 121.169147
_cell_angle_gamma 90.000000
_cell_volume 1373.041435
_symmetry_space_group_name_H-M "C 2/C"
_symmetry_group_IT_number 15
_symmetry_cell_setting 'monoclinic'
loop_
_space_group_symop_operation_xyz
x,y,z
-x,y,1/2-z
-x,-y,-z
x,-y,1/2+z
1/2+x,1/2+y,z
1/2-x,1/2+y,1/2-z
1/2-x,1/2-y,-z
1/2+x,1/2-y,1/2+z
loop_
_atom_site_type_symbol
_atom_site_label
_atom_site_fract_x
_atom_site_fract_y
_atom_site_fract_z
Si Si1 0.438030 0.920402 0.324393
Si Si2 0.939933 0.026037 0.413775
Si Si3 0.919208 0.816421 0.161251
Si Si4 0.268310 0.686875 0.178038
O O1 0.437336 0.781187 0.388747
O O2 0.388394 0.763902 0.253456
O O3 0.565110 0.049485 0.349885
O O4 0.326186 0.095235 0.298206
O O5 0.809662 0.894753 0.373954
O O6 0.000000 0.000000 0.500000
O O7 0.022456 0.917441 0.384023
O O8 0.000000 0.825800 0.250000
O O9 0.805852 0.980997 0.143671
#
# Coordination Sequence:
#
# PCOD9303199 Si02
#       4
#     8   8   8   8
#     4  11  22  42  71 101 140 182 249 303 365 437
#     4  11  26  45  68 104 150 190 237 305 378 440
#     4  11  24  39  70 108 133 185 251 301 358 441
#     4  11  22  43  71 102 140 191 241 306 364 435
#
# _framework density 23.305924999999998
#
# number of rings (size 3 to 8) (size 9 to 14) (size 15 to 20)
#    0.000    1.000    5.000    1.500    3.500    5.000 
#    0.000    2.500    0.000    0.000    0.000    0.000 
#    0.000    0.000    0.000    0.000    0.000    0.000 
#
# Total GULP energy -89233.138822 kJ/mol
# GULP energy per Si atom -5577.071176 kJ/mol
# Density = 2.325288 g / cm^3
# Si number density = 23.305925 Si / 1000 Ang^3
#
#
#
# Elastic Constant Matrix: (Units=GPa)
#
#
# Indices 1 2 3 4 5 6 
#
# 1 155.8262 54.1565 42.2258 0.0000 -22.2005 0.0000
# 2 54.1565 106.0692 22.0310 0.0000 -4.6972 0.0000
# 3 42.2258 22.0310 125.6817 0.0000 -23.5965 0.0000
# 4 0.0000 0.0000 0.0000 20.0718 0.0000 -6.6529
# 5 -22.2005 -4.6972 -23.5965 0.0000 21.8153 0.0000
# 6 0.0000 0.0000 0.0000 -6.6529 0.0000 71.0649
#
#
#
# Elastic Compliance Matrix: (Units=1/GPa)
#
#
# Indices 1 2 3 4 5 6 
#
# 1 0.009179 -0.004158 -0.000965 0.000000 0.007401 0.000000
# 2 -0.004158 0.011669 -0.001219 0.000000 -0.003037 0.000000
# 3 -0.000965 -0.001219 0.010366 0.000000 0.009967 0.000000
# 4 0.000000 0.000000 0.000000 0.051417 0.000000 0.004814
# 5 0.007401 -0.003037 0.009967 0.000000 0.063499 0.000000
# 6 0.000000 0.000000 0.000000 0.004814 0.000000 0.014522
#
#
# Mechanical properties :
#
#
# Convention : Reuss Voigt Hill
#
# Bulk Modulus (GPa) = 53.96773 69.37819 61.67296
# Shear Modulus (GPa) = 27.85323 40.53465 34.19394
#
# Velocity S-wave (km/s) = 3.46079 4.17495 3.83453
# Velocity P-wave (km/s) = 6.25907 7.28515 6.79151
#
# Compressibility (1/GPa) = 0.01852959
#
# Stress axis : x y z
#
# Youngs Moduli (GPa) = 108.94957 85.69353 96.46974
#
# Poissons Ratio (x) = 0.35632 0.09312
# Poissons Ratio (y) = 0.45302 0.11758
# Poissons Ratio (z) = 0.10517 0.10444
#
# Static dielectric constant tensor:
#      x y z
#    x 1.938030 0.000000 0.007290 
#    y 0.000000 2.108660 0.000000 
#    z 0.007290 0.000000 1.778500 
# 
# From -- ./inp_files/201885.got.cif
#   From: 2010.05.17/outbox.cif.g08.bks.cpg/sg15_101_cif.got.tgz:201885.got - 2010.06.03 18:47:42.
