data_PCOD9303282
_publ_section_title
;
Structure prediction by ZEFSAII (Michael W. Deem and Ramdas Pophale) SiO2 
 PCOD9303282
Probable space group: C 2/C
;
_chemical_formula_sum "Si O2"
_cell_formula_units_Z 48
_cell_length_a 24.327770
_cell_length_b 7.501352
_cell_length_c 9.879746
_cell_angle_alpha 90.000000
_cell_angle_beta 90.277642
_cell_angle_gamma 90.000000
_cell_volume 1802.945201
_symmetry_space_group_name_H-M "C 2/C"
_symmetry_group_IT_number 15
_symmetry_cell_setting 'monoclinic'
loop_
_space_group_symop_operation_xyz
x,y,z
-x,y,1/2-z
-x,-y,-z
x,-y,1/2+z
1/2+x,1/2+y,z
1/2-x,1/2+y,1/2-z
1/2-x,1/2-y,-z
1/2+x,1/2-y,1/2+z
loop_
_atom_site_type_symbol
_atom_site_label
_atom_site_fract_x
_atom_site_fract_y
_atom_site_fract_z
Si Si1 0.014724 0.699381 0.954634
Si Si2 0.333990 0.003967 0.404180
Si Si3 0.448436 0.505292 0.845644
Si Si4 0.127087 0.314059 0.345888
Si Si5 0.162039 0.138711 0.756918
Si Si6 0.208051 0.978222 0.989585
O O1 0.060265 0.697251 0.835117
O O2 0.049223 0.820349 0.060109
O O3 0.961795 0.826901 0.930456
O O4 0.000000 0.500000 0.000000
O O5 0.367120 0.025136 0.543476
O O6 0.348131 0.170167 0.306392
O O7 0.270260 0.028074 0.442051
O O8 0.347719 0.845452 0.301889
O O9 0.500000 0.526385 0.750000
O O10 0.392924 0.522383 0.761278
O O11 0.167555 0.170896 0.422109
O O12 0.204128 0.045434 0.650248
O O13 0.183656 0.148265 0.910041
#
# Coordination Sequence:
#
# PCOD9303282 Si02
#       6
#     8   8   8   8   8   8
#     4  11  26  45  70 103 144 187 244 305 364 432
#     4  11  23  42  68  99 139 182 231 295 360 425
#     4  11  25  45  70 102 142 191 243 298 368 437
#     4  11  24  44  65 103 140 179 240 294 360 428
#     4  11  24  43  69  98 138 185 236 289 360 430
#     4  11  22  43  67  98 137 182 232 294 356 430
#
# _framework density 26.623106
#
# number of rings (size 3 to 8) (size 9 to 14) (size 15 to 20)
#    0.000    1.000    3.333    5.000    4.667    4.667 
#    0.000    3.333    0.000    0.000    0.000    0.000 
#    0.000    0.000    0.000    0.000    0.000    0.000 
#
# Total GULP energy -134257.650199 kJ/mol
# GULP energy per Si atom -5594.068758 kJ/mol
# Density = 2.656251 g / cm^3
# Si number density = 26.623106 Si / 1000 Ang^3
#
#
#
# Elastic Constant Matrix: (Units=GPa)
#
#
# Indices 1 2 3 4 5 6 
#
# 1 138.9039 26.7155 -12.6546 0.0000 -9.2020 0.0000
# 2 26.7155 111.7423 -1.5411 0.0000 -5.7285 0.0000
# 3 -12.6546 -1.5411 95.3664 0.0000 -5.5747 0.0000
# 4 0.0000 0.0000 0.0000 40.2999 0.0000 -7.4827
# 5 -9.2020 -5.7285 -5.5747 0.0000 50.8997 0.0000
# 6 0.0000 0.0000 0.0000 -7.4827 0.0000 19.3897
#
#
#
# Elastic Compliance Matrix: (Units=1/GPa)
#
#
# Indices 1 2 3 4 5 6 
#
# 1 0.007723 -0.001764 0.001073 0.000000 0.001315 0.000000
# 2 -0.001764 0.009408 -0.000039 0.000000 0.000736 0.000000
# 3 0.001073 -0.000039 0.010707 0.000000 0.001362 0.000000
# 4 0.000000 0.000000 0.000000 0.026729 0.000000 0.010315
# 5 0.001315 0.000736 0.001362 0.000000 0.020116 0.000000
# 6 0.000000 0.000000 0.000000 0.010315 0.000000 0.055555
#
#
# Mechanical properties :
#
#
# Convention : Reuss Voigt Hill
#
# Bulk Modulus (GPa) = 37.90949 41.22799 39.56874
# Shear Modulus (GPa) = 35.58916 44.35071 39.96994
#
# Velocity S-wave (km/s) = 3.66016 4.08594 3.87890
# Velocity P-wave (km/s) = 5.66856 6.14648 5.91236
#
# Compressibility (1/GPa) = 0.02637862
#
# Stress axis : x y z
#
# Youngs Moduli (GPa) = 129.47565 106.29086 93.39428
#
# Poissons Ratio (x) = 0.18753 -0.10023
# Poissons Ratio (y) = 0.22843 0.00365
# Poissons Ratio (z) = -0.13896 0.00415
#
# Static dielectric constant tensor:
#      x y z
#    x 2.160170 0.000000 -0.184550 
#    y 0.000000 2.362380 0.000000 
#    z -0.184550 0.000000 2.399400 
# 
# From -- ./inp_files/116471.got.cif
#   From: 2010.05.17/outbox.cif.g08.bks.cpg/sg15_59_cif.got.tgz:116471.got - 2010.06.03 18:47:42.
