data_PCOD9303783
_publ_section_title
;
Structure prediction by ZEFSAII (Michael W. Deem and Ramdas Pophale) SiO2 
 PCOD9303783
Probable space group: C 2/C
;
_chemical_formula_sum "Si O2"
_cell_formula_units_Z 52
_cell_length_a 15.462883
_cell_length_b 29.347448
_cell_length_c 5.252059
_cell_angle_alpha 90.000000
_cell_angle_beta 100.951690
_cell_angle_gamma 90.000000
_cell_volume 2339.957680
_symmetry_space_group_name_H-M "C 2/C"
_symmetry_group_IT_number 15
_symmetry_cell_setting 'monoclinic'
loop_
_space_group_symop_operation_xyz
x,y,z
-x,y,1/2-z
-x,-y,-z
x,-y,1/2+z
1/2+x,1/2+y,z
1/2-x,1/2+y,1/2-z
1/2-x,1/2-y,-z
1/2+x,1/2-y,1/2+z
loop_
_atom_site_type_symbol
_atom_site_label
_atom_site_fract_x
_atom_site_fract_y
_atom_site_fract_z
Si Si1 0.901317 0.165505 0.775468
Si Si2 0.055056 0.558941 0.042248
Si Si3 0.144746 0.743929 0.455320
Si Si4 0.753201 0.972869 0.615205
Si Si5 0.810239 0.130684 0.214485
Si Si6 0.619189 0.160764 0.148211
Si Si7 0.000000 0.727641 0.750000
O O1 0.887798 0.220117 0.774319
O O2 0.839899 0.146696 0.511160
O O3 0.000000 0.154899 0.750000
O O4 0.877184 0.144239 0.031340
O O5 0.147165 0.533304 0.057139
O O6 0.081700 0.610311 0.140600
O O7 0.000000 0.539577 0.250000
O O8 0.000000 0.561672 0.750000
O O9 0.250000 0.750000 0.500000
O O10 0.130012 0.689946 0.410614
O O11 0.076738 0.755281 0.645106
O O12 0.792799 0.923270 0.694807
O O13 0.778234 0.992568 0.354495
O O14 0.717750 0.155557 0.095475
O O15 0.554974 0.193286 0.958426
#
# Coordination Sequence:
#
# PCOD9303783 Si02
#       7
#     8   8   8   8   8   8   4
#     4  12  26  45  71 102 138 181 233 293 352 411
#     4  11  23  39  63  97 139 182 230 278 330 404
#     4  12  26  42  65  97 143 190 242 295 344 405
#     4  11  24  44  71 100 133 175 220 278 357 430
#     4  11  26  46  73 100 139 180 228 290 352 424
#     4  11  24  41  64  95 141 192 241 281 336 403
#     4  12  24  40  66  92 138 194 242 288 342 400
#
# _framework density 22.222622999999999
#
# number of rings (size 3 to 8) (size 9 to 14) (size 15 to 20)
#    0.000    0.615    2.308    5.538    4.308    5.538 
#    0.000    0.000    0.000    9.231    0.000    0.000 
#    0.000    0.000    0.000    0.000    0.000    0.000 
#
# Total GULP energy -145388.007410 kJ/mol
# GULP energy per Si atom -5591.846439 kJ/mol
# Density = 2.217204 g / cm^3
# Si number density = 22.222623 Si / 1000 Ang^3
#
#
#
# Elastic Constant Matrix: (Units=GPa)
#
#
# Indices 1 2 3 4 5 6 
#
# 1 94.6571 10.2384 17.2104 0.0000 1.5883 0.0000
# 2 10.2384 102.5703 21.8371 0.0000 5.3961 0.0000
# 3 17.2104 21.8371 81.4859 0.0000 -0.3903 0.0000
# 4 0.0000 0.0000 0.0000 22.2517 0.0000 2.3233
# 5 1.5883 5.3961 -0.3903 0.0000 30.6192 0.0000
# 6 0.0000 0.0000 0.0000 2.3233 0.0000 15.8549
#
#
#
# Elastic Compliance Matrix: (Units=1/GPa)
#
#
# Indices 1 2 3 4 5 6 
#
# 1 0.011033 -0.000614 -0.002168 0.000000 -0.000492 0.000000
# 2 -0.000614 0.010480 -0.002688 0.000000 -0.001849 0.000000
# 3 -0.002168 -0.002688 0.013454 0.000000 0.000758 0.000000
# 4 0.000000 0.000000 0.000000 0.045639 0.000000 -0.006688
# 5 -0.000492 -0.001849 0.000758 0.000000 0.033020 0.000000
# 6 0.000000 0.000000 0.000000 -0.006688 0.000000 0.064052
#
#
# Mechanical properties :
#
#
# Convention : Reuss Voigt Hill
#
# Bulk Modulus (GPa) = 41.61837 41.92058 41.76947
# Shear Modulus (GPa) = 25.42881 29.04031 27.23456
#
# Velocity S-wave (km/s) = 3.38638 3.61888 3.50456
# Velocity P-wave (km/s) = 5.83598 6.03047 5.93402
#
# Compressibility (1/GPa) = 0.02402785
#
# Stress axis : x y z
#
# Youngs Moduli (GPa) = 90.63466 95.41806 74.32781
#
# Poissons Ratio (x) = 0.05857 0.16116
# Poissons Ratio (y) = 0.05564 0.19978
# Poissons Ratio (z) = 0.19651 0.25646
#
# Static dielectric constant tensor:
#      x y z
#    x 1.819690 0.000000 0.003510 
#    y 0.000000 1.812860 0.000000 
#    z 0.003510 0.000000 1.896680 
# 
# From -- ./inp_files/9120.got.cif
#   From: 2010.05.17/outbox.cif.g08.bks.cpg/sg15_5_cif.got.tgz:9120.got - 2010.06.03 18:47:42.
