data_PCOD9303934
_publ_section_title
;
Structure prediction by ZEFSAII (Michael W. Deem and Ramdas Pophale) SiO2 
 PCOD9303934
Probable space group: C 2/C
;
_chemical_formula_sum "Si O2"
_cell_formula_units_Z 56
_cell_length_a 27.375041
_cell_length_b 11.189497
_cell_length_c 9.818964
_cell_angle_alpha 90.000000
_cell_angle_beta 116.876794
_cell_angle_gamma 90.000000
_cell_volume 2682.788702
_symmetry_space_group_name_H-M "C 2/C"
_symmetry_group_IT_number 15
_symmetry_cell_setting 'monoclinic'
loop_
_space_group_symop_operation_xyz
x,y,z
-x,y,1/2-z
-x,-y,-z
x,-y,1/2+z
1/2+x,1/2+y,z
1/2-x,1/2+y,1/2-z
1/2-x,1/2-y,-z
1/2+x,1/2-y,1/2+z
loop_
_atom_site_type_symbol
_atom_site_label
_atom_site_fract_x
_atom_site_fract_y
_atom_site_fract_z
Si Si1 0.623337 0.502526 0.639127
Si Si2 0.304564 0.092617 0.058473
Si Si3 0.466459 0.679565 0.410044
Si Si4 0.028771 0.412063 0.927421
Si Si5 0.678800 0.628227 0.971707
Si Si6 0.359975 0.035196 0.402759
Si Si7 0.414199 0.280497 0.568534
O O1 0.563171 0.443528 0.586620
O O2 0.645891 0.557178 0.809778
O O3 0.657855 0.404893 0.596892
O O4 0.622182 0.611146 0.530403
O O5 0.323659 0.228761 0.053922
O O6 0.342549 0.040751 0.225191
O O7 0.242433 0.095837 0.032330
O O8 0.310467 0.007934 0.935085
O O9 0.474179 0.772742 0.541242
O O10 0.526299 0.685294 0.417789
O O11 0.424671 0.729833 0.242374
O O12 0.000000 0.438812 0.750000
O O13 0.092166 0.442309 0.007944
O O14 0.000000 0.500000 0.000000
O O15 0.386992 0.160948 0.478423
#
# Coordination Sequence:
#
# PCOD9303934 Si02
#       7
#     8   8   8   8   8   8   8
#     4  12  23  45  69  96 138 182 225 289 348 408
#     4  11  25  45  70 101 134 181 236 290 358 414
#     4  11  24  41  65  98 135 180 227 270 351 419
#     4  12  24  41  66  99 137 179 228 279 334 413
#     4  11  25  46  70  99 136 179 237 297 347 418
#     4  12  23  42  68  96 139 178 223 286 348 403
#     4  11  23  41  64  98 138 175 221 283 339 417
#
# _framework density 20.873802000000001
#
# number of rings (size 3 to 8) (size 9 to 14) (size 15 to 20)
#    0.000    0.571    4.286    4.714    0.000    1.143 
#    2.571    0.714    0.000    0.000    0.000    0.000 
#    0.000    0.000    0.000    0.000    0.000    0.000 
#
# Total GULP energy -156377.629101 kJ/mol
# GULP energy per Si atom -5584.915325 kJ/mol
# Density = 2.082629 g / cm^3
# Si number density = 20.873802 Si / 1000 Ang^3
#
#
#
# Elastic Constant Matrix: (Units=GPa)
#
#
# Indices 1 2 3 4 5 6 
#
# 1 66.9112 22.8859 -3.4500 0.0000 -5.5931 0.0000
# 2 22.8859 62.5129 25.6239 0.0000 -3.7849 0.0000
# 3 -3.4500 25.6239 82.9414 0.0000 -4.4058 0.0000
# 4 0.0000 0.0000 0.0000 28.8747 0.0000 -6.4404
# 5 -5.5931 -3.7849 -4.4058 0.0000 23.9780 0.0000
# 6 0.0000 0.0000 0.0000 -6.4404 0.0000 31.1294
#
#
#
# Elastic Compliance Matrix: (Units=1/GPa)
#
#
# Indices 1 2 3 4 5 6 
#
# 1 0.018077 -0.007770 0.003344 0.000000 0.003604 0.000000
# 2 -0.007770 0.021740 -0.007022 0.000000 0.000329 0.000000
# 3 0.003344 -0.007022 0.014489 0.000000 0.002334 0.000000
# 4 0.000000 0.000000 0.000000 0.036308 0.000000 0.007512
# 5 0.003604 0.000329 0.002334 0.000000 0.043026 0.000000
# 6 0.000000 0.000000 0.000000 0.007512 0.000000 0.033678
#
#
# Mechanical properties :
#
#
# Convention : Reuss Voigt Hill
#
# Bulk Modulus (GPa) = 31.83832 33.60945 32.72389
# Shear Modulus (GPa) = 24.91483 27.95013 26.43248
#
# Velocity S-wave (km/s) = 3.45859 3.66321 3.56237
# Velocity P-wave (km/s) = 5.58883 5.83338 5.71242
#
# Compressibility (1/GPa) = 0.03140869
#
# Stress axis : x y z
#
# Youngs Moduli (GPa) = 55.32024 45.99914 69.01728
#
# Poissons Ratio (x) = 0.35742 -0.23079
# Poissons Ratio (y) = 0.42985 0.48463
# Poissons Ratio (z) = -0.18498 0.32300
#
# Static dielectric constant tensor:
#      x y z
#    x 1.805020 0.000000 -0.047540 
#    y 0.000000 1.748110 0.000000 
#    z -0.047540 0.000000 1.741190 
# 
# From -- ./inp_files/65543.got.cif
#   From: 2010.05.17/outbox.cif.g08.bks.cpg/sg15_33_cif.got.tgz:65543.got - 2010.06.03 18:47:42.
