data_PCOD9303611
_publ_section_title
;
Structure prediction by ZEFSAII (Michael W. Deem and Ramdas Pophale) SiO2 
 PCOD9303611
Probable space group: C 2/C
;
_chemical_formula_sum "Si O2"
_cell_formula_units_Z 40
_cell_length_a 15.575306
_cell_length_b 12.603394
_cell_length_c 10.260125
_cell_angle_alpha 90.000000
_cell_angle_beta 95.090554
_cell_angle_gamma 90.000000
_cell_volume 2006.136045
_symmetry_space_group_name_H-M "C 2/C"
_symmetry_group_IT_number 15
_symmetry_cell_setting 'monoclinic'
loop_
_space_group_symop_operation_xyz
x,y,z
-x,y,1/2-z
-x,-y,-z
x,-y,1/2+z
1/2+x,1/2+y,z
1/2-x,1/2+y,1/2-z
1/2-x,1/2-y,-z
1/2+x,1/2-y,1/2+z
loop_
_atom_site_type_symbol
_atom_site_label
_atom_site_fract_x
_atom_site_fract_y
_atom_site_fract_z
Si Si1 0.463720 0.304695 0.040428
Si Si2 0.624921 0.372043 0.223502
Si Si3 0.596247 0.386545 0.718393
Si Si4 0.798575 0.298227 0.129256
Si Si5 0.474889 0.094322 0.594991
O O1 0.557447 0.349860 0.096039
O O2 0.409398 0.296468 0.165702
O O3 0.410330 0.381505 0.938434
O O4 0.478433 0.197149 0.961866
O O5 0.614503 0.494024 0.264083
O O6 0.723361 0.352593 0.201924
O O7 0.500000 0.358972 0.750000
O O8 0.658421 0.297920 0.784671
O O9 0.873671 0.376556 0.090317
O O10 0.750000 0.250000 0.000000
O O11 0.500000 0.075243 0.750000
O O12 0.500000 0.000000 0.500000
#
# Coordination Sequence:
#
# PCOD9303611 Si02
#       5
#     8   8   8   8   8
#     4  11  22  46  70  99 139 183 240 282 354 425
#     4  11  26  38  75 108 135 182 235 299 347 420
#     4  12  22  44  72  98 137 185 230 281 358 414
#     4  12  25  45  67 105 144 175 235 300 339 414
#     4  12  27  48  75  98 144 197 235 284 364 428
#
# _framework density 19.938825999999999
#
# number of rings (size 3 to 8) (size 9 to 14) (size 15 to 20)
#    0.000    0.400    8.000    0.600    5.600    4.000 
#    0.000    0.000    0.000    0.000    0.000    0.000 
#    0.000    0.000    0.000    0.000    0.000    0.000 
#
# Total GULP energy -111721.210730 kJ/mol
# GULP energy per Si atom -5586.060536 kJ/mol
# Density = 1.989344 g / cm^3
# Si number density = 19.938826 Si / 1000 Ang^3
#
#
#
# Elastic Constant Matrix: (Units=GPa)
#
#
# Indices 1 2 3 4 5 6 
#
# 1 143.3534 52.1520 57.0912 0.0000 -2.9583 0.0000
# 2 52.1520 108.2354 51.2770 0.0000 -8.5552 0.0000
# 3 57.0912 51.2770 131.6373 0.0000 5.2202 0.0000
# 4 0.0000 0.0000 0.0000 34.5109 0.0000 -6.3497
# 5 -2.9583 -8.5552 5.2202 0.0000 30.4072 0.0000
# 6 0.0000 0.0000 0.0000 -6.3497 0.0000 34.0930
#
#
#
# Elastic Compliance Matrix: (Units=1/GPa)
#
#
# Indices 1 2 3 4 5 6 
#
# 1 0.009228 -0.003065 -0.002829 0.000000 0.000521 0.000000
# 2 -0.003065 0.012846 -0.003832 0.000000 0.003974 0.000000
# 3 -0.002829 -0.003832 0.010441 0.000000 -0.003146 0.000000
# 4 0.000000 0.000000 0.000000 0.030005 0.000000 0.005588
# 5 0.000521 0.003974 -0.003146 0.000000 0.034596 0.000000
# 6 0.000000 0.000000 0.000000 0.005588 0.000000 0.030372
#
#
# Mechanical properties :
#
#
# Convention : Reuss Voigt Hill
#
# Bulk Modulus (GPa) = 76.55449 78.25184 77.40316
# Shear Modulus (GPa) = 33.04828 34.64929 33.84878
#
# Velocity S-wave (km/s) = 4.07564 4.17319 4.12470
# Velocity P-wave (km/s) = 7.78626 7.90897 7.84785
#
# Compressibility (1/GPa) = 0.01306259
#
# Stress axis : x y z
#
# Youngs Moduli (GPa) = 108.36263 77.84812 95.77608
#
# Poissons Ratio (x) = 0.23861 0.27095
# Poissons Ratio (y) = 0.33214 0.36701
# Poissons Ratio (z) = 0.30656 0.29831
#
# Static dielectric constant tensor:
#      x y z
#    x 1.630420 0.000000 0.066890 
#    y 0.000000 1.701370 0.000000 
#    z 0.066890 0.000000 1.678630 
# 
# From -- ./inp_files/94680.got.cif
#   From: 2010.05.17/outbox.cif.g08.bks.cpg/sg15_48_cif.got.tgz:94680.got - 2010.06.03 18:47:42.
