data_PCOD9303211
_publ_section_title
;
Structure prediction by ZEFSAII (Michael W. Deem and Ramdas Pophale) SiO2 
 PCOD9303211
Probable space group: C 2/C
;
_chemical_formula_sum "Si O2"
_cell_formula_units_Z 48
_cell_length_a 16.889673
_cell_length_b 14.407300
_cell_length_c 16.398914
_cell_angle_alpha 90.000000
_cell_angle_beta 32.588904
_cell_angle_gamma 90.000000
_cell_volume 2149.272222
_symmetry_space_group_name_H-M "C 2/C"
_symmetry_group_IT_number 15
_symmetry_cell_setting 'monoclinic'
loop_
_space_group_symop_operation_xyz
x,y,z
-x,y,1/2-z
-x,-y,-z
x,-y,1/2+z
1/2+x,1/2+y,z
1/2-x,1/2+y,1/2-z
1/2-x,1/2-y,-z
1/2+x,1/2-y,1/2+z
loop_
_atom_site_type_symbol
_atom_site_label
_atom_site_fract_x
_atom_site_fract_y
_atom_site_fract_z
Si Si1 0.994058 0.648297 0.421323
Si Si2 0.603074 0.444371 0.087874
Si Si3 0.393715 0.026046 0.916865
Si Si4 0.486290 0.649406 0.359720
Si Si5 0.693221 0.800916 0.902131
Si Si6 0.251538 0.224590 0.403287
O O1 0.090878 0.670575 0.415694
O O2 0.972603 0.541817 0.413232
O O3 0.832358 0.692686 0.569195
O O4 0.087968 0.698345 0.267991
O O5 0.500000 0.407677 0.250000
O O6 0.531364 0.538541 0.115580
O O7 0.647476 0.366278 0.985301
O O8 0.754395 0.473186 0.000263
O O9 0.500000 0.046037 0.750000
O O10 0.337661 0.120157 0.004340
O O11 0.500000 0.665955 0.250000
O O12 0.352865 0.703461 0.517954
O O13 0.635742 0.690287 0.267628
O O14 0.250000 0.250000 0.500000
#
# Coordination Sequence:
#
# PCOD9303211 Si02
#       6
#     8   8   8   8   8   8
#     4  12  26  43  65 103 137 173 217 283 340 393
#     4  11  22  42  71  99 123 168 234 273 314 383
#     4  12  23  44  70  98 128 177 231 265 327 407
#     4  11  24  44  68  98 127 180 230 270 322 409
#     4  12  26  44  66  98 141 173 216 281 346 384
#     4  12  23  44  70  99 132 176 228 268 325 403
#
# _framework density 22.33314
#
# number of rings (size 3 to 8) (size 9 to 14) (size 15 to 20)
#    0.000    0.333    6.667    4.000    2.333    0.000 
#    0.000    3.333    0.000    0.000    0.000    0.000 
#    0.000    0.000    0.000    0.000    0.000    0.000 
#
# Total GULP energy -134345.274098 kJ/mol
# GULP energy per Si atom -5597.719754 kJ/mol
# Density = 2.228231 g / cm^3
# Si number density = 22.333140 Si / 1000 Ang^3
#
#
#
# Elastic Constant Matrix: (Units=GPa)
#
#
# Indices 1 2 3 4 5 6 
#
# 1 49.0335 -14.4462 -13.3368 -0.0002 -6.8312 0.0000
# 2 -14.4462 80.8701 2.9792 -0.0001 7.9565 0.0001
# 3 -13.3368 2.9792 75.0330 -0.0002 -9.9562 0.0002
# 4 -0.0002 -0.0001 -0.0002 15.4288 0.0001 -13.5122
# 5 -6.8312 7.9565 -9.9562 0.0001 28.5215 0.0000
# 6 0.0000 0.0001 0.0002 -13.5122 0.0000 22.7771
#
#
#
# Elastic Compliance Matrix: (Units=1/GPa)
#
#
# Indices 1 2 3 4 5 6 
#
# 1 0.023631 0.003408 0.004918 0.000001 0.006426 0.000000
# 2 0.003408 0.013281 -0.000320 0.000000 -0.003000 0.000000
# 3 0.004918 -0.000320 0.015081 0.000000 0.006531 0.000000
# 4 0.000001 0.000000 0.000000 0.134900 0.000000 0.080027
# 5 0.006426 -0.003000 0.006531 0.000000 0.039717 0.000000
# 6 0.000000 0.000000 0.000000 0.080027 0.000000 0.091379
#
#
# Mechanical properties :
#
#
# Convention : Reuss Voigt Hill
#
# Bulk Modulus (GPa) = 14.70480 17.25878 15.98179
# Shear Modulus (GPa) = 15.40144 28.66152 22.03148
#
# Velocity S-wave (km/s) = 2.62892 3.58629 3.14426
# Velocity P-wave (km/s) = 3.97662 4.98932 4.51148
#
# Compressibility (1/GPa) = 0.06800500
#
# Stress axis : x y z
#
# Youngs Moduli (GPa) = 42.31724 75.29406 66.30898
#
# Poissons Ratio (x) = -0.25660 -0.32608
# Poissons Ratio (y) = -0.14422 0.02120
# Poissons Ratio (z) = -0.20810 0.02407
#
# Static dielectric constant tensor:
#      x y z
#    x 1.831510 0.000000 -0.031220 
#    y 0.000000 1.838280 0.000000 
#    z -0.031220 0.000000 1.878440 
# 
# From -- ./inp_files/211307.got.cif
#   From: 2010.05.17/outbox.cif.g08.bks.cpg/sg15_106_cif.got.tgz:211307.got - 2010.06.03 18:47:42.
