data_PCOD9303213
_publ_section_title
;
Structure prediction by ZEFSAII (Michael W. Deem and Ramdas Pophale) SiO2 
 PCOD9303213
Probable space group: C 2/C
;
_chemical_formula_sum "Si O2"
_cell_formula_units_Z 40
_cell_length_a 4.865245
_cell_length_b 24.313372
_cell_length_c 16.903443
_cell_angle_alpha 90.000000
_cell_angle_beta 115.577840
_cell_angle_gamma 90.000000
_cell_volume 1803.563411
_symmetry_space_group_name_H-M "C 2/C"
_symmetry_group_IT_number 15
_symmetry_cell_setting 'monoclinic'
loop_
_space_group_symop_operation_xyz
x,y,z
-x,y,1/2-z
-x,-y,-z
x,-y,1/2+z
1/2+x,1/2+y,z
1/2-x,1/2+y,1/2-z
1/2-x,1/2-y,-z
1/2+x,1/2-y,1/2+z
loop_
_atom_site_type_symbol
_atom_site_label
_atom_site_fract_x
_atom_site_fract_y
_atom_site_fract_z
Si Si1 0.976106 0.319284 0.151696
Si Si2 0.228983 0.069283 0.651696
Si Si3 0.077978 0.244971 0.896100
Si Si4 0.360322 0.994971 0.396100
Si Si5 0.500000 0.584626 0.250000
Si Si6 0.000000 0.665374 0.250000
O O1 0.789266 0.375000 0.109511
O O2 0.760523 0.267256 0.115429
O O3 0.000000 0.320661 0.250000
O O4 0.276159 0.305516 0.138346
O O5 0.500000 0.070661 0.750000
O O6 0.335766 0.017256 0.615430
O O7 0.888881 0.055516 0.638346
O O8 0.063053 0.295615 0.833542
O O9 0.250000 0.250000 0.000000
O O10 0.500000 0.000000 0.500000
O O11 0.187574 0.045616 0.333542
O O12 0.279530 0.625000 0.269687
#
# Coordination Sequence:
#
# PCOD9303213 Si02
#       6
#     8   8   8   8   4   4
#     4  11  22  42  71  99 132 172 224 289 357 408
#     4  11  22  42  71  99 132 172 224 289 357 408
#     4  12  25  44  69 101 139 183 237 288 347 428
#     4  12  25  44  69 101 139 183 237 288 347 428
#     4  12  26  46  69  96 145 194 232 290 362 426
#     4  12  26  46  69  96 145 194 232 290 362 426
#
# _framework density 22.178315000000001
#
# number of rings (size 3 to 8) (size 9 to 14) (size 15 to 20)
#    0.000    0.400    4.000    4.800    0.000    8.000 
#    0.000    0.000    0.000    0.000    0.000    0.000 
#    0.000    0.000    0.000    0.000    0.000    0.000 
#
# Total GULP energy -111550.906586 kJ/mol
# GULP energy per Si atom -5577.545329 kJ/mol
# Density = 2.212784 g / cm^3
# Si number density = 22.178315 Si / 1000 Ang^3
#
#
#
# Elastic Constant Matrix: (Units=GPa)
#
#
# Indices 1 2 3 4 5 6 
#
# 1 90.0857 13.4482 -11.6012 0.0000 0.0000 0.0000
# 2 13.4482 109.7481 26.9267 0.0000 0.0000 0.0000
# 3 -11.6012 26.9267 137.1026 0.0000 0.0001 0.0000
# 4 0.0000 0.0000 0.0000 -12.4632 0.0000 0.0001
# 5 0.0000 0.0000 0.0001 0.0000 24.7937 0.0000
# 6 0.0000 0.0000 0.0000 0.0001 0.0000 37.3309
#
#
#
# Elastic Compliance Matrix: (Units=1/GPa)
#
#
# Indices 1 2 3 4 5 6 
#
# 1 0.011529 -0.001736 0.001316 0.000000 0.000000 0.000000
# 2 -0.001736 0.009834 -0.002078 0.000000 0.000000 0.000000
# 3 0.001316 -0.002078 0.007813 0.000000 0.000000 0.000000
# 4 0.000000 0.000000 0.000000 -0.080236 0.000000 0.000000
# 5 0.000000 0.000000 0.000000 0.000000 0.040333 0.000000
# 6 0.000000 0.000000 0.000000 0.000000 0.000000 0.026787
#
#
# Mechanical properties :
#
#
# Convention : Reuss Voigt Hill
#
# Bulk Modulus (GPa) = 41.35352 43.83153 42.59253
# Shear Modulus (GPa) = 171.72098 30.47646 101.09872
#
# Velocity S-wave (km/s) = 8.80883 3.71098 6.75895
# Velocity P-wave (km/s) = 11.05202 6.17802 8.95307
#
# Compressibility (1/GPa) = 0.02418174
#
# Stress axis : x y z
#
# Youngs Moduli (GPa) = 86.73640 101.68400 127.98548
#
# Poissons Ratio (x) = 0.17650 -0.16849
# Poissons Ratio (y) = 0.15055 0.26600
# Poissons Ratio (z) = -0.11419 0.21133
#
# Static dielectric constant tensor:
#      x y z
#    x 1.688540 0.000000 -0.000010 
#    y 0.000000 1.899100 0.000000 
#    z -0.000010 0.000000 1.696110 
# 
# From -- ./inp_files/185415.got.cif
#   From: 2010.05.17/outbox.cif.g08.bks.cpg/sg15_93_cif.got.tgz:185415.got - 2010.06.03 18:47:42.
