data_PCOD9303801
_publ_section_title
;
Structure prediction by ZEFSAII (Michael W. Deem and Ramdas Pophale) SiO2 
 PCOD9303801
Probable space group: C 2/C
;
_chemical_formula_sum "Si O2"
_cell_formula_units_Z 44
_cell_length_a 19.467772
_cell_length_b 14.643029
_cell_length_c 9.309335
_cell_angle_alpha 90.000000
_cell_angle_beta 145.149429
_cell_angle_gamma 90.000000
_cell_volume 1516.474243
_symmetry_space_group_name_H-M "C 2/C"
_symmetry_group_IT_number 15
_symmetry_cell_setting 'monoclinic'
loop_
_space_group_symop_operation_xyz
x,y,z
-x,y,1/2-z
-x,-y,-z
x,-y,1/2+z
1/2+x,1/2+y,z
1/2-x,1/2+y,1/2-z
1/2-x,1/2-y,-z
1/2+x,1/2-y,1/2+z
loop_
_atom_site_type_symbol
_atom_site_label
_atom_site_fract_x
_atom_site_fract_y
_atom_site_fract_z
Si Si1 0.891888 0.777821 0.673006
Si Si2 0.409368 0.543273 0.961583
Si Si3 0.128087 0.147540 0.043933
Si Si4 0.167673 0.403024 0.278450
Si Si5 0.663197 0.088793 0.446664
Si Si6 0.250000 0.750000 0.500000
O O1 0.862815 0.672483 0.653871
O O2 0.796446 0.855558 0.457519
O O3 0.000000 0.774101 0.750000
O O4 0.904597 0.813016 0.857205
O O5 0.500000 0.559186 0.250000
O O6 0.325975 0.457027 0.863889
O O7 0.500000 0.500000 0.000000
O O8 0.313648 0.608976 0.712186
O O9 0.217444 0.208539 0.106256
O O10 0.000000 0.140539 0.750000
O O11 0.153847 0.499154 0.334708
O O12 0.114406 0.413288 0.025883
O O13 0.630639 0.180596 0.308094
#
# Coordination Sequence:
#
# PCOD9303801 Si02
#       6
#     8   8   8   8   8   4
#     4  11  26  48  71 107 146 190 238 299 359 433
#     4  11  23  39  67 107 141 172 227 295 370 425
#     4  11  24  44  70 105 141 188 233 293 362 430
#     4  11  26  46  74 105 143 190 243 292 365 424
#     4  12  24  44  72 103 144 194 232 300 356 431
#     4  12  26  46  72 104 148 186 248 292 358 428
#
# _framework density 29.014669999999999
#
# number of rings (size 3 to 8) (size 9 to 14) (size 15 to 20)
#    0.000    0.727    3.636    4.364    5.091    0.000 
#    0.000    1.818    0.000    0.000    0.000    0.000 
#    0.000    0.000    0.000    0.000    0.000    0.000 
#
# Total GULP energy -122577.821619 kJ/mol
# GULP energy per Si atom -5571.719165 kJ/mol
# Density = 2.894863 g / cm^3
# Si number density = 29.014670 Si / 1000 Ang^3
#
#
#
# Elastic Constant Matrix: (Units=GPa)
#
#
# Indices 1 2 3 4 5 6 
#
# 1 162.6902 13.5483 27.0979 0.0000 -30.0560 0.0000
# 2 13.5483 159.3723 -18.2172 0.0000 -3.6980 0.0000
# 3 27.0979 -18.2172 106.5172 0.0000 -30.1320 0.0000
# 4 0.0000 0.0000 0.0000 33.4420 0.0000 -5.6198
# 5 -30.0560 -3.6980 -30.1320 0.0000 45.2518 0.0000
# 6 0.0000 0.0000 0.0000 -5.6198 0.0000 24.5781
#
#
#
# Elastic Compliance Matrix: (Units=1/GPa)
#
#
# Indices 1 2 3 4 5 6 
#
# 1 0.007088 -0.000588 -0.000721 0.000000 0.004179 0.000000
# 2 -0.000588 0.006537 0.001612 0.000000 0.001217 0.000000
# 3 -0.000721 0.001612 0.012012 0.000000 0.007651 0.000000
# 4 0.000000 0.000000 0.000000 0.031097 0.000000 0.007110
# 5 0.004179 0.001217 0.007651 0.000000 0.030068 0.000000
# 6 0.000000 0.000000 0.000000 0.007110 0.000000 0.042312
#
#
# Mechanical properties :
#
#
# Convention : Reuss Voigt Hill
#
# Bulk Modulus (GPa) = 38.10786 52.60418 45.35602
# Shear Modulus (GPa) = 36.42799 47.73110 42.07954
#
# Velocity S-wave (km/s) = 3.54715 4.06034 3.81239
# Velocity P-wave (km/s) = 5.47164 6.33651 5.91989
#
# Compressibility (1/GPa) = 0.02624130
#
# Stress axis : x y z
#
# Youngs Moduli (GPa) = 141.08571 152.97333 83.25261
#
# Poissons Ratio (x) = 0.08995 0.06006
# Poissons Ratio (y) = 0.08296 -0.13419
# Poissons Ratio (z) = 0.10179 -0.24657
#
# Static dielectric constant tensor:
#      x y z
#    x 2.195470 0.000000 0.287460 
#    y 0.000000 1.663120 0.000000 
#    z 0.287460 0.000000 2.181540 
# 
# From -- ./inp_files/47544.got.cif
#   From: 2010.05.17/outbox.cif.g08.bks.cpg/sg15_24_cif.got.tgz:47544.got - 2010.06.03 18:47:42.
