data_PCOD9303253
_publ_section_title
;
Structure prediction by ZEFSAII (Michael W. Deem and Ramdas Pophale) SiO2 
 PCOD9303253
Probable space group: C 2/C
;
_chemical_formula_sum "Si O2"
_cell_formula_units_Z 40
_cell_length_a 13.770798
_cell_length_b 20.789923
_cell_length_c 9.565148
_cell_angle_alpha 90.000000
_cell_angle_beta 139.212738
_cell_angle_gamma 90.000000
_cell_volume 1788.894074
_symmetry_space_group_name_H-M "C 2/C"
_symmetry_group_IT_number 15
_symmetry_cell_setting 'monoclinic'
loop_
_space_group_symop_operation_xyz
x,y,z
-x,y,1/2-z
-x,-y,-z
x,-y,1/2+z
1/2+x,1/2+y,z
1/2-x,1/2+y,1/2-z
1/2-x,1/2-y,-z
1/2+x,1/2-y,1/2+z
loop_
_atom_site_type_symbol
_atom_site_label
_atom_site_fract_x
_atom_site_fract_y
_atom_site_fract_z
Si Si1 0.809898 0.701248 0.678776
Si Si2 0.075857 0.747173 0.127280
Si Si3 0.000000 0.640757 0.250000
Si Si4 0.742009 0.555053 0.880977
Si Si5 0.671641 0.564541 0.485683
Si Si6 0.500000 0.646881 0.750000
O O1 0.750000 0.750000 0.500000
O O2 0.720594 0.718886 0.723893
O O3 0.761783 0.630902 0.579138
O O4 0.979916 0.715308 0.899607
O O5 0.096554 0.689705 0.260464
O O6 0.983592 0.804420 0.101672
O O7 0.103593 0.594171 0.454427
O O8 0.678566 0.544693 0.656515
O O9 0.747457 0.488433 0.970082
O O10 0.633061 0.600167 0.852924
O O11 0.500000 0.572859 0.250000
#
# Coordination Sequence:
#
# PCOD9303253 Si02
#       6
#     8   8   4   8   8   4
#     4  12  25  43  70 105 138 181 228 302 361 410
#     4  11  22  44  72 102 141 177 237 289 356 422
#     4  11  24  46  70 106 139 184 234 290 363 422
#     4  12  26  45  73 103 145 188 239 290 351 425
#     4  12  26  47  69 103 140 191 241 285 350 425
#     4  11  22  42  76 102 133 188 236 294 339 426
#
# _framework density 22.360182999999999
#
# number of rings (size 3 to 8) (size 9 to 14) (size 15 to 20)
#    0.000    0.400    5.000    3.600    0.000    5.600 
#    3.600    0.000    0.000    0.000    0.000    0.000 
#    0.000    0.000    0.000    0.000    0.000    0.000 
#
# Total GULP energy -111911.205943 kJ/mol
# GULP energy per Si atom -5595.560297 kJ/mol
# Density = 2.230929 g / cm^3
# Si number density = 22.360183 Si / 1000 Ang^3
#
#
#
# Elastic Constant Matrix: (Units=GPa)
#
#
# Indices 1 2 3 4 5 6 
#
# 1 47.0482 28.5642 4.5512 0.0000 -6.4562 0.0000
# 2 28.5642 177.1986 40.3932 0.0000 -7.5028 0.0000
# 3 4.5512 40.3932 97.0765 0.0000 -11.8274 0.0000
# 4 0.0000 0.0000 0.0000 31.2247 0.0000 -14.9869
# 5 -6.4562 -7.5028 -11.8274 0.0000 28.0588 0.0000
# 6 0.0000 0.0000 0.0000 -14.9869 0.0000 17.3027
#
#
#
# Elastic Compliance Matrix: (Units=1/GPa)
#
#
# Indices 1 2 3 4 5 6 
#
# 1 0.024229 -0.003949 0.001115 0.000000 0.004989 0.000000
# 2 -0.003949 0.006888 -0.002706 0.000000 -0.000207 0.000000
# 3 0.001115 -0.002706 0.011931 0.000000 0.004562 0.000000
# 4 0.000000 0.000000 0.000000 0.054814 0.000000 0.047477
# 5 0.004989 -0.000207 0.004562 0.000000 0.038655 0.000000
# 6 0.000000 0.000000 0.000000 0.047477 0.000000 0.098917
#
#
# Mechanical properties :
#
#
# Convention : Reuss Voigt Hill
#
# Bulk Modulus (GPa) = 31.28141 52.03783 41.65962
# Shear Modulus (GPa) = 19.44243 31.83821 25.64032
#
# Velocity S-wave (km/s) = 2.95195 3.77753 3.38996
# Velocity P-wave (km/s) = 5.06348 6.50764 5.83044
#
# Compressibility (1/GPa) = 0.03196787
#
# Stress axis : x y z
#
# Youngs Moduli (GPa) = 41.27311 145.17994 83.81706
#
# Poissons Ratio (x) = 0.57325 -0.09345
# Poissons Ratio (y) = 0.16297 0.22683
# Poissons Ratio (z) = -0.04602 0.39289
#
# Static dielectric constant tensor:
#      x y z
#    x 1.855450 0.000000 -0.005800 
#    y 0.000000 1.784630 0.000000 
#    z -0.005800 0.000000 1.828180 
# 
# From -- ./inp_files/41091.got.cif
#   From: 2010.05.17/outbox.cif.g08.bks.cpg/sg15_21_cif.got.tgz:41091.got - 2010.06.03 18:47:42.
