data_PCOD9303268
_publ_section_title
;
Structure prediction by ZEFSAII (Michael W. Deem and Ramdas Pophale) SiO2 
 PCOD9303268
Probable space group: C 2/C
;
_chemical_formula_sum "Si O2"
_cell_formula_units_Z 52
_cell_length_a 16.658367
_cell_length_b 16.919324
_cell_length_c 16.455976
_cell_angle_alpha 90.000000
_cell_angle_beta 146.289744
_cell_angle_gamma 90.000000
_cell_volume 2574.108502
_symmetry_space_group_name_H-M "C 2/C"
_symmetry_group_IT_number 15
_symmetry_cell_setting 'monoclinic'
loop_
_space_group_symop_operation_xyz
x,y,z
-x,y,1/2-z
-x,-y,-z
x,-y,1/2+z
1/2+x,1/2+y,z
1/2-x,1/2+y,1/2-z
1/2-x,1/2-y,-z
1/2+x,1/2-y,1/2+z
loop_
_atom_site_type_symbol
_atom_site_label
_atom_site_fract_x
_atom_site_fract_y
_atom_site_fract_z
Si Si1 0.000000 0.949005 0.250000
Si Si2 0.978614 0.752163 0.451614
Si Si3 0.334640 0.317484 0.023872
Si Si4 0.498375 0.042796 0.651195
Si Si5 0.717510 0.503369 0.311218
Si Si6 0.181825 0.603620 0.243054
Si Si7 0.291785 0.847889 0.272221
O O1 0.125161 0.890370 0.385486
O O2 0.068256 0.997395 0.234001
O O3 0.901207 0.668216 0.379154
O O4 0.864718 0.816169 0.388853
O O5 0.023088 0.780711 0.398661
O O6 0.124474 0.728874 0.621853
O O7 0.250000 0.250000 0.000000
O O8 0.248716 0.354001 0.876557
O O9 0.500000 0.045931 0.750000
O O10 0.601835 0.111858 0.703278
O O11 0.341389 0.038773 0.475360
O O12 0.572301 0.962004 0.683498
O O13 0.708651 0.557987 0.223986
O O14 0.763575 0.416139 0.316452
#
# Coordination Sequence:
#
# PCOD9303268 Si02
#       7
#     4   8   8   8   8   8   8
#     4  12  24  40  58  96 136 160 216 280 312 384
#     4  12  21  40  66  92 128 169 212 261 333 394
#     4  12  25  39  61  99 138 164 209 272 336 390
#     4  11  23  42  67  91 123 172 224 266 321 388
#     4  11  22  44  63  91 133 172 215 264 323 395
#     4  11  23  39  68  91 122 178 213 257 329 396
#     4  11  22  43  66  92 130 171 213 269 325 401
#
# _framework density 20.201167999999999
#
# number of rings (size 3 to 8) (size 9 to 14) (size 15 to 20)
#    0.000    0.615    6.154    3.692    2.154    0.615 
#    2.769    0.769    1.692    0.000    0.000    0.000 
#    0.000    0.000    0.000    0.000    0.000    0.000 
#
# Total GULP energy -145235.931459 kJ/mol
# GULP energy per Si atom -5585.997364 kJ/mol
# Density = 2.015519 g / cm^3
# Si number density = 20.201168 Si / 1000 Ang^3
#
#
#
# Elastic Constant Matrix: (Units=GPa)
#
#
# Indices 1 2 3 4 5 6 
#
# 1 95.2434 19.6896 6.4327 -0.0008 5.9864 -0.0006
# 2 19.6896 55.5194 11.8824 -0.0004 5.8855 -0.0005
# 3 6.4327 11.8824 47.7276 -0.0003 -3.0595 -0.0005
# 4 -0.0008 -0.0004 -0.0003 28.5112 -0.0002 -0.6263
# 5 5.9864 5.8855 -3.0595 -0.0002 27.2508 -0.0002
# 6 -0.0006 -0.0005 -0.0005 -0.6263 -0.0002 31.7308
#
#
#
# Elastic Compliance Matrix: (Units=1/GPa)
#
#
# Indices 1 2 3 4 5 6 
#
# 1 0.011428 -0.003706 -0.000732 0.000000 -0.001792 0.000000
# 2 -0.003706 0.020837 -0.004960 0.000000 -0.004243 0.000000
# 3 -0.000732 -0.004960 0.022527 0.000000 0.003761 0.000000
# 4 0.000000 0.000000 0.000000 0.035089 0.000000 0.000693
# 5 -0.001792 -0.004243 0.003761 0.000000 0.038429 0.000000
# 6 0.000000 0.000000 0.000000 0.000693 0.000000 0.031529
#
#
# Mechanical properties :
#
#
# Convention : Reuss Voigt Hill
#
# Bulk Modulus (GPa) = 27.78189 30.50000 29.14095
# Shear Modulus (GPa) = 26.22823 28.19760 27.21292
#
# Velocity S-wave (km/s) = 3.60717 3.74015 3.67426
# Velocity P-wave (km/s) = 5.57955 5.81227 5.69710
#
# Compressibility (1/GPa) = 0.03599467
#
# Stress axis : x y z
#
# Youngs Moduli (GPa) = 87.50691 47.99052 44.39121
#
# Poissons Ratio (x) = 0.17785 0.03251
# Poissons Ratio (y) = 0.32430 0.22019
# Poissons Ratio (z) = 0.06409 0.23805
#
# Static dielectric constant tensor:
#      x y z
#    x 1.710180 0.000000 -0.006370 
#    y 0.000000 1.724920 0.000000 
#    z -0.006370 0.000000 1.862190 
# 
# From -- ./inp_files/48669.got.cif
#   From: 2010.05.17/outbox.cif.g08.bks.cpg/sg15_25_cif.got.tgz:48669.got - 2010.06.03 18:47:42.
