data_PCOD9303948
_publ_section_title
;
Structure prediction by ZEFSAII (Michael W. Deem and Ramdas Pophale) SiO2 
 PCOD9303948
Probable space group: C 2/C
;
_chemical_formula_sum "Si O2"
_cell_formula_units_Z 56
_cell_length_a 24.295577
_cell_length_b 5.284189
_cell_length_c 18.386248
_cell_angle_alpha 90.000000
_cell_angle_beta 74.315271
_cell_angle_gamma 90.000000
_cell_volume 2272.576138
_symmetry_space_group_name_H-M "C 2/C"
_symmetry_group_IT_number 15
_symmetry_cell_setting 'monoclinic'
loop_
_space_group_symop_operation_xyz
x,y,z
-x,y,1/2-z
-x,-y,-z
x,-y,1/2+z
1/2+x,1/2+y,z
1/2-x,1/2+y,1/2-z
1/2-x,1/2-y,-z
1/2+x,1/2-y,1/2+z
loop_
_atom_site_type_symbol
_atom_site_label
_atom_site_fract_x
_atom_site_fract_y
_atom_site_fract_z
Si Si1 0.977333 0.094888 0.931771
Si Si2 0.907925 0.383167 0.636397
Si Si3 0.850599 0.780194 0.450224
Si Si4 0.473142 0.742896 0.194314
Si Si5 0.873329 0.934941 0.280709
Si Si6 0.179764 0.707771 0.457848
Si Si7 0.263871 0.272550 0.791953
O O1 0.027954 0.274082 0.886447
O O2 0.916238 0.223815 0.955037
O O3 0.978503 0.857142 0.877005
O O4 0.000000 0.000000 0.000000
O O5 0.922691 0.662395 0.658531
O O6 0.871041 0.245799 0.711452
O O7 0.876933 0.336618 0.571755
O O8 0.856223 0.797272 0.361295
O O9 0.817060 0.537596 0.491927
O O10 0.825487 0.038367 0.493261
O O11 0.500000 0.911094 0.250000
O O12 0.438221 0.535297 0.253864
O O13 0.829225 0.164612 0.287780
O O14 0.229029 0.728400 0.379849
O O15 0.244658 0.514027 0.749580
#
# Coordination Sequence:
#
# PCOD9303948 Si02
#       7
#     8   8   8   8   8   8   8
#     4  11  23  41  65  99 144 193 233 292 359 426
#     4  11  25  42  72 103 141 197 251 295 352 451
#     4  12  28  45  71 108 154 187 236 305 372 421
#     4  11  24  41  69 105 145 188 251 293 361 441
#     4  11  27  46  71 108 146 191 246 309 367 427
#     4  12  27  48  72 109 143 190 249 296 358 443
#     4  12  26  49  82 107 140 192 249 306 364 430
#
# _framework density 24.641639000000001
#
# number of rings (size 3 to 8) (size 9 to 14) (size 15 to 20)
#    0.000    0.571    4.286    2.571    8.000    2.286 
#    0.000    0.000    0.000    0.000    0.000    0.000 
#    0.000    0.000    0.000    0.000    0.000    0.000 
#
# Total GULP energy -156698.982542 kJ/mol
# GULP energy per Si atom -5596.392234 kJ/mol
# Density = 2.458555 g / cm^3
# Si number density = 24.641639 Si / 1000 Ang^3
#
#
#
# Elastic Constant Matrix: (Units=GPa)
#
#
# Indices 1 2 3 4 5 6 
#
# 1 69.5092 5.2860 16.6616 0.0000 -14.4181 0.0000
# 2 5.2860 114.1663 66.1187 0.0000 -13.8151 0.0000
# 3 16.6616 66.1187 158.2683 0.0000 -15.3541 0.0000
# 4 0.0000 0.0000 0.0000 34.7650 0.0000 -8.6861
# 5 -14.4181 -13.8151 -15.3541 0.0000 53.9888 0.0000
# 6 0.0000 0.0000 0.0000 -8.6861 0.0000 19.6347
#
#
#
# Elastic Compliance Matrix: (Units=1/GPa)
#
#
# Indices 1 2 3 4 5 6 
#
# 1 0.015506 0.000631 -0.001521 0.000000 0.003870 0.000000
# 2 0.000631 0.011721 -0.004788 0.000000 0.001806 0.000000
# 3 -0.001521 -0.004788 0.008557 0.000000 0.000802 0.000000
# 4 0.000000 0.000000 0.000000 0.032339 0.000000 0.014306
# 5 0.003870 0.001806 0.000802 0.000000 0.020246 0.000000
# 6 0.000000 0.000000 0.000000 0.014306 0.000000 0.057259
#
#
# Mechanical properties :
#
#
# Convention : Reuss Voigt Hill
#
# Bulk Modulus (GPa) = 40.93545 57.56404 49.24975
# Shear Modulus (GPa) = 30.27994 38.60289 34.44142
#
# Velocity S-wave (km/s) = 3.50924 3.96229 3.74263
# Velocity P-wave (km/s) = 5.75049 6.65914 6.22142
#
# Compressibility (1/GPa) = 0.02442870
#
# Stress axis : x y z
#
# Youngs Moduli (GPa) = 64.49194 85.31379 116.86993
#
# Poissons Ratio (x) = -0.05383 0.17770
# Poissons Ratio (y) = -0.04069 0.55957
# Poissons Ratio (z) = 0.09806 0.40848
#
# Static dielectric constant tensor:
#      x y z
#    x 2.037640 0.000000 0.058320 
#    y 0.000000 2.155980 0.000000 
#    z 0.058320 0.000000 1.930140 
# 
# From -- ./inp_files/221217.got.cif
#   From: 2010.05.17/outbox.cif.g08.bks.cpg/sg15_111_cif.got.tgz:221217.got - 2010.06.03 18:47:42.
