data_PCOD9303520
_publ_section_title
;
Structure prediction by ZEFSAII (Michael W. Deem and Ramdas Pophale) SiO2 
 PCOD9303520
Probable space group: C 2/C
;
_chemical_formula_sum "Si O2"
_cell_formula_units_Z 56
_cell_length_a 16.843675
_cell_length_b 16.801130
_cell_length_c 8.725364
_cell_angle_alpha 90.000000
_cell_angle_beta 112.600171
_cell_angle_gamma 90.000000
_cell_volume 2279.601644
_symmetry_space_group_name_H-M "C 2/C"
_symmetry_group_IT_number 15
_symmetry_cell_setting 'monoclinic'
loop_
_space_group_symop_operation_xyz
x,y,z
-x,y,1/2-z
-x,-y,-z
x,-y,1/2+z
1/2+x,1/2+y,z
1/2-x,1/2+y,1/2-z
1/2-x,1/2-y,-z
1/2+x,1/2-y,1/2+z
loop_
_atom_site_type_symbol
_atom_site_label
_atom_site_fract_x
_atom_site_fract_y
_atom_site_fract_z
Si Si1 0.959700 0.354261 0.968151
Si Si2 0.582652 0.687623 0.471317
Si Si3 0.269026 0.188216 0.755964
Si Si4 0.865780 0.376466 0.591040
Si Si5 0.825186 0.128970 0.246000
Si Si6 0.962346 0.076805 0.553764
Si Si7 0.831224 0.441685 0.058303
O O1 0.943681 0.278961 0.065802
O O2 0.898913 0.340257 0.774320
O O3 0.052969 0.369546 0.965930
O O4 0.920419 0.425816 0.035890
O O5 0.670727 0.681976 0.632046
O O6 0.602065 0.636977 0.333288
O O7 0.506994 0.653570 0.516019
O O8 0.298065 0.278749 0.745236
O O9 0.316325 0.121006 0.685481
O O10 0.289853 0.167787 0.946184
O O11 0.836460 0.466236 0.604066
O O12 0.863974 0.088659 0.427193
O O13 0.746970 0.079030 0.115896
O O14 0.000000 0.071868 0.750000
O O15 0.000000 0.000000 0.500000
#
# Coordination Sequence:
#
# PCOD9303520 Si02
#       7
#     8   8   8   8   8   8   8
#     4  11  23  44  63  98 147 183 232 284 356 429
#     4  11  23  45  72  99 142 186 236 289 348 426
#     4  11  23  44  70 103 136 189 240 291 351 417
#     4  11  26  37  66 102 143 181 234 295 356 418
#     4  11  23  47  75 100 141 187 242 289 352 420
#     4  12  29  49  73 106 140 182 233 296 357 416
#     4  11  22  45  68 100 137 187 237 292 353 418
#
# _framework density 24.565695000000002
#
# number of rings (size 3 to 8) (size 9 to 14) (size 15 to 20)
#    0.000    0.857    2.857    4.286    6.000    3.429 
#    0.000    0.000    0.000    0.000    0.000    0.000 
#    0.000    0.000    0.000    0.000    0.000    0.000 
#
# Total GULP energy -156776.264210 kJ/mol
# GULP energy per Si atom -5599.152293 kJ/mol
# Density = 2.450978 g / cm^3
# Si number density = 24.565695 Si / 1000 Ang^3
#
#
#
# Elastic Constant Matrix: (Units=GPa)
#
#
# Indices 1 2 3 4 5 6 
#
# 1 69.7130 8.7037 22.9795 0.0000 -2.4878 0.0000
# 2 8.7037 46.3216 17.7974 0.0000 10.3977 0.0000
# 3 22.9795 17.7974 169.2894 0.0000 41.7723 0.0000
# 4 0.0000 0.0000 0.0000 6.5705 0.0000 8.6119
# 5 -2.4878 10.3977 41.7723 0.0000 24.5337 0.0000
# 6 0.0000 0.0000 0.0000 8.6119 0.0000 6.6288
#
#
#
# Elastic Compliance Matrix: (Units=1/GPa)
#
#
# Indices 1 2 3 4 5 6 
#
# 1 0.016763 -0.003892 -0.004644 0.000000 0.011256 0.000000
# 2 -0.003892 0.024762 0.001055 0.000000 -0.012686 0.000000
# 3 -0.004644 0.001055 0.011473 0.000000 -0.020453 0.000000
# 4 0.000000 0.000000 0.000000 -0.216554 0.000000 0.281340
# 5 0.011256 -0.012686 -0.020453 0.000000 0.082102 0.000000
# 6 0.000000 0.000000 0.000000 0.281340 0.000000 -0.214650
#
#
# Mechanical properties :
#
#
# Convention : Reuss Voigt Hill
#
# Bulk Modulus (GPa) = 26.29021 42.69836 34.49428
# Shear Modulus (GPa) = -18.62440 23.26950 2.32255
#
# Velocity S-wave (km/s) = -2.75643 3.08106 0.97339
# Velocity P-wave (km/s) = 0.77114 5.48418 3.91605
#
# Compressibility (1/GPa) = 0.03803698
#
# Stress axis : x y z
#
# Youngs Moduli (GPa) = 59.65589 40.38516 87.15967
#
# Poissons Ratio (x) = 0.15718 0.40473
# Poissons Ratio (y) = 0.23219 -0.09199
# Poissons Ratio (z) = 0.27702 -0.04262
#
# Static dielectric constant tensor:
#      x y z
#    x 1.921550 0.000000 0.018060 
#    y 0.000000 1.473550 0.000000 
#    z 0.018060 0.000000 1.978280 
# 
# From -- ./inp_files/49141.got.cif
#   From: 2010.05.17/outbox.cif.g08.bks.cpg/sg15_25_cif.got.tgz:49141.got - 2010.06.03 18:47:42.
