data_PCOD9303916
_publ_section_title
;
Structure prediction by ZEFSAII (Michael W. Deem and Ramdas Pophale) SiO2 
 PCOD9303916
Probable space group: C 2/C
;
_chemical_formula_sum "Si O2"
_cell_formula_units_Z 32
_cell_length_a 21.525250
_cell_length_b 10.508435
_cell_length_c 8.819690
_cell_angle_alpha 90.000000
_cell_angle_beta 49.551886
_cell_angle_gamma 90.000000
_cell_volume 1518.170943
_symmetry_space_group_name_H-M "C 2/C"
_symmetry_group_IT_number 15
_symmetry_cell_setting 'monoclinic'
loop_
_space_group_symop_operation_xyz
x,y,z
-x,y,1/2-z
-x,-y,-z
x,-y,1/2+z
1/2+x,1/2+y,z
1/2-x,1/2+y,1/2-z
1/2-x,1/2-y,-z
1/2+x,1/2-y,1/2+z
loop_
_atom_site_type_symbol
_atom_site_label
_atom_site_fract_x
_atom_site_fract_y
_atom_site_fract_z
Si Si1 0.977523 0.867182 0.462063
Si Si2 0.044333 0.610149 0.341443
Si Si3 0.730900 0.110060 0.094185
Si Si4 0.289187 0.364726 0.839978
O O1 0.030167 0.748237 0.438959
O O2 0.000000 0.879911 0.250000
O O3 0.882409 0.836971 0.642839
O O4 0.000000 0.000000 0.500000
O O5 0.139356 0.580706 0.185894
O O6 0.000000 0.617303 0.250000
O O7 0.000000 0.500000 0.500000
O O8 0.740199 0.115128 0.260722
O O9 0.750000 0.250000 0.000000
O O10 0.786026 0.996272 0.940052
O O11 0.250000 0.250000 0.000000
#
# Coordination Sequence:
#
# PCOD9303916 Si02
#       4
#     8   8   8   8
#     4  11  24  43  65  94 130 169 215 268 324 390
#     4  11  23  41  62  91 126 166 212 264 319 383
#     4  12  24  42  66  96 132 174 219 273 329 391
#     4  12  25  44  68  99 133 175 223 275 332 396
#
# _framework density 21.077995999999999
#
# number of rings (size 3 to 8) (size 9 to 14) (size 15 to 20)
#    0.000    0.500    0.000   10.500    0.000    3.000 
#    0.000    0.000    0.000    0.000    0.000    0.000 
#    0.000    0.000    0.000    0.000    0.000    0.000 
#
# Total GULP energy -89531.474202 kJ/mol
# GULP energy per Si atom -5595.717138 kJ/mol
# Density = 2.103002 g / cm^3
# Si number density = 21.077996 Si / 1000 Ang^3
#
#
#
# Elastic Constant Matrix: (Units=GPa)
#
#
# Indices 1 2 3 4 5 6 
#
# 1 57.4843 -24.8725 27.9768 0.0000 11.7668 0.0000
# 2 -24.8725 139.8736 51.4546 0.0000 32.9998 0.0000
# 3 27.9768 51.4546 140.4506 0.0000 -2.3684 0.0000
# 4 0.0000 0.0000 0.0000 58.4832 0.0000 0.8553
# 5 11.7668 32.9998 -2.3684 0.0000 51.4292 0.0000
# 6 0.0000 0.0000 0.0000 0.8553 0.0000 33.4606
#
#
#
# Elastic Compliance Matrix: (Units=1/GPa)
#
#
# Indices 1 2 3 4 5 6 
#
# 1 0.033222 0.014536 -0.012238 0.000000 -0.017492 0.000000
# 2 0.014536 0.016492 -0.009179 0.000000 -0.014331 0.000000
# 3 -0.012238 -0.009179 0.013077 0.000000 0.009292 0.000000
# 4 0.000000 0.000000 0.000000 0.017105 0.000000 -0.000437
# 5 -0.017492 -0.014331 0.009292 0.000000 0.033070 0.000000
# 6 0.000000 0.000000 0.000000 -0.000437 0.000000 0.029897
#
#
# Mechanical properties :
#
#
# Convention : Reuss Voigt Hill
#
# Bulk Modulus (GPa) = 20.39566 49.65846 35.02706
# Shear Modulus (GPa) = 28.90706 47.55793 38.23249
#
# Velocity S-wave (km/s) = 3.70730 4.75519 4.26356
# Velocity P-wave (km/s) = 5.29365 7.33209 6.39462
#
# Compressibility (1/GPa) = 0.04903003
#
# Stress axis : x y z
#
# Youngs Moduli (GPa) = 30.10014 60.63605 76.46920
#
# Poissons Ratio (x) = -0.88144 0.93584
# Poissons Ratio (y) = -0.43755 0.70192
# Poissons Ratio (z) = 0.36837 0.55658
#
# Static dielectric constant tensor:
#      x y z
#    x 1.727490 0.000000 -0.009740 
#    y 0.000000 1.776550 0.000000 
#    z -0.009740 0.000000 1.737560 
# 
# From -- ./inp_files/36816.got.cif
#   From: 2010.05.17/outbox.cif.g08.bks.cpg/sg15_19_cif.got.tgz:36816.got - 2010.06.03 18:47:42.
