data_PCOD9303810
_publ_section_title
;
Structure prediction by ZEFSAII (Michael W. Deem and Ramdas Pophale) SiO2 
 PCOD9303810
Probable space group: C 2/C
;
_chemical_formula_sum "Si O2"
_cell_formula_units_Z 52
_cell_length_a 34.178330
_cell_length_b 12.787123
_cell_length_c 10.350767
_cell_angle_alpha 90.000000
_cell_angle_beta 146.820773
_cell_angle_gamma 90.000000
_cell_volume 2475.652998
_symmetry_space_group_name_H-M "C 2/C"
_symmetry_group_IT_number 15
_symmetry_cell_setting 'monoclinic'
loop_
_space_group_symop_operation_xyz
x,y,z
-x,y,1/2-z
-x,-y,-z
x,-y,1/2+z
1/2+x,1/2+y,z
1/2-x,1/2+y,1/2-z
1/2-x,1/2-y,-z
1/2+x,1/2-y,1/2+z
loop_
_atom_site_type_symbol
_atom_site_label
_atom_site_fract_x
_atom_site_fract_y
_atom_site_fract_z
Si Si1 0.488048 0.789937 0.925200
Si Si2 0.765045 0.488931 0.909848
Si Si3 0.189327 0.084530 0.462484
Si Si4 0.379990 0.138939 0.333932
Si Si5 0.849294 0.297032 0.026474
Si Si6 0.000000 0.529576 0.250000
Si Si7 0.476138 0.433709 0.054035
O O1 0.567742 0.792488 0.203451
O O2 0.429380 0.794969 0.874663
O O3 0.480647 0.891734 0.813599
O O4 0.485228 0.679348 0.844907
O O5 0.707089 0.515793 0.638863
O O6 0.736691 0.447023 0.969644
O O7 0.813877 0.589062 0.075503
O O8 0.816242 0.403326 0.987511
O O9 0.194229 0.203241 0.527562
O O10 0.108486 0.075608 0.189866
O O11 0.350745 0.202169 0.375657
O O12 0.432797 0.045037 0.530064
O O13 0.500000 0.489084 0.250000
O O14 0.500000 0.500000 0.000000
#
# Coordination Sequence:
#
# PCOD9303810 Si02
#       7
#     8   8   8   8   8   4   8
#     4  11  23  39  69 105 138 173 231 285 345 400
#     4  12  24  46  65 101 138 185 223 279 342 413
#     4  11  27  45  70  97 137 180 229 278 342 416
#     4  12  23  38  71 102 142 179 220 284 346 408
#     4  11  23  44  65  98 139 182 228 277 339 403
#     4  12  20  38  66 106 136 176 220 278 350 404
#     4  11  25  49  74  99 131 179 235 290 338 397
#
# _framework density 21.004560000000001
#
# number of rings (size 3 to 8) (size 9 to 14) (size 15 to 20)
#    0.000    0.615    5.385    2.769    0.000    4.308 
#    5.538    0.000    0.000    0.000    0.000    0.000 
#    0.000    0.000    0.000    0.000    0.000    0.000 
#
# Total GULP energy -145381.026812 kJ/mol
# GULP energy per Si atom -5591.577954 kJ/mol
# Density = 2.095675 g / cm^3
# Si number density = 21.004560 Si / 1000 Ang^3
#
#
#
# Elastic Constant Matrix: (Units=GPa)
#
#
# Indices 1 2 3 4 5 6 
#
# 1 133.3636 33.5672 37.1545 0.0000 -23.7424 0.0000
# 2 33.5672 22.3916 14.0379 0.0000 -8.4575 0.0000
# 3 37.1545 14.0379 75.7319 0.0000 -19.5849 0.0000
# 4 0.0000 0.0000 0.0000 81.9489 0.0000 35.4014
# 5 -23.7424 -8.4575 -19.5849 0.0000 36.0090 0.0000
# 6 0.0000 0.0000 0.0000 35.4014 0.0000 61.9460
#
#
#
# Elastic Compliance Matrix: (Units=1/GPa)
#
#
# Indices 1 2 3 4 5 6 
#
# 1 0.012951 -0.016652 -0.002409 0.000000 0.003318 0.000000
# 2 -0.016652 0.073940 -0.004520 0.000000 0.003929 0.000000
# 3 -0.002409 -0.004520 0.016919 0.000000 0.006552 0.000000
# 4 0.000000 0.000000 0.000000 0.016203 0.000000 -0.009260
# 5 0.003318 0.003929 0.006552 0.000000 0.034445 0.000000
# 6 0.000000 0.000000 0.000000 -0.009260 0.000000 0.021435
#
#
# Mechanical properties :
#
#
# Convention : Reuss Voigt Hill
#
# Bulk Modulus (GPa) = 17.65310 44.55625 31.10468
# Shear Modulus (GPa) = 20.66649 45.76262 33.21455
#
# Velocity S-wave (km/s) = 3.14013 4.67272 3.98087
# Velocity P-wave (km/s) = 4.64434 7.09726 5.99754
#
# Compressibility (1/GPa) = 0.05664727
#
# Stress axis : x y z
#
# Youngs Moduli (GPa) = 77.21157 13.52450 59.10619
#
# Poissons Ratio (x) = 0.22521 0.14241
# Poissons Ratio (y) = 1.28570 0.26718
# Poissons Ratio (z) = 0.18603 0.06113
#
# Static dielectric constant tensor:
#      x y z
#    x 1.740360 0.000000 -0.016090 
#    y 0.000000 1.757900 0.000000 
#    z -0.016090 0.000000 1.755620 
# 
# From -- ./inp_files/70207.got.cif
#   From: 2010.05.17/outbox.cif.g08.bks.cpg/sg15_36_cif.got.tgz:70207.got - 2010.06.03 18:47:42.
