data_PCOD9303763
_publ_section_title
;
Structure prediction by ZEFSAII (Michael W. Deem and Ramdas Pophale) SiO2 
 PCOD9303763
Probable space group: C 2/C
;
_chemical_formula_sum "Si O2"
_cell_formula_units_Z 32
_cell_length_a 21.926124
_cell_length_b 10.987355
_cell_length_c 13.080853
_cell_angle_alpha 90.000000
_cell_angle_beta 149.116356
_cell_angle_gamma 90.000000
_cell_volume 1617.555560
_symmetry_space_group_name_H-M "C 2/C"
_symmetry_group_IT_number 15
_symmetry_cell_setting 'monoclinic'
loop_
_space_group_symop_operation_xyz
x,y,z
-x,y,1/2-z
-x,-y,-z
x,-y,1/2+z
1/2+x,1/2+y,z
1/2-x,1/2+y,1/2-z
1/2-x,1/2-y,-z
1/2+x,1/2-y,1/2+z
loop_
_atom_site_type_symbol
_atom_site_label
_atom_site_fract_x
_atom_site_fract_y
_atom_site_fract_z
Si Si1 0.129123 0.242001 0.462624
Si Si2 0.647647 0.322870 0.223707
Si Si3 0.285337 0.561590 0.084844
Si Si4 0.107342 0.640199 0.329357
O O1 0.128222 0.198027 0.577390
O O2 0.231059 0.340496 0.585177
O O3 0.152775 0.131345 0.418281
O O4 0.000000 0.294815 0.250000
O O5 0.633902 0.461516 0.242326
O O6 0.786934 0.297232 0.451819
O O7 0.575466 0.229811 0.191085
O O8 0.172932 0.481287 0.884053
O O9 0.000000 0.613479 0.250000
#
# Coordination Sequence:
#
# PCOD9303763 Si02
#       4
#     8   8   8   8
#     4  11  23  39  60  90 129 157 196 251 307 347
#     4   9  22  38  62  90 118 161 203 246 292 368
#     4   9  22  40  56  91 123 153 209 241 295 363
#     4   9  19  39  63  89 117 157 206 243 298 353
#
# _framework density 19.782937
#
# number of rings (size 3 to 8) (size 9 to 14) (size 15 to 20)
#    1.500    1.000    0.000    0.750    3.500    6.000 
#    0.000    3.750    0.000    0.000    0.000    0.000 
#    0.000    0.000    0.000    0.000    0.000    0.000 
#
# Total GULP energy -89118.336630 kJ/mol
# GULP energy per Si atom -5569.896039 kJ/mol
# Density = 1.973791 g / cm^3
# Si number density = 19.782937 Si / 1000 Ang^3
#
#
#
# Elastic Constant Matrix: (Units=GPa)
#
#
# Indices 1 2 3 4 5 6 
#
# 1 76.3921 31.4715 21.1565 0.0000 -13.4577 0.0000
# 2 31.4715 97.4465 8.6508 0.0000 -24.8972 0.0000
# 3 21.1565 8.6508 39.7973 0.0000 -18.8670 0.0000
# 4 0.0000 0.0000 0.0000 0.9897 0.0000 1.6480
# 5 -13.4577 -24.8972 -18.8670 0.0000 35.5612 0.0000
# 6 0.0000 0.0000 0.0000 1.6480 0.0000 21.9175
#
#
#
# Elastic Compliance Matrix: (Units=1/GPa)
#
#
# Indices 1 2 3 4 5 6 
#
# 1 0.017445 -0.005321 -0.009023 0.000000 -0.001911 0.000000
# 2 -0.005321 0.014231 0.004682 0.000000 0.010433 0.000000
# 3 -0.009023 0.004682 0.038533 0.000000 0.020307 0.000000
# 4 0.000000 0.000000 0.000000 1.154981 0.000000 -0.086846
# 5 -0.001911 0.010433 0.020307 0.000000 0.045476 0.000000
# 6 0.000000 0.000000 0.000000 -0.086846 0.000000 0.052156
#
#
# Mechanical properties :
#
#
# Convention : Reuss Voigt Hill
#
# Bulk Modulus (GPa) = 19.65269 37.35486 28.50377
# Shear Modulus (GPa) = 3.67888 21.85084 12.76486
#
# Velocity S-wave (km/s) = 1.36516 3.32705 2.54293
# Velocity P-wave (km/s) = 3.52712 5.80365 4.80224
#
# Compressibility (1/GPa) = 0.05088363
#
# Stress axis : x y z
#
# Youngs Moduli (GPa) = 57.32362 70.27093 25.95152
#
# Poissons Ratio (x) = 0.37393 0.23416
# Poissons Ratio (y) = 0.30503 -0.12149
# Poissons Ratio (z) = 0.51723 -0.32898
#
# Static dielectric constant tensor:
#      x y z
#    x 1.639950 0.000000 0.021870 
#    y 0.000000 1.713890 0.000000 
#    z 0.021870 0.000000 1.701270 
# 
# From -- ./inp_files/83869.got.cif
#   From: 2010.05.17/outbox.cif.g08.bks.cpg/sg15_42_cif.got.tgz:83869.got - 2010.06.03 18:47:42.
