data_PCOD9303162
_publ_section_title
;
Structure prediction by ZEFSAII (Michael W. Deem and Ramdas Pophale) SiO2 
 PCOD9303162
Probable space group: C 2/C
;
_chemical_formula_sum "Si O2"
_cell_formula_units_Z 40
_cell_length_a 7.451249
_cell_length_b 20.272952
_cell_length_c 13.858496
_cell_angle_alpha 90.000000
_cell_angle_beta 53.572998
_cell_angle_gamma 90.000000
_cell_volume 1684.417632
_symmetry_space_group_name_H-M "C 2/C"
_symmetry_group_IT_number 15
_symmetry_cell_setting 'monoclinic'
loop_
_space_group_symop_operation_xyz
x,y,z
-x,y,1/2-z
-x,-y,-z
x,-y,1/2+z
1/2+x,1/2+y,z
1/2-x,1/2+y,1/2-z
1/2-x,1/2-y,-z
1/2+x,1/2-y,1/2+z
loop_
_atom_site_type_symbol
_atom_site_label
_atom_site_fract_x
_atom_site_fract_y
_atom_site_fract_z
Si Si1 0.687431 0.196154 0.905436
Si Si2 0.500000 0.596837 0.750000
Si Si3 0.173074 0.841688 0.929500
Si Si4 0.320227 0.339698 0.885192
Si Si5 0.000000 0.453911 0.750000
Si Si6 0.212584 0.511861 0.369201
O O1 0.750339 0.270863 0.861389
O O2 0.789135 0.144362 0.796919
O O3 0.818944 0.173429 0.959891
O O4 0.423504 0.192125 0.016328
O O5 0.608712 0.540242 0.647456
O O6 0.330077 0.903223 0.856399
O O7 0.940199 0.850430 0.949401
O O8 0.500000 0.309004 0.750000
O O9 0.276068 0.412063 0.856776
O O10 0.135251 0.496858 0.783591
O O11 0.000000 0.500000 0.500000
#
# Coordination Sequence:
#
# PCOD9303162 Si02
#       6
#     8   4   8   8   4   8
#     4  11  25  42  66 100 137 172 228 284 341 416
#     4  12  23  44  64  94 139 178 218 292 340 398
#     4  11  22  42  68  99 131 178 225 278 350 405
#     4  12  22  42  69  98 132 175 224 281 337 409
#     4  12  21  44  72  96 135 192 230 284 354 410
#     4  12  24  42  68  99 137 178 239 283 336 419
#
# _framework density 23.747077999999998
#
# number of rings (size 3 to 8) (size 9 to 14) (size 15 to 20)
#    0.000    0.400    7.000    1.200    0.000    3.200 
#    0.000    4.000    0.000    0.000    0.000    0.000 
#    0.000    0.000    0.000    0.000    0.000    0.000 
#
# Total GULP energy -111489.680145 kJ/mol
# GULP energy per Si atom -5574.484007 kJ/mol
# Density = 2.369303 g / cm^3
# Si number density = 23.747078 Si / 1000 Ang^3
#
#
#
# Elastic Constant Matrix: (Units=GPa)
#
#
# Indices 1 2 3 4 5 6 
#
# 1 151.2633 -0.5323 43.7498 0.0000 2.1595 0.0000
# 2 -0.5323 75.0611 12.5602 0.0000 -10.6650 0.0000
# 3 43.7498 12.5602 97.2168 0.0000 -42.2492 0.0000
# 4 0.0000 0.0000 0.0000 12.8677 0.0000 1.1396
# 5 2.1595 -10.6650 -42.2492 0.0000 50.2261 0.0000
# 6 0.0000 0.0000 0.0000 1.1396 0.0000 10.5006
#
#
#
# Elastic Compliance Matrix: (Units=1/GPa)
#
#
# Indices 1 2 3 4 5 6 
#
# 1 0.008518 0.000320 -0.006311 0.000000 -0.005607 0.000000
# 2 0.000320 0.013788 -0.001039 0.000000 0.002040 0.000000
# 3 -0.006311 -0.001039 0.020936 0.000000 0.017662 0.000000
# 4 0.000000 0.000000 0.000000 0.078468 0.000000 -0.008516
# 5 -0.005607 0.002040 0.017662 0.000000 0.035441 0.000000
# 6 0.000000 0.000000 0.000000 -0.008516 0.000000 0.096157
#
#
# Mechanical properties :
#
#
# Convention : Reuss Voigt Hill
#
# Bulk Modulus (GPa) = 34.26732 48.34405 41.30569
# Shear Modulus (GPa) = 18.04431 32.56979 25.30705
#
# Velocity S-wave (km/s) = 2.75954 3.70743 3.26803
# Velocity P-wave (km/s) = 4.96133 6.22325 5.62777
#
# Compressibility (1/GPa) = 0.02918232
#
# Stress axis : x y z
#
# Youngs Moduli (GPa) = 117.40460 72.52443 47.76371
#
# Poissons Ratio (x) = -0.02319 0.30145
# Poissons Ratio (y) = -0.03754 0.04961
# Poissons Ratio (z) = 0.74097 0.07532
#
# Static dielectric constant tensor:
#      x y z
#    x 2.007170 0.000000 -0.057870 
#    y 0.000000 1.925090 0.000000 
#    z -0.057870 0.000000 2.068560 
# 
# From -- ./inp_files/135795.got.cif
#   From: 2010.05.17/outbox.cif.g08.bks.cpg/sg15_68_cif.got.tgz:135795.got - 2010.06.03 18:47:42.
