data_PCOD9303868
_publ_section_title
;
Structure prediction by ZEFSAII (Michael W. Deem and Ramdas Pophale) SiO2 
 PCOD9303868
Probable space group: C 2/C
;
_chemical_formula_sum "Si O2"
_cell_formula_units_Z 40
_cell_length_a 29.404496
_cell_length_b 7.940353
_cell_length_c 23.208626
_cell_angle_alpha 90.000000
_cell_angle_beta 162.805423
_cell_angle_gamma 90.000000
_cell_volume 1601.892302
_symmetry_space_group_name_H-M "C 2/C"
_symmetry_group_IT_number 15
_symmetry_cell_setting 'monoclinic'
loop_
_space_group_symop_operation_xyz
x,y,z
-x,y,1/2-z
-x,-y,-z
x,-y,1/2+z
1/2+x,1/2+y,z
1/2-x,1/2+y,1/2-z
1/2-x,1/2-y,-z
1/2+x,1/2-y,1/2+z
loop_
_atom_site_type_symbol
_atom_site_label
_atom_site_fract_x
_atom_site_fract_y
_atom_site_fract_z
Si Si1 0.880142 0.140447 0.873448
Si Si2 0.874284 0.394118 0.775463
Si Si3 0.394164 0.025914 0.529594
Si Si4 0.920320 0.099905 0.057952
Si Si5 0.793469 0.886343 0.100100
O O1 0.915364 0.326908 0.889776
O O2 0.722921 0.066557 0.656701
O O3 0.886981 0.134571 0.950063
O O4 0.000000 0.000000 0.000000
O O5 0.699483 0.457685 0.567390
O O6 0.898824 0.217655 0.772240
O O7 0.954455 0.519140 0.826965
O O8 0.375365 0.217924 0.527133
O O9 0.354919 0.931797 0.541572
O O10 0.094444 0.039267 0.281621
O O11 0.750000 0.750000 0.000000
#
# Coordination Sequence:
#
# PCOD9303868 Si02
#       5
#     8   8   8   8   8
#     4  11  23  40  67 105 152 193 230 280 366 448
#     4  11  25  42  69 105 144 190 237 289 365 432
#     4  11  25  43  71 108 145 187 243 296 362 441
#     4  12  24  44  70 106 147 188 242 295 362 441
#     4  11  25  48  72  97 138 190 246 302 367 424
#
# _framework density 24.970466999999999
#
# number of rings (size 3 to 8) (size 9 to 14) (size 15 to 20)
#    0.000    0.800    4.000    4.800    2.800    4.800 
#    0.000    6.000    0.000    0.000    0.000    0.000 
#    0.000    0.000    0.000    0.000    0.000    0.000 
#
# Total GULP energy -111557.472651 kJ/mol
# GULP energy per Si atom -5577.873633 kJ/mol
# Density = 2.491363 g / cm^3
# Si number density = 24.970467 Si / 1000 Ang^3
#
#
#
# Elastic Constant Matrix: (Units=GPa)
#
#
# Indices 1 2 3 4 5 6 
#
# 1 126.0993 37.1993 55.0068 0.0000 11.5789 0.0000
# 2 37.1993 126.9918 20.2696 0.0000 -2.4584 0.0000
# 3 55.0068 20.2696 86.3330 0.0000 9.0952 0.0000
# 4 0.0000 0.0000 0.0000 27.5932 0.0000 2.3530
# 5 11.5789 -2.4584 9.0952 0.0000 30.6516 0.0000
# 6 0.0000 0.0000 0.0000 2.3530 0.0000 41.1761
#
#
#
# Elastic Compliance Matrix: (Units=1/GPa)
#
#
# Indices 1 2 3 4 5 6 
#
# 1 0.011805 -0.002446 -0.006665 0.000000 -0.002678 0.000000
# 2 -0.002446 0.008736 -0.000685 0.000000 0.001828 0.000000
# 3 -0.006665 -0.000685 0.016239 0.000000 -0.002356 0.000000
# 4 0.000000 0.000000 0.000000 0.036418 0.000000 -0.002081
# 5 -0.002678 0.001828 -0.002356 0.000000 0.034482 0.000000
# 6 0.000000 0.000000 0.000000 -0.002081 0.000000 0.024405
#
#
# Mechanical properties :
#
#
# Convention : Reuss Voigt Hill
#
# Bulk Modulus (GPa) = 58.18345 62.70838 60.44591
# Shear Modulus (GPa) = 31.76484 35.01407 33.38946
#
# Velocity S-wave (km/s) = 3.57052 3.74868 3.66068
# Velocity P-wave (km/s) = 6.35213 6.62604 6.49053
#
# Compressibility (1/GPa) = 0.01718702
#
# Stress axis : x y z
#
# Youngs Moduli (GPa) = 84.70815 114.47178 61.58089
#
# Poissons Ratio (x) = 0.28000 0.41045
# Poissons Ratio (y) = 0.20720 0.04219
# Poissons Ratio (z) = 0.56460 0.07843
#
# Static dielectric constant tensor:
#      x y z
#    x 2.136470 0.000000 -0.022160 
#    y 0.000000 1.904740 0.000000 
#    z -0.022160 0.000000 2.302710 
# 
# From -- ./inp_files/284353.got.cif
#   From: 2010.05.17/outbox.cif.g08.bks.cpg/sg15_143_cif.got.tgz:284353.got - 2010.06.03 18:47:42.
