data_PCOD9303063
_publ_section_title
;
Structure prediction by ZEFSAII (Michael W. Deem and Ramdas Pophale) SiO2 
 PCOD9303063
Probable space group: C 2/C
;
_chemical_formula_sum "Si O2"
_cell_formula_units_Z 48
_cell_length_a 10.081435
_cell_length_b 14.529219
_cell_length_c 20.833443
_cell_angle_alpha 90.000000
_cell_angle_beta 138.083436
_cell_angle_gamma 90.000000
_cell_volume 2038.605303
_symmetry_space_group_name_H-M "C 2/C"
_symmetry_group_IT_number 15
_symmetry_cell_setting 'monoclinic'
loop_
_space_group_symop_operation_xyz
x,y,z
-x,y,1/2-z
-x,-y,-z
x,-y,1/2+z
1/2+x,1/2+y,z
1/2-x,1/2+y,1/2-z
1/2-x,1/2-y,-z
1/2+x,1/2-y,1/2+z
loop_
_atom_site_type_symbol
_atom_site_label
_atom_site_fract_x
_atom_site_fract_y
_atom_site_fract_z
Si Si1 0.114024 0.314020 0.992516
Si Si2 0.929904 0.484648 0.048786
Si Si3 0.345771 0.504524 0.748625
Si Si4 0.766138 0.267344 0.672323
Si Si5 0.800069 0.216389 0.208433
Si Si6 0.008348 0.051905 0.435465
O O1 0.887522 0.280128 0.906003
O O2 0.250000 0.250000 0.000000
O O3 0.130106 0.410078 0.960708
O O4 0.192483 0.306242 0.093208
O O5 0.734611 0.425943 0.993606
O O6 0.000000 0.500000 0.000000
O O7 0.123178 0.461137 0.158828
O O8 0.500000 0.539106 0.750000
O O9 0.331496 0.393425 0.732405
O O10 0.427105 0.514094 0.849331
O O11 0.741707 0.239881 0.737685
O O12 0.629983 0.357781 0.611978
O O13 0.000000 0.288298 0.750000
O O14 0.000000 0.253908 0.250000
O O15 0.000000 0.000000 0.500000
#
# Coordination Sequence:
#
# PCOD9303063 Si02
#       6
#     8   8   8   8   8   8
#     4  11  22  41  70  95 131 174 224 268 325 403
#     4  11  23  43  67  96 130 176 223 273 325 394
#     4   9  18  38  63  88 126 175 218 257 324 403
#     4  11  23  43  68  96 134 181 219 269 345 402
#     4   9  20  38  65  93 127 173 219 264 327 396
#     4  11  24  38  65  99 132 171 222 274 336 391
#
# _framework density 23.54551
#
# number of rings (size 3 to 8) (size 9 to 14) (size 15 to 20)
#    0.000    1.667    3.333    1.000    7.000    0.667 
#    3.000    0.000    0.000    0.000    0.000    0.000 
#    0.000    0.000    0.000    0.000    0.000    0.000 
#
# Total GULP energy -134230.633978 kJ/mol
# GULP energy per Si atom -5592.943082 kJ/mol
# Density = 2.349192 g / cm^3
# Si number density = 23.545510 Si / 1000 Ang^3
#
#
#
# Elastic Constant Matrix: (Units=GPa)
#
#
# Indices 1 2 3 4 5 6 
#
# 1 150.0364 15.7313 83.6999 0.0000 12.6881 0.0000
# 2 15.7313 58.1318 25.3052 0.0000 6.7446 0.0000
# 3 83.6999 25.3052 205.8826 0.0000 13.1018 0.0000
# 4 0.0000 0.0000 0.0000 30.8567 0.0000 -6.4832
# 5 12.6881 6.7446 13.1018 0.0000 49.8825 0.0000
# 6 0.0000 0.0000 0.0000 -6.4832 0.0000 19.1721
#
#
#
# Elastic Compliance Matrix: (Units=1/GPa)
#
#
# Indices 1 2 3 4 5 6 
#
# 1 0.008733 -0.000749 -0.003380 0.000000 -0.001232 0.000000
# 2 -0.000749 0.018418 -0.001844 0.000000 -0.001816 0.000000
# 3 -0.003380 -0.001844 0.006496 0.000000 -0.000597 0.000000
# 4 0.000000 0.000000 0.000000 0.034887 0.000000 0.011797
# 5 -0.001232 -0.001816 -0.000597 0.000000 0.020763 0.000000
# 6 0.000000 0.000000 0.000000 0.011797 0.000000 0.056149
#
#
# Mechanical properties :
#
#
# Convention : Reuss Voigt Hill
#
# Bulk Modulus (GPa) = 46.07890 73.72482 59.90186
# Shear Modulus (GPa) = 30.37205 39.26988 34.82096
#
# Velocity S-wave (km/s) = 3.59546 4.08834 3.84979
# Velocity P-wave (km/s) = 6.07034 7.32568 6.72736
#
# Compressibility (1/GPa) = 0.02170191
#
# Stress axis : x y z
#
# Youngs Moduli (GPa) = 114.50314 54.29398 153.94415
#
# Poissons Ratio (x) = 0.04067 0.52033
# Poissons Ratio (y) = 0.08577 0.28383
# Poissons Ratio (z) = 0.38702 0.10010
#
# Static dielectric constant tensor:
#      x y z
#    x 1.934040 0.000000 -0.008430 
#    y 0.000000 2.231430 0.000000 
#    z -0.008430 0.000000 1.862200 
# 
# From -- ./inp_files/233971.got.cif
#   From: 2010.05.17/outbox.cif.g08.bks.cpg/sg15_117_cif.got.tgz:233971.got - 2010.06.03 18:47:42.
