data_PCOD9303513
_publ_section_title
;
Structure prediction by ZEFSAII (Michael W. Deem and Ramdas Pophale) SiO2 
 PCOD9303513
Probable space group: C 2/C
;
_chemical_formula_sum "Si O2"
_cell_formula_units_Z 64
_cell_length_a 17.821387
_cell_length_b 9.395817
_cell_length_c 27.447555
_cell_angle_alpha 90.000000
_cell_angle_beta 39.867170
_cell_angle_gamma 90.000000
_cell_volume 2946.079646
_symmetry_space_group_name_H-M "C 2/C"
_symmetry_group_IT_number 15
_symmetry_cell_setting 'monoclinic'
loop_
_space_group_symop_operation_xyz
x,y,z
-x,y,1/2-z
-x,-y,-z
x,-y,1/2+z
1/2+x,1/2+y,z
1/2-x,1/2+y,1/2-z
1/2-x,1/2-y,-z
1/2+x,1/2-y,1/2+z
loop_
_atom_site_type_symbol
_atom_site_label
_atom_site_fract_x
_atom_site_fract_y
_atom_site_fract_z
Si Si1 0.211600 0.390009 0.856510
Si Si2 0.831588 0.356654 0.989041
Si Si3 0.141362 0.144832 0.951457
Si Si4 0.825432 0.107831 0.455476
Si Si5 0.287010 0.570444 0.168600
Si Si6 0.070343 0.998947 0.305501
Si Si7 0.602294 0.816512 0.435436
Si Si8 0.577633 0.171695 0.324258
O O1 0.225187 0.273007 0.891871
O O2 0.337499 0.455365 0.781430
O O3 0.120108 0.516635 0.915048
O O4 0.155981 0.318509 0.835071
O O5 0.952091 0.388619 0.901406
O O6 0.750000 0.250000 0.000000
O O7 0.758032 0.498831 0.030175
O O8 0.863617 0.296375 0.025584
O O9 0.165492 0.024642 0.899176
O O10 0.152843 0.072185 0.998168
O O11 0.018966 0.232144 0.011774
O O12 0.750000 0.250000 0.500000
O O13 0.951329 0.090885 0.367031
O O14 0.362741 0.530375 0.177438
O O15 0.309154 0.734299 0.143943
O O16 0.151247 0.568971 0.251941
O O17 0.051909 0.828546 0.315385
#
# Coordination Sequence:
#
# PCOD9303513 Si02
#       8
#     8   8   8   8   8   8   8   8
#     4  11  24  40  72 105 135 174 235 291 339 403
#     4  12  25  44  69  97 140 183 224 280 348 417
#     4  12  24  44  69 103 135 178 235 283 334 412
#     4  12  28  45  68 100 140 182 223 282 358 416
#     4  11  23  40  72 103 130 176 233 285 336 401
#     4  11  22  45  67 101 140 179 219 288 354 405
#     4  12  23  42  70 104 133 178 239 280 328 413
#     4  11  23  43  68 102 139 175 228 284 352 404
#
# _framework density 21.723784999999999
#
# number of rings (size 3 to 8) (size 9 to 14) (size 15 to 20)
#    0.000    0.500    6.250    2.250    1.750    1.000 
#    0.000    7.500    0.000    0.000    0.000    0.000 
#    0.000    0.000    0.000    0.000    0.000    0.000 
#
# Total GULP energy -178748.872731 kJ/mol
# GULP energy per Si atom -5585.902273 kJ/mol
# Density = 2.167434 g / cm^3
# Si number density = 21.723785 Si / 1000 Ang^3
#
#
#
# Elastic Constant Matrix: (Units=GPa)
#
#
# Indices 1 2 3 4 5 6 
#
# 1 25.1212 -12.8875 12.8038 0.0000 -10.0288 0.0001
# 2 -12.8875 65.1013 1.5145 0.0000 -9.5615 0.0002
# 3 12.8038 1.5145 122.9669 0.0000 -25.8196 0.0000
# 4 0.0000 0.0000 0.0000 39.3681 0.0000 0.7363
# 5 -10.0288 -9.5615 -25.8196 0.0000 33.8092 0.0000
# 6 0.0001 0.0002 0.0000 0.7363 0.0000 32.0332
#
#
#
# Elastic Compliance Matrix: (Units=1/GPa)
#
#
# Indices 1 2 3 4 5 6 
#
# 1 0.055396 0.013775 -0.001988 0.000000 0.018809 0.000000
# 2 0.013775 0.019535 0.000409 0.000000 0.009923 0.000000
# 3 -0.001988 0.000409 0.009807 0.000000 0.007015 0.000000
# 4 0.000000 0.000000 0.000000 0.025412 0.000000 -0.000584
# 5 0.018809 0.009923 0.007015 0.000000 0.043321 0.000000
# 6 0.000000 0.000000 0.000000 -0.000584 0.000000 0.031231
#
#
# Mechanical properties :
#
#
# Convention : Reuss Voigt Hill
#
# Bulk Modulus (GPa) = 9.16341 24.00568 16.58454
# Shear Modulus (GPa) = 25.42083 35.15933 30.29008
#
# Velocity S-wave (km/s) = 3.42451 4.02739 3.73812
# Velocity P-wave (km/s) = 4.45686 5.71847 5.12662
#
# Compressibility (1/GPa) = 0.10912966
#
# Stress axis : x y z
#
# Youngs Moduli (GPa) = 18.05180 51.18895 101.96462
#
# Poissons Ratio (x) = -0.70513 0.20273
# Poissons Ratio (y) = -0.24866 -0.04166
# Poissons Ratio (z) = 0.03589 -0.02092
#
# Static dielectric constant tensor:
#      x y z
#    x 1.778340 0.000000 0.028570 
#    y 0.000000 1.860440 0.000000 
#    z 0.028570 0.000000 1.777370 
# 
# From -- ./inp_files/315664.got.cif
#   From: 2010.05.17/outbox.cif.g08.bks.cpg/sg15_158_cif.got.tgz:315664.got - 2010.06.03 18:47:42.
