data_PCOD9303802
_publ_section_title
;
Structure prediction by ZEFSAII (Michael W. Deem and Ramdas Pophale) SiO2 
 PCOD9303802
Probable space group: C 2/C
;
_chemical_formula_sum "Si O2"
_cell_formula_units_Z 56
_cell_length_a 10.593705
_cell_length_b 31.305085
_cell_length_c 9.532644
_cell_angle_alpha 90.000000
_cell_angle_beta 60.365176
_cell_angle_gamma 90.000000
_cell_volume 2747.850708
_symmetry_space_group_name_H-M "C 2/C"
_symmetry_group_IT_number 15
_symmetry_cell_setting 'monoclinic'
loop_
_space_group_symop_operation_xyz
x,y,z
-x,y,1/2-z
-x,-y,-z
x,-y,1/2+z
1/2+x,1/2+y,z
1/2-x,1/2+y,1/2-z
1/2-x,1/2-y,-z
1/2+x,1/2-y,1/2+z
loop_
_atom_site_type_symbol
_atom_site_label
_atom_site_fract_x
_atom_site_fract_y
_atom_site_fract_z
Si Si1 0.045972 0.670152 0.933176
Si Si2 0.918070 0.762091 0.933157
Si Si3 0.500000 0.101555 0.750000
Si Si4 0.974623 0.071505 0.595838
Si Si5 0.500000 0.128415 0.250000
Si Si6 0.108817 0.164840 0.823758
Si Si7 0.313895 0.029861 0.696448
Si Si8 0.707753 0.950458 0.621081
O O1 0.219401 0.664208 0.810694
O O2 0.000688 0.718114 0.924009
O O3 0.951800 0.636404 0.892563
O O4 0.011620 0.657945 0.109643
O O5 0.000000 0.779307 0.750000
O O6 0.750000 0.750000 0.000000
O O7 0.921545 0.796293 0.055429
O O8 0.404521 0.068948 0.711048
O O9 0.122408 0.056902 0.444948
O O10 0.000000 0.073438 0.750000
O O11 0.925761 0.119283 0.584928
O O12 0.844822 0.038464 0.650962
O O13 0.365997 0.095529 0.324840
O O14 0.000000 0.168517 0.750000
O O15 0.310050 0.033060 0.530047
O O16 0.358760 0.983988 0.732018
#
# Coordination Sequence:
#
# PCOD9303802 Si02
#       8
#     8   8   4   8   4   8   8   8
#     4  12  25  46  69 101 136 182 226 288 344 408
#     4  12  26  46  71 106 146 182 227 284 345 416
#     4  12  21  42  68  90 132 182 220 266 355 400
#     4   9  19  42  66  91 129 174 221 274 337 403
#     4  12  25  42  68  96 134 170 232 286 331 406
#     4  11  23  45  75 100 136 181 233 278 350 408
#     4  11  23  39  67  92 131 176 221 277 343 405
#     4  11  24  41  62 100 129 171 226 282 337 404
#
# _framework density 20.379563999999998
#
# number of rings (size 3 to 8) (size 9 to 14) (size 15 to 20)
#    0.000    0.857    5.000    2.571    3.000    4.000 
#    0.000    1.429    0.000    0.000    0.000    0.000 
#    0.000    0.000    0.000    0.000    0.000    0.000 
#
# Total GULP energy -156378.586195 kJ/mol
# GULP energy per Si atom -5584.949507 kJ/mol
# Density = 2.033318 g / cm^3
# Si number density = 20.379564 Si / 1000 Ang^3
#
#
#
# Elastic Constant Matrix: (Units=GPa)
#
#
# Indices 1 2 3 4 5 6 
#
# 1 60.3575 13.6080 17.1479 0.0000 -2.3736 0.0000
# 2 13.6080 77.9733 24.5202 0.0000 15.9492 0.0000
# 3 17.1479 24.5202 95.4450 0.0000 6.4665 0.0000
# 4 0.0000 0.0000 0.0000 37.8742 0.0000 3.4257
# 5 -2.3736 15.9492 6.4665 0.0000 29.1129 0.0000
# 6 0.0000 0.0000 0.0000 3.4257 0.0000 27.9993
#
#
#
# Elastic Compliance Matrix: (Units=1/GPa)
#
#
# Indices 1 2 3 4 5 6 
#
# 1 0.018189 -0.003089 -0.002730 0.000000 0.003782 0.000000
# 2 -0.003089 0.016015 -0.002993 0.000000 -0.008361 0.000000
# 3 -0.002730 -0.002993 0.011819 0.000000 -0.001208 0.000000
# 4 0.000000 0.000000 0.000000 0.026699 0.000000 -0.003267
# 5 0.003782 -0.008361 -0.001208 0.000000 0.039506 0.000000
# 6 0.000000 0.000000 0.000000 -0.003267 0.000000 0.036115
#
#
# Mechanical properties :
#
#
# Convention : Reuss Voigt Hill
#
# Bulk Modulus (GPa) = 35.21427 38.25866 36.73647
# Shear Modulus (GPa) = 28.50077 30.89724 29.69901
#
# Velocity S-wave (km/s) = 3.74371 3.89792 3.82159
# Velocity P-wave (km/s) = 6.00032 6.25078 6.12683
#
# Compressibility (1/GPa) = 0.02839758
#
# Stress axis : x y z
#
# Youngs Moduli (GPa) = 54.97862 62.43976 84.61276
#
# Poissons Ratio (x) = 0.19289 0.23103
# Poissons Ratio (y) = 0.16984 0.25324
# Poissons Ratio (z) = 0.15012 0.18688
#
# Static dielectric constant tensor:
#      x y z
#    x 1.809040 0.000000 -0.005410 
#    y 0.000000 1.699720 0.000000 
#    z -0.005410 0.000000 1.765870 
# 
# From -- ./inp_files/35620.got.cif
#   From: 2010.05.17/outbox.cif.g08.bks.cpg/sg15_18_cif.got.tgz:35620.got - 2010.06.03 18:47:42.
