data_PCOD9303938
_publ_section_title
;
Structure prediction by ZEFSAII (Michael W. Deem and Ramdas Pophale) SiO2 
 PCOD9303938
Probable space group: C 2/C
;
_chemical_formula_sum "Si O2"
_cell_formula_units_Z 64
_cell_length_a 29.590663
_cell_length_b 14.463826
_cell_length_c 8.473502
_cell_angle_alpha 90.000000
_cell_angle_beta 132.484060
_cell_angle_gamma 90.000000
_cell_volume 2674.498682
_symmetry_space_group_name_H-M "C 2/C"
_symmetry_group_IT_number 15
_symmetry_cell_setting 'monoclinic'
loop_
_space_group_symop_operation_xyz
x,y,z
-x,y,1/2-z
-x,-y,-z
x,-y,1/2+z
1/2+x,1/2+y,z
1/2-x,1/2+y,1/2-z
1/2-x,1/2-y,-z
1/2+x,1/2-y,1/2+z
loop_
_atom_site_type_symbol
_atom_site_label
_atom_site_fract_x
_atom_site_fract_y
_atom_site_fract_z
Si Si1 0.163977 0.527976 0.672305
Si Si2 0.536917 0.928135 0.985261
Si Si3 0.820567 0.722152 0.658292
Si Si4 0.497493 0.753629 0.432942
Si Si5 0.368332 0.270954 0.115507
Si Si6 0.145651 0.944639 0.219810
Si Si7 0.894815 0.123973 0.198283
Si Si8 0.217010 0.383147 0.988278
O O1 0.093062 0.517834 0.540958
O O2 0.180747 0.610893 0.834381
O O3 0.198864 0.433460 0.784319
O O4 0.177791 0.566912 0.533433
O O5 0.500000 0.890805 0.750000
O O6 0.545307 0.838833 0.112969
O O7 0.500000 0.000000 0.000000
O O8 0.750000 0.750000 0.500000
O O9 0.851439 0.784752 0.596810
O O10 0.856966 0.752095 0.904432
O O11 0.500000 0.753664 0.250000
O O12 0.565766 0.764089 0.665715
O O13 0.462095 0.660915 0.403205
O O14 0.366300 0.377467 0.160113
O O15 0.310644 0.219470 0.064894
O O16 0.213414 0.914516 0.320741
O O17 0.134955 0.048201 0.255593
O O18 0.103094 0.918240 0.972110
#
# Coordination Sequence:
#
# PCOD9303938 Si02
#       8
#     8   8   8   8   8   8   8   8
#     4  11  23  41  65 104 138 186 228 285 371 433
#     4  12  24  44  74 109 152 196 242 298 368 450
#     4  11  23  44  71 105 144 187 239 305 371 448
#     4  12  26  49  72 106 152 196 254 311 364 450
#     4  11  25  46  71 104 141 193 246 306 379 431
#     4  12  25  47  73 105 142 195 253 317 372 443
#     4  12  26  47  73 106 145 194 257 309 380 447
#     4  11  24  42  69 105 145 184 241 303 370 446
#
# _framework density 23.929718999999999
#
# number of rings (size 3 to 8) (size 9 to 14) (size 15 to 20)
#    0.000    0.500    2.500    7.500    0.000    3.500 
#    0.000    0.000    0.000    0.000    0.000    0.000 
#    0.000    0.000    0.000    0.000    0.000    0.000 
#
# Total GULP energy -178934.498998 kJ/mol
# GULP energy per Si atom -5591.703094 kJ/mol
# Density = 2.387525 g / cm^3
# Si number density = 23.929719 Si / 1000 Ang^3
#
#
#
# Elastic Constant Matrix: (Units=GPa)
#
#
# Indices 1 2 3 4 5 6 
#
# 1 72.2033 6.7369 17.9702 0.0000 1.1724 0.0000
# 2 6.7369 98.4312 9.8306 0.0000 -5.7868 0.0000
# 3 17.9702 9.8306 80.5656 0.0000 7.4697 0.0000
# 4 0.0000 0.0000 0.0000 22.8750 0.0000 -7.3516
# 5 1.1724 -5.7868 7.4697 0.0000 29.6306 0.0000
# 6 0.0000 0.0000 0.0000 -7.3516 0.0000 43.8052
#
#
#
# Elastic Compliance Matrix: (Units=1/GPa)
#
#
# Indices 1 2 3 4 5 6 
#
# 1 0.014710 -0.000681 -0.003207 0.000000 0.000093 0.000000
# 2 -0.000681 0.010483 -0.001351 0.000000 0.002415 0.000000
# 3 -0.003207 -0.001351 0.013623 0.000000 -0.003571 0.000000
# 4 0.000000 0.000000 0.000000 0.046208 0.000000 0.007755
# 5 0.000093 0.002415 -0.003571 0.000000 0.035117 0.000000
# 6 0.000000 0.000000 0.000000 0.007755 0.000000 0.024130
#
#
# Mechanical properties :
#
#
# Convention : Reuss Voigt Hill
#
# Bulk Modulus (GPa) = 35.28739 35.58618 35.43678
# Shear Modulus (GPa) = 30.45160 33.70634 32.07897
#
# Velocity S-wave (km/s) = 3.57114 3.75714 3.66532
# Velocity P-wave (km/s) = 5.63758 5.80732 5.72308
#
# Compressibility (1/GPa) = 0.02833873
#
# Stress axis : x y z
#
# Youngs Moduli (GPa) = 67.98154 95.39351 73.40276
#
# Poissons Ratio (x) = 0.06497 0.23537
# Poissons Ratio (y) = 0.04630 0.09917
# Poissons Ratio (z) = 0.21799 0.12889
#
# Static dielectric constant tensor:
#      x y z
#    x 1.959620 0.000000 0.043850 
#    y 0.000000 1.918610 0.000000 
#    z 0.043850 0.000000 1.980200 
# 
# From -- ./inp_files/70165.got.cif
#   From: 2010.05.17/outbox.cif.g08.bks.cpg/sg15_36_cif.got.tgz:70165.got - 2010.06.03 18:47:42.
