data_PCOD9303432
_publ_section_title
;
Structure prediction by ZEFSAII (Michael W. Deem and Ramdas Pophale) SiO2 
 PCOD9303432
Probable space group: C 2/C
;
_chemical_formula_sum "Si O2"
_cell_formula_units_Z 48
_cell_length_a 8.601160
_cell_length_b 22.173985
_cell_length_c 11.525893
_cell_angle_alpha 90.000000
_cell_angle_beta 81.741836
_cell_angle_gamma 90.000000
_cell_volume 2175.447566
_symmetry_space_group_name_H-M "C 2/C"
_symmetry_group_IT_number 15
_symmetry_cell_setting 'monoclinic'
loop_
_space_group_symop_operation_xyz
x,y,z
-x,y,1/2-z
-x,-y,-z
x,-y,1/2+z
1/2+x,1/2+y,z
1/2-x,1/2+y,1/2-z
1/2-x,1/2-y,-z
1/2+x,1/2-y,1/2+z
loop_
_atom_site_type_symbol
_atom_site_label
_atom_site_fract_x
_atom_site_fract_y
_atom_site_fract_z
Si Si1 0.500000 0.408861 0.250000
Si Si2 0.500000 0.626607 0.250000
Si Si3 0.652937 0.184272 0.293043
Si Si4 0.102904 0.019156 0.384158
Si Si5 0.589640 0.162768 0.568719
Si Si6 0.424242 0.020566 0.887636
Si Si7 0.249056 0.189786 0.710583
O O1 0.602740 0.458467 0.306708
O O2 0.371327 0.362758 0.315342
O O3 0.333386 0.659945 0.270517
O O4 0.519398 0.579104 0.351094
O O5 0.500000 0.151867 0.250000
O O6 0.619543 0.185577 0.435148
O O7 0.669047 0.245141 0.214159
O O8 0.282500 0.026913 0.392393
O O9 0.000000 0.000000 0.500000
O O10 0.609509 0.090679 0.579519
O O11 0.413321 0.181739 0.626208
O O12 0.707262 0.185843 0.656629
O O13 0.500000 0.020571 0.750000
O O14 0.500000 0.000000 0.000000
#
# Coordination Sequence:
#
# PCOD9303432 Si02
#       7
#     4   4   8   8   8   8   8
#     4  11  22  44  70 104 140 183 254 296 378 445
#     4  11  28  46  68 108 154 185 252 306 376 447
#     4  12  28  48  73 110 149 198 247 311 374 447
#     4  11  26  44  70 103 145 193 241 314 375 445
#     4  11  24  46  74 103 145 194 243 306 377 444
#     4  12  27  45  76 109 148 196 249 309 379 459
#     4  11  23  48  73 103 142 190 254 301 368 454
#
# _framework density 22.064425
#
# number of rings (size 3 to 8) (size 9 to 14) (size 15 to 20)
#    0.000    0.667    4.167    2.500   11.667    0.667 
#    0.000    0.000    0.000    0.000    0.000    0.000 
#    0.000    0.000    0.000    0.000    0.000    0.000 
#
# Total GULP energy -133640.142040 kJ/mol
# GULP energy per Si atom -5568.339252 kJ/mol
# Density = 2.201421 g / cm^3
# Si number density = 22.064425 Si / 1000 Ang^3
#
#
#
# Elastic Constant Matrix: (Units=GPa)
#
#
# Indices 1 2 3 4 5 6 
#
# 1 128.5907 22.3479 6.1468 0.0000 6.8045 0.0000
# 2 22.3479 74.3851 -5.2044 0.0000 -4.6646 0.0000
# 3 6.1468 -5.2044 59.6843 0.0000 3.2482 0.0000
# 4 0.0000 0.0000 0.0000 26.3284 0.0000 -0.9700
# 5 6.8045 -4.6646 3.2482 0.0000 28.1879 0.0000
# 6 0.0000 0.0000 0.0000 -0.9700 0.0000 39.2106
#
#
#
# Elastic Compliance Matrix: (Units=1/GPa)
#
#
# Indices 1 2 3 4 5 6 
#
# 1 0.008427 -0.002749 -0.000978 0.000000 -0.002376 0.000000
# 2 -0.002749 0.014550 0.001393 0.000000 0.002911 0.000000
# 3 -0.000978 0.001393 0.017059 0.000000 -0.001499 0.000000
# 4 0.000000 0.000000 0.000000 0.038016 0.000000 0.000940
# 5 -0.002376 0.002911 -0.001499 0.000000 0.036704 0.000000
# 6 0.000000 0.000000 0.000000 0.000940 0.000000 0.025527
#
#
# Mechanical properties :
#
#
# Convention : Reuss Voigt Hill
#
# Bulk Modulus (GPa) = 28.27494 34.36007 31.31751
# Shear Modulus (GPa) = 31.90006 34.70337 33.30172
#
# Velocity S-wave (km/s) = 3.80645 3.97018 3.88918
# Velocity P-wave (km/s) = 5.67109 6.05168 5.86448
#
# Compressibility (1/GPa) = 0.03536700
#
# Stress axis : x y z
#
# Youngs Moduli (GPa) = 118.66738 68.73074 58.62129
#
# Poissons Ratio (x) = 0.18896 0.05735
# Poissons Ratio (y) = 0.32624 -0.08169
# Poissons Ratio (z) = 0.11609 -0.09577
#
# Static dielectric constant tensor:
#      x y z
#    x 1.858260 0.000000 0.010600 
#    y 0.000000 1.806400 0.000000 
#    z 0.010600 0.000000 1.852010 
# 
# From -- ./inp_files/79194.got.cif
#   From: 2010.05.17/outbox.cif.g08.bks.cpg/sg15_40_cif.got.tgz:79194.got - 2010.06.03 18:47:42.
