data_PCOD9303038
_publ_section_title
;
Structure prediction by ZEFSAII (Michael W. Deem and Ramdas Pophale) SiO2 
 PCOD9303038
Probable space group: C 2/C
;
_chemical_formula_sum "Si O2"
_cell_formula_units_Z 44
_cell_length_a 10.069234
_cell_length_b 18.445239
_cell_length_c 10.240061
_cell_angle_alpha 90.000000
_cell_angle_beta 110.168702
_cell_angle_gamma 90.000000
_cell_volume 1785.260205
_symmetry_space_group_name_H-M "C 2/C"
_symmetry_group_IT_number 15
_symmetry_cell_setting 'monoclinic'
loop_
_space_group_symop_operation_xyz
x,y,z
-x,y,1/2-z
-x,-y,-z
x,-y,1/2+z
1/2+x,1/2+y,z
1/2-x,1/2+y,1/2-z
1/2-x,1/2-y,-z
1/2+x,1/2-y,1/2+z
loop_
_atom_site_type_symbol
_atom_site_label
_atom_site_fract_x
_atom_site_fract_y
_atom_site_fract_z
Si Si1 0.468011 0.903083 0.103622
Si Si2 0.000000 0.731046 0.250000
Si Si3 0.044953 0.135289 0.584765
Si Si4 0.266819 0.362458 0.853135
Si Si5 0.274831 0.678264 0.089283
Si Si6 0.728374 0.024611 0.763771
O O1 0.500000 0.857660 0.250000
O O2 0.357685 0.959626 0.130483
O O3 0.614241 0.943303 0.121845
O O4 0.381016 0.859519 0.968828
O O5 0.060690 0.787925 0.163710
O O6 0.124253 0.678927 0.344768
O O7 0.116043 0.135245 0.465452
O O8 0.129716 0.072037 0.687645
O O9 0.878609 0.126785 0.505416
O O10 0.324998 0.313164 0.753580
O O11 0.251309 0.439783 0.775896
O O12 0.250000 0.750000 0.000000
#
# Coordination Sequence:
#
# PCOD9303038 Si02
#       6
#     8   4   8   8   8   8
#     4   7  17  38  64  90 131 166 218 270 319 402
#     4  12  26  46  64 100 140 180 222 276 348 402
#     4  11  24  46  64 101 136 180 217 282 341 405
#     4  12  24  43  71  99 135 175 227 283 332 409
#     4  11  22  41  68  98 131 173 232 271 335 399
#     4   8  19  42  67  97 132 169 225 271 337 400
#
# _framework density 24.646267000000002
#
# number of rings (size 3 to 8) (size 9 to 14) (size 15 to 20)
#    1.091    0.727    1.818    2.727    0.000    3.636 
#   13.091    0.000    0.000    0.000    0.000    0.000 
#    0.000    0.000    0.000    0.000    0.000    0.000 
#
# Total GULP energy -122706.332378 kJ/mol
# GULP energy per Si atom -5577.560563 kJ/mol
# Density = 2.459017 g / cm^3
# Si number density = 24.646267 Si / 1000 Ang^3
#
#
#
# Elastic Constant Matrix: (Units=GPa)
#
#
# Indices 1 2 3 4 5 6 
#
# 1 108.0506 46.9310 41.1454 0.0000 22.5537 0.0000
# 2 46.9310 126.3192 39.8687 0.0000 41.2380 0.0000
# 3 41.1454 39.8687 92.9831 0.0000 30.9821 0.0000
# 4 0.0000 0.0000 0.0000 18.7709 0.0000 0.3796
# 5 22.5537 41.2380 30.9821 0.0000 56.0672 0.0000
# 6 0.0000 0.0000 0.0000 0.3796 0.0000 29.9881
#
#
#
# Elastic Compliance Matrix: (Units=1/GPa)
#
#
# Indices 1 2 3 4 5 6 
#
# 1 0.012204 -0.003163 -0.003902 0.000000 -0.000426 0.000000
# 2 -0.003163 0.011673 -0.001432 0.000000 -0.006522 0.000000
# 3 -0.003902 -0.001432 0.014979 0.000000 -0.005655 0.000000
# 4 0.000000 0.000000 0.000000 0.053288 0.000000 -0.000674
# 5 -0.000426 -0.006522 -0.005655 0.000000 0.025929 0.000000
# 6 0.000000 0.000000 0.000000 -0.000674 0.000000 0.033355
#
#
# Mechanical properties :
#
#
# Convention : Reuss Voigt Hill
#
# Bulk Modulus (GPa) = 45.74317 64.80480 55.27399
# Shear Modulus (GPa) = 28.45617 34.25908 31.35762
#
# Velocity S-wave (km/s) = 3.40160 3.73236 3.57081
# Velocity P-wave (km/s) = 5.83336 6.70261 6.28304
#
# Compressibility (1/GPa) = 0.02186119
#
# Stress axis : x y z
#
# Youngs Moduli (GPa) = 81.94249 85.66950 66.75849
#
# Poissons Ratio (x) = 0.27100 0.26048
# Poissons Ratio (y) = 0.25921 0.09561
# Poissons Ratio (z) = 0.31972 0.12270
#
# Static dielectric constant tensor:
#      x y z
#    x 2.025720 0.000000 -0.005510 
#    y 0.000000 1.954610 0.000000 
#    z -0.005510 0.000000 1.962770 
# 
# From -- ./inp_files/88613.got.cif
#   From: 2010.05.17/outbox.cif.g08.bks.cpg/sg15_45_cif.got.tgz:88613.got - 2010.06.03 18:47:42.
