data_PCOD9303045
_publ_section_title
;
Structure prediction by ZEFSAII (Michael W. Deem and Ramdas Pophale) SiO2 
 PCOD9303045
Probable space group: C 2/C
;
_chemical_formula_sum "Si O2"
_cell_formula_units_Z 36
_cell_length_a 10.320669
_cell_length_b 22.863655
_cell_length_c 7.833930
_cell_angle_alpha 90.000000
_cell_angle_beta 50.277358
_cell_angle_gamma 90.000000
_cell_volume 1421.813337
_symmetry_space_group_name_H-M "C 2/C"
_symmetry_group_IT_number 15
_symmetry_cell_setting 'monoclinic'
loop_
_space_group_symop_operation_xyz
x,y,z
-x,y,1/2-z
-x,-y,-z
x,-y,1/2+z
1/2+x,1/2+y,z
1/2-x,1/2+y,1/2-z
1/2-x,1/2-y,-z
1/2+x,1/2-y,1/2+z
loop_
_atom_site_type_symbol
_atom_site_label
_atom_site_fract_x
_atom_site_fract_y
_atom_site_fract_z
Si Si1 0.106396 0.174530 0.951696
Si Si2 0.105091 0.281242 0.509440
Si Si3 0.500000 0.409002 0.250000
Si Si4 0.696129 0.482847 0.874396
Si Si5 0.683066 0.093774 0.540230
O O1 0.286733 0.180816 0.706986
O O2 0.172180 0.144303 0.070131
O O3 0.008579 0.235912 0.006591
O O4 0.009304 0.130330 0.910038
O O5 0.250000 0.250000 0.500000
O O6 0.000000 0.311184 0.750000
O O7 0.333803 0.447139 0.423981
O O8 0.783413 0.542955 0.849082
O O9 0.788065 0.441015 0.661715
O O10 0.500000 0.500000 0.000000
O O11 0.500000 0.115907 0.750000
#
# Coordination Sequence:
#
# PCOD9303045 Si02
#       5
#     8   8   4   8   8
#     4  11  22  41  69 104 135 183 236 284 347 415
#     4   9  18  38  67  98 136 175 234 288 332 412
#     4  12  22  38  78 102 128 180 240 280 352 410
#     4  12  23  44  71 104 136 183 235 289 343 430
#     4  12  26  45  69 103 148 185 229 290 357 419
#
# _framework density 25.319780999999999
#
# number of rings (size 3 to 8) (size 9 to 14) (size 15 to 20)
#    0.000    0.889    7.778    0.667    0.000    1.778 
#    0.000    2.222    0.000    0.000    0.000    0.000 
#    0.000    0.000    0.000    0.000    0.000    0.000 
#
# Total GULP energy -100454.528851 kJ/mol
# GULP energy per Si atom -5580.807158 kJ/mol
# Density = 2.526215 g / cm^3
# Si number density = 25.319781 Si / 1000 Ang^3
#
#
#
# Elastic Constant Matrix: (Units=GPa)
#
#
# Indices 1 2 3 4 5 6 
#
# 1 73.1522 15.2629 21.9522 0.0000 -5.4838 0.0000
# 2 15.2629 45.7361 -8.3201 0.0000 -3.9099 0.0000
# 3 21.9522 -8.3201 90.2430 0.0000 -9.7408 0.0000
# 4 0.0000 0.0000 0.0000 39.7537 0.0000 -1.3859
# 5 -5.4838 -3.9099 -9.7408 0.0000 44.8878 0.0000
# 6 0.0000 0.0000 0.0000 -1.3859 0.0000 47.5743
#
#
#
# Elastic Compliance Matrix: (Units=1/GPa)
#
#
# Indices 1 2 3 4 5 6 
#
# 1 0.016359 -0.006237 -0.004503 0.000000 0.000478 0.000000
# 2 -0.006237 0.024880 0.004058 0.000000 0.002286 0.000000
# 3 -0.004503 0.004058 0.012830 0.000000 0.002587 0.000000
# 4 0.000000 0.000000 0.000000 0.025180 0.000000 0.000734
# 5 0.000478 0.002286 0.002587 0.000000 0.023097 0.000000
# 6 0.000000 0.000000 0.000000 0.000734 0.000000 0.021041
#
#
# Mechanical properties :
#
#
# Convention : Reuss Voigt Hill
#
# Bulk Modulus (GPa) = 24.56795 29.65793 27.11294
# Shear Modulus (GPa) = 33.26258 38.45894 35.86076
#
# Velocity S-wave (km/s) = 3.62843 3.90157 3.76748
# Velocity P-wave (km/s) = 5.22285 5.65996 5.44579
#
# Compressibility (1/GPa) = 0.04070343
#
# Stress axis : x y z
#
# Youngs Moduli (GPa) = 61.12986 40.19349 77.94271
#
# Poissons Ratio (x) = 0.25070 0.35096
# Poissons Ratio (y) = 0.38129 -0.31628
# Poissons Ratio (z) = 0.27526 -0.16310
#
# Static dielectric constant tensor:
#      x y z
#    x 2.137650 0.000000 0.100850 
#    y 0.000000 2.077250 0.000000 
#    z 0.100850 0.000000 2.154110 
# 
# From -- ./inp_files/31690.got.cif
#   From: 2010.05.17/outbox.cif.g08.bks.cpg/sg15_16_cif.got.tgz:31690.got - 2010.06.03 18:47:42.
