data_PCOD9303238
_publ_section_title
;
Structure prediction by ZEFSAII (Michael W. Deem and Ramdas Pophale) SiO2 
 PCOD9303238
Probable space group: C 2/C
;
_chemical_formula_sum "Si O2"
_cell_formula_units_Z 52
_cell_length_a 11.587952
_cell_length_b 15.388552
_cell_length_c 15.017994
_cell_angle_alpha 90.000000
_cell_angle_beta 110.701427
_cell_angle_gamma 90.000000
_cell_volume 2505.128981
_symmetry_space_group_name_H-M "C 2/C"
_symmetry_group_IT_number 15
_symmetry_cell_setting 'monoclinic'
loop_
_space_group_symop_operation_xyz
x,y,z
-x,y,1/2-z
-x,-y,-z
x,-y,1/2+z
1/2+x,1/2+y,z
1/2-x,1/2+y,1/2-z
1/2-x,1/2-y,-z
1/2+x,1/2-y,1/2+z
loop_
_atom_site_type_symbol
_atom_site_label
_atom_site_fract_x
_atom_site_fract_y
_atom_site_fract_z
Si Si1 0.376464 0.426590 0.033521
Si Si2 0.868666 0.364198 0.262091
Si Si3 0.602444 0.925477 0.028825
Si Si4 0.557403 0.753880 0.906822
Si Si5 0.307303 0.781894 0.730360
Si Si6 0.500000 0.512756 0.750000
Si Si7 0.296249 0.471184 0.823205
O O1 0.236622 0.447981 0.026038
O O2 0.414656 0.327291 0.022897
O O3 0.452448 0.440223 0.146822
O O4 0.378110 0.469741 0.935818
O O5 0.885169 0.396824 0.366666
O O6 0.803168 0.270526 0.253485
O O7 0.780849 0.439240 0.196611
O O8 0.000000 0.359747 0.250000
O O9 0.562248 0.843343 0.960101
O O10 0.500000 0.000000 0.000000
O O11 0.427331 0.756971 0.820608
O O12 0.663327 0.746976 0.860442
O O13 0.287600 0.884717 0.708877
O O14 0.382460 0.465229 0.759447
#
# Coordination Sequence:
#
# PCOD9303238 Si02
#       7
#     8   8   8   8   8   4   8
#     4  12  23  45  71 100 135 182 241 288 345 418
#     4  12  26  45  68 102 145 181 229 296 356 409
#     4  12  23  41  67 102 139 177 233 290 346 415
#     4  11  22  42  73  99 130 184 238 283 338 421
#     4  11  24  43  70 103 142 178 233 289 347 417
#     4  12  26  44  70 100 142 180 234 292 348 418
#     4  12  25  44  72 103 139 187 233 287 356 418
#
# _framework density 20.757414000000001
#
# number of rings (size 3 to 8) (size 9 to 14) (size 15 to 20)
#    0.000    0.308    4.615    5.538    3.231    0.000 
#    0.000    0.769    0.000    0.000    0.000    0.000 
#    0.000    0.000    0.000    0.000    0.000    0.000 
#
# Total GULP energy -145088.769493 kJ/mol
# GULP energy per Si atom -5580.337288 kJ/mol
# Density = 2.071017 g / cm^3
# Si number density = 20.757414 Si / 1000 Ang^3
#
#
#
# Elastic Constant Matrix: (Units=GPa)
#
#
# Indices 1 2 3 4 5 6 
#
# 1 69.3815 24.6753 33.2180 0.0000 -10.9202 0.0000
# 2 24.6753 85.2384 41.7458 0.0000 4.6866 0.0000
# 3 33.2180 41.7458 115.7056 0.0000 1.2246 0.0000
# 4 0.0000 0.0000 0.0000 -67.0414 0.0000 241.0716
# 5 -10.9202 4.6866 1.2246 0.0000 36.6854 0.0000
# 6 0.0000 0.0000 0.0000 241.0716 0.0000 -478.6015
#
#
#
# Elastic Compliance Matrix: (Units=1/GPa)
#
#
# Indices 1 2 3 4 5 6 
#
# 1 0.018667 -0.003749 -0.004072 0.000000 0.006172 0.000000
# 2 -0.003749 0.015103 -0.004342 0.000000 -0.002900 0.000000
# 3 -0.004072 -0.004342 0.011389 0.000000 -0.001038 0.000000
# 4 0.000000 0.000000 0.000000 0.018387 0.000000 0.009262
# 5 0.006172 -0.002900 -0.001038 0.000000 0.029501 0.000000
# 6 0.000000 0.000000 0.000000 0.009262 0.000000 0.002576
#
#
# Mechanical properties :
#
#
# Convention : Reuss Voigt Hill
#
# Bulk Modulus (GPa) = 47.99941 52.17817 50.08879
# Shear Modulus (GPa) = 39.40302 -90.41241 -25.50469
#
# Velocity S-wave (km/s) = 4.36163 -6.60691 -3.50909
# Velocity P-wave (km/s) = 6.96701 5.74543 2.78652
#
# Compressibility (1/GPa) = 0.02083359
#
# Stress axis : x y z
#
# Youngs Moduli (GPa) = 53.56964 66.21147 87.80240
#
# Poissons Ratio (x) = 0.24823 0.35752
# Poissons Ratio (y) = 0.20083 0.38125
# Poissons Ratio (z) = 0.21813 0.28750
#
# Static dielectric constant tensor:
#      x y z
#    x 1.555560 0.000000 -0.087930 
#    y 0.000000 1.800880 0.000000 
#    z -0.087930 0.000000 1.656940 
# 
# From -- ./inp_files/144324.got.cif
#   From: 2010.05.17/outbox.cif.g08.bks.cpg/sg15_73_cif.got.tgz:144324.got - 2010.06.03 18:47:42.
