data_PCOD9303319
_publ_section_title
;
Structure prediction by ZEFSAII (Michael W. Deem and Ramdas Pophale) SiO2 
 PCOD9303319
Probable space group: C 2/C
;
_chemical_formula_sum "Si O2"
_cell_formula_units_Z 40
_cell_length_a 14.531380
_cell_length_b 10.910490
_cell_length_c 18.530067
_cell_angle_alpha 90.000000
_cell_angle_beta 31.949839
_cell_angle_gamma 90.000000
_cell_volume 1554.636108
_symmetry_space_group_name_H-M "C 2/C"
_symmetry_group_IT_number 15
_symmetry_cell_setting 'monoclinic'
loop_
_space_group_symop_operation_xyz
x,y,z
-x,y,1/2-z
-x,-y,-z
x,-y,1/2+z
1/2+x,1/2+y,z
1/2-x,1/2+y,1/2-z
1/2-x,1/2-y,-z
1/2+x,1/2-y,1/2+z
loop_
_atom_site_type_symbol
_atom_site_label
_atom_site_fract_x
_atom_site_fract_y
_atom_site_fract_z
Si Si1 0.534826 0.365518 0.445356
Si Si2 0.000000 0.076128 0.250000
Si Si3 0.500000 0.014483 0.250000
Si Si4 0.534840 0.129855 0.071649
Si Si5 0.222609 0.007665 0.706955
Si Si6 0.250937 0.287449 0.081804
O O1 0.500000 0.500000 0.500000
O O2 0.420230 0.271172 0.475765
O O3 0.700797 0.387864 0.282833
O O4 0.570689 0.291860 0.495354
O O5 0.142850 0.173379 0.183024
O O6 0.020707 0.999404 0.309733
O O7 0.658427 0.917545 0.153521
O O8 0.530255 0.092549 0.158072
O O9 0.343848 0.092323 0.166972
O O10 0.671551 0.049708 0.934555
O O11 0.250000 0.250000 0.000000
#
# Coordination Sequence:
#
# PCOD9303319 Si02
#       6
#     8   4   4   8   8   8
#     4  12  27  46  76 112 152 200 257 318 388 464
#     4  11  22  43  70 102 144 193 261 302 364 452
#     4  11  24  45  72 108 146 203 247 318 388 450
#     4  11  26  47  75 110 157 196 251 319 393 458
#     4  11  25  47  75 110 149 200 255 319 383 457
#     4  11  23  40  71 106 146 193 258 313 365 453
#
# _framework density 25.729493000000002
#
# number of rings (size 3 to 8) (size 9 to 14) (size 15 to 20)
#    0.000    0.800    4.000    2.400    5.600    0.800 
#    0.000    3.000    0.000    0.000    0.000    0.000 
#    0.000    0.000    0.000    0.000    0.000    0.000 
#
# Total GULP energy -111425.517473 kJ/mol
# GULP energy per Si atom -5571.275874 kJ/mol
# Density = 2.567093 g / cm^3
# Si number density = 25.729493 Si / 1000 Ang^3
#
#
#
# Elastic Constant Matrix: (Units=GPa)
#
#
# Indices 1 2 3 4 5 6 
#
# 1 135.4166 40.4369 43.9569 -0.0004 31.3573 0.0009
# 2 40.4369 146.4086 26.4352 -0.0006 19.8547 0.0010
# 3 43.9569 26.4352 81.7902 -0.0013 35.5627 0.0023
# 4 -0.0004 -0.0006 -0.0013 37.9301 0.0005 -10.4343
# 5 31.3573 19.8547 35.5627 0.0005 48.5300 -0.0006
# 6 0.0009 0.0010 0.0023 -10.4343 -0.0006 5.3829
#
#
#
# Elastic Compliance Matrix: (Units=1/GPa)
#
#
# Indices 1 2 3 4 5 6 
#
# 1 0.009679 -0.001649 -0.003292 0.000000 -0.003167 -0.000001
# 2 -0.001649 0.007648 -0.001010 0.000000 -0.001323 -0.000001
# 3 -0.003292 -0.001010 0.019398 -0.000004 -0.011675 -0.000015
# 4 0.000000 0.000000 -0.000004 0.056484 0.000004 0.109491
# 5 -0.003167 -0.001323 -0.011675 0.000004 0.031749 0.000016
# 6 -0.000001 -0.000001 -0.000015 0.109491 0.000016 0.398013
#
#
# Mechanical properties :
#
#
# Convention : Reuss Voigt Hill
#
# Bulk Modulus (GPa) = 40.28641 65.03040 52.65841
# Shear Modulus (GPa) = 9.20561 35.22102 22.21331
#
# Velocity S-wave (km/s) = 1.89357 3.70387 2.94145
# Velocity P-wave (km/s) = 4.52465 6.60463 5.66099
#
# Compressibility (1/GPa) = 0.02482227
#
# Stress axis : x y z
#
# Youngs Moduli (GPa) = 103.31612 130.76116 51.55118
#
# Poissons Ratio (x) = 0.21568 0.16969
# Poissons Ratio (y) = 0.17041 0.05207
# Poissons Ratio (z) = 0.34008 0.13209
#
# Static dielectric constant tensor:
#      x y z
#    x 3.339010 0.000010 0.191690 
#    y 0.000010 0.880480 0.000000 
#    z 0.191690 0.000000 2.210830 
# 
# From -- ./inp_files/203805.got.cif
#   From: 2010.05.17/outbox.cif.g08.bks.cpg/sg15_102_cif.got.tgz:203805.got - 2010.06.03 18:47:42.
