data_PCOD9303668
_publ_section_title
;
Structure prediction by ZEFSAII (Michael W. Deem and Ramdas Pophale) SiO2 
 PCOD9303668
Probable space group: C 2/C
;
_chemical_formula_sum "Si O2"
_cell_formula_units_Z 48
_cell_length_a 7.998153
_cell_length_b 14.649090
_cell_length_c 15.875513
_cell_angle_alpha 90.000000
_cell_angle_beta 83.645489
_cell_angle_gamma 90.000000
_cell_volume 1848.636964
_symmetry_space_group_name_H-M "C 2/C"
_symmetry_group_IT_number 15
_symmetry_cell_setting 'monoclinic'
loop_
_space_group_symop_operation_xyz
x,y,z
-x,y,1/2-z
-x,-y,-z
x,-y,1/2+z
1/2+x,1/2+y,z
1/2-x,1/2+y,1/2-z
1/2-x,1/2-y,-z
1/2+x,1/2-y,1/2+z
loop_
_atom_site_type_symbol
_atom_site_label
_atom_site_fract_x
_atom_site_fract_y
_atom_site_fract_z
Si Si1 0.201523 0.004846 0.473853
Si Si2 0.500000 0.831164 0.750000
Si Si3 0.834432 0.511770 0.157588
Si Si4 0.935256 0.183749 0.637740
Si Si5 0.392723 0.300020 0.543683
Si Si6 0.077484 0.647719 0.640273
Si Si7 0.000000 0.980583 0.250000
O O1 0.314520 0.929342 0.418939
O O2 0.287585 0.002108 0.562174
O O3 0.193533 0.103436 0.427582
O O4 0.000000 0.000000 0.500000
O O5 0.558999 0.752836 0.679202
O O6 0.559072 0.902257 0.818903
O O7 0.667157 0.532305 0.220269
O O8 0.925359 0.417882 0.179914
O O9 0.739279 0.198684 0.672884
O O10 0.977870 0.085007 0.671571
O O11 0.963594 0.187400 0.536761
O O12 0.250000 0.250000 0.500000
O O13 0.478251 0.232078 0.604308
#
# Coordination Sequence:
#
# PCOD9303668 Si02
#       7
#     8   4   8   8   8   8   4
#     4  12  25  44  76 111 144 186 242 313 379 443
#     4  11  28  42  72  99 142 196 245 294 356 451
#     4  12  25  48  70 107 142 193 245 294 374 443
#     4  11  24  46  66 102 145 185 244 294 360 447
#     4  12  24  44  72 112 142 187 239 309 383 433
#     4  12  25  46  75 106 151 186 245 320 380 440
#     4  11  22  48  70  91 146 194 231 294 354 447
#
# _framework density 25.965074999999999
#
# number of rings (size 3 to 8) (size 9 to 14) (size 15 to 20)
#    0.000    0.333    5.000    3.000    4.667    0.000 
#    0.000    3.333    0.000    0.000    0.000    0.000 
#    0.000    0.000    0.000    0.000    0.000    0.000 
#
# Total GULP energy -133662.985448 kJ/mol
# GULP energy per Si atom -5569.291060 kJ/mol
# Density = 2.590598 g / cm^3
# Si number density = 25.965075 Si / 1000 Ang^3
#
#
#
# Elastic Constant Matrix: (Units=GPa)
#
#
# Indices 1 2 3 4 5 6 
#
# 1 131.3699 25.8205 19.9536 0.0000 8.3590 0.0000
# 2 25.8205 116.4004 28.9563 0.0000 8.6302 0.0000
# 3 19.9536 28.9563 68.3470 0.0000 15.7761 0.0000
# 4 0.0000 0.0000 0.0000 35.9981 0.0000 11.5982
# 5 8.3590 8.6302 15.7761 0.0000 50.9123 0.0000
# 6 0.0000 0.0000 0.0000 11.5982 0.0000 18.2188
#
#
#
# Elastic Compliance Matrix: (Units=1/GPa)
#
#
# Indices 1 2 3 4 5 6 
#
# 1 0.008170 -0.001351 -0.001676 0.000000 -0.000593 0.000000
# 2 -0.001351 0.009834 -0.003703 0.000000 -0.000298 0.000000
# 3 -0.001676 -0.003703 0.017751 0.000000 -0.004597 0.000000
# 4 0.000000 0.000000 0.000000 0.034947 0.000000 -0.022248
# 5 -0.000593 -0.000298 -0.004597 0.000000 0.021214 0.000000
# 6 0.000000 0.000000 0.000000 -0.022248 0.000000 0.069051
#
#
# Mechanical properties :
#
#
# Convention : Reuss Voigt Hill
#
# Bulk Modulus (GPa) = 44.85519 51.73089 48.29304
# Shear Modulus (GPa) = 27.49378 37.11829 32.30604
#
# Velocity S-wave (km/s) = 3.25757 3.78504 3.53116
# Velocity P-wave (km/s) = 5.60907 6.25048 5.93844
#
# Compressibility (1/GPa) = 0.02229396
#
# Stress axis : x y z
#
# Youngs Moduli (GPa) = 122.39927 101.68699 56.33635
#
# Poissons Ratio (x) = 0.13743 0.09440
# Poissons Ratio (y) = 0.16542 0.20862
# Poissons Ratio (z) = 0.20511 0.37656
#
# Static dielectric constant tensor:
#      x y z
#    x 2.263840 0.000000 -0.114980 
#    y 0.000000 2.121970 0.000000 
#    z -0.114980 0.000000 2.259200 
# 
# From -- ./inp_files/189307.got.cif
#   From: 2010.05.17/outbox.cif.g08.bks.cpg/sg15_95_cif.got.tgz:189307.got - 2010.06.03 18:47:42.
