data_PCOD9303012
_publ_section_title
;
Structure prediction by ZEFSAII (Michael W. Deem and Ramdas Pophale) SiO2 
 PCOD9303012
Probable space group: C 2/C
;
_chemical_formula_sum "Si O2"
_cell_formula_units_Z 48
_cell_length_a 13.829227
_cell_length_b 16.341664
_cell_length_c 17.413641
_cell_angle_alpha 90.000000
_cell_angle_beta 148.358487
_cell_angle_gamma 90.000000
_cell_volume 2064.497861
_symmetry_space_group_name_H-M "C 2/C"
_symmetry_group_IT_number 15
_symmetry_cell_setting 'monoclinic'
loop_
_space_group_symop_operation_xyz
x,y,z
-x,y,1/2-z
-x,-y,-z
x,-y,1/2+z
1/2+x,1/2+y,z
1/2-x,1/2+y,1/2-z
1/2-x,1/2-y,-z
1/2+x,1/2-y,1/2+z
loop_
_atom_site_type_symbol
_atom_site_label
_atom_site_fract_x
_atom_site_fract_y
_atom_site_fract_z
Si Si1 0.407417 0.285176 0.049652
Si Si2 0.707826 0.896045 0.369598
Si Si3 0.699554 0.406800 0.244496
Si Si4 0.165069 0.583927 0.313887
Si Si5 0.952490 0.077485 0.304864
Si Si6 0.562024 0.876597 0.579593
O O1 0.573707 0.337211 0.199924
O O2 0.495900 0.211221 0.063566
O O3 0.250000 0.250000 0.000000
O O4 0.326876 0.352034 0.935266
O O5 0.500000 0.866603 0.250000
O O6 0.759987 0.881673 0.316128
O O7 0.879290 0.874540 0.540786
O O8 0.701485 0.995261 0.373021
O O9 0.594304 0.493150 0.181571
O O10 0.896190 0.413370 0.418838
O O11 0.097576 0.573945 0.182084
O O12 0.000000 0.622728 0.250000
O O13 0.760073 0.126461 0.173468
O O14 0.000000 0.055302 0.250000
#
# Coordination Sequence:
#
# PCOD9303012 Si02
#       6
#     8   8   8   8   8   8
#     4  12  26  45  68 105 147 190 225 286 362 422
#     4  11  24  46  73 102 136 184 237 289 351 405
#     4  12  26  44  72 105 142 188 235 285 351 422
#     4  11  22  41  67  98 142 181 224 287 344 411
#     4  12  26  44  71 101 140 186 238 292 338 410
#     4  12  26  42  66 103 144 181 236 285 347 416
#
# _framework density 23.250205999999999
#
# number of rings (size 3 to 8) (size 9 to 14) (size 15 to 20)
#    0.000    0.333    5.000    4.000    7.000    0.000 
#    0.000    0.833    0.000    5.000    0.000    0.000 
#    0.000    0.000    0.000    0.000    0.000    0.000 
#
# Total GULP energy -134236.550796 kJ/mol
# GULP energy per Si atom -5593.189617 kJ/mol
# Density = 2.319729 g / cm^3
# Si number density = 23.250206 Si / 1000 Ang^3
#
#
#
# Elastic Constant Matrix: (Units=GPa)
#
#
# Indices 1 2 3 4 5 6 
#
# 1 151.5037 8.6507 53.4829 0.0009 23.1167 0.0009
# 2 8.6507 44.2734 -2.6918 -0.0014 25.4700 0.0000
# 3 53.4829 -2.6918 175.2882 -0.0007 24.6206 0.0007
# 4 0.0009 -0.0014 -0.0007 28.5337 0.0004 9.0592
# 5 23.1167 25.4700 24.6206 0.0004 46.0459 0.0006
# 6 0.0009 0.0000 0.0007 9.0592 0.0006 26.5087
#
#
#
# Elastic Compliance Matrix: (Units=1/GPa)
#
#
# Indices 1 2 3 4 5 6 
#
# 1 0.007724 0.000000 -0.001959 0.000000 -0.002830 0.000000
# 2 0.000000 0.035034 0.003525 0.000002 -0.021263 0.000000
# 3 -0.001959 0.003525 0.007020 0.000001 -0.004719 0.000000
# 4 0.000000 0.000002 0.000001 0.039312 -0.000002 -0.013435
# 5 -0.002830 -0.021263 -0.004719 -0.000002 0.037423 0.000000
# 6 0.000000 0.000000 0.000000 -0.013435 0.000000 0.042315
#
#
# Mechanical properties :
#
#
# Convention : Reuss Voigt Hill
#
# Bulk Modulus (GPa) = 18.90085 54.43875 36.66980
# Shear Modulus (GPa) = 27.27288 40.99256 34.13272
#
# Velocity S-wave (km/s) = 3.42865 4.20349 3.83568
# Velocity P-wave (km/s) = 4.88069 6.85742 5.95170
#
# Compressibility (1/GPa) = 0.05290767
#
# Stress axis : x y z
#
# Youngs Moduli (GPa) = 129.46758 28.54397 142.45669
#
# Poissons Ratio (x) = 0.00001 0.27910
# Poissons Ratio (y) = 0.00003 -0.50211
# Poissons Ratio (z) = 0.25365 -0.10061
#
# Static dielectric constant tensor:
#      x y z
#    x 1.875200 0.000000 0.031940 
#    y 0.000000 1.887770 0.000000 
#    z 0.031940 0.000000 1.948370 
# 
# From -- ./inp_files/206506.got.cif
#   From: 2010.05.17/outbox.cif.g08.bks.cpg/sg15_104_cif.got.tgz:206506.got - 2010.06.03 18:47:42.
