data_PCOD9303863
_publ_section_title
;
Structure prediction by ZEFSAII (Michael W. Deem and Ramdas Pophale) SiO2 
 PCOD9303863
Probable space group: C 2/C
;
_chemical_formula_sum "Si O2"
_cell_formula_units_Z 40
_cell_length_a 17.209804
_cell_length_b 11.064114
_cell_length_c 9.054406
_cell_angle_alpha 90.000000
_cell_angle_beta 73.831075
_cell_angle_gamma 90.000000
_cell_volume 1655.865152
_symmetry_space_group_name_H-M "C 2/C"
_symmetry_group_IT_number 15
_symmetry_cell_setting 'monoclinic'
loop_
_space_group_symop_operation_xyz
x,y,z
-x,y,1/2-z
-x,-y,-z
x,-y,1/2+z
1/2+x,1/2+y,z
1/2-x,1/2+y,1/2-z
1/2-x,1/2-y,-z
1/2+x,1/2-y,1/2+z
loop_
_atom_site_type_symbol
_atom_site_label
_atom_site_fract_x
_atom_site_fract_y
_atom_site_fract_z
Si Si1 0.182905 0.714172 0.360021
Si Si2 0.420928 0.412133 0.570443
Si Si3 0.556810 0.938523 0.089028
Si Si4 0.821612 0.925077 0.913170
Si Si5 0.410914 0.804346 0.870213
O O1 0.105468 0.666405 0.489219
O O2 0.203841 0.832632 0.441216
O O3 0.247121 0.605656 0.342017
O O4 0.154812 0.745913 0.210467
O O5 0.500000 0.500000 0.500000
O O6 0.395297 0.411148 0.755536
O O7 0.351656 0.464973 0.497724
O O8 0.423523 0.274101 0.510273
O O9 0.500000 0.896715 0.250000
O O10 0.611270 0.053750 0.105895
O O11 0.500000 0.000000 0.000000
O O12 0.500000 0.801662 0.750000
#
# Coordination Sequence:
#
# PCOD9303863 Si02
#       5
#     8   8   8   8   8
#     4  11  25  46  65 100 140 175 225 276 342 413
#     4  12  26  46  72  99 132 183 233 285 335 404
#     4  11  23  40  67 101 131 176 222 275 333 400
#     4  11  27  44  68  99 135 178 225 282 344 401
#     4  11  23  43  68 100 134 175 226 278 333 403
#
# _framework density 24.156555999999998
#
# number of rings (size 3 to 8) (size 9 to 14) (size 15 to 20)
#    0.000    0.800    4.000    4.200    5.600    0.800 
#    3.600    0.000    0.000    0.000    0.000    0.000 
#    0.000    0.000    0.000    0.000    0.000    0.000 
#
# Total GULP energy -111501.624482 kJ/mol
# GULP energy per Si atom -5575.081224 kJ/mol
# Density = 2.410157 g / cm^3
# Si number density = 24.156556 Si / 1000 Ang^3
#
#
#
# Elastic Constant Matrix: (Units=GPa)
#
#
# Indices 1 2 3 4 5 6 
#
# 1 76.5674 -3.8588 6.0424 0.0000 18.7765 0.0000
# 2 -3.8588 37.0908 -6.6190 0.0000 6.6924 0.0000
# 3 6.0424 -6.6190 98.5035 0.0000 11.5733 0.0000
# 4 0.0000 0.0000 0.0000 40.5457 0.0000 8.3594
# 5 18.7765 6.6924 11.5733 0.0000 35.9425 0.0000
# 6 0.0000 0.0000 0.0000 8.3594 0.0000 23.2540
#
#
#
# Elastic Compliance Matrix: (Units=1/GPa)
#
#
# Indices 1 2 3 4 5 6 
#
# 1 0.015334 0.003219 0.000299 0.000000 -0.008706 0.000000
# 2 0.003219 0.029221 0.002705 0.000000 -0.007994 0.000000
# 3 0.000299 0.002705 0.010802 0.000000 -0.004138 0.000000
# 4 0.000000 0.000000 0.000000 0.026638 0.000000 -0.009576
# 5 -0.008706 -0.007994 -0.004138 0.000000 0.035191 0.000000
# 6 0.000000 0.000000 0.000000 -0.009576 0.000000 0.046446
#
#
# Mechanical properties :
#
#
# Convention : Reuss Voigt Hill
#
# Bulk Modulus (GPa) = 14.74856 22.58786 18.66821
# Shear Modulus (GPa) = 28.77110 34.38826 31.57968
#
# Velocity S-wave (km/s) = 3.45487 3.77710 3.61957
# Velocity P-wave (km/s) = 4.69398 5.32850 5.02127
#
# Compressibility (1/GPa) = 0.06780325
#
# Stress axis : x y z
#
# Youngs Moduli (GPa) = 65.21421 34.22206 92.57941
#
# Poissons Ratio (x) = -0.11018 -0.02765
# Poissons Ratio (y) = -0.20996 -0.25045
# Poissons Ratio (z) = -0.01947 -0.09258
#
# Static dielectric constant tensor:
#      x y z
#    x 2.024050 0.000000 0.024360 
#    y 0.000000 2.092150 0.000000 
#    z 0.024360 0.000000 1.923400 
# 
# From -- ./inp_files/46058.got.cif
#   From: 2010.05.17/outbox.cif.g08.bks.cpg/sg15_24_cif.got.tgz:46058.got - 2010.06.03 18:47:42.
