data_PCOD9303049
_publ_section_title
;
Structure prediction by ZEFSAII (Michael W. Deem and Ramdas Pophale) SiO2 
 PCOD9303049
Probable space group: C 2/C
;
_chemical_formula_sum "Si O2"
_cell_formula_units_Z 48
_cell_length_a 10.576845
_cell_length_b 27.130455
_cell_length_c 9.117424
_cell_angle_alpha 90.000000
_cell_angle_beta 117.553792
_cell_angle_gamma 90.000000
_cell_volume 2319.539623
_symmetry_space_group_name_H-M "C 2/C"
_symmetry_group_IT_number 15
_symmetry_cell_setting 'monoclinic'
loop_
_space_group_symop_operation_xyz
x,y,z
-x,y,1/2-z
-x,-y,-z
x,-y,1/2+z
1/2+x,1/2+y,z
1/2-x,1/2+y,1/2-z
1/2-x,1/2-y,-z
1/2+x,1/2-y,1/2+z
loop_
_atom_site_type_symbol
_atom_site_label
_atom_site_fract_x
_atom_site_fract_y
_atom_site_fract_z
Si Si1 0.620889 0.854000 0.189467
Si Si2 0.047955 0.707868 0.124847
Si Si3 0.173016 0.151481 0.224188
Si Si4 0.108640 0.191926 0.513152
Si Si5 0.166517 0.960087 0.826938
Si Si6 0.657248 0.035132 0.778545
O O1 0.500000 0.845875 0.250000
O O2 0.769425 0.832219 0.324030
O O3 0.633776 0.912887 0.182922
O O4 0.568889 0.824860 0.019848
O O5 0.173833 0.670969 0.237947
O O6 0.097730 0.750455 0.040976
O O7 0.000000 0.732795 0.250000
O O8 0.146232 0.178604 0.365916
O O9 0.167091 0.093680 0.252441
O O10 0.047284 0.168097 0.049284
O O11 0.000000 0.975630 0.750000
O O12 0.261668 0.996904 0.781592
O O13 0.242201 0.955602 0.025918
O O14 0.500000 0.018666 0.750000
#
# Coordination Sequence:
#
# PCOD9303049 Si02
#       6
#     8   8   8   8   8   8
#     4  11  22  43  68  95 130 177 227 262 317 410
#     4  12  27  42  64 100 136 169 216 281 340 380
#     4  11  22  42  69  95 130 176 227 264 319 402
#     4  11  22  41  69  94 128 174 224 265 314 395
#     4  12  23  44  69 101 133 175 225 276 329 397
#     4  11  24  43  68 101 135 174 221 277 335 393
#
# _framework density 20.693762
#
# number of rings (size 3 to 8) (size 9 to 14) (size 15 to 20)
#    0.000    0.667    5.000    3.500    2.333    4.667 
#    0.000    0.833    0.000    0.000    0.000    0.000 
#    0.000    0.000    0.000    0.000    0.000    0.000 
#
# Total GULP energy -134202.508222 kJ/mol
# GULP energy per Si atom -5591.771176 kJ/mol
# Density = 2.064666 g / cm^3
# Si number density = 20.693762 Si / 1000 Ang^3
#
#
#
# Elastic Constant Matrix: (Units=GPa)
#
#
# Indices 1 2 3 4 5 6 
#
# 1 74.9772 55.0955 48.7354 0.0000 27.2377 0.0000
# 2 55.0955 139.9781 47.7030 0.0000 -1.0771 0.0000
# 3 48.7354 47.7030 71.6853 0.0000 28.5453 0.0000
# 4 0.0000 0.0000 0.0000 22.5145 0.0000 6.4732
# 5 27.2377 -1.0771 28.5453 0.0000 36.1975 0.0000
# 6 0.0000 0.0000 0.0000 6.4732 0.0000 45.9229
#
#
#
# Elastic Compliance Matrix: (Units=1/GPa)
#
#
# Indices 1 2 3 4 5 6 
#
# 1 0.033072 -0.010422 -0.008040 0.000000 -0.018855 0.000000
# 2 -0.010422 0.014153 -0.008197 0.000000 0.014728 0.000000
# 3 -0.008040 -0.008197 0.032886 0.000000 -0.020128 0.000000
# 4 0.000000 0.000000 0.000000 0.046292 0.000000 -0.006525
# 5 -0.018855 0.014728 -0.020128 0.000000 0.058125 0.000000
# 6 0.000000 0.000000 0.000000 -0.006525 0.000000 0.022695
#
#
# Mechanical properties :
#
#
# Convention : Reuss Voigt Hill
#
# Bulk Modulus (GPa) = 37.32578 65.52316 51.42447
# Shear Modulus (GPa) = 18.55472 29.93410 24.24441
#
# Velocity S-wave (km/s) = 2.99763 3.80745 3.42655
# Velocity P-wave (km/s) = 5.48247 7.14569 6.36861
#
# Compressibility (1/GPa) = 0.02679113
#
# Stress axis : x y z
#
# Youngs Moduli (GPa) = 30.23722 70.65622 30.40812
#
# Poissons Ratio (x) = 0.73639 0.24449
# Poissons Ratio (y) = 0.31514 0.24927
# Poissons Ratio (z) = 0.24312 0.57919
#
# Static dielectric constant tensor:
#      x y z
#    x 1.790990 0.000000 -0.004790 
#    y 0.000000 1.708460 0.000000 
#    z -0.004790 0.000000 1.730950 
# 
# From -- ./inp_files/33802.got.cif
#   From: 2010.05.17/outbox.cif.g08.bks.cpg/sg15_17_cif.got.tgz:33802.got - 2010.06.03 18:47:42.
