data_PCOD9303389
_publ_section_title
;
Structure prediction by ZEFSAII (Michael W. Deem and Ramdas Pophale) SiO2 
 PCOD9303389
Probable space group: C 2/C
;
_chemical_formula_sum "Si O2"
_cell_formula_units_Z 40
_cell_length_a 31.334476
_cell_length_b 7.850290
_cell_length_c 14.656715
_cell_angle_alpha 90.000000
_cell_angle_beta 149.740532
_cell_angle_gamma 90.000000
_cell_volume 1816.785044
_symmetry_space_group_name_H-M "C 2/C"
_symmetry_group_IT_number 15
_symmetry_cell_setting 'monoclinic'
loop_
_space_group_symop_operation_xyz
x,y,z
-x,y,1/2-z
-x,-y,-z
x,-y,1/2+z
1/2+x,1/2+y,z
1/2-x,1/2+y,1/2-z
1/2-x,1/2-y,-z
1/2+x,1/2-y,1/2+z
loop_
_atom_site_type_symbol
_atom_site_label
_atom_site_fract_x
_atom_site_fract_y
_atom_site_fract_z
Si Si1 0.203055 0.571812 0.273282
Si Si2 0.846932 0.618227 0.639090
Si Si3 0.074673 0.886359 0.597691
Si Si4 0.226767 0.953320 0.279225
Si Si5 0.979977 0.545775 0.107159
O O1 0.198133 0.485837 0.362652
O O2 0.239664 0.761881 0.339010
O O3 0.254716 0.464797 0.293708
O O4 0.104583 0.567662 0.059327
O O5 0.866700 0.805998 0.713789
O O6 0.790941 0.584453 0.446916
O O7 0.939112 0.539574 0.789711
O O8 0.039150 0.723596 0.477835
O O9 0.133832 0.990312 0.638110
O O10 0.000000 0.000000 0.500000
O O11 0.000000 0.572761 0.250000
#
# Coordination Sequence:
#
# PCOD9303389 Si02
#       5
#     8   8   8   8   8
#     4  11  23  42  68  96 134 171 217 273 329 388
#     4  11  23  43  71  92 131 176 216 268 332 386
#     4  11  24  44  65  98 133 170 220 269 325 391
#     4  12  24  42  66  99 132 168 221 272 324 391
#     4  11  22  44  66  93 132 176 216 266 332 388
#
# _framework density 22.016912999999999
#
# number of rings (size 3 to 8) (size 9 to 14) (size 15 to 20)
#    0.000    0.800    2.000    8.400    0.000    0.000 
#    3.600    0.000    0.000    0.000    0.000    0.000 
#    0.000    0.000    0.000    0.000    0.000    0.000 
#
# Total GULP energy -111974.350660 kJ/mol
# GULP energy per Si atom -5598.717533 kJ/mol
# Density = 2.196680 g / cm^3
# Si number density = 22.016913 Si / 1000 Ang^3
#
#
#
# Elastic Constant Matrix: (Units=GPa)
#
#
# Indices 1 2 3 4 5 6 
#
# 1 159.2657 38.8734 23.9228 0.0000 20.2834 0.0000
# 2 38.8734 93.6214 17.3579 0.0000 9.3462 0.0000
# 3 23.9228 17.3579 63.8088 0.0000 2.5371 0.0000
# 4 0.0000 0.0000 0.0000 24.5893 0.0000 17.2371
# 5 20.2834 9.3462 2.5371 0.0000 48.2518 0.0000
# 6 0.0000 0.0000 0.0000 17.2371 0.0000 33.6031
#
#
#
# Elastic Compliance Matrix: (Units=1/GPa)
#
#
# Indices 1 2 3 4 5 6 
#
# 1 0.007520 -0.002487 -0.002040 0.000000 -0.002572 0.000000
# 2 -0.002487 0.012272 -0.002358 0.000000 -0.001207 0.000000
# 3 -0.002040 -0.002358 0.017062 0.000000 0.000417 0.000000
# 4 0.000000 0.000000 0.000000 0.063503 0.000000 -0.032575
# 5 -0.002572 -0.001207 0.000417 0.000000 0.022018 0.000000
# 6 0.000000 0.000000 0.000000 -0.032575 0.000000 0.046469
#
#
# Mechanical properties :
#
#
# Convention : Reuss Voigt Hill
#
# Bulk Modulus (GPa) = 43.32326 53.00046 48.16186
# Shear Modulus (GPa) = 26.27318 37.05828 31.66573
#
# Velocity S-wave (km/s) = 3.45819 4.10710 3.79654
# Velocity P-wave (km/s) = 5.97205 6.82758 6.41410
#
# Compressibility (1/GPa) = 0.02308229
#
# Stress axis : x y z
#
# Youngs Moduli (GPa) = 132.97899 81.48765 58.61113
#
# Poissons Ratio (x) = 0.20269 0.11959
# Poissons Ratio (y) = 0.33077 0.13819
# Poissons Ratio (z) = 0.27134 0.19213
#
# Static dielectric constant tensor:
#      x y z
#    x 1.773970 0.000000 -0.006650 
#    y 0.000000 1.804990 0.000000 
#    z -0.006650 0.000000 1.824780 
# 
# From -- ./inp_files/150764.got.cif
#   From: 2010.05.17/outbox.cif.g08.bks.cpg/sg15_76_cif.got.tgz:150764.got - 2010.06.03 18:47:42.
