data_PCOD9303817
_publ_section_title
;
Structure prediction by ZEFSAII (Michael W. Deem and Ramdas Pophale) SiO2 
 PCOD9303817
Probable space group: C 2/C
;
_chemical_formula_sum "Si O2"
_cell_formula_units_Z 32
_cell_length_a 17.977896
_cell_length_b 4.974601
_cell_length_c 32.595954
_cell_angle_alpha 90.000000
_cell_angle_beta 30.244308
_cell_angle_gamma 90.000000
_cell_volume 1468.326216
_symmetry_space_group_name_H-M "C 2/C"
_symmetry_group_IT_number 15
_symmetry_cell_setting 'monoclinic'
loop_
_space_group_symop_operation_xyz
x,y,z
-x,y,1/2-z
-x,-y,-z
x,-y,1/2+z
1/2+x,1/2+y,z
1/2-x,1/2+y,1/2-z
1/2-x,1/2-y,-z
1/2+x,1/2-y,1/2+z
loop_
_atom_site_type_symbol
_atom_site_label
_atom_site_fract_x
_atom_site_fract_y
_atom_site_fract_z
Si Si1 0.931642 0.562762 0.326082
Si Si2 0.268715 0.958115 0.581043
Si Si3 0.727257 0.062751 0.233971
Si Si4 0.558639 0.298060 0.936913
O O1 0.837555 0.295176 0.362609
O O2 0.000000 0.657922 0.250000
O O3 0.066866 0.506577 0.291718
O O4 0.823246 0.795937 0.393941
O O5 0.414986 0.855169 0.488131
O O6 0.334795 0.082096 0.591744
O O7 0.735280 0.363707 0.247176
O O8 0.849088 0.042636 0.140421
O O9 0.500000 0.500000 0.000000
#
# Coordination Sequence:
#
# PCOD9303817 Si02
#       4
#     8   8   8   8
#     4  12  23  43  71 105 138 187 247 289 339 428
#     4  11  23  39  75 102 130 179 253 285 328 414
#     4  12  29  47  70 107 153 186 228 304 380 413
#     4  11  24  46  75 105 141 190 244 286 356 431
#
# _framework density 21.793523
#
# number of rings (size 3 to 8) (size 9 to 14) (size 15 to 20)
#    0.000    0.500    5.000    2.250   10.500    0.000 
#    0.000    7.500    0.000    0.000    0.000    0.000 
#    0.000    0.000    0.000    0.000    0.000    0.000 
#
# Total GULP energy -89531.332481 kJ/mol
# GULP energy per Si atom -5595.708280 kJ/mol
# Density = 2.174392 g / cm^3
# Si number density = 21.793523 Si / 1000 Ang^3
#
#
#
# Elastic Constant Matrix: (Units=GPa)
#
#
# Indices 1 2 3 4 5 6 
#
# 1 74.2840 8.5687 48.5510 -0.2697 -31.1115 0.0954
# 2 8.5687 101.1413 38.5204 -0.4356 -17.6513 0.2312
# 3 48.5510 38.5204 110.2324 -0.5755 -22.8488 -0.1190
# 4 -0.2697 -0.4356 -0.5755 28.4282 0.0924 -6.7949
# 5 -31.1115 -17.6513 -22.8488 0.0924 33.0588 -0.0694
# 6 0.0954 0.2312 -0.1190 -6.7949 -0.0694 42.0290
#
#
#
# Elastic Compliance Matrix: (Units=1/GPa)
#
#
# Indices 1 2 3 4 5 6 
#
# 1 0.029086 0.005371 -0.009827 0.000065 0.023448 -0.000074
# 2 0.005371 0.012843 -0.005117 0.000101 0.008375 -0.000067
# 3 -0.009827 -0.005117 0.014830 0.000162 -0.001731 0.000116
# 4 0.000065 0.000101 0.000162 0.036596 0.000137 0.005916
# 5 0.023448 0.008375 -0.001731 0.000137 0.055591 0.000010
# 6 -0.000074 -0.000067 0.000116 0.005916 0.000010 0.024751
#
#
# Mechanical properties :
#
#
# Convention : Reuss Voigt Hill
#
# Bulk Modulus (GPa) = 26.58634 52.99310 39.78972
# Shear Modulus (GPa) = 24.34496 33.37102 28.85799
#
# Velocity S-wave (km/s) = 3.34589 3.91735 3.64284
# Velocity P-wave (km/s) = 5.21079 6.69549 5.99925
#
# Compressibility (1/GPa) = 0.03761330
#
# Stress axis : x y z
#
# Youngs Moduli (GPa) = 34.38089 77.86171 67.42864
#
# Poissons Ratio (x) = -0.41821 0.66262
# Poissons Ratio (y) = -0.18467 0.34505
# Poissons Ratio (z) = 0.33786 0.39844
#
# Static dielectric constant tensor:
#      x y z
#    x 1.762650 -0.000320 -0.024140 
#    y -0.000320 1.794650 -0.000960 
#    z -0.024140 -0.000960 1.802230 
# 
# From -- ./inp_files/223991.got.cif
#   From: 2010.05.17/outbox.cif.g08.bks.cpg/sg15_112_cif.got.tgz:223991.got - 2010.06.03 18:47:42.
