data_PCOD9303245
_publ_section_title
;
Structure prediction by ZEFSAII (Michael W. Deem and Ramdas Pophale) SiO2 
 PCOD9303245
Probable space group: C 2/C
;
_chemical_formula_sum "Si O2"
_cell_formula_units_Z 48
_cell_length_a 9.902441
_cell_length_b 11.182209
_cell_length_c 22.403012
_cell_angle_alpha 90.000000
_cell_angle_beta 128.719268
_cell_angle_gamma 90.000000
_cell_volume 1935.501065
_symmetry_space_group_name_H-M "C 2/C"
_symmetry_group_IT_number 15
_symmetry_cell_setting 'monoclinic'
loop_
_space_group_symop_operation_xyz
x,y,z
-x,y,1/2-z
-x,-y,-z
x,-y,1/2+z
1/2+x,1/2+y,z
1/2-x,1/2+y,1/2-z
1/2-x,1/2-y,-z
1/2+x,1/2-y,1/2+z
loop_
_atom_site_type_symbol
_atom_site_label
_atom_site_fract_x
_atom_site_fract_y
_atom_site_fract_z
Si Si1 0.019934 0.355544 0.324725
Si Si2 0.534336 0.931134 0.609656
Si Si3 0.942078 0.156799 0.382514
Si Si4 0.155936 0.082612 0.951596
Si Si5 0.392021 0.261880 0.455270
Si Si6 0.099427 0.745877 0.334195
O O1 0.925154 0.448919 0.342821
O O2 0.223596 0.341141 0.395548
O O3 0.000000 0.386606 0.250000
O O4 0.945260 0.225383 0.320875
O O5 0.338998 0.947203 0.531082
O O6 0.632937 0.869318 0.581248
O O7 0.527272 0.828161 0.658103
O O8 0.747862 0.156193 0.352954
O O9 0.054617 0.235804 0.460950
O O10 0.032945 0.030008 0.408361
O O11 0.181880 0.150362 0.896566
O O12 0.053078 0.173828 0.966544
O O13 0.000000 0.795139 0.250000
#
# Coordination Sequence:
#
# PCOD9303245 Si02
#       6
#     8   8   8   8   8   8
#     4  12  29  44  62 102 144 178 222 286 354 406
#     4  11  22  44  74  97 132 179 231 285 336 417
#     4  12  24  43  70  96 138 181 222 283 343 411
#     4  11  22  42  74  99 131 177 235 284 334 410
#     4  11  22  44  70  99 130 177 235 276 337 419
#     4  11  24  43  67 102 135 177 234 283 344 404
#
# _framework density 24.799780999999999
#
# number of rings (size 3 to 8) (size 9 to 14) (size 15 to 20)
#    0.000    0.667    5.000    3.500    4.667    2.667 
#    0.000    0.000    0.000    0.000    0.000    0.000 
#    0.000    0.000    0.000    0.000    0.000    0.000 
#
# Total GULP energy -134460.318635 kJ/mol
# GULP energy per Si atom -5602.513276 kJ/mol
# Density = 2.474334 g / cm^3
# Si number density = 24.799781 Si / 1000 Ang^3
#
#
#
# Elastic Constant Matrix: (Units=GPa)
#
#
# Indices 1 2 3 4 5 6 
#
# 1 45.9412 14.2279 6.8104 0.0000 1.4337 0.0000
# 2 14.2279 112.4097 30.3782 0.0000 -24.5263 0.0000
# 3 6.8104 30.3782 99.4161 0.0000 -9.3691 0.0000
# 4 0.0000 0.0000 0.0000 18.9436 0.0000 1.0096
# 5 1.4337 -24.5263 -9.3691 0.0000 21.7892 0.0000
# 6 0.0000 0.0000 0.0000 1.0096 0.0000 36.6538
#
#
#
# Elastic Compliance Matrix: (Units=1/GPa)
#
#
# Indices 1 2 3 4 5 6 
#
# 1 0.023400 -0.004147 -0.000960 0.000000 -0.006620 0.000000
# 2 -0.004147 0.013130 -0.002407 0.000000 0.014017 0.000000
# 3 -0.000960 -0.002407 0.011059 0.000000 0.002109 0.000000
# 4 0.000000 0.000000 0.000000 0.052866 0.000000 -0.001456
# 5 -0.006620 0.014017 0.002109 0.000000 0.063014 0.000000
# 6 0.000000 0.000000 0.000000 -0.001456 0.000000 0.027322
#
#
# Mechanical properties :
#
#
# Convention : Reuss Voigt Hill
#
# Bulk Modulus (GPa) = 30.71124 40.06667 35.38896
# Shear Modulus (GPa) = 23.07637 29.23403 26.15520
#
# Velocity S-wave (km/s) = 3.05373 3.43709 3.25107
# Velocity P-wave (km/s) = 4.98440 5.65178 5.32855
#
# Compressibility (1/GPa) = 0.03256137
#
# Stress axis : x y z
#
# Youngs Moduli (GPa) = 42.73485 76.16337 90.42649
#
# Poissons Ratio (x) = 0.31584 0.08679
# Poissons Ratio (y) = 0.17722 0.21765
# Poissons Ratio (z) = 0.04101 0.18332
#
# Static dielectric constant tensor:
#      x y z
#    x 1.986690 0.000000 -0.018810 
#    y 0.000000 1.965440 0.000000 
#    z -0.018810 0.000000 1.945190 
# 
# From -- ./inp_files/237747.got.cif
#   From: 2010.05.17/outbox.cif.g08.bks.cpg/sg15_119_cif.got.tgz:237747.got - 2010.06.03 18:47:42.
