data_PCOD9303705
_publ_section_title
;
Structure prediction by ZEFSAII (Michael W. Deem and Ramdas Pophale) SiO2 
 PCOD9303705
Probable space group: C 2/C
;
_chemical_formula_sum "Si O2"
_cell_formula_units_Z 44
_cell_length_a 19.688041
_cell_length_b 11.794070
_cell_length_c 9.017204
_cell_angle_alpha 90.000000
_cell_angle_beta 102.417839
_cell_angle_gamma 90.000000
_cell_volume 2044.830012
_symmetry_space_group_name_H-M "C 2/C"
_symmetry_group_IT_number 15
_symmetry_cell_setting 'monoclinic'
loop_
_space_group_symop_operation_xyz
x,y,z
-x,y,1/2-z
-x,-y,-z
x,-y,1/2+z
1/2+x,1/2+y,z
1/2-x,1/2+y,1/2-z
1/2-x,1/2-y,-z
1/2+x,1/2-y,1/2+z
loop_
_atom_site_type_symbol
_atom_site_label
_atom_site_fract_x
_atom_site_fract_y
_atom_site_fract_z
Si Si1 0.437529 0.959924 0.371122
Si Si2 0.500000 0.745257 0.250000
Si Si3 0.736066 0.900358 0.351412
Si Si4 0.079666 0.689615 0.266266
Si Si5 0.690605 0.107721 0.510919
Si Si6 0.133696 0.228698 0.473115
O O1 0.459725 0.833854 0.337607
O O2 0.366162 0.963537 0.424212
O O3 0.500000 0.000000 0.500000
O O4 0.428161 0.052471 0.239467
O O5 0.563778 0.683832 0.359946
O O6 0.806768 0.861410 0.463708
O O7 0.673030 0.825138 0.393044
O O8 0.723944 0.030668 0.397442
O O9 0.739881 0.869892 0.177117
O O10 0.141828 0.705999 0.415364
O O11 0.106829 0.723585 0.117539
O O12 0.000000 0.733354 0.250000
#
# Coordination Sequence:
#
# PCOD9303705 Si02
#       6
#     8   4   8   8   8   8
#     4  12  17  27  51  86 112 145 172 209 268 347
#     4  12  18  34  56  82 118 150 180 222 282 338
#     4  11  23  37  57  83 117 151 190 234 282 341
#     4  12  21  32  56  89 120 145 182 226 283 353
#     4  12  20  35  56  80 112 155 191 224 273 339
#     4  11  23  37  54  87 120 149 183 235 292 333
#
# _framework density 21.517679999999999
#
# number of rings (size 3 to 8) (size 9 to 14) (size 15 to 20)
#    0.000    0.364   10.000    0.000    0.000    0.727 
#    0.000    0.000    0.000    1.091    0.000    0.000 
#    0.000    0.000    0.000    0.000    0.000    0.000 
#
# Total GULP energy -122534.289726 kJ/mol
# GULP energy per Si atom -5569.740442 kJ/mol
# Density = 2.146871 g / cm^3
# Si number density = 21.517680 Si / 1000 Ang^3
#
#
#
# Elastic Constant Matrix: (Units=GPa)
#
#
# Indices 1 2 3 4 5 6 
#
# 1 117.3413 21.8969 35.3817 0.0000 25.0048 0.0000
# 2 21.8969 9.8583 2.8347 0.0000 5.5670 0.0000
# 3 35.3817 2.8347 118.3886 0.0000 19.7549 0.0000
# 4 0.0000 0.0000 0.0000 9.9508 0.0000 -0.5018
# 5 25.0048 5.5670 19.7549 0.0000 51.8960 0.0000
# 6 0.0000 0.0000 0.0000 -0.5018 0.0000 19.1757
#
#
#
# Elastic Compliance Matrix: (Units=1/GPa)
#
#
# Indices 1 2 3 4 5 6 
#
# 1 0.016649 -0.034259 -0.003663 0.000000 -0.002952 0.000000
# 2 -0.034259 0.178528 0.006840 0.000000 -0.005248 0.000000
# 3 -0.003663 0.006840 0.009830 0.000000 -0.002711 0.000000
# 4 0.000000 0.000000 0.000000 0.100627 0.000000 0.002633
# 5 -0.002952 -0.005248 -0.002711 0.000000 0.022287 0.000000
# 6 0.000000 0.000000 0.000000 0.002633 0.000000 0.052218
#
#
# Mechanical properties :
#
#
# Convention : Reuss Voigt Hill
#
# Bulk Modulus (GPa) = 7.00071 40.64610 23.82340
# Shear Modulus (GPa) = 10.20582 28.56951 19.38766
#
# Velocity S-wave (km/s) = 2.18020 3.64775 3.00494
# Velocity P-wave (km/s) = 3.09810 6.05574 4.80990
#
# Compressibility (1/GPa) = 0.14284273
#
# Stress axis : x y z
#
# Youngs Moduli (GPa) = 60.06483 5.60136 101.72985
#
# Poissons Ratio (x) = 0.19190 0.37260
# Poissons Ratio (y) = 2.05775 -0.69579
# Poissons Ratio (z) = 0.22000 -0.03831
#
# Static dielectric constant tensor:
#      x y z
#    x 1.848550 0.000000 0.068890 
#    y 0.000000 1.793550 0.000000 
#    z 0.068890 0.000000 1.964440 
# 
# From -- ./inp_files/54487.got.cif
#   From: 2010.05.17/outbox.cif.g08.bks.cpg/sg15_28_cif.got.tgz:54487.got - 2010.06.03 18:47:42.
