data_PCOD9303018
_publ_section_title
;
Structure prediction by ZEFSAII (Michael W. Deem and Ramdas Pophale) SiO2 
 PCOD9303018
Probable space group: C 2/C
;
_chemical_formula_sum "Si O2"
_cell_formula_units_Z 44
_cell_length_a 25.388782
_cell_length_b 5.075203
_cell_length_c 18.770621
_cell_angle_alpha 90.000000
_cell_angle_beta 45.506179
_cell_angle_gamma 90.000000
_cell_volume 1725.289582
_symmetry_space_group_name_H-M "C 2/C"
_symmetry_group_IT_number 15
_symmetry_cell_setting 'monoclinic'
loop_
_space_group_symop_operation_xyz
x,y,z
-x,y,1/2-z
-x,-y,-z
x,-y,1/2+z
1/2+x,1/2+y,z
1/2-x,1/2+y,1/2-z
1/2-x,1/2-y,-z
1/2+x,1/2-y,1/2+z
loop_
_atom_site_type_symbol
_atom_site_label
_atom_site_fract_x
_atom_site_fract_y
_atom_site_fract_z
Si Si1 0.000000 0.327163 0.250000
Si Si2 0.357185 0.944209 0.657716
Si Si3 0.366956 0.496594 0.336890
Si Si4 0.780307 0.494567 0.882140
Si Si5 0.479794 0.780215 0.635756
Si Si6 0.861525 0.066828 0.055826
O O1 0.928732 0.139467 0.326501
O O2 0.991765 0.520369 0.190328
O O3 0.439814 0.942328 0.611609
O O4 0.353441 0.694551 0.609875
O O5 0.306816 0.945646 0.775695
O O6 0.338005 0.192793 0.628367
O O7 0.305123 0.713832 0.379619
O O8 0.419245 0.434983 0.218316
O O9 0.326097 0.216935 0.384988
O O10 0.692828 0.458560 0.960211
O O11 0.554822 0.638529 0.543547
#
# Coordination Sequence:
#
# PCOD9303018 Si02
#       6
#     4   8   8   8   8   8
#     4  12  24  48  74  90 128 186 238 282 326 390
#     4  11  22  41  68 100 144 176 218 266 345 410
#     4  11  23  44  70  94 130 182 226 272 328 406
#     4  11  23  43  67 102 140 176 219 263 349 414
#     4  11  26  44  72 102 133 174 242 276 331 392
#     4  12  25  41  69 107 140 173 214 289 339 398
#
# _framework density 25.502963000000001
#
# number of rings (size 3 to 8) (size 9 to 14) (size 15 to 20)
#    0.000    0.727    3.636    6.000    2.545    0.000 
#    0.000    1.818    0.000    0.000    0.000    0.000 
#    0.000    0.000    0.000    0.000    0.000    0.000 
#
# Total GULP energy -123331.765911 kJ/mol
# GULP energy per Si atom -5605.989360 kJ/mol
# Density = 2.544492 g / cm^3
# Si number density = 25.502963 Si / 1000 Ang^3
#
#
#
# Elastic Constant Matrix: (Units=GPa)
#
#
# Indices 1 2 3 4 5 6 
#
# 1 109.8243 12.0396 -9.9369 -0.0452 -10.3259 -0.1409
# 2 12.0396 132.5156 -12.6380 -0.1121 7.3683 -0.0786
# 3 -9.9369 -12.6380 71.5955 0.0691 -16.0622 -0.1096
# 4 -0.0452 -0.1121 0.0691 13.5280 0.1323 -9.0632
# 5 -10.3259 7.3683 -16.0622 0.1323 49.9620 -0.0328
# 6 -0.1409 -0.0786 -0.1096 -9.0632 -0.0328 54.9297
#
#
#
# Elastic Compliance Matrix: (Units=1/GPa)
#
#
# Indices 1 2 3 4 5 6 
#
# 1 0.009613 -0.000852 0.001787 0.000010 0.002687 0.000030
# 2 -0.000852 0.007777 0.001032 0.000082 -0.000992 0.000024
# 3 0.001787 0.001032 0.015569 -0.000100 0.005223 0.000024
# 4 0.000010 0.000082 -0.000100 0.083112 -0.000253 0.013713
# 5 0.002687 -0.000992 0.005223 -0.000253 0.022396 -0.000013
# 6 0.000030 0.000024 0.000024 0.013713 -0.000013 0.020468
#
#
# Mechanical properties :
#
#
# Convention : Reuss Voigt Hill
#
# Bulk Modulus (GPa) = 27.10581 32.54052 29.82317
# Shear Modulus (GPa) = 29.88631 45.31531 37.60081
#
# Velocity S-wave (km/s) = 3.42698 4.21986 3.84392
# Velocity P-wave (km/s) = 5.12938 6.04402 5.60538
#
# Compressibility (1/GPa) = 0.03689246
#
# Stress axis : x y z
#
# Youngs Moduli (GPa) = 104.02346 128.57816 64.22888
#
# Poissons Ratio (x) = 0.10960 -0.11475
# Poissons Ratio (y) = 0.08867 -0.06629
# Poissons Ratio (z) = -0.18585 -0.13270
#
# Static dielectric constant tensor:
#      x y z
#    x 2.004230 -0.000170 -0.009630 
#    y -0.000170 1.915190 0.000020 
#    z -0.009630 0.000020 2.055050 
# 
# From -- ./inp_files/253947.got.cif
#   From: 2010.05.17/outbox.cif.g08.bks.cpg/sg15_127_cif.got.tgz:253947.got - 2010.06.03 18:47:42.
