data_PCOD9303830
_publ_section_title
;
Structure prediction by ZEFSAII (Michael W. Deem and Ramdas Pophale) SiO2 
 PCOD9303830
Probable space group: C 2/C
;
_chemical_formula_sum "Si O2"
_cell_formula_units_Z 44
_cell_length_a 29.658713
_cell_length_b 5.238361
_cell_length_c 12.266611
_cell_angle_alpha 90.000000
_cell_angle_beta 112.704181
_cell_angle_gamma 90.000000
_cell_volume 1758.099162
_symmetry_space_group_name_H-M "C 2/C"
_symmetry_group_IT_number 15
_symmetry_cell_setting 'monoclinic'
loop_
_space_group_symop_operation_xyz
x,y,z
-x,y,1/2-z
-x,-y,-z
x,-y,1/2+z
1/2+x,1/2+y,z
1/2-x,1/2+y,1/2-z
1/2-x,1/2-y,-z
1/2+x,1/2-y,1/2+z
loop_
_atom_site_type_symbol
_atom_site_label
_atom_site_fract_x
_atom_site_fract_y
_atom_site_fract_z
Si Si1 0.052078 0.577196 0.102860
Si Si2 0.637487 0.214511 0.789605
Si Si3 0.500000 0.314663 0.250000
Si Si4 0.181707 0.894844 0.621592
Si Si5 0.913791 0.041952 0.050545
Si Si6 0.209425 0.410678 0.527632
O O1 0.094695 0.382522 0.171961
O O2 0.037774 0.664834 0.211011
O O3 0.077718 0.774722 0.044651
O O4 0.000000 0.500000 0.000000
O O5 0.674730 0.364044 0.744483
O O6 0.608308 0.355593 0.857586
O O7 0.670784 0.027699 0.894085
O O8 0.468136 0.461596 0.132283
O O9 0.216133 0.674728 0.600966
O O10 0.127846 0.842438 0.520766
O O11 0.191966 0.187171 0.595622
O O12 0.250000 0.250000 0.500000
#
# Coordination Sequence:
#
# PCOD9303830 Si02
#       6
#     8   8   4   8   8   8
#     4  12  23  39  63  98 138 188 243 293 348 422
#     4  11  23  42  67  93 135 179 223 284 347 404
#     4  12  22  36  60  90 138 186 234 296 348 402
#     4  11  24  44  69  99 134 175 225 281 346 420
#     4  11  23  40  62  97 136 184 237 289 348 419
#     4  11  26  46  71 103 135 172 225 283 349 427
#
# _framework density 25.027031000000001
#
# number of rings (size 3 to 8) (size 9 to 14) (size 15 to 20)
#    0.000    0.727    0.000    8.727    0.000    5.818 
#    0.000    0.000    0.000    0.000    0.000    0.000 
#    0.000    0.000    0.000    0.000    0.000    0.000 
#
# Total GULP energy -122748.816474 kJ/mol
# GULP energy per Si atom -5579.491658 kJ/mol
# Density = 2.497007 g / cm^3
# Si number density = 25.027031 Si / 1000 Ang^3
#
#
#
# Elastic Constant Matrix: (Units=GPa)
#
#
# Indices 1 2 3 4 5 6 
#
# 1 84.7241 13.2845 23.1498 0.0000 -25.1505 0.0000
# 2 13.2845 55.5753 41.9893 0.0000 -22.4787 0.0000
# 3 23.1498 41.9893 102.7255 0.0000 -24.5837 0.0000
# 4 0.0000 0.0000 0.0000 44.2496 0.0000 -25.4430
# 5 -25.1505 -22.4787 -24.5837 0.0000 50.4606 0.0000
# 6 0.0000 0.0000 0.0000 -25.4430 0.0000 43.3838
#
#
#
# Elastic Compliance Matrix: (Units=1/GPa)
#
#
# Indices 1 2 3 4 5 6 
#
# 1 0.014124 0.000665 -0.001924 0.000000 0.006399 0.000000
# 2 0.000665 0.028647 -0.009878 0.000000 0.008281 0.000000
# 3 -0.001924 -0.009878 0.014629 0.000000 0.001768 0.000000
# 4 0.000000 0.000000 0.000000 0.034097 0.000000 0.019997
# 5 0.006399 0.008281 0.001768 0.000000 0.027557 0.000000
# 6 0.000000 0.000000 0.000000 0.019997 0.000000 0.034777
#
#
# Mechanical properties :
#
#
# Convention : Reuss Voigt Hill
#
# Bulk Modulus (GPa) = 28.46754 44.43024 36.44889
# Shear Modulus (GPa) = 26.62243 38.59222 32.60732
#
# Velocity S-wave (km/s) = 3.26505 3.93112 3.61346
# Velocity P-wave (km/s) = 5.06098 6.19648 5.65729
#
# Compressibility (1/GPa) = 0.03512773
#
# Stress axis : x y z
#
# Youngs Moduli (GPa) = 70.80260 34.90777 68.35827
#
# Poissons Ratio (x) = -0.02323 0.13149
# Poissons Ratio (y) = -0.04711 0.67522
# Poissons Ratio (z) = 0.13619 0.34481
#
# Static dielectric constant tensor:
#      x y z
#    x 2.153770 0.000000 0.087420 
#    y 0.000000 2.345920 0.000000 
#    z 0.087420 0.000000 2.062780 
# 
# From -- ./inp_files/125005.got.cif
#   From: 2010.05.17/outbox.cif.g08.bks.cpg/sg15_63_cif.got.tgz:125005.got - 2010.06.03 18:47:42.
