data_PCOD9303555
_publ_section_title
;
Structure prediction by ZEFSAII (Michael W. Deem and Ramdas Pophale) SiO2 
 PCOD9303555
Probable space group: C 2/C
;
_chemical_formula_sum "Si O2"
_cell_formula_units_Z 48
_cell_length_a 14.996699
_cell_length_b 11.871279
_cell_length_c 13.740225
_cell_angle_alpha 90.000000
_cell_angle_beta 122.412459
_cell_angle_gamma 90.000000
_cell_volume 2065.086456
_symmetry_space_group_name_H-M "C 2/C"
_symmetry_group_IT_number 15
_symmetry_cell_setting 'monoclinic'
loop_
_space_group_symop_operation_xyz
x,y,z
-x,y,1/2-z
-x,-y,-z
x,-y,1/2+z
1/2+x,1/2+y,z
1/2-x,1/2+y,1/2-z
1/2-x,1/2-y,-z
1/2+x,1/2-y,1/2+z
loop_
_atom_site_type_symbol
_atom_site_label
_atom_site_fract_x
_atom_site_fract_y
_atom_site_fract_z
Si Si1 0.153175 0.698563 0.135918
Si Si2 0.377845 0.427774 0.147965
Si Si3 0.340980 0.059109 0.889517
Si Si4 0.105010 0.157859 0.429389
Si Si5 0.051560 0.694518 0.376537
Si Si6 0.119857 0.761865 0.716117
O O1 0.125528 0.569855 0.096705
O O2 0.265991 0.697515 0.254395
O O3 0.053750 0.745233 0.135428
O O4 0.164429 0.772859 0.046189
O O5 0.500000 0.448405 0.250000
O O6 0.286765 0.438844 0.175867
O O7 0.357142 0.529891 0.060694
O O8 0.376489 0.301251 0.107665
O O9 0.383864 0.134118 0.825169
O O10 0.387283 0.114281 0.014642
O O11 0.116059 0.215895 0.329606
O O12 0.980605 0.169885 0.381920
O O13 0.000000 0.639256 0.250000
#
# Coordination Sequence:
#
# PCOD9303555 Si02
#       6
#     8   8   8   8   8   8
#     4  12  25  46  69 106 140 178 236 286 339 417
#     4  11  22  45  71  99 140 179 230 288 328 414
#     4  12  25  47  71 103 143 179 228 286 349 411
#     4  11  23  45  71 102 136 182 237 281 341 403
#     4  11  26  45  69 101 142 181 229 286 350 405
#     4  11  23  43  72 100 136 184 227 282 343 405
#
# _framework density 23.243577999999999
#
# number of rings (size 3 to 8) (size 9 to 14) (size 15 to 20)
#    0.000    0.667    5.000    3.500    0.000    2.000 
#    3.000    0.000    0.000    0.000    0.000    0.000 
#    0.000    0.000    0.000    0.000    0.000    0.000 
#
# Total GULP energy -134149.674379 kJ/mol
# GULP energy per Si atom -5589.569766 kJ/mol
# Density = 2.319067 g / cm^3
# Si number density = 23.243578 Si / 1000 Ang^3
#
#
#
# Elastic Constant Matrix: (Units=GPa)
#
#
# Indices 1 2 3 4 5 6 
#
# 1 75.2618 -20.4867 -2.4662 0.0000 17.9115 0.0000
# 2 -20.4867 94.5780 4.8051 0.0000 -7.5960 0.0000
# 3 -2.4662 4.8051 61.7061 0.0000 7.8698 0.0000
# 4 0.0000 0.0000 0.0000 30.7006 0.0000 -3.9395
# 5 17.9115 -7.5960 7.8698 0.0000 31.5094 0.0000
# 6 0.0000 0.0000 0.0000 -3.9395 0.0000 45.1016
#
#
#
# Elastic Compliance Matrix: (Units=1/GPa)
#
#
# Indices 1 2 3 4 5 6 
#
# 1 0.016208 0.002711 0.001579 0.000000 -0.008954 0.000000
# 2 0.002711 0.011324 -0.000955 0.000000 0.001427 0.000000
# 3 0.001579 -0.000955 0.017030 0.000000 -0.005381 0.000000
# 4 0.000000 0.000000 0.000000 0.032942 0.000000 0.002877
# 5 -0.008954 0.001427 -0.005381 0.000000 0.038514 0.000000
# 6 0.000000 0.000000 0.000000 0.002877 0.000000 0.022423
#
#
# Mechanical properties :
#
#
# Convention : Reuss Voigt Hill
#
# Bulk Modulus (GPa) = 19.51971 21.69447 20.60709
# Shear Modulus (GPa) = 33.59122 38.10857 35.84990
#
# Velocity S-wave (km/s) = 3.80568 4.05351 3.93155
# Velocity P-wave (km/s) = 5.26565 5.59121 5.43087
#
# Compressibility (1/GPa) = 0.05123026
#
# Stress axis : x y z
#
# Youngs Moduli (GPa) = 61.69916 88.30979 58.72124
#
# Poissons Ratio (x) = -0.23945 -0.09270
# Poissons Ratio (y) = -0.16729 0.05610
# Poissons Ratio (z) = -0.09740 0.08437
#
# Static dielectric constant tensor:
#      x y z
#    x 1.950400 0.000000 0.014210 
#    y 0.000000 1.847290 0.000000 
#    z 0.014210 0.000000 1.919590 
# 
# From -- ./inp_files/152760.got.cif
#   From: 2010.05.17/outbox.cif.g08.bks.cpg/sg15_77_cif.got.tgz:152760.got - 2010.06.03 18:47:42.
