data_PCOD9303659
_publ_section_title
;
Structure prediction by ZEFSAII (Michael W. Deem and Ramdas Pophale) SiO2 
 PCOD9303659
Probable space group: C 2/C
;
_chemical_formula_sum "Si O2"
_cell_formula_units_Z 48
_cell_length_a 12.866962
_cell_length_b 12.821829
_cell_length_c 13.784899
_cell_angle_alpha 90.000000
_cell_angle_beta 118.628103
_cell_angle_gamma 90.000000
_cell_volume 1996.178960
_symmetry_space_group_name_H-M "C 2/C"
_symmetry_group_IT_number 15
_symmetry_cell_setting 'monoclinic'
loop_
_space_group_symop_operation_xyz
x,y,z
-x,y,1/2-z
-x,-y,-z
x,-y,1/2+z
1/2+x,1/2+y,z
1/2-x,1/2+y,1/2-z
1/2-x,1/2-y,-z
1/2+x,1/2-y,1/2+z
loop_
_atom_site_type_symbol
_atom_site_label
_atom_site_fract_x
_atom_site_fract_y
_atom_site_fract_z
Si Si1 0.115777 0.041916 0.111397
Si Si2 0.714521 0.854815 0.345290
Si Si3 0.405429 0.765342 0.054177
Si Si4 0.946649 0.604304 0.022505
Si Si5 0.000000 0.310893 0.750000
Si Si6 0.000000 0.098357 0.250000
Si Si7 0.233078 0.267803 0.142563
O O1 0.085923 0.038516 0.214033
O O2 0.169575 0.154239 0.105076
O O3 0.219030 0.961459 0.136813
O O4 0.000000 0.000000 0.000000
O O5 0.611960 0.860541 0.378721
O O6 0.799232 0.772939 0.438681
O O7 0.692900 0.807463 0.231080
O O8 0.496688 0.802716 0.015471
O O9 0.436538 0.671650 0.141573
O O10 0.809664 0.639966 0.949403
O O11 0.000000 0.500000 0.000000
O O12 0.988554 0.618669 0.149989
O O13 0.875829 0.247020 0.702054
#
# Coordination Sequence:
#
# PCOD9303659 Si02
#       7
#     8   8   8   8   4   4   8
#     4  12  26  48  79 122 158 214 276 339 410 488
#     4  11  24  44  78 110 159 206 265 330 409 483
#     4  11  22  47  75 112 154 207 268 339 394 486
#     4  12  28  51  83 117 158 214 274 337 412 484
#     4  12  30  54  76 116 174 216 258 338 422 488
#     4  12  22  48  80 110 162 202 276 336 396 482
#     4  12  27  52  80 119 168 212 270 342 406 500
#
# _framework density 24.045940000000002
#
# number of rings (size 3 to 8) (size 9 to 14) (size 15 to 20)
#    0.000    0.333    6.667    0.500    4.667    1.333 
#    3.000    0.000    0.000    0.000    0.000    0.000 
#    0.000    0.000    0.000    0.000    0.000    0.000 
#
# Total GULP energy -134057.701157 kJ/mol
# GULP energy per Si atom -5585.737548 kJ/mol
# Density = 2.399121 g / cm^3
# Si number density = 24.045940 Si / 1000 Ang^3
#
#
#
# Elastic Constant Matrix: (Units=GPa)
#
#
# Indices 1 2 3 4 5 6 
#
# 1 92.1707 38.0389 30.6625 0.0000 -20.5156 0.0000
# 2 38.0389 116.8555 47.6728 0.0000 5.3469 0.0000
# 3 30.6625 47.6728 177.0441 0.0000 -12.4531 0.0000
# 4 0.0000 0.0000 0.0000 20.4195 0.0000 3.0075
# 5 -20.5156 5.3469 -12.4531 0.0000 47.5431 0.0000
# 6 0.0000 0.0000 0.0000 3.0075 0.0000 34.3150
#
#
#
# Elastic Compliance Matrix: (Units=1/GPa)
#
#
# Indices 1 2 3 4 5 6 
#
# 1 0.014520 -0.004709 -0.000783 0.000000 0.006590 0.000000
# 2 -0.004709 0.011293 -0.002504 0.000000 -0.003958 0.000000
# 3 -0.000783 -0.002504 0.006575 0.000000 0.001666 0.000000
# 4 0.000000 0.000000 0.000000 0.049613 0.000000 -0.004348
# 5 0.006590 -0.003958 0.001666 0.000000 0.024759 0.000000
# 6 0.000000 0.000000 0.000000 -0.004348 0.000000 0.029523
#
#
# Mechanical properties :
#
#
# Convention : Reuss Voigt Hill
#
# Bulk Modulus (GPa) = 60.98674 68.75763 64.87218
# Shear Modulus (GPa) = 31.69775 38.43527 35.06651
#
# Velocity S-wave (km/s) = 3.63466 4.00235 3.82293
# Velocity P-wave (km/s) = 6.55988 7.07211 6.82081
#
# Compressibility (1/GPa) = 0.01639701
#
# Stress axis : x y z
#
# Youngs Moduli (GPa) = 68.87019 88.55187 152.08352
#
# Poissons Ratio (x) = 0.41695 0.11913
# Poissons Ratio (y) = 0.32428 0.38078
# Poissons Ratio (z) = 0.05395 0.22171
#
# Static dielectric constant tensor:
#      x y z
#    x 2.202640 0.000000 0.094950 
#    y 0.000000 1.945970 0.000000 
#    z 0.094950 0.000000 1.885830 
# 
# From -- ./inp_files/152786.got.cif
#   From: 2010.05.17/outbox.cif.g08.bks.cpg/sg15_77_cif.got.tgz:152786.got - 2010.06.03 18:47:42.
