data_PCOD9303448
_publ_section_title
;
Structure prediction by ZEFSAII (Michael W. Deem and Ramdas Pophale) SiO2 
 PCOD9303448
Probable space group: C 2/C
;
_chemical_formula_sum "Si O2"
_cell_formula_units_Z 64
_cell_length_a 26.361605
_cell_length_b 18.948927
_cell_length_c 8.733542
_cell_angle_alpha 90.000000
_cell_angle_beta 137.614407
_cell_angle_gamma 90.000000
_cell_volume 2940.911521
_symmetry_space_group_name_H-M "C 2/C"
_symmetry_group_IT_number 15
_symmetry_cell_setting 'monoclinic'
loop_
_space_group_symop_operation_xyz
x,y,z
-x,y,1/2-z
-x,-y,-z
x,-y,1/2+z
1/2+x,1/2+y,z
1/2-x,1/2+y,1/2-z
1/2-x,1/2-y,-z
1/2+x,1/2-y,1/2+z
loop_
_atom_site_type_symbol
_atom_site_label
_atom_site_fract_x
_atom_site_fract_y
_atom_site_fract_z
Si Si1 0.966320 0.274383 0.348655
Si Si2 0.057602 0.962877 0.242151
Si Si3 0.832583 0.218858 0.865470
Si Si4 0.408526 0.695927 0.718386
Si Si5 0.216508 0.444647 0.481955
Si Si6 0.958964 0.435748 0.324286
Si Si7 0.203578 0.942834 0.150763
Si Si8 0.217113 0.205465 0.282698
O O1 0.969629 0.355608 0.408031
O O2 0.000000 0.271275 0.250000
O O3 0.008994 0.226497 0.565891
O O4 0.885119 0.244638 0.123602
O O5 0.090116 0.888544 0.258394
O O6 0.000000 0.945086 0.250000
O O7 0.127163 0.015299 0.433289
O O8 0.000000 0.000000 0.000000
O O9 0.866838 0.228385 0.774401
O O10 0.760116 0.265862 0.729567
O O11 0.816639 0.136856 0.855308
O O12 0.368570 0.711875 0.467429
O O13 0.131416 0.446117 0.357032
O O14 0.231370 0.441293 0.334045
O O15 0.259841 0.375572 0.641193
O O16 0.260319 0.514166 0.631077
O O17 0.000000 0.435173 0.250000
O O18 0.000000 0.500000 0.500000
O O19 0.250000 0.250000 0.500000
#
# Coordination Sequence:
#
# PCOD9303448 Si02
#       8
#     8   8   8   8   8   8   8   8
#     4   9  21  41  68  97 137 181 227 283 354 429
#     4  12  25  43  66 102 147 187 232 295 356 436
#     4  11  22  44  71 101 140 186 234 296 365 437
#     4  11  24  43  69 105 138 190 243 287 357 446
#     4  12  25  46  70 102 141 185 237 302 363 432
#     4  11  24  47  71  98 134 179 231 295 359 420
#     4  12  25  42  71 103 138 186 238 289 370 429
#     4  12  25  45  69 100 148 189 241 303 362 426
#
# _framework density 21.761959000000001
#
# number of rings (size 3 to 8) (size 9 to 14) (size 15 to 20)
#    0.000    0.750    3.750    4.125    0.000    3.000 
#    2.250    0.000    0.000    0.000    0.000    0.000 
#    0.000    0.000    0.000    0.000    0.000    0.000 
#
# Total GULP energy -178583.368461 kJ/mol
# GULP energy per Si atom -5580.730264 kJ/mol
# Density = 2.171243 g / cm^3
# Si number density = 21.761959 Si / 1000 Ang^3
#
#
#
# Elastic Constant Matrix: (Units=GPa)
#
#
# Indices 1 2 3 4 5 6 
#
# 1 93.7531 -33.3837 -4.0200 0.0000 1.1695 0.0000
# 2 -33.3837 72.5532 0.4059 0.0000 -10.1097 0.0000
# 3 -4.0200 0.4059 109.7525 0.0000 2.8891 0.0000
# 4 0.0000 0.0000 0.0000 28.2952 0.0000 7.3521
# 5 1.1695 -10.1097 2.8891 0.0000 26.3125 0.0000
# 6 0.0000 0.0000 0.0000 7.3521 0.0000 30.4785
#
#
#
# Elastic Compliance Matrix: (Units=1/GPa)
#
#
# Indices 1 2 3 4 5 6 
#
# 1 0.012854 0.006156 0.000402 0.000000 0.001750 0.000000
# 2 0.006156 0.017515 -0.000009 0.000000 0.006457 0.000000
# 3 0.000402 -0.000009 0.009153 0.000000 -0.001026 0.000000
# 4 0.000000 0.000000 0.000000 0.037705 0.000000 -0.009095
# 5 0.001750 0.006457 -0.001026 0.000000 0.040521 0.000000
# 6 0.000000 0.000000 0.000000 -0.009095 0.000000 0.035004
#
#
# Mechanical properties :
#
#
# Convention : Reuss Voigt Hill
#
# Bulk Modulus (GPa) = 19.00439 22.45147 20.72793
# Shear Modulus (GPa) = 31.80775 37.88767 34.84771
#
# Velocity S-wave (km/s) = 3.82726 4.17706 4.00598
# Velocity P-wave (km/s) = 5.31812 5.79681 5.56262
#
# Compressibility (1/GPa) = 0.05261942
#
# Stress axis : x y z
#
# Youngs Moduli (GPa) = 77.79848 57.09298 109.25157
#
# Poissons Ratio (x) = -0.35146 -0.04392
# Poissons Ratio (y) = -0.47892 0.00101
# Poissons Ratio (z) = -0.03127 0.00053
#
# Static dielectric constant tensor:
#      x y z
#    x 1.788970 0.000000 0.065430 
#    y 0.000000 1.727990 0.000000 
#    z 0.065430 0.000000 1.741420 
# 
# From -- ./inp_files/70636.got.cif
#   From: 2010.05.17/outbox.cif.g08.bks.cpg/sg15_36_cif.got.tgz:70636.got - 2010.06.03 18:47:42.
