data_PCOD9303390
_publ_section_title
;
Structure prediction by ZEFSAII (Michael W. Deem and Ramdas Pophale) SiO2 
 PCOD9303390
Probable space group: C 2/C
;
_chemical_formula_sum "Si O2"
_cell_formula_units_Z 40
_cell_length_a 12.679344
_cell_length_b 12.624625
_cell_length_c 9.536444
_cell_angle_alpha 90.000000
_cell_angle_beta 100.056315
_cell_angle_gamma 90.000000
_cell_volume 1503.064820
_symmetry_space_group_name_H-M "C 2/C"
_symmetry_group_IT_number 15
_symmetry_cell_setting 'monoclinic'
loop_
_space_group_symop_operation_xyz
x,y,z
-x,y,1/2-z
-x,-y,-z
x,-y,1/2+z
1/2+x,1/2+y,z
1/2-x,1/2+y,1/2-z
1/2-x,1/2-y,-z
1/2+x,1/2-y,1/2+z
loop_
_atom_site_type_symbol
_atom_site_label
_atom_site_fract_x
_atom_site_fract_y
_atom_site_fract_z
Si Si1 0.113305 0.970387 0.745800
Si Si2 0.253724 0.854117 0.592409
Si Si3 0.421848 0.847568 0.847768
Si Si4 0.137815 0.746950 0.890006
Si Si5 0.156918 0.425001 0.149521
O O1 0.145809 0.918437 0.601880
O O2 0.107701 0.866879 0.844868
O O3 0.000000 0.025108 0.750000
O O4 0.217458 0.042856 0.795041
O O5 0.250000 0.750000 0.500000
O O6 0.304603 0.824901 0.753222
O O7 0.339702 0.916649 0.519060
O O8 0.500000 0.801740 0.750000
O O9 0.417412 0.974429 0.843375
O O10 0.437859 0.802317 0.005753
O O11 0.134177 0.670301 0.752529
O O12 0.250000 0.750000 0.000000
#
# Coordination Sequence:
#
# PCOD9303390 Si02
#       5
#     8   8   8   8   8
#     4  11  26  43  71 105 137 181 235 283 343 408
#     4  11  22  44  66  94 133 182 222 276 339 406
#     4  11  25  40  67 102 132 173 229 278 339 405
#     4  12  23  47  69  95 140 184 223 283 346 405
#     4  11  24  45  71  95 142 180 223 286 346 407
#
# _framework density 26.612295
#
# number of rings (size 3 to 8) (size 9 to 14) (size 15 to 20)
#    0.000    0.800    6.000    2.400    2.800    4.800 
#    0.000    1.000    0.000    0.000    0.000    0.000 
#    0.000    0.000    0.000    0.000    0.000    0.000 
#
# Total GULP energy -111795.722697 kJ/mol
# GULP energy per Si atom -5589.786135 kJ/mol
# Density = 2.655172 g / cm^3
# Si number density = 26.612295 Si / 1000 Ang^3
#
#
#
# Elastic Constant Matrix: (Units=GPa)
#
#
# Indices 1 2 3 4 5 6 
#
# 1 120.1385 -1.8845 32.1364 0.0000 -18.9098 0.0000
# 2 -1.8845 76.0870 25.5614 0.0000 -2.9507 0.0000
# 3 32.1364 25.5614 175.9571 0.0000 -30.7891 0.0000
# 4 0.0000 0.0000 0.0000 33.5344 0.0000 -11.4848
# 5 -18.9098 -2.9507 -30.7891 0.0000 54.7204 0.0000
# 6 0.0000 0.0000 0.0000 -11.4848 0.0000 12.5690
#
#
#
# Elastic Compliance Matrix: (Units=1/GPa)
#
#
# Indices 1 2 3 4 5 6 
#
# 1 0.009077 0.000771 -0.001346 0.000000 0.002421 0.000000
# 2 0.000771 0.013892 -0.002198 0.000000 -0.000221 0.000000
# 3 -0.001346 -0.002198 0.006817 0.000000 0.003252 0.000000
# 4 0.000000 0.000000 0.000000 0.043403 0.000000 0.039659
# 5 0.002421 -0.000221 0.003252 0.000000 0.020929 0.000000
# 6 0.000000 0.000000 0.000000 0.039659 0.000000 0.115799
#
#
# Mechanical properties :
#
#
# Convention : Reuss Voigt Hill
#
# Bulk Modulus (GPa) = 41.25337 53.75658 47.50497
# Shear Modulus (GPa) = 22.36710 41.25603 31.81157
#
# Velocity S-wave (km/s) = 2.90225 3.94161 3.46116
# Velocity P-wave (km/s) = 5.17359 6.39991 5.81914
#
# Compressibility (1/GPa) = 0.02424045
#
# Stress axis : x y z
#
# Youngs Moduli (GPa) = 110.16899 71.98583 146.68417
#
# Poissons Ratio (x) = -0.05550 0.19747
# Poissons Ratio (y) = -0.08493 0.32234
# Poissons Ratio (z) = 0.14831 0.15819
#
# Static dielectric constant tensor:
#      x y z
#    x 2.273800 0.000000 0.008830 
#    y 0.000000 2.248420 0.000000 
#    z 0.008830 0.000000 2.221180 
# 
# From -- ./inp_files/37945.got.cif
#   From: 2010.05.17/outbox.cif.g08.bks.cpg/sg15_19_cif.got.tgz:37945.got - 2010.06.03 18:47:42.
