data_PCOD9303266
_publ_section_title
;
Structure prediction by ZEFSAII (Michael W. Deem and Ramdas Pophale) SiO2 
 PCOD9303266
Probable space group: C 2/C
;
_chemical_formula_sum "Si O2"
_cell_formula_units_Z 48
_cell_length_a 14.698014
_cell_length_b 15.343769
_cell_length_c 10.846148
_cell_angle_alpha 90.000000
_cell_angle_beta 68.303954
_cell_angle_gamma 90.000000
_cell_volume 2272.771868
_symmetry_space_group_name_H-M "C 2/C"
_symmetry_group_IT_number 15
_symmetry_cell_setting 'monoclinic'
loop_
_space_group_symop_operation_xyz
x,y,z
-x,y,1/2-z
-x,-y,-z
x,-y,1/2+z
1/2+x,1/2+y,z
1/2-x,1/2+y,1/2-z
1/2-x,1/2-y,-z
1/2+x,1/2-y,1/2+z
loop_
_atom_site_type_symbol
_atom_site_label
_atom_site_fract_x
_atom_site_fract_y
_atom_site_fract_z
Si Si1 0.244622 0.892616 0.960764
Si Si2 0.064675 0.983416 0.590841
Si Si3 0.823204 0.189046 0.541802
Si Si4 0.214214 0.272199 0.335328
Si Si5 0.439877 0.991706 0.399998
Si Si6 0.490312 0.794437 0.389214
O O1 0.238318 0.831506 0.840010
O O2 0.336109 0.959118 0.936027
O O3 0.251154 0.822731 0.064028
O O4 0.144346 0.941168 0.038511
O O5 0.132570 0.896523 0.544240
O O6 0.000000 0.983443 0.750000
O O7 0.000000 0.000000 0.500000
O O8 0.750000 0.250000 0.500000
O O9 0.765687 0.179162 0.696324
O O10 0.920783 0.244514 0.516541
O O11 0.099245 0.292411 0.383831
O O12 0.500000 0.023354 0.250000
O O13 0.437648 0.886771 0.389989
O O14 0.500000 0.000000 0.500000
O O15 0.500000 0.749850 0.250000
#
# Coordination Sequence:
#
# PCOD9303266 Si02
#       6
#     8   8   8   8   8   8
#     4  11  26  46  70 102 145 190 236 296 361 434
#     4  12  28  48  74 108 147 194 244 302 366 437
#     4  12  25  42  72 104 137 187 237 292 353 427
#     4  11  25  45  69 103 145 186 236 294 361 429
#     4  11  25  43  71 105 140 180 235 296 358 421
#     4  11  22  43  66 101 140 176 233 290 350 422
#
# _framework density 21.119586000000002
#
# number of rings (size 3 to 8) (size 9 to 14) (size 15 to 20)
#    0.000    0.667    3.333    3.500    7.000    1.333 
#    0.000    3.333    0.000    0.000    0.000    0.000 
#    0.000    0.000    0.000    0.000    0.000    0.000 
#
# Total GULP energy -133727.422424 kJ/mol
# GULP energy per Si atom -5571.975934 kJ/mol
# Density = 2.107152 g / cm^3
# Si number density = 21.119586 Si / 1000 Ang^3
#
#
#
# Elastic Constant Matrix: (Units=GPa)
#
#
# Indices 1 2 3 4 5 6 
#
# 1 144.2117 68.0135 61.1974 0.0000 -17.3259 0.0000
# 2 68.0135 90.8513 21.3435 0.0000 -17.1037 0.0000
# 3 61.1974 21.3435 104.6039 0.0000 -10.7244 0.0000
# 4 0.0000 0.0000 0.0000 28.9373 0.0000 -13.2323
# 5 -17.3259 -17.1037 -10.7244 0.0000 39.8430 0.0000
# 6 0.0000 0.0000 0.0000 -13.2323 0.0000 67.2804
#
#
#
# Elastic Compliance Matrix: (Units=1/GPa)
#
#
# Indices 1 2 3 4 5 6 
#
# 1 0.013755 -0.008733 -0.006208 0.000000 0.000561 0.000000
# 2 -0.008733 0.017928 0.001903 0.000000 0.004411 0.000000
# 3 -0.006208 0.001903 0.012968 0.000000 0.001608 0.000000
# 4 0.000000 0.000000 0.000000 0.037973 0.000000 0.007468
# 5 0.000561 0.004411 0.001608 0.000000 0.027669 0.000000
# 6 0.000000 0.000000 0.000000 0.007468 0.000000 0.016332
#
#
# Mechanical properties :
#
#
# Convention : Reuss Voigt Hill
#
# Bulk Modulus (GPa) = 53.83230 71.19732 62.51481
# Shear Modulus (GPa) = 31.46818 39.81963 35.64390
#
# Velocity S-wave (km/s) = 3.86424 4.34687 4.11264
# Velocity P-wave (km/s) = 6.74199 7.67974 7.22609
#
# Compressibility (1/GPa) = 0.01857621
#
# Stress axis : x y z
#
# Youngs Moduli (GPa) = 72.70286 55.77873 77.11258
#
# Poissons Ratio (x) = 0.48712 0.47868
# Poissons Ratio (y) = 0.63491 -0.14677
# Poissons Ratio (z) = 0.45131 -0.10616
#
# Static dielectric constant tensor:
#      x y z
#    x 1.924240 0.000000 0.155040 
#    y 0.000000 1.916970 0.000000 
#    z 0.155040 0.000000 1.809670 
# 
# From -- ./inp_files/96833.got.cif
#   From: 2010.05.17/outbox.cif.g08.bks.cpg/sg15_49_cif.got.tgz:96833.got - 2010.06.03 18:47:42.
