data_PCOD9303478
_publ_section_title
;
Structure prediction by ZEFSAII (Michael W. Deem and Ramdas Pophale) SiO2 
 PCOD9303478
Probable space group: C 2/C
;
_chemical_formula_sum "Si O2"
_cell_formula_units_Z 56
_cell_length_a 12.584677
_cell_length_b 17.414925
_cell_length_c 14.508238
_cell_angle_alpha 90.000000
_cell_angle_beta 121.649883
_cell_angle_gamma 90.000000
_cell_volume 2706.735972
_symmetry_space_group_name_H-M "C 2/C"
_symmetry_group_IT_number 15
_symmetry_cell_setting 'monoclinic'
loop_
_space_group_symop_operation_xyz
x,y,z
-x,y,1/2-z
-x,-y,-z
x,-y,1/2+z
1/2+x,1/2+y,z
1/2-x,1/2+y,1/2-z
1/2-x,1/2-y,-z
1/2+x,1/2-y,1/2+z
loop_
_atom_site_type_symbol
_atom_site_label
_atom_site_fract_x
_atom_site_fract_y
_atom_site_fract_z
Si Si1 0.610426 0.816786 0.671160
Si Si2 0.763017 0.472460 0.780070
Si Si3 0.487873 0.444108 0.584151
Si Si4 0.672123 0.301448 0.038915
Si Si5 0.256544 0.971489 0.464127
Si Si6 0.681988 0.816802 0.913293
Si Si7 0.366399 0.066743 0.660622
O O1 0.664296 0.896357 0.656995
O O2 0.632699 0.751524 0.606024
O O3 0.679550 0.805178 0.801639
O O4 0.463358 0.822668 0.624513
O O5 0.619612 0.450972 0.694994
O O6 0.777491 0.536623 0.865435
O O7 0.823824 0.503023 0.714391
O O8 0.500000 0.500000 0.500000
O O9 0.444369 0.355641 0.547081
O O10 0.372835 0.482337 0.585922
O O11 0.768129 0.365641 0.117047
O O12 0.750000 0.250000 0.000000
O O13 0.252675 0.894461 0.521601
O O14 0.360647 0.024956 0.559507
O O15 0.750000 0.750000 0.000000
O O16 0.500000 0.095840 0.750000
#
# Coordination Sequence:
#
# PCOD9303478 Si02
#       7
#     8   8   8   8   8   8   8
#     4  11  25  45  68 101 139 181 227 287 355 417
#     4  12  24  43  73  99 136 181 230 290 348 421
#     4  11  22  44  73  98 135 181 230 294 342 423
#     4  11  26  45  69 103 139 178 238 290 357 428
#     4  11  24  43  68 103 130 175 234 278 352 414
#     4  11  26  43  66  99 141 179 225 286 345 417
#     4  11  24  44  68  96 134 177 230 289 342 425
#
# _framework density 20.689126000000002
#
# number of rings (size 3 to 8) (size 9 to 14) (size 15 to 20)
#    0.000    0.857    4.286    3.000    6.000    4.571 
#    2.571    0.000    0.000    0.000    0.000    0.000 
#    0.000    0.000    0.000    0.000    0.000    0.000 
#
# Total GULP energy -156427.853122 kJ/mol
# GULP energy per Si atom -5586.709040 kJ/mol
# Density = 2.064204 g / cm^3
# Si number density = 20.689126 Si / 1000 Ang^3
#
#
#
# Elastic Constant Matrix: (Units=GPa)
#
#
# Indices 1 2 3 4 5 6 
#
# 1 30.3068 -1.3092 32.6574 0.0000 -5.9010 0.0000
# 2 -1.3092 79.9082 9.0440 0.0000 -19.5905 0.0000
# 3 32.6574 9.0440 82.5227 0.0000 -17.2092 0.0000
# 4 0.0000 0.0000 0.0000 34.2142 0.0000 -3.9456
# 5 -5.9010 -19.5905 -17.2092 0.0000 35.3931 0.0000
# 6 0.0000 0.0000 0.0000 -3.9456 0.0000 35.3780
#
#
#
# Elastic Compliance Matrix: (Units=1/GPa)
#
#
# Indices 1 2 3 4 5 6 
#
# 1 0.058552 0.003715 -0.023496 0.000000 0.000394 0.000000
# 2 0.003715 0.014716 -0.001397 0.000000 0.008086 0.000000
# 3 -0.023496 -0.001397 0.022915 0.000000 0.006451 0.000000
# 4 0.000000 0.000000 0.000000 0.029608 0.000000 0.003302
# 5 0.000394 0.008086 0.006451 0.000000 0.035932 0.000000
# 6 0.000000 0.000000 0.000000 0.003302 0.000000 0.028634
#
#
# Mechanical properties :
#
#
# Convention : Reuss Voigt Hill
#
# Bulk Modulus (GPa) = 18.57828 30.39134 24.48481
# Shear Modulus (GPa) = 19.94782 31.15343 25.55062
#
# Velocity S-wave (km/s) = 3.10848 3.88466 3.51804
# Velocity P-wave (km/s) = 4.67790 5.90273 5.32564
#
# Compressibility (1/GPa) = 0.05382631
#
# Stress axis : x y z
#
# Youngs Moduli (GPa) = 17.07898 67.95508 43.64037
#
# Poissons Ratio (x) = -0.25247 1.02538
# Poissons Ratio (y) = -0.06345 0.06096
# Poissons Ratio (z) = 0.40129 0.09492
#
# Static dielectric constant tensor:
#      x y z
#    x 1.754740 0.000000 -0.038250 
#    y 0.000000 1.635700 0.000000 
#    z -0.038250 0.000000 1.771570 
# 
# From -- ./inp_files/145972.got.cif
#   From: 2010.05.17/outbox.cif.g08.bks.cpg/sg15_73_cif.got.tgz:145972.got - 2010.06.03 18:47:42.
