data_PCOD9303977
_publ_section_title
;
Structure prediction by ZEFSAII (Michael W. Deem and Ramdas Pophale) SiO2 
 PCOD9303977
Probable space group: C 2/C
;
_chemical_formula_sum "Si O2"
_cell_formula_units_Z 64
_cell_length_a 17.493695
_cell_length_b 9.816695
_cell_length_c 28.159390
_cell_angle_alpha 90.000000
_cell_angle_beta 37.676023
_cell_angle_gamma 90.000000
_cell_volume 2955.633002
_symmetry_space_group_name_H-M "C 2/C"
_symmetry_group_IT_number 15
_symmetry_cell_setting 'monoclinic'
loop_
_space_group_symop_operation_xyz
x,y,z
-x,y,1/2-z
-x,-y,-z
x,-y,1/2+z
1/2+x,1/2+y,z
1/2-x,1/2+y,1/2-z
1/2-x,1/2-y,-z
1/2+x,1/2-y,1/2+z
loop_
_atom_site_type_symbol
_atom_site_label
_atom_site_fract_x
_atom_site_fract_y
_atom_site_fract_z
Si Si1 0.710961 0.823704 0.347994
Si Si2 0.137351 0.574571 0.079779
Si Si3 0.098983 0.150599 0.901800
Si Si4 0.139846 0.931190 0.588566
Si Si5 0.545521 0.671395 0.825303
Si Si6 0.329325 0.423278 0.566631
Si Si7 0.828365 0.599206 0.073021
Si Si8 0.979777 0.671661 0.903968
O O1 0.855065 0.797500 0.264366
O O2 0.659683 0.697692 0.402239
O O3 0.625866 0.821820 0.342685
O O4 0.691479 0.955458 0.390993
O O5 0.210267 0.595201 0.092517
O O6 0.049059 0.443309 0.120587
O O7 0.052976 0.708216 0.113065
O O8 0.249879 0.526442 0.988789
O O9 0.125293 0.143898 0.833611
O O10 0.120014 0.300740 0.911855
O O11 0.176331 0.059977 0.900498
O O12 0.958209 0.088464 0.974064
O O13 0.199392 0.870994 0.607630
O O14 0.091648 0.809859 0.577426
O O15 0.028396 0.035434 0.652211
O O16 0.925545 0.617033 0.981377
#
# Coordination Sequence:
#
# PCOD9303977 Si02
#       8
#     8   8   8   8   8   8   8   8
#     4  12  27  44  65  97 141 180 222 276 344 402
#     4  11  23  41  68 101 131 172 225 278 335 396
#     4  11  23  41  68  99 129 171 224 274 333 392
#     4  11  23  42  70 100 136 171 226 282 340 396
#     4  12  27  44  65  97 140 182 219 279 344 407
#     4  11  23  41  68  98 132 170 220 279 326 398
#     4  11  23  41  68 100 130 172 223 277 330 401
#     4  11  23  42  70 102 134 171 226 283 334 400
#
# _framework density 21.653566999999999
#
# number of rings (size 3 to 8) (size 9 to 14) (size 15 to 20)
#    0.000    0.750    2.500    6.000    3.500    6.000 
#    0.000    0.000    0.000    7.500    0.000    0.000 
#    0.000    0.000    0.000    0.000    0.000    0.000 
#
# Total GULP energy -178611.787481 kJ/mol
# GULP energy per Si atom -5581.618359 kJ/mol
# Density = 2.160428 g / cm^3
# Si number density = 21.653567 Si / 1000 Ang^3
#
#
#
# Elastic Constant Matrix: (Units=GPa)
#
#
# Indices 1 2 3 4 5 6 
#
# 1 459.8511 164.4756 -62.1752 0.0000 59.8817 -0.0013
# 2 164.4756 146.0774 -22.6027 0.0000 31.9590 -0.0005
# 3 -62.1752 -22.6027 64.2519 0.0000 -23.1199 0.0003
# 4 0.0000 0.0000 0.0000 -5.7388 0.0000 -16.4498
# 5 59.8817 31.9590 -23.1199 0.0000 33.0783 -0.0003
# 6 -0.0013 -0.0005 0.0003 -16.4498 -0.0003 25.6292
#
#
#
# Elastic Compliance Matrix: (Units=1/GPa)
#
#
# Indices 1 2 3 4 5 6 
#
# 1 0.004092 -0.003783 0.001708 0.000000 -0.002558 0.000000
# 2 -0.003783 0.012178 -0.001531 0.000000 -0.005988 0.000000
# 3 0.001708 -0.001531 0.021507 0.000000 0.013419 0.000000
# 4 0.000000 0.000000 0.000000 -0.061361 0.000000 -0.039384
# 5 -0.002558 -0.005988 0.013419 0.000000 0.050028 0.000000
# 6 0.000000 0.000000 0.000000 -0.039384 0.000000 0.013740
#
#
# Mechanical properties :
#
#
# Convention : Reuss Voigt Hill
#
# Bulk Modulus (GPa) = 32.71819 92.17509 62.44664
# Shear Modulus (GPa) = 86.82942 49.95925 68.39434
#
# Velocity S-wave (km/s) = 6.33928 4.80855 5.62621
# Velocity P-wave (km/s) = 8.29003 8.57263 8.43251
#
# Compressibility (1/GPa) = 0.03056404
#
# Stress axis : x y z
#
# Youngs Moduli (GPa) = 244.38712 82.11216 46.49725
#
# Poissons Ratio (x) = 0.31065 -0.07942
# Poissons Ratio (y) = 0.92456 0.07121
# Poissons Ratio (z) = -0.41745 0.12575
#
# Static dielectric constant tensor:
#      x y z
#    x 1.816770 0.000000 -0.012490 
#    y 0.000000 1.876680 0.000000 
#    z -0.012490 0.000000 1.937340 
# 
# From -- ./inp_files/315698.got.cif
#   From: 2010.05.17/outbox.cif.g08.bks.cpg/sg15_158_cif.got.tgz:315698.got - 2010.06.03 18:47:42.
