data_PCOD9303803
_publ_section_title
;
Structure prediction by ZEFSAII (Michael W. Deem and Ramdas Pophale) SiO2 
 PCOD9303803
Probable space group: C 2/C
;
_chemical_formula_sum "Si O2"
_cell_formula_units_Z 44
_cell_length_a 14.757881
_cell_length_b 16.818431
_cell_length_c 7.800243
_cell_angle_alpha 90.000000
_cell_angle_beta 107.717412
_cell_angle_gamma 90.000000
_cell_volume 1844.225733
_symmetry_space_group_name_H-M "C 2/C"
_symmetry_group_IT_number 15
_symmetry_cell_setting 'monoclinic'
loop_
_space_group_symop_operation_xyz
x,y,z
-x,y,1/2-z
-x,-y,-z
x,-y,1/2+z
1/2+x,1/2+y,z
1/2-x,1/2+y,1/2-z
1/2-x,1/2-y,-z
1/2+x,1/2-y,1/2+z
loop_
_atom_site_type_symbol
_atom_site_label
_atom_site_fract_x
_atom_site_fract_y
_atom_site_fract_z
Si Si1 0.443075 0.114387 0.568424
Si Si2 0.071779 0.101794 0.135501
Si Si3 0.291933 0.625628 0.718837
Si Si4 0.107187 0.713571 0.640788
Si Si5 0.000000 0.116594 0.750000
Si Si6 0.752107 0.040134 0.061664
O O1 0.500000 0.065263 0.750000
O O2 0.527377 0.155567 0.510092
O O3 0.401043 0.187072 0.662187
O O4 0.355059 0.065639 0.448657
O O5 0.081269 0.195847 0.103495
O O6 0.171502 0.070604 0.258518
O O7 0.000000 0.092978 0.250000
O O8 0.034141 0.067931 0.934881
O O9 0.213940 0.693505 0.651522
O O10 0.400332 0.654348 0.757197
O O11 0.276526 0.584189 0.896532
O O12 0.264326 0.554595 0.572930
#
# Coordination Sequence:
#
# PCOD9303803 Si02
#       6
#     8   8   8   8   4   8
#     4   7  16  37  62  98 121 174 222 262 332 407
#     4  12  23  43  72 100 132 185 217 283 339 396
#     4  11  24  42  63  97 138 181 223 278 327 410
#     4   8  19  40  66  96 131 173 228 267 340 399
#     4  12  28  42  64 100 138 172 236 276 328 408
#     4  11  23  39  67  97 134 179 224 273 341 393
#
# _framework density 23.858250000000002
#
# number of rings (size 3 to 8) (size 9 to 14) (size 15 to 20)
#    1.091    0.727    3.636    1.091    1.273    7.273 
#    0.000    1.818    0.000    0.000    0.000    0.000 
#    0.000    0.000    0.000    0.000    0.000    0.000 
#
# Total GULP energy -122716.467599 kJ/mol
# GULP energy per Si atom -5578.021255 kJ/mol
# Density = 2.380395 g / cm^3
# Si number density = 23.858250 Si / 1000 Ang^3
#
#
#
# Elastic Constant Matrix: (Units=GPa)
#
#
# Indices 1 2 3 4 5 6 
#
# 1 185.9196 49.2767 36.4103 0.0000 37.1902 0.0000
# 2 49.2767 69.4029 22.4379 0.0000 15.9129 0.0000
# 3 36.4103 22.4379 116.3683 0.0000 -0.1515 0.0000
# 4 0.0000 0.0000 0.0000 11.5053 0.0000 2.0332
# 5 37.1902 15.9129 -0.1515 0.0000 40.8539 0.0000
# 6 0.0000 0.0000 0.0000 2.0332 0.0000 -24.8666
#
#
#
# Elastic Compliance Matrix: (Units=1/GPa)
#
#
# Indices 1 2 3 4 5 6 
#
# 1 0.007842 -0.003694 -0.001749 0.000000 -0.005706 0.000000
# 2 -0.003694 0.018731 -0.002461 0.000000 -0.003942 0.000000
# 3 -0.001749 -0.002461 0.009618 0.000000 0.002586 0.000000
# 4 0.000000 0.000000 0.000000 0.085678 0.000000 0.007005
# 5 -0.005706 -0.003942 0.002586 0.000000 0.031217 0.000000
# 6 0.000000 0.000000 0.000000 0.007005 0.000000 -0.039642
#
#
# Mechanical properties :
#
#
# Convention : Reuss Voigt Hill
#
# Bulk Modulus (GPa) = 49.05900 65.32672 57.19286
# Shear Modulus (GPa) = 36.75224 23.06958 29.91091
#
# Velocity S-wave (km/s) = 3.92910 3.11294 3.54459
# Velocity P-wave (km/s) = 6.41803 6.35305 6.38562
#
# Compressibility (1/GPa) = 0.02038362
#
# Stress axis : x y z
#
# Youngs Moduli (GPa) = 127.52518 53.38780 103.96685
#
# Poissons Ratio (x) = 0.19721 0.18181
# Poissons Ratio (y) = 0.47107 0.25586
# Poissons Ratio (z) = 0.22300 0.13139
#
# Static dielectric constant tensor:
#      x y z
#    x 1.969770 0.000000 -0.028180 
#    y 0.000000 1.880850 0.000000 
#    z -0.028180 0.000000 2.004180 
# 
# From -- ./inp_files/39359.got.cif
#   From: 2010.05.17/outbox.cif.g08.bks.cpg/sg15_20_cif.got.tgz:39359.got - 2010.06.03 18:47:42.
