data_PCOD9303504
_publ_section_title
;
Structure prediction by ZEFSAII (Michael W. Deem and Ramdas Pophale) SiO2 
 PCOD9303504
Probable space group: C 2/C
;
_chemical_formula_sum "Si O2"
_cell_formula_units_Z 44
_cell_length_a 12.268999
_cell_length_b 8.558293
_cell_length_c 17.136358
_cell_angle_alpha 90.000000
_cell_angle_beta 90.310113
_cell_angle_gamma 90.000000
_cell_volume 1799.320165
_symmetry_space_group_name_H-M "C 2/C"
_symmetry_group_IT_number 15
_symmetry_cell_setting 'monoclinic'
loop_
_space_group_symop_operation_xyz
x,y,z
-x,y,1/2-z
-x,-y,-z
x,-y,1/2+z
1/2+x,1/2+y,z
1/2-x,1/2+y,1/2-z
1/2-x,1/2-y,-z
1/2+x,1/2-y,1/2+z
loop_
_atom_site_type_symbol
_atom_site_label
_atom_site_fract_x
_atom_site_fract_y
_atom_site_fract_z
Si Si1 0.279377 0.494809 0.891537
Si Si2 0.926597 0.323594 0.064212
Si Si3 0.458538 0.749493 0.889096
Si Si4 0.000000 0.486292 0.750000
Si Si5 0.850918 0.678353 0.837004
Si Si6 0.841155 0.026322 0.569482
O O1 0.156295 0.545217 0.906956
O O2 0.352490 0.644521 0.870252
O O3 0.300921 0.351822 0.833393
O O4 0.320434 0.439778 0.977886
O O5 0.040333 0.316132 0.109529
O O6 0.868860 0.155638 0.075254
O O7 0.941839 0.336360 0.971323
O O8 0.486048 0.870081 0.822112
O O9 0.556620 0.627938 0.902455
O O10 0.104590 0.601102 0.742030
O O11 0.761613 0.572740 0.879117
#
# Coordination Sequence:
#
# PCOD9303504 Si02
#       6
#     8   8   8   4   8   8
#     4  11  22  44  78 110 137 181 237 305 358 419
#     4  11  23  46  81 106 143 178 239 309 358 416
#     4  11  23  48  73 105 146 190 236 300 363 425
#     4  12  30  46  62 104 152 196 246 288 356 442
#     4  12  26  47  69 111 140 186 244 288 360 437
#     4  11  22  45  76 110 138 178 240 303 358 424
#
# _framework density 24.453681
#
# number of rings (size 3 to 8) (size 9 to 14) (size 15 to 20)
#    0.000    0.727    3.636    6.000    2.545    2.182 
#    6.545    0.000    0.000    0.000    0.000    0.000 
#    0.000    0.000    0.000    0.000    0.000    0.000 
#
# Total GULP energy -123466.791174 kJ/mol
# GULP energy per Si atom -5612.126872 kJ/mol
# Density = 2.439802 g / cm^3
# Si number density = 24.453681 Si / 1000 Ang^3
#
#
#
# Elastic Constant Matrix: (Units=GPa)
#
#
# Indices 1 2 3 4 5 6 
#
# 1 141.9214 50.5810 48.2634 0.0000 -38.9317 0.0000
# 2 50.5810 122.8532 75.4474 0.0000 -29.9747 0.0000
# 3 48.2634 75.4474 118.4095 0.0000 -37.6758 0.0000
# 4 0.0000 0.0000 0.0000 47.3260 0.0000 -13.5676
# 5 -38.9317 -29.9747 -37.6758 0.0000 39.1720 0.0000
# 6 0.0000 0.0000 0.0000 -13.5676 0.0000 56.9549
#
#
#
# Elastic Compliance Matrix: (Units=1/GPa)
#
#
# Indices 1 2 3 4 5 6 
#
# 1 0.010113 -0.002017 -0.000187 0.000000 0.008328 0.000000
# 2 -0.002017 0.014013 -0.007684 0.000000 0.001328 0.000000
# 3 -0.000187 -0.007684 0.016554 0.000000 0.009855 0.000000
# 4 0.000000 0.000000 0.000000 0.022679 0.000000 0.005402
# 5 0.008328 0.001328 0.009855 0.000000 0.044300 0.000000
# 6 0.000000 0.000000 0.000000 0.005402 0.000000 0.018845
#
#
# Mechanical properties :
#
#
# Convention : Reuss Voigt Hill
#
# Bulk Modulus (GPa) = 47.84027 81.30752 64.57389
# Shear Modulus (GPa) = 32.62690 42.61673 37.62181
#
# Velocity S-wave (km/s) = 3.65668 4.17916 3.92662
# Velocity P-wave (km/s) = 6.11837 7.52389 6.85724
#
# Compressibility (1/GPa) = 0.02090289
#
# Stress axis : x y z
#
# Youngs Moduli (GPa) = 98.88185 71.36066 60.40996
#
# Poissons Ratio (x) = 0.14393 0.01131
# Poissons Ratio (y) = 0.19944 0.46421
# Poissons Ratio (z) = 0.01851 0.54836
#
# Static dielectric constant tensor:
#      x y z
#    x 1.929340 0.000000 0.036670 
#    y 0.000000 1.931820 0.000000 
#    z 0.036670 0.000000 1.967550 
# 
# From -- ./inp_files/236115.got.cif
#   From: 2010.05.17/outbox.cif.g08.bks.cpg/sg15_119_cif.got.tgz:236115.got - 2010.06.03 18:47:42.
