data_PCOD9303468
_publ_section_title
;
Structure prediction by ZEFSAII (Michael W. Deem and Ramdas Pophale) SiO2 
 PCOD9303468
Probable space group: C 2/C
;
_chemical_formula_sum "Si O2"
_cell_formula_units_Z 44
_cell_length_a 7.784585
_cell_length_b 25.194904
_cell_length_c 13.436599
_cell_angle_alpha 90.000000
_cell_angle_beta 49.255436
_cell_angle_gamma 90.000000
_cell_volume 1996.608531
_symmetry_space_group_name_H-M "C 2/C"
_symmetry_group_IT_number 15
_symmetry_cell_setting 'monoclinic'
loop_
_space_group_symop_operation_xyz
x,y,z
-x,y,1/2-z
-x,-y,-z
x,-y,1/2+z
1/2+x,1/2+y,z
1/2-x,1/2+y,1/2-z
1/2-x,1/2-y,-z
1/2+x,1/2-y,1/2+z
loop_
_atom_site_type_symbol
_atom_site_label
_atom_site_fract_x
_atom_site_fract_y
_atom_site_fract_z
Si Si1 0.500000 0.078071 0.250000
Si Si2 0.000000 0.103490 0.250000
Si Si3 0.218550 0.851520 0.009807
Si Si4 0.416199 0.514482 0.141228
Si Si5 0.771036 0.313324 0.381081
Si Si6 0.162347 0.305626 0.906321
Si Si7 0.000000 0.919252 0.250000
O O1 0.341599 0.112477 0.381289
O O2 0.668674 0.039499 0.243639
O O3 0.939438 0.062048 0.361325
O O4 0.203524 0.145041 0.194330
O O5 0.969929 0.837013 0.062468
O O6 0.181995 0.883026 0.126361
O O7 0.402297 0.806943 0.968833
O O8 0.412619 0.459510 0.200365
O O9 0.500000 0.500000 0.000000
O O10 0.799689 0.313198 0.489616
O O11 0.758192 0.252405 0.347064
O O12 0.000000 0.338487 0.250000
#
# Coordination Sequence:
#
# PCOD9303468 Si02
#       7
#     4   4   8   8   8   8   4
#     4  12  24  44  73 101 141 187 246 300 376 428
#     4  11  22  44  72  99 147 190 234 303 372 426
#     4  12  25  45  72 109 143 193 240 308 362 439
#     4  11  24  44  70 102 140 187 243 304 363 440
#     4  11  25  45  71 106 147 192 245 296 363 435
#     4  11  24  43  71 104 143 193 241 294 364 438
#     4  11  26  44  67 102 146 187 246 291 386 424
#
# _framework density 22.037369999999999
#
# number of rings (size 3 to 8) (size 9 to 14) (size 15 to 20)
#    0.000    0.727    4.545    2.727    0.000    2.182 
#    1.636    1.818    0.000    0.000    0.000    0.000 
#    0.000    0.000    0.000    0.000    0.000    0.000 
#
# Total GULP energy -122869.161222 kJ/mol
# GULP energy per Si atom -5584.961874 kJ/mol
# Density = 2.198721 g / cm^3
# Si number density = 22.037370 Si / 1000 Ang^3
#
#
#
# Elastic Constant Matrix: (Units=GPa)
#
#
# Indices 1 2 3 4 5 6 
#
# 1 129.9762 5.6893 22.1567 0.0000 -26.9244 0.0000
# 2 5.6893 49.5908 22.1320 0.0000 -16.4641 0.0000
# 3 22.1567 22.1320 111.2629 0.0000 -12.0458 0.0000
# 4 0.0000 0.0000 0.0000 22.7596 0.0000 8.5875
# 5 -26.9244 -16.4641 -12.0458 0.0000 36.1375 0.0000
# 6 0.0000 0.0000 0.0000 8.5875 0.0000 -84.4769
#
#
#
# Elastic Compliance Matrix: (Units=1/GPa)
#
#
# Indices 1 2 3 4 5 6 
#
# 1 0.009397 0.002051 -0.001473 0.000000 0.007445 0.000000
# 2 0.002051 0.025760 -0.004250 0.000000 0.011848 0.000000
# 3 -0.001473 -0.004250 0.010165 0.000000 0.000354 0.000000
# 4 0.000000 0.000000 0.000000 0.042315 0.000000 0.004301
# 5 0.007445 0.011848 0.000354 0.000000 0.038735 0.000000
# 6 0.000000 0.000000 0.000000 0.004301 0.000000 -0.011400
#
#
# Mechanical properties :
#
#
# Convention : Reuss Voigt Hill
#
# Bulk Modulus (GPa) = 26.33114 43.42066 34.87590
# Shear Modulus (GPa) = 37.04407 10.94083 23.99245
#
# Velocity S-wave (km/s) = 4.10441 2.23057 3.30315
# Velocity P-wave (km/s) = 5.86821 5.13614 5.51434
#
# Compressibility (1/GPa) = 0.03797785
#
# Stress axis : x y z
#
# Youngs Moduli (GPa) = 106.41370 38.82015 98.37824
#
# Poissons Ratio (x) = -0.07963 0.14495
# Poissons Ratio (y) = -0.21827 0.41809
# Poissons Ratio (z) = 0.15678 0.16498
#
# Static dielectric constant tensor:
#      x y z
#    x 1.967680 0.000000 0.033890 
#    y 0.000000 1.861110 0.000000 
#    z 0.033890 0.000000 1.786840 
# 
# From -- ./inp_files/79727.got.cif
#   From: 2010.05.17/outbox.cif.g08.bks.cpg/sg15_40_cif.got.tgz:79727.got - 2010.06.03 18:47:42.
