data_PCOD9303404
_publ_section_title
;
Structure prediction by ZEFSAII (Michael W. Deem and Ramdas Pophale) SiO2 
 PCOD9303404
Probable space group: C 2/C
;
_chemical_formula_sum "Si O2"
_cell_formula_units_Z 52
_cell_length_a 18.975696
_cell_length_b 15.995191
_cell_length_c 11.470127
_cell_angle_alpha 90.000000
_cell_angle_beta 127.190301
_cell_angle_gamma 90.000000
_cell_volume 2773.404760
_symmetry_space_group_name_H-M "C 2/C"
_symmetry_group_IT_number 15
_symmetry_cell_setting 'monoclinic'
loop_
_space_group_symop_operation_xyz
x,y,z
-x,y,1/2-z
-x,-y,-z
x,-y,1/2+z
1/2+x,1/2+y,z
1/2-x,1/2+y,1/2-z
1/2-x,1/2-y,-z
1/2+x,1/2-y,1/2+z
loop_
_atom_site_type_symbol
_atom_site_label
_atom_site_fract_x
_atom_site_fract_y
_atom_site_fract_z
Si Si1 0.569630 0.375913 0.130102
Si Si2 0.250000 0.857975 0.908873
Si Si3 0.057058 0.930415 0.690156
Si Si4 0.500000 0.750000 0.750000
Si Si5 0.569630 0.124086 0.509158
Si Si6 0.057058 0.569586 0.923959
Si Si7 0.750000 0.821423 0.314709
O O1 0.560044 0.470828 0.165830
O O2 0.555367 0.310458 0.219923
O O3 0.662713 0.357821 0.159894
O O4 0.491487 0.374295 0.956100
O O5 0.158575 0.904963 0.798342
O O6 0.250000 0.779088 0.821165
O O7 0.341425 0.904963 0.981191
O O8 0.250000 0.840121 0.047401
O O9 0.000000 0.917896 0.750000
O O10 0.444633 0.810459 0.609190
O O11 0.491487 0.125705 0.526875
O O12 0.662713 0.142178 0.665533
O O13 0.560044 0.029172 0.454259
O O14 0.000000 0.582104 0.750000
#
# Coordination Sequence:
#
# PCOD9303404 Si02
#       7
#     8   8   8   4   8   8   8
#     4  11  24  42  67  95 136 170 219 269 336 396
#     4  11  23  40  66  97 127 166 228 272 326 386
#     4  11  22  44  68  95 128 178 221 271 321 406
#     4  12  24  42  62 100 132 176 208 276 344 388
#     4  11  24  42  67  95 136 170 219 269 336 396
#     4  11  22  44  68  95 128 178 221 271 321 406
#     4  11  23  41  62  98 127 169 218 279 329 387
#
# _framework density 18.749517000000001
#
# number of rings (size 3 to 8) (size 9 to 14) (size 15 to 20)
#    0.000    0.923    4.615    2.769    0.000    0.615 
#    0.000    1.538    0.000    0.000    0.000    0.000 
#    0.000    0.000    0.000    0.000    0.000    0.000 
#
# Total GULP energy -145094.625120 kJ/mol
# GULP energy per Si atom -5580.562505 kJ/mol
# Density = 1.870684 g / cm^3
# Si number density = 18.749517 Si / 1000 Ang^3
#
#
#
# Elastic Constant Matrix: (Units=GPa)
#
#
# Indices 1 2 3 4 5 6 
#
# 1 147.0255 40.4828 69.3308 0.0000 17.6822 0.0000
# 2 40.4828 66.8625 41.9819 0.0000 -2.7271 0.0000
# 3 69.3308 41.9819 129.0768 0.0000 14.9396 0.0000
# 4 0.0000 0.0000 0.0000 14.5788 0.0000 -25.4475
# 5 17.6822 -2.7271 14.9396 0.0000 38.9678 0.0000
# 6 0.0000 0.0000 0.0000 -25.4475 0.0000 0.5803
#
#
#
# Elastic Compliance Matrix: (Units=1/GPa)
#
#
# Indices 1 2 3 4 5 6 
#
# 1 0.010039 -0.003867 -0.003742 0.000000 -0.003391 0.000000
# 2 -0.003867 0.020846 -0.005311 0.000000 0.005250 0.000000
# 3 -0.003742 -0.005311 0.011857 0.000000 -0.003220 0.000000
# 4 0.000000 0.000000 0.000000 -0.000908 0.000000 -0.039817
# 5 -0.003391 0.005250 -0.003220 0.000000 0.028803 0.000000
# 6 0.000000 0.000000 0.000000 -0.039817 0.000000 -0.022811
#
#
# Mechanical properties :
#
#
# Convention : Reuss Voigt Hill
#
# Bulk Modulus (GPa) = 59.16155 71.83953 65.50054
# Shear Modulus (GPa) = 63.05288 23.56999 43.31144
#
# Velocity S-wave (km/s) = 5.80535 3.54941 4.81146
# Velocity P-wave (km/s) = 8.74976 7.42942 8.11648
#
# Compressibility (1/GPa) = 0.01690287
#
# Stress axis : x y z
#
# Youngs Moduli (GPa) = 99.61558 47.97100 84.33780
#
# Poissons Ratio (x) = 0.18550 0.31558
# Poissons Ratio (y) = 0.38520 0.44789
# Poissons Ratio (z) = 0.37274 0.25476
#
# Static dielectric constant tensor:
#      x y z
#    x 1.678270 0.000000 0.024740 
#    y 0.000000 1.658580 0.000000 
#    z 0.024740 0.000000 1.664660 
# 
# From -- ./inp_files/112782.got.cif
#   From: 2010.05.17/outbox.cif.g08.bks.cpg/sg15_57_cif.got.tgz:112782.got - 2010.06.03 18:47:42.
