data_PCOD9303837
_publ_section_title
;
Structure prediction by ZEFSAII (Michael W. Deem and Ramdas Pophale) SiO2 
 PCOD9303837
Probable space group: C 2/C
;
_chemical_formula_sum "Si O2"
_cell_formula_units_Z 64
_cell_length_a 10.496239
_cell_length_b 26.535410
_cell_length_c 13.328773
_cell_angle_alpha 90.000000
_cell_angle_beta 44.701237
_cell_angle_gamma 90.000000
_cell_volume 2611.308926
_symmetry_space_group_name_H-M "C 2/C"
_symmetry_group_IT_number 15
_symmetry_cell_setting 'monoclinic'
loop_
_space_group_symop_operation_xyz
x,y,z
-x,y,1/2-z
-x,-y,-z
x,-y,1/2+z
1/2+x,1/2+y,z
1/2-x,1/2+y,1/2-z
1/2-x,1/2-y,-z
1/2+x,1/2-y,1/2+z
loop_
_atom_site_type_symbol
_atom_site_label
_atom_site_fract_x
_atom_site_fract_y
_atom_site_fract_z
Si Si1 0.457089 0.486172 0.408579
Si Si2 0.407372 0.958240 0.447486
Si Si3 0.634843 0.374126 0.585408
Si Si4 0.808272 0.706242 0.103535
Si Si5 0.965673 0.124331 0.586600
Si Si6 0.816179 0.532638 0.213493
Si Si7 0.189744 0.642044 0.192964
Si Si8 0.626155 0.191570 0.776204
O O1 0.500000 0.500000 0.500000
O O2 0.258494 0.504868 0.491480
O O3 0.492735 0.426992 0.378248
O O4 0.626384 0.516797 0.269843
O O5 0.324829 0.903580 0.473602
O O6 0.439924 0.953505 0.549072
O O7 0.589201 0.981589 0.299024
O O8 0.500000 0.390774 0.750000
O O9 0.676908 0.316668 0.590580
O O10 0.553526 0.384263 0.523005
O O11 0.793828 0.668952 0.207850
O O12 0.741168 0.760061 0.176445
O O13 0.001956 0.704953 0.941025
O O14 0.776712 0.149864 0.720155
O O15 0.151871 0.155764 0.475080
O O16 0.808404 0.580894 0.289083
O O17 0.000000 0.655323 0.250000
O O18 0.500000 0.178633 0.750000
#
# Coordination Sequence:
#
# PCOD9303837 Si02
#       8
#     8   8   8   8   8   8   8   8
#     4  12  23  38  60  96 142 181 226 281 348 414
#     4  11  23  40  63  97 135 185 237 289 345 412
#     4  12  21  40  70  99 144 180 232 301 369 420
#     4  12  26  47  73 110 143 180 237 305 373 442
#     4  12  25  42  68 105 144 186 238 292 360 435
#     4  11  24  40  66  93 136 187 243 289 341 412
#     4  12  25  46  73 102 143 199 245 295 358 432
#     4  12  27  46  77 112 144 179 232 306 377 434
#
# _framework density 24.508780999999999
#
# number of rings (size 3 to 8) (size 9 to 14) (size 15 to 20)
#    0.000    0.250    6.250    3.375    1.750    0.000 
#    0.000    4.375    0.000    0.000    0.000    0.000 
#    0.000    0.000    0.000    0.000    0.000    0.000 
#
# Total GULP energy -178878.550624 kJ/mol
# GULP energy per Si atom -5589.954707 kJ/mol
# Density = 2.445300 g / cm^3
# Si number density = 24.508781 Si / 1000 Ang^3
#
#
#
# Elastic Constant Matrix: (Units=GPa)
#
#
# Indices 1 2 3 4 5 6 
#
# 1 58.2010 -7.6941 5.9106 0.0000 -18.0208 0.0000
# 2 -7.6941 83.8920 29.2015 0.0000 -5.4964 0.0000
# 3 5.9106 29.2015 137.5764 0.0000 -16.7221 0.0000
# 4 0.0000 0.0000 0.0000 29.4010 0.0000 -15.9333
# 5 -18.0208 -5.4964 -16.7221 0.0000 42.8042 0.0000
# 6 0.0000 0.0000 0.0000 -15.9333 0.0000 25.4268
#
#
#
# Elastic Compliance Matrix: (Units=1/GPa)
#
#
# Indices 1 2 3 4 5 6 
#
# 1 0.020254 0.002551 -0.000352 0.000000 0.008717 0.000000
# 2 0.002551 0.013208 -0.002705 0.000000 0.001713 0.000000
# 3 -0.000352 -0.002705 0.008186 0.000000 0.002703 0.000000
# 4 0.000000 0.000000 0.000000 0.051502 0.000000 0.032273
# 5 0.008717 0.001713 0.002703 0.000000 0.028308 0.000000
# 6 0.000000 0.000000 0.000000 0.032273 0.000000 0.059552
#
#
# Mechanical properties :
#
#
# Convention : Reuss Voigt Hill
#
# Bulk Modulus (GPa) = 24.60819 37.16727 30.88773
# Shear Modulus (GPa) = 25.56663 36.34315 30.95489
#
# Velocity S-wave (km/s) = 3.23331 3.85497 3.55774
# Velocity P-wave (km/s) = 4.89912 5.91711 5.43202
#
# Compressibility (1/GPa) = 0.04063688
#
# Stress axis : x y z
#
# Youngs Moduli (GPa) = 49.37309 75.71263 122.15351
#
# Poissons Ratio (x) = -0.19316 0.04301
# Poissons Ratio (y) = -0.12596 0.33040
# Poissons Ratio (z) = 0.01739 0.20479
#
# Static dielectric constant tensor:
#      x y z
#    x 1.979480 0.000000 -0.050290 
#    y 0.000000 1.993200 0.000000 
#    z -0.050290 0.000000 2.254220 
# 
# From -- ./inp_files/148765.got.cif
#   From: 2010.05.17/outbox.cif.g08.bks.cpg/sg15_75_cif.got.tgz:148765.got - 2010.06.03 18:47:42.
