data_PCOD9303820
_publ_section_title
;
Structure prediction by ZEFSAII (Michael W. Deem and Ramdas Pophale) SiO2 
 PCOD9303820
Probable space group: C 2/C
;
_chemical_formula_sum "Si O2"
_cell_formula_units_Z 40
_cell_length_a 6.857751
_cell_length_b 12.011443
_cell_length_c 27.246319
_cell_angle_alpha 90.000000
_cell_angle_beta 121.515211
_cell_angle_gamma 90.000000
_cell_volume 1913.285786
_symmetry_space_group_name_H-M "C 2/C"
_symmetry_group_IT_number 15
_symmetry_cell_setting 'monoclinic'
loop_
_space_group_symop_operation_xyz
x,y,z
-x,y,1/2-z
-x,-y,-z
x,-y,1/2+z
1/2+x,1/2+y,z
1/2-x,1/2+y,1/2-z
1/2-x,1/2-y,-z
1/2+x,1/2-y,1/2+z
loop_
_atom_site_type_symbol
_atom_site_label
_atom_site_fract_x
_atom_site_fract_y
_atom_site_fract_z
Si Si1 0.101184 0.472408 0.903628
Si Si2 0.906547 0.043733 0.684302
Si Si3 0.299246 0.728317 0.599336
Si Si4 0.126734 0.365721 0.497702
Si Si5 0.476644 0.597997 0.382102
O O1 0.084448 0.337878 0.907589
O O2 0.159021 0.542366 0.959595
O O3 0.312503 0.480744 0.893362
O O4 0.864671 0.518715 0.851009
O O5 0.024000 0.936879 0.674163
O O6 0.000000 0.068098 0.750000
O O7 0.945396 0.141921 0.649696
O O8 0.140856 0.665715 0.538847
O O9 0.127117 0.781974 0.617828
O O10 0.250000 0.250000 0.500000
O O11 0.265238 0.407627 0.563149
#
# Coordination Sequence:
#
# PCOD9303820 Si02
#       5
#     8   8   8   8   8
#     4   9  20  38  59  87 115 150 192 232 289 346
#     4  11  23  40  56  78 114 152 199 247 279 326
#     4   8  20  38  58  84 116 148 189 234 286 347
#     4   9  16  34  62  89 122 150 173 235 293 352
#     4   9  20  38  60  85 117 148 187 233 291 346
#
# _framework density 20.906444
#
# number of rings (size 3 to 8) (size 9 to 14) (size 15 to 20)
#    1.200    1.600    0.000    0.600    0.000    5.600 
#   10.800    2.000    0.000    0.000    0.000    0.000 
#    0.000    0.000    0.000    0.000    0.000    0.000 
#
# Total GULP energy -111402.434553 kJ/mol
# GULP energy per Si atom -5570.121728 kJ/mol
# Density = 2.085886 g / cm^3
# Si number density = 20.906444 Si / 1000 Ang^3
#
#
#
# Elastic Constant Matrix: (Units=GPa)
#
#
# Indices 1 2 3 4 5 6 
#
# 1 61.5421 25.7857 19.2858 0.0000 -3.0451 0.0000
# 2 25.7857 97.0214 19.7730 0.0000 2.1150 0.0000
# 3 19.2858 19.7730 69.7935 0.0000 0.9900 0.0000
# 4 0.0000 0.0000 0.0000 18.0489 0.0000 -4.5912
# 5 -3.0451 2.1150 0.9900 0.0000 12.2440 0.0000
# 6 0.0000 0.0000 0.0000 -4.5912 0.0000 39.8076
#
#
#
# Elastic Compliance Matrix: (Units=1/GPa)
#
#
# Indices 1 2 3 4 5 6 
#
# 1 0.019780 -0.004518 -0.004271 0.000000 0.006045 0.000000
# 2 -0.004518 0.012004 -0.002109 0.000000 -0.003027 0.000000
# 3 -0.004271 -0.002109 0.016134 0.000000 -0.002002 0.000000
# 4 0.000000 0.000000 0.000000 0.057080 0.000000 0.006583
# 5 0.006045 -0.003027 -0.002002 0.000000 0.083861 0.000000
# 6 0.000000 0.000000 0.000000 0.006583 0.000000 0.025880
#
#
# Mechanical properties :
#
#
# Convention : Reuss Voigt Hill
#
# Bulk Modulus (GPa) = 38.28490 39.78288 39.03389
# Shear Modulus (GPa) = 20.38798 24.92094 22.65446
#
# Velocity S-wave (km/s) = 3.12621 3.45631 3.29540
# Velocity P-wave (km/s) = 5.60207 5.91595 5.76115
#
# Compressibility (1/GPa) = 0.02611996
#
# Stress axis : x y z
#
# Youngs Moduli (GPa) = 50.55669 83.30781 61.97988
#
# Poissons Ratio (x) = 0.37640 0.26474
# Poissons Ratio (y) = 0.22843 0.13073
# Poissons Ratio (z) = 0.21595 0.17572
#
# Static dielectric constant tensor:
#      x y z
#    x 1.808480 0.000000 -0.007110 
#    y 0.000000 1.776240 0.000000 
#    z -0.007110 0.000000 1.714850 
# 
# From -- ./inp_files/229854.got.cif
#   From: 2010.05.17/outbox.cif.g08.bks.cpg/sg15_115_cif.got.tgz:229854.got - 2010.06.03 18:47:42.
