data_PCOD9303183
_publ_section_title
;
Structure prediction by ZEFSAII (Michael W. Deem and Ramdas Pophale) SiO2 
 PCOD9303183
Probable space group: C 2/C
;
_chemical_formula_sum "Si O2"
_cell_formula_units_Z 56
_cell_length_a 14.381601
_cell_length_b 11.591800
_cell_length_c 25.023823
_cell_angle_alpha 90.000000
_cell_angle_beta 37.947598
_cell_angle_gamma 90.000000
_cell_volume 2565.339690
_symmetry_space_group_name_H-M "C 2/C"
_symmetry_group_IT_number 15
_symmetry_cell_setting 'monoclinic'
loop_
_space_group_symop_operation_xyz
x,y,z
-x,y,1/2-z
-x,-y,-z
x,-y,1/2+z
1/2+x,1/2+y,z
1/2-x,1/2+y,1/2-z
1/2-x,1/2-y,-z
1/2+x,1/2-y,1/2+z
loop_
_atom_site_type_symbol
_atom_site_label
_atom_site_fract_x
_atom_site_fract_y
_atom_site_fract_z
Si Si1 0.674588 0.324927 0.149352
Si Si2 0.724659 0.943167 0.241562
Si Si3 0.054087 0.548855 0.917924
Si Si4 0.503693 0.259711 0.809441
Si Si5 0.789666 0.607460 0.959193
Si Si6 0.538844 0.496891 0.133297
Si Si7 0.171033 0.433070 0.655626
O O1 0.500000 0.328620 0.250000
O O2 0.805459 0.368693 0.129680
O O3 0.659986 0.415286 0.107325
O O4 0.723159 0.194184 0.114787
O O5 0.738872 0.011581 0.178973
O O6 0.896550 0.922256 0.180510
O O7 0.634499 0.013146 0.329511
O O8 0.630321 0.824078 0.277468
O O9 0.901396 0.594252 0.959166
O O10 0.000000 0.500000 0.000000
O O11 0.500000 0.224456 0.750000
O O12 0.341986 0.228069 0.909493
O O13 0.525626 0.396593 0.802550
O O14 0.829668 0.518740 0.893575
O O15 0.621567 0.567471 0.049098
O O16 0.000000 0.415970 0.750000
#
# Coordination Sequence:
#
# PCOD9303183 Si02
#       7
#     8   8   8   8   8   8   8
#     4  11  24  42  66 103 138 181 231 284 341 403
#     4  11  24  44  68 100 132 185 229 274 346 413
#     4  11  22  42  69  97 136 174 226 280 343 403
#     4  11  23  46  70  96 138 188 230 279 347 407
#     4  11  23  46  69 101 139 183 232 277 346 407
#     4  12  26  42  69 105 142 175 231 293 339 410
#     4  11  22  45  72  94 136 187 229 279 338 421
#
# _framework density 21.829467000000001
#
# number of rings (size 3 to 8) (size 9 to 14) (size 15 to 20)
#    0.000    0.857    7.143    0.857    4.000    1.143 
#    0.000    0.000    0.000    0.000    0.000    0.000 
#    0.000    0.000    0.000    0.000    0.000    0.000 
#
# Total GULP energy -155902.834142 kJ/mol
# GULP energy per Si atom -5567.958362 kJ/mol
# Density = 2.177978 g / cm^3
# Si number density = 21.829467 Si / 1000 Ang^3
#
#
#
# Elastic Constant Matrix: (Units=GPa)
#
#
# Indices 1 2 3 4 5 6 
#
# 1 125.0163 31.8988 33.8456 0.0000 4.7862 0.0000
# 2 31.8988 101.7630 -1.8415 0.0000 6.1721 0.0000
# 3 33.8456 -1.8415 51.1255 0.0000 -3.9103 0.0000
# 4 0.0000 0.0000 0.0000 10.2198 0.0000 -12.9277
# 5 4.7862 6.1721 -3.9103 0.0000 38.1713 0.0000
# 6 0.0000 0.0000 0.0000 -12.9277 0.0000 -5.2844
#
#
#
# Elastic Compliance Matrix: (Units=1/GPa)
#
#
# Indices 1 2 3 4 5 6 
#
# 1 0.010984 -0.003483 -0.007518 0.000000 -0.001584 0.000000
# 2 -0.003483 0.011031 0.002621 0.000000 -0.001079 0.000000
# 3 -0.007518 0.002621 0.024865 0.000000 0.003066 0.000000
# 4 0.000000 0.000000 0.000000 0.023897 0.000000 -0.058462
# 5 -0.001584 -0.001079 0.003066 0.000000 0.026885 0.000000
# 6 0.000000 0.000000 0.000000 -0.058462 0.000000 -0.046216
#
#
# Mechanical properties :
#
#
# Convention : Reuss Voigt Hill
#
# Bulk Modulus (GPa) = 33.20049 45.07896 39.13972
# Shear Modulus (GPa) = 63.90070 22.88816 43.39443
#
# Velocity S-wave (km/s) = 5.41629 3.24157 4.46341
# Velocity P-wave (km/s) = 7.37272 5.89115 6.67318
#
# Compressibility (1/GPa) = 0.03012004
#
# Stress axis : x y z
#
# Youngs Moduli (GPa) = 91.04492 90.65080 40.21637
#
# Poissons Ratio (x) = 0.31573 0.30234
# Poissons Ratio (y) = 0.31710 -0.10539
# Poissons Ratio (z) = 0.68446 -0.23756
#
# Static dielectric constant tensor:
#      x y z
#    x 1.094460 0.000000 -0.625010 
#    y 0.000000 1.865240 0.000000 
#    z -0.625010 0.000000 1.265990 
# 
# From -- ./inp_files/295898.got.cif
#   From: 2010.05.17/outbox.cif.g08.bks.cpg/sg15_148_cif.got.tgz:295898.got - 2010.06.03 18:47:42.
