data_PCOD9303640
_publ_section_title
;
Structure prediction by ZEFSAII (Michael W. Deem and Ramdas Pophale) SiO2 
 PCOD9303640
Probable space group: C 2/C
;
_chemical_formula_sum "Si O2"
_cell_formula_units_Z 48
_cell_length_a 30.390654
_cell_length_b 8.457646
_cell_length_c 14.622288
_cell_angle_alpha 90.000000
_cell_angle_beta 34.958164
_cell_angle_gamma 90.000000
_cell_volume 2153.490451
_symmetry_space_group_name_H-M "C 2/C"
_symmetry_group_IT_number 15
_symmetry_cell_setting 'monoclinic'
loop_
_space_group_symop_operation_xyz
x,y,z
-x,y,1/2-z
-x,-y,-z
x,-y,1/2+z
1/2+x,1/2+y,z
1/2-x,1/2+y,1/2-z
1/2-x,1/2-y,-z
1/2+x,1/2-y,1/2+z
loop_
_atom_site_type_symbol
_atom_site_label
_atom_site_fract_x
_atom_site_fract_y
_atom_site_fract_z
Si Si1 0.574070 0.275685 0.868306
Si Si2 0.462146 0.936059 0.222304
Si Si3 0.179087 0.031890 0.588967
Si Si4 0.212983 0.493334 0.929689
Si Si5 0.784829 0.349108 0.268873
Si Si6 0.027649 0.804636 0.301468
O O1 0.520480 0.172525 0.893695
O O2 0.625083 0.389974 0.718498
O O3 0.633799 0.161298 0.818641
O O4 0.525478 0.369168 0.026857
O O5 0.500000 0.870638 0.250000
O O6 0.370583 0.947593 0.390903
O O7 0.487394 0.116995 0.169193
O O8 0.235368 0.069249 0.577929
O O9 0.229512 0.966845 0.419272
O O10 0.117262 0.162134 0.664647
O O11 0.207087 0.599682 0.849545
O O12 0.251833 0.327838 0.834078
O O13 0.000000 0.864350 0.250000
#
# Coordination Sequence:
#
# PCOD9303640 Si02
#       6
#     8   8   8   8   8   8
#     4  11  22  47  65  92 134 176 217 272 336 390
#     4  11  23  42  65  96 134 172 219 268 331 396
#     4  11  24  44  67  96 132 173 219 276 329 398
#     4  11  24  43  66  99 128 171 221 268 335 391
#     4  11  23  42  71  93 135 170 218 279 326 392
#     4  11  26  41  67  98 134 171 221 275 330 391
#
# _framework density 22.289393
#
# number of rings (size 3 to 8) (size 9 to 14) (size 15 to 20)
#    0.000    1.000    3.333    4.000    7.000    4.000 
#    0.000    0.000    0.000    0.000    0.000    0.000 
#    0.000    0.000    0.000    0.000    0.000    0.000 
#
# Total GULP energy -134321.419798 kJ/mol
# GULP energy per Si atom -5596.725825 kJ/mol
# Density = 2.223866 g / cm^3
# Si number density = 22.289393 Si / 1000 Ang^3
#
#
#
# Elastic Constant Matrix: (Units=GPa)
#
#
# Indices 1 2 3 4 5 6 
#
# 1 134.5881 14.3303 32.2098 0.0000 11.1305 0.0000
# 2 14.3303 22.2084 6.2789 0.0004 11.5194 0.0000
# 3 32.2098 6.2789 99.9869 0.0001 9.1669 0.0000
# 4 0.0000 0.0004 0.0001 34.5243 -0.0001 0.3927
# 5 11.1305 11.5194 9.1669 -0.0001 36.3431 0.0000
# 6 0.0000 0.0000 0.0000 0.3927 0.0000 19.4555
#
#
#
# Elastic Compliance Matrix: (Units=1/GPa)
#
#
# Indices 1 2 3 4 5 6 
#
# 1 0.008537 -0.004531 -0.002413 0.000000 -0.000570 0.000000
# 2 -0.004531 0.056633 -0.000592 -0.000001 -0.016413 0.000000
# 3 -0.002413 -0.000592 0.010985 0.000000 -0.001844 0.000000
# 4 0.000000 -0.000001 0.000000 0.028972 0.000000 -0.000585
# 5 -0.000570 -0.016413 -0.001844 0.000000 0.033358 0.000000
# 6 0.000000 0.000000 0.000000 -0.000585 0.000000 0.051411
#
#
# Mechanical properties :
#
#
# Convention : Reuss Voigt Hill
#
# Bulk Modulus (GPa) = 16.37139 40.26906 28.32022
# Shear Modulus (GPa) = 22.18981 31.66220 26.92600
#
# Velocity S-wave (km/s) = 3.15863 3.77305 3.47943
# Velocity P-wave (km/s) = 4.54571 6.08990 5.37356
#
# Compressibility (1/GPa) = 0.06108218
#
# Stress axis : x y z
#
# Youngs Moduli (GPa) = 117.13436 17.65768 91.03315
#
# Poissons Ratio (x) = 0.08001 0.21970
# Poissons Ratio (y) = 0.53072 0.05389
# Poissons Ratio (z) = 0.28269 0.01045
#
# Static dielectric constant tensor:
#      x y z
#    x 1.803030 0.000000 0.010680 
#    y 0.000000 1.838810 0.000000 
#    z 0.010680 0.000000 1.812020 
# 
# From -- ./inp_files/176872.got.cif
#   From: 2010.05.17/outbox.cif.g08.bks.cpg/sg15_89_cif.got.tgz:176872.got - 2010.06.03 18:47:42.
