data_PCOD9303378
_publ_section_title
;
Structure prediction by ZEFSAII (Michael W. Deem and Ramdas Pophale) SiO2 
 PCOD9303378
Probable space group: C 2/C
;
_chemical_formula_sum "Si O2"
_cell_formula_units_Z 48
_cell_length_a 11.211227
_cell_length_b 10.052839
_cell_length_c 16.722556
_cell_angle_alpha 90.000000
_cell_angle_beta 93.064057
_cell_angle_gamma 90.000000
_cell_volume 1882.015605
_symmetry_space_group_name_H-M "C 2/C"
_symmetry_group_IT_number 15
_symmetry_cell_setting 'monoclinic'
loop_
_space_group_symop_operation_xyz
x,y,z
-x,y,1/2-z
-x,-y,-z
x,-y,1/2+z
1/2+x,1/2+y,z
1/2-x,1/2+y,1/2-z
1/2-x,1/2-y,-z
1/2+x,1/2-y,1/2+z
loop_
_atom_site_type_symbol
_atom_site_label
_atom_site_fract_x
_atom_site_fract_y
_atom_site_fract_z
Si Si1 0.071778 0.279560 0.923064
Si Si2 0.240455 0.917840 0.098957
Si Si3 0.989893 0.289658 0.099458
Si Si4 0.852792 0.988536 0.576744
Si Si5 0.158788 0.352772 0.657037
Si Si6 0.711603 0.672339 0.175668
O O1 0.205669 0.304412 0.898604
O O2 0.981905 0.357980 0.860930
O O3 0.066833 0.119309 0.914092
O O4 0.043502 0.317907 0.013260
O O5 0.382487 0.891517 0.112692
O O6 0.188422 0.769351 0.098712
O O7 0.188171 0.014036 0.165522
O O8 0.202505 0.977524 0.013050
O O9 0.096148 0.265278 0.166299
O O10 0.930367 0.143067 0.093728
O O11 0.739401 0.976443 0.632132
O O12 0.208493 0.307281 0.743777
#
# Coordination Sequence:
#
# PCOD9303378 Si02
#       6
#     8   8   8   8   8   8
#     4  12  23  43  69 100 136 180 230 280 346 418
#     4  11  23  45  73  96 135 183 229 289 344 413
#     4  11  22  44  71 100 135 177 236 285 338 418
#     4  11  22  43  79  98 126 186 236 285 341 410
#     4  11  25  47  66 101 141 177 235 291 346 411
#     4  12  28  41  63 105 143 181 224 287 358 412
#
# _framework density 25.504572
#
# number of rings (size 3 to 8) (size 9 to 14) (size 15 to 20)
#    0.000    0.667    5.000    3.500    2.333    4.667 
#    6.000    0.000    0.000    0.000    0.000    0.000 
#    0.000    0.000    0.000    0.000    0.000    0.000 
#
# Total GULP energy -134388.390747 kJ/mol
# GULP energy per Si atom -5599.516281 kJ/mol
# Density = 2.544652 g / cm^3
# Si number density = 25.504572 Si / 1000 Ang^3
#
#
#
# Elastic Constant Matrix: (Units=GPa)
#
#
# Indices 1 2 3 4 5 6 
#
# 1 105.4842 24.2804 11.8292 0.0000 23.4637 0.0000
# 2 24.2804 38.5985 26.8551 0.0000 16.3161 0.0000
# 3 11.8292 26.8551 68.6585 0.0000 23.5938 0.0000
# 4 0.0000 0.0000 0.0000 21.7034 0.0000 5.4725
# 5 23.4637 16.3161 23.5938 0.0000 32.0307 0.0000
# 6 0.0000 0.0000 0.0000 5.4725 0.0000 46.1435
#
#
#
# Elastic Compliance Matrix: (Units=1/GPa)
#
#
# Indices 1 2 3 4 5 6 
#
# 1 0.012457 -0.006664 0.003253 0.000000 -0.008127 0.000000
# 2 -0.006664 0.042035 -0.012871 0.000000 -0.007050 0.000000
# 3 0.003253 -0.012871 0.023571 0.000000 -0.013189 0.000000
# 4 0.000000 0.000000 0.000000 0.047496 0.000000 -0.005633
# 5 -0.008127 -0.007050 -0.013189 0.000000 0.050479 0.000000
# 6 0.000000 0.000000 0.000000 -0.005633 0.000000 0.022340
#
#
# Mechanical properties :
#
#
# Convention : Reuss Voigt Hill
#
# Bulk Modulus (GPa) = 21.97847 37.63008 29.80428
# Shear Modulus (GPa) = 20.31633 29.96063 25.13848
#
# Velocity S-wave (km/s) = 2.82543 3.43113 3.14291
# Velocity P-wave (km/s) = 4.39093 5.52116 4.98816
#
# Compressibility (1/GPa) = 0.04549907
#
# Stress axis : x y z
#
# Youngs Moduli (GPa) = 80.27653 23.78984 42.42513
#
# Poissons Ratio (x) = 0.15854 -0.13801
# Poissons Ratio (y) = 0.53497 0.54604
# Poissons Ratio (z) = -0.26115 0.30619
#
# Static dielectric constant tensor:
#      x y z
#    x 2.094800 0.000000 -0.002490 
#    y 0.000000 2.140160 0.000000 
#    z -0.002490 0.000000 1.976320 
# 
# From -- ./inp_files/196612.got.cif
#   From: 2010.05.17/outbox.cif.g08.bks.cpg/sg15_99_cif.got.tgz:196612.got - 2010.06.03 18:47:42.
