data_PCOD9303706
_publ_section_title
;
Structure prediction by ZEFSAII (Michael W. Deem and Ramdas Pophale) SiO2 
 PCOD9303706
Probable space group: C 2/C
;
_chemical_formula_sum "Si O2"
_cell_formula_units_Z 32
_cell_length_a 16.352862
_cell_length_b 12.987567
_cell_length_c 12.358859
_cell_angle_alpha 90.000000
_cell_angle_beta 25.620858
_cell_angle_gamma 90.000000
_cell_volume 1135.010086
_symmetry_space_group_name_H-M "C 2/C"
_symmetry_group_IT_number 15
_symmetry_cell_setting 'monoclinic'
loop_
_space_group_symop_operation_xyz
x,y,z
-x,y,1/2-z
-x,-y,-z
x,-y,1/2+z
1/2+x,1/2+y,z
1/2-x,1/2+y,1/2-z
1/2-x,1/2-y,-z
1/2+x,1/2-y,1/2+z
loop_
_atom_site_type_symbol
_atom_site_label
_atom_site_fract_x
_atom_site_fract_y
_atom_site_fract_z
Si Si1 0.838516 0.844029 0.327329
Si Si2 0.225490 0.417628 0.995600
Si Si3 0.809377 0.374995 0.229767
Si Si4 0.249872 0.381413 0.730851
O O1 0.750000 0.750000 0.500000
O O2 0.467033 0.851741 0.534543
O O3 0.564516 0.648366 0.556694
O O4 0.770433 0.959394 0.443273
O O5 0.274602 0.362328 0.049623
O O6 0.000000 0.412726 0.250000
O O7 0.303079 0.366085 0.794091
O O8 0.771441 0.495442 0.255401
O O9 0.727369 0.327455 0.218881
#
# Coordination Sequence:
#
# PCOD9303706 Si02
#       4
#     8   8   8   8
#     4  11  23  37  56  99 153 186 234 312 384 436
#     4   9  18  37  63  94 133 189 256 296 342 444
#     4   9  18  37  63  90 134 192 251 303 353 439
#     4   9  19  35  61  91 131 186 248 296 358 444
#
# _framework density 28.193580000000001
#
# number of rings (size 3 to 8) (size 9 to 14) (size 15 to 20)
#    0.000    2.500    0.000    4.500    0.000    5.000 
#    4.500    0.000    0.000    0.000    0.000    7.000 
#   60.000   10.250    0.000    0.000    0.000    5.750 
#
# Total GULP energy -89732.821474 kJ/mol
# GULP energy per Si atom -5608.301342 kJ/mol
# Density = 2.812941 g / cm^3
# Si number density = 28.193580 Si / 1000 Ang^3
#
#
#
# Elastic Constant Matrix: (Units=GPa)
#
#
# Indices 1 2 3 4 5 6 
#
# 1 202.8715 48.1244 92.8280 -0.0006 33.2213 0.0002
# 2 48.1244 113.8583 78.0718 -0.0002 -12.4898 0.0001
# 3 92.8280 78.0718 235.2255 -0.0004 5.6407 0.0001
# 4 -0.0006 -0.0002 -0.0004 40.3737 0.0005 -18.3206
# 5 33.2213 -12.4898 5.6407 0.0005 47.6803 -0.0002
# 6 0.0002 0.0001 0.0001 -18.3206 -0.0002 31.8132
#
#
#
# Elastic Compliance Matrix: (Units=1/GPa)
#
#
# Indices 1 2 3 4 5 6 
#
# 1 0.007272 -0.002320 -0.001969 0.000000 -0.005441 0.000000
# 2 -0.002320 0.012701 -0.003428 0.000000 0.005349 0.000000
# 3 -0.001969 -0.003428 0.006172 0.000000 -0.000256 0.000000
# 4 0.000000 0.000000 0.000000 0.033531 0.000000 0.019310
# 5 -0.005441 0.005349 -0.000256 0.000000 0.026196 0.000000
# 6 0.000000 0.000000 0.000000 0.019310 0.000000 0.042554
#
#
# Mechanical properties :
#
#
# Convention : Reuss Voigt Hill
#
# Bulk Modulus (GPa) = 93.37029 110.00041 101.68535
# Shear Modulus (GPa) = 33.91438 46.16885 40.04162
#
# Velocity S-wave (km/s) = 3.47206 4.05108 3.77269
# Velocity P-wave (km/s) = 7.01877 7.80913 7.42447
#
# Compressibility (1/GPa) = 0.01071005
#
# Stress axis : x y z
#
# Youngs Moduli (GPa) = 137.52000 78.73433 162.01565
#
# Poissons Ratio (x) = 0.18268 0.31902
# Poissons Ratio (y) = 0.31908 0.55541
# Poissons Ratio (z) = 0.27079 0.26991
#
# Static dielectric constant tensor:
#      x y z
#    x 2.248180 0.000000 0.138760 
#    y 0.000000 2.260660 0.000000 
#    z 0.138760 0.000000 2.135200 
# 
# From -- ./inp_files/94001.got.cif
#   From: 2010.05.17/outbox.cif.g08.bks.cpg/sg15_48_cif.got.tgz:94001.got - 2010.06.03 18:47:42.
