data_PCOD9303194
_publ_section_title
;
Structure prediction by ZEFSAII (Michael W. Deem and Ramdas Pophale) SiO2 
 PCOD9303194
Probable space group: C 2/C
;
_chemical_formula_sum "Si O2"
_cell_formula_units_Z 52
_cell_length_a 8.695885
_cell_length_b 16.637622
_cell_length_c 16.828913
_cell_angle_alpha 90.000000
_cell_angle_beta 88.187390
_cell_angle_gamma 90.000000
_cell_volume 2433.569427
_symmetry_space_group_name_H-M "C 2/C"
_symmetry_group_IT_number 15
_symmetry_cell_setting 'monoclinic'
loop_
_space_group_symop_operation_xyz
x,y,z
-x,y,1/2-z
-x,-y,-z
x,-y,1/2+z
1/2+x,1/2+y,z
1/2-x,1/2+y,1/2-z
1/2-x,1/2-y,-z
1/2+x,1/2-y,1/2+z
loop_
_atom_site_type_symbol
_atom_site_label
_atom_site_fract_x
_atom_site_fract_y
_atom_site_fract_z
Si Si1 0.599709 0.196475 0.824611
Si Si2 0.192468 0.173523 0.554303
Si Si3 0.602288 0.245914 0.403320
Si Si4 0.166502 0.019303 0.460308
Si Si5 0.650261 0.144449 0.557088
Si Si6 0.848998 0.113485 0.201729
Si Si7 0.500000 0.151943 0.250000
O O1 0.500000 0.170224 0.750000
O O2 0.769274 0.172009 0.851593
O O3 0.515039 0.158542 0.902463
O O4 0.615127 0.293016 0.820458
O O5 0.250000 0.250000 0.500000
O O6 0.234934 0.090447 0.512766
O O7 0.010351 0.189781 0.554385
O O8 0.647953 0.180911 0.468825
O O9 0.752451 0.298071 0.384705
O O10 0.526840 0.203765 0.329289
O O11 0.146969 0.058554 0.375058
O O12 0.277741 0.943065 0.449933
O O13 0.000000 0.000000 0.500000
O O14 0.670866 0.110010 0.237610
O O15 0.000000 0.089566 0.250000
#
# Coordination Sequence:
#
# PCOD9303194 Si02
#       7
#     8   8   8   8   8   8   4
#     4  11  23  45  71 102 137 181 239 298 358 428
#     4  12  21  44  71  96 135 179 235 288 348 438
#     4  11  22  42  70 104 133 182 241 288 355 434
#     4  12  26  47  70 105 143 194 239 300 369 431
#     4  11  25  42  70 102 141 186 237 299 358 428
#     4  11  25  47  75 107 145 192 245 302 371 439
#     4  12  24  44  80 106 142 194 248 298 368 444
#
# _framework density 21.367788999999998
#
# number of rings (size 3 to 8) (size 9 to 14) (size 15 to 20)
#    0.000    0.615    6.154    1.846    4.308    0.615 
#    5.538    0.000    0.000    0.000    0.000    0.000 
#    0.000    0.000    0.000    0.000    0.000    0.000 
#
# Total GULP energy -144843.590205 kJ/mol
# GULP energy per Si atom -5570.907316 kJ/mol
# Density = 2.131916 g / cm^3
# Si number density = 21.367789 Si / 1000 Ang^3
#
#
#
# Elastic Constant Matrix: (Units=GPa)
#
#
# Indices 1 2 3 4 5 6 
#
# 1 106.4921 18.4477 30.0103 0.0000 1.7005 0.0000
# 2 18.4477 69.7688 37.9396 0.0000 13.0593 0.0000
# 3 30.0103 37.9396 94.1565 0.0000 27.2099 0.0000
# 4 0.0000 0.0000 0.0000 19.2423 0.0000 -5.7389
# 5 1.7005 13.0593 27.2099 0.0000 55.5551 0.0000
# 6 0.0000 0.0000 0.0000 -5.7389 0.0000 29.6151
#
#
#
# Elastic Compliance Matrix: (Units=1/GPa)
#
#
# Indices 1 2 3 4 5 6 
#
# 1 0.010516 -0.001288 -0.003293 0.000000 0.001594 0.000000
# 2 -0.001288 0.018544 -0.006772 0.000000 -0.001003 0.000000
# 3 -0.003293 -0.006772 0.016203 0.000000 -0.006243 0.000000
# 4 0.000000 0.000000 0.000000 0.055156 0.000000 0.010688
# 5 0.001594 -0.001003 -0.006243 0.000000 0.021245 0.000000
# 6 0.000000 0.000000 0.000000 0.010688 0.000000 0.035838
#
#
# Mechanical properties :
#
#
# Convention : Reuss Voigt Hill
#
# Bulk Modulus (GPa) = 44.33247 49.24584 46.78915
# Shear Modulus (GPa) = 26.63435 33.15050 29.89243
#
# Velocity S-wave (km/s) = 3.53437 3.94309 3.74431
# Velocity P-wave (km/s) = 6.11948 6.62022 6.37477
#
# Compressibility (1/GPa) = 0.02255683
#
# Stress axis : x y z
#
# Youngs Moduli (GPa) = 95.09176 53.92658 61.71635
#
# Poissons Ratio (x) = 0.06946 0.20326
# Poissons Ratio (y) = 0.12248 0.41792
# Poissons Ratio (z) = 0.31318 0.36517
#
# Static dielectric constant tensor:
#      x y z
#    x 1.847460 0.000000 0.011180 
#    y 0.000000 1.698860 0.000000 
#    z 0.011180 0.000000 1.812550 
# 
# From -- ./inp_files/190436.got.cif
#   From: 2010.05.17/outbox.cif.g08.bks.cpg/sg15_96_cif.got.tgz:190436.got - 2010.06.03 18:47:42.
