data_PCOD9303024
_publ_section_title
;
Structure prediction by ZEFSAII (Michael W. Deem and Ramdas Pophale) SiO2 
 PCOD9303024
Probable space group: C 2/C
;
_chemical_formula_sum "Si O2"
_cell_formula_units_Z 48
_cell_length_a 17.020757
_cell_length_b 9.652587
_cell_length_c 28.291055
_cell_angle_alpha 90.000000
_cell_angle_beta 32.148613
_cell_angle_gamma 90.000000
_cell_volume 2473.312446
_symmetry_space_group_name_H-M "C 2/C"
_symmetry_group_IT_number 15
_symmetry_cell_setting 'monoclinic'
loop_
_space_group_symop_operation_xyz
x,y,z
-x,y,1/2-z
-x,-y,-z
x,-y,1/2+z
1/2+x,1/2+y,z
1/2-x,1/2+y,1/2-z
1/2-x,1/2-y,-z
1/2+x,1/2-y,1/2+z
loop_
_atom_site_type_symbol
_atom_site_label
_atom_site_fract_x
_atom_site_fract_y
_atom_site_fract_z
Si Si1 0.000000 0.866249 0.750000
Si Si2 0.595250 0.537523 0.298566
Si Si3 0.500000 0.892413 0.750000
Si Si4 0.237736 0.631192 0.631965
Si Si5 0.323101 0.276465 0.189851
Si Si6 0.206660 0.896394 0.498971
Si Si7 0.890511 0.663935 0.408017
O O1 0.062777 0.958353 0.759783
O O2 0.130886 0.758818 0.670978
O O3 0.684894 0.407720 0.271788
O O4 0.683514 0.676601 0.265776
O O5 0.435325 0.540852 0.403510
O O6 0.556590 0.812627 0.673864
O O7 0.634692 0.997354 0.694705
O O8 0.322953 0.671944 0.635808
O O9 0.331280 0.608540 0.537329
O O10 0.471035 0.197002 0.129381
O O11 0.250000 0.750000 0.500000
O O12 0.342119 0.003425 0.434179
O O13 0.750000 0.750000 0.500000
#
# Coordination Sequence:
#
# PCOD9303024 Si02
#       7
#     4   8   4   8   8   8   8
#     4   9  18  37  60  88 124 162 210 262 320 380
#     4  11  23  40  63  91 125 169 211 266 326 383
#     4   9  20  39  70  88 126 182 216 252 330 398
#     4   9  19  38  64  91 121 169 217 260 320 391
#     4  11  24  41  61  95 129 161 210 274 319 375
#     4  11  22  41  68  89 121 173 218 257 324 397
#     4  11  23  44  63  97 132 168 216 271 320 386
#
# _framework density 19.407173
#
# number of rings (size 3 to 8) (size 9 to 14) (size 15 to 20)
#    0.000    1.667    3.333    1.000    4.667    1.333 
#    3.000    0.833    0.000    0.000    0.000    0.000 
#    0.000    0.000    0.000    0.000    0.000    0.000 
#
# Total GULP energy -133908.719454 kJ/mol
# GULP energy per Si atom -5579.529977 kJ/mol
# Density = 1.936300 g / cm^3
# Si number density = 19.407173 Si / 1000 Ang^3
#
#
#
# Elastic Constant Matrix: (Units=GPa)
#
#
# Indices 1 2 3 4 5 6 
#
# 1 105.5642 35.3871 5.6415 0.0000 -1.9519 0.0001
# 2 35.3871 77.0200 -0.8624 0.0001 11.8609 0.0003
# 3 5.6415 -0.8624 55.1576 0.0001 12.6750 0.0000
# 4 0.0000 0.0001 0.0001 25.5563 0.0000 -1.3328
# 5 -1.9519 11.8609 12.6750 0.0000 18.6151 0.0000
# 6 0.0001 0.0003 0.0000 -1.3328 0.0000 32.2636
#
#
#
# Elastic Compliance Matrix: (Units=1/GPa)
#
#
# Indices 1 2 3 4 5 6 
#
# 1 0.012043 -0.006750 -0.003101 0.000000 0.007675 0.000000
# 2 -0.006750 0.018544 0.004574 0.000000 -0.015638 0.000000
# 3 -0.003101 0.004574 0.022836 0.000000 -0.018789 0.000000
# 4 0.000000 0.000000 0.000000 0.039214 0.000000 0.001620
# 5 0.007675 -0.015638 -0.018789 0.000000 0.077281 0.000000
# 6 0.000000 0.000000 0.000000 0.001620 0.000000 0.031062
#
#
# Mechanical properties :
#
#
# Convention : Reuss Voigt Hill
#
# Bulk Modulus (GPa) = 23.32666 35.34157 29.33411
# Shear Modulus (GPa) = 22.14108 28.45873 25.29991
#
# Velocity S-wave (km/s) = 3.38134 3.83352 3.61451
# Velocity P-wave (km/s) = 5.22402 6.15180 5.70679
#
# Compressibility (1/GPa) = 0.04286940
#
# Stress axis : x y z
#
# Youngs Moduli (GPa) = 83.03400 53.92480 43.79031
#
# Poissons Ratio (x) = 0.36399 0.13580
# Poissons Ratio (y) = 0.56048 -0.20029
# Poissons Ratio (z) = 0.25749 -0.24664
#
# Static dielectric constant tensor:
#      x y z
#    x 1.668360 0.000000 0.023110 
#    y 0.000000 1.716220 0.000000 
#    z 0.023110 0.000000 1.667570 
# 
# From -- ./inp_files/208995.got.cif
#   From: 2010.05.17/outbox.cif.g08.bks.cpg/sg15_105_cif.got.tgz:208995.got - 2010.06.03 18:47:42.
