data_PCOD9303855
_publ_section_title
;
Structure prediction by ZEFSAII (Michael W. Deem and Ramdas Pophale) SiO2 
 PCOD9303855
Probable space group: C 2/C
;
_chemical_formula_sum "Si O2"
_cell_formula_units_Z 40
_cell_length_a 23.187329
_cell_length_b 8.119030
_cell_length_c 22.463966
_cell_angle_alpha 90.000000
_cell_angle_beta 157.012498
_cell_angle_gamma 90.000000
_cell_volume 1651.566518
_symmetry_space_group_name_H-M "C 2/C"
_symmetry_group_IT_number 15
_symmetry_cell_setting 'monoclinic'
loop_
_space_group_symop_operation_xyz
x,y,z
-x,y,1/2-z
-x,-y,-z
x,-y,1/2+z
1/2+x,1/2+y,z
1/2-x,1/2+y,1/2-z
1/2-x,1/2-y,-z
1/2+x,1/2-y,1/2+z
loop_
_atom_site_type_symbol
_atom_site_label
_atom_site_fract_x
_atom_site_fract_y
_atom_site_fract_z
Si Si1 0.588908 0.977213 0.957875
Si Si2 0.501190 0.387213 0.105086
Si Si3 0.784890 0.451974 0.194318
Si Si4 0.735256 0.395673 0.767327
Si Si5 0.335598 0.393401 0.118541
O O1 0.580201 0.787556 0.971931
O O2 0.423672 0.026623 0.783786
O O3 0.700400 0.012128 0.009260
O O4 0.638138 0.067668 0.064543
O O5 0.604698 0.469903 0.153287
O O6 0.611964 0.355772 0.264648
O O7 0.369213 0.521324 0.986082
O O8 0.784310 0.589375 0.246142
O O9 0.810361 0.285204 0.255488
O O10 0.500000 0.437499 0.250000
O O11 0.250000 0.250000 0.000000
#
# Coordination Sequence:
#
# PCOD9303855 Si02
#       5
#     8   8   8   8   8
#     4  11  23  40  66 104 135 182 237 287 348 414
#     4  11  23  40  66 104 136 182 237 288 346 415
#     4  12  23  42  66  99 149 190 231 286 348 427
#     4  11  24  41  66 101 151 191 234 278 351 420
#     4  11  23  41  70 104 132 165 233 305 348 404
#
# _framework density 24.219431
#
# number of rings (size 3 to 8) (size 9 to 14) (size 15 to 20)
#    0.000    0.800    2.000    7.200    0.000    0.000 
#    0.000    0.000    0.000   19.200    0.000    0.000 
#    0.000    0.000    0.000    0.000    0.000    0.000 
#
# Total GULP energy -111432.956974 kJ/mol
# GULP energy per Si atom -5571.647849 kJ/mol
# Density = 2.416431 g / cm^3
# Si number density = 24.219431 Si / 1000 Ang^3
#
#
#
# Elastic Constant Matrix: (Units=GPa)
#
#
# Indices 1 2 3 4 5 6 
#
# 1 82.1612 3.0293 59.6206 0.0000 23.6272 0.0000
# 2 3.0293 72.8955 -3.3018 0.0000 10.9340 0.0000
# 3 59.6206 -3.3018 134.4470 -0.0001 37.5494 -0.0001
# 4 0.0000 0.0000 -0.0001 27.8029 0.0000 4.0605
# 5 23.6272 10.9340 37.5494 0.0000 62.4334 0.0000
# 6 0.0000 0.0000 -0.0001 4.0605 0.0000 11.7909
#
#
#
# Elastic Compliance Matrix: (Units=1/GPa)
#
#
# Indices 1 2 3 4 5 6 
#
# 1 0.018293 -0.000757 -0.007493 0.000000 -0.002284 0.000000
# 2 -0.000757 0.014295 0.001570 0.000000 -0.003161 0.000000
# 3 -0.007493 0.001570 0.012120 0.000000 -0.004729 0.000000
# 4 0.000000 0.000000 0.000000 0.037872 0.000000 -0.013042
# 5 -0.002284 -0.003161 -0.004729 0.000000 0.020279 0.000000
# 6 0.000000 0.000000 0.000000 -0.013042 0.000000 0.089303
#
#
# Mechanical properties :
#
#
# Convention : Reuss Voigt Hill
#
# Bulk Modulus (GPa) = 31.90075 45.35556 38.62816
# Shear Modulus (GPa) = 23.15121 35.74914 29.45017
#
# Velocity S-wave (km/s) = 3.09511 3.84611 3.49086
# Velocity P-wave (km/s) = 5.09638 6.20411 5.67733
#
# Compressibility (1/GPa) = 0.03134722
#
# Stress axis : x y z
#
# Youngs Moduli (GPa) = 54.66554 69.95473 82.51001
#
# Poissons Ratio (x) = 0.05296 0.61823
# Poissons Ratio (y) = 0.04138 -0.12951
# Poissons Ratio (z) = 0.40960 -0.10980
#
# Static dielectric constant tensor:
#      x y z
#    x 2.019010 0.000000 0.162550 
#    y 0.000000 1.676080 0.000000 
#    z 0.162550 0.000000 2.107230 
# 
# From -- ./inp_files/303133.got.cif
#   From: 2010.05.17/outbox.cif.g08.bks.cpg/sg15_152_cif.got.tgz:303133.got - 2010.06.03 18:47:42.
