data_PCOD9303134
_publ_section_title
;
Structure prediction by ZEFSAII (Michael W. Deem and Ramdas Pophale) SiO2 
 PCOD9303134
Probable space group: C 2/C
;
_chemical_formula_sum "Si O2"
_cell_formula_units_Z 40
_cell_length_a 20.772992
_cell_length_b 5.311791
_cell_length_c 16.082284
_cell_angle_alpha 90.000000
_cell_angle_beta 92.547861
_cell_angle_gamma 90.000000
_cell_volume 1772.793782
_symmetry_space_group_name_H-M "C 2/C"
_symmetry_group_IT_number 15
_symmetry_cell_setting 'monoclinic'
loop_
_space_group_symop_operation_xyz
x,y,z
-x,y,1/2-z
-x,-y,-z
x,-y,1/2+z
1/2+x,1/2+y,z
1/2-x,1/2+y,1/2-z
1/2-x,1/2-y,-z
1/2+x,1/2-y,1/2+z
loop_
_atom_site_type_symbol
_atom_site_label
_atom_site_fract_x
_atom_site_fract_y
_atom_site_fract_z
Si Si1 0.143827 0.282888 0.857858
Si Si2 0.923584 0.501000 0.489889
Si Si3 0.315993 0.399979 0.525838
Si Si4 0.214006 0.938749 0.641156
Si Si5 0.142729 0.457455 0.685891
O O1 0.099198 0.325537 0.934785
O O2 0.209210 0.445823 0.857562
O O3 0.110894 0.362703 0.770053
O O4 0.175315 0.012137 0.881898
O O5 0.880359 0.745880 0.509697
O O6 0.905362 0.469373 0.391586
O O7 0.000000 0.500000 0.500000
O O8 0.250000 0.250000 0.500000
O O9 0.308957 0.616563 0.454940
O O10 0.187804 0.705686 0.693605
O O11 0.183886 0.207442 0.663903
#
# Coordination Sequence:
#
# PCOD9303134 Si02
#       5
#     8   8   8   8   8
#     4  12  23  41  72 103 146 188 245 301 376 438
#     4  11  26  46  69 100 147 196 249 299 374 441
#     4  11  22  42  75 108 140 192 242 311 381 442
#     4  11  22  42  67 109 143 178 238 307 373 434
#     4  11  26  42  70 107 143 188 243 305 367 447
#
# _framework density 22.563255999999999
#
# number of rings (size 3 to 8) (size 9 to 14) (size 15 to 20)
#    0.000    0.800    4.000    4.200    2.800    1.600 
#    0.000    0.000    0.000    0.000    0.000    0.000 
#    0.000    0.000    0.000    0.000    0.000    0.000 
#
# Total GULP energy -111427.764620 kJ/mol
# GULP energy per Si atom -5571.388231 kJ/mol
# Density = 2.251190 g / cm^3
# Si number density = 22.563256 Si / 1000 Ang^3
#
#
#
# Elastic Constant Matrix: (Units=GPa)
#
#
# Indices 1 2 3 4 5 6 
#
# 1 145.9851 37.2576 61.6249 0.0000 12.2364 0.0000
# 2 37.2576 93.4112 29.4803 0.0000 -5.0939 0.0000
# 3 61.6249 29.4803 151.1232 0.0000 -2.2194 0.0000
# 4 0.0000 0.0000 0.0000 37.7773 0.0000 -7.0402
# 5 12.2364 -5.0939 -2.2194 0.0000 21.9577 0.0000
# 6 0.0000 0.0000 0.0000 -7.0402 0.0000 14.9205
#
#
#
# Elastic Compliance Matrix: (Units=1/GPa)
#
#
# Indices 1 2 3 4 5 6 
#
# 1 0.009623 -0.003112 -0.003411 0.000000 -0.006430 0.000000
# 2 -0.003112 0.012545 -0.001111 0.000000 0.004532 0.000000
# 3 -0.003411 -0.001111 0.008261 0.000000 0.002478 0.000000
# 4 0.000000 0.000000 0.000000 0.029023 0.000000 0.013694
# 5 -0.006430 0.004532 0.002478 0.000000 0.050427 0.000000
# 6 0.000000 0.000000 0.000000 0.013694 0.000000 0.073484
#
#
# Mechanical properties :
#
#
# Convention : Reuss Voigt Hill
#
# Bulk Modulus (GPa) = 65.96755 71.91613 68.94184
# Shear Modulus (GPa) = 24.54751 32.40821 28.47786
#
# Velocity S-wave (km/s) = 3.30197 3.79400 3.55651
# Velocity P-wave (km/s) = 6.62099 7.15087 6.89103
#
# Compressibility (1/GPa) = 0.01515897
#
# Stress axis : x y z
#
# Youngs Moduli (GPa) = 103.91398 79.71541 121.04386
#
# Poissons Ratio (x) = 0.24810 0.41294
# Poissons Ratio (y) = 0.32341 0.13453
# Poissons Ratio (z) = 0.35450 0.08860
#
# Static dielectric constant tensor:
#      x y z
#    x 1.791000 0.000000 -0.026000 
#    y 0.000000 2.098580 0.000000 
#    z -0.026000 0.000000 2.021720 
# 
# From -- ./inp_files/212696.got.cif
#   From: 2010.05.17/outbox.cif.g08.bks.cpg/sg15_107_cif.got.tgz:212696.got - 2010.06.03 18:47:42.
