data_PCOD9303710
_publ_section_title
;
Structure prediction by ZEFSAII (Michael W. Deem and Ramdas Pophale) SiO2 
 PCOD9303710
Probable space group: C 2/C
;
_chemical_formula_sum "Si O2"
_cell_formula_units_Z 48
_cell_length_a 17.978399
_cell_length_b 23.429809
_cell_length_c 8.639141
_cell_angle_alpha 90.000000
_cell_angle_beta 134.325498
_cell_angle_gamma 90.000000
_cell_volume 2603.324127
_symmetry_space_group_name_H-M "C 2/C"
_symmetry_group_IT_number 15
_symmetry_cell_setting 'monoclinic'
loop_
_space_group_symop_operation_xyz
x,y,z
-x,y,1/2-z
-x,-y,-z
x,-y,1/2+z
1/2+x,1/2+y,z
1/2-x,1/2+y,1/2-z
1/2-x,1/2-y,-z
1/2+x,1/2-y,1/2+z
loop_
_atom_site_type_symbol
_atom_site_label
_atom_site_fract_x
_atom_site_fract_y
_atom_site_fract_z
Si Si1 0.613466 0.937807 0.844233
Si Si2 0.384647 0.936156 0.023644
Si Si3 0.270949 0.828754 0.374414
Si Si4 0.729352 0.168718 0.999651
Si Si5 0.072890 0.764739 0.728692
Si Si6 0.918514 0.765251 0.247269
O O1 0.500000 0.922929 0.750000
O O2 0.611086 0.938148 0.655330
O O3 0.637947 0.000907 0.942970
O O4 0.694283 0.890458 0.016700
O O5 0.500000 0.919987 0.250000
O O6 0.304122 0.890181 0.972996
O O7 0.267700 0.831062 0.183497
O O8 0.162645 0.807163 0.288832
O O9 0.354741 0.783066 0.562466
O O10 0.640682 0.215389 0.908066
O O11 0.840770 0.192851 0.214991
O O12 0.000000 0.793983 0.750000
O O13 0.994448 0.739501 0.488515
O O14 0.000000 0.794652 0.250000
#
# Coordination Sequence:
#
# PCOD9303710 Si02
#       6
#     8   8   8   8   8   8
#     4  11  23  39  62  86 119 150 194 240 295 345
#     4  11  23  39  61  87 116 154 191 243 293 347
#     4  11  23  37  59  88 118 159 193 243 289 349
#     4  11  23  37  60  87 121 154 200 237 292 346
#     4  11  23  38  57  87 121 158 192 240 288 346
#     4  11  23  38  58  85 123 157 196 236 293 346
#
# _framework density 18.437964999999998
#
# number of rings (size 3 to 8) (size 9 to 14) (size 15 to 20)
#    0.000    1.000    3.333    5.000    7.000    0.000 
#    0.000    0.000    0.000    2.000    0.000    0.000 
#    0.000    0.000    0.000    0.000    0.000    0.000 
#
# Total GULP energy -134082.487200 kJ/mol
# GULP energy per Si atom -5586.770300 kJ/mol
# Density = 1.839600 g / cm^3
# Si number density = 18.437965 Si / 1000 Ang^3
#
#
#
# Elastic Constant Matrix: (Units=GPa)
#
#
# Indices 1 2 3 4 5 6 
#
# 1 142.5393 57.5126 52.7357 0.0000 -0.9291 0.0000
# 2 57.5126 75.8040 19.6453 0.0000 6.9774 0.0000
# 3 52.7357 19.6453 88.2799 0.0000 -6.2390 0.0000
# 4 0.0000 0.0000 0.0000 21.9456 0.0000 -5.8966
# 5 -0.9291 6.9774 -6.2390 0.0000 39.0657 0.0000
# 6 0.0000 0.0000 0.0000 -5.8966 0.0000 29.2138
#
#
#
# Elastic Compliance Matrix: (Units=1/GPa)
#
#
# Indices 1 2 3 4 5 6 
#
# 1 0.012266 -0.007958 -0.005497 0.000000 0.000835 0.000000
# 2 -0.007958 0.019527 0.000150 0.000000 -0.003653 0.000000
# 3 -0.005497 0.000150 0.014733 0.000000 0.002195 0.000000
# 4 0.000000 0.000000 0.000000 0.048180 0.000000 0.009725
# 5 0.000835 -0.003653 0.002195 0.000000 0.026621 0.000000
# 6 0.000000 0.000000 0.000000 0.009725 0.000000 0.036193
#
#
# Mechanical properties :
#
#
# Convention : Reuss Voigt Hill
#
# Bulk Modulus (GPa) = 50.21102 62.93447 56.57274
# Shear Modulus (GPa) = 26.20959 29.82700 28.01830
#
# Velocity S-wave (km/s) = 3.77437 4.02642 3.90243
# Velocity P-wave (km/s) = 6.80338 7.47150 7.14525
#
# Compressibility (1/GPa) = 0.01991595
#
# Stress axis : x y z
#
# Youngs Moduli (GPa) = 81.52601 51.21053 67.87401
#
# Poissons Ratio (x) = 0.40756 0.37312
# Poissons Ratio (y) = 0.64882 -0.01021
# Poissons Ratio (z) = 0.44817 -0.00771
#
# Static dielectric constant tensor:
#      x y z
#    x 1.659550 0.000000 -0.028390 
#    y 0.000000 1.608090 0.000000 
#    z -0.028390 0.000000 1.669050 
# 
# From -- ./inp_files/51351.got.cif
#   From: 2010.05.17/outbox.cif.g08.bks.cpg/sg15_26_cif.got.tgz:51351.got - 2010.06.03 18:47:42.
