data_PCOD9303911
_publ_section_title
;
Structure prediction by ZEFSAII (Michael W. Deem and Ramdas Pophale) SiO2 
 PCOD9303911
Probable space group: C 2/C
;
_chemical_formula_sum "Si O2"
_cell_formula_units_Z 48
_cell_length_a 16.875569
_cell_length_b 31.664954
_cell_length_c 8.004191
_cell_angle_alpha 90.000000
_cell_angle_beta 145.733993
_cell_angle_gamma 90.000000
_cell_volume 2408.190097
_symmetry_space_group_name_H-M "C 2/C"
_symmetry_group_IT_number 15
_symmetry_cell_setting 'monoclinic'
loop_
_space_group_symop_operation_xyz
x,y,z
-x,y,1/2-z
-x,-y,-z
x,-y,1/2+z
1/2+x,1/2+y,z
1/2-x,1/2+y,1/2-z
1/2-x,1/2-y,-z
1/2+x,1/2-y,1/2+z
loop_
_atom_site_type_symbol
_atom_site_label
_atom_site_fract_x
_atom_site_fract_y
_atom_site_fract_z
Si Si1 0.000000 0.155863 0.750000
Si Si2 0.891611 0.874849 0.712584
Si Si3 0.500000 0.002822 0.750000
Si Si4 0.869341 0.438167 0.299455
Si Si5 0.000000 0.302561 0.250000
Si Si6 0.283988 0.268239 0.878003
Si Si7 0.662018 0.185775 0.713374
Si Si8 0.000000 0.625038 0.250000
O O1 0.965340 0.128949 0.522514
O O2 0.870039 0.188495 0.545981
O O3 0.770659 0.911300 0.485782
O O4 0.811532 0.829871 0.542689
O O5 0.000000 0.880985 0.750000
O O6 0.574046 0.033930 0.750757
O O7 0.376531 0.972565 0.461666
O O8 0.986725 0.404889 0.567512
O O9 0.135721 0.276185 0.532959
O O10 0.050947 0.324591 0.167579
O O11 0.355635 0.233156 0.883162
O O12 0.250000 0.250000 0.000000
O O13 0.631147 0.156106 0.499640
#
# Coordination Sequence:
#
# PCOD9303911 Si02
#       8
#     4   8   4   8   4   8   8   4
#     4  12  25  46  61  94 134 185 229 276 355 390
#     4  11  25  44  64  94 140 176 219 274 340 405
#     4   9  18  43  77  98 138 154 214 260 319 408
#     4   9  20  41  68 105 126 169 205 262 329 393
#     4  12  24  39  62  85 120 167 243 288 325 396
#     4  12  25  40  63  88 124 178 240 288 337 394
#     4  11  23  41  60  90 126 173 228 283 340 383
#     4   9  19  36  60  93 128 156 210 262 329 382
#
# _framework density 19.931982000000001
#
# number of rings (size 3 to 8) (size 9 to 14) (size 15 to 20)
#    0.000    1.333    1.667    4.000    3.500    4.000 
#   15.000    0.833    0.000    0.000    0.000    0.000 
#    0.000    0.000    0.000    0.000    0.000    0.000 
#
# Total GULP energy -133688.457003 kJ/mol
# GULP energy per Si atom -5570.352375 kJ/mol
# Density = 1.988662 g / cm^3
# Si number density = 19.931982 Si / 1000 Ang^3
#
#
#
# Elastic Constant Matrix: (Units=GPa)
#
#
# Indices 1 2 3 4 5 6 
#
# 1 109.0266 54.5044 53.3602 0.0000 -16.8310 0.0000
# 2 54.5044 108.2672 55.6875 0.0000 -16.5817 0.0000
# 3 53.3602 55.6875 131.3317 0.0000 -26.1672 0.0000
# 4 0.0000 0.0000 0.0000 31.0942 0.0000 -3.0689
# 5 -16.8310 -16.5817 -26.1672 0.0000 32.7208 0.0000
# 6 0.0000 0.0000 0.0000 -3.0689 0.0000 28.3106
#
#
#
# Elastic Compliance Matrix: (Units=1/GPa)
#
#
# Indices 1 2 3 4 5 6 
#
# 1 0.013385 -0.004908 -0.002951 0.000000 0.002038 0.000000
# 2 -0.004908 0.013767 -0.003517 0.000000 0.001640 0.000000
# 3 -0.002951 -0.003517 0.011475 0.000000 0.005877 0.000000
# 4 0.000000 0.000000 0.000000 0.032508 0.000000 0.003524
# 5 0.002038 0.001640 0.005877 0.000000 0.037140 0.000000
# 6 0.000000 0.000000 0.000000 0.003524 0.000000 0.035705
#
#
# Mechanical properties :
#
#
# Convention : Reuss Voigt Hill
#
# Bulk Modulus (GPa) = 62.99043 75.08107 69.03575
# Shear Modulus (GPa) = 29.06569 30.76336 29.91452
#
# Velocity S-wave (km/s) = 3.82284 3.93290 3.87826
# Velocity P-wave (km/s) = 7.15240 7.64029 7.40036
#
# Compressibility (1/GPa) = 0.01587543
#
# Stress axis : x y z
#
# Youngs Moduli (GPa) = 74.71254 72.63600 87.14281
#
# Poissons Ratio (x) = 0.35651 0.25716
# Poissons Ratio (y) = 0.36671 0.30646
# Poissons Ratio (z) = 0.22048 0.25544
#
# Static dielectric constant tensor:
#      x y z
#    x 1.902930 0.000000 -0.114330 
#    y 0.000000 1.723880 0.000000 
#    z -0.114330 0.000000 1.805330 
# 
# From -- ./inp_files/52917.got.cif
#   From: 2010.05.17/outbox.cif.g08.bks.cpg/sg15_27_cif.got.tgz:52917.got - 2010.06.03 18:47:42.
