data_PCOD9303416
_publ_section_title
;
Structure prediction by ZEFSAII (Michael W. Deem and Ramdas Pophale) SiO2 
 PCOD9303416
Probable space group: C 2/C
;
_chemical_formula_sum "Si O2"
_cell_formula_units_Z 48
_cell_length_a 29.150256
_cell_length_b 12.038731
_cell_length_c 11.369707
_cell_angle_alpha 90.000000
_cell_angle_beta 151.365081
_cell_angle_gamma 90.000000
_cell_volume 1912.112786
_symmetry_space_group_name_H-M "C 2/C"
_symmetry_group_IT_number 15
_symmetry_cell_setting 'monoclinic'
loop_
_space_group_symop_operation_xyz
x,y,z
-x,y,1/2-z
-x,-y,-z
x,-y,1/2+z
1/2+x,1/2+y,z
1/2-x,1/2+y,1/2-z
1/2-x,1/2-y,-z
1/2+x,1/2-y,1/2+z
loop_
_atom_site_type_symbol
_atom_site_label
_atom_site_fract_x
_atom_site_fract_y
_atom_site_fract_z
Si Si1 0.725751 0.443969 0.441034
Si Si2 0.572387 0.083027 0.228710
Si Si3 0.205060 0.821199 0.793585
Si Si4 0.848607 0.413224 0.928136
Si Si5 0.500000 0.732763 0.250000
Si Si6 0.036242 0.171610 0.578453
Si Si7 0.500000 0.662596 0.750000
O O1 0.818698 0.409387 0.575502
O O2 0.683528 0.555610 0.293237
O O3 0.642486 0.356797 0.273782
O O4 0.771242 0.466025 0.669300
O O5 0.528056 0.203778 0.111932
O O6 0.590442 0.016186 0.388403
O O7 0.500000 0.000000 0.000000
O O8 0.105500 0.781182 0.510849
O O9 0.250000 0.750000 0.000000
O O10 0.289710 0.845163 0.892907
O O11 0.916167 0.318977 0.026015
O O12 0.478019 0.668302 0.323029
O O13 0.017213 0.105213 0.658682
#
# Coordination Sequence:
#
# PCOD9303416 Si02
#       7
#     8   8   8   8   4   8   4
#     4  11  25  45  73 103 151 204 258 319 402 485
#     4  11  23  41  72 109 149 192 252 333 395 465
#     4  11  27  49  73 109 153 203 263 331 401 473
#     4  11  22  44  69 111 143 197 257 323 393 475
#     4  12  24  44  78 110 162 198 266 330 406 480
#     4  12  26  47  74 113 152 205 258 324 401 481
#     4  12  28  50  74 108 158 206 270 322 406 480
#
# _framework density 25.103121999999999
#
# number of rings (size 3 to 8) (size 9 to 14) (size 15 to 20)
#    0.000    0.667    5.000    1.500    4.667    2.000 
#    9.000    0.000    0.000    0.000    0.000    0.000 
#    0.000    0.000    0.000    0.000    0.000    0.000 
#
# Total GULP energy -133906.912120 kJ/mol
# GULP energy per Si atom -5579.454672 kJ/mol
# Density = 2.504599 g / cm^3
# Si number density = 25.103122 Si / 1000 Ang^3
#
#
#
# Elastic Constant Matrix: (Units=GPa)
#
#
# Indices 1 2 3 4 5 6 
#
# 1 130.7058 18.3640 15.1597 0.0000 -0.8412 0.0000
# 2 18.3640 84.2235 14.7390 0.0000 4.7289 0.0000
# 3 15.1597 14.7390 116.4266 0.0000 -8.1163 0.0000
# 4 0.0000 0.0000 0.0000 29.5493 0.0000 -0.5762
# 5 -0.8412 4.7289 -8.1163 0.0000 56.3328 0.0000
# 6 0.0000 0.0000 0.0000 -0.5762 0.0000 18.3703
#
#
#
# Elastic Compliance Matrix: (Units=1/GPa)
#
#
# Indices 1 2 3 4 5 6 
#
# 1 0.007972 -0.001601 -0.000826 0.000000 0.000134 0.000000
# 2 -0.001601 0.012552 -0.001470 0.000000 -0.001289 0.000000
# 3 -0.000826 -0.001470 0.008981 0.000000 0.001405 0.000000
# 4 0.000000 0.000000 0.000000 0.033862 0.000000 0.001062
# 5 0.000134 -0.001289 0.001405 0.000000 0.018064 0.000000
# 6 0.000000 0.000000 0.000000 0.001062 0.000000 0.054469
#
#
# Mechanical properties :
#
#
# Convention : Reuss Voigt Hill
#
# Bulk Modulus (GPa) = 46.06212 47.54236 46.80224
# Shear Modulus (GPa) = 33.12732 39.72338 36.42535
#
# Velocity S-wave (km/s) = 3.63664 3.98226 3.81337
# Velocity P-wave (km/s) = 6.00188 6.33439 6.17037
#
# Compressibility (1/GPa) = 0.02170981
#
# Stress axis : x y z
#
# Youngs Moduli (GPa) = 125.43250 79.66834 111.34932
#
# Poissons Ratio (x) = 0.12757 0.09197
# Poissons Ratio (y) = 0.20086 0.16373
# Poissons Ratio (z) = 0.10360 0.11714
#
# Static dielectric constant tensor:
#      x y z
#    x 2.085360 0.000000 -0.013930 
#    y 0.000000 1.910030 0.000000 
#    z -0.013930 0.000000 1.983710 
# 
# From -- ./inp_files/126936.got.cif
#   From: 2010.05.17/outbox.cif.g08.bks.cpg/sg15_64_cif.got.tgz:126936.got - 2010.06.03 18:47:42.
