data_PCOD9303158
_publ_section_title
;
Structure prediction by ZEFSAII (Michael W. Deem and Ramdas Pophale) SiO2 
 PCOD9303158
Probable space group: C 2/C
;
_chemical_formula_sum "Si O2"
_cell_formula_units_Z 56
_cell_length_a 18.905989
_cell_length_b 13.984426
_cell_length_c 17.175505
_cell_angle_alpha 90.000000
_cell_angle_beta 145.062438
_cell_angle_gamma 90.000000
_cell_volume 2600.567769
_symmetry_space_group_name_H-M "C 2/C"
_symmetry_group_IT_number 15
_symmetry_cell_setting 'monoclinic'
loop_
_space_group_symop_operation_xyz
x,y,z
-x,y,1/2-z
-x,-y,-z
x,-y,1/2+z
1/2+x,1/2+y,z
1/2-x,1/2+y,1/2-z
1/2-x,1/2-y,-z
1/2+x,1/2-y,1/2+z
loop_
_atom_site_type_symbol
_atom_site_label
_atom_site_fract_x
_atom_site_fract_y
_atom_site_fract_z
Si Si1 0.672847 0.253102 0.174523
Si Si2 0.499036 0.405515 0.449094
Si Si3 0.778902 0.044151 0.440945
Si Si4 0.136386 0.567539 0.056907
Si Si5 0.644534 0.915604 0.203080
Si Si6 0.316211 0.572445 0.636515
Si Si7 0.621560 0.218399 0.306994
O O1 0.557637 0.322096 0.049879
O O2 0.697776 0.166763 0.138758
O O3 0.789728 0.325111 0.278593
O O4 0.620836 0.216814 0.211443
O O5 0.500000 0.500000 0.500000
O O6 0.635641 0.392428 0.539213
O O7 0.409966 0.424024 0.294209
O O8 0.857190 0.030898 0.590138
O O9 0.666900 0.111942 0.365335
O O10 0.728030 0.952465 0.350156
O O11 0.139153 0.503047 0.137315
O O12 0.205601 0.497857 0.060177
O O13 0.998876 0.595909 0.905973
O O14 0.294340 0.686743 0.604134
O O15 0.500000 0.237327 0.250000
#
# Coordination Sequence:
#
# PCOD9303158 Si02
#       7
#     8   8   8   8   8   8   8
#     4  11  23  44  67 100 135 176 238 275 336 411
#     4  11  22  42  68  97 132 179 231 279 333 405
#     4  12  24  41  70  97 140 178 222 286 354 407
#     4  11  24  41  69  97 137 183 224 287 330 407
#     4  11  24  42  67 100 132 182 232 277 339 402
#     4  11  24  42  62 100 139 176 220 277 350 411
#     4  11  24  40  66 104 138 175 218 281 356 415
#
# _framework density 21.533757999999999
#
# number of rings (size 3 to 8) (size 9 to 14) (size 15 to 20)
#    0.000    0.857    5.714    2.571    4.000    0.000 
#    0.000    0.714    0.000    0.000    0.000    0.000 
#    0.000    0.000    0.000    0.000    0.000    0.000 
#
# Total GULP energy -156045.091136 kJ/mol
# GULP energy per Si atom -5573.038969 kJ/mol
# Density = 2.148475 g / cm^3
# Si number density = 21.533758 Si / 1000 Ang^3
#
#
#
# Elastic Constant Matrix: (Units=GPa)
#
#
# Indices 1 2 3 4 5 6 
#
# 1 92.1938 44.3742 18.9373 0.0000 14.1925 0.0000
# 2 44.3742 100.2817 29.5605 0.0000 7.9946 0.0000
# 3 18.9373 29.5605 57.5277 0.0000 1.9631 0.0000
# 4 0.0000 0.0000 0.0000 27.4588 0.0000 0.5091
# 5 14.1925 7.9946 1.9631 0.0000 39.8053 0.0000
# 6 0.0000 0.0000 0.0000 0.5091 0.0000 36.4336
#
#
#
# Elastic Compliance Matrix: (Units=1/GPa)
#
#
# Indices 1 2 3 4 5 6 
#
# 1 0.014507 -0.005581 -0.001773 0.000000 -0.003964 0.000000
# 2 -0.005581 0.014071 -0.005374 0.000000 -0.000571 0.000000
# 3 -0.001773 -0.005374 0.020704 0.000000 0.000690 0.000000
# 4 0.000000 0.000000 0.000000 0.036428 0.000000 -0.000509
# 5 -0.003964 -0.000571 0.000690 0.000000 0.026616 0.000000
# 6 0.000000 0.000000 0.000000 -0.000509 0.000000 0.027454
#
#
# Mechanical properties :
#
#
# Convention : Reuss Voigt Hill
#
# Bulk Modulus (GPa) = 41.96729 48.41634 45.19182
# Shear Modulus (GPa) = 28.87208 31.21495 30.04352
#
# Velocity S-wave (km/s) = 3.66564 3.81147 3.73927
# Velocity P-wave (km/s) = 6.11942 6.47321 6.29880
#
# Compressibility (1/GPa) = 0.02382808
#
# Stress axis : x y z
#
# Youngs Moduli (GPa) = 68.93118 71.06831 48.29944
#
# Poissons Ratio (x) = 0.39662 0.08562
# Poissons Ratio (y) = 0.38469 0.25955
# Poissons Ratio (z) = 0.12219 0.38190
#
# Static dielectric constant tensor:
#      x y z
#    x 1.845460 0.000000 0.008960 
#    y 0.000000 1.780560 0.000000 
#    z 0.008960 0.000000 1.924480 
# 
# From -- ./inp_files/211245.got.cif
#   From: 2010.05.17/outbox.cif.g08.bks.cpg/sg15_106_cif.got.tgz:211245.got - 2010.06.03 18:47:42.
