data_PCOD9303532
_publ_section_title
;
Structure prediction by ZEFSAII (Michael W. Deem and Ramdas Pophale) SiO2 
 PCOD9303532
Probable space group: C 2/C
;
_chemical_formula_sum "Si O2"
_cell_formula_units_Z 48
_cell_length_a 12.631758
_cell_length_b 13.987123
_cell_length_c 29.601824
_cell_angle_alpha 90.000000
_cell_angle_beta 157.178700
_cell_angle_gamma 90.000000
_cell_volume 2028.540653
_symmetry_space_group_name_H-M "C 2/C"
_symmetry_group_IT_number 15
_symmetry_cell_setting 'monoclinic'
loop_
_space_group_symop_operation_xyz
x,y,z
-x,y,1/2-z
-x,-y,-z
x,-y,1/2+z
1/2+x,1/2+y,z
1/2-x,1/2+y,1/2-z
1/2-x,1/2-y,-z
1/2+x,1/2-y,1/2+z
loop_
_atom_site_type_symbol
_atom_site_label
_atom_site_fract_x
_atom_site_fract_y
_atom_site_fract_z
Si Si1 0.016390 0.793565 0.473664
Si Si2 0.226980 0.146222 0.296809
Si Si3 0.849718 0.762920 0.261082
Si Si4 0.781899 0.042581 0.513538
Si Si5 0.578701 0.671757 0.461453
Si Si6 0.003434 0.043906 0.698827
O O1 0.325666 0.754384 0.603856
O O2 0.049484 0.879444 0.449935
O O3 0.828112 0.711724 0.377536
O O4 0.896242 0.823465 0.474617
O O5 0.204943 0.218027 0.247185
O O6 0.470235 0.070606 0.381246
O O7 0.987539 0.069994 0.200008
O O8 0.729402 0.704265 0.172102
O O9 0.780731 0.875104 0.232260
O O10 0.809342 0.052828 0.578478
O O11 0.865008 0.935854 0.532819
O O12 0.750000 0.750000 0.500000
O O13 0.000000 0.077895 0.750000
#
# Coordination Sequence:
#
# PCOD9303532 Si02
#       6
#     8   8   8   8   8   8
#     4  11  23  45  72  93 130 179 227 264 324 401
#     4  11  23  42  70  90 133 173 217 277 325 389
#     4  11  22  45  69  97 127 177 223 264 321 407
#     4  11  23  44  64  98 127 172 220 271 326 393
#     4  12  26  42  68 100 139 165 219 280 337 381
#     4  12  24  39  66  98 133 169 224 271 331 394
#
# _framework density 23.662331999999999
#
# number of rings (size 3 to 8) (size 9 to 14) (size 15 to 20)
#    0.000    0.667    5.000    4.000    2.333    0.667 
#    0.000    0.000    0.000    0.000    0.000    0.000 
#    0.000    0.000    0.000    0.000    0.000    0.000 
#
# Total GULP energy -133728.896283 kJ/mol
# GULP energy per Si atom -5572.037345 kJ/mol
# Density = 2.360848 g / cm^3
# Si number density = 23.662332 Si / 1000 Ang^3
#
#
#
# Elastic Constant Matrix: (Units=GPa)
#
#
# Indices 1 2 3 4 5 6 
#
# 1 98.9396 36.7543 31.1933 0.0050 -33.3626 0.0030
# 2 36.7543 190.2706 34.3153 -0.0023 -13.2140 -0.0025
# 3 31.1933 34.3153 69.5038 0.0336 -28.0659 0.0245
# 4 0.0050 -0.0023 0.0336 198.7574 -0.0129 135.2388
# 5 -33.3626 -13.2140 -28.0659 -0.0129 36.9978 -0.0090
# 6 0.0030 -0.0025 0.0245 135.2388 -0.0090 131.3009
#
#
#
# Elastic Compliance Matrix: (Units=1/GPa)
#
#
# Indices 1 2 3 4 5 6 
#
# 1 0.015296 -0.001931 -0.000894 0.000000 0.012425 0.000000
# 2 -0.001931 0.006014 -0.002794 0.000000 -0.001713 0.000000
# 3 -0.000894 -0.002794 0.022258 -0.000002 0.015080 -0.000001
# 4 0.000000 0.000000 -0.000002 0.016817 0.000000 -0.017322
# 5 0.012425 -0.001713 0.015080 0.000000 0.049061 0.000000
# 6 0.000000 0.000000 -0.000001 -0.017322 0.000000 0.025457
#
#
# Mechanical properties :
#
#
# Convention : Reuss Voigt Hill
#
# Bulk Modulus (GPa) = 30.93143 62.58222 46.75682
# Shear Modulus (GPa) = 31.86376 90.50795 61.18586
#
# Velocity S-wave (km/s) = 3.67359 6.19135 5.09058
# Velocity P-wave (km/s) = 5.57621 8.80999 7.37258
#
# Compressibility (1/GPa) = 0.03232958
#
# Stress axis : x y z
#
# Youngs Moduli (GPa) = 65.37596 166.29047 44.92757
#
# Poissons Ratio (x) = 0.32103 0.04018
# Poissons Ratio (y) = 0.12621 0.12554
# Poissons Ratio (z) = 0.05847 0.46464
#
# Static dielectric constant tensor:
#      x y z
#    x 1.992910 0.000000 0.019250 
#    y 0.000000 2.056080 0.000000 
#    z 0.019250 0.000000 2.012580 
# 
# From -- ./inp_files/293117.got.cif
#   From: 2010.05.17/outbox.cif.g08.bks.cpg/sg15_147_cif.got.tgz:293117.got - 2010.06.03 18:47:42.
