data_PCOD9303515
_publ_section_title
;
Structure prediction by ZEFSAII (Michael W. Deem and Ramdas Pophale) SiO2 
 PCOD9303515
Probable space group: C 2/C
;
_chemical_formula_sum "Si O2"
_cell_formula_units_Z 48
_cell_length_a 26.309479
_cell_length_b 14.110825
_cell_length_c 9.482783
_cell_angle_alpha 90.000000
_cell_angle_beta 41.974158
_cell_angle_gamma 90.000000
_cell_volume 2354.473014
_symmetry_space_group_name_H-M "C 2/C"
_symmetry_group_IT_number 15
_symmetry_cell_setting 'monoclinic'
loop_
_space_group_symop_operation_xyz
x,y,z
-x,y,1/2-z
-x,-y,-z
x,-y,1/2+z
1/2+x,1/2+y,z
1/2-x,1/2+y,1/2-z
1/2-x,1/2-y,-z
1/2+x,1/2-y,1/2+z
loop_
_atom_site_type_symbol
_atom_site_label
_atom_site_fract_x
_atom_site_fract_y
_atom_site_fract_z
Si Si1 0.349648 0.513592 0.326386
Si Si2 0.833246 0.337133 0.447533
Si Si3 0.547518 0.687903 0.284360
Si Si4 0.558549 0.663123 0.749426
Si Si5 0.743639 0.017220 0.796124
Si Si6 0.687015 0.213318 0.833645
O O1 0.393131 0.610200 0.276624
O O2 0.402970 0.426740 0.256298
O O3 0.272900 0.506061 0.576564
O O4 0.319228 0.506187 0.230981
O O5 0.904075 0.278927 0.361567
O O6 0.820836 0.443541 0.525476
O O7 0.756995 0.282928 0.655290
O O8 0.838312 0.326244 0.267440
O O9 0.500000 0.649472 0.250000
O O10 0.490330 0.713122 0.528128
O O11 0.500000 0.630605 0.750000
O O12 0.621055 0.729636 0.548133
O O13 0.716729 0.125150 0.864396
#
# Coordination Sequence:
#
# PCOD9303515 Si02
#       6
#     8   8   8   8   8   8
#     4  12  23  40  66 104 137 169 217 289 337 398
#     4  11  22  45  67  94 140 175 219 280 329 396
#     4  12  25  44  66  99 143 176 215 279 346 397
#     4  12  24  41  67  98 135 178 223 271 341 404
#     4  12  23  41  71 100 131 174 230 275 329 386
#     4  11  23  43  69  96 133 179 228 270 329 404
#
# _framework density 20.386727
#
# number of rings (size 3 to 8) (size 9 to 14) (size 15 to 20)
#    0.000    0.333    6.667    4.000    0.000    2.000 
#    0.000    1.667    0.000    0.000    0.000    0.000 
#    0.000    0.000    0.000    0.000    0.000    0.000 
#
# Total GULP energy -134262.958049 kJ/mol
# GULP energy per Si atom -5594.289919 kJ/mol
# Density = 2.034033 g / cm^3
# Si number density = 20.386727 Si / 1000 Ang^3
#
#
#
# Elastic Constant Matrix: (Units=GPa)
#
#
# Indices 1 2 3 4 5 6 
#
# 1 43.5137 34.8340 -1.8774 0.0000 -5.9792 0.0000
# 2 34.8340 92.9992 27.0367 0.0000 -8.2391 0.0000
# 3 -1.8774 27.0367 115.8368 0.0000 -3.9826 0.0000
# 4 0.0000 0.0000 0.0000 24.5310 0.0000 1.1742
# 5 -5.9792 -8.2391 -3.9826 0.0000 25.9840 0.0000
# 6 0.0000 0.0000 0.0000 1.1742 0.0000 21.5584
#
#
#
# Elastic Compliance Matrix: (Units=1/GPa)
#
#
# Indices 1 2 3 4 5 6 
#
# 1 0.034773 -0.013792 0.003928 0.000000 0.004230 0.000000
# 2 -0.013792 0.017287 -0.004201 0.000000 0.001664 0.000000
# 3 0.003928 -0.004201 0.009714 0.000000 0.001061 0.000000
# 4 0.000000 0.000000 0.000000 0.040871 0.000000 -0.002226
# 5 0.004230 0.001664 0.001061 0.000000 0.040149 0.000000
# 6 0.000000 0.000000 0.000000 -0.002226 0.000000 0.046507
#
#
# Mechanical properties :
#
#
# Convention : Reuss Voigt Hill
#
# Bulk Modulus (GPa) = 29.72309 41.37070 35.54690
# Shear Modulus (GPa) = 21.86794 27.23846 24.55320
#
# Velocity S-wave (km/s) = 3.27870 3.65922 3.47417
# Velocity P-wave (km/s) = 5.38000 6.17982 5.79373
#
# Compressibility (1/GPa) = 0.03364388
#
# Stress axis : x y z
#
# Youngs Moduli (GPa) = 28.75813 57.84532 102.94888
#
# Poissons Ratio (x) = 0.79779 -0.40439
# Poissons Ratio (y) = 0.39663 0.43252
# Poissons Ratio (z) = -0.11296 0.24302
#
# Static dielectric constant tensor:
#      x y z
#    x 1.732950 0.000000 0.001350 
#    y 0.000000 1.720770 0.000000 
#    z 0.001350 0.000000 1.718990 
# 
# From -- ./inp_files/66409.got.cif
#   From: 2010.05.17/outbox.cif.g08.bks.cpg/sg15_34_cif.got.tgz:66409.got - 2010.06.03 18:47:42.
