data_PCOD9303234
_publ_section_title
;
Structure prediction by ZEFSAII (Michael W. Deem and Ramdas Pophale) SiO2 
 PCOD9303234
Probable space group: C 2/C
;
_chemical_formula_sum "Si O2"
_cell_formula_units_Z 40
_cell_length_a 8.358100
_cell_length_b 24.652940
_cell_length_c 17.543609
_cell_angle_alpha 90.000000
_cell_angle_beta 149.797023
_cell_angle_gamma 90.000000
_cell_volume 1818.524668
_symmetry_space_group_name_H-M "C 2/C"
_symmetry_group_IT_number 15
_symmetry_cell_setting 'monoclinic'
loop_
_space_group_symop_operation_xyz
x,y,z
-x,y,1/2-z
-x,-y,-z
x,-y,1/2+z
1/2+x,1/2+y,z
1/2-x,1/2+y,1/2-z
1/2-x,1/2-y,-z
1/2+x,1/2-y,1/2+z
loop_
_atom_site_type_symbol
_atom_site_label
_atom_site_fract_x
_atom_site_fract_y
_atom_site_fract_z
Si Si1 0.447745 0.940622 0.316426
Si Si2 0.943765 0.757995 0.817534
Si Si3 0.828012 0.362553 0.851860
Si Si4 0.172486 0.660023 0.641021
Si Si5 0.284963 0.970782 0.478452
O O1 0.500000 0.929522 0.250000
O O2 0.513378 0.885290 0.388859
O O3 0.089056 0.960834 0.188249
O O4 0.682734 0.987209 0.439816
O O5 0.777294 0.817181 0.752753
O O6 0.733938 0.710097 0.767052
O O7 0.000000 0.747810 0.750000
O O8 0.250000 0.750000 0.000000
O O9 0.500000 0.386366 0.750000
O O10 0.981487 0.328670 0.985250
O O11 0.057058 0.413181 0.932861
O O12 0.500000 0.633746 0.750000
O O13 0.500000 0.000000 0.500000
#
# Coordination Sequence:
#
# PCOD9303234 Si02
#       5
#     8   8   8   8   8
#     4  12  26  44  68 104 147 185 238 306 373 435
#     4  11  23  44  70 103 144 188 241 303 367 437
#     4  11  22  42  73 103 138 185 246 288 364 437
#     4  12  23  45  69 101 141 189 243 293 364 441
#     4  12  23  45  73 104 137 192 244 300 358 446
#
# _framework density 21.995851999999999
#
# number of rings (size 3 to 8) (size 9 to 14) (size 15 to 20)
#    0.000    0.400    8.000    3.000    0.000    0.800 
#    0.000    1.000    0.000    0.000    0.000    0.000 
#    0.000    0.000    0.000    0.000    0.000    0.000 
#
# Total GULP energy -111544.154266 kJ/mol
# GULP energy per Si atom -5577.207713 kJ/mol
# Density = 2.194579 g / cm^3
# Si number density = 21.995852 Si / 1000 Ang^3
#
#
#
# Elastic Constant Matrix: (Units=GPa)
#
#
# Indices 1 2 3 4 5 6 
#
# 1 54.6924 12.2987 12.6979 -0.0014 -12.5338 0.0032
# 2 12.2987 130.7415 20.0474 -0.0046 -22.3796 0.0029
# 3 12.6979 20.0474 101.3652 -0.0898 -12.6433 0.0008
# 4 -0.0014 -0.0046 -0.0898 43.4575 -0.0084 -9.9746
# 5 -12.5338 -22.3796 -12.6433 -0.0084 30.0657 0.0054
# 6 0.0032 0.0029 0.0008 -9.9746 0.0054 30.5348
#
#
#
# Elastic Compliance Matrix: (Units=1/GPa)
#
#
# Indices 1 2 3 4 5 6 
#
# 1 0.020470 -0.000389 -0.001540 -0.000002 0.007596 -0.000004
# 2 -0.000389 0.008864 -0.000952 0.000000 0.006036 -0.000002
# 3 -0.001540 -0.000952 0.010636 0.000024 0.003122 0.000007
# 4 -0.000002 0.000000 0.000024 0.024876 0.000015 0.008126
# 5 0.007596 0.006036 0.003122 0.000015 0.042233 -0.000004
# 6 -0.000004 -0.000002 0.000007 0.008126 -0.000004 0.035404
#
#
# Mechanical properties :
#
#
# Convention : Reuss Voigt Hill
#
# Bulk Modulus (GPa) = 29.23194 41.87634 35.55414
# Shear Modulus (GPa) = 31.31897 36.92861 34.12379
#
# Velocity S-wave (km/s) = 3.77750 4.10187 3.94302
# Velocity P-wave (km/s) = 5.68723 6.44309 6.07692
#
# Compressibility (1/GPa) = 0.03420915
#
# Stress axis : x y z
#
# Youngs Moduli (GPa) = 48.85220 112.81100 94.02141
#
# Poissons Ratio (x) = 0.04390 0.14477
# Poissons Ratio (y) = 0.01901 0.08946
# Poissons Ratio (z) = 0.07522 0.10734
#
# Static dielectric constant tensor:
#      x y z
#    x 1.871140 0.000000 0.052420 
#    y 0.000000 1.865870 0.000020 
#    z 0.052420 0.000020 1.890350 
# 
# From -- ./inp_files/24603.got.cif
#   From: 2010.05.17/outbox.cif.g08.bks.cpg/sg15_13_cif.got.tgz:24603.got - 2010.06.03 18:47:42.
