data_PCOD9303254
_publ_section_title
;
Structure prediction by ZEFSAII (Michael W. Deem and Ramdas Pophale) SiO2 
 PCOD9303254
Probable space group: C 2/C
;
_chemical_formula_sum "Si O2"
_cell_formula_units_Z 48
_cell_length_a 12.719471
_cell_length_b 12.527939
_cell_length_c 15.009817
_cell_angle_alpha 90.000000
_cell_angle_beta 115.679786
_cell_angle_gamma 90.000000
_cell_volume 2155.557925
_symmetry_space_group_name_H-M "C 2/C"
_symmetry_group_IT_number 15
_symmetry_cell_setting 'monoclinic'
loop_
_space_group_symop_operation_xyz
x,y,z
-x,y,1/2-z
-x,-y,-z
x,-y,1/2+z
1/2+x,1/2+y,z
1/2-x,1/2+y,1/2-z
1/2-x,1/2-y,-z
1/2+x,1/2-y,1/2+z
loop_
_atom_site_type_symbol
_atom_site_label
_atom_site_fract_x
_atom_site_fract_y
_atom_site_fract_z
Si Si1 0.177685 0.750554 0.251475
Si Si2 0.646271 0.489307 0.461669
Si Si3 0.500000 0.432750 0.250000
Si Si4 0.341138 0.710553 0.960138
Si Si5 0.603131 0.737395 0.040099
Si Si6 0.000000 0.570124 0.250000
Si Si7 0.095001 0.462321 0.964488
O O1 0.192218 0.752334 0.150749
O O2 0.297659 0.752006 0.349948
O O3 0.102151 0.646611 0.250004
O O4 0.101626 0.853525 0.252750
O O5 0.550569 0.500951 0.349732
O O6 0.646125 0.582430 0.533603
O O7 0.624893 0.374364 0.498339
O O8 0.774831 0.498462 0.466287
O O9 0.250000 0.750000 0.000000
O O10 0.472795 0.746646 0.030146
O O11 0.606420 0.833397 0.969897
O O12 0.053756 0.504791 0.351318
O O13 0.000000 0.500000 0.000000
#
# Coordination Sequence:
#
# PCOD9303254 Si02
#       7
#     8   8   4   8   8   4   8
#     4  11  23  43  76 102 137 189 249 295 357 450
#     4  12  25  45  75 107 142 192 244 301 368 444
#     4  11  22  42  76 111 130 184 257 296 350 457
#     4  12  28  48  68 106 154 188 243 322 378 428
#     4  12  23  46  74 101 142 195 246 293 367 454
#     4  11  22  44  76 103 136 194 239 290 364 447
#     4  12  25  44  73 111 144 184 239 307 367 436
#
# _framework density 22.268017
#
# number of rings (size 3 to 8) (size 9 to 14) (size 15 to 20)
#    0.000    0.333    6.667    3.000    0.000    3.333 
#    0.000    0.000    0.000    0.000    0.000    0.000 
#    0.000    0.000    0.000    0.000    0.000    0.000 
#
# Total GULP energy -134382.780227 kJ/mol
# GULP energy per Si atom -5599.282509 kJ/mol
# Density = 2.221733 g / cm^3
# Si number density = 22.268017 Si / 1000 Ang^3
#
#
#
# Elastic Constant Matrix: (Units=GPa)
#
#
# Indices 1 2 3 4 5 6 
#
# 1 124.5363 -4.1769 73.8695 0.0000 9.7196 0.0000
# 2 -4.1769 57.1610 17.0335 0.0000 -6.9244 0.0000
# 3 73.8695 17.0335 191.4330 0.0000 9.0318 0.0000
# 4 0.0000 0.0000 0.0000 22.7617 0.0000 -7.7450
# 5 9.7196 -6.9244 9.0318 0.0000 48.4984 0.0000
# 6 0.0000 0.0000 0.0000 -7.7450 0.0000 17.2274
#
#
#
# Elastic Compliance Matrix: (Units=1/GPa)
#
#
# Indices 1 2 3 4 5 6 
#
# 1 0.010698 0.001917 -0.004248 0.000000 -0.001079 0.000000
# 2 0.001917 0.018725 -0.002536 0.000000 0.002762 0.000000
# 3 -0.004248 -0.002536 0.007128 0.000000 -0.000838 0.000000
# 4 0.000000 0.000000 0.000000 0.051868 0.000000 0.023319
# 5 -0.001079 0.002762 -0.000838 0.000000 0.021386 0.000000
# 6 0.000000 0.000000 0.000000 0.023319 0.000000 0.068531
#
#
# Mechanical properties :
#
#
# Convention : Reuss Voigt Hill
#
# Bulk Modulus (GPa) = 37.29015 60.73138 49.01077
# Shear Modulus (GPa) = 25.37968 36.79111 31.08540
#
# Velocity S-wave (km/s) = 3.37966 4.06913 3.74032
# Velocity P-wave (km/s) = 5.65791 7.02917 6.38048
#
# Compressibility (1/GPa) = 0.02681673
#
# Stress axis : x y z
#
# Youngs Moduli (GPa) = 93.47678 53.40523 140.29103
#
# Poissons Ratio (x) = -0.10236 0.59591
# Poissons Ratio (y) = -0.17917 0.35578
# Poissons Ratio (z) = 0.39706 0.13544
#
# Static dielectric constant tensor:
#      x y z
#    x 1.833540 0.000000 0.007870 
#    y 0.000000 1.881290 0.000000 
#    z 0.007870 0.000000 1.792250 
# 
# From -- ./inp_files/144404.got.cif
#   From: 2010.05.17/outbox.cif.g08.bks.cpg/sg15_73_cif.got.tgz:144404.got - 2010.06.03 18:47:42.
