data_PCOD9303137
_publ_section_title
;
Structure prediction by ZEFSAII (Michael W. Deem and Ramdas Pophale) SiO2 
 PCOD9303137
Probable space group: C 2/C
;
_chemical_formula_sum "Si O2"
_cell_formula_units_Z 52
_cell_length_a 19.538784
_cell_length_b 21.693323
_cell_length_c 11.332278
_cell_angle_alpha 90.000000
_cell_angle_beta 150.237253
_cell_angle_gamma 90.000000
_cell_volume 2384.410613
_symmetry_space_group_name_H-M "C 2/C"
_symmetry_group_IT_number 15
_symmetry_cell_setting 'monoclinic'
loop_
_space_group_symop_operation_xyz
x,y,z
-x,y,1/2-z
-x,-y,-z
x,-y,1/2+z
1/2+x,1/2+y,z
1/2-x,1/2+y,1/2-z
1/2-x,1/2-y,-z
1/2+x,1/2-y,1/2+z
loop_
_atom_site_type_symbol
_atom_site_label
_atom_site_fract_x
_atom_site_fract_y
_atom_site_fract_z
Si Si1 0.768100 0.986825 0.124170
Si Si2 0.312188 0.678903 0.405572
Si Si3 0.576458 0.077778 0.740289
Si Si4 0.097126 0.392245 0.739465
Si Si5 0.500000 0.787558 0.750000
Si Si6 0.952445 0.060871 0.552911
Si Si7 0.143232 0.286046 0.422501
O O1 0.914564 0.953257 0.326506
O O2 0.809406 0.029290 0.297692
O O3 0.652646 0.934410 0.930660
O O4 0.715728 0.037526 0.950479
O O5 0.230686 0.636696 0.375823
O O6 0.371851 0.741355 0.548369
O O7 0.428708 0.633852 0.527057
O O8 0.215597 0.695738 0.152516
O O9 0.500000 0.059397 0.750000
O O10 0.487967 0.071891 0.488738
O O11 0.605526 0.150196 0.800347
O O12 0.012675 0.333589 0.659313
O O13 0.000000 0.036224 0.750000
O O14 0.250000 0.250000 0.500000
O O15 0.000000 0.254470 0.250000
#
# Coordination Sequence:
#
# PCOD9303137 Si02
#       7
#     8   8   8   8   4   8   8
#     4  11  24  39  67 100 132 174 240 281 343 428
#     4  12  22  46  72  91 141 193 234 283 367 435
#     4  11  22  43  71  99 136 191 230 286 367 424
#     4  12  24  44  66 104 139 183 231 293 354 421
#     4  12  28  40  66 106 142 180 240 298 348 422
#     4  11  22  42  67  93 130 186 225 280 348 424
#     4  11  23  44  74 104 141 186 244 292 355 425
#
# _framework density 21.808323000000001
#
# number of rings (size 3 to 8) (size 9 to 14) (size 15 to 20)
#    0.000    0.615    6.923    1.846    1.077    1.231 
#    0.000    0.769    0.000    0.000    0.000    0.000 
#    0.000    0.000    0.000    0.000    0.000    0.000 
#
# Total GULP energy -145056.800758 kJ/mol
# GULP energy per Si atom -5579.107721 kJ/mol
# Density = 2.175869 g / cm^3
# Si number density = 21.808323 Si / 1000 Ang^3
#
#
#
# Elastic Constant Matrix: (Units=GPa)
#
#
# Indices 1 2 3 4 5 6 
#
# 1 44.1346 32.6556 16.8391 0.0000 14.6443 0.0000
# 2 32.6556 107.3331 43.7028 0.0000 2.9122 0.0000
# 3 16.8391 43.7028 155.3748 0.0000 -17.7501 0.0000
# 4 0.0000 0.0000 0.0000 31.3945 0.0000 -4.4110
# 5 14.6443 2.9122 -17.7501 0.0000 37.6882 0.0000
# 6 0.0000 0.0000 0.0000 -4.4110 0.0000 2.4723
#
#
#
# Elastic Compliance Matrix: (Units=1/GPa)
#
#
# Indices 1 2 3 4 5 6 
#
# 1 0.035323 -0.009181 -0.002888 0.000000 -0.014376 0.000000
# 2 -0.009181 0.013106 -0.002536 0.000000 0.001360 0.000000
# 3 -0.002888 -0.002536 0.008046 0.000000 0.005108 0.000000
# 4 0.000000 0.000000 0.000000 0.042509 0.000000 0.075842
# 5 -0.014376 0.001360 0.005108 0.000000 0.034420 0.000000
# 6 0.000000 0.000000 0.000000 0.075842 0.000000 0.539789
#
#
# Mechanical properties :
#
#
# Convention : Reuss Voigt Hill
#
# Bulk Modulus (GPa) = 36.67754 54.80418 45.74086
# Shear Modulus (GPa) = 7.02750 28.55400 17.79075
#
# Velocity S-wave (km/s) = 1.79705 3.62237 2.85928
# Velocity P-wave (km/s) = 4.60005 6.53299 5.64980
#
# Compressibility (1/GPa) = 0.02726464
#
# Stress axis : x y z
#
# Youngs Moduli (GPa) = 28.31018 76.30313 124.28789
#
# Poissons Ratio (x) = 0.70052 0.35897
# Poissons Ratio (y) = 0.25991 0.31518
# Poissons Ratio (z) = 0.08177 0.19349
#
# Static dielectric constant tensor:
#      x y z
#    x 1.874360 0.000000 0.043100 
#    y 0.000000 1.802390 0.000000 
#    z 0.043100 0.000000 1.846450 
# 
# From -- ./inp_files/114352.got.cif
#   From: 2010.05.17/outbox.cif.g08.bks.cpg/sg15_58_cif.got.tgz:114352.got - 2010.06.03 18:47:42.
