data_PCOD9303084
_publ_section_title
;
Structure prediction by ZEFSAII (Michael W. Deem and Ramdas Pophale) SiO2 
 PCOD9303084
Probable space group: C 2/C
;
_chemical_formula_sum "Si O2"
_cell_formula_units_Z 56
_cell_length_a 18.665642
_cell_length_b 21.275212
_cell_length_c 18.143148
_cell_angle_alpha 90.000000
_cell_angle_beta 157.240036
_cell_angle_gamma 90.000000
_cell_volume 2787.378969
_symmetry_space_group_name_H-M "C 2/C"
_symmetry_group_IT_number 15
_symmetry_cell_setting 'monoclinic'
loop_
_space_group_symop_operation_xyz
x,y,z
-x,y,1/2-z
-x,-y,-z
x,-y,1/2+z
1/2+x,1/2+y,z
1/2-x,1/2+y,1/2-z
1/2-x,1/2-y,-z
1/2+x,1/2-y,1/2+z
loop_
_atom_site_type_symbol
_atom_site_label
_atom_site_fract_x
_atom_site_fract_y
_atom_site_fract_z
Si Si1 0.570312 0.029329 0.489469
Si Si2 0.855582 0.243576 0.661887
Si Si3 0.538270 0.903557 0.372292
Si Si4 0.777551 0.825783 0.352060
Si Si5 0.368938 0.369312 0.280680
Si Si6 0.795600 0.643613 0.218383
Si Si7 0.698595 0.681471 0.289427
O O1 0.766693 0.064253 0.681715
O O2 0.430492 0.085114 0.335221
O O3 0.500000 0.000000 0.500000
O O4 0.577211 0.973336 0.437878
O O5 0.614295 0.252571 0.400498
O O6 0.840244 0.174213 0.682194
O O7 0.844931 0.298549 0.712306
O O8 0.500000 0.901598 0.250000
O O9 0.359921 0.876876 0.245907
O O10 0.703731 0.857573 0.554034
O O11 0.784143 0.831715 0.269929
O O12 0.713914 0.756129 0.313822
O O13 0.984906 0.835881 0.577311
O O14 0.586015 0.375960 0.501396
O O15 0.799334 0.664555 0.307530
#
# Coordination Sequence:
#
# PCOD9303084 Si02
#       7
#     8   8   8   8   8   8   8
#     4  12  25  45  71  96 135 186 237 274 331 415
#     4  12  23  39  65 105 149 176 219 287 349 402
#     4  12  28  48  66  99 140 177 223 290 347 394
#     4  11  22  41  73 102 129 173 226 277 342 407
#     4  11  24  41  69 100 136 180 235 273 331 413
#     4  11  24  41  70 102 136 183 230 276 335 410
#     4  11  22  41  73 102 131 172 227 280 338 413
#
# _framework density 20.090558999999999
#
# number of rings (size 3 to 8) (size 9 to 14) (size 15 to 20)
#    0.000    0.571    7.143    0.857    0.000    4.571 
#    0.000    0.000    0.000    0.000    0.000    0.000 
#    0.000    0.000    0.000    0.000    0.000    0.000 
#
# Total GULP energy -156532.034923 kJ/mol
# GULP energy per Si atom -5590.429819 kJ/mol
# Density = 2.004483 g / cm^3
# Si number density = 20.090559 Si / 1000 Ang^3
#
#
#
# Elastic Constant Matrix: (Units=GPa)
#
#
# Indices 1 2 3 4 5 6 
#
# 1 71.3892 29.7412 40.5994 -0.0015 -12.3507 -0.0006
# 2 29.7412 110.9637 26.3548 0.0028 -5.3765 0.0006
# 3 40.5994 26.3548 82.8717 0.0067 -0.6053 0.0013
# 4 -0.0015 0.0028 0.0067 47.1083 0.0015 0.6209
# 5 -12.3507 -5.3765 -0.6053 0.0015 43.3876 -0.0001
# 6 -0.0006 0.0006 0.0013 0.6209 -0.0001 29.2545
#
#
#
# Elastic Compliance Matrix: (Units=1/GPa)
#
#
# Indices 1 2 3 4 5 6 
#
# 1 0.021821 -0.003293 -0.009602 0.000002 0.005670 0.000001
# 2 -0.003293 0.010305 -0.001661 0.000000 0.000316 0.000000
# 3 -0.009602 -0.001661 0.017279 -0.000003 -0.002698 -0.000001
# 4 0.000002 0.000000 -0.000003 0.021234 0.000000 -0.000451
# 5 0.005670 0.000316 -0.002698 0.000000 0.024663 0.000000
# 6 0.000001 0.000000 -0.000001 -0.000451 0.000000 0.034192
#
#
# Mechanical properties :
#
#
# Convention : Reuss Voigt Hill
#
# Bulk Modulus (GPa) = 49.27929 50.95727 50.11828
# Shear Modulus (GPa) = 30.23503 35.18535 32.71019
#
# Velocity S-wave (km/s) = 3.88356 4.18944 4.03940
# Velocity P-wave (km/s) = 6.68515 6.98718 6.83783
#
# Compressibility (1/GPa) = 0.02029250
#
# Stress axis : x y z
#
# Youngs Moduli (GPa) = 45.82723 97.04423 57.87271
#
# Poissons Ratio (x) = 0.31961 0.55566
# Poissons Ratio (y) = 0.15093 0.09614
# Poissons Ratio (z) = 0.44001 0.16122
#
# Static dielectric constant tensor:
#      x y z
#    x 1.735620 0.000000 0.243030 
#    y 0.000000 1.647460 0.000000 
#    z 0.243030 0.000000 2.761080 
# 
# From -- ./inp_files/253387.got.cif
#   From: 2010.05.17/outbox.cif.g08.bks.cpg/sg15_127_cif.got.tgz:253387.got - 2010.06.03 18:47:42.
