data_PCOD9303327
_publ_section_title
;
Structure prediction by ZEFSAII (Michael W. Deem and Ramdas Pophale) SiO2 
 PCOD9303327
Probable space group: C 2/C
;
_chemical_formula_sum "Si O2"
_cell_formula_units_Z 48
_cell_length_a 11.380790
_cell_length_b 14.501306
_cell_length_c 16.134009
_cell_angle_alpha 90.000000
_cell_angle_beta 62.984879
_cell_angle_gamma 90.000000
_cell_volume 2372.161687
_symmetry_space_group_name_H-M "C 2/C"
_symmetry_group_IT_number 15
_symmetry_cell_setting 'monoclinic'
loop_
_space_group_symop_operation_xyz
x,y,z
-x,y,1/2-z
-x,-y,-z
x,-y,1/2+z
1/2+x,1/2+y,z
1/2-x,1/2+y,1/2-z
1/2-x,1/2-y,-z
1/2+x,1/2-y,1/2+z
loop_
_atom_site_type_symbol
_atom_site_label
_atom_site_fract_x
_atom_site_fract_y
_atom_site_fract_z
Si Si1 0.385100 0.055957 0.937032
Si Si2 0.075208 0.227172 0.097284
Si Si3 0.884083 0.927516 0.054481
Si Si4 0.869106 0.840151 0.238153
Si Si5 0.701525 0.321112 0.729403
Si Si6 0.325233 0.007539 0.643255
O O1 0.410997 0.166195 0.931737
O O2 0.264091 0.035457 0.914426
O O3 0.526899 0.013899 0.868376
O O4 0.343236 0.018843 0.040860
O O5 0.171463 0.209944 0.144596
O O6 0.930548 0.201777 0.177755
O O7 0.103645 0.157366 0.013834
O O8 0.896220 0.891808 0.143361
O O9 0.000000 0.000000 0.000000
O O10 0.816986 0.739472 0.231239
O O11 0.000000 0.838779 0.250000
O O12 0.752972 0.897314 0.320520
O O13 0.739803 0.427647 0.713308
#
# Coordination Sequence:
#
# PCOD9303327 Si02
#       6
#     8   8   8   8   8   8
#     4  11  22  43  70  98 136 175 231 277 340 411
#     4  11  22  44  74 102 127 183 232 281 334 407
#     4  12  24  42  70 102 132 176 231 276 338 410
#     4  12  26  45  64  96 141 177 224 284 346 398
#     4  11  23  44  71 100 137 173 231 281 338 410
#     4  11  24  42  68 102 134 179 222 286 344 399
#
# _framework density 20.234707
#
# number of rings (size 3 to 8) (size 9 to 14) (size 15 to 20)
#    0.000    0.667    5.000    3.500    2.333    0.667 
#    6.000    0.833    0.000    0.000    0.000    0.000 
#    0.000    0.000    0.000    0.000    0.000    0.000 
#
# Total GULP energy -134281.192029 kJ/mol
# GULP energy per Si atom -5595.049668 kJ/mol
# Density = 2.018865 g / cm^3
# Si number density = 20.234707 Si / 1000 Ang^3
#
#
#
# Elastic Constant Matrix: (Units=GPa)
#
#
# Indices 1 2 3 4 5 6 
#
# 1 166.4807 8.3003 38.0403 0.0000 10.4386 0.0000
# 2 8.3003 50.5059 3.8415 0.0000 6.0697 0.0000
# 3 38.0403 3.8415 78.9518 0.0000 5.3181 0.0000
# 4 0.0000 0.0000 0.0000 34.8532 0.0000 -5.6534
# 5 10.4386 6.0697 5.3181 0.0000 31.4423 0.0000
# 6 0.0000 0.0000 0.0000 -5.6534 0.0000 29.6070
#
#
#
# Elastic Compliance Matrix: (Units=1/GPa)
#
#
# Indices 1 2 3 4 5 6 
#
# 1 0.006866 -0.000694 -0.003166 0.000000 -0.001610 0.000000
# 2 -0.000694 0.020382 -0.000412 0.000000 -0.003634 0.000000
# 3 -0.003166 -0.000412 0.014298 0.000000 -0.001288 0.000000
# 4 0.000000 0.000000 0.000000 0.029609 0.000000 0.005654
# 5 -0.001610 -0.003634 -0.001288 0.000000 0.033258 0.000000
# 6 0.000000 0.000000 0.000000 0.005654 0.000000 0.034855
#
#
# Mechanical properties :
#
#
# Convention : Reuss Voigt Hill
#
# Bulk Modulus (GPa) = 30.30212 44.03362 37.16787
# Shear Modulus (GPa) = 31.48360 35.56426 33.52393
#
# Velocity S-wave (km/s) = 3.94880 4.19691 4.07474
# Velocity P-wave (km/s) = 5.98318 6.73008 6.36759
#
# Compressibility (1/GPa) = 0.03300099
#
# Stress axis : x y z
#
# Youngs Moduli (GPa) = 145.65331 49.06318 69.93942
#
# Poissons Ratio (x) = 0.03405 0.22141
# Poissons Ratio (y) = 0.10109 0.02885
# Poissons Ratio (z) = 0.46110 0.02024
#
# Static dielectric constant tensor:
#      x y z
#    x 1.707490 0.000000 -0.024070 
#    y 0.000000 1.699640 0.000000 
#    z -0.024070 0.000000 1.718770 
# 
# From -- ./inp_files/144058.got.cif
#   From: 2010.05.17/outbox.cif.g08.bks.cpg/sg15_73_cif.got.tgz:144058.got - 2010.06.03 18:47:42.
