data_PCOD9303796
_publ_section_title
;
Structure prediction by ZEFSAII (Michael W. Deem and Ramdas Pophale) SiO2 
 PCOD9303796
Probable space group: C 2/C
;
_chemical_formula_sum "Si O2"
_cell_formula_units_Z 44
_cell_length_a 15.416706
_cell_length_b 16.229171
_cell_length_c 8.598544
_cell_angle_alpha 90.000000
_cell_angle_beta 117.781707
_cell_angle_gamma 90.000000
_cell_volume 1903.371304
_symmetry_space_group_name_H-M "C 2/C"
_symmetry_group_IT_number 15
_symmetry_cell_setting 'monoclinic'
loop_
_space_group_symop_operation_xyz
x,y,z
-x,y,1/2-z
-x,-y,-z
x,-y,1/2+z
1/2+x,1/2+y,z
1/2-x,1/2+y,1/2-z
1/2-x,1/2-y,-z
1/2+x,1/2-y,1/2+z
loop_
_atom_site_type_symbol
_atom_site_label
_atom_site_fract_x
_atom_site_fract_y
_atom_site_fract_z
Si Si1 0.553671 0.718893 0.635801
Si Si2 0.280983 0.175978 0.853911
Si Si3 0.069432 0.449877 0.178991
Si Si4 0.293101 0.678903 0.153920
Si Si5 0.147431 0.618810 0.261712
Si Si6 0.000000 0.840400 0.750000
O O1 0.500000 0.690580 0.750000
O O2 0.663970 0.680525 0.729076
O O3 0.559245 0.818601 0.651349
O O4 0.514575 0.701195 0.430872
O O5 0.319906 0.262647 0.821826
O O6 0.346844 0.108543 0.819334
O O7 0.300019 0.162047 0.049925
O O8 0.123125 0.528501 0.298455
O O9 0.000000 0.408116 0.250000
O O10 0.000000 0.500000 0.000000
O O11 0.210500 0.619900 0.155975
O O12 0.387494 0.627832 0.176907
O O13 0.250000 0.750000 0.000000
#
# Coordination Sequence:
#
# PCOD9303796 Si02
#       6
#     8   8   8   8   8   4
#     4  11  23  42  71 100 133 176 235 283 337 406
#     4  11  24  43  63  96 136 179 224 286 335 407
#     4  12  27  42  66 100 137 180 221 272 351 416
#     4  11  23  39  66  98 133 174 225 283 331 399
#     4  11  23  45  63  96 137 180 222 280 345 404
#     4  12  22  38  66 104 128 178 222 278 344 388
#
# _framework density 23.116876999999999
#
# number of rings (size 3 to 8) (size 9 to 14) (size 15 to 20)
#    0.000    0.727    5.455    4.909    6.364    0.000 
#    0.000    0.000    2.000    2.182    0.000    0.000 
#    0.000    0.000    0.000    0.000    0.000    0.000 
#
# Total GULP energy -122615.837450 kJ/mol
# GULP energy per Si atom -5573.447157 kJ/mol
# Density = 2.306426 g / cm^3
# Si number density = 23.116877 Si / 1000 Ang^3
#
#
#
# Elastic Constant Matrix: (Units=GPa)
#
#
# Indices 1 2 3 4 5 6 
#
# 1 200.4447 14.9281 30.9504 0.0000 -18.7255 0.0000
# 2 14.9281 46.8299 6.7485 0.0000 -6.4606 0.0000
# 3 30.9504 6.7485 97.2897 0.0000 -20.8182 0.0000
# 4 0.0000 0.0000 0.0000 20.9615 0.0000 -11.1735
# 5 -18.7255 -6.4606 -20.8182 0.0000 38.2731 0.0000
# 6 0.0000 0.0000 0.0000 -11.1735 0.0000 31.7029
#
#
#
# Elastic Compliance Matrix: (Units=1/GPa)
#
#
# Indices 1 2 3 4 5 6 
#
# 1 0.005446 -0.001312 -0.001266 0.000000 0.001754 0.000000
# 2 -0.001312 0.022237 -0.000520 0.000000 0.002829 0.000000
# 3 -0.001266 -0.000520 0.011958 0.000000 0.005797 0.000000
# 4 0.000000 0.000000 0.000000 0.058743 0.000000 0.020703
# 5 0.001754 0.002829 0.005797 0.000000 0.030617 0.000000
# 6 0.000000 0.000000 0.000000 0.020703 0.000000 0.038840
#
#
# Mechanical properties :
#
#
# Convention : Reuss Voigt Hill
#
# Bulk Modulus (GPa) = 29.89886 49.97979 39.93933
# Shear Modulus (GPa) = 27.00016 37.65001 32.32508
#
# Velocity S-wave (km/s) = 3.42129 4.04007 3.74349
# Velocity P-wave (km/s) = 5.34498 6.59017 5.99996
#
# Compressibility (1/GPa) = 0.03344609
#
# Stress axis : x y z
#
# Youngs Moduli (GPa) = 183.62167 44.96973 83.62669
#
# Poissons Ratio (x) = 0.05898 0.10588
# Poissons Ratio (y) = 0.24083 0.04347
# Poissons Ratio (z) = 0.23249 0.02338
#
# Static dielectric constant tensor:
#      x y z
#    x 1.973740 0.000000 0.037770 
#    y 0.000000 1.921650 0.000000 
#    z 0.037770 0.000000 1.971780 
# 
# From -- ./inp_files/39739.got.cif
#   From: 2010.05.17/outbox.cif.g08.bks.cpg/sg15_20_cif.got.tgz:39739.got - 2010.06.03 18:47:42.
