data_PCOD9303711
_publ_section_title
;
Structure prediction by ZEFSAII (Michael W. Deem and Ramdas Pophale) SiO2 
 PCOD9303711
Probable space group: C 2/C
;
_chemical_formula_sum "Si O2"
_cell_formula_units_Z 40
_cell_length_a 12.874097
_cell_length_b 17.288724
_cell_length_c 8.241223
_cell_angle_alpha 90.000000
_cell_angle_beta 100.930989
_cell_angle_gamma 90.000000
_cell_volume 1801.023224
_symmetry_space_group_name_H-M "C 2/C"
_symmetry_group_IT_number 15
_symmetry_cell_setting 'monoclinic'
loop_
_space_group_symop_operation_xyz
x,y,z
-x,y,1/2-z
-x,-y,-z
x,-y,1/2+z
1/2+x,1/2+y,z
1/2-x,1/2+y,1/2-z
1/2-x,1/2-y,-z
1/2+x,1/2-y,1/2+z
loop_
_atom_site_type_symbol
_atom_site_label
_atom_site_fract_x
_atom_site_fract_y
_atom_site_fract_z
Si Si1 0.931381 0.221387 0.895107
Si Si2 0.374526 0.023568 0.712044
Si Si3 0.308087 0.117922 0.378185
Si Si4 0.748980 0.148799 0.659881
Si Si5 0.633698 0.310065 0.637934
O O1 0.874218 0.302629 0.915741
O O2 0.841500 0.160198 0.819810
O O3 0.000000 0.233596 0.750000
O O4 0.010554 0.192702 0.057934
O O5 0.500000 0.034761 0.750000
O O6 0.327821 0.065237 0.539989
O O7 0.317342 0.072066 0.836893
O O8 0.351004 0.934103 0.741475
O O9 0.188282 0.142707 0.299142
O O10 0.671071 0.221304 0.662237
O O11 0.806608 0.158155 0.505245
#
# Coordination Sequence:
#
# PCOD9303711 Si02
#       5
#     8   8   8   8   8
#     4   9  18  36  62  87 115 155 195 237 289 345
#     4  12  24  38  57  86 123 156 192 242 294 347
#     4  11  23  37  59  88 120 156 196 238 291 348
#     4   9  19  35  57  85 116 153 198 238 287 349
#     4   9  18  37  61  85 116 152 195 243 287 344
#
# _framework density 22.209598
#
# number of rings (size 3 to 8) (size 9 to 14) (size 15 to 20)
#    0.000    2.000    0.000    4.800    0.000    3.200 
#    0.000    4.000    0.000    0.000    0.000    0.000 
#    0.000    0.000    0.000    0.000    0.000    0.000 
#
# Total GULP energy -111804.529038 kJ/mol
# GULP energy per Si atom -5590.226452 kJ/mol
# Density = 2.215905 g / cm^3
# Si number density = 22.209598 Si / 1000 Ang^3
#
#
#
# Elastic Constant Matrix: (Units=GPa)
#
#
# Indices 1 2 3 4 5 6 
#
# 1 122.3184 54.8590 27.3005 0.0000 34.5531 0.0000
# 2 54.8590 89.1506 27.3436 0.0000 12.0818 0.0000
# 3 27.3005 27.3436 88.2645 0.0000 22.3719 0.0000
# 4 0.0000 0.0000 0.0000 76.0039 0.0000 -5.7787
# 5 34.5531 12.0818 22.3719 0.0000 35.3443 0.0000
# 6 0.0000 0.0000 0.0000 -5.7787 0.0000 26.8570
#
#
#
# Elastic Compliance Matrix: (Units=1/GPa)
#
#
# Indices 1 2 3 4 5 6 
#
# 1 0.015050 -0.007848 0.000983 0.000000 -0.012653 0.000000
# 2 -0.007848 0.016626 -0.003844 0.000000 0.004422 0.000000
# 3 0.000983 -0.003844 0.014444 0.000000 -0.008790 0.000000
# 4 0.000000 0.000000 0.000000 0.013376 0.000000 0.002878
# 5 -0.012653 0.004422 -0.008790 0.000000 0.044715 0.000000
# 6 0.000000 0.000000 0.000000 0.002878 0.000000 0.037854
#
#
# Mechanical properties :
#
#
# Convention : Reuss Voigt Hill
#
# Bulk Modulus (GPa) = 40.48134 57.63776 49.05955
# Shear Modulus (GPa) = 29.11788 40.32307 34.72047
#
# Velocity S-wave (km/s) = 3.62477 4.26557 3.95816
# Velocity P-wave (km/s) = 5.98207 7.09001 6.55947
#
# Compressibility (1/GPa) = 0.02470274
#
# Stress axis : x y z
#
# Youngs Moduli (GPa) = 66.44601 60.14721 69.23154
#
# Poissons Ratio (x) = 0.47202 -0.06807
# Poissons Ratio (y) = 0.52146 0.26613
# Poissons Ratio (z) = -0.06533 0.23121
#
# Static dielectric constant tensor:
#      x y z
#    x 1.816160 0.000000 -0.074900 
#    y 0.000000 1.747300 0.000000 
#    z -0.074900 0.000000 1.985620 
# 
# From -- ./inp_files/29333.got.cif
#   From: 2010.05.17/outbox.cif.g08.bks.cpg/sg15_15_cif.got.tgz:29333.got - 2010.06.03 18:47:42.
