data_PCOD9303312
_publ_section_title
;
Structure prediction by ZEFSAII (Michael W. Deem and Ramdas Pophale) SiO2 
 PCOD9303312
Probable space group: C 2/C
;
_chemical_formula_sum "Si O2"
_cell_formula_units_Z 56
_cell_length_a 11.952232
_cell_length_b 13.617872
_cell_length_c 18.724505
_cell_angle_alpha 90.000000
_cell_angle_beta 65.863977
_cell_angle_gamma 90.000000
_cell_volume 2781.238649
_symmetry_space_group_name_H-M "C 2/C"
_symmetry_group_IT_number 15
_symmetry_cell_setting 'monoclinic'
loop_
_space_group_symop_operation_xyz
x,y,z
-x,y,1/2-z
-x,-y,-z
x,-y,1/2+z
1/2+x,1/2+y,z
1/2-x,1/2+y,1/2-z
1/2-x,1/2-y,-z
1/2+x,1/2-y,1/2+z
loop_
_atom_site_type_symbol
_atom_site_label
_atom_site_fract_x
_atom_site_fract_y
_atom_site_fract_z
Si Si1 0.449890 0.182791 0.185635
Si Si2 0.203675 0.087591 0.204515
Si Si3 0.643174 0.518817 0.948695
Si Si4 0.117884 0.247955 0.334108
Si Si5 0.720182 0.812785 0.575972
Si Si6 0.801193 0.113674 0.721506
Si Si7 0.348768 0.318074 0.936203
O O1 0.500000 0.154358 0.250000
O O2 0.345778 0.109730 0.185476
O O3 0.574172 0.180819 0.109995
O O4 0.391359 0.292153 0.202721
O O5 0.130818 0.150690 0.282380
O O6 0.176571 0.138384 0.135961
O O7 0.176065 0.973264 0.226827
O O8 0.718922 0.419382 0.937469
O O9 0.678001 0.567022 0.862785
O O10 0.500000 0.500000 0.000000
O O11 0.664340 0.590325 0.008387
O O12 0.219168 0.239735 0.370633
O O13 0.166445 0.339000 0.273159
O O14 0.979799 0.239363 0.399630
O O15 0.750000 0.750000 0.500000
O O16 0.250000 0.250000 0.000000
#
# Coordination Sequence:
#
# PCOD9303312 Si02
#       7
#     8   8   8   8   8   8   8
#     4  11  22  43  69  99 136 175 232 288 344 417
#     4  11  24  45  68 102 137 179 233 283 354 429
#     4  12  24  46  72 105 142 185 236 290 356 423
#     4  11  24  46  67 100 137 184 234 288 350 423
#     4  12  25  42  70 103 140 181 233 295 350 417
#     4  11  23  43  73 102 136 184 234 289 353 420
#     4  12  27  45  69 102 143 183 230 295 359 424
#
# _framework density 20.134913000000001
#
# number of rings (size 3 to 8) (size 9 to 14) (size 15 to 20)
#    0.000    0.571    5.714    3.000    4.000    3.429 
#    0.000    7.143    0.000    0.000    0.000    0.000 
#    0.000    0.000    0.000    0.000    0.000    0.000 
#
# Total GULP energy -156206.916472 kJ/mol
# GULP energy per Si atom -5578.818445 kJ/mol
# Density = 2.008908 g / cm^3
# Si number density = 20.134913 Si / 1000 Ang^3
#
#
#
# Elastic Constant Matrix: (Units=GPa)
#
#
# Indices 1 2 3 4 5 6 
#
# 1 93.3751 33.5590 48.3574 0.0000 -16.5933 0.0000
# 2 33.5590 91.3965 43.0644 0.0000 -7.9025 0.0000
# 3 48.3574 43.0644 126.5194 0.0000 -18.8120 0.0000
# 4 0.0000 0.0000 0.0000 40.8934 0.0000 4.1177
# 5 -16.5933 -7.9025 -18.8120 0.0000 55.8971 0.0000
# 6 0.0000 0.0000 0.0000 4.1177 0.0000 18.6922
#
#
#
# Elastic Compliance Matrix: (Units=1/GPa)
#
#
# Indices 1 2 3 4 5 6 
#
# 1 0.014382 -0.003157 -0.004057 0.000000 0.002458 0.000000
# 2 -0.003157 0.013731 -0.003493 0.000000 -0.000171 0.000000
# 3 -0.004057 -0.003493 0.010938 0.000000 0.001983 0.000000
# 4 0.000000 0.000000 0.000000 0.025009 0.000000 -0.005509
# 5 0.002458 -0.000171 0.001983 0.000000 0.019263 0.000000
# 6 0.000000 0.000000 0.000000 -0.005509 0.000000 0.054712
#
#
# Mechanical properties :
#
#
# Convention : Reuss Voigt Hill
#
# Bulk Modulus (GPa) = 56.69411 62.36140 59.52775
# Shear Modulus (GPa) = 30.24306 35.51721 32.88014
#
# Velocity S-wave (km/s) = 3.87980 4.20451 4.04541
# Velocity P-wave (km/s) = 6.94900 7.38983 7.17280
#
# Compressibility (1/GPa) = 0.01763852
#
# Stress axis : x y z
#
# Youngs Moduli (GPa) = 69.53231 72.82617 91.42160
#
# Poissons Ratio (x) = 0.22988 0.37090
# Poissons Ratio (y) = 0.21949 0.31932
# Poissons Ratio (z) = 0.28210 0.25437
#
# Static dielectric constant tensor:
#      x y z
#    x 1.700430 0.000000 0.033430 
#    y 0.000000 1.665680 0.000000 
#    z 0.033430 0.000000 1.673290 
# 
# From -- ./inp_files/198199.got.cif
#   From: 2010.05.17/outbox.cif.g08.bks.cpg/sg15_100_cif.got.tgz:198199.got - 2010.06.03 18:47:42.
