data_PCOD9303952
_publ_section_title
;
Structure prediction by ZEFSAII (Michael W. Deem and Ramdas Pophale) SiO2 
 PCOD9303952
Probable space group: C 2/C
;
_chemical_formula_sum "Si O2"
_cell_formula_units_Z 48
_cell_length_a 23.659853
_cell_length_b 9.802763
_cell_length_c 13.430808
_cell_angle_alpha 90.000000
_cell_angle_beta 141.661033
_cell_angle_gamma 90.000000
_cell_volume 1932.294422
_symmetry_space_group_name_H-M "C 2/C"
_symmetry_group_IT_number 15
_symmetry_cell_setting 'monoclinic'
loop_
_space_group_symop_operation_xyz
x,y,z
-x,y,1/2-z
-x,-y,-z
x,-y,1/2+z
1/2+x,1/2+y,z
1/2-x,1/2+y,1/2-z
1/2-x,1/2-y,-z
1/2+x,1/2-y,1/2+z
loop_
_atom_site_type_symbol
_atom_site_label
_atom_site_fract_x
_atom_site_fract_y
_atom_site_fract_z
Si Si1 0.852190 0.971924 0.810540
Si Si2 0.885970 0.293602 0.873438
Si Si3 0.426490 0.197944 0.223753
Si Si4 0.143566 0.414638 0.457664
Si Si5 0.306678 0.596117 0.457815
Si Si6 0.409479 0.639610 0.192091
O O1 0.749500 0.941553 0.628792
O O2 0.857437 0.891455 0.921659
O O3 0.919206 0.921775 0.815987
O O4 0.863314 0.132698 0.849166
O O5 0.955739 0.310260 0.878700
O O6 0.903209 0.359362 0.004562
O O7 0.797465 0.372834 0.708930
O O8 0.500000 0.256410 0.250000
O O9 0.343793 0.302683 0.093051
O O10 0.397964 0.053155 0.140168
O O11 0.124088 0.294444 0.353119
O O12 0.329868 0.446695 0.528972
O O13 0.500000 0.623895 0.250000
#
# Coordination Sequence:
#
# PCOD9303952 Si02
#       6
#     8   8   8   8   8   8
#     4  11  23  42  70  94 126 171 215 266 312 373
#     4  11  23  43  69  93 129 167 215 272 310 368
#     4  12  25  42  67  95 132 172 208 259 328 382
#     4  11  25  44  65  96 130 166 218 263 314 377
#     4  11  23  41  66  94 122 169 221 255 310 378
#     4  12  25  41  65  98 132 167 209 263 321 379
#
# _framework density 24.840934000000001
#
# number of rings (size 3 to 8) (size 9 to 14) (size 15 to 20)
#    0.000    0.667    5.000    3.000    0.000    4.000 
#    0.000    0.000    0.000    0.000    0.000    0.000 
#    0.000    0.000    0.000    0.000    0.000    0.000 
#
# Total GULP energy -134454.481214 kJ/mol
# GULP energy per Si atom -5602.270051 kJ/mol
# Density = 2.478440 g / cm^3
# Si number density = 24.840934 Si / 1000 Ang^3
#
#
#
# Elastic Constant Matrix: (Units=GPa)
#
#
# Indices 1 2 3 4 5 6 
#
# 1 145.4366 -5.7238 8.3858 0.0000 -29.3871 0.0000
# 2 -5.7238 54.2340 30.8143 0.0000 10.6959 0.0000
# 3 8.3858 30.8143 57.9851 0.0000 -8.1089 0.0000
# 4 0.0000 0.0000 0.0000 23.0659 0.0000 -12.1465
# 5 -29.3871 10.6959 -8.1089 0.0000 42.4579 0.0000
# 6 0.0000 0.0000 0.0000 -12.1465 0.0000 29.7841
#
#
#
# Elastic Compliance Matrix: (Units=1/GPa)
#
#
# Indices 1 2 3 4 5 6 
#
# 1 0.008003 -0.000016 -0.000384 0.000000 0.005470 0.000000
# 2 -0.000016 0.030855 -0.017963 0.000000 -0.011214 0.000000
# 3 -0.000384 -0.017963 0.028196 0.000000 0.009644 0.000000
# 4 0.000000 0.000000 0.000000 0.055211 0.000000 0.022516
# 5 0.005470 -0.011214 0.009644 0.000000 0.032006 0.000000
# 6 0.000000 0.000000 0.000000 0.022516 0.000000 0.042757
#
#
# Mechanical properties :
#
#
# Convention : Reuss Voigt Hill
#
# Bulk Modulus (GPa) = 32.97317 36.06760 34.52038
# Shear Modulus (GPa) = 20.50349 34.00689 27.25519
#
# Velocity S-wave (km/s) = 2.87608 3.70399 3.31598
# Velocity P-wave (km/s) = 4.93271 5.73094 5.34674
#
# Compressibility (1/GPa) = 0.03032769
#
# Stress axis : x y z
#
# Youngs Moduli (GPa) = 124.96008 32.41016 35.46643
#
# Poissons Ratio (x) = 0.00052 0.01362
# Poissons Ratio (y) = 0.00200 0.63707
# Poissons Ratio (z) = 0.04798 0.58217
#
# Static dielectric constant tensor:
#      x y z
#    x 2.085040 0.000000 0.030220 
#    y 0.000000 1.891110 0.000000 
#    z 0.030220 0.000000 1.954680 
# 
# From -- ./inp_files/176854.got.cif
#   From: 2010.05.17/outbox.cif.g08.bks.cpg/sg15_89_cif.got.tgz:176854.got - 2010.06.03 18:47:42.
