data_PCOD9303474
_publ_section_title
;
Structure prediction by ZEFSAII (Michael W. Deem and Ramdas Pophale) SiO2 
 PCOD9303474
Probable space group: C 2/C
;
_chemical_formula_sum "Si O2"
_cell_formula_units_Z 32
_cell_length_a 23.245694
_cell_length_b 8.355914
_cell_length_c 14.658791
_cell_angle_alpha 90.000000
_cell_angle_beta 153.207799
_cell_angle_gamma 90.000000
_cell_volume 1283.441816
_symmetry_space_group_name_H-M "C 2/C"
_symmetry_group_IT_number 15
_symmetry_cell_setting 'monoclinic'
loop_
_space_group_symop_operation_xyz
x,y,z
-x,y,1/2-z
-x,-y,-z
x,-y,1/2+z
1/2+x,1/2+y,z
1/2-x,1/2+y,1/2-z
1/2-x,1/2-y,-z
1/2+x,1/2-y,1/2+z
loop_
_atom_site_type_symbol
_atom_site_label
_atom_site_fract_x
_atom_site_fract_y
_atom_site_fract_z
Si Si1 0.695264 0.479360 0.482239
Si Si2 0.544241 0.847137 0.718141
Si Si3 0.650010 0.520961 0.224660
Si Si4 0.766359 0.321607 0.252983
O O1 0.603304 0.325384 0.334506
O O2 0.841144 0.431028 0.671033
O O3 0.664740 0.580264 0.348533
O O4 0.691294 0.571623 0.571964
O O5 0.500000 0.928544 0.750000
O O6 0.418907 0.844293 0.478506
O O7 0.707740 0.352540 0.270176
O O8 0.733660 0.640613 0.281827
O O9 0.500000 0.500000 0.000000
#
# Coordination Sequence:
#
# PCOD9303474 Si02
#       4
#     8   8   8   8
#     4  11  25  43  72 108 148 193 251 310 372 451
#     4  11  22  44  73 105 143 197 251 305 379 447
#     4  12  27  48  72 111 151 194 256 312 375 455
#     4  12  26  46  76 105 148 200 244 313 382 441
#
# _framework density 24.932956000000001
#
# number of rings (size 3 to 8) (size 9 to 14) (size 15 to 20)
#    0.000    0.500    5.000    3.000    3.500    2.000 
#    0.000    0.000    0.000    0.000    0.000    0.000 
#    0.000    0.000    0.000    0.000    0.000    0.000 
#
# Total GULP energy -89370.929944 kJ/mol
# GULP energy per Si atom -5585.683121 kJ/mol
# Density = 2.487621 g / cm^3
# Si number density = 24.932956 Si / 1000 Ang^3
#
#
#
# Elastic Constant Matrix: (Units=GPa)
#
#
# Indices 1 2 3 4 5 6 
#
# 1 86.8496 15.2904 10.5499 0.0000 -11.0615 0.0000
# 2 15.2904 38.7265 21.3948 0.0000 -12.5890 0.0000
# 3 10.5499 21.3948 133.9689 0.0000 -9.0583 0.0000
# 4 0.0000 0.0000 0.0000 28.9408 0.0000 -9.7514
# 5 -11.0615 -12.5890 -9.0583 0.0000 64.0065 0.0000
# 6 0.0000 0.0000 0.0000 -9.7514 0.0000 38.7112
#
#
#
# Elastic Compliance Matrix: (Units=1/GPa)
#
#
# Indices 1 2 3 4 5 6 
#
# 1 0.012474 -0.004409 -0.000193 0.000000 0.001261 0.000000
# 2 -0.004409 0.031542 -0.004364 0.000000 0.004824 0.000000
# 3 -0.000193 -0.004364 0.008195 0.000000 0.000268 0.000000
# 4 0.000000 0.000000 0.000000 0.037758 0.000000 0.009511
# 5 0.001261 0.004824 0.000268 0.000000 0.016828 0.000000
# 6 0.000000 0.000000 0.000000 0.009511 0.000000 0.028228
#
#
# Mechanical properties :
#
#
# Convention : Reuss Voigt Hill
#
# Bulk Modulus (GPa) = 29.17152 39.33500 34.25326
# Shear Modulus (GPa) = 30.41677 40.48569 35.45123
#
# Velocity S-wave (km/s) = 3.49656 4.03399 3.77485
# Velocity P-wave (km/s) = 5.29402 6.12438 5.72427
#
# Compressibility (1/GPa) = 0.03428001
#
# Stress axis : x y z
#
# Youngs Moduli (GPa) = 80.16412 31.70393 122.03082
#
# Poissons Ratio (x) = 0.13977 0.02355
# Poissons Ratio (y) = 0.35341 0.53252
# Poissons Ratio (z) = 0.01547 0.13835
#
# Static dielectric constant tensor:
#      x y z
#    x 2.002740 0.000000 -0.070950 
#    y 0.000000 2.112530 0.000000 
#    z -0.070950 0.000000 1.948070 
# 
# From -- ./inp_files/93447.got.cif
#   From: 2010.05.17/outbox.cif.g08.bks.cpg/sg15_47_cif.got.tgz:93447.got - 2010.06.03 18:47:42.
