data_PCOD9303832
_publ_section_title
;
Structure prediction by ZEFSAII (Michael W. Deem and Ramdas Pophale) SiO2 
 PCOD9303832
Probable space group: C 2/C
;
_chemical_formula_sum "Si O2"
_cell_formula_units_Z 44
_cell_length_a 17.264131
_cell_length_b 15.240303
_cell_length_c 8.098854
_cell_angle_alpha 90.000000
_cell_angle_beta 61.017165
_cell_angle_gamma 90.000000
_cell_volume 1864.031503
_symmetry_space_group_name_H-M "C 2/C"
_symmetry_group_IT_number 15
_symmetry_cell_setting 'monoclinic'
loop_
_space_group_symop_operation_xyz
x,y,z
-x,y,1/2-z
-x,-y,-z
x,-y,1/2+z
1/2+x,1/2+y,z
1/2-x,1/2+y,1/2-z
1/2-x,1/2-y,-z
1/2+x,1/2-y,1/2+z
loop_
_atom_site_type_symbol
_atom_site_label
_atom_site_fract_x
_atom_site_fract_y
_atom_site_fract_z
Si Si1 0.901576 0.342437 0.886281
Si Si2 0.500000 0.654266 0.250000
Si Si3 0.134794 0.995388 0.703010
Si Si4 0.720068 0.219601 0.716818
Si Si5 0.904730 0.826121 0.154205
Si Si6 0.255442 0.410228 0.670376
O O1 0.905403 0.244337 0.799050
O O2 0.832536 0.399303 0.847180
O O3 0.000000 0.377688 0.750000
O O4 0.864552 0.330624 0.113177
O O5 0.420657 0.591775 0.271912
O O6 0.463870 0.708343 0.441969
O O7 0.072516 0.071822 0.843633
O O8 0.163976 0.045701 0.509236
O O9 0.230963 0.966006 0.677430
O O10 0.750000 0.250000 0.500000
O O11 0.803777 0.166183 0.697831
O O12 0.721168 0.311325 0.810038
#
# Coordination Sequence:
#
# PCOD9303832 Si02
#       6
#     8   4   8   8   8   8
#     4  11  25  45  72  96 138 185 244 290 335 408
#     4  12  26  36  66 118 136 182 224 284 362 428
#     4  12  23  40  67  96 150 179 223 278 355 434
#     4  11  23  43  70  97 137 186 236 287 349 412
#     4  11  23  40  63 100 140 179 222 287 353 409
#     4  11  24  44  65 100 135 193 223 281 359 411
#
# _framework density 23.604751
#
# number of rings (size 3 to 8) (size 9 to 14) (size 15 to 20)
#    0.000    0.727    5.455    2.727    6.364    0.000 
#    0.000    0.909    0.000    0.000    0.000    0.000 
#    0.000    0.000    0.000    0.000    0.000    0.000 
#
# Total GULP energy -122565.385377 kJ/mol
# GULP energy per Si atom -5571.153881 kJ/mol
# Density = 2.355103 g / cm^3
# Si number density = 23.604751 Si / 1000 Ang^3
#
#
#
# Elastic Constant Matrix: (Units=GPa)
#
#
# Indices 1 2 3 4 5 6 
#
# 1 100.9737 7.9237 27.0470 0.0000 -17.7708 0.0000
# 2 7.9237 43.5634 -4.3014 0.0000 -4.6024 0.0000
# 3 27.0470 -4.3014 152.8479 0.0000 -14.8842 0.0000
# 4 0.0000 0.0000 0.0000 34.0545 0.0000 -3.4184
# 5 -17.7708 -4.6024 -14.8842 0.0000 26.3136 0.0000
# 6 0.0000 0.0000 0.0000 -3.4184 0.0000 20.1355
#
#
#
# Elastic Compliance Matrix: (Units=1/GPa)
#
#
# Indices 1 2 3 4 5 6 
#
# 1 0.011597 -0.001538 -0.001438 0.000000 0.006750 0.000000
# 2 -0.001538 0.023773 0.001318 0.000000 0.003864 0.000000
# 3 -0.001438 0.001318 0.007156 0.000000 0.003307 0.000000
# 4 0.000000 0.000000 0.000000 0.029874 0.000000 0.005072
# 5 0.006750 0.003864 0.003307 0.000000 0.045108 0.000000
# 6 0.000000 0.000000 0.000000 0.005072 0.000000 0.050525
#
#
# Mechanical properties :
#
#
# Convention : Reuss Voigt Hill
#
# Bulk Modulus (GPa) = 25.50458 39.85818 32.68138
# Shear Modulus (GPa) = 27.11191 33.88177 30.49684
#
# Velocity S-wave (km/s) = 3.39275 3.79275 3.59831
# Velocity P-wave (km/s) = 5.11624 6.00852 5.58024
#
# Compressibility (1/GPa) = 0.03920864
#
# Stress axis : x y z
#
# Youngs Moduli (GPa) = 86.22591 42.06415 139.74181
#
# Poissons Ratio (x) = 0.06471 0.20098
# Poissons Ratio (y) = 0.13265 -0.18412
# Poissons Ratio (z) = 0.12401 -0.05542
#
# Static dielectric constant tensor:
#      x y z
#    x 2.047900 0.000000 0.175530 
#    y 0.000000 1.901820 0.000000 
#    z 0.175530 0.000000 2.197050 
# 
# From -- ./inp_files/48882.got.cif
#   From: 2010.05.17/outbox.cif.g08.bks.cpg/sg15_25_cif.got.tgz:48882.got - 2010.06.03 18:47:42.
