data_PCOD9303778
_publ_section_title
;
Structure prediction by ZEFSAII (Michael W. Deem and Ramdas Pophale) SiO2 
 PCOD9303778
Probable space group: C 2/C
;
_chemical_formula_sum "Si O2"
_cell_formula_units_Z 48
_cell_length_a 4.946710
_cell_length_b 17.374118
_cell_length_c 25.109931
_cell_angle_alpha 90.000000
_cell_angle_beta 65.998743
_cell_angle_gamma 90.000000
_cell_volume 1971.472199
_symmetry_space_group_name_H-M "C 2/C"
_symmetry_group_IT_number 15
_symmetry_cell_setting 'monoclinic'
loop_
_space_group_symop_operation_xyz
x,y,z
-x,y,1/2-z
-x,-y,-z
x,-y,1/2+z
1/2+x,1/2+y,z
1/2-x,1/2+y,1/2-z
1/2-x,1/2-y,-z
1/2+x,1/2-y,1/2+z
loop_
_atom_site_type_symbol
_atom_site_label
_atom_site_fract_x
_atom_site_fract_y
_atom_site_fract_z
Si Si1 0.183662 0.938734 0.287798
Si Si2 0.876771 0.423265 0.849539
Si Si3 0.054065 0.830811 0.387037
Si Si4 0.305115 0.672926 0.368722
Si Si5 0.275233 0.960936 0.449356
Si Si6 0.527890 0.821379 0.003152
O O1 0.500000 0.899989 0.250000
O O2 0.000000 0.957802 0.250000
O O3 0.992009 0.880723 0.339390
O O4 0.284968 0.014503 0.312399
O O5 0.609674 0.361636 0.866832
O O6 0.909499 0.474984 0.900271
O O7 0.177705 0.374304 0.828515
O O8 0.769007 0.799767 0.441533
O O9 0.287043 0.763169 0.357347
O O10 0.185107 0.892748 0.416846
O O11 0.075547 0.667713 0.436665
O O12 0.441242 0.910440 0.479726
O O13 0.000000 0.000000 0.500000
O O14 0.750000 0.750000 0.000000
#
# Coordination Sequence:
#
# PCOD9303778 Si02
#       6
#     8   8   8   8   8   8
#     4  11  27  52  76 100 133 180 243 310 367 417
#     4  11  26  43  71 101 138 181 234 297 350 423
#     4  11  27  42  71 101 145 190 241 290 355 433
#     4  12  24  44  68 107 149 185 226 281 359 435
#     4  11  23  39  63 101 144 193 237 271 342 426
#     4  12  24  40  67 105 158 195 231 280 355 440
#
# _framework density 24.347287999999999
#
# number of rings (size 3 to 8) (size 9 to 14) (size 15 to 20)
#    0.000    0.667    3.333    3.500    9.333    1.333 
#    0.000    5.000    0.000    0.000    0.000    0.000 
#    0.000    0.000    0.000    0.000    0.000    0.000 
#
# Total GULP energy -134017.355418 kJ/mol
# GULP energy per Si atom -5584.056476 kJ/mol
# Density = 2.429187 g / cm^3
# Si number density = 24.347288 Si / 1000 Ang^3
#
#
#
# Elastic Constant Matrix: (Units=GPa)
#
#
# Indices 1 2 3 4 5 6 
#
# 1 72.3880 21.4413 -4.9018 0.0000 7.4920 0.0000
# 2 21.4413 114.5109 0.1275 0.0000 12.3631 0.0000
# 3 -4.9018 0.1275 53.4578 0.0000 21.8300 0.0000
# 4 0.0000 0.0000 0.0000 20.2945 0.0000 -0.0670
# 5 7.4920 12.3631 21.8300 0.0000 41.6762 0.0000
# 6 0.0000 0.0000 0.0000 -0.0670 0.0000 57.7433
#
#
#
# Elastic Compliance Matrix: (Units=1/GPa)
#
#
# Indices 1 2 3 4 5 6 
#
# 1 0.015088 -0.002456 0.002798 0.000000 -0.003449 0.000000
# 2 -0.002456 0.009500 0.000919 0.000000 -0.002858 0.000000
# 3 0.002798 0.000919 0.024523 0.000000 -0.013621 0.000000
# 4 0.000000 0.000000 0.000000 0.049275 0.000000 0.000057
# 5 -0.003449 -0.002858 -0.013621 0.000000 0.032597 0.000000
# 6 0.000000 0.000000 0.000000 0.000057 0.000000 0.017318
#
#
# Mechanical properties :
#
#
# Convention : Reuss Voigt Hill
#
# Bulk Modulus (GPa) = 19.36693 30.41008 24.88850
# Shear Modulus (GPa) = 30.67676 38.85545 34.76610
#
# Velocity S-wave (km/s) = 3.55345 3.99919 3.78289
# Velocity P-wave (km/s) = 4.98074 5.81738 5.41524
#
# Compressibility (1/GPa) = 0.05163441
#
# Stress axis : x y z
#
# Youngs Moduli (GPa) = 66.27630 105.26090 40.77818
#
# Poissons Ratio (x) = 0.25851 -0.11410
# Poissons Ratio (y) = 0.16277 -0.03749
# Poissons Ratio (z) = -0.18544 -0.09677
#
# Static dielectric constant tensor:
#      x y z
#    x 2.058550 0.000000 0.055680 
#    y 0.000000 2.105150 0.000000 
#    z 0.055680 0.000000 2.040890 
# 
# From -- ./inp_files/260854.got.cif
#   From: 2010.05.17/outbox.cif.g08.bks.cpg/sg15_131_cif.got.tgz:260854.got - 2010.06.03 18:47:42.
