data_PCOD9303724
_publ_section_title
;
Structure prediction by ZEFSAII (Michael W. Deem and Ramdas Pophale) SiO2 
 PCOD9303724
Probable space group: C 2/C
;
_chemical_formula_sum "Si O2"
_cell_formula_units_Z 64
_cell_length_a 29.235258
_cell_length_b 14.406593
_cell_length_c 9.276524
_cell_angle_alpha 90.000000
_cell_angle_beta 99.836664
_cell_angle_gamma 90.000000
_cell_volume 3849.651670
_symmetry_space_group_name_H-M "C 2/C"
_symmetry_group_IT_number 15
_symmetry_cell_setting 'monoclinic'
loop_
_space_group_symop_operation_xyz
x,y,z
-x,y,1/2-z
-x,-y,-z
x,-y,1/2+z
1/2+x,1/2+y,z
1/2-x,1/2+y,1/2-z
1/2-x,1/2-y,-z
1/2+x,1/2-y,1/2+z
loop_
_atom_site_type_symbol
_atom_site_label
_atom_site_fract_x
_atom_site_fract_y
_atom_site_fract_z
Si Si1 0.364963 0.169908 0.758947
Si Si2 0.048543 0.597730 0.199432
Si Si3 0.254012 0.493409 0.675009
Si Si4 0.049049 0.603355 0.848806
Si Si5 0.308881 0.997678 0.607506
Si Si6 0.715368 0.702365 0.868831
Si Si7 0.773868 0.210053 0.153446
Si Si8 0.131744 0.314918 0.900652
O O1 0.409976 0.172011 0.680314
O O2 0.323132 0.242245 0.712581
O O3 0.340304 0.073594 0.701178
O O4 0.379097 0.175594 0.934750
O O5 0.059360 0.496572 0.277152
O O6 0.087441 0.668731 0.276408
O O7 0.000000 0.623376 0.250000
O O8 0.046278 0.592961 0.022465
O O9 0.239641 0.495389 0.833786
O O10 0.205498 0.478606 0.562747
O O11 0.274584 0.593142 0.644403
O O12 0.281606 0.400097 0.658065
O O13 0.000000 0.631533 0.750000
O O14 0.333896 0.899919 0.617609
O O15 0.733702 0.758231 0.741530
O O16 0.662695 0.724810 0.883525
O O17 0.750000 0.750000 0.000000
O O18 0.750000 0.250000 0.000000
#
# Coordination Sequence:
#
# PCOD9303724 Si02
#       8
#     8   8   8   8   8   8   8   8
#     4  12  23  36  52  82 111 152 192 233 284 337
#     4  11  23  38  58  83 110 146 187 236 286 346
#     4  12  22  36  52  76 112 156 196 238 272 329
#     4  11  23  38  58  82 113 143 187 236 288 345
#     4  12  20  32  53  74 108 150 191 226 271 325
#     4  12  21  38  53  77 111 157 197 230 280 339
#     4  12  23  34  53  81 115 149 197 240 284 334
#     4  12  23  35  56  77 112 152 196 228 282 342
#
# _framework density 16.624881999999999
#
# number of rings (size 3 to 8) (size 9 to 14) (size 15 to 20)
#    0.000    0.250    8.750    3.000    3.500    0.000 
#    0.000    0.000    0.000    0.000    0.000    0.875 
#    0.000    4.000    0.000    0.000    0.000    0.000 
#
# Total GULP energy -178433.097936 kJ/mol
# GULP energy per Si atom -5576.034311 kJ/mol
# Density = 1.658704 g / cm^3
# Si number density = 16.624882 Si / 1000 Ang^3
#
#
#
# Elastic Constant Matrix: (Units=GPa)
#
#
# Indices 1 2 3 4 5 6 
#
# 1 86.0807 23.7669 25.8727 0.0000 -1.8005 0.0000
# 2 23.7669 81.3912 19.7326 0.0000 -7.2975 0.0000
# 3 25.8727 19.7326 106.6608 0.0000 -4.6304 0.0000
# 4 0.0000 0.0000 0.0000 13.9840 0.0000 -1.0027
# 5 -1.8005 -7.2975 -4.6304 0.0000 26.5690 0.0000
# 6 0.0000 0.0000 0.0000 -1.0027 0.0000 24.5601
#
#
#
# Elastic Compliance Matrix: (Units=1/GPa)
#
#
# Indices 1 2 3 4 5 6 
#
# 1 0.013309 -0.003287 -0.002640 0.000000 -0.000461 0.000000
# 2 -0.003287 0.013941 -0.001638 0.000000 0.003321 0.000000
# 3 -0.002640 -0.001638 0.010370 0.000000 0.001179 0.000000
# 4 0.000000 0.000000 0.000000 0.071720 0.000000 0.002928
# 5 -0.000461 0.003321 0.001179 0.000000 0.038724 0.000000
# 6 0.000000 0.000000 0.000000 0.002928 0.000000 0.040836
#
#
# Mechanical properties :
#
#
# Convention : Reuss Voigt Hill
#
# Bulk Modulus (GPa) = 44.46529 45.87523 45.17026
# Shear Modulus (GPa) = 23.63767 26.67332 25.15549
#
# Velocity S-wave (km/s) = 3.77480 4.00987 3.89411
# Velocity P-wave (km/s) = 6.76780 7.00664 6.88825
#
# Compressibility (1/GPa) = 0.02248945
#
# Stress axis : x y z
#
# Youngs Moduli (GPa) = 75.13963 71.73053 96.43166
#
# Poissons Ratio (x) = 0.23581 0.25459
# Poissons Ratio (y) = 0.24702 0.15791
# Poissons Ratio (z) = 0.19837 0.11746
#
# Static dielectric constant tensor:
#      x y z
#    x 1.588340 0.000000 0.004060 
#    y 0.000000 1.450210 0.000000 
#    z 0.004060 0.000000 1.557190 
# 
# From -- ./inp_files/66237.got.cif
#   From: 2010.05.17/outbox.cif.g08.bks.cpg/sg15_34_cif.got.tgz:66237.got - 2010.06.03 18:47:42.
