data_PCOD9303146
_publ_section_title
;
Structure prediction by ZEFSAII (Michael W. Deem and Ramdas Pophale) SiO2 
 PCOD9303146
Probable space group: C 2/C
;
_chemical_formula_sum "Si O2"
_cell_formula_units_Z 56
_cell_length_a 8.187454
_cell_length_b 26.092716
_cell_length_c 16.975340
_cell_angle_alpha 90.000000
_cell_angle_beta 136.451164
_cell_angle_gamma 90.000000
_cell_volume 2498.553143
_symmetry_space_group_name_H-M "C 2/C"
_symmetry_group_IT_number 15
_symmetry_cell_setting 'monoclinic'
loop_
_space_group_symop_operation_xyz
x,y,z
-x,y,1/2-z
-x,-y,-z
x,-y,1/2+z
1/2+x,1/2+y,z
1/2-x,1/2+y,1/2-z
1/2-x,1/2-y,-z
1/2+x,1/2-y,1/2+z
loop_
_atom_site_type_symbol
_atom_site_label
_atom_site_fract_x
_atom_site_fract_y
_atom_site_fract_z
Si Si1 0.775789 0.610395 0.855698
Si Si2 0.867261 0.317729 0.090904
Si Si3 0.257488 0.008345 0.309396
Si Si4 0.378934 0.536720 0.895707
Si Si5 0.500000 0.877168 0.250000
Si Si6 0.854317 0.404843 0.544484
Si Si7 0.500000 0.844588 0.750000
Si Si8 0.534501 0.297243 0.667292
O O1 0.500000 0.622296 0.750000
O O2 0.806931 0.549078 0.858742
O O3 0.925436 0.637908 0.839146
O O4 0.879618 0.629752 0.975000
O O5 0.794417 0.330874 0.153483
O O6 0.981010 0.262008 0.126790
O O7 0.669027 0.325649 0.955760
O O8 0.454463 0.049863 0.394816
O O9 0.000000 0.025007 0.250000
O O10 0.229479 0.000384 0.207266
O O11 0.181565 0.577060 0.848490
O O12 0.500000 0.500000 0.000000
O O13 0.597550 0.570369 0.940673
O O14 0.882949 0.377991 0.638537
O O15 0.289742 0.813886 0.721765
O O16 0.500000 0.305153 0.750000
#
# Coordination Sequence:
#
# PCOD9303146 Si02
#       8
#     8   8   8   8   4   8   4   8
#     4  11  22  42  68 103 138 192 242 300 368 435
#     4  11  24  44  76 103 142 188 246 308 367 449
#     4  11  23  41  63  98 139 192 239 293 356 428
#     4  12  24  38  63  97 138 185 240 290 349 430
#     4  12  22  43  68  98 142 190 237 310 362 430
#     4  12  24  43  64  98 142 184 241 288 360 441
#     4  12  28  49  72 110 148 192 239 306 374 442
#     4  11  26  51  74 112 145 188 246 311 382 439
#
# _framework density 22.412970000000001
#
# number of rings (size 3 to 8) (size 9 to 14) (size 15 to 20)
#    0.000    0.571    5.000    3.857    1.000    1.714 
#    0.000    3.571    0.000    0.000    0.000    0.000 
#    0.000    0.000    0.000    0.000    0.000    0.000 
#
# Total GULP energy -156024.834568 kJ/mol
# GULP energy per Si atom -5572.315520 kJ/mol
# Density = 2.236196 g / cm^3
# Si number density = 22.412970 Si / 1000 Ang^3
#
#
#
# Elastic Constant Matrix: (Units=GPa)
#
#
# Indices 1 2 3 4 5 6 
#
# 1 127.2917 36.2257 55.7478 0.0000 11.8869 -0.0001
# 2 36.2257 56.2314 40.9951 0.0000 16.4474 0.0000
# 3 55.7478 40.9951 160.8375 0.0002 -14.9509 -0.0002
# 4 0.0000 0.0000 0.0002 42.1949 0.0001 -11.2031
# 5 11.8869 16.4474 -14.9509 0.0001 44.0783 -0.0001
# 6 -0.0001 0.0000 -0.0002 -11.2031 -0.0001 47.6772
#
#
#
# Elastic Compliance Matrix: (Units=1/GPa)
#
#
# Indices 1 2 3 4 5 6 
#
# 1 0.010440 -0.004017 -0.002805 0.000000 -0.002268 0.000000
# 2 -0.004017 0.029194 -0.007187 0.000000 -0.012248 0.000000
# 3 -0.002805 -0.007187 0.009646 0.000000 0.006710 0.000000
# 4 0.000000 0.000000 0.000000 0.025277 0.000000 0.005939
# 5 -0.002268 -0.012248 0.006710 0.000000 0.030145 0.000000
# 6 0.000000 0.000000 0.000000 0.005939 0.000000 0.022370
#
#
# Mechanical properties :
#
#
# Convention : Reuss Voigt Hill
#
# Bulk Modulus (GPa) = 47.03723 67.81085 57.42404
# Shear Modulus (GPa) = 30.83075 40.88288 35.85681
#
# Velocity S-wave (km/s) = 3.71290 4.27555 4.00412
# Velocity P-wave (km/s) = 6.27798 7.39558 6.85958
#
# Compressibility (1/GPa) = 0.02125975
#
# Stress axis : x y z
#
# Youngs Moduli (GPa) = 95.78959 34.25399 103.67459
#
# Poissons Ratio (x) = 0.13759 0.29086
# Poissons Ratio (y) = 0.38476 0.74515
# Poissons Ratio (z) = 0.26874 0.24620
#
# Static dielectric constant tensor:
#      x y z
#    x 1.709470 0.000000 0.073310 
#    y 0.000000 1.831710 0.000000 
#    z 0.073310 0.000000 1.773590 
# 
# From -- ./inp_files/193935.got.cif
#   From: 2010.05.17/outbox.cif.g08.bks.cpg/sg15_97_cif.got.tgz:193935.got - 2010.06.03 18:47:42.
