data_PCOD9303185
_publ_section_title
;
Structure prediction by ZEFSAII (Michael W. Deem and Ramdas Pophale) SiO2 
 PCOD9303185
Probable space group: C 2/C
;
_chemical_formula_sum "Si O2"
_cell_formula_units_Z 56
_cell_length_a 9.152557
_cell_length_b 25.144120
_cell_length_c 18.682466
_cell_angle_alpha 90.000000
_cell_angle_beta 141.498354
_cell_angle_gamma 90.000000
_cell_volume 2676.568331
_symmetry_space_group_name_H-M "C 2/C"
_symmetry_group_IT_number 15
_symmetry_cell_setting 'monoclinic'
loop_
_space_group_symop_operation_xyz
x,y,z
-x,y,1/2-z
-x,-y,-z
x,-y,1/2+z
1/2+x,1/2+y,z
1/2-x,1/2+y,1/2-z
1/2-x,1/2-y,-z
1/2+x,1/2-y,1/2+z
loop_
_atom_site_type_symbol
_atom_site_label
_atom_site_fract_x
_atom_site_fract_y
_atom_site_fract_z
Si Si1 0.835012 0.895210 0.008442
Si Si2 0.851184 0.700490 0.994240
Si Si3 0.173924 0.772188 0.751834
Si Si4 0.447648 0.165954 0.870712
Si Si5 0.303957 0.938116 0.238197
Si Si6 0.630465 0.058679 0.222383
Si Si7 0.005830 0.858375 0.585170
O O1 0.044860 0.935143 0.104856
O O2 0.824644 0.847765 0.060160
O O3 0.573644 0.918927 0.906606
O O4 0.899058 0.868681 0.957430
O O5 0.094897 0.699222 0.130147
O O6 0.750000 0.750000 0.000000
O O7 0.901211 0.694842 0.929116
O O8 0.104155 0.804027 0.654633
O O9 0.000000 0.781756 0.750000
O O10 0.147207 0.709703 0.722732
O O11 0.330778 0.109517 0.805403
O O12 0.725548 0.150476 0.975450
O O13 0.500000 0.930541 0.250000
O O14 0.329324 0.997042 0.279133
O O15 0.500000 0.059956 0.250000
O O16 0.868109 0.093901 0.320732
#
# Coordination Sequence:
#
# PCOD9303185 Si02
#       7
#     8   8   8   8   8   8   8
#     4  11  23  42  68  99 136 177 228 279 339 397
#     4  12  27  44  66  96 140 179 219 283 342 408
#     4  12  25  42  67  99 133 176 225 278 345 408
#     4  12  26  42  70 101 136 177 231 276 342 409
#     4  11  23  41  70 103 139 177 229 286 336 399
#     4   9  22  39  68 103 135 177 229 282 337 398
#     4  11  22  42  69  99 131 178 231 277 332 410
#
# _framework density 20.922312000000002
#
# number of rings (size 3 to 8) (size 9 to 14) (size 15 to 20)
#    0.000    0.857    4.286    2.571    4.000    5.143 
#    0.000    0.714    6.286    0.000    0.000    0.000 
#    0.000    0.000    0.000    0.000    0.000    0.000 
#
# Total GULP energy -156032.700350 kJ/mol
# GULP energy per Si atom -5572.596441 kJ/mol
# Density = 2.087469 g / cm^3
# Si number density = 20.922312 Si / 1000 Ang^3
#
#
#
# Elastic Constant Matrix: (Units=GPa)
#
#
# Indices 1 2 3 4 5 6 
#
# 1 64.0498 33.1697 32.9764 -0.0001 5.5281 -0.0002
# 2 33.1697 129.7360 19.9571 0.0006 7.3712 0.0007
# 3 32.9764 19.9571 70.2208 -0.0044 11.1337 -0.0050
# 4 -0.0001 0.0006 -0.0044 59.6764 -0.0016 37.6189
# 5 5.5281 7.3712 11.1337 -0.0016 21.3314 -0.0018
# 6 -0.0002 0.0007 -0.0050 37.6189 -0.0018 62.6857
#
#
#
# Elastic Compliance Matrix: (Units=1/GPa)
#
#
# Indices 1 2 3 4 5 6 
#
# 1 0.022735 -0.004381 -0.009525 0.000000 0.000594 0.000000
# 2 -0.004381 0.008964 -0.000195 0.000000 -0.001860 0.000000
# 3 -0.009525 -0.000195 0.020025 0.000001 -0.007916 0.000001
# 4 0.000000 0.000000 0.000001 0.026954 0.000000 -0.016175
# 5 0.000594 -0.001860 -0.007916 0.000000 0.051500 0.000001
# 6 0.000000 0.000000 0.000001 -0.016175 0.000001 0.025660
#
#
# Mechanical properties :
#
#
# Convention : Reuss Voigt Hill
#
# Bulk Modulus (GPa) = 42.51780 48.46809 45.49294
# Shear Modulus (GPa) = 26.05805 40.59893 33.32849
#
# Velocity S-wave (km/s) = 3.53295 4.40985 3.99553
# Velocity P-wave (km/s) = 6.08343 7.01035 6.56328
#
# Compressibility (1/GPa) = 0.02351956
#
# Stress axis : x y z
#
# Youngs Moduli (GPa) = 43.98575 111.55998 49.93873
#
# Poissons Ratio (x) = 0.48875 0.47569
# Poissons Ratio (y) = 0.19270 0.00975
# Poissons Ratio (z) = 0.41898 0.02178
#
# Static dielectric constant tensor:
#      x y z
#    x 1.704380 0.000000 0.082670 
#    y 0.000000 1.784260 0.000000 
#    z 0.082670 0.000000 1.685640 
# 
# From -- ./inp_files/193892.got.cif
#   From: 2010.05.17/outbox.cif.g08.bks.cpg/sg15_97_cif.got.tgz:193892.got - 2010.06.03 18:47:42.
