data_PCOD9303322
_publ_section_title
;
Structure prediction by ZEFSAII (Michael W. Deem and Ramdas Pophale) SiO2 
 PCOD9303322
Probable space group: C 2/C
;
_chemical_formula_sum "Si O2"
_cell_formula_units_Z 48
_cell_length_a 9.578990
_cell_length_b 18.560923
_cell_length_c 13.517769
_cell_angle_alpha 90.000000
_cell_angle_beta 81.528507
_cell_angle_gamma 90.000000
_cell_volume 2377.167617
_symmetry_space_group_name_H-M "C 2/C"
_symmetry_group_IT_number 15
_symmetry_cell_setting 'monoclinic'
loop_
_space_group_symop_operation_xyz
x,y,z
-x,y,1/2-z
-x,-y,-z
x,-y,1/2+z
1/2+x,1/2+y,z
1/2-x,1/2+y,1/2-z
1/2-x,1/2-y,-z
1/2+x,1/2-y,1/2+z
loop_
_atom_site_type_symbol
_atom_site_label
_atom_site_fract_x
_atom_site_fract_y
_atom_site_fract_z
Si Si1 0.350952 0.418066 0.240987
Si Si2 0.193835 0.855378 0.682430
Si Si3 0.071465 0.392720 0.974929
Si Si4 0.225901 0.545102 0.967774
Si Si5 0.575247 0.432624 0.875881
Si Si6 0.631835 0.187540 0.665007
O O1 0.500000 0.381803 0.250000
O O2 0.268548 0.442507 0.349126
O O3 0.394674 0.489553 0.175739
O O4 0.256958 0.363179 0.189765
O O5 0.352539 0.870810 0.633702
O O6 0.163486 0.877954 0.797734
O O7 0.161323 0.772043 0.669759
O O8 0.084132 0.903892 0.626741
O O9 0.153958 0.467040 0.994035
O O10 0.101453 0.334580 0.056101
O O11 0.904638 0.403934 0.988803
O O12 0.362159 0.561419 0.021160
O O13 0.500000 0.170795 0.750000
#
# Coordination Sequence:
#
# PCOD9303322 Si02
#       6
#     8   8   8   8   8   8
#     4  12  24  43  67  98 130 171 224 271 326 384
#     4  11  24  46  66  93 130 182 220 259 337 394
#     4  11  23  41  66  98 130 171 220 267 335 387
#     4  11  24  39  67 102 128 164 224 279 320 386
#     4  11  22  43  70  92 128 175 220 274 311 394
#     4  12  24  45  66  93 139 176 211 272 333 396
#
# _framework density 20.192098000000001
#
# number of rings (size 3 to 8) (size 9 to 14) (size 15 to 20)
#    0.000    0.667    8.333    0.500    2.333    2.000 
#    3.000    1.667    0.000    0.000    0.000    0.000 
#    0.000    0.000    0.000    0.000    0.000    0.000 
#
# Total GULP energy -134080.869374 kJ/mol
# GULP energy per Si atom -5586.702891 kJ/mol
# Density = 2.014614 g / cm^3
# Si number density = 20.192098 Si / 1000 Ang^3
#
#
#
# Elastic Constant Matrix: (Units=GPa)
#
#
# Indices 1 2 3 4 5 6 
#
# 1 86.6445 28.8361 10.8247 0.0000 -19.2701 0.0000
# 2 28.8361 84.8284 -5.4783 0.0000 7.9303 0.0000
# 3 10.8247 -5.4783 47.3653 0.0000 -3.9448 0.0000
# 4 0.0000 0.0000 0.0000 14.3357 0.0000 -3.9146
# 5 -19.2701 7.9303 -3.9448 0.0000 38.3760 0.0000
# 6 0.0000 0.0000 0.0000 -3.9146 0.0000 2.8055
#
#
#
# Elastic Compliance Matrix: (Units=1/GPa)
#
#
# Indices 1 2 3 4 5 6 
#
# 1 0.016240 -0.006615 -0.003715 0.000000 0.009140 0.000000
# 2 -0.006615 0.014782 0.002714 0.000000 -0.006097 0.000000
# 3 -0.003715 0.002714 0.022264 0.000000 -0.000138 0.000000
# 4 0.000000 0.000000 0.000000 0.112696 0.000000 0.157251
# 5 0.009140 -0.006097 -0.000138 0.000000 0.031893 0.000000
# 6 0.000000 0.000000 0.000000 0.157251 0.000000 0.575867
#
#
# Mechanical properties :
#
#
# Convention : Reuss Voigt Hill
#
# Bulk Modulus (GPa) = 26.27897 31.91146 29.09521
# Shear Modulus (GPa) = 6.23706 23.41381 14.82544
#
# Velocity S-wave (km/s) = 1.75942 3.40892 2.71259
# Velocity P-wave (km/s) = 4.14369 5.59755 4.92456
#
# Compressibility (1/GPa) = 0.03805324
#
# Stress axis : x y z
#
# Youngs Moduli (GPa) = 61.57731 67.64810 44.91567
#
# Poissons Ratio (x) = 0.44748 0.16687
# Poissons Ratio (y) = 0.40732 -0.12189
# Poissons Ratio (z) = 0.22877 -0.18357
#
# Static dielectric constant tensor:
#      x y z
#    x 1.729660 0.000000 -0.006550 
#    y 0.000000 1.700090 0.000000 
#    z -0.006550 0.000000 1.714680 
# 
# From -- ./inp_files/134864.got.cif
#   From: 2010.05.17/outbox.cif.g08.bks.cpg/sg15_68_cif.got.tgz:134864.got - 2010.06.03 18:47:42.
