data_PCOD9303769
_publ_section_title
;
Structure prediction by ZEFSAII (Michael W. Deem and Ramdas Pophale) SiO2 
 PCOD9303769
Probable space group: C 2/C
;
_chemical_formula_sum "Si O2"
_cell_formula_units_Z 32
_cell_length_a 7.757990
_cell_length_b 19.411153
_cell_length_c 9.621924
_cell_angle_alpha 90.000000
_cell_angle_beta 51.240418
_cell_angle_gamma 90.000000
_cell_volume 1129.885533
_symmetry_space_group_name_H-M "C 2/C"
_symmetry_group_IT_number 15
_symmetry_cell_setting 'monoclinic'
loop_
_space_group_symop_operation_xyz
x,y,z
-x,y,1/2-z
-x,-y,-z
x,-y,1/2+z
1/2+x,1/2+y,z
1/2-x,1/2+y,1/2-z
1/2-x,1/2-y,-z
1/2+x,1/2-y,1/2+z
loop_
_atom_site_type_symbol
_atom_site_label
_atom_site_fract_x
_atom_site_fract_y
_atom_site_fract_z
Si Si1 0.873950 0.847938 0.637973
Si Si2 0.086693 0.603440 0.524272
Si Si3 0.793412 0.030003 0.962319
Si Si4 0.687690 0.702004 0.763143
O O1 0.789404 0.869406 0.831340
O O2 0.718652 0.780204 0.699020
O O3 0.095332 0.814652 0.462325
O O4 0.839221 0.916807 0.563333
O O5 0.204299 0.544714 0.558974
O O6 0.912966 0.562994 0.513865
O O7 0.924636 0.665421 0.644758
O O8 0.000000 0.021937 0.750000
O O9 0.500000 0.673659 0.750000
#
# Coordination Sequence:
#
# PCOD9303769 Si02
#       4
#     8   8   8   8
#     4  12  22  39  67  97 133 166 210 278 324 377
#     4  11  23  39  61  93 136 169 210 266 326 387
#     4  11  23  41  58  94 136 169 215 259 326 395
#     4  12  21  36  64 101 126 161 216 269 328 380
#
# _framework density 28.321453000000002
#
# number of rings (size 3 to 8) (size 9 to 14) (size 15 to 20)
#    0.000    0.500    7.500    3.000    0.000    1.000 
#    4.500    0.000    0.000    1.500    0.000    0.000 
#    0.000    0.250    0.000    0.000    0.000    0.000 
#
# Total GULP energy -89497.130966 kJ/mol
# GULP energy per Si atom -5593.570685 kJ/mol
# Density = 2.825699 g / cm^3
# Si number density = 28.321453 Si / 1000 Ang^3
#
#
#
# Elastic Constant Matrix: (Units=GPa)
#
#
# Indices 1 2 3 4 5 6 
#
# 1 113.5617 47.7245 68.0041 0.0000 -23.1588 0.0000
# 2 47.7245 195.3994 83.2776 0.0000 -16.3594 0.0000
# 3 68.0041 83.2776 290.9241 0.0000 -27.2937 0.0000
# 4 0.0000 0.0000 0.0000 8.6854 0.0000 84.4872
# 5 -23.1588 -16.3594 -27.2937 0.0000 58.0568 0.0000
# 6 0.0000 0.0000 0.0000 84.4872 0.0000 -98.1678
#
#
#
# Elastic Compliance Matrix: (Units=1/GPa)
#
#
# Indices 1 2 3 4 5 6 
#
# 1 0.011271 -0.001700 -0.001853 0.000000 0.003146 0.000000
# 2 -0.001700 0.006130 -0.001317 0.000000 0.000430 0.000000
# 3 -0.001853 -0.001317 0.004334 0.000000 0.000927 0.000000
# 4 0.000000 0.000000 0.000000 0.012285 0.000000 0.010573
# 5 0.003146 0.000430 0.000927 0.000000 0.019037 0.000000
# 6 0.000000 0.000000 0.000000 0.010573 0.000000 -0.001087
#
#
# Mechanical properties :
#
#
# Convention : Reuss Voigt Hill
#
# Bulk Modulus (GPa) = 83.35911 110.87751 97.11831
# Shear Modulus (GPa) = 76.09247 20.44015 48.26631
#
# Velocity S-wave (km/s) = 5.18900 2.68940 4.13271
# Velocity P-wave (km/s) = 8.08691 6.99131 7.55899
#
# Compressibility (1/GPa) = 0.01199629
#
# Stress axis : x y z
#
# Youngs Moduli (GPa) = 88.72081 163.12585 230.70749
#
# Poissons Ratio (x) = 0.27728 0.42749
# Poissons Ratio (y) = 0.15081 0.30387
# Poissons Ratio (z) = 0.16440 0.21485
#
# Static dielectric constant tensor:
#      x y z
#    x 2.334280 0.000000 0.067820 
#    y 0.000000 2.193260 0.000000 
#    z 0.067820 0.000000 2.193870 
# 
# From -- ./inp_files/145335.got.cif
#   From: 2010.05.17/outbox.cif.g08.bks.cpg/sg15_73_cif.got.tgz:145335.got - 2010.06.03 18:47:42.
