data_PCOD9303928
_publ_section_title
;
Structure prediction by ZEFSAII (Michael W. Deem and Ramdas Pophale) SiO2 
 PCOD9303928
Probable space group: C 2/C
;
_chemical_formula_sum "Si O2"
_cell_formula_units_Z 40
_cell_length_a 25.872955
_cell_length_b 5.024063
_cell_length_c 11.008962
_cell_angle_alpha 90.000000
_cell_angle_beta 87.930314
_cell_angle_gamma 90.000000
_cell_volume 1430.092320
_symmetry_space_group_name_H-M "C 2/C"
_symmetry_group_IT_number 15
_symmetry_cell_setting 'monoclinic'
loop_
_space_group_symop_operation_xyz
x,y,z
-x,y,1/2-z
-x,-y,-z
x,-y,1/2+z
1/2+x,1/2+y,z
1/2-x,1/2+y,1/2-z
1/2-x,1/2-y,-z
1/2+x,1/2-y,1/2+z
loop_
_atom_site_type_symbol
_atom_site_label
_atom_site_fract_x
_atom_site_fract_y
_atom_site_fract_z
Si Si1 0.465478 0.250067 0.913008
Si Si2 0.160352 0.432710 0.939803
Si Si3 0.263378 0.595107 0.312174
Si Si4 0.633652 0.570191 0.584667
Si Si5 0.060064 0.537163 0.832461
O O1 0.424048 0.474515 0.882095
O O2 0.526512 0.294704 0.881912
O O3 0.454172 0.027481 0.808583
O O4 0.456114 0.152791 0.051698
O O5 0.220904 0.476776 0.917070
O O6 0.122052 0.522180 0.835022
O O7 0.150084 0.126167 0.972098
O O8 0.140275 0.627029 0.046592
O O9 0.241943 0.408626 0.206431
O O10 0.321757 0.504108 0.324775
#
# Coordination Sequence:
#
# PCOD9303928 Si02
#       5
#     8   8   8   8   8
#     4   9  19  38  66  99 138 180 231 286 348 413
#     4  11  23  41  64  93 133 179 231 286 347 413
#     4  12  24  40  64  96 135 181 233 287 350 420
#     4  11  23  41  65  94 133 180 230 287 347 413
#     4   9  19  38  65 100 137 181 230 287 347 413
#
# _framework density 27.970220000000001
#
# number of rings (size 3 to 8) (size 9 to 14) (size 15 to 20)
#    0.000    1.600    0.000    4.800    0.000    2.400 
#    0.000    4.000    0.000   19.200    0.000    0.000 
#    0.000    0.000    0.000    0.000    0.000    0.000 
#
# Total GULP energy -111696.637840 kJ/mol
# GULP energy per Si atom -5584.831892 kJ/mol
# Density = 2.790656 g / cm^3
# Si number density = 27.970220 Si / 1000 Ang^3
#
#
#
# Elastic Constant Matrix: (Units=GPa)
#
#
# Indices 1 2 3 4 5 6 
#
# 1 114.9557 49.6084 40.4048 0.0000 -5.2411 0.0000
# 2 49.6084 76.1528 49.1269 0.0000 -9.4490 0.0000
# 3 40.4048 49.1269 137.2688 0.0000 6.6657 0.0000
# 4 0.0000 0.0000 0.0000 19.8605 0.0000 0.0756
# 5 -5.2411 -9.4490 6.6657 0.0000 65.1788 0.0000
# 6 0.0000 0.0000 0.0000 0.0756 0.0000 36.6274
#
#
#
# Elastic Compliance Matrix: (Units=1/GPa)
#
#
# Indices 1 2 3 4 5 6 
#
# 1 0.012200 -0.007317 -0.000973 0.000000 0.000020 0.000000
# 2 -0.007317 0.022115 -0.005918 0.000000 0.003223 0.000000
# 3 -0.000973 -0.005918 0.009783 0.000000 -0.001937 0.000000
# 4 0.000000 0.000000 0.000000 0.050351 0.000000 -0.000104
# 5 0.000020 0.003223 -0.001937 0.000000 0.016009 0.000000
# 6 0.000000 0.000000 0.000000 -0.000104 0.000000 0.027302
#
#
# Mechanical properties :
#
#
# Convention : Reuss Voigt Hill
#
# Bulk Modulus (GPa) = 63.76435 67.40640 65.58537
# Shear Modulus (GPa) = 29.17082 36.94916 33.05999
#
# Velocity S-wave (km/s) = 3.23294 3.63852 3.44171
# Velocity P-wave (km/s) = 6.06486 6.46556 6.26841
#
# Compressibility (1/GPa) = 0.01568274
#
# Stress axis : x y z
#
# Youngs Moduli (GPa) = 81.97041 45.21752 102.21457
#
# Poissons Ratio (x) = 0.33085 0.09948
# Poissons Ratio (y) = 0.59977 0.60487
# Poissons Ratio (z) = 0.07978 0.26758
#
# Static dielectric constant tensor:
#      x y z
#    x 2.289230 0.000000 0.043540 
#    y 0.000000 2.124900 0.000000 
#    z 0.043540 0.000000 2.243020 
# 
# From -- ./inp_files/120834.got.cif
#   From: 2010.05.17/outbox.cif.g08.bks.cpg/sg15_61_cif.got.tgz:120834.got - 2010.06.03 18:47:42.
