data_PCOD9303291
_publ_section_title
;
Structure prediction by ZEFSAII (Michael W. Deem and Ramdas Pophale) SiO2 
 PCOD9303291
Probable space group: C 2/C
;
_chemical_formula_sum "Si O2"
_cell_formula_units_Z 48
_cell_length_a 8.428678
_cell_length_b 28.233807
_cell_length_c 10.316826
_cell_angle_alpha 90.000000
_cell_angle_beta 85.997588
_cell_angle_gamma 90.000000
_cell_volume 2449.145132
_symmetry_space_group_name_H-M "C 2/C"
_symmetry_group_IT_number 15
_symmetry_cell_setting 'monoclinic'
loop_
_space_group_symop_operation_xyz
x,y,z
-x,y,1/2-z
-x,-y,-z
x,-y,1/2+z
1/2+x,1/2+y,z
1/2-x,1/2+y,1/2-z
1/2-x,1/2-y,-z
1/2+x,1/2-y,1/2+z
loop_
_atom_site_type_symbol
_atom_site_label
_atom_site_fract_x
_atom_site_fract_y
_atom_site_fract_z
Si Si1 0.032571 0.643670 0.099624
Si Si2 0.684587 0.237558 0.365225
Si Si3 0.553828 0.536440 0.104884
Si Si4 0.000000 0.823368 0.250000
Si Si5 0.500000 0.698180 0.250000
Si Si6 0.903710 0.864607 0.524771
Si Si7 0.935415 0.459109 0.601648
O O1 0.218649 0.646921 0.059553
O O2 0.000000 0.632069 0.250000
O O3 0.938787 0.694032 0.098514
O O4 0.979667 0.593313 0.041705
O O5 0.750000 0.250000 0.500000
O O6 0.617843 0.285571 0.308401
O O7 0.831404 0.223992 0.264314
O O8 0.500000 0.521197 0.250000
O O9 0.460573 0.584225 0.069944
O O10 0.743901 0.540974 0.106072
O O11 0.500000 0.500000 0.000000
O O12 0.937990 0.854804 0.372478
O O13 0.499141 0.668881 0.382973
O O14 0.000000 0.465956 0.750000
O O15 0.000000 0.500000 0.500000
#
# Coordination Sequence:
#
# PCOD9303291 Si02
#       7
#     8   8   8   4   4   8   8
#     4  11  22  43  68  96 134 182 231 281 348 426
#     4  12  25  42  67 101 138 184 234 293 359 416
#     4  12  25  45  74 105 140 184 233 291 356 429
#     4  12  28  44  65 100 146 179 238 298 346 420
#     4  12  22  42  71  94 134 183 236 278 350 432
#     4  12  25  44  69 100 140 186 235 290 356 421
#     4  11  24  45  71 102 137 178 228 285 350 424
#
# _framework density 19.598676000000001
#
# number of rings (size 3 to 8) (size 9 to 14) (size 15 to 20)
#    0.000    0.333    5.000    5.000    3.500    1.333 
#    3.000    0.000    0.000    0.000    0.000    0.000 
#    0.000    0.000    0.000    0.000    0.000    0.000 
#
# Total GULP energy -133704.700831 kJ/mol
# GULP energy per Si atom -5571.029201 kJ/mol
# Density = 1.955407 g / cm^3
# Si number density = 19.598676 Si / 1000 Ang^3
#
#
#
# Elastic Constant Matrix: (Units=GPa)
#
#
# Indices 1 2 3 4 5 6 
#
# 1 107.5947 13.5086 23.3384 0.0000 -5.4695 0.0000
# 2 13.5086 47.4865 20.7438 0.0000 1.7297 0.0000
# 3 23.3384 20.7438 133.9962 0.0000 4.8459 0.0000
# 4 0.0000 0.0000 0.0000 37.5853 0.0000 1.3718
# 5 -5.4695 1.7297 4.8459 0.0000 36.6640 0.0000
# 6 0.0000 0.0000 0.0000 1.3718 0.0000 22.3189
#
#
#
# Elastic Compliance Matrix: (Units=1/GPa)
#
#
# Indices 1 2 3 4 5 6 
#
# 1 0.009985 -0.002271 -0.001452 0.000000 0.001789 0.000000
# 2 -0.002271 0.023116 -0.003146 0.000000 -0.001014 0.000000
# 3 -0.001452 -0.003146 0.008245 0.000000 -0.001158 0.000000
# 4 0.000000 0.000000 0.000000 0.026666 0.000000 -0.001639
# 5 0.001789 -0.001014 -0.001158 0.000000 0.027742 0.000000
# 6 0.000000 0.000000 0.000000 -0.001639 0.000000 0.044906
#
#
# Mechanical properties :
#
#
# Convention : Reuss Voigt Hill
#
# Bulk Modulus (GPa) = 36.22345 44.91767 40.57056
# Shear Modulus (GPa) = 30.56193 34.74605 32.65399
#
# Velocity S-wave (km/s) = 3.95319 4.21512 4.08626
# Velocity P-wave (km/s) = 6.27373 6.83068 6.55812
#
# Compressibility (1/GPa) = 0.02760643
#
# Stress axis : x y z
#
# Youngs Moduli (GPa) = 100.14792 43.25993 121.28870
#
# Poissons Ratio (x) = 0.09826 0.17614
# Poissons Ratio (y) = 0.22746 0.38161
# Poissons Ratio (z) = 0.14544 0.13611
#
# Static dielectric constant tensor:
#      x y z
#    x 1.733920 0.000000 -0.001020 
#    y 0.000000 2.107120 0.000000 
#    z -0.001020 0.000000 1.661600 
# 
# From -- ./inp_files/79175.got.cif
#   From: 2010.05.17/outbox.cif.g08.bks.cpg/sg15_40_cif.got.tgz:79175.got - 2010.06.03 18:47:42.
