data_PCOD9303987
_publ_section_title
;
Structure prediction by ZEFSAII (Michael W. Deem and Ramdas Pophale) SiO2 
 PCOD9303987
Probable space group: C 2/C
;
_chemical_formula_sum "Si O2"
_cell_formula_units_Z 48
_cell_length_a 28.045124
_cell_length_b 18.294027
_cell_length_c 14.315683
_cell_angle_alpha 90.000000
_cell_angle_beta 20.143130
_cell_angle_gamma 90.000000
_cell_volume 2529.296033
_symmetry_space_group_name_H-M "C 2/C"
_symmetry_group_IT_number 15
_symmetry_cell_setting 'monoclinic'
loop_
_space_group_symop_operation_xyz
x,y,z
-x,y,1/2-z
-x,-y,-z
x,-y,1/2+z
1/2+x,1/2+y,z
1/2-x,1/2+y,1/2-z
1/2-x,1/2-y,-z
1/2+x,1/2-y,1/2+z
loop_
_atom_site_type_symbol
_atom_site_label
_atom_site_fract_x
_atom_site_fract_y
_atom_site_fract_z
Si Si1 0.728227 0.373537 0.794002
Si Si2 0.500000 0.796313 0.250000
Si Si3 0.190034 0.052088 0.560662
Si Si4 0.866806 0.688649 0.307538
Si Si5 0.119934 0.080657 0.298312
Si Si6 0.500000 0.750941 0.750000
Si Si7 0.407674 0.263610 0.733185
O O1 0.710527 0.406582 0.724042
O O2 0.883260 0.344075 0.514554
O O3 0.700334 0.427585 0.932200
O O4 0.621518 0.305019 0.994582
O O5 0.570178 0.747447 0.198911
O O6 0.289702 0.111544 0.428962
O O7 0.209968 0.970192 0.563060
O O8 0.028143 0.057047 0.886280
O O9 0.750000 0.750000 0.500000
O O10 0.931847 0.702298 0.291114
O O11 0.992294 0.709023 0.007280
O O12 0.071397 0.153730 0.335979
O O13 0.250000 0.250000 0.000000
#
# Coordination Sequence:
#
# PCOD9303987 Si02
#       7
#     8   4   8   8   8   4   8
#     4  12  20  42  65  93 125 179 213 270 341 393
#     4  12  24  36  68  96 128 168 222 272 334 390
#     4  11  23  41  68  94 132 173 221 275 331 402
#     4  12  20  39  67  97 125 170 226 270 321 393
#     4  11  23  42  65  98 132 170 222 277 332 396
#     4  12  20  36  70  96 124 170 228 270 318 398
#     4  12  22  41  63  97 129 166 218 274 321 387
#
# _framework density 18.977612000000001
#
# number of rings (size 3 to 8) (size 9 to 14) (size 15 to 20)
#    0.000    0.333   10.000    0.000    0.000    0.000 
#    6.000    4.167    0.000    0.000    0.000    0.000 
#    0.000    0.000    0.000    0.000    0.000    0.000 
#
# Total GULP energy -133778.345884 kJ/mol
# GULP energy per Si atom -5574.097745 kJ/mol
# Density = 1.893442 g / cm^3
# Si number density = 18.977612 Si / 1000 Ang^3
#
#
#
# Elastic Constant Matrix: (Units=GPa)
#
#
# Indices 1 2 3 4 5 6 
#
# 1 148.3256 42.1957 19.8131 -0.0004 -9.5245 0.0004
# 2 42.1957 58.7317 4.6969 -0.0006 4.6426 0.0005
# 3 19.8131 4.6969 82.4287 -0.0007 -10.5036 0.0006
# 4 -0.0004 -0.0006 -0.0007 30.5722 0.0000 1.6748
# 5 -9.5245 4.6426 -10.5036 0.0000 30.5298 0.0000
# 6 0.0004 0.0005 0.0006 1.6748 0.0000 12.8019
#
#
#
# Elastic Compliance Matrix: (Units=1/GPa)
#
#
# Indices 1 2 3 4 5 6 
#
# 1 0.009030 -0.006644 -0.001364 0.000000 0.003358 0.000000
# 2 -0.006644 0.022273 -0.000385 0.000000 -0.005592 -0.000001
# 3 -0.001364 -0.000385 0.013005 0.000000 0.004107 -0.000001
# 4 0.000000 0.000000 0.000000 0.032946 0.000000 -0.004310
# 5 0.003358 -0.005592 0.004107 0.000000 0.036066 0.000000
# 6 0.000000 -0.000001 -0.000001 -0.004310 0.000000 0.078677
#
#
# Mechanical properties :
#
#
# Convention : Reuss Voigt Hill
#
# Bulk Modulus (GPa) = 36.33429 46.98858 41.66144
# Shear Modulus (GPa) = 22.94048 29.63280 26.28664
#
# Velocity S-wave (km/s) = 3.48058 3.95582 3.72578
# Velocity P-wave (km/s) = 5.94475 6.75858 6.36469
#
# Compressibility (1/GPa) = 0.02752221
#
# Stress axis : x y z
#
# Youngs Moduli (GPa) = 110.74448 44.89815 76.89444
#
# Poissons Ratio (x) = 0.29830 0.10488
# Poissons Ratio (y) = 0.73577 0.02958
# Poissons Ratio (z) = 0.15105 0.01727
#
# Static dielectric constant tensor:
#      x y z
#    x 1.696500 0.000000 -0.052420 
#    y 0.000000 1.702640 0.000000 
#    z -0.052420 0.000000 1.549290 
# 
# From -- ./inp_files/178935.got.cif
#   From: 2010.05.17/outbox.cif.g08.bks.cpg/sg15_90_cif.got.tgz:178935.got - 2010.06.03 18:47:42.
