data_PCOD9303275
_publ_section_title
;
Structure prediction by ZEFSAII (Michael W. Deem and Ramdas Pophale) SiO2 
 PCOD9303275
Probable space group: C 2/C
;
_chemical_formula_sum "Si O2"
_cell_formula_units_Z 48
_cell_length_a 9.854466
_cell_length_b 15.740605
_cell_length_c 19.368157
_cell_angle_alpha 90.000000
_cell_angle_beta 137.728145
_cell_angle_gamma 90.000000
_cell_volume 2020.837461
_symmetry_space_group_name_H-M "C 2/C"
_symmetry_group_IT_number 15
_symmetry_cell_setting 'monoclinic'
loop_
_space_group_symop_operation_xyz
x,y,z
-x,y,1/2-z
-x,-y,-z
x,-y,1/2+z
1/2+x,1/2+y,z
1/2-x,1/2+y,1/2-z
1/2-x,1/2-y,-z
1/2+x,1/2-y,1/2+z
loop_
_atom_site_type_symbol
_atom_site_label
_atom_site_fract_x
_atom_site_fract_y
_atom_site_fract_z
Si Si1 0.381087 0.502773 0.777373
Si Si2 0.142012 0.193799 0.736806
Si Si3 0.028932 0.700991 0.969819
Si Si4 0.915879 0.678140 0.070763
Si Si5 0.607596 0.618634 0.465470
Si Si6 0.567455 0.990344 0.853958
O O1 0.500000 0.488046 0.750000
O O2 0.422642 0.600943 0.814328
O O3 0.451149 0.437641 0.863088
O O4 0.139139 0.497181 0.679255
O O5 0.370899 0.188438 0.848575
O O6 0.000000 0.211470 0.750000
O O7 0.109069 0.271390 0.672884
O O8 0.028431 0.802849 0.981321
O O9 0.249356 0.667958 0.035067
O O10 0.954419 0.648794 0.007617
O O11 0.856779 0.603556 0.099478
O O12 0.750000 0.750000 0.000000
O O13 0.758534 0.556537 0.562559
O O14 0.500000 0.999808 0.750000
#
# Coordination Sequence:
#
# PCOD9303275 Si02
#       6
#     8   8   8   8   8   8
#     4  11  25  45  74 103 142 190 236 297 356 434
#     4  11  22  43  67 103 139 181 241 288 352 427
#     4  11  25  45  71 100 143 188 236 291 357 437
#     4  12  25  41  70 100 138 187 231 292 355 429
#     4  11  26  46  70 104 142 187 239 295 362 426
#     4  12  28  46  71 108 146 181 239 307 363 421
#
# _framework density 23.752528999999999
#
# number of rings (size 3 to 8) (size 9 to 14) (size 15 to 20)
#    0.000    0.667    3.333    3.500    7.000    2.000 
#    0.000    3.333    0.000    0.000    0.000    0.000 
#    0.000    0.000    0.000    0.000    0.000    0.000 
#
# Total GULP energy -134333.293899 kJ/mol
# GULP energy per Si atom -5597.220579 kJ/mol
# Density = 2.369847 g / cm^3
# Si number density = 23.752529 Si / 1000 Ang^3
#
#
#
# Elastic Constant Matrix: (Units=GPa)
#
#
# Indices 1 2 3 4 5 6 
#
# 1 48.6010 -11.9559 -12.0088 0.0000 9.2806 0.0000
# 2 -11.9559 140.7686 51.0033 0.0000 -3.6141 0.0000
# 3 -12.0088 51.0033 97.5500 0.0000 4.1239 0.0000
# 4 0.0000 0.0000 0.0000 32.0873 0.0000 13.8117
# 5 9.2806 -3.6141 4.1239 0.0000 32.2664 0.0000
# 6 0.0000 0.0000 0.0000 13.8117 0.0000 27.2642
#
#
#
# Elastic Compliance Matrix: (Units=1/GPa)
#
#
# Indices 1 2 3 4 5 6 
#
# 1 0.022727 0.000787 0.002673 0.000000 -0.006790 0.000000
# 2 0.000787 0.008872 -0.004599 0.000000 0.001355 0.000000
# 3 0.002673 -0.004599 0.013110 0.000000 -0.002960 0.000000
# 4 0.000000 0.000000 0.000000 0.039856 0.000000 -0.020191
# 5 -0.006790 0.001355 -0.002960 0.000000 0.033475 0.000000
# 6 0.000000 0.000000 0.000000 -0.020191 0.000000 0.046906
#
#
# Mechanical properties :
#
#
# Convention : Reuss Voigt Hill
#
# Bulk Modulus (GPa) = 23.56750 37.88853 30.72802
# Shear Modulus (GPa) = 27.56854 35.64898 31.60876
#
# Velocity S-wave (km/s) = 3.41054 3.87828 3.65191
# Velocity P-wave (km/s) = 5.04506 6.00340 5.54497
#
# Compressibility (1/GPa) = 0.04243132
#
# Stress axis : x y z
#
# Youngs Moduli (GPa) = 44.00146 112.71674 76.27857
#
# Poissons Ratio (x) = -0.08875 -0.20390
# Poissons Ratio (y) = -0.03465 0.35080
# Poissons Ratio (z) = -0.11762 0.51837
#
# Static dielectric constant tensor:
#      x y z
#    x 1.932340 0.000000 0.006950 
#    y 0.000000 1.949900 0.000000 
#    z 0.006950 0.000000 1.915900 
# 
# From -- ./inp_files/239013.got.cif
#   From: 2010.05.17/outbox.cif.g08.bks.cpg/sg15_120_cif.got.tgz:239013.got - 2010.06.03 18:47:42.
