data_PCOD9303651
_publ_section_title
;
Structure prediction by ZEFSAII (Michael W. Deem and Ramdas Pophale) SiO2 
 PCOD9303651
Probable space group: C 2/C
;
_chemical_formula_sum "Si O2"
_cell_formula_units_Z 48
_cell_length_a 9.725131
_cell_length_b 23.843684
_cell_length_c 13.960668
_cell_angle_alpha 90.000000
_cell_angle_beta 46.233898
_cell_angle_gamma 90.000000
_cell_volume 2337.836941
_symmetry_space_group_name_H-M "C 2/C"
_symmetry_group_IT_number 15
_symmetry_cell_setting 'monoclinic'
loop_
_space_group_symop_operation_xyz
x,y,z
-x,y,1/2-z
-x,-y,-z
x,-y,1/2+z
1/2+x,1/2+y,z
1/2-x,1/2+y,1/2-z
1/2-x,1/2-y,-z
1/2+x,1/2-y,1/2+z
loop_
_atom_site_type_symbol
_atom_site_label
_atom_site_fract_x
_atom_site_fract_y
_atom_site_fract_z
Si Si1 0.834349 0.042611 0.249771
Si Si2 0.681812 0.798899 0.603130
Si Si3 0.665131 0.590280 0.749947
Si Si4 0.812734 0.800851 0.903664
Si Si5 0.002808 0.128268 0.029245
Si Si6 0.505731 0.127253 0.458815
O O1 0.900418 0.073279 0.120687
O O2 0.641908 0.074262 0.374298
O O3 0.000000 0.050925 0.250000
O O4 0.809057 0.976476 0.250126
O O5 0.500000 0.778517 0.750000
O O6 0.750000 0.750000 0.500000
O O7 0.850637 0.821690 0.588328
O O8 0.613682 0.853262 0.575674
O O9 0.500000 0.599175 0.750000
O O10 0.858326 0.615743 0.614669
O O11 0.602084 0.616739 0.880618
O O12 0.643646 0.821094 0.917121
O O13 0.000000 0.789644 0.750000
O O14 0.856442 0.851501 0.955569
O O15 0.750000 0.750000 0.000000
#
# Coordination Sequence:
#
# PCOD9303651 Si02
#       6
#     8   8   8   8   8   8
#     4  11  22  47  70  98 137 176 223 279 342 391
#     4  12  26  42  69  95 132 178 227 277 333 396
#     4  11  26  41  70 104 135 178 223 275 332 407
#     4  12  26  46  71  99 134 178 227 281 337 398
#     4  12  23  46  67  99 137 174 222 280 337 392
#     4  12  23  46  67  99 137 174 222 280 337 392
#
# _framework density 20.531798999999999
#
# number of rings (size 3 to 8) (size 9 to 14) (size 15 to 20)
#    0.000    0.333    6.667    2.000    4.667    0.000 
#    0.000    1.667    0.000    0.000    0.000    0.000 
#    0.000    0.000    0.000    0.000    0.000    0.000 
#
# Total GULP energy -134297.215590 kJ/mol
# GULP energy per Si atom -5595.717316 kJ/mol
# Density = 2.048507 g / cm^3
# Si number density = 20.531799 Si / 1000 Ang^3
#
#
#
# Elastic Constant Matrix: (Units=GPa)
#
#
# Indices 1 2 3 4 5 6 
#
# 1 38.0012 -6.6792 7.0456 0.0000 4.8826 0.0000
# 2 -6.6792 54.3461 36.8685 0.0000 -0.2976 0.0000
# 3 7.0456 36.8685 196.0972 0.0000 14.7972 0.0000
# 4 0.0000 0.0000 0.0000 26.8610 0.0000 16.6926
# 5 4.8826 -0.2976 14.7972 0.0000 33.2700 0.0000
# 6 0.0000 0.0000 0.0000 16.6926 0.0000 24.1252
#
#
#
# Elastic Compliance Matrix: (Units=1/GPa)
#
#
# Indices 1 2 3 4 5 6 
#
# 1 0.027826 0.004480 -0.001590 0.000000 -0.003336 0.000000
# 2 0.004480 0.021944 -0.004400 0.000000 0.001495 0.000000
# 3 -0.001590 -0.004400 0.006176 0.000000 -0.002553 0.000000
# 4 0.000000 0.000000 0.000000 0.065312 0.000000 -0.045190
# 5 -0.003336 0.001495 -0.002553 0.000000 0.031696 0.000000
# 6 0.000000 0.000000 0.000000 -0.045190 0.000000 0.072718
#
#
# Mechanical properties :
#
#
# Convention : Reuss Voigt Hill
#
# Bulk Modulus (GPa) = 18.89372 40.32382 29.60877
# Shear Modulus (GPa) = 20.29769 33.59855 26.94812
#
# Velocity S-wave (km/s) = 3.14761 4.04965 3.62678
# Velocity P-wave (km/s) = 4.73625 6.44582 5.65600
#
# Compressibility (1/GPa) = 0.05292763
#
# Stress axis : x y z
#
# Youngs Moduli (GPa) = 35.93761 45.57032 161.90476
#
# Poissons Ratio (x) = -0.20418 0.25749
# Poissons Ratio (y) = -0.16102 0.71231
# Poissons Ratio (z) = 0.05716 0.20049
#
# Static dielectric constant tensor:
#      x y z
#    x 1.692810 0.000000 -0.008980 
#    y 0.000000 1.724110 0.000000 
#    z -0.008980 0.000000 1.708870 
# 
# From -- ./inp_files/138909.got.cif
#   From: 2010.05.17/outbox.cif.g08.bks.cpg/sg15_70_cif.got.tgz:138909.got - 2010.06.03 18:47:42.
