data_PCOD9303523
_publ_section_title
;
Structure prediction by ZEFSAII (Michael W. Deem and Ramdas Pophale) SiO2 
 PCOD9303523
Probable space group: C 2/C
;
_chemical_formula_sum "Si O2"
_cell_formula_units_Z 40
_cell_length_a 11.645310
_cell_length_b 11.889408
_cell_length_c 14.402885
_cell_angle_alpha 90.000000
_cell_angle_beta 64.799067
_cell_angle_gamma 90.000000
_cell_volume 1804.359317
_symmetry_space_group_name_H-M "C 2/C"
_symmetry_group_IT_number 15
_symmetry_cell_setting 'monoclinic'
loop_
_space_group_symop_operation_xyz
x,y,z
-x,y,1/2-z
-x,-y,-z
x,-y,1/2+z
1/2+x,1/2+y,z
1/2-x,1/2+y,1/2-z
1/2-x,1/2-y,-z
1/2+x,1/2-y,1/2+z
loop_
_atom_site_type_symbol
_atom_site_label
_atom_site_fract_x
_atom_site_fract_y
_atom_site_fract_z
Si Si1 0.215560 0.545860 0.661802
Si Si2 0.731054 0.380681 0.013331
Si Si3 0.998174 0.002264 0.640173
Si Si4 0.082902 0.570612 0.899123
Si Si5 0.579713 0.744360 0.128243
O O1 0.195068 0.453104 0.589250
O O2 0.354913 0.516003 0.653633
O O3 0.117686 0.534197 0.781984
O O4 0.194142 0.670617 0.621307
O O5 0.583294 0.407117 0.058844
O O6 0.783678 0.415651 0.095478
O O7 0.750000 0.250000 0.000000
O O8 0.000000 0.021031 0.750000
O O9 0.077572 0.885209 0.596771
O O10 0.004549 0.685332 0.914225
O O11 0.000000 0.500000 0.000000
O O12 0.500000 0.734884 0.250000
#
# Coordination Sequence:
#
# PCOD9303523 Si02
#       5
#     8   8   8   8   8
#     4  11  23  45  73 101 142 192 236 295 371 426
#     4  12  26  46  68 104 144 185 241 304 358 439
#     4  11  23  47  69 101 142 184 241 294 358 436
#     4  11  22  45  68 104 144 178 238 297 359 437
#     4   9  21  41  71 100 136 182 234 291 349 434
#
# _framework density 22.168534000000001
#
# number of rings (size 3 to 8) (size 9 to 14) (size 15 to 20)
#    0.000    1.200    4.000    1.800    0.000    0.800 
#    7.200    0.000    0.000    0.000    0.000    0.000 
#    0.000    0.000    0.000    0.000    0.000    0.000 
#
# Total GULP energy -111524.402532 kJ/mol
# GULP energy per Si atom -5576.220127 kJ/mol
# Density = 2.211808 g / cm^3
# Si number density = 22.168534 Si / 1000 Ang^3
#
#
#
# Elastic Constant Matrix: (Units=GPa)
#
#
# Indices 1 2 3 4 5 6 
#
# 1 106.2874 34.2256 40.2261 0.0000 12.5243 0.0000
# 2 34.2256 147.1295 51.6073 0.0000 -12.0017 0.0000
# 3 40.2261 51.6073 103.5692 0.0000 -0.8056 0.0000
# 4 0.0000 0.0000 0.0000 23.5590 0.0000 -1.6025
# 5 12.5243 -12.0017 -0.8056 0.0000 39.3636 0.0000
# 6 0.0000 0.0000 0.0000 -1.6025 0.0000 25.3223
#
#
#
# Elastic Compliance Matrix: (Units=1/GPa)
#
#
# Indices 1 2 3 4 5 6 
#
# 1 0.011942 -0.001818 -0.003767 0.000000 -0.004431 0.000000
# 2 -0.001818 0.008752 -0.003630 0.000000 0.003173 0.000000
# 3 -0.003767 -0.003630 0.012930 0.000000 0.000356 0.000000
# 4 0.000000 0.000000 0.000000 0.042630 0.000000 0.002698
# 5 -0.004431 0.003173 0.000356 0.000000 0.027789 0.000000
# 6 0.000000 0.000000 0.000000 0.002698 0.000000 0.039662
#
#
# Mechanical properties :
#
#
# Convention : Reuss Voigt Hill
#
# Bulk Modulus (GPa) = 65.81701 67.67823 66.74762
# Shear Modulus (GPa) = 29.90475 33.04412 31.47444
#
# Velocity S-wave (km/s) = 3.67682 3.86500 3.77208
# Velocity P-wave (km/s) = 6.91225 7.10724 7.01042
#
# Compressibility (1/GPa) = 0.01519364
#
# Stress axis : x y z
#
# Youngs Moduli (GPa) = 83.74132 114.26296 77.34015
#
# Poissons Ratio (x) = 0.20775 0.29131
# Poissons Ratio (y) = 0.15225 0.28075
# Poissons Ratio (z) = 0.31542 0.41478
#
# Static dielectric constant tensor:
#      x y z
#    x 1.826220 0.000000 -0.019080 
#    y 0.000000 1.866570 0.000000 
#    z -0.019080 0.000000 1.641360 
# 
# From -- ./inp_files/142105.got.cif
#   From: 2010.05.17/outbox.cif.g08.bks.cpg/sg15_72_cif.got.tgz:142105.got - 2010.06.03 18:47:42.
