data_PCOD9303000
_publ_section_title
;
Structure prediction by ZEFSAII (Michael W. Deem and Ramdas Pophale) SiO2 
 PCOD9303000
Probable space group: C 2/C
;
_chemical_formula_sum "Si O2"
_cell_formula_units_Z 60
_cell_length_a 11.150819
_cell_length_b 18.425815
_cell_length_c 15.468441
_cell_angle_alpha 90.000000
_cell_angle_beta 89.673398
_cell_angle_gamma 90.000000
_cell_volume 3178.139545
_symmetry_space_group_name_H-M "C 2/C"
_symmetry_group_IT_number 15
_symmetry_cell_setting 'monoclinic'
loop_
_space_group_symop_operation_xyz
x,y,z
-x,y,1/2-z
-x,-y,-z
x,-y,1/2+z
1/2+x,1/2+y,z
1/2-x,1/2+y,1/2-z
1/2-x,1/2-y,-z
1/2+x,1/2-y,1/2+z
loop_
_atom_site_type_symbol
_atom_site_label
_atom_site_fract_x
_atom_site_fract_y
_atom_site_fract_z
Si Si1 0.494879 0.040693 0.407877
Si Si2 0.734988 0.426986 0.605484
Si Si3 0.000000 0.429601 0.250000
Si Si4 0.140295 0.088481 0.601796
Si Si5 0.356197 0.430397 0.087226
Si Si6 0.757801 0.339931 0.258164
Si Si7 0.765985 0.095349 0.087715
Si Si8 0.358187 0.318006 0.750308
O O1 0.621417 0.080251 0.393546
O O2 0.377849 0.090866 0.406746
O O3 0.500000 0.000000 0.500000
O O4 0.482053 0.980998 0.332867
O O5 0.702948 0.511309 0.623232
O O6 0.686439 0.411970 0.509474
O O7 0.673713 0.376656 0.676315
O O8 0.883314 0.380345 0.238370
O O9 0.170999 0.143363 0.678082
O O10 0.192477 0.113557 0.509482
O O11 0.999306 0.074186 0.592925
O O12 0.297564 0.376964 0.156765
O O13 0.313847 0.513161 0.104408
O O14 0.786142 0.255630 0.268184
O O15 0.819530 0.148320 0.158730
O O16 0.500000 0.303626 0.750000
#
# Coordination Sequence:
#
# PCOD9303000 Si02
#       8
#     8   8   4   8   8   8   8   8
#     4  12  20  40  68  96 124 151 208 264 308 365
#     4  11  22  41  67  96 121 160 207 261 312 357
#     4  12  20  40  62  90 124 160 208 256 298 378
#     4  11  22  41  67  94 123 158 208 261 309 365
#     4  11  22  41  67  94 123 158 208 261 309 365
#     4  12  24  41  63  88 127 170 207 246 312 369
#     4  11  22  41  67  96 121 160 207 261 312 357
#     4  12  26  43  62  91 129 168 206 250 307 374
#
# _framework density 18.878969999999999
#
# number of rings (size 3 to 8) (size 9 to 14) (size 15 to 20)
#    0.000    0.533    6.000    5.200    0.000    1.067 
#    4.800    0.000    0.000    0.000    0.000    0.000 
#    0.000    0.000    0.000    0.000    0.000    0.000 
#
# Total GULP energy -167833.196789 kJ/mol
# GULP energy per Si atom -5594.439893 kJ/mol
# Density = 1.883600 g / cm^3
# Si number density = 18.878970 Si / 1000 Ang^3
#
#
#
# Elastic Constant Matrix: (Units=GPa)
#
#
# Indices 1 2 3 4 5 6 
#
# 1 106.5457 -13.2019 -27.8977 0.0000 10.3566 0.0000
# 2 -13.2019 24.7603 26.3566 0.0000 3.2374 0.0000
# 3 -27.8977 26.3566 52.4062 0.0000 4.1318 0.0000
# 4 0.0000 0.0000 0.0000 0.5196 0.0000 3.5401
# 5 10.3566 3.2374 4.1318 0.0000 33.5473 0.0000
# 6 0.0000 0.0000 0.0000 3.5401 0.0000 23.2365
#
#
#
# Elastic Compliance Matrix: (Units=1/GPa)
#
#
# Indices 1 2 3 4 5 6 
#
# 1 0.011503 -0.000392 0.006662 0.000000 -0.004334 0.000000
# 2 -0.000392 0.087240 -0.043856 0.000000 -0.002897 0.000000
# 3 0.006662 -0.043856 0.044949 0.000000 -0.003361 0.000000
# 4 0.000000 0.000000 0.000000-50.689811 0.000000 7.722717
# 5 -0.004334 -0.002897 -0.003361 0.000000 0.031840 0.000000
# 6 0.000000 0.000000 0.000000 7.722717 0.000000 -1.133539
#
#
# Mechanical properties :
#
#
# Convention : Reuss Voigt Hill
#
# Bulk Modulus (GPa) = 14.59396 17.13621 15.86508
# Shear Modulus (GPa) = -0.09699 24.69104 12.29703
#
# Velocity S-wave (km/s) = -0.22691 3.62036 2.55495
# Velocity P-wave (km/s) = 2.77099 5.15486 4.13830
#
# Compressibility (1/GPa) = 0.06852152
#
# Stress axis : x y z
#
# Youngs Moduli (GPa) = 86.93575 11.46259 22.24723
#
# Poissons Ratio (x) = 0.00449 -0.14821
# Poissons Ratio (y) = 0.03406 0.97567
# Poissons Ratio (z) = -0.57917 0.50270
#
# Static dielectric constant tensor:
#      x y z
#    x 1.653450 0.000000 0.004330 
#    y 0.000000 1.620560 0.000000 
#    z 0.004330 0.000000 1.634720 
# 
# From -- ./inp_files/145653.got.cif
#   From: 2010.05.17/outbox.cif.g08.bks.cpg/sg15_73_cif.got.tgz:145653.got - 2010.06.03 18:47:42.
