data_PCOD9303685
_publ_section_title
;
Structure prediction by ZEFSAII (Michael W. Deem and Ramdas Pophale) SiO2 
 PCOD9303685
Probable space group: C 2/C
;
_chemical_formula_sum "Si O2"
_cell_formula_units_Z 40
_cell_length_a 19.159847
_cell_length_b 13.405412
_cell_length_c 8.907934
_cell_angle_alpha 90.000000
_cell_angle_beta 46.470054
_cell_angle_gamma 90.000000
_cell_volume 1658.807099
_symmetry_space_group_name_H-M "C 2/C"
_symmetry_group_IT_number 15
_symmetry_cell_setting 'monoclinic'
loop_
_space_group_symop_operation_xyz
x,y,z
-x,y,1/2-z
-x,-y,-z
x,-y,1/2+z
1/2+x,1/2+y,z
1/2-x,1/2+y,1/2-z
1/2-x,1/2-y,-z
1/2+x,1/2-y,1/2+z
loop_
_atom_site_type_symbol
_atom_site_label
_atom_site_fract_x
_atom_site_fract_y
_atom_site_fract_z
Si Si1 0.951098 0.677785 0.170680
Si Si2 0.914291 0.785887 0.773551
Si Si3 0.106128 0.415160 0.031739
Si Si4 0.608281 0.381516 0.154543
Si Si5 0.307884 0.538812 0.270567
O O1 0.878772 0.765685 0.325953
O O2 0.000000 0.641690 0.250000
O O3 0.905535 0.596786 0.129175
O O4 0.032797 0.733784 0.947294
O O5 0.870447 0.695826 0.936554
O O6 0.842477 0.870342 0.825567
O O7 0.000000 0.829597 0.750000
O O8 0.000000 0.435544 0.250000
O O9 0.194583 0.482951 0.948018
O O10 0.500000 0.391509 0.250000
O O11 0.628313 0.445755 0.272831
O O12 0.673508 0.424783 0.925775
#
# Coordination Sequence:
#
# PCOD9303685 Si02
#       5
#     8   8   8   8   8
#     4   9  17  37  57  88 115 148 187 247 295 332
#     4   9  18  34  59  85 116 151 185 238 293 347
#     4   9  22  39  61  84 115 156 203 244 282 343
#     4  11  23  35  58  89 127 150 187 241 299 365
#     4  12  22  37  56  89 119 162 191 232 303 350
#
# _framework density 24.113713000000001
#
# number of rings (size 3 to 8) (size 9 to 14) (size 15 to 20)
#    0.000    2.400    4.000    1.800    5.600    0.800 
#    0.000    3.000    0.000    0.000    0.000    0.000 
#    0.000    0.000    0.000    0.000    0.000    0.000 
#
# Total GULP energy -111887.827739 kJ/mol
# GULP energy per Si atom -5594.391387 kJ/mol
# Density = 2.405883 g / cm^3
# Si number density = 24.113713 Si / 1000 Ang^3
#
#
#
# Elastic Constant Matrix: (Units=GPa)
#
#
# Indices 1 2 3 4 5 6 
#
# 1 142.4097 23.0218 49.0082 0.0000 3.0693 0.0000
# 2 23.0218 63.5585 -0.2285 0.0000 8.3226 0.0000
# 3 49.0082 -0.2285 76.0049 0.0000 12.0487 0.0000
# 4 0.0000 0.0000 0.0000 -2.6329 0.0000 -8.0689
# 5 3.0693 8.3226 12.0487 0.0000 52.8693 0.0000
# 6 0.0000 0.0000 0.0000 -8.0689 0.0000 -17.3949
#
#
#
# Elastic Compliance Matrix: (Units=1/GPa)
#
#
# Indices 1 2 3 4 5 6 
#
# 1 0.009885 -0.003806 -0.006629 0.000000 0.001536 0.000000
# 2 -0.003806 0.017546 0.003018 0.000000 -0.003229 0.000000
# 3 -0.006629 0.003018 0.018109 0.000000 -0.004217 0.000000
# 4 0.000000 0.000000 0.000000 0.900893 0.000000 -0.417894
# 5 0.001536 -0.003229 -0.004217 0.000000 0.020295 0.000000
# 6 0.000000 0.000000 0.000000 -0.417894 0.000000 0.136360
#
#
# Mechanical properties :
#
#
# Convention : Reuss Voigt Hill
#
# Bulk Modulus (GPa) = 32.56504 47.28623 39.92564
# Shear Modulus (GPa) = 4.43201 20.57975 12.50588
#
# Velocity S-wave (km/s) = 1.35719 2.92455 2.27980
# Velocity P-wave (km/s) = 3.99875 5.57281 4.85007
#
# Compressibility (1/GPa) = 0.03070777
#
# Stress axis : x y z
#
# Youngs Moduli (GPa) = 101.15956 56.99430 55.22093
#
# Poissons Ratio (x) = 0.21690 0.36606
# Poissons Ratio (y) = 0.38497 -0.16668
# Poissons Ratio (z) = 0.67059 -0.17203
#
# Static dielectric constant tensor:
#      x y z
#    x 1.896110 0.000000 0.000980 
#    y 0.000000 1.920770 0.000000 
#    z 0.000980 0.000000 1.972190 
# 
# From -- ./inp_files/48300.got.cif
#   From: 2010.05.17/outbox.cif.g08.bks.cpg/sg15_25_cif.got.tgz:48300.got - 2010.06.03 18:47:42.
