data_PCOD9303246
_publ_section_title
;
Structure prediction by ZEFSAII (Michael W. Deem and Ramdas Pophale) SiO2 
 PCOD9303246
Probable space group: C 2/C
;
_chemical_formula_sum "Si O2"
_cell_formula_units_Z 40
_cell_length_a 15.599028
_cell_length_b 11.572713
_cell_length_c 13.646955
_cell_angle_alpha 90.000000
_cell_angle_beta 138.204486
_cell_angle_gamma 90.000000
_cell_volume 1641.919109
_symmetry_space_group_name_H-M "C 2/C"
_symmetry_group_IT_number 15
_symmetry_cell_setting 'monoclinic'
loop_
_space_group_symop_operation_xyz
x,y,z
-x,y,1/2-z
-x,-y,-z
x,-y,1/2+z
1/2+x,1/2+y,z
1/2-x,1/2+y,1/2-z
1/2-x,1/2-y,-z
1/2+x,1/2-y,1/2+z
loop_
_atom_site_type_symbol
_atom_site_label
_atom_site_fract_x
_atom_site_fract_y
_atom_site_fract_z
Si Si1 0.913310 0.340125 0.492655
Si Si2 0.275340 0.934242 0.537473
Si Si3 0.309210 0.050022 0.291606
Si Si4 0.914186 0.187010 0.324332
Si Si5 0.000000 0.383710 0.250000
Si Si6 0.000000 0.006466 0.250000
O O1 0.852613 0.331687 0.548366
O O2 0.817694 0.423288 0.347563
O O3 0.941210 0.223528 0.458264
O O4 0.047205 0.406579 0.605180
O O5 0.253799 0.941125 0.635059
O O6 0.380935 0.038221 0.610824
O O7 0.135842 0.943439 0.369711
O O8 0.230026 0.136323 0.294043
O O9 0.997839 0.089034 0.343961
O O10 0.941148 0.300687 0.282896
#
# Coordination Sequence:
#
# PCOD9303246 Si02
#       6
#     8   8   8   8   4   4
#     4  11  22  44  70 103 137 185 232 290 345 418
#     4  12  23  48  70 102 142 192 227 284 353 418
#     4  11  23  44  71 102 139 184 234 287 348 413
#     4  11  25  40  69 107 134 177 233 294 341 403
#     4  11  22  42  74  99 132 189 240 280 330 419
#     4  11  28  42  68 109 144 177 238 296 338 405
#
# _framework density 24.361737999999999
#
# number of rings (size 3 to 8) (size 9 to 14) (size 15 to 20)
#    0.000    0.800    6.000    1.200    2.800    3.200 
#    3.600    0.000    0.000    0.000    0.000    0.000 
#    0.000    0.000    0.000    0.000    0.000    0.000 
#
# Total GULP energy -111722.040302 kJ/mol
# GULP energy per Si atom -5586.102015 kJ/mol
# Density = 2.430629 g / cm^3
# Si number density = 24.361738 Si / 1000 Ang^3
#
#
#
# Elastic Constant Matrix: (Units=GPa)
#
#
# Indices 1 2 3 4 5 6 
#
# 1 148.1620 50.1771 28.0017 0.0000 24.4090 0.0000
# 2 50.1771 37.9619 7.5030 0.0000 3.6299 0.0000
# 3 28.0017 7.5030 81.1149 0.0000 8.1085 0.0000
# 4 0.0000 0.0000 0.0000 344.5183 0.0000 -135.4516
# 5 24.4090 3.6299 8.1085 0.0000 36.2877 0.0000
# 6 0.0000 0.0000 0.0000 -135.4516 0.0000 117.0665
#
#
#
# Elastic Compliance Matrix: (Units=1/GPa)
#
#
# Indices 1 2 3 4 5 6 
#
# 1 0.014575 -0.018038 -0.002622 0.000000 -0.007414 0.000000
# 2 -0.018038 0.049325 0.000966 0.000000 0.006983 0.000000
# 3 -0.002622 0.000966 0.013274 0.000000 -0.001299 0.000000
# 4 0.000000 0.000000 0.000000 0.005325 0.000000 0.006161
# 5 -0.007414 0.006983 -0.001299 0.000000 0.032136 0.000000
# 6 0.000000 0.000000 0.000000 0.006161 0.000000 0.015671
#
#
# Mechanical properties :
#
#
# Convention : Reuss Voigt Hill
#
# Bulk Modulus (GPa) = 26.46392 48.73361 37.59877
# Shear Modulus (GPa) = 27.42900 111.67829 69.55365
#
# Velocity S-wave (km/s) = 3.35909 6.77799 5.34905
# Velocity P-wave (km/s) = 5.09226 9.01679 7.32235
#
# Compressibility (1/GPa) = 0.03778729
#
# Stress axis : x y z
#
# Youngs Moduli (GPa) = 68.61066 20.27357 75.33651
#
# Poissons Ratio (x) = 0.36569 0.19752
# Poissons Ratio (y) = 1.23758 -0.07279
# Poissons Ratio (z) = 0.17989 -0.01959
#
# Static dielectric constant tensor:
#      x y z
#    x 1.954570 0.000000 -0.076960 
#    y 0.000000 1.978530 0.000000 
#    z -0.076960 0.000000 1.948610 
# 
# From -- ./inp_files/38097.got.cif
#   From: 2010.05.17/outbox.cif.g08.bks.cpg/sg15_20_cif.got.tgz:38097.got - 2010.06.03 18:47:42.
