data_PCOD9303485
_publ_section_title
;
Structure prediction by ZEFSAII (Michael W. Deem and Ramdas Pophale) SiO2 
 PCOD9303485
Probable space group: C 2/C
;
_chemical_formula_sum "Si O2"
_cell_formula_units_Z 32
_cell_length_a 15.928647
_cell_length_b 13.120807
_cell_length_c 11.265430
_cell_angle_alpha 90.000000
_cell_angle_beta 148.585125
_cell_angle_gamma 90.000000
_cell_volume 1227.206429
_symmetry_space_group_name_H-M "C 2/C"
_symmetry_group_IT_number 15
_symmetry_cell_setting 'monoclinic'
loop_
_space_group_symop_operation_xyz
x,y,z
-x,y,1/2-z
-x,-y,-z
x,-y,1/2+z
1/2+x,1/2+y,z
1/2-x,1/2+y,1/2-z
1/2-x,1/2-y,-z
1/2+x,1/2-y,1/2+z
loop_
_atom_site_type_symbol
_atom_site_label
_atom_site_fract_x
_atom_site_fract_y
_atom_site_fract_z
Si Si1 0.500000 0.332615 0.750000
Si Si2 0.500000 0.998065 0.750000
Si Si3 0.145512 0.027472 0.834767
Si Si4 0.387856 0.831872 0.935998
Si Si5 0.464012 0.702817 0.571212
O O1 0.613295 0.405936 0.804084
O O2 0.394549 0.258665 0.541507
O O3 0.441668 0.067299 0.568940
O O4 0.330129 0.950149 0.582882
O O5 0.000000 0.054782 0.750000
O O6 0.089323 0.114291 0.674844
O O7 0.511847 0.799337 0.984104
O O8 0.214401 0.838144 0.666176
O O9 0.500000 0.737815 0.750000
#
# Coordination Sequence:
#
# PCOD9303485 Si02
#       5
#     4   4   8   8   8
#     4   9  20  42  68 105 126 170 232 285 330 384
#     4  11  22  44  74 105 124 174 232 287 336 380
#     4   9  22  44  67  98 138 169 227 276 333 399
#     4  11  23  40  73  99 132 174 227 279 336 396
#     4  11  24  46  64  99 141 181 219 271 339 413
#
# _framework density 26.075482000000001
#
# number of rings (size 3 to 8) (size 9 to 14) (size 15 to 20)
#    0.750    1.000    0.000    3.750    0.000    8.000 
#   11.250    5.000    0.000    0.000    0.000    0.000 
#    0.000    0.000    0.000    0.000    0.000    0.000 
#
# Total GULP energy -89248.092829 kJ/mol
# GULP energy per Si atom -5578.005802 kJ/mol
# Density = 2.601613 g / cm^3
# Si number density = 26.075482 Si / 1000 Ang^3
#
#
#
# Elastic Constant Matrix: (Units=GPa)
#
#
# Indices 1 2 3 4 5 6 
#
# 1 101.6766 22.7475 68.2915 0.0000 5.2958 0.0000
# 2 22.7475 69.9730 32.5406 0.0000 6.2954 0.0000
# 3 68.2915 32.5406 231.8111 0.0000 28.5167 0.0000
# 4 0.0000 0.0000 0.0000 37.2816 0.0000 21.0790
# 5 5.2958 6.2954 28.5167 0.0000 62.3512 0.0000
# 6 0.0000 0.0000 0.0000 21.0790 0.0000 -1.0076
#
#
#
# Elastic Compliance Matrix: (Units=1/GPa)
#
#
# Indices 1 2 3 4 5 6 
#
# 1 0.012708 -0.002584 -0.003476 0.000000 0.000771 0.000000
# 2 -0.002584 0.015836 -0.001369 0.000000 -0.000753 0.000000
# 3 -0.003476 -0.001369 0.005803 0.000000 -0.002221 0.000000
# 4 0.000000 0.000000 0.000000 0.002091 0.000000 0.043742
# 5 0.000771 -0.000753 -0.002221 0.000000 0.017064 0.000000
# 6 0.000000 0.000000 0.000000 0.043742 0.000000 -0.077366
#
#
# Mechanical properties :
#
#
# Convention : Reuss Voigt Hill
#
# Bulk Modulus (GPa) = 51.31179 72.29111 61.80145
# Shear Modulus (GPa) = -1992.05777 38.38378 -976.83699
#
# Velocity S-wave (km/s) = -27.66978 3.84086 -19.37607
# Velocity P-wave (km/s) = 31.64019 6.88866 21.83630
#
# Compressibility (1/GPa) = 0.01948870
#
# Stress axis : x y z
#
# Youngs Moduli (GPa) = 78.69320 63.14840 172.31934
#
# Poissons Ratio (x) = 0.16318 0.59895
# Poissons Ratio (y) = 0.20335 0.23591
# Poissons Ratio (z) = 0.27352 0.08645
#
# Static dielectric constant tensor:
#      x y z
#    x 2.233430 0.000000 -0.136030 
#    y 0.000000 2.310190 0.000000 
#    z -0.136030 0.000000 2.091410 
# 
# From -- ./inp_files/105858.got.cif
#   From: 2010.05.17/outbox.cif.g08.bks.cpg/sg15_53_cif.got.tgz:105858.got - 2010.06.03 18:47:42.
