data_PCOD9303283
_publ_section_title
;
Structure prediction by ZEFSAII (Michael W. Deem and Ramdas Pophale) SiO2 
 PCOD9303283
Probable space group: C 2/C
;
_chemical_formula_sum "Si O2"
_cell_formula_units_Z 52
_cell_length_a 16.946586
_cell_length_b 8.141980
_cell_length_c 25.862986
_cell_angle_alpha 90.000000
_cell_angle_beta 137.609104
_cell_angle_gamma 90.000000
_cell_volume 2405.858212
_symmetry_space_group_name_H-M "C 2/C"
_symmetry_group_IT_number 15
_symmetry_cell_setting 'monoclinic'
loop_
_space_group_symop_operation_xyz
x,y,z
-x,y,1/2-z
-x,-y,-z
x,-y,1/2+z
1/2+x,1/2+y,z
1/2-x,1/2+y,1/2-z
1/2-x,1/2-y,-z
1/2+x,1/2-y,1/2+z
loop_
_atom_site_type_symbol
_atom_site_label
_atom_site_fract_x
_atom_site_fract_y
_atom_site_fract_z
Si Si1 0.794809 0.066176 0.777844
Si Si2 0.929449 0.416335 0.848998
Si Si3 0.269064 0.090469 0.143061
Si Si4 0.469259 0.534534 0.137666
Si Si5 0.000000 0.193581 0.750000
Si Si6 0.358493 0.722697 0.511749
Si Si7 0.929779 0.632241 0.663520
O O1 0.854462 0.246299 0.806225
O O2 0.672849 0.047579 0.687974
O O3 0.771936 0.997795 0.824579
O O4 0.891477 0.945585 0.800570
O O5 0.041234 0.362431 0.936830
O O6 0.995357 0.499619 0.832202
O O7 0.385725 0.199457 0.207913
O O8 0.310542 0.948737 0.123874
O O9 0.181571 0.197490 0.066292
O O10 0.458735 0.415717 0.181931
O O11 0.420047 0.440436 0.064393
O O12 0.412277 0.707393 0.121260
O O13 0.250000 0.750000 0.500000
O O14 0.000000 0.676539 0.750000
#
# Coordination Sequence:
#
# PCOD9303283 Si02
#       7
#     8   8   8   8   4   8   8
#     4  11  23  40  66  98 130 174 220 279 334 406
#     4  11  23  42  68  94 133 175 223 278 343 391
#     4  12  22  40  70  95 136 181 225 272 341 404
#     4  11  25  40  66 103 135 171 229 284 338 395
#     4  12  22  42  70 104 128 186 234 276 330 414
#     4  11  22  43  68 100 139 182 220 282 340 407
#     4  12  22  40  65  98 126 174 229 278 324 402
#
# _framework density 21.613910000000001
#
# number of rings (size 3 to 8) (size 9 to 14) (size 15 to 20)
#    0.000    0.615    6.154    3.692    0.000    3.077 
#    0.000    0.000    0.000    7.385    0.000    0.000 
#    0.000    0.000    0.000    0.000    0.000    0.000 
#
# Total GULP energy -145118.575412 kJ/mol
# GULP energy per Si atom -5581.483670 kJ/mol
# Density = 2.156472 g / cm^3
# Si number density = 21.613910 Si / 1000 Ang^3
#
#
#
# Elastic Constant Matrix: (Units=GPa)
#
#
# Indices 1 2 3 4 5 6 
#
# 1 92.5335 29.0086 -1.8918 0.0000 0.8742 0.0000
# 2 29.0086 89.7869 18.6339 0.0000 -10.5381 0.0000
# 3 -1.8918 18.6339 88.3950 0.0000 -3.0754 0.0000
# 4 0.0000 0.0000 0.0000 25.9467 0.0000 -0.5526
# 5 0.8742 -10.5381 -3.0754 0.0000 27.7708 0.0000
# 6 0.0000 0.0000 0.0000 -0.5526 0.0000 40.8648
#
#
#
# Elastic Compliance Matrix: (Units=1/GPa)
#
#
# Indices 1 2 3 4 5 6 
#
# 1 0.012231 -0.004412 0.001125 0.000000 -0.001935 0.000000
# 2 -0.004412 0.013739 -0.002815 0.000000 0.005041 0.000000
# 3 0.001125 -0.002815 0.011938 0.000000 0.000218 0.000000
# 4 0.000000 0.000000 0.000000 0.038552 0.000000 0.000521
# 5 -0.001935 0.005041 0.000218 0.000000 0.038007 0.000000
# 6 0.000000 0.000000 0.000000 0.000521 0.000000 0.024478
#
#
# Mechanical properties :
#
#
# Convention : Reuss Voigt Hill
#
# Bulk Modulus (GPa) = 38.90684 40.24631 39.57657
# Shear Modulus (GPa) = 31.30520 33.91412 32.60966
#
# Velocity S-wave (km/s) = 3.80989 3.96547 3.88846
# Velocity P-wave (km/s) = 6.11503 6.29504 6.20569
#
# Compressibility (1/GPa) = 0.02570242
#
# Stress axis : x y z
#
# Youngs Moduli (GPa) = 81.75701 72.78633 83.76622
#
# Poissons Ratio (x) = 0.32115 -0.09420
# Poissons Ratio (y) = 0.36073 0.23582
# Poissons Ratio (z) = -0.09194 0.20491
#
# Static dielectric constant tensor:
#      x y z
#    x 1.804870 0.000000 0.013270 
#    y 0.000000 1.836010 0.000000 
#    z 0.013270 0.000000 1.834850 
# 
# From -- ./inp_files/298422.got.cif
#   From: 2010.05.17/outbox.cif.g08.bks.cpg/sg15_150_cif.got.tgz:298422.got - 2010.06.03 18:47:42.
