data_PCOD9303203
_publ_section_title
;
Structure prediction by ZEFSAII (Michael W. Deem and Ramdas Pophale) SiO2 
 PCOD9303203
Probable space group: C 2/C
;
_chemical_formula_sum "Si O2"
_cell_formula_units_Z 40
_cell_length_a 21.076698
_cell_length_b 9.732834
_cell_length_c 10.176597
_cell_angle_alpha 90.000000
_cell_angle_beta 136.402477
_cell_angle_gamma 90.000000
_cell_volume 1439.575045
_symmetry_space_group_name_H-M "C 2/C"
_symmetry_group_IT_number 15
_symmetry_cell_setting 'monoclinic'
loop_
_space_group_symop_operation_xyz
x,y,z
-x,y,1/2-z
-x,-y,-z
x,-y,1/2+z
1/2+x,1/2+y,z
1/2-x,1/2+y,1/2-z
1/2-x,1/2-y,-z
1/2+x,1/2-y,1/2+z
loop_
_atom_site_type_symbol
_atom_site_label
_atom_site_fract_x
_atom_site_fract_y
_atom_site_fract_z
Si Si1 0.147238 0.270250 0.665092
Si Si2 0.858902 0.949202 0.123522
Si Si3 0.000000 0.148168 0.250000
Si Si4 0.851855 0.767242 0.880070
Si Si5 0.658547 0.952091 0.323001
Si Si6 0.000000 0.414076 0.750000
O O1 0.130521 0.190288 0.777283
O O2 0.072841 0.229345 0.446883
O O3 0.249353 0.225271 0.774867
O O4 0.147782 0.433490 0.690871
O O5 0.858743 0.912482 0.966416
O O6 0.762443 0.015429 0.024117
O O7 0.943285 0.050319 0.264663
O O8 0.849576 0.705497 0.730758
O O9 0.938994 0.683856 0.066287
O O10 0.575134 0.994377 0.289451
#
# Coordination Sequence:
#
# PCOD9303203 Si02
#       6
#     8   8   4   8   8   4
#     4  11  23  45  71 105 150 189 243 307 358 433
#     4  11  22  45  73 103 147 200 239 294 371 434
#     4  12  25  43  78 104 140 191 255 302 358 430
#     4  11  22  42  71 106 143 193 239 299 356 441
#     4  11  23  42  73 109 147 189 247 294 364 435
#     4  12  21  41  72 100 144 197 233 290 364 434
#
# _framework density 27.785979000000001
#
# number of rings (size 3 to 8) (size 9 to 14) (size 15 to 20)
#    0.000    0.800    6.000    3.000    0.000    0.800 
#    0.000    0.000    0.000    6.000    0.000    0.000 
#    0.000    0.000    0.000    0.000    0.000    0.000 
#
# Total GULP energy -112118.891093 kJ/mol
# GULP energy per Si atom -5605.944555 kJ/mol
# Density = 2.772274 g / cm^3
# Si number density = 27.785979 Si / 1000 Ang^3
#
#
#
# Elastic Constant Matrix: (Units=GPa)
#
#
# Indices 1 2 3 4 5 6 
#
# 1 120.7673 32.3933 34.0570 0.0000 53.8860 0.0000
# 2 32.3933 115.0606 40.4593 0.0000 17.7594 0.0000
# 3 34.0570 40.4593 168.1818 0.0000 40.1171 0.0000
# 4 0.0000 0.0000 0.0000 29.3356 0.0000 -0.7773
# 5 53.8860 17.7594 40.1171 0.0000 52.2405 0.0000
# 6 0.0000 0.0000 0.0000 -0.7773 0.0000 48.0470
#
#
#
# Elastic Compliance Matrix: (Units=1/GPa)
#
#
# Indices 1 2 3 4 5 6 
#
# 1 0.016006 -0.002391 0.001320 0.000000 -0.016711 0.000000
# 2 -0.002391 0.009992 -0.002078 0.000000 0.000665 0.000000
# 3 0.001320 -0.002078 0.007756 0.000000 -0.006611 0.000000
# 4 0.000000 0.000000 0.000000 0.034103 0.000000 0.000552
# 5 -0.016711 0.000665 -0.006611 0.000000 0.041230 0.000000
# 6 0.000000 0.000000 0.000000 0.000552 0.000000 0.020822
#
#
# Mechanical properties :
#
#
# Convention : Reuss Voigt Hill
#
# Bulk Modulus (GPa) = 36.42317 68.64763 52.53540
# Shear Modulus (GPa) = 34.39766 45.73129 40.06448
#
# Velocity S-wave (km/s) = 3.52227 4.06130 3.80135
# Velocity P-wave (km/s) = 5.44782 6.83752 6.18185
#
# Compressibility (1/GPa) = 0.02745505
#
# Stress axis : x y z
#
# Youngs Moduli (GPa) = 62.47737 100.07650 128.94021
#
# Poissons Ratio (x) = 0.23929 -0.17022
# Poissons Ratio (y) = 0.14939 0.26799
# Poissons Ratio (z) = -0.08248 0.20800
#
# Static dielectric constant tensor:
#      x y z
#    x 2.204280 0.000000 -0.097790 
#    y 0.000000 2.129180 0.000000 
#    z -0.097790 0.000000 2.125590 
# 
# From -- ./inp_files/111897.got.cif
#   From: 2010.05.17/outbox.cif.g08.bks.cpg/sg15_56_cif.got.tgz:111897.got - 2010.06.03 18:47:42.
