data_PCOD9303415
_publ_section_title
;
Structure prediction by ZEFSAII (Michael W. Deem and Ramdas Pophale) SiO2 
 PCOD9303415
Probable space group: C 2/C
;
_chemical_formula_sum "Si O2"
_cell_formula_units_Z 28
_cell_length_a 22.260657
_cell_length_b 14.236077
_cell_length_c 8.019121
_cell_angle_alpha 90.000000
_cell_angle_beta 148.087278
_cell_angle_gamma 90.000000
_cell_volume 1343.396687
_symmetry_space_group_name_H-M "C 2/C"
_symmetry_group_IT_number 15
_symmetry_cell_setting 'monoclinic'
loop_
_space_group_symop_operation_xyz
x,y,z
-x,y,1/2-z
-x,-y,-z
x,-y,1/2+z
1/2+x,1/2+y,z
1/2-x,1/2+y,1/2-z
1/2-x,1/2-y,-z
1/2+x,1/2-y,1/2+z
loop_
_atom_site_type_symbol
_atom_site_label
_atom_site_fract_x
_atom_site_fract_y
_atom_site_fract_z
Si Si1 0.195917 0.117763 0.775017
Si Si2 0.462659 0.104662 0.353480
Si Si3 0.000000 0.735543 0.750000
Si Si4 0.415562 0.555974 0.676272
O O1 0.111666 0.198990 0.516604
O O2 0.171085 0.112573 0.914425
O O3 0.151901 0.021558 0.587047
O O4 0.327476 0.122177 0.045062
O O5 0.500000 0.118791 0.250000
O O6 0.510009 0.174016 0.606747
O O7 0.500000 0.000000 0.500000
O O8 0.500000 0.610370 0.750000
O O9 0.500000 0.500000 0.000000
#
# Coordination Sequence:
#
# PCOD9303415 Si02
#       4
#     8   8   4   8
#     4  11  22  44  69 106 139 179 237 291 335 423
#     4  12  27  49  70  98 143 194 228 283 363 420
#     4  12  26  46  70 106 138 178 246 296 336 410
#     4   9  17  35  66 100 137 174 220 283 352 405
#
# _framework density 20.842689
#
# number of rings (size 3 to 8) (size 9 to 14) (size 15 to 20)
#    0.000    1.143    5.714    2.571    0.000    2.286 
#    0.000    0.000    0.000    0.000    0.000    0.000 
#    0.000    0.000    0.000    0.000    0.000    0.000 
#
# Total GULP energy -78185.481010 kJ/mol
# GULP energy per Si atom -5584.677215 kJ/mol
# Density = 2.079525 g / cm^3
# Si number density = 20.842689 Si / 1000 Ang^3
#
#
#
# Elastic Constant Matrix: (Units=GPa)
#
#
# Indices 1 2 3 4 5 6 
#
# 1 241.0122 67.2269 91.0922 0.0000 21.7717 0.0000
# 2 67.2269 108.6200 69.9431 0.0000 5.7867 0.0000
# 3 91.0922 69.9431 101.7193 0.0000 18.7320 0.0000
# 4 0.0000 0.0000 0.0000 14.8759 0.0000 0.3082
# 5 21.7717 5.7867 18.7320 0.0000 40.0662 0.0000
# 6 0.0000 0.0000 0.0000 0.3082 0.0000 20.9727
#
#
#
# Elastic Compliance Matrix: (Units=1/GPa)
#
#
# Indices 1 2 3 4 5 6 
#
# 1 0.006320 -0.000594 -0.005071 0.000000 -0.000977 0.000000
# 2 -0.000594 0.016961 -0.011751 0.000000 0.003367 0.000000
# 3 -0.005071 -0.011751 0.023670 0.000000 -0.006614 0.000000
# 4 0.000000 0.000000 0.000000 0.067243 0.000000 -0.000988
# 5 -0.000977 0.003367 -0.006614 0.000000 0.028096 0.000000
# 6 0.000000 0.000000 0.000000 -0.000988 0.000000 0.047695
#
#
# Mechanical properties :
#
#
# Convention : Reuss Voigt Hill
#
# Bulk Modulus (GPa) = 82.51203 100.87509 91.69356
# Shear Modulus (GPa) = 21.84765 30.05560 25.95163
#
# Velocity S-wave (km/s) = 3.24113 3.80151 3.53245
# Velocity P-wave (km/s) = 7.32670 8.23238 7.79271
#
# Compressibility (1/GPa) = 0.01211945
#
# Stress axis : x y z
#
# Youngs Moduli (GPa) = 158.23257 58.95763 42.24707
#
# Poissons Ratio (x) = 0.03502 0.21424
# Poissons Ratio (y) = 0.09398 0.49644
# Poissons Ratio (z) = 0.80242 0.69281
#
# Static dielectric constant tensor:
#      x y z
#    x 1.796110 0.000000 0.004090 
#    y 0.000000 1.733600 0.000000 
#    z 0.004090 0.000000 1.783870 
# 
# From -- ./inp_files/27375.got.cif
#   From: 2010.05.17/outbox.cif.g08.bks.cpg/sg15_14_cif.got.tgz:27375.got - 2010.06.03 18:47:42.
