data_PCOD9303866
_publ_section_title
;
Structure prediction by ZEFSAII (Michael W. Deem and Ramdas Pophale) SiO2 
 PCOD9303866
Probable space group: C 2/C
;
_chemical_formula_sum "Si O2"
_cell_formula_units_Z 52
_cell_length_a 21.957535
_cell_length_b 21.275533
_cell_length_c 12.080640
_cell_angle_alpha 90.000000
_cell_angle_beta 26.982199
_cell_angle_gamma 90.000000
_cell_volume 2560.565118
_symmetry_space_group_name_H-M "C 2/C"
_symmetry_group_IT_number 15
_symmetry_cell_setting 'monoclinic'
loop_
_space_group_symop_operation_xyz
x,y,z
-x,y,1/2-z
-x,-y,-z
x,-y,1/2+z
1/2+x,1/2+y,z
1/2-x,1/2+y,1/2-z
1/2-x,1/2-y,-z
1/2+x,1/2-y,1/2+z
loop_
_atom_site_type_symbol
_atom_site_label
_atom_site_fract_x
_atom_site_fract_y
_atom_site_fract_z
Si Si1 0.569452 0.526046 0.780948
Si Si2 0.261150 0.781356 0.861152
Si Si3 0.651173 0.062904 0.082227
Si Si4 0.500000 0.949099 0.250000
Si Si5 0.743086 0.841810 0.248742
Si Si6 0.000000 0.866659 0.250000
Si Si7 0.000000 0.913531 0.750000
Si Si8 0.510528 0.875593 0.465430
O O1 0.711482 0.555680 0.575512
O O2 0.479340 0.582827 0.881057
O O3 0.586014 0.464231 0.679759
O O4 0.500000 0.500000 0.000000
O O5 0.258597 0.728385 0.770165
O O6 0.397609 0.821518 0.640068
O O7 0.250000 0.750000 0.000000
O O8 0.130759 0.824908 0.055693
O O9 0.541725 0.076779 0.354056
O O10 0.622220 0.999090 0.061665
O O11 0.669019 0.119346 0.966730
O O12 0.511460 0.908789 0.343830
O O13 0.650624 0.849037 0.288593
O O14 0.890365 0.871922 0.991169
#
# Coordination Sequence:
#
# PCOD9303866 Si02
#       8
#     8   8   8   4   8   4   4   8
#     4  11  23  40  67 103 141 173 223 284 356 415
#     4  12  25  45  73 100 138 185 247 286 338 415
#     4  12  23  42  71 104 141 183 230 286 347 422
#     4  12  28  40  72 104 148 174 226 290 360 422
#     4  12  25  47  71 102 140 190 230 295 344 416
#     4  11  24  41  68 105 130 179 232 288 338 419
#     4  11  26  43  68 103 148 179 228 286 368 415
#     4  12  26  48  70 107 139 186 239 287 355 414
#
# _framework density 20.308017
#
# number of rings (size 3 to 8) (size 9 to 14) (size 15 to 20)
#    0.000    0.308    6.154    2.308    4.308    0.615 
#    0.000    1.538    0.000    0.000    0.000    0.000 
#    0.000    0.000    0.000    0.000    0.000    0.000 
#
# Total GULP energy -145170.284818 kJ/mol
# GULP energy per Si atom -5583.472493 kJ/mol
# Density = 2.026180 g / cm^3
# Si number density = 20.308017 Si / 1000 Ang^3
#
#
#
# Elastic Constant Matrix: (Units=GPa)
#
#
# Indices 1 2 3 4 5 6 
#
# 1 125.4778 66.7509 31.2778 -0.0009 -5.8341 0.0002
# 2 66.7509 139.4761 33.9281 -0.0013 -1.3465 0.0010
# 3 31.2778 33.9281 47.9393 -0.0021 -6.4151 0.0014
# 4 -0.0009 -0.0013 -0.0021 30.3716 0.0020 -6.3801
# 5 -5.8341 -1.3465 -6.4151 0.0020 32.8768 -0.0012
# 6 0.0002 0.0010 0.0014 -6.3801 -0.0012 35.6517
#
#
#
# Elastic Compliance Matrix: (Units=1/GPa)
#
#
# Indices 1 2 3 4 5 6 
#
# 1 0.011419 -0.004441 -0.004170 0.000000 0.001031 0.000000
# 2 -0.004441 0.010412 -0.004641 0.000000 -0.001267 0.000000
# 3 -0.004170 -0.004641 0.027457 0.000001 0.004428 -0.000001
# 4 0.000000 0.000000 0.000001 0.034212 -0.000002 0.006122
# 5 0.001031 -0.001267 0.004428 -0.000002 0.031412 0.000001
# 6 0.000000 0.000000 -0.000001 0.006122 0.000001 0.029145
#
#
# Mechanical properties :
#
#
# Convention : Reuss Voigt Hill
#
# Bulk Modulus (GPa) = 43.88753 64.08965 53.98859
# Shear Modulus (GPa) = 28.06570 31.84245 29.95408
#
# Velocity S-wave (km/s) = 3.72156 3.96406 3.84472
# Velocity P-wave (km/s) = 6.33439 7.25114 6.80821
#
# Compressibility (1/GPa) = 0.02278552
#
# Stress axis : x y z
#
# Youngs Moduli (GPa) = 87.57171 96.04618 36.42053
#
# Poissons Ratio (x) = 0.42652 0.15186
# Poissons Ratio (y) = 0.38889 0.16902
# Poissons Ratio (z) = 0.36513 0.44573
#
# Static dielectric constant tensor:
#      x y z
#    x 1.745110 0.000000 -0.003130 
#    y 0.000000 1.683100 0.000000 
#    z -0.003130 0.000000 1.704290 
# 
# From -- ./inp_files/114381.got.cif
#   From: 2010.05.17/outbox.cif.g08.bks.cpg/sg15_58_cif.got.tgz:114381.got - 2010.06.03 18:47:42.
