data_PCOD9303871
_publ_section_title
;
Structure prediction by ZEFSAII (Michael W. Deem and Ramdas Pophale) SiO2 
 PCOD9303871
Probable space group: C 2/C
;
_chemical_formula_sum "Si O2"
_cell_formula_units_Z 60
_cell_length_a 12.560477
_cell_length_b 18.476066
_cell_length_c 25.456846
_cell_angle_alpha 90.000000
_cell_angle_beta 151.900205
_cell_angle_gamma 90.000000
_cell_volume 2782.589776
_symmetry_space_group_name_H-M "C 2/C"
_symmetry_group_IT_number 15
_symmetry_cell_setting 'monoclinic'
loop_
_space_group_symop_operation_xyz
x,y,z
-x,y,1/2-z
-x,-y,-z
x,-y,1/2+z
1/2+x,1/2+y,z
1/2-x,1/2+y,1/2-z
1/2-x,1/2-y,-z
1/2+x,1/2-y,1/2+z
loop_
_atom_site_type_symbol
_atom_site_label
_atom_site_fract_x
_atom_site_fract_y
_atom_site_fract_z
Si Si1 0.500000 0.644966 0.250000
Si Si2 0.347349 0.316534 0.078353
Si Si3 0.135604 0.412545 0.909657
Si Si4 0.966532 0.292772 0.996277
Si Si5 0.846368 0.142271 0.287990
Si Si6 0.436888 0.623744 0.446309
Si Si7 0.617095 0.191880 0.678153
Si Si8 0.911126 0.438553 0.154187
O O1 0.266527 0.687607 0.134999
O O2 0.451475 0.603837 0.283170
O O3 0.609828 0.308826 0.208083
O O4 0.250000 0.250000 0.000000
O O5 0.325595 0.388530 0.033399
O O6 0.180067 0.319821 0.055127
O O7 0.225900 0.392529 0.891305
O O8 0.066379 0.495766 0.876764
O O9 0.921650 0.364647 0.832264
O O10 0.992522 0.206435 0.012264
O O11 0.994451 0.320149 0.068555
O O12 0.929511 0.225709 0.323423
O O13 0.897766 0.113206 0.367750
O O14 0.648643 0.574824 0.550958
O O15 0.526386 0.133119 0.680002
O O16 0.000000 0.457781 0.250000
#
# Coordination Sequence:
#
# PCOD9303871 Si02
#       8
#     4   8   8   8   8   8   8   8
#     4  12  22  38  64 100 136 174 226 288 350 400
#     4  12  21  41  73 102 133 179 237 291 345 409
#     4  12  24  43  68 103 135 178 231 283 347 416
#     4  11  23  40  69 105 134 174 242 294 343 405
#     4  11  23  40  68  96 132 176 236 287 339 395
#     4  11  23  40  67  98 138 178 224 289 345 412
#     4  11  24  43  66 102 138 183 230 294 342 412
#     4  12  27  42  65 100 146 184 224 277 359 424
#
# _framework density 21.562646000000001
#
# number of rings (size 3 to 8) (size 9 to 14) (size 15 to 20)
#    0.000    0.533    4.000    4.400    3.733    5.333 
#    0.000    0.667    2.933    0.000    0.000    0.000 
#    0.000    0.000    0.000    0.000    0.000    0.000 
#
# Total GULP energy -167674.553795 kJ/mol
# GULP energy per Si atom -5589.151793 kJ/mol
# Density = 2.151357 g / cm^3
# Si number density = 21.562646 Si / 1000 Ang^3
#
#
#
# Elastic Constant Matrix: (Units=GPa)
#
#
# Indices 1 2 3 4 5 6 
#
# 1 129.8977 8.5964 18.6090 0.0000 3.7889 0.0002
# 2 8.5964 50.1637 -3.5933 -0.0001 -2.0155 0.0002
# 3 18.6090 -3.5933 89.0258 -0.0039 -1.6407 -0.0002
# 4 0.0000 -0.0001 -0.0039 7.4435 0.0000 -11.2505
# 5 3.7889 -2.0155 -1.6407 0.0000 34.5579 -0.0001
# 6 0.0002 0.0002 -0.0002 -11.2505 -0.0001 20.1370
#
#
#
# Elastic Compliance Matrix: (Units=1/GPa)
#
#
# Indices 1 2 3 4 5 6 
#
# 1 0.008086 -0.001555 -0.001773 -0.000007 -0.001061 -0.000004
# 2 -0.001555 0.020342 0.001172 0.000005 0.001413 0.000003
# 3 -0.001773 0.001172 0.011666 0.000040 0.000817 0.000023
# 4 -0.000007 0.000005 0.000040 0.863655 0.000003 0.482522
# 5 -0.001061 0.001413 0.000817 0.000003 0.029174 0.000002
# 6 -0.000004 0.000003 0.000023 0.482522 0.000002 0.319244
#
#
# Mechanical properties :
#
#
# Convention : Reuss Voigt Hill
#
# Bulk Modulus (GPa) = 27.94675 35.14570 31.54623
# Shear Modulus (GPa) = 3.94196 28.79270 16.36733
#
# Velocity S-wave (km/s) = 1.35355 3.65815 2.75809
# Velocity P-wave (km/s) = 3.92832 5.84615 4.98042
#
# Compressibility (1/GPa) = 0.03578233
#
# Stress axis : x y z
#
# Youngs Moduli (GPa) = 123.66764 49.15941 85.72224
#
# Poissons Ratio (x) = 0.07646 0.15195
# Poissons Ratio (y) = 0.19234 -0.10048
# Poissons Ratio (z) = 0.21921 -0.05762
#
# Static dielectric constant tensor:
#      x y z
#    x 1.786490 0.000000 -0.019590 
#    y 0.000000 1.826010 0.000000 
#    z -0.019590 0.000000 1.875640 
# 
# From -- ./inp_files/271044.got.cif
#   From: 2010.05.17/outbox.cif.g08.bks.cpg/sg15_136_cif.got.tgz:271044.got - 2010.06.03 18:47:42.
