data_PCOD9303179
_publ_section_title
;
Structure prediction by ZEFSAII (Michael W. Deem and Ramdas Pophale) SiO2 
 PCOD9303179
Probable space group: C 2/C
;
_chemical_formula_sum "Si O2"
_cell_formula_units_Z 60
_cell_length_a 9.097196
_cell_length_b 17.520625
_cell_length_c 21.123787
_cell_angle_alpha 90.000000
_cell_angle_beta 123.706419
_cell_angle_gamma 90.000000
_cell_volume 2800.888696
_symmetry_space_group_name_H-M "C 2/C"
_symmetry_group_IT_number 15
_symmetry_cell_setting 'monoclinic'
loop_
_space_group_symop_operation_xyz
x,y,z
-x,y,1/2-z
-x,-y,-z
x,-y,1/2+z
1/2+x,1/2+y,z
1/2-x,1/2+y,1/2-z
1/2-x,1/2-y,-z
1/2+x,1/2-y,1/2+z
loop_
_atom_site_type_symbol
_atom_site_label
_atom_site_fract_x
_atom_site_fract_y
_atom_site_fract_z
Si Si1 0.118240 0.165868 0.175579
Si Si2 0.746374 0.534172 0.895637
Si Si3 0.359998 0.023042 0.544623
Si Si4 0.580095 0.791552 0.926794
Si Si5 0.636764 0.070059 0.343007
Si Si6 0.721090 0.817627 0.541779
Si Si7 0.500000 0.569532 0.250000
Si Si8 0.844859 0.804890 0.170718
O O1 0.182334 0.101721 0.142081
O O2 0.141246 0.125371 0.249083
O O3 0.226856 0.241420 0.179685
O O4 0.909725 0.176088 0.120960
O O5 0.598830 0.485482 0.823764
O O6 0.757954 0.622378 0.878992
O O7 0.936780 0.501283 0.921456
O O8 0.735381 0.527241 0.968782
O O9 0.323374 0.107287 0.509511
O O10 0.339946 0.009163 0.614478
O O11 0.597771 0.870572 0.891307
O O12 0.432105 0.800608 0.944493
O O13 0.550024 0.734796 0.861194
O O14 0.750000 0.750000 0.000000
O O15 0.500000 0.070974 0.250000
O O16 0.750000 0.750000 0.500000
O O17 0.000000 0.837579 0.250000
#
# Coordination Sequence:
#
# PCOD9303179 Si02
#       8
#     8   8   8   8   8   8   4   8
#     4  11  25  41  68  98 141 181 234 295 355 432
#     4  11  22  43  71 104 135 187 238 291 354 438
#     4  11  23  42  72  95 139 187 230 287 366 432
#     4  11  22  42  69  96 135 186 235 285 354 440
#     4  11  24  44  69 100 135 186 241 286 357 437
#     4  12  25  43  67 103 137 181 235 300 360 430
#     4  12  24  44  70 104 144 184 238 298 366 428
#     4  11  24  43  69 102 139 188 242 292 352 436
#
# _framework density 21.421773999999999
#
# number of rings (size 3 to 8) (size 9 to 14) (size 15 to 20)
#    0.000    0.800    2.000    8.000    3.733    0.533 
#    2.400    0.000    5.867    0.000    0.000    0.000 
#    0.000    0.000    0.000    0.000    0.000    0.000 
#
# Total GULP energy -167355.431689 kJ/mol
# GULP energy per Si atom -5578.514390 kJ/mol
# Density = 2.137302 g / cm^3
# Si number density = 21.421774 Si / 1000 Ang^3
#
#
#
# Elastic Constant Matrix: (Units=GPa)
#
#
# Indices 1 2 3 4 5 6 
#
# 1 133.7918 40.8420 41.1830 0.0000 -17.8845 0.0000
# 2 40.8420 103.2048 51.1671 0.0000 -17.5598 0.0000
# 3 41.1830 51.1671 124.0399 0.0000 -3.8830 0.0000
# 4 0.0000 0.0000 0.0000 37.9408 0.0000 -5.8359
# 5 -17.8845 -17.5598 -3.8830 0.0000 40.9672 0.0000
# 6 0.0000 0.0000 0.0000 -5.8359 0.0000 29.8450
#
#
#
# Elastic Compliance Matrix: (Units=1/GPa)
#
#
# Indices 1 2 3 4 5 6 
#
# 1 0.009141 -0.002093 -0.002081 0.000000 0.002896 0.000000
# 2 -0.002093 0.013661 -0.004800 0.000000 0.004487 0.000000
# 3 -0.002081 -0.004800 0.010672 0.000000 -0.001954 0.000000
# 4 0.000000 0.000000 0.000000 0.027174 0.000000 0.005314
# 5 0.002896 0.004487 -0.001954 0.000000 0.027412 0.000000
# 6 0.000000 0.000000 0.000000 0.005314 0.000000 0.034545
#
#
# Mechanical properties :
#
#
# Convention : Reuss Voigt Hill
#
# Bulk Modulus (GPa) = 64.40824 69.71342 67.06083
# Shear Modulus (GPa) = 34.31060 36.94023 35.62541
#
# Velocity S-wave (km/s) = 4.00643 4.15712 4.08247
# Velocity P-wave (km/s) = 7.17871 7.46030 7.32086
#
# Compressibility (1/GPa) = 0.01552596
#
# Stress axis : x y z
#
# Youngs Moduli (GPa) = 109.39873 73.20216 93.70697
#
# Poissons Ratio (x) = 0.15321 0.19499
# Poissons Ratio (y) = 0.22897 0.44977
# Poissons Ratio (z) = 0.22765 0.35136
#
# Static dielectric constant tensor:
#      x y z
#    x 1.771610 0.000000 -0.010170 
#    y 0.000000 1.890260 0.000000 
#    z -0.010170 0.000000 1.925470 
# 
# From -- ./inp_files/233090.got.cif
#   From: 2010.05.17/outbox.cif.g08.bks.cpg/sg15_117_cif.got.tgz:233090.got - 2010.06.03 18:47:42.
