data_PCOD9303281
_publ_section_title
;
Structure prediction by ZEFSAII (Michael W. Deem and Ramdas Pophale) SiO2 
 PCOD9303281
Probable space group: C 2/C
;
_chemical_formula_sum "Si O2"
_cell_formula_units_Z 64
_cell_length_a 22.391744
_cell_length_b 9.491876
_cell_length_c 26.245405
_cell_angle_alpha 90.000000
_cell_angle_beta 31.309168
_cell_angle_gamma 90.000000
_cell_volume 2898.738630
_symmetry_space_group_name_H-M "C 2/C"
_symmetry_group_IT_number 15
_symmetry_cell_setting 'monoclinic'
loop_
_space_group_symop_operation_xyz
x,y,z
-x,y,1/2-z
-x,-y,-z
x,-y,1/2+z
1/2+x,1/2+y,z
1/2-x,1/2+y,1/2-z
1/2-x,1/2-y,-z
1/2+x,1/2-y,1/2+z
loop_
_atom_site_type_symbol
_atom_site_label
_atom_site_fract_x
_atom_site_fract_y
_atom_site_fract_z
Si Si1 0.599319 0.442317 0.810810
Si Si2 0.892664 0.944345 0.298579
Si Si3 0.900256 0.566408 0.782413
Si Si4 0.244495 0.812166 0.560860
Si Si5 0.995326 0.356837 0.101974
Si Si6 0.001195 0.862109 0.034529
Si Si7 0.266073 0.810313 0.836918
Si Si8 0.648371 0.104117 0.338941
O O1 0.565821 0.449390 0.776214
O O2 0.560987 0.296266 0.864597
O O3 0.537394 0.571941 0.883482
O O4 0.737011 0.448874 0.716707
O O5 0.821798 0.827561 0.320391
O O6 0.000000 0.881330 0.250000
O O7 0.817807 0.037286 0.391463
O O8 0.828904 0.699840 0.853854
O O9 0.811828 0.440236 0.837287
O O10 0.000000 0.532566 0.750000
O O11 0.958710 0.597931 0.685689
O O12 0.250000 0.750000 0.500000
O O13 0.368566 0.836108 0.495817
O O14 0.941166 0.476690 0.105324
O O15 0.911792 0.735966 0.089219
O O16 0.129217 0.803185 0.940043
O O17 0.000000 0.000000 0.000000
O O18 0.307971 0.842256 0.748685
#
# Coordination Sequence:
#
# PCOD9303281 Si02
#       8
#     8   8   8   8   8   8   8   8
#     4  12  24  45  74 100 144 189 237 299 362 430
#     4  12  26  47  69 103 147 192 239 296 364 430
#     4  11  22  43  67  98 137 181 231 292 355 420
#     4  12  23  43  70 103 138 183 244 293 355 432
#     4  11  24  41  69 102 138 181 235 297 358 426
#     4  12  25  46  75 108 141 188 244 290 363 441
#     4  11  25  45  70 102 145 187 236 291 363 433
#     4  11  25  45  70 104 144 186 236 295 367 427
#
# _framework density 22.078569000000002
#
# number of rings (size 3 to 8) (size 9 to 14) (size 15 to 20)
#    0.000    0.500    5.000    3.750    1.750    1.000 
#    0.000    3.125    0.000    0.000    0.000    0.000 
#    0.000    0.000    0.000    0.000    0.000    0.000 
#
# Total GULP energy -179185.728110 kJ/mol
# GULP energy per Si atom -5599.554003 kJ/mol
# Density = 2.202832 g / cm^3
# Si number density = 22.078569 Si / 1000 Ang^3
#
#
#
# Elastic Constant Matrix: (Units=GPa)
#
#
# Indices 1 2 3 4 5 6 
#
# 1 92.3394 25.0028 45.6745 -0.0001 -18.6756 0.0000
# 2 25.0028 77.4459 14.5562 0.0000 -2.1357 -0.0001
# 3 45.6745 14.5562 89.3559 -0.0001 -22.2383 0.0000
# 4 -0.0001 0.0000 -0.0001 45.1925 0.0000 -3.3947
# 5 -18.6756 -2.1357 -22.2383 0.0000 39.5514 0.0000
# 6 0.0000 -0.0001 0.0000 -3.3947 0.0000 29.0239
#
#
#
# Elastic Compliance Matrix: (Units=1/GPa)
#
#
# Indices 1 2 3 4 5 6 
#
# 1 0.015833 -0.003774 -0.006591 0.000000 0.003567 0.000000
# 2 -0.003774 0.014231 -0.000746 0.000000 -0.001433 0.000000
# 3 -0.006591 -0.000746 0.016158 0.000000 0.005933 0.000000
# 4 0.000000 0.000000 0.000000 0.022324 0.000000 0.002611
# 5 0.003567 -0.001433 0.005933 0.000000 0.030226 0.000000
# 6 0.000000 0.000000 0.000000 0.002611 0.000000 0.034760
#
#
# Mechanical properties :
#
#
# Convention : Reuss Voigt Hill
#
# Bulk Modulus (GPa) = 41.66489 47.73425 44.69957
# Shear Modulus (GPa) = 30.53372 34.34741 32.44056
#
# Velocity S-wave (km/s) = 3.72285 3.94850 3.83733
# Velocity P-wave (km/s) = 6.11487 6.51572 6.31848
#
# Compressibility (1/GPa) = 0.02400102
#
# Stress axis : x y z
#
# Youngs Moduli (GPa) = 63.15961 70.26710 61.88899
#
# Poissons Ratio (x) = 0.26522 0.40788
# Poissons Ratio (y) = 0.23839 0.04615
# Poissons Ratio (z) = 0.41626 0.05239
#
# Static dielectric constant tensor:
#      x y z
#    x 1.824980 0.000000 0.045450 
#    y 0.000000 1.825950 0.000000 
#    z 0.045450 0.000000 1.817370 
# 
# From -- ./inp_files/318602.got.cif
#   From: 2010.05.17/outbox.cif.g08.bks.cpg/sg15_160_cif.got.tgz:318602.got - 2010.06.03 18:47:42.
