data_PCOD9303157
_publ_section_title
;
Structure prediction by ZEFSAII (Michael W. Deem and Ramdas Pophale) SiO2 
 PCOD9303157
Probable space group: C 2/C
;
_chemical_formula_sum "Si O2"
_cell_formula_units_Z 48
_cell_length_a 11.679133
_cell_length_b 15.807645
_cell_length_c 28.433594
_cell_angle_alpha 90.000000
_cell_angle_beta 154.882093
_cell_angle_gamma 90.000000
_cell_volume 2228.277371
_symmetry_space_group_name_H-M "C 2/C"
_symmetry_group_IT_number 15
_symmetry_cell_setting 'monoclinic'
loop_
_space_group_symop_operation_xyz
x,y,z
-x,y,1/2-z
-x,-y,-z
x,-y,1/2+z
1/2+x,1/2+y,z
1/2-x,1/2+y,1/2-z
1/2-x,1/2-y,-z
1/2+x,1/2-y,1/2+z
loop_
_atom_site_type_symbol
_atom_site_label
_atom_site_fract_x
_atom_site_fract_y
_atom_site_fract_z
Si Si1 0.128997 0.243723 0.613607
Si Si2 0.500000 0.088963 0.750000
Si Si3 0.000000 0.843561 0.250000
Si Si4 0.806659 0.519333 0.097584
Si Si5 0.204095 0.097118 0.366695
Si Si6 0.051097 0.461189 0.454094
Si Si7 0.554296 0.784207 0.856994
O O1 0.242663 0.150051 0.654522
O O2 0.286355 0.303431 0.636432
O O3 0.831430 0.247854 0.482682
O O4 0.143732 0.278986 0.671997
O O5 0.501964 0.032326 0.796491
O O6 0.280213 0.900246 0.355498
O O7 0.983693 0.779864 0.288730
O O8 0.888429 0.617738 0.133264
O O9 0.856268 0.482907 0.063879
O O10 0.500000 0.500000 0.000000
O O11 0.208582 0.074768 0.423309
O O12 0.000000 0.066382 0.250000
O O13 0.475463 0.051481 0.449270
#
# Coordination Sequence:
#
# PCOD9303157 Si02
#       7
#     8   4   4   8   8   8   8
#     4  11  22  42  68  97 131 184 231 277 347 420
#     4  12  25  43  70  98 138 184 234 281 349 424
#     4  12  23  45  72 108 134 180 244 299 343 406
#     4  12  26  47  66 104 142 188 228 287 356 426
#     4  11  22  42  71 103 136 176 231 293 353 403
#     4  11  25  43  71 108 137 176 239 296 342 417
#     4  11  24  44  68  94 139 184 227 281 350 417
#
# _framework density 21.541302999999999
#
# number of rings (size 3 to 8) (size 9 to 14) (size 15 to 20)
#    0.000    0.667    6.667    1.500    0.000    1.333 
#    3.000    1.667    0.000    0.000    0.000    0.000 
#    0.000    0.000    0.000    0.000    0.000    0.000 
#
# Total GULP energy -133868.967726 kJ/mol
# GULP energy per Si atom -5577.873655 kJ/mol
# Density = 2.149227 g / cm^3
# Si number density = 21.541303 Si / 1000 Ang^3
#
#
#
# Elastic Constant Matrix: (Units=GPa)
#
#
# Indices 1 2 3 4 5 6 
#
# 1 102.4466 40.0233 30.2644 1.4223 -20.9786 0.1472
# 2 40.0233 137.3298 34.8106 0.5418 -16.3880 0.0559
# 3 30.2644 34.8106 95.4621 0.3355 -20.2805 0.0359
# 4 1.4223 0.5418 0.335513751.1214 0.7381 1403.6270
# 5 -20.9786 -16.3880 -20.2805 0.7381 43.6533 0.0763
# 6 0.1472 0.0559 0.0359 1403.6270 0.0763 172.6564
#
#
#
# Elastic Compliance Matrix: (Units=1/GPa)
#
#
# Indices 1 2 3 4 5 6 
#
# 1 0.012180 -0.002550 -0.002099 -0.000001 0.003921 -0.000001
# 2 -0.002550 0.008692 -0.002139 0.000000 0.001044 0.000000
# 3 -0.002099 -0.002139 0.012799 0.000000 0.004135 -0.000001
# 4 -0.000001 0.000000 0.000000 0.000427 -0.000002 -0.003474
# 5 0.003921 0.001044 0.004135 -0.000002 0.027105 -0.000001
# 6 -0.000001 0.000000 -0.000001 -0.003474 -0.000001 0.034033
#
#
# Mechanical properties :
#
#
# Convention : Reuss Voigt Hill
#
# Bulk Modulus (GPa) = 49.76246 60.60389 55.18317
# Shear Modulus (GPa) = 43.28594 2808.82890 1426.05742
#
# Velocity S-wave (km/s) = 4.48754 36.14911 25.75748
# Velocity P-wave (km/s) = 7.07119 42.07777 30.17068
#
# Compressibility (1/GPa) = 0.02009547
#
# Stress axis : x y z
#
# Youngs Moduli (GPa) = 82.09949 115.05216 78.12991
#
# Poissons Ratio (x) = 0.29337 0.16397
# Poissons Ratio (y) = 0.20935 0.16715
# Poissons Ratio (z) = 0.17230 0.24614
#
# Static dielectric constant tensor:
#      x y z
#    x 1.834190 0.000000 0.074760 
#    y 0.000000 1.762220 0.000000 
#    z 0.074760 0.000000 1.839900 
# 
# From -- ./inp_files/293164.got.cif
#   From: 2010.05.17/outbox.cif.g08.bks.cpg/sg15_147_cif.got.tgz:293164.got - 2010.06.03 18:47:42.
