data_PCOD9303070
_publ_section_title
;
Structure prediction by ZEFSAII (Michael W. Deem and Ramdas Pophale) SiO2 
 PCOD9303070
Probable space group: C 2/C
;
_chemical_formula_sum "Si O2"
_cell_formula_units_Z 40
_cell_length_a 10.032512
_cell_length_b 8.732236
_cell_length_c 22.640788
_cell_angle_alpha 90.000000
_cell_angle_beta 59.705079
_cell_angle_gamma 90.000000
_cell_volume 1712.612033
_symmetry_space_group_name_H-M "C 2/C"
_symmetry_group_IT_number 15
_symmetry_cell_setting 'monoclinic'
loop_
_space_group_symop_operation_xyz
x,y,z
-x,y,1/2-z
-x,-y,-z
x,-y,1/2+z
1/2+x,1/2+y,z
1/2-x,1/2+y,1/2-z
1/2-x,1/2-y,-z
1/2+x,1/2-y,1/2+z
loop_
_atom_site_type_symbol
_atom_site_label
_atom_site_fract_x
_atom_site_fract_y
_atom_site_fract_z
Si Si1 0.626848 0.275787 0.974025
Si Si2 0.011594 0.492995 0.677046
Si Si3 0.238967 0.901186 0.164665
Si Si4 0.819541 0.884221 0.086627
Si Si5 0.550641 0.337212 0.315462
O O1 0.662264 0.168206 0.910530
O O2 0.645486 0.451078 0.949479
O O3 0.750000 0.250000 0.000000
O O4 0.444952 0.264401 0.033208
O O5 0.852317 0.494825 0.676956
O O6 0.054552 0.315395 0.655353
O O7 0.000000 0.516810 0.750000
O O8 0.133522 0.616861 0.624804
O O9 0.166666 0.803825 0.235712
O O10 0.079592 0.963214 0.171871
O O11 0.860717 0.885159 0.146617
#
# Coordination Sequence:
#
# PCOD9303070 Si02
#       5
#     8   8   8   8   8
#     4  11  22  43  70  95 136 179 217 268 342 398
#     4  12  22  41  65  97 133 167 222 282 329 386
#     4  11  23  40  68  94 129 175 220 269 332 389
#     4  11  22  41  71  93 131 180 218 269 336 389
#     4  11  22  44  66  94 132 176 221 274 325 386
#
# _framework density 23.356134999999998
#
# number of rings (size 3 to 8) (size 9 to 14) (size 15 to 20)
#    0.000    0.800    8.000    0.000    0.000    0.800 
#    3.600    4.000    0.000    0.000    0.000    0.000 
#    0.000    0.000    0.000    0.000    0.000    0.000 
#
# Total GULP energy -111354.061949 kJ/mol
# GULP energy per Si atom -5567.703097 kJ/mol
# Density = 2.330298 g / cm^3
# Si number density = 23.356135 Si / 1000 Ang^3
#
#
#
# Elastic Constant Matrix: (Units=GPa)
#
#
# Indices 1 2 3 4 5 6 
#
# 1 97.3361 19.8720 27.3368 0.0000 11.1044 0.0000
# 2 19.8720 24.9395 25.8993 0.0000 7.5361 0.0000
# 3 27.3368 25.8993 119.6819 0.0000 14.2250 0.0000
# 4 0.0000 0.0000 0.0000 21.8091 0.0000 6.9641
# 5 11.1044 7.5361 14.2250 0.0000 40.6565 0.0000
# 6 0.0000 0.0000 0.0000 6.9641 0.0000 35.3419
#
#
#
# Elastic Compliance Matrix: (Units=1/GPa)
#
#
# Indices 1 2 3 4 5 6 
#
# 1 0.012430 -0.008622 -0.000793 0.000000 -0.001519 0.000000
# 2 -0.008622 0.059102 -0.010223 0.000000 -0.005023 0.000000
# 3 -0.000793 -0.010223 0.010953 0.000000 -0.001721 0.000000
# 4 0.000000 0.000000 0.000000 0.048931 0.000000 -0.009642
# 5 -0.001519 -0.005023 -0.001721 0.000000 0.026545 0.000000
# 6 0.000000 0.000000 0.000000 -0.009642 0.000000 0.030195
#
#
# Mechanical properties :
#
#
# Convention : Reuss Voigt Hill
#
# Bulk Modulus (GPa) = 23.14323 43.13041 33.13682
# Shear Modulus (GPa) = 20.67530 30.81813 25.74672
#
# Velocity S-wave (km/s) = 2.97849 3.63642 3.32377
# Velocity P-wave (km/s) = 4.66464 6.01148 5.38037
#
# Compressibility (1/GPa) = 0.04320919
#
# Stress axis : x y z
#
# Youngs Moduli (GPa) = 80.45128 16.92000 91.29551
#
# Poissons Ratio (x) = 0.14588 0.07238
# Poissons Ratio (y) = 0.69364 0.93334
# Poissons Ratio (z) = 0.06378 0.17298
#
# Static dielectric constant tensor:
#      x y z
#    x 1.974000 0.000000 -0.097760 
#    y 0.000000 1.877100 0.000000 
#    z -0.097760 0.000000 1.958490 
# 
# From -- ./inp_files/229798.got.cif
#   From: 2010.05.17/outbox.cif.g08.bks.cpg/sg15_115_cif.got.tgz:229798.got - 2010.06.03 18:47:42.
