data_PCOD9303425
_publ_section_title
;
Structure prediction by ZEFSAII (Michael W. Deem and Ramdas Pophale) SiO2 
 PCOD9303425
Probable space group: C 2/C
;
_chemical_formula_sum "Si O2"
_cell_formula_units_Z 48
_cell_length_a 23.330869
_cell_length_b 16.974621
_cell_length_c 18.041934
_cell_angle_alpha 90.000000
_cell_angle_beta 19.169888
_cell_angle_gamma 90.000000
_cell_volume 2346.269721
_symmetry_space_group_name_H-M "C 2/C"
_symmetry_group_IT_number 15
_symmetry_cell_setting 'monoclinic'
loop_
_space_group_symop_operation_xyz
x,y,z
-x,y,1/2-z
-x,-y,-z
x,-y,1/2+z
1/2+x,1/2+y,z
1/2-x,1/2+y,1/2-z
1/2-x,1/2-y,-z
1/2+x,1/2-y,1/2+z
loop_
_atom_site_type_symbol
_atom_site_label
_atom_site_fract_x
_atom_site_fract_y
_atom_site_fract_z
Si Si1 0.872108 0.348558 0.113859
Si Si2 0.839003 0.939090 0.686579
Si Si3 0.006304 0.779385 0.937912
Si Si4 0.471142 0.958560 0.872035
Si Si5 0.245634 0.007228 0.859127
Si Si6 0.750000 0.750000 0.000000
Si Si7 0.500000 0.610063 0.250000
O O1 0.006270 0.287852 0.984693
O O2 0.684561 0.307806 0.351099
O O3 0.863256 0.428428 0.172457
O O4 0.902732 0.378103 0.993347
O O5 0.891547 0.854665 0.653853
O O6 0.797907 0.941890 0.649093
O O7 0.000000 0.000000 0.500000
O O8 0.672750 0.974703 0.932910
O O9 0.111908 0.745979 0.738906
O O10 0.500000 0.953862 0.750000
O O11 0.648876 0.978174 0.698746
O O12 0.074150 0.053622 0.095413
O O13 0.653056 0.667726 0.090820
#
# Coordination Sequence:
#
# PCOD9303425 Si02
#       7
#     8   8   8   8   8   4   4
#     4  11  24  44  64  99 134 183 222 279 342 418
#     4  11  22  44  70 100 134 186 225 281 347 417
#     4  12  24  39  71  95 145 177 223 272 355 418
#     4  11  27  45  71  97 136 180 244 292 337 398
#     4  11  24  43  67  98 143 179 230 281 347 413
#     4  12  22  40  60 108 140 172 212 278 342 426
#     4  12  24  40  64 104 144 172 224 284 340 420
#
# _framework density 20.458006000000001
#
# number of rings (size 3 to 8) (size 9 to 14) (size 15 to 20)
#    0.000    0.667    6.667    2.000    9.333    1.333 
#    0.000    0.833    1.833    0.000    0.000    0.000 
#    0.000    0.000    0.000    0.000    0.000    0.000 
#
# Total GULP energy -133722.486679 kJ/mol
# GULP energy per Si atom -5571.770278 kJ/mol
# Density = 2.041144 g / cm^3
# Si number density = 20.458006 Si / 1000 Ang^3
#
#
#
# Elastic Constant Matrix: (Units=GPa)
#
#
# Indices 1 2 3 4 5 6 
#
# 1 105.6708 1.5343 41.1333 0.0006 14.4980 0.0010
# 2 1.5343 42.1951 26.6858 0.0019 -2.9891 -0.0001
# 3 41.1333 26.6858 91.4635 -0.0028 11.8966 0.0031
# 4 0.0006 0.0019 -0.0028 28.2142 -0.0009 -6.3171
# 5 14.4980 -2.9891 11.8966 -0.0009 38.1579 -0.0002
# 6 0.0010 -0.0001 0.0031 -6.3171 -0.0002 30.9572
#
#
#
# Elastic Compliance Matrix: (Units=1/GPa)
#
#
# Indices 1 2 3 4 5 6 
#
# 1 0.012117 0.003224 -0.006070 -0.000001 -0.002459 0.000000
# 2 0.003224 0.030916 -0.011075 -0.000003 0.004650 0.000001
# 3 -0.006070 -0.011075 0.017413 0.000002 -0.003990 -0.000001
# 4 -0.000001 -0.000003 0.000002 0.037140 0.000000 0.007579
# 5 -0.002459 0.004650 -0.003990 0.000000 0.028749 0.000001
# 6 0.000000 0.000001 -0.000001 0.007579 0.000001 0.033849
#
#
# Mechanical properties :
#
#
# Convention : Reuss Voigt Hill
#
# Bulk Modulus (GPa) = 30.67076 42.00402 36.33739
# Shear Modulus (GPa) = 25.13904 30.79760 27.96832
#
# Velocity S-wave (km/s) = 3.50924 3.88416 3.70145
# Velocity P-wave (km/s) = 5.60752 6.37903 6.00568
#
# Compressibility (1/GPa) = 0.03260434
#
# Stress axis : x y z
#
# Youngs Moduli (GPa) = 82.53078 32.34604 57.42693
#
# Poissons Ratio (x) = -0.10429 0.34859
# Poissons Ratio (y) = -0.26609 0.63599
# Poissons Ratio (z) = 0.50097 0.35823
#
# Static dielectric constant tensor:
#      x y z
#    x 1.765200 0.000000 -0.024850 
#    y 0.000000 1.726260 0.000000 
#    z -0.024850 0.000000 1.744190 
# 
# From -- ./inp_files/219968.got.cif
#   From: 2010.05.17/outbox.cif.g08.bks.cpg/sg15_110_cif.got.tgz:219968.got - 2010.06.03 18:47:42.
