data_PCOD9303140
_publ_section_title
;
Structure prediction by ZEFSAII (Michael W. Deem and Ramdas Pophale) SiO2 
 PCOD9303140
Probable space group: C 2/C
;
_chemical_formula_sum "Si O2"
_cell_formula_units_Z 40
_cell_length_a 16.399005
_cell_length_b 14.083397
_cell_length_c 18.531424
_cell_angle_alpha 90.000000
_cell_angle_beta 25.643745
_cell_angle_gamma 90.000000
_cell_volume 1852.230545
_symmetry_space_group_name_H-M "C 2/C"
_symmetry_group_IT_number 15
_symmetry_cell_setting 'monoclinic'
loop_
_space_group_symop_operation_xyz
x,y,z
-x,y,1/2-z
-x,-y,-z
x,-y,1/2+z
1/2+x,1/2+y,z
1/2-x,1/2+y,1/2-z
1/2-x,1/2-y,-z
1/2+x,1/2-y,1/2+z
loop_
_atom_site_type_symbol
_atom_site_label
_atom_site_fract_x
_atom_site_fract_y
_atom_site_fract_z
Si Si1 0.447154 0.378641 0.127487
Si Si2 0.795297 0.483104 0.880406
Si Si3 0.657096 0.276811 0.830253
Si Si4 0.400401 0.326789 0.903917
Si Si5 0.670076 0.963908 0.817185
O O1 0.265220 0.310107 0.282951
O O2 0.357986 0.483105 0.193624
O O3 0.638883 0.399746 0.019417
O O4 0.527707 0.335145 0.989184
O O5 0.834410 0.487507 0.763552
O O6 0.000000 0.464508 0.750000
O O7 0.706748 0.582742 0.976720
O O8 0.537640 0.272494 0.851704
O O9 0.820208 0.351823 0.680650
O O10 0.500000 0.358369 0.750000
O O11 0.250000 0.250000 0.000000
O O12 0.500000 0.000000 0.000000
#
# Coordination Sequence:
#
# PCOD9303140 Si02
#       5
#     8   8   8   8   8
#     4  11  22  44  66  98 138 178 238 283 336 423
#     4  11  25  44  65 101 146 183 229 294 354 414
#     4  11  22  42  67  96 136 180 237 281 341 417
#     4  12  25  40  65 106 148 179 222 292 368 419
#     4  11  23  43  69  98 136 186 235 286 343 421
#
# _framework density 21.595585
#
# number of rings (size 3 to 8) (size 9 to 14) (size 15 to 20)
#    0.000    0.800    4.000    4.200    5.600    0.000 
#    0.000    4.000    0.000    1.200    0.000    0.000 
#    0.000    0.000    0.000    0.000    0.000    0.000 
#
# Total GULP energy -111523.843562 kJ/mol
# GULP energy per Si atom -5576.192178 kJ/mol
# Density = 2.154643 g / cm^3
# Si number density = 21.595585 Si / 1000 Ang^3
#
#
#
# Elastic Constant Matrix: (Units=GPa)
#
#
# Indices 1 2 3 4 5 6 
#
# 1 103.5398 37.3647 51.3749 0.0015 -34.4937 -0.0017
# 2 37.3647 112.9500 30.2071 0.0011 -22.5208 -0.0021
# 3 51.3749 30.2071 109.9249 -0.0048 -24.3179 0.0003
# 4 0.0015 0.0011 -0.0048 30.0360 -0.0019 -7.2820
# 5 -34.4937 -22.5208 -24.3179 -0.0019 33.1394 0.0019
# 6 -0.0017 -0.0021 0.0003 -7.2820 0.0019 31.1261
#
#
#
# Elastic Compliance Matrix: (Units=1/GPa)
#
#
# Indices 1 2 3 4 5 6 
#
# 1 0.016891 -0.001776 -0.004517 -0.000001 0.013060 0.000000
# 2 -0.001776 0.010646 -0.001079 0.000000 0.004594 0.000000
# 3 -0.004517 -0.001079 0.012299 0.000002 0.003590 0.000000
# 4 -0.000001 0.000000 0.000002 0.035295 0.000003 0.008257
# 5 0.013060 0.004594 0.003590 0.000003 0.049526 -0.000001
# 6 0.000000 0.000000 0.000000 0.008257 -0.000001 0.034059
#
#
# Mechanical properties :
#
#
# Convention : Reuss Voigt Hill
#
# Bulk Modulus (GPa) = 39.85368 62.70090 51.27729
# Shear Modulus (GPa) = 27.49914 32.69150 30.09532
#
# Velocity S-wave (km/s) = 3.57230 3.89499 3.73713
# Velocity P-wave (km/s) = 5.95900 7.02318 6.51286
#
# Compressibility (1/GPa) = 0.02509178
#
# Stress axis : x y z
#
# Youngs Moduli (GPa) = 59.20275 93.93613 81.30732
#
# Poissons Ratio (x) = 0.16680 0.36728
# Poissons Ratio (y) = 0.10512 0.08774
# Poissons Ratio (z) = 0.26743 0.10137
#
# Static dielectric constant tensor:
#      x y z
#    x 1.836430 -0.000010 -0.016480 
#    y -0.000010 1.817880 0.000010 
#    z -0.016480 0.000010 1.930050 
# 
# From -- ./inp_files/205605.got.cif
#   From: 2010.05.17/outbox.cif.g08.bks.cpg/sg15_103_cif.got.tgz:205605.got - 2010.06.03 18:47:42.
