data_PCOD9303065
_publ_section_title
;
Structure prediction by ZEFSAII (Michael W. Deem and Ramdas Pophale) SiO2 
 PCOD9303065
Probable space group: C 2/C
;
_chemical_formula_sum "Si O2"
_cell_formula_units_Z 32
_cell_length_a 11.933982
_cell_length_b 10.172625
_cell_length_c 13.210709
_cell_angle_alpha 90.000000
_cell_angle_beta 102.228697
_cell_angle_gamma 90.000000
_cell_volume 1567.389202
_symmetry_space_group_name_H-M "C 2/C"
_symmetry_group_IT_number 15
_symmetry_cell_setting 'monoclinic'
loop_
_space_group_symop_operation_xyz
x,y,z
-x,y,1/2-z
-x,-y,-z
x,-y,1/2+z
1/2+x,1/2+y,z
1/2-x,1/2+y,1/2-z
1/2-x,1/2-y,-z
1/2+x,1/2-y,1/2+z
loop_
_atom_site_type_symbol
_atom_site_label
_atom_site_fract_x
_atom_site_fract_y
_atom_site_fract_z
Si Si1 0.540544 0.279294 0.651369
Si Si2 0.375878 0.549337 0.776423
Si Si3 0.676626 0.376852 0.009167
Si Si4 0.787283 0.370572 0.436332
O O1 0.500000 0.218771 0.750000
O O2 0.632029 0.392216 0.701536
O O3 0.438539 0.362888 0.579782
O O4 0.588798 0.172572 0.582718
O O5 0.500000 0.571382 0.750000
O O6 0.360616 0.615834 0.881843
O O7 0.285387 0.605455 0.679795
O O8 0.750000 0.250000 0.000000
O O9 0.756126 0.500224 0.994441
O O10 0.750000 0.250000 0.500000
#
# Coordination Sequence:
#
# PCOD9303065 Si02
#       4
#     8   8   8   8
#     4  11  22  44  69 100 143 183 236 289 351 426
#     4  11  22  41  70  97 131 188 232 282 348 421
#     4  12  25  43  68 102 141 182 233 293 359 414
#     4  12  24  42  72 102 135 185 239 287 349 427
#
# _framework density 20.416117
#
# number of rings (size 3 to 8) (size 9 to 14) (size 15 to 20)
#    0.000    0.500    7.500    3.750    0.000    1.000 
#    0.000    1.250    0.000    0.000    0.000    0.000 
#    0.000    0.000    0.000    0.000    0.000    0.000 
#
# Total GULP energy -89331.662118 kJ/mol
# GULP energy per Si atom -5583.228882 kJ/mol
# Density = 2.036965 g / cm^3
# Si number density = 20.416117 Si / 1000 Ang^3
#
#
#
# Elastic Constant Matrix: (Units=GPa)
#
#
# Indices 1 2 3 4 5 6 
#
# 1 76.3108 52.5854 24.0757 0.0000 -40.0553 0.0000
# 2 52.5854 141.2459 35.2677 0.0000 -18.2734 0.0000
# 3 24.0757 35.2677 118.7182 0.0000 -37.8974 0.0000
# 4 0.0000 0.0000 0.0000 29.8688 0.0000 -8.9130
# 5 -40.0553 -18.2734 -37.8974 0.0000 51.6265 0.0000
# 6 0.0000 0.0000 0.0000 -8.9130 0.0000 33.4358
#
#
#
# Elastic Compliance Matrix: (Units=1/GPa)
#
#
# Indices 1 2 3 4 5 6 
#
# 1 0.030525 -0.009354 0.004038 0.000000 0.023337 0.000000
# 2 -0.009354 0.010587 -0.003093 0.000000 -0.005781 0.000000
# 3 0.004038 -0.003093 0.011982 0.000000 0.010833 0.000000
# 4 0.000000 0.000000 0.000000 0.036373 0.000000 0.009696
# 5 0.023337 -0.005781 0.010833 0.000000 0.043382 0.000000
# 6 0.000000 0.000000 0.000000 0.009696 0.000000 0.032493
#
#
# Mechanical properties :
#
#
# Convention : Reuss Voigt Hill
#
# Bulk Modulus (GPa) = 27.56692 62.23695 44.90194
# Shear Modulus (GPa) = 25.73977 37.94262 31.84120
#
# Velocity S-wave (km/s) = 3.55457 4.31567 3.95348
# Velocity P-wave (km/s) = 5.51166 7.44202 6.54836
#
# Compressibility (1/GPa) = 0.03627536
#
# Stress axis : x y z
#
# Youngs Moduli (GPa) = 32.75970 94.45834 83.46119
#
# Poissons Ratio (x) = 0.88352 -0.33700
# Poissons Ratio (y) = 0.30642 0.25818
# Poissons Ratio (z) = -0.13228 0.29220
#
# Static dielectric constant tensor:
#      x y z
#    x 1.889140 0.000000 0.034410 
#    y 0.000000 1.729100 0.000000 
#    z 0.034410 0.000000 1.750170 
# 
# From -- ./inp_files/84061.got.cif
#   From: 2010.05.17/outbox.cif.g08.bks.cpg/sg15_43_cif.got.tgz:84061.got - 2010.06.03 18:47:42.
