data_PCOD9303717
_publ_section_title
;
Structure prediction by ZEFSAII (Michael W. Deem and Ramdas Pophale) SiO2 
 PCOD9303717
Probable space group: C 2/C
;
_chemical_formula_sum "Si O2"
_cell_formula_units_Z 56
_cell_length_a 5.283965
_cell_length_b 18.509646
_cell_length_c 29.705681
_cell_angle_alpha 90.000000
_cell_angle_beta 87.529694
_cell_angle_gamma 90.000000
_cell_volume 2902.644024
_symmetry_space_group_name_H-M "C 2/C"
_symmetry_group_IT_number 15
_symmetry_cell_setting 'monoclinic'
loop_
_space_group_symop_operation_xyz
x,y,z
-x,y,1/2-z
-x,-y,-z
x,-y,1/2+z
1/2+x,1/2+y,z
1/2-x,1/2+y,1/2-z
1/2-x,1/2-y,-z
1/2+x,1/2-y,1/2+z
loop_
_atom_site_type_symbol
_atom_site_label
_atom_site_fract_x
_atom_site_fract_y
_atom_site_fract_z
Si Si1 0.167287 0.049573 0.465539
Si Si2 0.698425 0.722418 0.950059
Si Si3 0.809953 0.370207 0.048439
Si Si4 0.979641 0.110379 0.299249
Si Si5 0.977811 0.510429 0.298301
Si Si6 0.836928 0.861984 0.897528
Si Si7 0.042104 0.510696 0.894579
O O1 0.343971 0.094509 0.498623
O O2 0.312319 0.996363 0.430957
O O3 0.022804 0.107153 0.435039
O O4 0.000000 0.000000 0.500000
O O5 0.431780 0.681545 0.951156
O O6 0.705519 0.790422 0.916740
O O7 0.936952 0.670664 0.938444
O O8 0.750000 0.750000 0.000000
O O9 0.764167 0.434784 0.083947
O O10 0.223175 0.058192 0.301198
O O11 0.000000 0.148865 0.250000
O O12 0.724486 0.062330 0.297606
O O13 0.962013 0.150718 0.347390
O O14 0.978832 0.466441 0.344535
O O15 0.000000 0.471152 0.250000
O O16 0.647465 0.929232 0.892411
#
# Coordination Sequence:
#
# PCOD9303717 Si02
#       7
#     8   8   8   8   8   8   8
#     4  12  22  37  59  89 121 158 204 245 296 348
#     4  12  26  41  56  83 123 160 198 239 292 350
#     4  12  26  40  57  84 125 162 195 240 292 353
#     4   9  18  34  56  88 117 143 188 250 305 348
#     4   9  18  33  57  88 118 143 185 250 306 348
#     4  11  23  37  63  86 117 159 201 248 295 357
#     4  11  23  38  62  88 120 155 207 247 301 359
#
# _framework density 19.292753999999999
#
# number of rings (size 3 to 8) (size 9 to 14) (size 15 to 20)
#    0.000    1.143    4.286    2.571    2.000    0.000 
#    0.000    0.000    0.000    0.857    0.000    4.000 
#    0.000    0.000    0.000    0.000    0.000    0.000 
#
# Total GULP energy -156238.879636 kJ/mol
# GULP energy per Si atom -5579.959987 kJ/mol
# Density = 1.924884 g / cm^3
# Si number density = 19.292754 Si / 1000 Ang^3
#
#
#
# Elastic Constant Matrix: (Units=GPa)
#
#
# Indices 1 2 3 4 5 6 
#
# 1 66.8335 13.8140 7.5726 0.0000 -4.8107 0.0000
# 2 13.8140 64.0906 34.6266 0.0000 -7.6746 0.0000
# 3 7.5726 34.6266 187.0605 0.0000 -9.3454 0.0000
# 4 0.0000 0.0000 0.0000 -4.3576 0.0000 7.9103
# 5 -4.8107 -7.6746 -9.3454 0.0000 28.5974 0.0000
# 6 0.0000 0.0000 0.0000 7.9103 0.0000 27.8518
#
#
#
# Elastic Compliance Matrix: (Units=1/GPa)
#
#
# Indices 1 2 3 4 5 6 
#
# 1 0.015749 -0.003203 0.000046 0.000000 0.001805 0.000000
# 2 -0.003203 0.018374 -0.003103 0.000000 0.003378 0.000000
# 3 0.000046 -0.003103 0.005975 0.000000 0.001127 0.000000
# 4 0.000000 0.000000 0.000000 -0.151417 0.000000 0.043005
# 5 0.001805 0.003378 0.001127 0.000000 0.036547 0.000000
# 6 0.000000 0.000000 0.000000 0.043005 0.000000 0.023690
#
#
# Mechanical properties :
#
#
# Convention : Reuss Voigt Hill
#
# Bulk Modulus (GPa) = 36.26142 47.77899 42.02020
# Shear Modulus (GPa) = -170.25041 27.88307 -71.18367
#
# Velocity S-wave (km/s) = -9.40411 3.80578 -6.08085
# Velocity P-wave (km/s) = 9.95391 6.64312 5.24163
#
# Compressibility (1/GPa) = 0.02757752
#
# Stress axis : x y z
#
# Youngs Moduli (GPa) = 63.49467 54.42417 167.37233
#
# Poissons Ratio (x) = 0.17433 -0.00762
# Poissons Ratio (y) = 0.20338 0.51932
# Poissons Ratio (z) = -0.00289 0.16887
#
# Static dielectric constant tensor:
#      x y z
#    x 1.731790 0.000000 -0.006010 
#    y 0.000000 1.694890 0.000000 
#    z -0.006010 0.000000 1.729020 
# 
# From -- ./inp_files/305395.got.cif
#   From: 2010.05.17/outbox.cif.g08.bks.cpg/sg15_153_cif.got.tgz:305395.got - 2010.06.03 18:47:42.
