data_PCOD9303704
_publ_section_title
;
Structure prediction by ZEFSAII (Michael W. Deem and Ramdas Pophale) SiO2 
 PCOD9303704
Probable space group: C 2/C
;
_chemical_formula_sum "Si O2"
_cell_formula_units_Z 56
_cell_length_a 18.651277
_cell_length_b 14.155401
_cell_length_c 17.355942
_cell_angle_alpha 90.000000
_cell_angle_beta 137.796725
_cell_angle_gamma 90.000000
_cell_volume 3078.186824
_symmetry_space_group_name_H-M "C 2/C"
_symmetry_group_IT_number 15
_symmetry_cell_setting 'monoclinic'
loop_
_space_group_symop_operation_xyz
x,y,z
-x,y,1/2-z
-x,-y,-z
x,-y,1/2+z
1/2+x,1/2+y,z
1/2-x,1/2+y,1/2-z
1/2-x,1/2-y,-z
1/2+x,1/2-y,1/2+z
loop_
_atom_site_type_symbol
_atom_site_label
_atom_site_fract_x
_atom_site_fract_y
_atom_site_fract_z
Si Si1 0.444709 0.275409 0.784173
Si Si2 0.113122 0.620868 0.974870
Si Si3 0.336985 0.822779 0.813580
Si Si4 0.385688 0.385319 0.403966
Si Si5 0.046638 0.541034 0.205584
Si Si6 0.783625 0.384817 0.104811
Si Si7 0.122634 0.908439 0.640532
O O1 0.500000 0.304772 0.750000
O O2 0.531646 0.208761 0.896323
O O3 0.345477 0.206996 0.686345
O O4 0.406836 0.364107 0.801352
O O5 0.200478 0.620528 0.975038
O O6 0.040655 0.528176 0.902987
O O7 0.155437 0.631229 0.094767
O O8 0.353656 0.711537 0.837595
O O9 0.420137 0.875786 0.824802
O O10 0.220573 0.847010 0.688084
O O11 0.331507 0.386419 0.446354
O O12 0.513383 0.394140 0.506859
O O13 0.346139 0.482008 0.333441
O O14 0.147127 0.473648 0.308547
O O15 0.000000 0.575211 0.250000
#
# Coordination Sequence:
#
# PCOD9303704 Si02
#       7
#     8   8   8   8   8   8   8
#     4   9  17  33  57  85 116 146 184 234 289 339
#     4   9  19  33  59  93 110 138 191 248 286 320
#     4  12  21  36  62  85 110 152 195 235 277 344
#     4  11  23  37  56  84 121 155 184 228 287 350
#     4   9  19  37  60  85 112 147 194 242 280 322
#     4   9  17  35  58  84 119 145 180 239 293 330
#     4  11  23  37  53  85 120 157 181 224 297 342
#
# _framework density 18.192529
#
# number of rings (size 3 to 8) (size 9 to 14) (size 15 to 20)
#    0.000    2.000    4.286    2.143    0.000    1.714 
#    2.571    0.714    0.000    0.857    0.000    0.000 
#    0.000    0.000    0.000    0.000    0.000    0.000 
#
# Total GULP energy -156207.868065 kJ/mol
# GULP energy per Si atom -5578.852431 kJ/mol
# Density = 1.815112 g / cm^3
# Si number density = 18.192529 Si / 1000 Ang^3
#
#
#
# Elastic Constant Matrix: (Units=GPa)
#
#
# Indices 1 2 3 4 5 6 
#
# 1 103.6997 66.4171 20.1385 0.0000 -5.2101 0.0000
# 2 66.4171 135.2315 25.1971 0.0000 -8.3598 0.0000
# 3 20.1385 25.1971 27.3975 0.0000 -0.8328 0.0000
# 4 0.0000 0.0000 0.0000 19.9953 0.0000 -5.8203
# 5 -5.2101 -8.3598 -0.8328 0.0000 26.7366 0.0000
# 6 0.0000 0.0000 0.0000 -5.8203 0.0000 32.8673
#
#
#
# Elastic Compliance Matrix: (Units=1/GPa)
#
#
# Indices 1 2 3 4 5 6 
#
# 1 0.014629 -0.006202 -0.005027 0.000000 0.000755 0.000000
# 2 -0.006202 0.011728 -0.006159 0.000000 0.002267 0.000000
# 3 -0.005027 -0.006159 0.045814 0.000000 -0.001478 0.000000
# 4 0.000000 0.000000 0.000000 0.052730 0.000000 0.009338
# 5 0.000755 0.002267 -0.001478 0.000000 0.038212 0.000000
# 6 0.000000 0.000000 0.000000 0.009338 0.000000 0.032079
#
#
# Mechanical properties :
#
#
# Convention : Reuss Voigt Hill
#
# Bulk Modulus (GPa) = 26.74015 54.42601 40.58308
# Shear Modulus (GPa) = 20.62431 26.22492 23.42461
#
# Velocity S-wave (km/s) = 3.37065 3.80086 3.59220
# Velocity P-wave (km/s) = 5.46614 7.01738 6.28977
#
# Compressibility (1/GPa) = 0.03739695
#
# Stress axis : x y z
#
# Youngs Moduli (GPa) = 68.35536 85.26362 21.82742
#
# Poissons Ratio (x) = 0.52878 0.10972
# Poissons Ratio (y) = 0.42392 0.13443
# Poissons Ratio (z) = 0.34360 0.52513
#
# Static dielectric constant tensor:
#      x y z
#    x 1.641980 0.000000 0.038610 
#    y 0.000000 1.612840 0.000000 
#    z 0.038610 0.000000 1.663940 
# 
# From -- ./inp_files/162329.got.cif
#   From: 2010.05.17/outbox.cif.g08.bks.cpg/sg15_82_cif.got.tgz:162329.got - 2010.06.03 18:47:42.
