data_PCOD9303880
_publ_section_title
;
Structure prediction by ZEFSAII (Michael W. Deem and Ramdas Pophale) SiO2 
 PCOD9303880
Probable space group: C 2/C
;
_chemical_formula_sum "Si O2"
_cell_formula_units_Z 56
_cell_length_a 21.170779
_cell_length_b 18.049661
_cell_length_c 9.608466
_cell_angle_alpha 90.000000
_cell_angle_beta 45.849451
_cell_angle_gamma 90.000000
_cell_volume 2634.445060
_symmetry_space_group_name_H-M "C 2/C"
_symmetry_group_IT_number 15
_symmetry_cell_setting 'monoclinic'
loop_
_space_group_symop_operation_xyz
x,y,z
-x,y,1/2-z
-x,-y,-z
x,-y,1/2+z
1/2+x,1/2+y,z
1/2-x,1/2+y,1/2-z
1/2-x,1/2-y,-z
1/2+x,1/2-y,1/2+z
loop_
_atom_site_type_symbol
_atom_site_label
_atom_site_fract_x
_atom_site_fract_y
_atom_site_fract_z
Si Si1 0.500000 0.232586 0.750000
Si Si2 0.060959 0.997019 0.272290
Si Si3 0.000000 0.232002 0.750000
Si Si4 0.497569 0.850984 0.979478
Si Si5 0.140626 0.851622 0.528031
Si Si6 0.817965 0.568792 0.742262
Si Si7 0.676518 0.081345 0.097224
Si Si8 0.846522 0.147224 0.821778
O O1 0.470963 0.182717 0.923379
O O2 0.581862 0.284007 0.674291
O O3 0.137807 0.940934 0.187185
O O4 0.000000 0.960562 0.250000
O O5 0.092988 0.074438 0.160054
O O6 0.000000 0.000000 0.500000
O O7 0.032776 0.284864 0.575585
O O8 0.082902 0.188472 0.689966
O O9 0.414360 0.902785 0.133112
O O10 0.577976 0.892139 0.781472
O O11 0.242792 0.871096 0.400241
O O12 0.135319 0.839290 0.369087
O O13 0.814255 0.561722 0.580308
O O14 0.804810 0.489731 0.835099
O O15 0.743655 0.150754 0.018434
#
# Coordination Sequence:
#
# PCOD9303880 Si02
#       8
#     4   8   4   8   8   8   8   8
#     4  12  26  45  69  98 142 182 216 276 346 414
#     4  12  21  35  61  93 131 173 214 276 331 389
#     4  12  24  45  67  98 136 180 222 266 348 410
#     4  12  27  47  68  99 136 185 229 275 332 406
#     4  11  23  43  66 101 137 172 226 279 339 403
#     4  11  25  46  73  99 134 175 235 287 332 390
#     4  11  25  46  72 101 132 177 234 287 332 392
#     4  11  23  40  69 103 132 176 222 281 341 402
#
# _framework density 21.256848000000002
#
# number of rings (size 3 to 8) (size 9 to 14) (size 15 to 20)
#    0.000    0.571    7.143    0.429    2.000    2.286 
#    2.571    0.000    0.000    0.000    0.000    0.000 
#    0.000    0.000    0.000    0.000    0.000    0.000 
#
# Total GULP energy -156315.694580 kJ/mol
# GULP energy per Si atom -5582.703378 kJ/mol
# Density = 2.120847 g / cm^3
# Si number density = 21.256848 Si / 1000 Ang^3
#
#
#
# Elastic Constant Matrix: (Units=GPa)
#
#
# Indices 1 2 3 4 5 6 
#
# 1 55.0688 13.4545 19.7804 0.0000 -17.6672 0.0000
# 2 13.4545 48.8784 21.8890 0.0000 -3.3211 0.0000
# 3 19.7804 21.8890 94.5009 0.0000 -23.6685 0.0000
# 4 0.0000 0.0000 0.0000 142.1994 0.0000 37.6319
# 5 -17.6672 -3.3211 -23.6685 0.0000 42.5983 0.0000
# 6 0.0000 0.0000 0.0000 37.6319 0.0000 39.2279
#
#
#
# Elastic Compliance Matrix: (Units=1/GPa)
#
#
# Indices 1 2 3 4 5 6 
#
# 1 0.022522 -0.004961 -0.001536 0.000000 0.008100 0.000000
# 2 -0.004961 0.023986 -0.005302 0.000000 -0.003134 0.000000
# 3 -0.001536 -0.005302 0.013787 0.000000 0.006610 0.000000
# 4 0.000000 0.000000 0.000000 0.009425 0.000000 -0.009042
# 5 0.008100 -0.003134 0.006610 0.000000 0.030263 0.000000
# 6 0.000000 0.000000 0.000000 -0.009042 0.000000 0.034166
#
#
# Mechanical properties :
#
#
# Convention : Reuss Voigt Hill
#
# Bulk Modulus (GPa) = 27.25098 34.29953 30.77525
# Shear Modulus (GPa) = 29.41523 54.36008 41.88765
#
# Velocity S-wave (km/s) = 3.72398 5.06246 4.44390
# Velocity P-wave (km/s) = 5.59807 7.09522 6.39064
#
# Compressibility (1/GPa) = 0.03669593
#
# Stress axis : x y z
#
# Youngs Moduli (GPa) = 44.40155 41.69080 72.53161
#
# Poissons Ratio (x) = 0.20683 0.11142
# Poissons Ratio (y) = 0.22028 0.38458
# Poissons Ratio (z) = 0.06821 0.22105
#
# Static dielectric constant tensor:
#      x y z
#    x 1.805410 0.000000 -0.056830 
#    y 0.000000 1.784910 0.000000 
#    z -0.056830 0.000000 1.789110 
# 
# From -- ./inp_files/57820.got.cif
#   From: 2010.05.17/outbox.cif.g08.bks.cpg/sg15_29_cif.got.tgz:57820.got - 2010.06.03 18:47:42.
