data_PCOD9303858
_publ_section_title
;
Structure prediction by ZEFSAII (Michael W. Deem and Ramdas Pophale) SiO2 
 PCOD9303858
Probable space group: C 2/C
;
_chemical_formula_sum "Si O2"
_cell_formula_units_Z 48
_cell_length_a 7.360636
_cell_length_b 24.911221
_cell_length_c 18.522012
_cell_angle_alpha 90.000000
_cell_angle_beta 31.560847
_cell_angle_gamma 90.000000
_cell_volume 1777.605368
_symmetry_space_group_name_H-M "C 2/C"
_symmetry_group_IT_number 15
_symmetry_cell_setting 'monoclinic'
loop_
_space_group_symop_operation_xyz
x,y,z
-x,y,1/2-z
-x,-y,-z
x,-y,1/2+z
1/2+x,1/2+y,z
1/2-x,1/2+y,1/2-z
1/2-x,1/2-y,-z
1/2+x,1/2-y,1/2+z
loop_
_atom_site_type_symbol
_atom_site_label
_atom_site_fract_x
_atom_site_fract_y
_atom_site_fract_z
Si Si1 0.250673 0.665041 0.467238
Si Si2 0.645661 0.671422 0.554898
Si Si3 0.232258 0.065910 0.282722
Si Si4 0.362185 0.999181 0.964709
Si Si5 0.706668 0.102422 0.785759
Si Si6 0.221308 0.280945 0.783581
O O1 0.440575 0.611194 0.372893
O O2 0.545965 0.710625 0.365975
O O3 0.925028 0.675584 0.525535
O O4 0.075828 0.648579 0.601600
O O5 0.420365 0.617886 0.642233
O O6 0.402214 0.722303 0.652520
O O7 0.882780 0.681567 0.405129
O O8 0.500000 0.087117 0.250000
O O9 0.039248 0.014477 0.385925
O O10 0.451642 0.050507 0.137714
O O11 0.506874 0.047650 0.866341
O O12 0.500000 0.000000 0.000000
O O13 0.000000 0.101931 0.750000
O O14 0.500000 0.297816 0.750000
#
# Coordination Sequence:
#
# PCOD9303858 Si02
#       6
#     8   8   8   8   8   8
#     4   9  20  36  58  83 117 164 210 255 316 391
#     4   9  18  35  56  83 120 158 208 264 317 387
#     4  11  24  43  64  95 134 168 212 272 334 392
#     4  11  23  40  66  96 128 173 223 267 324 399
#     4   9  18  34  55  85 118 155 208 260 307 370
#     4   9  18  34  57  87 121 163 210 267 331 385
#
# _framework density 27.002617999999998
#
# number of rings (size 3 to 8) (size 9 to 14) (size 15 to 20)
#    0.000    2.333    0.000    2.000    0.000   11.333 
#    0.000   13.333    0.000    0.000    0.000    0.000 
#    0.000    0.000    0.000    0.000    0.000    0.000 
#
# Total GULP energy -134212.364957 kJ/mol
# GULP energy per Si atom -5592.181873 kJ/mol
# Density = 2.694116 g / cm^3
# Si number density = 27.002618 Si / 1000 Ang^3
#
#
#
# Elastic Constant Matrix: (Units=GPa)
#
#
# Indices 1 2 3 4 5 6 
#
# 1 65.2269 8.6774 24.3995 -0.0002 5.2915 0.0000
# 2 8.6774 60.7418 47.1087 0.0016 0.6765 -0.0006
# 3 24.3995 47.1087 186.6697 -0.0041 1.5586 0.0009
# 4 -0.0002 0.0016 -0.0041 60.7718 0.0009 -0.2308
# 5 5.2915 0.6765 1.5586 0.0009 24.1847 -0.0004
# 6 0.0000 -0.0006 0.0009 -0.2308 -0.0004 19.3826
#
#
#
# Elastic Compliance Matrix: (Units=1/GPa)
#
#
# Indices 1 2 3 4 5 6 
#
# 1 0.016436 -0.000828 -0.001911 0.000000 -0.003450 0.000000
# 2 -0.000828 0.020513 -0.005068 -0.000001 -0.000066 0.000001
# 3 -0.001911 -0.005068 0.006885 0.000001 0.000116 0.000000
# 4 0.000000 -0.000001 0.000001 0.016456 -0.000001 0.000196
# 5 -0.003450 -0.000066 0.000116 -0.000001 0.042098 0.000001
# 6 0.000000 0.000001 0.000000 0.000196 0.000001 0.051595
#
#
# Mechanical properties :
#
#
# Convention : Reuss Voigt Hill
#
# Bulk Modulus (GPa) = 35.43509 52.55661 43.99585
# Shear Modulus (GPa) = 27.93283 36.36467 32.14875
#
# Velocity S-wave (km/s) = 3.21977 3.67373 3.45422
# Velocity P-wave (km/s) = 5.19364 6.12380 5.67780
#
# Compressibility (1/GPa) = 0.02822061
#
# Stress axis : x y z
#
# Youngs Moduli (GPa) = 60.84281 48.75066 145.24806
#
# Poissons Ratio (x) = 0.04035 0.27751
# Poissons Ratio (y) = 0.05036 0.73610
# Poissons Ratio (z) = 0.11625 0.24706
#
# Static dielectric constant tensor:
#      x y z
#    x 2.093210 0.000000 0.017370 
#    y 0.000000 2.201830 0.000000 
#    z 0.017370 0.000000 2.134530 
# 
# From -- ./inp_files/234753.got.cif
#   From: 2010.05.17/outbox.cif.g08.bks.cpg/sg15_118_cif.got.tgz:234753.got - 2010.06.03 18:47:42.
