data_PCOD9303340
_publ_section_title
;
Structure prediction by ZEFSAII (Michael W. Deem and Ramdas Pophale) SiO2 
 PCOD9303340
Probable space group: C 2/C
;
_chemical_formula_sum "Si O2"
_cell_formula_units_Z 48
_cell_length_a 11.913634
_cell_length_b 20.879510
_cell_length_c 11.813720
_cell_angle_alpha 90.000000
_cell_angle_beta 131.306503
_cell_angle_gamma 90.000000
_cell_volume 2207.499309
_symmetry_space_group_name_H-M "C 2/C"
_symmetry_group_IT_number 15
_symmetry_cell_setting 'monoclinic'
loop_
_space_group_symop_operation_xyz
x,y,z
-x,y,1/2-z
-x,-y,-z
x,-y,1/2+z
1/2+x,1/2+y,z
1/2-x,1/2+y,1/2-z
1/2-x,1/2-y,-z
1/2+x,1/2-y,1/2+z
loop_
_atom_site_type_symbol
_atom_site_label
_atom_site_fract_x
_atom_site_fract_y
_atom_site_fract_z
Si Si1 0.134843 0.382925 0.654326
Si Si2 0.845742 0.070397 0.104144
Si Si3 0.291127 0.724682 0.401680
Si Si4 0.255943 0.947018 0.570373
Si Si5 0.463887 0.617296 0.953608
Si Si6 0.809145 0.368157 0.383025
O O1 0.267645 0.392793 0.654239
O O2 0.170933 0.319226 0.753562
O O3 0.136081 0.437587 0.751435
O O4 0.981453 0.386075 0.484611
O O5 0.000000 0.039306 0.250000
O O6 0.896749 0.114510 0.034182
O O7 0.740016 0.014591 0.987537
O O8 0.250000 0.750000 0.500000
O O9 0.444041 0.683244 0.505879
O O10 0.305776 0.792932 0.351825
O O11 0.277899 0.891175 0.491540
O O12 0.091830 0.935346 0.515117
O O13 0.325970 0.603774 0.778982
#
# Coordination Sequence:
#
# PCOD9303340 Si02
#       6
#     8   8   8   8   8   8
#     4  11  26  45  67 108 139 186 229 288 359 408
#     4  12  24  47  71  94 144 190 237 286 340 432
#     4  11  22  43  72 101 138 174 235 292 344 408
#     4  11  24  41  72  98 137 184 238 283 347 414
#     4  11  24  43  70 105 134 187 237 282 357 415
#     4  12  24  42  67 108 143 172 236 296 353 411
#
# _framework density 21.744060999999999
#
# number of rings (size 3 to 8) (size 9 to 14) (size 15 to 20)
#    0.000    0.667    6.667    3.500    2.333    2.667 
#    3.000    5.000    0.000    0.000    0.000    0.000 
#    0.000    0.000    0.000    0.000    0.000    0.000 
#
# Total GULP energy -133985.049392 kJ/mol
# GULP energy per Si atom -5582.710391 kJ/mol
# Density = 2.169457 g / cm^3
# Si number density = 21.744061 Si / 1000 Ang^3
#
#
#
# Elastic Constant Matrix: (Units=GPa)
#
#
# Indices 1 2 3 4 5 6 
#
# 1 93.6413 23.8801 12.0294 0.0000 -16.5169 0.0000
# 2 23.8801 74.4443 0.5400 0.0000 -7.2565 0.0000
# 3 12.0294 0.5400 75.5178 0.0000 14.0577 0.0000
# 4 0.0000 0.0000 0.0000 -3.3503 0.0000 33.1046
# 5 -16.5169 -7.2565 14.0577 0.0000 43.0943 0.0000
# 6 0.0000 0.0000 0.0000 33.1046 0.0000 -35.2276
#
#
#
# Elastic Compliance Matrix: (Units=1/GPa)
#
#
# Indices 1 2 3 4 5 6 
#
# 1 0.012928 -0.003605 -0.003027 0.000000 0.005335 0.000000
# 2 -0.003605 0.014685 0.000283 0.000000 0.000998 0.000000
# 3 -0.003027 0.000283 0.014830 0.000000 -0.005950 0.000000
# 4 0.000000 0.000000 0.000000 0.036024 0.000000 0.033853
# 5 0.005335 0.000998 -0.005950 0.000000 0.027359 0.000000
# 6 0.000000 0.000000 0.000000 0.033853 0.000000 0.003426
#
#
# Mechanical properties :
#
#
# Convention : Reuss Voigt Hill
#
# Bulk Modulus (GPa) = 33.61852 35.16692 34.39272
# Shear Modulus (GPa) = 37.91802 14.71355 26.31578
#
# Velocity S-wave (km/s) = 4.18045 2.60411 3.48264
# Velocity P-wave (km/s) = 6.22866 5.02495 5.65890
#
# Compressibility (1/GPa) = 0.02974551
#
# Stress axis : x y z
#
# Youngs Moduli (GPa) = 77.34963 68.09869 67.43265
#
# Poissons Ratio (x) = 0.24550 0.20410
# Poissons Ratio (y) = 0.27885 -0.01911
# Poissons Ratio (z) = 0.23412 -0.01930
#
# Static dielectric constant tensor:
#      x y z
#    x 1.799350 0.000000 0.010850 
#    y 0.000000 1.869760 0.000000 
#    z 0.010850 0.000000 1.831100 
# 
# From -- ./inp_files/89802.got.cif
#   From: 2010.05.17/outbox.cif.g08.bks.cpg/sg15_45_cif.got.tgz:89802.got - 2010.06.03 18:47:42.
