data_PCOD9303989
_publ_section_title
;
Structure prediction by ZEFSAII (Michael W. Deem and Ramdas Pophale) SiO2 
 PCOD9303989
Probable space group: C 2/C
;
_chemical_formula_sum "Si O2"
_cell_formula_units_Z 44
_cell_length_a 13.048995
_cell_length_b 11.391106
_cell_length_c 13.842435
_cell_angle_alpha 90.000000
_cell_angle_beta 113.087456
_cell_angle_gamma 90.000000
_cell_volume 1892.777434
_symmetry_space_group_name_H-M "C 2/C"
_symmetry_group_IT_number 15
_symmetry_cell_setting 'monoclinic'
loop_
_space_group_symop_operation_xyz
x,y,z
-x,y,1/2-z
-x,-y,-z
x,-y,1/2+z
1/2+x,1/2+y,z
1/2-x,1/2+y,1/2-z
1/2-x,1/2-y,-z
1/2+x,1/2-y,1/2+z
loop_
_atom_site_type_symbol
_atom_site_label
_atom_site_fract_x
_atom_site_fract_y
_atom_site_fract_z
Si Si1 0.154102 0.802629 0.532525
Si Si2 0.000000 0.811956 0.750000
Si Si3 0.128689 0.986661 0.374867
Si Si4 0.204641 0.624286 0.950968
Si Si5 0.938823 0.376551 0.359915
Si Si6 0.266492 0.500791 0.788715
O O1 0.250000 0.750000 0.500000
O O2 0.089705 0.691766 0.552697
O O3 0.087969 0.887010 0.433006
O O4 0.202942 0.882478 0.639668
O O5 0.946334 0.896799 0.651368
O O6 0.915648 0.725526 0.771266
O O7 0.247064 0.026993 0.459143
O O8 0.150772 0.966512 0.269010
O O9 0.265513 0.595345 0.873212
O O10 0.071418 0.606168 0.901704
O O11 0.250000 0.750000 0.000000
O O12 0.858716 0.484752 0.302812
#
# Coordination Sequence:
#
# PCOD9303989 Si02
#       6
#     8   4   8   8   8   8
#     4  11  25  44  68 102 143 175 227 291 343 402
#     4  12  22  42  72 100 130 182 234 272 346 410
#     4  11  24  42  68  99 136 176 224 287 339 403
#     4  11  23  41  68  99 129 179 230 272 336 408
#     4  12  22  43  70  97 135 184 227 282 339 410
#     4  11  23  41  68  96 138 176 223 279 343 404
#
# _framework density 23.246262999999999
#
# number of rings (size 3 to 8) (size 9 to 14) (size 15 to 20)
#    0.000    0.727    7.273    0.000    0.000    2.909 
#    3.273    0.000    0.000    0.000    0.000    0.000 
#    0.000    0.000    0.000    0.000    0.000    0.000 
#
# Total GULP energy -122644.922241 kJ/mol
# GULP energy per Si atom -5574.769193 kJ/mol
# Density = 2.319335 g / cm^3
# Si number density = 23.246263 Si / 1000 Ang^3
#
#
#
# Elastic Constant Matrix: (Units=GPa)
#
#
# Indices 1 2 3 4 5 6 
#
# 1 65.4283 14.5656 32.8531 0.0000 -18.1548 0.0000
# 2 14.5656 52.1002 29.9377 0.0000 -1.2341 0.0000
# 3 32.8531 29.9377 105.6737 0.0000 -15.9091 0.0000
# 4 0.0000 0.0000 0.0000 36.3548 0.0000 -0.6912
# 5 -18.1548 -1.2341 -15.9091 0.0000 50.8874 0.0000
# 6 0.0000 0.0000 0.0000 -0.6912 0.0000 37.1506
#
#
#
# Elastic Compliance Matrix: (Units=1/GPa)
#
#
# Indices 1 2 3 4 5 6 
#
# 1 0.019706 -0.002793 -0.004499 0.000000 0.005556 0.000000
# 2 -0.002793 0.023438 -0.006125 0.000000 -0.002343 0.000000
# 3 -0.004499 -0.006125 0.012942 0.000000 0.002293 0.000000
# 4 0.000000 0.000000 0.000000 0.027516 0.000000 0.000512
# 5 0.005556 -0.002343 0.002293 0.000000 0.022293 0.000000
# 6 0.000000 0.000000 0.000000 0.000512 0.000000 0.026927
#
#
# Mechanical properties :
#
#
# Convention : Reuss Voigt Hill
#
# Bulk Modulus (GPa) = 34.18276 41.99057 38.08666
# Shear Modulus (GPa) = 29.51468 34.60161 32.05815
#
# Velocity S-wave (km/s) = 3.56708 3.86227 3.71761
# Velocity P-wave (km/s) = 5.63045 6.16377 5.90314
#
# Compressibility (1/GPa) = 0.02925451
#
# Stress axis : x y z
#
# Youngs Moduli (GPa) = 50.74506 42.66516 77.26758
#
# Poissons Ratio (x) = 0.11914 0.34762
# Poissons Ratio (y) = 0.14171 0.47324
# Poissons Ratio (z) = 0.22830 0.26131
#
# Static dielectric constant tensor:
#      x y z
#    x 1.904410 0.000000 0.003460 
#    y 0.000000 1.918960 0.000000 
#    z 0.003460 0.000000 2.007270 
# 
# From -- ./inp_files/152271.got.cif
#   From: 2010.05.17/outbox.cif.g08.bks.cpg/sg15_77_cif.got.tgz:152271.got - 2010.06.03 18:47:42.
