data_PCOD9303208
_publ_section_title
;
Structure prediction by ZEFSAII (Michael W. Deem and Ramdas Pophale) SiO2 
 PCOD9303208
Probable space group: C 2/C
;
_chemical_formula_sum "Si O2"
_cell_formula_units_Z 48
_cell_length_a 26.817070
_cell_length_b 15.407854
_cell_length_c 9.451202
_cell_angle_alpha 90.000000
_cell_angle_beta 35.112207
_cell_angle_gamma 90.000000
_cell_volume 2246.176921
_symmetry_space_group_name_H-M "C 2/C"
_symmetry_group_IT_number 15
_symmetry_cell_setting 'monoclinic'
loop_
_space_group_symop_operation_xyz
x,y,z
-x,y,1/2-z
-x,-y,-z
x,-y,1/2+z
1/2+x,1/2+y,z
1/2-x,1/2+y,1/2-z
1/2-x,1/2-y,-z
1/2+x,1/2-y,1/2+z
loop_
_atom_site_type_symbol
_atom_site_label
_atom_site_fract_x
_atom_site_fract_y
_atom_site_fract_z
Si Si1 0.834819 0.073228 0.559915
Si Si2 0.410872 0.612037 0.874230
Si Si3 0.648123 0.721416 0.760731
Si Si4 0.917056 0.413686 0.542780
Si Si5 0.737846 0.349580 0.558548
Si Si6 0.337526 0.014412 0.961815
O O1 0.864178 0.158035 0.576636
O O2 0.799124 0.103288 0.492663
O O3 0.899885 0.992661 0.384521
O O4 0.752877 0.037256 0.840187
O O5 0.500000 0.630655 0.750000
O O6 0.393652 0.666394 0.771493
O O7 0.331491 0.640045 0.157087
O O8 0.750000 0.750000 0.500000
O O9 0.601042 0.812641 0.894130
O O10 0.909412 0.458209 0.714202
O O11 0.847288 0.461538 0.603433
O O12 0.000000 0.424728 0.250000
O O13 0.750000 0.250000 0.500000
O O14 0.825569 0.395405 0.407189
#
# Coordination Sequence:
#
# PCOD9303208 Si02
#       6
#     8   8   8   8   8   8
#     4  11  22  42  71  96 132 186 228 278 343 429
#     4  11  26  43  67 103 142 179 225 298 361 411
#     4  12  24  45  71  99 138 185 237 283 344 422
#     4  12  26  43  68 100 135 181 228 294 356 412
#     4  11  23  40  68 100 130 183 237 279 341 421
#     4  11  22  44  66  96 135 178 234 277 348 417
#
# _framework density 21.369641999999999
#
# number of rings (size 3 to 8) (size 9 to 14) (size 15 to 20)
#    0.000    0.667    3.333    6.500    0.000    6.000 
#    0.000    1.667    0.000    0.000    0.000    0.000 
#    0.000    0.000    0.000    0.000    0.000    0.000 
#
# Total GULP energy -134078.106993 kJ/mol
# GULP energy per Si atom -5586.587791 kJ/mol
# Density = 2.132100 g / cm^3
# Si number density = 21.369642 Si / 1000 Ang^3
#
#
#
# Elastic Constant Matrix: (Units=GPa)
#
#
# Indices 1 2 3 4 5 6 
#
# 1 70.8306 12.9882 4.2284 0.0000 17.8844 0.0000
# 2 12.9882 116.9652 14.0518 0.0000 10.1987 0.0000
# 3 4.2284 14.0518 45.3875 0.0000 16.2030 0.0000
# 4 0.0000 0.0000 0.0000 32.3560 0.0000 16.3749
# 5 17.8844 10.1987 16.2030 0.0000 39.1179 0.0000
# 6 0.0000 0.0000 0.0000 16.3749 0.0000 29.0223
#
#
#
# Elastic Compliance Matrix: (Units=1/GPa)
#
#
# Indices 1 2 3 4 5 6 
#
# 1 0.016221 -0.001325 0.001670 0.000000 -0.007763 0.000000
# 2 -0.001325 0.009052 -0.002409 0.000000 -0.000756 0.000000
# 3 0.001670 -0.002409 0.026605 0.000000 -0.011156 0.000000
# 4 0.000000 0.000000 0.000000 0.043258 0.000000 -0.024407
# 5 -0.007763 -0.000756 -0.011156 0.000000 0.033931 0.000000
# 6 0.000000 0.000000 0.000000 -0.024407 0.000000 0.048227
#
#
# Mechanical properties :
#
#
# Convention : Reuss Voigt Hill
#
# Bulk Modulus (GPa) = 20.94194 32.85779 26.89986
# Shear Modulus (GPa) = 25.33704 33.56024 29.44864
#
# Velocity S-wave (km/s) = 3.44707 3.96721 3.71625
# Velocity P-wave (km/s) = 5.06598 6.03277 5.57039
#
# Compressibility (1/GPa) = 0.04775106
#
# Stress axis : x y z
#
# Youngs Moduli (GPa) = 61.64659 110.47211 37.58659
#
# Poissons Ratio (x) = 0.14638 -0.06278
# Poissons Ratio (y) = 0.08169 0.09055
# Poissons Ratio (z) = -0.10297 0.26613
#
# Static dielectric constant tensor:
#      x y z
#    x 1.898800 0.000000 -0.026500 
#    y 0.000000 1.777040 0.000000 
#    z -0.026500 0.000000 1.796460 
# 
# From -- ./inp_files/69840.got.cif
#   From: 2010.05.17/outbox.cif.g08.bks.cpg/sg15_35_cif.got.tgz:69840.got - 2010.06.03 18:47:42.
