data_PCOD9303733
_publ_section_title
;
Structure prediction by ZEFSAII (Michael W. Deem and Ramdas Pophale) SiO2 
 PCOD9303733
Probable space group: C 2/C
;
_chemical_formula_sum "Si O2"
_cell_formula_units_Z 60
_cell_length_a 16.395721
_cell_length_b 27.145435
_cell_length_c 23.105159
_cell_angle_alpha 90.000000
_cell_angle_beta 162.826480
_cell_angle_gamma 90.000000
_cell_volume 3036.340678
_symmetry_space_group_name_H-M "C 2/C"
_symmetry_group_IT_number 15
_symmetry_cell_setting 'monoclinic'
loop_
_space_group_symop_operation_xyz
x,y,z
-x,y,1/2-z
-x,-y,-z
x,-y,1/2+z
1/2+x,1/2+y,z
1/2-x,1/2+y,1/2-z
1/2-x,1/2-y,-z
1/2+x,1/2-y,1/2+z
loop_
_atom_site_type_symbol
_atom_site_label
_atom_site_fract_x
_atom_site_fract_y
_atom_site_fract_z
Si Si1 0.907025 0.585762 0.842515
Si Si2 0.500000 0.545704 0.250000
Si Si3 0.053539 0.732467 0.219342
Si Si4 0.304797 0.415605 0.429848
Si Si5 0.960137 0.991607 0.343617
Si Si6 0.667716 0.859748 0.713731
Si Si7 0.166755 0.600600 0.419745
Si Si8 0.264117 0.340472 0.179906
O O1 0.741129 0.583284 0.670159
O O2 0.795438 0.540682 0.806547
O O3 0.840797 0.636681 0.830825
O O4 0.231042 0.577872 0.052764
O O5 0.428130 0.513347 0.257636
O O6 0.146540 0.688462 0.240484
O O7 0.228664 0.781797 0.325065
O O8 0.000000 0.719519 0.250000
O O9 0.750000 0.750000 0.000000
O O10 0.446910 0.464790 0.551066
O O11 0.520628 0.372308 0.591701
O O12 0.000000 0.409946 0.250000
O O13 0.203796 0.951810 0.505723
O O14 0.550385 0.902338 0.675802
O O15 0.453169 0.858210 0.515620
O O16 0.424011 0.636357 0.612986
O O17 0.000000 0.616911 0.250000
#
# Coordination Sequence:
#
# PCOD9303733 Si02
#       8
#     8   4   8   8   8   8   8   8
#     4  11  26  43  67  96 135 181 233 284 344 407
#     4  12  24  42  66  94 138 180 228 296 328 414
#     4  12  23  42  71 108 144 172 212 274 353 422
#     4  12  26  47  67  92 133 188 242 284 334 397
#     4  11  25  41  66  97 134 181 232 281 345 401
#     4  12  25  40  71  98 142 178 224 282 342 413
#     4  11  23  38  62 101 137 176 220 276 334 417
#     4  11  24  42  66 104 138 178 216 272 348 417
#
# _framework density 19.760629000000002
#
# number of rings (size 3 to 8) (size 9 to 14) (size 15 to 20)
#    0.000    0.533    4.000    4.400    7.467    0.000 
#    0.000    0.000    1.467    1.600    0.000    0.000 
#    0.000    0.000    0.000    0.000    0.000    0.000 
#
# Total GULP energy -167538.423800 kJ/mol
# GULP energy per Si atom -5584.614127 kJ/mol
# Density = 1.971565 g / cm^3
# Si number density = 19.760629 Si / 1000 Ang^3
#
#
#
# Elastic Constant Matrix: (Units=GPa)
#
#
# Indices 1 2 3 4 5 6 
#
# 1 81.0199 33.7900 17.3427 -0.3252 -18.4141 0.0388
# 2 33.7900 103.2865 26.1145 -0.2102 -3.0454 0.0522
# 3 17.3427 26.1145 104.6650 -0.4234 -5.9132 0.0765
# 4 -0.3252 -0.2102 -0.4234 9.8001 0.0676 1.6717
# 5 -18.4141 -3.0454 -5.9132 0.0676 46.5241 0.0381
# 6 0.0388 0.0522 0.0765 1.6717 0.0381 37.7687
#
#
#
# Elastic Compliance Matrix: (Units=1/GPa)
#
#
# Indices 1 2 3 4 5 6 
#
# 1 0.015887 -0.004742 -0.001118 0.000342 0.005835 -0.000029
# 2 -0.004742 0.011755 -0.002226 0.000009 -0.001390 -0.000006
# 3 -0.001118 -0.002226 0.010337 0.000363 0.000725 -0.000033
# 4 0.000342 0.000009 0.000363 0.102843 0.000036 -0.004553
# 5 0.005835 -0.001390 0.000725 0.000036 0.023805 -0.000031
# 6 -0.000029 -0.000006 -0.000033 -0.004553 -0.000031 0.026679
#
#
# Mechanical properties :
#
#
# Convention : Reuss Voigt Hill
#
# Bulk Modulus (GPa) = 45.85543 49.27398 47.56470
# Shear Modulus (GPa) = 23.28315 32.93353 28.10834
#
# Velocity S-wave (km/s) = 3.43630 4.08686 3.77562
# Velocity P-wave (km/s) = 6.24500 6.87455 6.56732
#
# Compressibility (1/GPa) = 0.02180767
#
# Stress axis : x y z
#
# Youngs Moduli (GPa) = 62.94343 85.07089 96.73653
#
# Poissons Ratio (x) = 0.40341 0.10818
# Poissons Ratio (y) = 0.29848 0.21531
# Poissons Ratio (z) = 0.07039 0.18934
#
# Static dielectric constant tensor:
#      x y z
#    x 1.702110 -0.000040 -0.012790 
#    y -0.000040 1.731140 0.000420 
#    z -0.012790 0.000420 1.790760 
# 
# From -- ./inp_files/245822.got.cif
#   From: 2010.05.17/outbox.cif.g08.bks.cpg/sg15_123_cif.got.tgz:245822.got - 2010.06.03 18:47:42.
