data_PCOD9303656
_publ_section_title
;
Structure prediction by ZEFSAII (Michael W. Deem and Ramdas Pophale) SiO2 
 PCOD9303656
Probable space group: C 2/C
;
_chemical_formula_sum "Si O2"
_cell_formula_units_Z 44
_cell_length_a 8.448376
_cell_length_b 22.755191
_cell_length_c 11.196891
_cell_angle_alpha 90.000000
_cell_angle_beta 72.832517
_cell_angle_gamma 90.000000
_cell_volume 2056.635512
_symmetry_space_group_name_H-M "C 2/C"
_symmetry_group_IT_number 15
_symmetry_cell_setting 'monoclinic'
loop_
_space_group_symop_operation_xyz
x,y,z
-x,y,1/2-z
-x,-y,-z
x,-y,1/2+z
1/2+x,1/2+y,z
1/2-x,1/2+y,1/2-z
1/2-x,1/2-y,-z
1/2+x,1/2-y,1/2+z
loop_
_atom_site_type_symbol
_atom_site_label
_atom_site_fract_x
_atom_site_fract_y
_atom_site_fract_z
Si Si1 0.137220 0.310767 0.382479
Si Si2 0.293709 0.594191 0.009619
Si Si3 0.190033 0.519199 0.663003
Si Si4 0.500000 0.456645 0.250000
Si Si5 0.231484 0.345975 0.106688
Si Si6 0.539720 0.685418 0.380223
O O1 0.179813 0.356019 0.476762
O O2 0.245369 0.329311 0.243116
O O3 0.148257 0.241148 0.397722
O O4 0.945724 0.321432 0.393110
O O5 0.430186 0.579595 0.878412
O O6 0.210122 0.533523 0.065380
O O7 0.370624 0.624545 0.109011
O O8 0.334905 0.511897 0.732099
O O9 0.223045 0.583439 0.599752
O O10 0.000000 0.520001 0.750000
O O11 0.373747 0.317918 0.995636
O O12 0.500000 0.691973 0.250000
#
# Coordination Sequence:
#
# PCOD9303656 Si02
#       6
#     8   8   8   4   8   8
#     4  11  23  46  72  99 140 191 237 286 362 424
#     4  12  26  45  72 108 139 185 243 293 353 434
#     4  12  26  47  73 107 143 189 237 300 361 428
#     4  12  24  48  74 102 146 194 228 294 374 418
#     4  11  22  47  73  99 139 191 234 288 365 427
#     4  12  26  42  71 105 144 184 235 295 350 424
#
# _framework density 21.394162999999999
#
# number of rings (size 3 to 8) (size 9 to 14) (size 15 to 20)
#    0.000    0.364    7.273    1.636    1.273    4.364 
#    0.000    0.000    0.000    0.000    0.000    0.000 
#    0.000    0.000    0.000    0.000    0.000    0.000 
#
# Total GULP energy -122933.020002 kJ/mol
# GULP energy per Si atom -5587.864546 kJ/mol
# Density = 2.134547 g / cm^3
# Si number density = 21.394163 Si / 1000 Ang^3
#
#
#
# Elastic Constant Matrix: (Units=GPa)
#
#
# Indices 1 2 3 4 5 6 
#
# 1 74.8779 20.1846 31.3754 0.0000 2.2261 0.0000
# 2 20.1846 160.8206 72.4064 0.0000 -12.4854 0.0000
# 3 31.3754 72.4064 81.6091 0.0000 1.6833 0.0000
# 4 0.0000 0.0000 0.0000 28.5894 0.0000 4.8738
# 5 2.2261 -12.4854 1.6833 0.0000 23.3203 0.0000
# 6 0.0000 0.0000 0.0000 4.8738 0.0000 20.2423
#
#
#
# Elastic Compliance Matrix: (Units=1/GPa)
#
#
# Indices 1 2 3 4 5 6 
#
# 1 0.016078 0.001222 -0.007258 0.000000 -0.000356 0.000000
# 2 0.001222 0.011432 -0.010753 0.000000 0.006780 0.000000
# 3 -0.007258 -0.010753 0.024726 0.000000 -0.006849 0.000000
# 4 0.000000 0.000000 0.000000 0.036475 0.000000 -0.008782
# 5 -0.000356 0.006780 -0.006849 0.000000 0.047040 0.000000
# 6 0.000000 0.000000 0.000000 -0.008782 0.000000 0.051516
#
#
# Mechanical properties :
#
#
# Convention : Reuss Voigt Hill
#
# Bulk Modulus (GPa) = 53.59701 62.80448 58.20075
# Shear Modulus (GPa) = 22.02023 27.31981 24.67002
#
# Velocity S-wave (km/s) = 3.21169 3.57736 3.39944
# Velocity P-wave (km/s) = 6.23377 6.81784 6.53233
#
# Compressibility (1/GPa) = 0.01865776
#
# Stress axis : x y z
#
# Youngs Moduli (GPa) = 62.19856 87.47035 40.44353
#
# Poissons Ratio (x) = -0.10692 0.29355
# Poissons Ratio (y) = -0.07603 0.43489
# Poissons Ratio (z) = 0.45146 0.94057
#
# Static dielectric constant tensor:
#      x y z
#    x 1.815330 0.000000 0.029980 
#    y 0.000000 1.759070 0.000000 
#    z 0.029980 0.000000 1.742690 
# 
# From -- ./inp_files/78109.got.cif
#   From: 2010.05.17/outbox.cif.g08.bks.cpg/sg15_40_cif.got.tgz:78109.got - 2010.06.03 18:47:42.
