data_PCOD9303306
_publ_section_title
;
Structure prediction by ZEFSAII (Michael W. Deem and Ramdas Pophale) SiO2 
 PCOD9303306
Probable space group: C 2/C
;
_chemical_formula_sum "Si O2"
_cell_formula_units_Z 52
_cell_length_a 10.566668
_cell_length_b 21.847048
_cell_length_c 13.111121
_cell_angle_alpha 90.000000
_cell_angle_beta 52.958652
_cell_angle_gamma 90.000000
_cell_volume 2415.922044
_symmetry_space_group_name_H-M "C 2/C"
_symmetry_group_IT_number 15
_symmetry_cell_setting 'monoclinic'
loop_
_space_group_symop_operation_xyz
x,y,z
-x,y,1/2-z
-x,-y,-z
x,-y,1/2+z
1/2+x,1/2+y,z
1/2-x,1/2+y,1/2-z
1/2-x,1/2-y,-z
1/2+x,1/2-y,1/2+z
loop_
_atom_site_type_symbol
_atom_site_label
_atom_site_fract_x
_atom_site_fract_y
_atom_site_fract_z
Si Si1 0.035900 0.310764 0.051483
Si Si2 0.963628 0.375245 0.662483
Si Si3 0.545284 0.541188 0.623094
Si Si4 0.385748 0.998823 0.456561
Si Si5 0.915334 0.814850 0.896077
Si Si6 0.884825 0.076937 0.130196
Si Si7 0.000000 0.606133 0.750000
O O1 0.020039 0.237484 0.059342
O O2 0.943845 0.346629 0.187632
O O3 0.001312 0.340526 0.959330
O O4 0.225244 0.317377 0.983139
O O5 0.780983 0.396483 0.751393
O O6 0.000000 0.340110 0.750000
O O7 0.068060 0.436829 0.616870
O O8 0.500000 0.573759 0.750000
O O9 0.702441 0.502489 0.573713
O O10 0.590471 0.580395 0.503261
O O11 0.411341 0.493377 0.650265
O O12 0.500000 0.000000 0.500000
O O13 0.407709 0.942734 0.367418
O O14 0.000000 0.796167 0.750000
O O15 0.978986 0.881341 0.889866
#
# Coordination Sequence:
#
# PCOD9303306 Si02
#       7
#     8   8   8   8   8   8   4
#     4  11  25  41  67  97 126 168 223 273 320 376
#     4  12  23  43  65  92 133 176 212 264 331 396
#     4  11  24  41  62  96 132 173 212 266 321 397
#     4  12  23  37  62  96 134 169 214 264 329 385
#     4  11  22  43  69  94 124 165 220 276 319 377
#     4  11  23  42  66  92 129 173 217 262 331 386
#     4  12  22  38  60  98 128 166 214 272 312 380
#
# _framework density 21.523872000000001
#
# number of rings (size 3 to 8) (size 9 to 14) (size 15 to 20)
#    0.000    0.615    6.154    2.308    0.000    3.692 
#    0.000    1.538    0.000    0.000    0.000    0.000 
#    0.000    0.000    0.000    0.000    0.000    0.000 
#
# Total GULP energy -145053.244320 kJ/mol
# GULP energy per Si atom -5578.970935 kJ/mol
# Density = 2.147488 g / cm^3
# Si number density = 21.523872 Si / 1000 Ang^3
#
#
#
# Elastic Constant Matrix: (Units=GPa)
#
#
# Indices 1 2 3 4 5 6 
#
# 1 48.8467 -8.8790 8.4105 0.0000 8.9595 0.0000
# 2 -8.8790 66.4996 6.4747 0.0000 14.0243 0.0000
# 3 8.4105 6.4747 104.5044 0.0000 33.9948 0.0000
# 4 0.0000 0.0000 0.0000 1.1446 0.0000 5.3589
# 5 8.9595 14.0243 33.9948 0.0000 42.8801 0.0000
# 6 0.0000 0.0000 0.0000 5.3589 0.0000 14.5892
#
#
#
# Elastic Compliance Matrix: (Units=1/GPa)
#
#
# Indices 1 2 3 4 5 6 
#
# 1 0.022361 0.004256 -0.000122 0.000000 -0.005967 0.000000
# 2 0.004256 0.017035 0.000948 0.000000 -0.007212 0.000000
# 3 -0.000122 0.000948 0.012953 0.000000 -0.010554 0.000000
# 4 0.000000 0.000000 0.000000 -1.213866 0.000000 0.445878
# 5 -0.005967 -0.007212 -0.010554 0.000000 0.035293 0.000000
# 6 0.000000 0.000000 0.000000 0.445878 0.000000 -0.095237
#
#
# Mechanical properties :
#
#
# Convention : Reuss Voigt Hill
#
# Bulk Modulus (GPa) = 15.99655 25.76255 20.87955
# Shear Modulus (GPa) = -4.12955 25.97908 10.92477
#
# Velocity S-wave (km/s) = -1.38663 3.47794 2.25536
# Velocity P-wave (km/s) = 2.21008 5.30315 4.06250
#
# Compressibility (1/GPa) = 0.06251349
#
# Stress axis : x y z
#
# Youngs Moduli (GPa) = 44.71988 58.70380 77.20138
#
# Poissons Ratio (x) = -0.24985 0.00943
# Poissons Ratio (y) = -0.19033 -0.07320
# Poissons Ratio (z) = 0.00546 -0.05566
#
# Static dielectric constant tensor:
#      x y z
#    x 1.829290 0.000000 0.029310 
#    y 0.000000 1.786710 0.000000 
#    z 0.029310 0.000000 1.843630 
# 
# From -- ./inp_files/91181.got.cif
#   From: 2010.05.17/outbox.cif.g08.bks.cpg/sg15_46_cif.got.tgz:91181.got - 2010.06.03 18:47:42.
