data_PCOD9303149
_publ_section_title
;
Structure prediction by ZEFSAII (Michael W. Deem and Ramdas Pophale) SiO2 
 PCOD9303149
Probable space group: C 2/C
;
_chemical_formula_sum "Si O2"
_cell_formula_units_Z 48
_cell_length_a 16.778745
_cell_length_b 10.359261
_cell_length_c 14.802046
_cell_angle_alpha 90.000000
_cell_angle_beta 87.682014
_cell_angle_gamma 90.000000
_cell_volume 2570.718309
_symmetry_space_group_name_H-M "C 2/C"
_symmetry_group_IT_number 15
_symmetry_cell_setting 'monoclinic'
loop_
_space_group_symop_operation_xyz
x,y,z
-x,y,1/2-z
-x,-y,-z
x,-y,1/2+z
1/2+x,1/2+y,z
1/2-x,1/2+y,1/2-z
1/2-x,1/2-y,-z
1/2+x,1/2-y,1/2+z
loop_
_atom_site_type_symbol
_atom_site_label
_atom_site_fract_x
_atom_site_fract_y
_atom_site_fract_z
Si Si1 0.590619 0.865826 0.230922
Si Si2 0.596812 0.642464 0.744095
Si Si3 0.846074 0.394964 0.654120
Si Si4 0.307002 0.614137 0.234332
Si Si5 0.808228 0.713720 0.414840
Si Si6 0.088953 0.519696 0.532229
O O1 0.500000 0.825155 0.250000
O O2 0.647635 0.748408 0.253745
O O3 0.610538 0.989283 0.292845
O O4 0.596320 0.907136 0.126565
O O5 0.500000 0.637259 0.750000
O O6 0.622362 0.759934 0.808270
O O7 0.634103 0.507013 0.774889
O O8 0.642257 0.681164 0.647380
O O9 0.752958 0.408060 0.679782
O O10 0.863776 0.408914 0.548703
O O11 0.247646 0.634350 0.152542
O O12 0.750000 0.750000 0.500000
O O13 0.874170 0.620196 0.452968
O O14 0.000000 0.500000 0.500000
#
# Coordination Sequence:
#
# PCOD9303149 Si02
#       6
#     8   8   8   8   8   8
#     4  12  23  42  66  94 129 170 215 265 315 382
#     4  11  22  43  64  91 129 168 205 267 323 376
#     4  11  22  42  68  90 126 167 220 258 317 378
#     4  11  24  42  64  92 132 168 208 266 327 379
#     4  11  24  42  67  92 130 171 215 260 328 384
#     4  12  23  39  69  99 122 167 223 267 309 383
#
# _framework density 18.671824000000001
#
# number of rings (size 3 to 8) (size 9 to 14) (size 15 to 20)
#    0.000    0.667    5.000    6.000    0.000    0.667 
#    3.000    0.833    0.000    0.000    0.000    0.000 
#    0.000    0.000    0.000    0.000    0.000    0.000 
#
# Total GULP energy -134040.842640 kJ/mol
# GULP energy per Si atom -5585.035110 kJ/mol
# Density = 1.862933 g / cm^3
# Si number density = 18.671824 Si / 1000 Ang^3
#
#
#
# Elastic Constant Matrix: (Units=GPa)
#
#
# Indices 1 2 3 4 5 6 
#
# 1 116.5445 40.9575 22.3348 0.0000 0.1522 0.0000
# 2 40.9575 80.8842 19.8848 0.0000 14.9907 0.0000
# 3 22.3348 19.8848 108.3830 0.0000 -19.2031 0.0000
# 4 0.0000 0.0000 0.0000 23.5721 0.0000 -3.3534
# 5 0.1522 14.9907 -19.2031 0.0000 31.5417 0.0000
# 6 0.0000 0.0000 0.0000 -3.3534 0.0000 59.6373
#
#
#
# Elastic Compliance Matrix: (Units=1/GPa)
#
#
# Indices 1 2 3 4 5 6 
#
# 1 0.010706 -0.005621 -0.000797 0.000000 0.002135 0.000000
# 2 -0.005621 0.018323 -0.004194 0.000000 -0.011234 0.000000
# 3 -0.000797 -0.004194 0.011785 0.000000 0.009172 0.000000
# 4 0.000000 0.000000 0.000000 0.042765 0.000000 0.002405
# 5 0.002135 -0.011234 0.009172 0.000000 0.042617 0.000000
# 6 0.000000 0.000000 0.000000 0.002405 0.000000 0.016903
#
#
# Mechanical properties :
#
#
# Convention : Reuss Voigt Hill
#
# Bulk Modulus (GPa) = 51.04390 52.46288 51.75339
# Shear Modulus (GPa) = 29.26506 37.79252 33.52879
#
# Velocity S-wave (km/s) = 3.96326 4.50381 4.24215
# Velocity P-wave (km/s) = 6.95269 7.42995 7.19528
#
# Compressibility (1/GPa) = 0.01959098
#
# Stress axis : x y z
#
# Youngs Moduli (GPa) = 93.40871 54.57708 84.85193
#
# Poissons Ratio (x) = 0.30677 0.06760
# Poissons Ratio (y) = 0.52503 0.35585
# Poissons Ratio (z) = 0.07442 0.22889
#
# Static dielectric constant tensor:
#      x y z
#    x 1.767310 0.000000 -0.362370 
#    y 0.000000 1.679970 0.000000 
#    z -0.362370 0.000000 2.383800 
# 
# From -- ./inp_files/159744.got.cif
#   From: 2010.05.17/outbox.cif.g08.bks.cpg/sg15_80_cif.got.tgz:159744.got - 2010.06.03 18:47:42.
