data_PCOD9303985
_publ_section_title
;
Structure prediction by ZEFSAII (Michael W. Deem and Ramdas Pophale) SiO2 
 PCOD9303985
Probable space group: C 2/C
;
_chemical_formula_sum "Si O2"
_cell_formula_units_Z 48
_cell_length_a 18.527845
_cell_length_b 15.881348
_cell_length_c 10.725053
_cell_angle_alpha 90.000000
_cell_angle_beta 41.848528
_cell_angle_gamma 90.000000
_cell_volume 2105.445872
_symmetry_space_group_name_H-M "C 2/C"
_symmetry_group_IT_number 15
_symmetry_cell_setting 'monoclinic'
loop_
_space_group_symop_operation_xyz
x,y,z
-x,y,1/2-z
-x,-y,-z
x,-y,1/2+z
1/2+x,1/2+y,z
1/2-x,1/2+y,1/2-z
1/2-x,1/2-y,-z
1/2+x,1/2-y,1/2+z
loop_
_atom_site_type_symbol
_atom_site_label
_atom_site_fract_x
_atom_site_fract_y
_atom_site_fract_z
Si Si1 0.613706 0.065422 0.440360
Si Si2 0.236266 0.152040 0.049329
Si Si3 0.755544 0.889382 0.524794
Si Si4 0.068849 0.020943 0.288245
Si Si5 0.617742 0.240484 0.039039
Si Si6 0.118103 0.608207 0.846703
O O1 0.682073 0.120330 0.448257
O O2 0.664506 0.076794 0.236519
O O3 0.488780 0.091205 0.596893
O O4 0.618516 0.964545 0.451487
O O5 0.275143 0.105444 0.872980
O O6 0.250000 0.250000 0.000000
O O7 0.119441 0.114573 0.231566
O O8 0.698680 0.823128 0.506009
O O9 0.835663 0.833360 0.507563
O O10 0.829445 0.956912 0.358157
O O11 0.000000 0.013766 0.250000
O O12 0.000000 0.000000 0.500000
O O13 0.500000 0.237204 0.250000
O O14 0.609348 0.200941 0.914124
#
# Coordination Sequence:
#
# PCOD9303985 Si02
#       6
#     8   8   8   8   8   8
#     4  11  23  44  72 103 142 188 234 298 373 445
#     4  12  27  47  71 106 149 189 245 310 369 443
#     4  11  23  44  71 101 144 185 239 300 361 448
#     4  12  28  50  76 104 147 204 250 299 380 463
#     4  11  23  41  68 107 141 184 237 302 363 434
#     4  11  24  41  74 104 141 182 243 297 371 439
#
# _framework density 22.798022
#
# number of rings (size 3 to 8) (size 9 to 14) (size 15 to 20)
#    0.000    0.667    3.333    4.000    2.333    2.667 
#    0.000    0.000    0.000    0.000    0.000    0.000 
#    0.000    0.000    0.000    0.000    0.000    0.000 
#
# Total GULP energy -134270.765563 kJ/mol
# GULP energy per Si atom -5594.615232 kJ/mol
# Density = 2.274613 g / cm^3
# Si number density = 22.798022 Si / 1000 Ang^3
#
#
#
# Elastic Constant Matrix: (Units=GPa)
#
#
# Indices 1 2 3 4 5 6 
#
# 1 79.3545 25.2600 5.8545 0.0000 -15.8444 0.0000
# 2 25.2600 120.5728 27.1568 0.0000 -5.5046 0.0000
# 3 5.8545 27.1568 131.9211 0.0000 -5.1243 0.0000
# 4 0.0000 0.0000 0.0000 31.3885 0.0000 1.8927
# 5 -15.8444 -5.5046 -5.1243 0.0000 28.6689 0.0000
# 6 0.0000 0.0000 0.0000 1.8927 0.0000 35.8080
#
#
#
# Elastic Compliance Matrix: (Units=1/GPa)
#
#
# Indices 1 2 3 4 5 6 
#
# 1 0.015051 -0.002846 0.000221 0.000000 0.007811 0.000000
# 2 -0.002846 0.009288 -0.001790 0.000000 -0.000110 0.000000
# 3 0.000221 -0.001790 0.007986 0.000000 0.001206 0.000000
# 4 0.000000 0.000000 0.000000 0.031961 0.000000 -0.001689
# 5 0.007811 -0.000110 0.001206 0.000000 0.039393 0.000000
# 6 0.000000 0.000000 0.000000 -0.001689 0.000000 0.028016
#
#
# Mechanical properties :
#
#
# Convention : Reuss Voigt Hill
#
# Bulk Modulus (GPa) = 42.56214 49.82124 46.19169
# Shear Modulus (GPa) = 33.70272 37.41157 35.55715
#
# Velocity S-wave (km/s) = 3.84906 4.05532 3.95354
# Velocity P-wave (km/s) = 6.20189 6.62029 6.41450
#
# Compressibility (1/GPa) = 0.02349506
#
# Stress axis : x y z
#
# Youngs Moduli (GPa) = 66.44048 107.66317 125.22251
#
# Poissons Ratio (x) = 0.30646 -0.02773
# Poissons Ratio (y) = 0.18912 0.22415
# Poissons Ratio (z) = -0.01471 0.19271
#
# Static dielectric constant tensor:
#      x y z
#    x 1.814220 0.000000 0.032110 
#    y 0.000000 1.859820 0.000000 
#    z 0.032110 0.000000 1.824400 
# 
# From -- ./inp_files/112947.got.cif
#   From: 2010.05.17/outbox.cif.g08.bks.cpg/sg15_57_cif.got.tgz:112947.got - 2010.06.03 18:47:42.
