data_PCOD9303946
_publ_section_title
;
Structure prediction by ZEFSAII (Michael W. Deem and Ramdas Pophale) SiO2 
 PCOD9303946
Probable space group: C 2/C
;
_chemical_formula_sum "Si O2"
_cell_formula_units_Z 40
_cell_length_a 8.660286
_cell_length_b 20.222251
_cell_length_c 9.325117
_cell_angle_alpha 90.000000
_cell_angle_beta 81.478348
_cell_angle_gamma 90.000000
_cell_volume 1615.082527
_symmetry_space_group_name_H-M "C 2/C"
_symmetry_group_IT_number 15
_symmetry_cell_setting 'monoclinic'
loop_
_space_group_symop_operation_xyz
x,y,z
-x,y,1/2-z
-x,-y,-z
x,-y,1/2+z
1/2+x,1/2+y,z
1/2-x,1/2+y,1/2-z
1/2-x,1/2-y,-z
1/2+x,1/2-y,1/2+z
loop_
_atom_site_type_symbol
_atom_site_label
_atom_site_fract_x
_atom_site_fract_y
_atom_site_fract_z
Si Si1 0.162733 0.279918 0.801784
Si Si2 0.913330 0.554639 0.416277
Si Si3 0.618602 0.628342 0.847123
Si Si4 0.893233 0.888114 0.638169
Si Si5 0.072654 0.651903 0.595793
O O1 0.168465 0.201032 0.781974
O O2 0.295536 0.325593 0.713513
O O3 0.000000 0.298880 0.750000
O O4 0.147017 0.299021 0.970604
O O5 0.730332 0.558744 0.404941
O O6 0.000000 0.557050 0.250000
O O7 0.000000 0.500000 0.500000
O O8 0.941822 0.616608 0.518881
O O9 0.500000 0.595871 0.750000
O O10 0.788278 0.601794 0.872077
O O11 0.510580 0.635944 0.000329
O O12 0.000000 0.916243 0.750000
O O13 0.000000 0.680859 0.750000
#
# Coordination Sequence:
#
# PCOD9303946 Si02
#       5
#     8   8   8   8   8
#     4  11  23  41  65  96 140 193 231 272 348 417
#     4  12  25  49  74 100 131 186 235 287 362 414
#     4  11  26  37  64 105 142 189 234 286 338 402
#     4  12  23  45  70  99 149 180 233 295 338 414
#     4  12  23  42  66  97 140 182 237 284 341 422
#
# _framework density 24.766537
#
# number of rings (size 3 to 8) (size 9 to 14) (size 15 to 20)
#    0.000    0.400    6.000    2.400    2.800    1.600 
#    0.000    5.000    0.000    0.000    0.000    0.000 
#    0.000    0.000    0.000    0.000    0.000    0.000 
#
# Total GULP energy -111763.533224 kJ/mol
# GULP energy per Si atom -5588.176661 kJ/mol
# Density = 2.471017 g / cm^3
# Si number density = 24.766537 Si / 1000 Ang^3
#
#
#
# Elastic Constant Matrix: (Units=GPa)
#
#
# Indices 1 2 3 4 5 6 
#
# 1 202.8973 5.4837 49.2042 0.0000 37.5677 0.0000
# 2 5.4837 51.6793 1.1928 0.0000 12.3569 0.0000
# 3 49.2042 1.1928 157.9100 0.0000 6.4776 0.0000
# 4 0.0000 0.0000 0.0000 -87.9494 0.0000 -80.3151
# 5 37.5677 12.3569 6.4776 0.0000 62.7698 0.0000
# 6 0.0000 0.0000 0.0000 -80.3151 0.0000 -68.7809
#
#
#
# Elastic Compliance Matrix: (Units=1/GPa)
#
#
# Indices 1 2 3 4 5 6 
#
# 1 0.005978 0.000229 -0.001723 0.000000 -0.003445 0.000000
# 2 0.000229 0.020315 -0.000055 0.000000 -0.004131 0.000000
# 3 -0.001723 -0.000055 0.006856 0.000000 0.000335 0.000000
# 4 0.000000 0.000000 0.000000 0.171406 0.000000 -0.200150
# 5 -0.003445 -0.004131 0.000335 0.000000 0.018772 0.000000
# 6 0.000000 0.000000 0.000000 -0.200150 0.000000 0.219175
#
#
# Mechanical properties :
#
#
# Convention : Reuss Voigt Hill
#
# Bulk Modulus (GPa) = 33.27735 58.24977 45.76356
# Shear Modulus (GPa) = 10.97411 4.98163 7.97787
#
# Velocity S-wave (km/s) = 2.10728 1.41979 1.79673
# Velocity P-wave (km/s) = 4.40300 5.12429 4.77728
#
# Compressibility (1/GPa) = 0.03005047
#
# Stress axis : x y z
#
# Youngs Moduli (GPa) = 167.27426 49.22535 145.85022
#
# Poissons Ratio (x) = -0.01128 0.25133
# Poissons Ratio (y) = -0.03834 0.00809
# Poissons Ratio (z) = 0.28825 0.00273
#
# Static dielectric constant tensor:
#      x y z
#    x 2.037290 0.000000 0.055710 
#    y 0.000000 2.009340 0.000000 
#    z 0.055710 0.000000 1.932430 
# 
# From -- ./inp_files/24447.got.cif
#   From: 2010.05.17/outbox.cif.g08.bks.cpg/sg15_13_cif.got.tgz:24447.got - 2010.06.03 18:47:42.
