data_PCOD9303193
_publ_section_title
;
Structure prediction by ZEFSAII (Michael W. Deem and Ramdas Pophale) SiO2 
 PCOD9303193
Probable space group: C 2/C
;
_chemical_formula_sum "Si O2"
_cell_formula_units_Z 64
_cell_length_a 30.476604
_cell_length_b 10.816020
_cell_length_c 18.376324
_cell_angle_alpha 90.000000
_cell_angle_beta 152.350513
_cell_angle_gamma 90.000000
_cell_volume 2811.046518
_symmetry_space_group_name_H-M "C 2/C"
_symmetry_group_IT_number 15
_symmetry_cell_setting 'monoclinic'
loop_
_space_group_symop_operation_xyz
x,y,z
-x,y,1/2-z
-x,-y,-z
x,-y,1/2+z
1/2+x,1/2+y,z
1/2-x,1/2+y,1/2-z
1/2-x,1/2-y,-z
1/2+x,1/2-y,1/2+z
loop_
_atom_site_type_symbol
_atom_site_label
_atom_site_fract_x
_atom_site_fract_y
_atom_site_fract_z
Si Si1 0.609362 0.684406 0.610848
Si Si2 0.362124 0.721097 0.675341
Si Si3 0.779825 0.893057 0.460646
Si Si4 0.628922 0.008912 0.352744
Si Si5 0.546156 0.957501 0.490654
Si Si6 0.252243 0.973197 0.239992
Si Si7 0.073104 0.046310 0.217821
Si Si8 0.268053 0.380466 0.659096
O O1 0.615558 0.707708 0.706263
O O2 0.587003 0.820948 0.552505
O O3 0.706322 0.632547 0.721753
O O4 0.527900 0.593058 0.458599
O O5 0.250000 0.750000 0.500000
O O6 0.408341 0.590162 0.720066
O O7 0.398030 0.846469 0.691391
O O8 0.706990 0.967317 0.405899
O O9 0.792758 0.969089 0.405926
O O10 0.875739 0.869271 0.646320
O O11 0.739351 0.760279 0.377376
O O12 0.532343 0.949350 0.186207
O O13 0.677568 0.957505 0.496451
O O14 0.500000 0.000000 0.500000
O O15 0.636044 0.042983 0.606894
O O16 0.228526 0.096358 0.250524
O O17 0.141196 0.060685 0.247328
#
# Coordination Sequence:
#
# PCOD9303193 Si02
#       8
#     8   8   8   8   8   8   8   8
#     4  12  25  46  71 108 147 189 254 309 366 459
#     4  12  21  41  71 105 148 190 241 304 365 452
#     4  11  22  42  70 102 143 189 246 306 371 455
#     4  11  22  44  73 103 138 197 253 297 372 458
#     4  12  24  45  74 103 141 197 246 298 374 458
#     4  12  26  43  66 109 145 185 239 318 380 427
#     4  11  24  43  74 102 142 202 247 296 381 459
#     4  11  23  42  69 108 144 187 245 313 372 447
#
# _framework density 22.767322
#
# number of rings (size 3 to 8) (size 9 to 14) (size 15 to 20)
#    0.000    0.500    6.250    4.125    0.000    1.000 
#    4.500    2.500    0.000    1.500    0.000    0.000 
#    0.000    0.000    0.000    0.000    0.000    0.000 
#
# Total GULP energy -178668.886567 kJ/mol
# GULP energy per Si atom -5583.402705 kJ/mol
# Density = 2.271550 g / cm^3
# Si number density = 22.767322 Si / 1000 Ang^3
#
#
#
# Elastic Constant Matrix: (Units=GPa)
#
#
# Indices 1 2 3 4 5 6 
#
# 1 50.3646 5.6936 20.5753 0.0000 2.0165 0.0000
# 2 5.6936 137.0625 24.0594 0.0000 9.3792 0.0000
# 3 20.5753 24.0594 114.7295 0.0000 -1.2066 0.0000
# 4 0.0000 0.0000 0.0000 42.5873 0.0000 -2.0604
# 5 2.0165 9.3792 -1.2066 0.0000 34.5268 0.0000
# 6 0.0000 0.0000 0.0000 -2.0604 0.0000 21.0216
#
#
#
# Elastic Compliance Matrix: (Units=1/GPa)
#
#
# Indices 1 2 3 4 5 6 
#
# 1 0.021493 -0.000126 -0.003842 0.000000 -0.001355 0.000000
# 2 -0.000126 0.007733 -0.001622 0.000000 -0.002150 0.000000
# 3 -0.003842 -0.001622 0.009756 0.000000 0.001006 0.000000
# 4 0.000000 0.000000 0.000000 0.023593 0.000000 0.002312
# 5 -0.001355 -0.002150 0.001006 0.000000 0.029661 0.000000
# 6 0.000000 0.000000 0.000000 0.002312 0.000000 0.047797
#
#
# Mechanical properties :
#
#
# Convention : Reuss Voigt Hill
#
# Bulk Modulus (GPa) = 35.96777 44.75703 40.36240
# Shear Modulus (GPa) = 31.15641 36.41569 33.78605
#
# Velocity S-wave (km/s) = 3.70330 4.00368 3.85641
# Velocity P-wave (km/s) = 5.84108 6.40888 6.13155
#
# Compressibility (1/GPa) = 0.02780267
#
# Stress axis : x y z
#
# Youngs Moduli (GPa) = 46.52583 129.31669 102.50180
#
# Poissons Ratio (x) = 0.01624 0.39386
# Poissons Ratio (y) = 0.00584 0.16623
# Poissons Ratio (z) = 0.17878 0.20972
#
# Static dielectric constant tensor:
#      x y z
#    x 1.910070 0.000000 -0.071070 
#    y 0.000000 2.056120 0.000000 
#    z -0.071070 0.000000 2.337120 
# 
# From -- ./inp_files/225194.got.cif
#   From: 2010.05.17/outbox.cif.g08.bks.cpg/sg15_113_cif.got.tgz:225194.got - 2010.06.03 18:47:42.
