data_PCOD9303927
_publ_section_title
;
Structure prediction by ZEFSAII (Michael W. Deem and Ramdas Pophale) SiO2 
 PCOD9303927
Probable space group: C 2/C
;
_chemical_formula_sum "Si O2"
_cell_formula_units_Z 32
_cell_length_a 4.943683
_cell_length_b 24.528136
_cell_length_c 12.593173
_cell_angle_alpha 90.000000
_cell_angle_beta 90.614570
_cell_angle_gamma 90.000000
_cell_volume 1526.951863
_symmetry_space_group_name_H-M "C 2/C"
_symmetry_group_IT_number 15
_symmetry_cell_setting 'monoclinic'
loop_
_space_group_symop_operation_xyz
x,y,z
-x,y,1/2-z
-x,-y,-z
x,-y,1/2+z
1/2+x,1/2+y,z
1/2-x,1/2+y,1/2-z
1/2-x,1/2-y,-z
1/2+x,1/2-y,1/2+z
loop_
_atom_site_type_symbol
_atom_site_label
_atom_site_fract_x
_atom_site_fract_y
_atom_site_fract_z
Si Si1 0.110631 0.559521 0.477665
Si Si2 0.998185 0.210345 0.516146
Si Si3 0.091938 0.105718 0.371114
Si Si4 0.737287 0.369396 0.318347
O O1 0.402621 0.560086 0.424345
O O2 0.143940 0.593483 0.586652
O O3 0.000000 0.500000 0.500000
O O4 0.900235 0.590437 0.398833
O O5 0.750000 0.250000 0.500000
O O6 0.024100 0.161933 0.431066
O O7 0.931995 0.179508 0.626498
O O8 0.250000 0.250000 0.500000
O O9 0.000000 0.109944 0.250000
O O10 0.500000 0.398848 0.250000
O O11 0.000000 0.353078 0.250000
#
# Coordination Sequence:
#
# PCOD9303927 Si02
#       4
#     8   8   8   8
#     4  11  24  43  65  93 128 164 207 259 312 372
#     4  11  23  41  64  92 127 166 210 259 312 372
#     4  11  24  43  64  93 127 164 209 259 309 372
#     4  11  23  41  64  94 129 166 210 261 311 372
#
# _framework density 20.956785
#
# number of rings (size 3 to 8) (size 9 to 14) (size 15 to 20)
#    0.000    1.000    0.000    9.000    0.000    6.000 
#    0.000    0.000    0.000    0.000    0.000    0.000 
#    0.000    0.000    0.000    0.000    0.000    0.000 
#
# Total GULP energy -89387.520700 kJ/mol
# GULP energy per Si atom -5586.720044 kJ/mol
# Density = 2.090909 g / cm^3
# Si number density = 20.956785 Si / 1000 Ang^3
#
#
#
# Elastic Constant Matrix: (Units=GPa)
#
#
# Indices 1 2 3 4 5 6 
#
# 1 144.6138 26.7809 41.2737 0.0000 6.6258 0.0000
# 2 26.7809 89.1096 30.0922 0.0000 -1.1738 0.0000
# 3 41.2737 30.0922 137.5401 0.0000 4.4852 0.0000
# 4 0.0000 0.0000 0.0000 6.6642 0.0000 7.7239
# 5 6.6258 -1.1738 4.4852 0.0000 49.2079 0.0000
# 6 0.0000 0.0000 0.0000 7.7239 0.0000 43.2945
#
#
#
# Elastic Compliance Matrix: (Units=1/GPa)
#
#
# Indices 1 2 3 4 5 6 
#
# 1 0.007829 -0.001708 -0.001946 0.000000 -0.000918 0.000000
# 2 -0.001708 0.012504 -0.002247 0.000000 0.000733 0.000000
# 3 -0.001946 -0.002247 0.008364 0.000000 -0.000554 0.000000
# 4 0.000000 0.000000 0.000000 0.189169 0.000000 -0.033748
# 5 -0.000918 0.000733 -0.000554 0.000000 0.020513 0.000000
# 6 0.000000 0.000000 0.000000 -0.033748 0.000000 0.029118
#
#
# Mechanical properties :
#
#
# Convention : Reuss Voigt Hill
#
# Bulk Modulus (GPa) = 59.18756 63.06188 61.12472
# Shear Modulus (GPa) = 17.54812 38.04110 27.79461
#
# Velocity S-wave (km/s) = 2.89684 4.26516 3.64577
# Velocity P-wave (km/s) = 6.28433 7.37646 6.85219
#
# Compressibility (1/GPa) = 0.01689544
#
# Stress axis : x y z
#
# Youngs Moduli (GPa) = 127.73700 79.97496 119.55739
#
# Poissons Ratio (x) = 0.13658 0.23262
# Poissons Ratio (y) = 0.21815 0.26866
# Poissons Ratio (z) = 0.24853 0.17971
#
# Static dielectric constant tensor:
#      x y z
#    x 1.717340 0.000000 0.014940 
#    y 0.000000 1.876270 0.000000 
#    z 0.014940 0.000000 1.785920 
# 
# From -- ./inp_files/72755.got.cif
#   From: 2010.05.17/outbox.cif.g08.bks.cpg/sg15_37_cif.got.tgz:72755.got - 2010.06.03 18:47:42.
