data_PCOD9303206
_publ_section_title
;
Structure prediction by ZEFSAII (Michael W. Deem and Ramdas Pophale) SiO2 
 PCOD9303206
Probable space group: C 2/C
;
_chemical_formula_sum "Si O2"
_cell_formula_units_Z 60
_cell_length_a 8.836285
_cell_length_b 29.541968
_cell_length_c 12.091523
_cell_angle_alpha 90.000000
_cell_angle_beta 113.819592
_cell_angle_gamma 90.000000
_cell_volume 2887.530407
_symmetry_space_group_name_H-M "C 2/C"
_symmetry_group_IT_number 15
_symmetry_cell_setting 'monoclinic'
loop_
_space_group_symop_operation_xyz
x,y,z
-x,y,1/2-z
-x,-y,-z
x,-y,1/2+z
1/2+x,1/2+y,z
1/2-x,1/2+y,1/2-z
1/2-x,1/2-y,-z
1/2+x,1/2-y,1/2+z
loop_
_atom_site_type_symbol
_atom_site_label
_atom_site_fract_x
_atom_site_fract_y
_atom_site_fract_z
Si Si1 0.500000 0.233851 0.250000
Si Si2 0.869372 0.906379 0.019961
Si Si3 0.710531 0.051788 0.663580
Si Si4 0.837976 0.283428 0.265521
Si Si5 0.258653 0.377202 0.357914
Si Si6 0.402963 0.170413 0.020468
Si Si7 0.693451 0.041282 0.271488
Si Si8 0.892532 0.414313 0.967183
O O1 0.660604 0.259336 0.242195
O O2 0.423836 0.203911 0.128846
O O3 0.751171 0.863443 0.008069
O O4 0.806463 0.933958 0.894772
O O5 0.855749 0.941495 0.118190
O O6 0.048391 0.885103 0.070729
O O7 0.700451 0.097825 0.729965
O O8 0.546823 0.052315 0.538487
O O9 0.721760 0.011513 0.754209
O O10 0.793032 0.325557 0.172285
O O11 0.892976 0.302855 0.401833
O O12 0.000000 0.261304 0.250000
O O13 0.182525 0.403223 0.437895
O O14 0.550623 0.134127 0.062527
O O15 0.500000 0.047589 0.250000
O O16 0.718271 0.063355 0.158565
#
# Coordination Sequence:
#
# PCOD9303206 Si02
#       8
#     4   8   8   8   8   8   8   8
#     4  12  28  44  72 106 144 174 218 296 352 416
#     4  11  25  42  68  94 135 185 224 279 346 407
#     4  11  23  39  67  93 128 178 230 281 332 401
#     4  12  24  46  75 105 136 179 232 283 343 422
#     4  12  23  44  66  97 130 178 230 278 335 412
#     4  11  22  47  70  97 134 179 226 271 348 416
#     4  12  23  40  64  96 133 176 233 286 342 396
#     4  11  22  42  71  92 129 178 226 277 337 411
#
# _framework density 20.779001999999998
#
# number of rings (size 3 to 8) (size 9 to 14) (size 15 to 20)
#    0.000    0.533    6.667    4.000    1.867    1.600 
#    4.800    0.000    0.000    0.000    0.000    0.000 
#    0.000    0.000    0.000    0.000    0.000    0.000 
#
# Total GULP energy -167452.833873 kJ/mol
# GULP energy per Si atom -5581.761129 kJ/mol
# Density = 2.073171 g / cm^3
# Si number density = 20.779002 Si / 1000 Ang^3
#
#
#
# Elastic Constant Matrix: (Units=GPa)
#
#
# Indices 1 2 3 4 5 6 
#
# 1 82.8093 24.3983 42.2334 0.0000 -8.2169 0.0000
# 2 24.3983 61.5412 27.6272 0.0000 -3.4468 0.0000
# 3 42.2334 27.6272 98.0392 0.0000 -12.1900 0.0000
# 4 0.0000 0.0000 0.0000 39.0194 0.0000 -1.1034
# 5 -8.2169 -3.4468 -12.1900 0.0000 33.9531 0.0000
# 6 0.0000 0.0000 0.0000 -1.1034 0.0000 41.3800
#
#
#
# Elastic Compliance Matrix: (Units=1/GPa)
#
#
# Indices 1 2 3 4 5 6 
#
# 1 0.016276 -0.003783 -0.005760 0.000000 0.001487 0.000000
# 2 -0.003783 0.019482 -0.003902 0.000000 -0.000339 0.000000
# 3 -0.005760 -0.003902 0.014192 0.000000 0.003305 0.000000
# 4 0.000000 0.000000 0.000000 0.025648 0.000000 0.000684
# 5 0.001487 -0.000339 0.003305 0.000000 0.030964 0.000000
# 6 0.000000 0.000000 0.000000 0.000684 0.000000 0.024184
#
#
# Mechanical properties :
#
#
# Convention : Reuss Voigt Hill
#
# Bulk Modulus (GPa) = 43.36905 47.87859 45.62382
# Shear Modulus (GPa) = 30.24348 32.74591 31.49470
#
# Velocity S-wave (km/s) = 3.81922 3.97408 3.89742
# Velocity P-wave (km/s) = 6.35338 6.64452 6.50058
#
# Compressibility (1/GPa) = 0.02305792
#
# Stress axis : x y z
#
# Youngs Moduli (GPa) = 61.44003 51.32914 70.46195
#
# Poissons Ratio (x) = 0.19420 0.40589
# Poissons Ratio (y) = 0.23246 0.27496
# Poissons Ratio (z) = 0.35392 0.20030
#
# Static dielectric constant tensor:
#      x y z
#    x 1.894250 0.000000 -0.017860 
#    y 0.000000 1.734110 0.000000 
#    z -0.017860 0.000000 1.712820 
# 
# From -- ./inp_files/82634.got.cif
#   From: 2010.05.17/outbox.cif.g08.bks.cpg/sg15_42_cif.got.tgz:82634.got - 2010.06.03 18:47:42.
