data_PCOD9303034
_publ_section_title
;
Structure prediction by ZEFSAII (Michael W. Deem and Ramdas Pophale) SiO2 
 PCOD9303034
Probable space group: C 2/C
;
_chemical_formula_sum "Si O2"
_cell_formula_units_Z 40
_cell_length_a 27.017542
_cell_length_b 8.148970
_cell_length_c 22.696869
_cell_angle_alpha 90.000000
_cell_angle_beta 19.280670
_cell_angle_gamma 90.000000
_cell_volume 1650.008809
_symmetry_space_group_name_H-M "C 2/C"
_symmetry_group_IT_number 15
_symmetry_cell_setting 'monoclinic'
loop_
_space_group_symop_operation_xyz
x,y,z
-x,y,1/2-z
-x,-y,-z
x,-y,1/2+z
1/2+x,1/2+y,z
1/2-x,1/2+y,1/2-z
1/2-x,1/2-y,-z
1/2+x,1/2-y,1/2+z
loop_
_atom_site_type_symbol
_atom_site_label
_atom_site_fract_x
_atom_site_fract_y
_atom_site_fract_z
Si Si1 0.097803 0.271208 0.974554
Si Si2 0.792142 0.427241 0.344593
Si Si3 0.200234 0.775407 0.864252
Si Si4 0.839095 0.078699 0.899847
Si Si5 0.908074 0.952609 0.187445
O O1 0.966133 0.395060 0.138386
O O2 0.195826 0.214107 0.920376
O O3 0.004365 0.108061 0.059025
O O4 0.207043 0.315640 0.798531
O O5 0.740324 0.592691 0.369640
O O6 0.750983 0.450364 0.458751
O O7 0.259903 0.600819 0.819613
O O8 0.024370 0.799769 0.051864
O O9 0.000000 0.102215 0.750000
O O10 0.867129 0.022820 0.801762
O O11 0.750000 0.250000 0.000000
#
# Coordination Sequence:
#
# PCOD9303034 Si02
#       5
#     8   8   8   8   8
#     4  11  24  42  64 101 137 173 216 277 334 390
#     4  11  25  44  68  96 139 174 222 274 327 396
#     4  11  22  41  68  96 135 177 219 268 327 403
#     4  12  22  48  71  98 133 172 230 274 323 400
#     4  11  23  42  67  97 133 173 223 278 325 393
#
# _framework density 24.242294000000001
#
# number of rings (size 3 to 8) (size 9 to 14) (size 15 to 20)
#    0.000    0.800    6.000    2.400    0.000    5.600 
#    3.600    0.000    0.000    0.000    0.000    0.000 
#    0.000    0.000    0.000    0.000    0.000    0.000 
#
# Total GULP energy -112141.408788 kJ/mol
# GULP energy per Si atom -5607.070439 kJ/mol
# Density = 2.418712 g / cm^3
# Si number density = 24.242294 Si / 1000 Ang^3
#
#
#
# Elastic Constant Matrix: (Units=GPa)
#
#
# Indices 1 2 3 4 5 6 
#
# 1 90.3462 16.6335 44.3054 0.0001 5.2875 0.0001
# 2 16.6335 38.3914 15.3008 0.0013 2.0530 -0.0005
# 3 44.3054 15.3008 127.1467 0.0008 22.0098 -0.0002
# 4 0.0001 0.0013 0.0008 42.6896 -0.0003 -13.4709
# 5 5.2875 2.0530 22.0098 -0.0003 52.8659 0.0000
# 6 0.0001 -0.0005 -0.0002 -13.4709 0.0000 42.9043
#
#
#
# Elastic Compliance Matrix: (Units=1/GPa)
#
#
# Indices 1 2 3 4 5 6 
#
# 1 0.014022 -0.004326 -0.004474 0.000000 0.000628 0.000000
# 2 -0.004326 0.028699 -0.001970 -0.000001 0.000138 0.000000
# 3 -0.004474 -0.001970 0.010314 0.000000 -0.003770 0.000000
# 4 0.000000 -0.000001 0.000000 0.026001 0.000000 0.008164
# 5 0.000628 0.000138 -0.003770 0.000000 0.020417 0.000000
# 6 0.000000 0.000000 0.000000 0.008164 0.000000 0.025871
#
#
# Mechanical properties :
#
#
# Convention : Reuss Voigt Hill
#
# Bulk Modulus (GPa) = 31.75129 45.37374 38.56252
# Shear Modulus (GPa) = 31.77349 39.66826 35.72087
#
# Velocity S-wave (km/s) = 3.62424 4.04954 3.84278
# Velocity P-wave (km/s) = 5.53528 6.37357 5.96916
#
# Compressibility (1/GPa) = 0.03149478
#
# Stress axis : x y z
#
# Youngs Moduli (GPa) = 71.31439 34.84382 96.95744
#
# Poissons Ratio (x) = 0.15072 0.43383
# Poissons Ratio (y) = 0.30848 0.19104
# Poissons Ratio (z) = 0.31909 0.06865
#
# Static dielectric constant tensor:
#      x y z
#    x 1.913130 0.000000 -0.015250 
#    y 0.000000 1.995910 0.000000 
#    z -0.015250 0.000000 1.861450 
# 
# From -- ./inp_files/258925.got.cif
#   From: 2010.05.17/outbox.cif.g08.bks.cpg/sg15_130_cif.got.tgz:258925.got - 2010.06.03 18:47:42.
