data_PCOD9303554
_publ_section_title
;
Structure prediction by ZEFSAII (Michael W. Deem and Ramdas Pophale) SiO2 
 PCOD9303554
Probable space group: C 2/C
;
_chemical_formula_sum "Si O2"
_cell_formula_units_Z 48
_cell_length_a 25.237937
_cell_length_b 22.490537
_cell_length_c 10.705411
_cell_angle_alpha 90.000000
_cell_angle_beta 158.020851
_cell_angle_gamma 90.000000
_cell_volume 2274.264918
_symmetry_space_group_name_H-M "C 2/C"
_symmetry_group_IT_number 15
_symmetry_cell_setting 'monoclinic'
loop_
_space_group_symop_operation_xyz
x,y,z
-x,y,1/2-z
-x,-y,-z
x,-y,1/2+z
1/2+x,1/2+y,z
1/2-x,1/2+y,1/2-z
1/2-x,1/2-y,-z
1/2+x,1/2-y,1/2+z
loop_
_atom_site_type_symbol
_atom_site_label
_atom_site_fract_x
_atom_site_fract_y
_atom_site_fract_z
Si Si1 0.591894 0.944594 0.328705
Si Si2 0.777959 0.323512 0.810425
Si Si3 0.403107 0.734284 0.389736
Si Si4 0.160777 0.425933 0.918356
Si Si5 0.640056 0.333910 0.255680
Si Si6 0.000000 0.344971 0.750000
Si Si7 0.500000 0.260408 0.750000
O O1 0.500000 0.959578 0.250000
O O2 0.692401 0.890500 0.586044
O O3 0.675063 0.003971 0.474061
O O4 0.479613 0.924174 0.977401
O O5 0.642671 0.297989 0.582210
O O6 0.755857 0.316531 0.613303
O O7 0.912957 0.284711 0.145361
O O8 0.495108 0.687573 0.508727
O O9 0.468768 0.798340 0.569455
O O10 0.250000 0.750000 0.000000
O O11 0.120267 0.388275 0.954552
O O12 0.298757 0.397753 0.153534
O O13 0.615842 0.299794 0.073048
#
# Coordination Sequence:
#
# PCOD9303554 Si02
#       7
#     8   8   8   8   8   4   4
#     4  11  22  45  71  99 133 177 231 285 332 403
#     4  12  22  42  68  98 134 177 229 277 345 410
#     4  12  25  41  62  98 139 178 219 278 349 406
#     4  11  25  42  70 102 132 178 232 282 337 399
#     4  12  25  42  67  99 139 181 226 280 342 420
#     4  12  24  41  66 101 136 168 218 286 338 414
#     4  12  24  37  68 101 140 176 218 282 346 422
#
# _framework density 21.105720000000002
#
# number of rings (size 3 to 8) (size 9 to 14) (size 15 to 20)
#    0.000    0.333    6.667    2.500    2.333    0.000 
#    0.000    0.833    3.667    0.000    0.000    0.000 
#    0.000    0.000    0.000    0.000    0.000    0.000 
#
# Total GULP energy -133725.361928 kJ/mol
# GULP energy per Si atom -5571.890080 kJ/mol
# Density = 2.105768 g / cm^3
# Si number density = 21.105720 Si / 1000 Ang^3
#
#
#
# Elastic Constant Matrix: (Units=GPa)
#
#
# Indices 1 2 3 4 5 6 
#
# 1 67.4646 38.1589 11.4011 0.0000 7.3661 0.0000
# 2 38.1589 165.2441 66.7207 0.0000 2.2437 0.0000
# 3 11.4011 66.7207 76.9988 0.0000 6.3561 0.0000
# 4 0.0000 0.0000 0.0000 31.3655 0.0000 10.2519
# 5 7.3661 2.2437 6.3561 0.0000 38.2421 0.0000
# 6 0.0000 0.0000 0.0000 10.2519 0.0000 23.3986
#
#
#
# Elastic Compliance Matrix: (Units=1/GPa)
#
#
# Indices 1 2 3 4 5 6 
#
# 1 0.017568 -0.004728 0.001776 0.000000 -0.003402 0.000000
# 2 -0.004728 0.010605 -0.008632 0.000000 0.001723 0.000000
# 3 0.001776 -0.008632 0.020471 0.000000 -0.003238 0.000000
# 4 0.000000 0.000000 0.000000 0.037211 0.000000 -0.016304
# 5 -0.003402 0.001723 -0.003238 0.000000 0.027242 0.000000
# 6 0.000000 0.000000 0.000000 -0.016304 0.000000 0.049881
#
#
# Mechanical properties :
#
#
# Convention : Reuss Voigt Hill
#
# Bulk Modulus (GPa) = 39.25018 60.25210 49.75114
# Shear Modulus (GPa) = 25.68879 31.49637 28.59258
#
# Velocity S-wave (km/s) = 3.49255 3.86724 3.68466
# Velocity P-wave (km/s) = 5.90772 6.96782 6.45955
#
# Compressibility (1/GPa) = 0.02547759
#
# Stress axis : x y z
#
# Youngs Moduli (GPa) = 56.92170 94.29203 48.84925
#
# Poissons Ratio (x) = 0.44581 -0.08677
# Poissons Ratio (y) = 0.26912 0.42166
# Poissons Ratio (z) = -0.10111 0.81392
#
# Static dielectric constant tensor:
#      x y z
#    x 1.904040 0.000000 -0.044450 
#    y 0.000000 1.739710 0.000000 
#    z -0.044450 0.000000 1.811790 
# 
# From -- ./inp_files/124357.got.cif
#   From: 2010.05.17/outbox.cif.g08.bks.cpg/sg15_63_cif.got.tgz:124357.got - 2010.06.03 18:47:42.
