data_PCOD9303877
_publ_section_title
;
Structure prediction by ZEFSAII (Michael W. Deem and Ramdas Pophale) SiO2 
 PCOD9303877
Probable space group: C 2/C
;
_chemical_formula_sum "Si O2"
_cell_formula_units_Z 60
_cell_length_a 22.511960
_cell_length_b 8.269411
_cell_length_c 15.854345
_cell_angle_alpha 90.000000
_cell_angle_beta 111.010438
_cell_angle_gamma 90.000000
_cell_volume 2755.228036
_symmetry_space_group_name_H-M "C 2/C"
_symmetry_group_IT_number 15
_symmetry_cell_setting 'monoclinic'
loop_
_space_group_symop_operation_xyz
x,y,z
-x,y,1/2-z
-x,-y,-z
x,-y,1/2+z
1/2+x,1/2+y,z
1/2-x,1/2+y,1/2-z
1/2-x,1/2-y,-z
1/2+x,1/2-y,1/2+z
loop_
_atom_site_type_symbol
_atom_site_label
_atom_site_fract_x
_atom_site_fract_y
_atom_site_fract_z
Si Si1 0.393709 0.494086 0.459528
Si Si2 0.601582 0.726535 0.302654
Si Si3 0.305459 0.681684 0.291036
Si Si4 0.000000 0.042356 0.750000
Si Si5 0.459539 0.985183 0.813268
Si Si6 0.500649 0.281153 0.073799
Si Si7 0.326948 0.056365 0.328770
Si Si8 0.677119 0.769332 0.492099
O O1 0.347878 0.552954 0.362311
O O2 0.445376 0.358358 0.458295
O O3 0.434174 0.647715 0.509315
O O4 0.348749 0.411410 0.504541
O O5 0.665987 0.679639 0.288281
O O6 0.559103 0.573238 0.302415
O O7 0.627207 0.830141 0.394912
O O8 0.558634 0.828623 0.214195
O O9 0.232508 0.632832 0.250389
O O10 0.315636 0.863516 0.329806
O O11 0.014283 0.143336 0.673406
O O12 0.500000 0.944524 0.750000
O O13 0.499389 0.910752 0.910837
O O14 0.389957 0.915980 0.804017
O O15 0.329173 0.134445 0.423097
O O16 0.750000 0.750000 0.500000
#
# Coordination Sequence:
#
# PCOD9303877 Si02
#       8
#     8   8   8   4   8   8   8   8
#     4  11  24  42  66 103 135 175 227 280 341 408
#     4  11  24  42  68  99 138 182 227 274 343 412
#     4  11  24  45  70  98 135 179 233 280 345 409
#     4  12  20  40  66  98 134 182 222 270 342 410
#     4  11  24  43  67 100 136 176 225 282 340 403
#     4  11  23  40  68  98 136 178 223 282 338 402
#     4  11  25  45  71  99 133 183 224 288 342 409
#     4  12  24  45  69 100 139 180 224 283 341 408
#
# _framework density 21.776781
#
# number of rings (size 3 to 8) (size 9 to 14) (size 15 to 20)
#    0.000    0.800    6.667    0.800    1.867    1.067 
#    2.400    2.667    0.000    0.000    0.000    0.000 
#    0.000    0.000    0.000    0.000    0.000    0.000 
#
# Total GULP energy -167372.089307 kJ/mol
# GULP energy per Si atom -5579.069644 kJ/mol
# Density = 2.172722 g / cm^3
# Si number density = 21.776781 Si / 1000 Ang^3
#
#
#
# Elastic Constant Matrix: (Units=GPa)
#
#
# Indices 1 2 3 4 5 6 
#
# 1 120.1567 17.7311 13.6002 0.0000 -31.0526 0.0000
# 2 17.7311 40.9452 2.8743 0.0000 -2.8246 0.0000
# 3 13.6002 2.8743 62.9515 0.0000 -1.0328 0.0000
# 4 0.0000 0.0000 0.0000 27.6466 0.0000 -1.1752
# 5 -31.0526 -2.8246 -1.0328 0.0000 16.8043 0.0000
# 6 0.0000 0.0000 0.0000 -1.1752 0.0000 29.0815
#
#
#
# Elastic Compliance Matrix: (Units=1/GPa)
#
#
# Indices 1 2 3 4 5 6 
#
# 1 0.017536 -0.005219 -0.003036 0.000000 0.031340 0.000000
# 2 -0.005219 0.026333 -0.000161 0.000000 -0.005227 0.000000
# 3 -0.003036 -0.000161 0.016473 0.000000 -0.004625 0.000000
# 4 0.000000 0.000000 0.000000 0.036233 0.000000 0.001464
# 5 0.031340 -0.005227 -0.004625 0.000000 0.116259 0.000000
# 6 0.000000 0.000000 0.000000 0.001464 0.000000 0.034445
#
#
# Mechanical properties :
#
#
# Convention : Reuss Voigt Hill
#
# Bulk Modulus (GPa) = 22.98260 32.49605 27.73932
# Shear Modulus (GPa) = 17.94603 27.36300 22.65452
#
# Velocity S-wave (km/s) = 2.87381 3.54859 3.22888
# Velocity P-wave (km/s) = 4.64633 5.63425 5.16397
#
# Compressibility (1/GPa) = 0.04351119
#
# Stress axis : x y z
#
# Youngs Moduli (GPa) = 57.02713 37.97454 60.70687
#
# Poissons Ratio (x) = 0.19817 0.18430
# Poissons Ratio (y) = 0.29760 0.00975
# Poissons Ratio (z) = 0.17313 0.00610
#
# Static dielectric constant tensor:
#      x y z
#    x 1.764070 0.000000 0.005510 
#    y 0.000000 1.831170 0.000000 
#    z 0.005510 0.000000 1.878720 
# 
# From -- ./inp_files/213933.got.cif
#   From: 2010.05.17/outbox.cif.g08.bks.cpg/sg15_107_cif.got.tgz:213933.got - 2010.06.03 18:47:42.
