data_PCOD9303615
_publ_section_title
;
Structure prediction by ZEFSAII (Michael W. Deem and Ramdas Pophale) SiO2 
 PCOD9303615
Probable space group: C 2/C
;
_chemical_formula_sum "Si O2"
_cell_formula_units_Z 44
_cell_length_a 6.017730
_cell_length_b 26.583085
_cell_length_c 11.816664
_cell_angle_alpha 90.000000
_cell_angle_beta 80.028613
_cell_angle_gamma 90.000000
_cell_volume 1861.755349
_symmetry_space_group_name_H-M "C 2/C"
_symmetry_group_IT_number 15
_symmetry_cell_setting 'monoclinic'
loop_
_space_group_symop_operation_xyz
x,y,z
-x,y,1/2-z
-x,-y,-z
x,-y,1/2+z
1/2+x,1/2+y,z
1/2-x,1/2+y,1/2-z
1/2-x,1/2-y,-z
1/2+x,1/2-y,1/2+z
loop_
_atom_site_type_symbol
_atom_site_label
_atom_site_fract_x
_atom_site_fract_y
_atom_site_fract_z
Si Si1 0.744996 0.436341 0.939509
Si Si2 0.380048 0.419753 0.151715
Si Si3 0.485126 0.147426 0.947507
Si Si4 0.000000 0.496225 0.250000
Si Si5 0.500000 0.613771 0.250000
Si Si6 0.670393 0.796382 0.838952
Si Si7 0.000000 0.290463 0.250000
O O1 0.609039 0.418822 0.839877
O O2 0.943537 0.471439 0.868257
O O3 0.555060 0.448461 0.051629
O O4 0.873724 0.390987 0.990124
O O5 0.500000 0.395740 0.250000
O O6 0.230663 0.381920 0.087458
O O7 0.214151 0.459562 0.227428
O O8 0.608859 0.172488 0.831152
O O9 0.440331 0.194932 0.031429
O O10 0.686114 0.652253 0.186803
O O11 0.500000 0.794868 0.750000
O O12 0.820304 0.746999 0.820032
#
# Coordination Sequence:
#
# PCOD9303615 Si02
#       7
#     8   8   8   4   4   8   4
#     4  12  26  47  82 102 149 197 245 304 362 440
#     4  12  28  49  75 106 153 196 242 300 370 437
#     4  12  25  50  72 106 146 195 243 293 363 440
#     4  12  29  48  73 118 144 184 255 312 357 432
#     4  11  22  46  71 112 134 194 247 292 366 429
#     4  11  23  45  74 105 143 185 244 301 358 432
#     4  11  27  42  70 110 146 184 238 304 365 425
#
# _framework density 23.633609
#
# number of rings (size 3 to 8) (size 9 to 14) (size 15 to 20)
#    0.000    0.364    3.636    4.909    1.273    5.818 
#    0.000    0.000    0.000    0.000    0.000    0.000 
#    0.000    0.000    0.000    0.000    0.000    0.000 
#
# Total GULP energy -122923.153494 kJ/mol
# GULP energy per Si atom -5587.416068 kJ/mol
# Density = 2.357982 g / cm^3
# Si number density = 23.633609 Si / 1000 Ang^3
#
#
#
# Elastic Constant Matrix: (Units=GPa)
#
#
# Indices 1 2 3 4 5 6 
#
# 1 99.4705 50.8465 78.6913 0.0000 7.0023 0.0000
# 2 50.8465 92.7311 59.2560 0.0000 3.8644 0.0000
# 3 78.6913 59.2560 173.0509 0.0000 8.2974 0.0000
# 4 0.0000 0.0000 0.0000 -928.6804 0.0000-1835.6911
# 5 7.0023 3.8644 8.2974 0.0000 61.7749 0.0000
# 6 0.0000 0.0000 0.0000-1835.6911 0.0000-3710.6790
#
#
#
# Elastic Compliance Matrix: (Units=1/GPa)
#
#
# Indices 1 2 3 4 5 6 
#
# 1 0.017965 -0.005915 -0.006103 0.000000 -0.000847 0.000000
# 2 -0.005915 0.015755 -0.002707 0.000000 0.000049 0.000000
# 3 -0.006103 -0.002707 0.009501 0.000000 -0.000415 0.000000
# 4 0.000000 0.000000 0.000000 -0.048650 0.000000 0.024067
# 5 -0.000847 0.000049 -0.000415 0.000000 0.016336 0.000000
# 6 0.000000 0.000000 0.000000 0.024067 0.000000 -0.012176
#
#
# Mechanical properties :
#
#
# Convention : Reuss Voigt Hill
#
# Bulk Modulus (GPa) = 72.62418 82.53777 77.58098
# Shear Modulus (GPa) = 152.56627 -903.75299 -375.59336
#
# Velocity S-wave (km/s) = 8.04332 -19.57631 -12.62016
# Velocity P-wave (km/s) = 10.81923 21.81687 13.39627
#
# Compressibility (1/GPa) = 0.01376952
#
# Stress axis : x y z
#
# Youngs Moduli (GPa) = 55.66509 63.47029 105.25429
#
# Poissons Ratio (x) = 0.37544 0.64236
# Poissons Ratio (y) = 0.32927 0.28497
# Poissons Ratio (z) = 0.33972 0.17184
#
# Static dielectric constant tensor:
#      x y z
#    x 1.852040 0.000000 -0.058890 
#    y 0.000000 1.887110 0.000000 
#    z -0.058890 0.000000 1.902690 
# 
# From -- ./inp_files/73928.got.cif
#   From: 2010.05.17/outbox.cif.g08.bks.cpg/sg15_37_cif.got.tgz:73928.got - 2010.06.03 18:47:42.
