data_PCOD9303726
_publ_section_title
;
Structure prediction by ZEFSAII (Michael W. Deem and Ramdas Pophale) SiO2 
 PCOD9303726
Probable space group: C 2/C
;
_chemical_formula_sum "Si O2"
_cell_formula_units_Z 32
_cell_length_a 6.356982
_cell_length_b 12.530379
_cell_length_c 14.990909
_cell_angle_alpha 90.000000
_cell_angle_beta 77.159650
_cell_angle_gamma 90.000000
_cell_volume 1164.245838
_symmetry_space_group_name_H-M "C 2/C"
_symmetry_group_IT_number 15
_symmetry_cell_setting 'monoclinic'
loop_
_space_group_symop_operation_xyz
x,y,z
-x,y,1/2-z
-x,-y,-z
x,-y,1/2+z
1/2+x,1/2+y,z
1/2-x,1/2+y,1/2-z
1/2-x,1/2-y,-z
1/2+x,1/2-y,1/2+z
loop_
_atom_site_type_symbol
_atom_site_label
_atom_site_fract_x
_atom_site_fract_y
_atom_site_fract_z
Si Si1 0.427779 0.998165 0.655335
Si Si2 0.631109 0.204333 0.597375
Si Si3 0.207749 0.134270 0.419720
Si Si4 0.504964 0.412541 0.123117
O O1 0.500000 0.010970 0.750000
O O2 0.538907 0.087841 0.584055
O O3 0.180623 0.035167 0.672445
O O4 0.536242 0.885677 0.617641
O O5 0.750000 0.250000 0.500000
O O6 0.423514 0.280923 0.628856
O O7 0.810699 0.173298 0.655641
O O8 0.138867 0.143716 0.529491
O O9 0.106006 0.020465 0.401613
#
# Coordination Sequence:
#
# PCOD9303726 Si02
#       4
#     8   8   8   8
#     4  11  23  38  58  93 135 169 207 275 339 396
#     4   9  20  38  61  89 118 162 220 267 314 395
#     4   9  19  37  62  90 119 165 218 266 325 395
#     4   9  19  37  63  88 121 163 216 271 320 389
#
# _framework density 27.485600000000002
#
# number of rings (size 3 to 8) (size 9 to 14) (size 15 to 20)
#    0.000    2.500    0.000    2.250    0.000   10.000 
#    4.500    0.000    0.000    0.000    0.000    0.000 
#    0.000    0.000    0.000    0.000    0.000    0.000 
#
# Total GULP energy -89185.530626 kJ/mol
# GULP energy per Si atom -5574.095664 kJ/mol
# Density = 2.742304 g / cm^3
# Si number density = 27.485600 Si / 1000 Ang^3
#
#
#
# Elastic Constant Matrix: (Units=GPa)
#
#
# Indices 1 2 3 4 5 6 
#
# 1 218.9942 79.2737 52.6112 0.0000 33.4784 0.0000
# 2 79.2737 142.6668 4.8377 0.0000 -0.8060 0.0000
# 3 52.6112 4.8377 77.5793 0.0000 11.5300 0.0000
# 4 0.0000 0.0000 0.0000 22.6134 0.0000 1.0534
# 5 33.4784 -0.8060 11.5300 0.0000 47.1827 0.0000
# 6 0.0000 0.0000 0.0000 1.0534 0.0000 86.4585
#
#
#
# Elastic Compliance Matrix: (Units=1/GPa)
#
#
# Indices 1 2 3 4 5 6 
#
# 1 0.007853 -0.004241 -0.004382 0.000000 -0.004574 0.000000
# 2 -0.004241 0.009317 0.001893 0.000000 0.002706 0.000000
# 3 -0.004382 0.001893 0.015852 0.000000 -0.000733 0.000000
# 4 0.000000 0.000000 0.000000 0.044247 0.000000 -0.000539
# 5 -0.004574 0.002706 -0.000733 0.000000 0.024665 0.000000
# 6 0.000000 0.000000 0.000000 -0.000539 0.000000 0.011573
#
#
# Mechanical properties :
#
#
# Convention : Reuss Voigt Hill
#
# Bulk Modulus (GPa) = 51.11593 79.18728 65.15160
# Shear Modulus (GPa) = 37.45661 51.41877 44.43769
#
# Velocity S-wave (km/s) = 3.69558 4.32991 4.02526
# Velocity P-wave (km/s) = 6.07021 7.33965 6.73491
#
# Compressibility (1/GPa) = 0.01956337
#
# Stress axis : x y z
#
# Youngs Moduli (GPa) = 127.33228 107.33037 63.08230
#
# Poissons Ratio (x) = 0.45520 0.27640
# Poissons Ratio (y) = 0.54003 -0.11942
# Poissons Ratio (z) = 0.55792 -0.20318
#
# Static dielectric constant tensor:
#      x y z
#    x 2.392130 0.000000 0.005960 
#    y 0.000000 2.114410 0.000000 
#    z 0.005960 0.000000 2.129280 
# 
# From -- ./inp_files/183708.got.cif
#   From: 2010.05.17/outbox.cif.g08.bks.cpg/sg15_92_cif.got.tgz:183708.got - 2010.06.03 18:47:42.
