data_PCOD9303456
_publ_section_title
;
Structure prediction by ZEFSAII (Michael W. Deem and Ramdas Pophale) SiO2 
 PCOD9303456
Probable space group: C 2/C
;
_chemical_formula_sum "Si O2"
_cell_formula_units_Z 64
_cell_length_a 14.515785
_cell_length_b 17.834630
_cell_length_c 10.301207
_cell_angle_alpha 90.000000
_cell_angle_beta 95.669760
_cell_angle_gamma 90.000000
_cell_volume 2653.767664
_symmetry_space_group_name_H-M "C 2/C"
_symmetry_group_IT_number 15
_symmetry_cell_setting 'monoclinic'
loop_
_space_group_symop_operation_xyz
x,y,z
-x,y,1/2-z
-x,-y,-z
x,-y,1/2+z
1/2+x,1/2+y,z
1/2-x,1/2+y,1/2-z
1/2-x,1/2-y,-z
1/2+x,1/2-y,1/2+z
loop_
_atom_site_type_symbol
_atom_site_label
_atom_site_fract_x
_atom_site_fract_y
_atom_site_fract_z
Si Si1 0.062380 0.981276 0.380172
Si Si2 0.321780 0.370405 0.634675
Si Si3 0.722825 0.627776 0.854349
Si Si4 0.195809 0.587323 0.871246
Si Si5 0.930156 0.276775 0.072277
Si Si6 0.944994 0.530288 0.112318
Si Si7 0.831777 0.731933 0.282507
Si Si8 0.892359 0.691626 0.025817
O O1 0.116405 0.055758 0.336605
O O2 0.000000 0.956030 0.250000
O O3 0.136988 0.914032 0.408463
O O4 0.000000 0.000000 0.500000
O O5 0.268174 0.389479 0.493318
O O6 0.388730 0.298857 0.625226
O O7 0.242564 0.336211 0.720331
O O8 0.776110 0.567795 0.773002
O O9 0.713271 0.685867 0.729628
O O10 0.791832 0.669701 0.959660
O O11 0.112695 0.649055 0.868228
O O12 0.153989 0.507910 0.909339
O O13 0.893799 0.276878 0.917614
O O14 0.040797 0.277704 0.076249
O O15 0.937822 0.617862 0.091049
O O16 0.000000 0.511896 0.250000
O O17 0.000000 0.500000 0.000000
O O18 0.882708 0.740937 0.152072
#
# Coordination Sequence:
#
# PCOD9303456 Si02
#       8
#     8   8   8   8   8   8   8   8
#     4  12  31  51  78 109 147 200 254 307 373 445
#     4  11  24  47  75 104 144 191 249 306 371 444
#     4  12  26  48  71 106 143 193 243 303 366 442
#     4  11  22  44  72 102 146 193 243 292 371 443
#     4  11  22  45  71 106 141 194 242 299 379 445
#     4  12  25  42  64 104 147 191 243 297 368 437
#     4  11  24  44  72 103 144 191 244 309 368 437
#     4  12  27  40  71 105 147 186 241 310 367 436
#
# _framework density 24.116655000000002
#
# number of rings (size 3 to 8) (size 9 to 14) (size 15 to 20)
#    0.000    0.500    3.750    4.500    7.000    1.000 
#    0.000    0.000    0.000    0.000    0.000    0.000 
#    0.000    0.000    0.000    0.000    0.000    0.000 
#
# Total GULP energy -178788.157025 kJ/mol
# GULP energy per Si atom -5587.129907 kJ/mol
# Density = 2.406176 g / cm^3
# Si number density = 24.116655 Si / 1000 Ang^3
#
#
#
# Elastic Constant Matrix: (Units=GPa)
#
#
# Indices 1 2 3 4 5 6 
#
# 1 76.4807 22.1909 26.8124 0.0000 0.4317 0.0000
# 2 22.1909 54.5527 -12.8929 0.0000 2.5869 0.0000
# 3 26.8124 -12.8929 88.5418 0.0000 2.4745 0.0000
# 4 0.0000 0.0000 0.0000 28.5650 0.0000 -3.6928
# 5 0.4317 2.5869 2.4745 0.0000 31.0631 0.0000
# 6 0.0000 0.0000 0.0000 -3.6928 0.0000 35.1314
#
#
#
# Elastic Compliance Matrix: (Units=1/GPa)
#
#
# Indices 1 2 3 4 5 6 
#
# 1 0.018073 -0.009012 -0.006814 0.000000 0.001042 0.000000
# 2 -0.009012 0.023579 0.006228 0.000000 -0.002334 0.000000
# 3 -0.006814 0.006228 0.014308 0.000000 -0.001564 0.000000
# 4 0.000000 0.000000 0.000000 0.035490 0.000000 0.003731
# 5 0.001042 -0.002334 -0.001564 0.000000 0.032497 0.000000
# 6 0.000000 0.000000 0.000000 0.003731 0.000000 0.028857
#
#
# Mechanical properties :
#
#
# Convention : Reuss Voigt Hill
#
# Bulk Modulus (GPa) = 27.20069 32.42177 29.81123
# Shear Modulus (GPa) = 27.13633 31.18289 29.15961
#
# Velocity S-wave (km/s) = 3.35806 3.59973 3.48099
# Velocity P-wave (km/s) = 5.13212 5.54530 5.34271
#
# Compressibility (1/GPa) = 0.03676378
#
# Stress axis : x y z
#
# Youngs Moduli (GPa) = 55.33151 42.41047 69.89050
#
# Poissons Ratio (x) = 0.38218 0.47625
# Poissons Ratio (y) = 0.49862 -0.43525
# Poissons Ratio (z) = 0.37704 -0.26411
#
# Static dielectric constant tensor:
#      x y z
#    x 2.052950 0.000000 0.033990 
#    y 0.000000 2.014870 0.000000 
#    z 0.033990 0.000000 1.815490 
# 
# From -- ./inp_files/98775.got.cif
#   From: 2010.05.17/outbox.cif.g08.bks.cpg/sg15_50_cif.got.tgz:98775.got - 2010.06.03 18:47:42.
