data_PCOD9303061
_publ_section_title
;
Structure prediction by ZEFSAII (Michael W. Deem and Ramdas Pophale) SiO2 
 PCOD9303061
Probable space group: C 2/C
;
_chemical_formula_sum "Si O2"
_cell_formula_units_Z 32
_cell_length_a 21.962564
_cell_length_b 8.167424
_cell_length_c 7.726988
_cell_angle_alpha 90.000000
_cell_angle_beta 68.098255
_cell_angle_gamma 90.000000
_cell_volume 1286.010162
_symmetry_space_group_name_H-M "C 2/C"
_symmetry_group_IT_number 15
_symmetry_cell_setting 'monoclinic'
loop_
_space_group_symop_operation_xyz
x,y,z
-x,y,1/2-z
-x,-y,-z
x,-y,1/2+z
1/2+x,1/2+y,z
1/2-x,1/2+y,1/2-z
1/2-x,1/2-y,-z
1/2+x,1/2-y,1/2+z
loop_
_atom_site_type_symbol
_atom_site_label
_atom_site_fract_x
_atom_site_fract_y
_atom_site_fract_z
Si Si1 0.928326 0.797585 0.787934
Si Si2 0.255344 0.389197 0.848830
Si Si3 0.618581 0.623513 0.783536
Si Si4 0.843060 0.332074 0.064744
O O1 0.888625 0.698044 0.684155
O O2 0.000000 0.727831 0.750000
O O3 0.934168 0.983019 0.706728
O O4 0.891746 0.818752 0.010180
O O5 0.314483 0.518204 0.809006
O O6 0.188897 0.490275 0.905784
O O7 0.280487 0.289219 0.657179
O O8 0.250000 0.250000 0.000000
O O9 0.619972 0.769811 0.644574
#
# Coordination Sequence:
#
# PCOD9303061 Si02
#       4
#     8   8   8   8
#     4  11  23  41  73 115 153 203 263 301 363 447
#     4  11  24  44  71 110 151 190 250 307 387 461
#     4  11  22  41  70 111 153 200 250 303 372 440
#     4  11  25  44  70 111 153 197 243 312 374 449
#
# _framework density 24.883164000000001
#
# number of rings (size 3 to 8) (size 9 to 14) (size 15 to 20)
#    0.000    1.000    5.000    3.000    3.500    0.000 
#    0.000    0.000    0.000    6.000    0.000   14.000 
#    0.000    0.000    0.000    0.000    0.000    0.000 
#
# Total GULP energy -89627.325890 kJ/mol
# GULP energy per Si atom -5601.707868 kJ/mol
# Density = 2.482653 g / cm^3
# Si number density = 24.883164 Si / 1000 Ang^3
#
#
#
# Elastic Constant Matrix: (Units=GPa)
#
#
# Indices 1 2 3 4 5 6 
#
# 1 148.9171 82.1544 63.8939 0.0000 22.6760 0.0000
# 2 82.1544 115.0653 65.2232 0.0000 13.2760 0.0000
# 3 63.8939 65.2232 201.9776 0.0000 31.1114 0.0000
# 4 0.0000 0.0000 0.0000 26.5084 0.0000 13.5798
# 5 22.6760 13.2760 31.1114 0.0000 30.4987 0.0000
# 6 0.0000 0.0000 0.0000 13.5798 0.0000 34.2369
#
#
#
# Elastic Compliance Matrix: (Units=1/GPa)
#
#
# Indices 1 2 3 4 5 6 
#
# 1 0.011912 -0.007624 -0.000538 0.000000 -0.004989 0.000000
# 2 -0.007624 0.015564 -0.002899 0.000000 0.001851 0.000000
# 3 -0.000538 -0.002899 0.006883 0.000000 -0.005359 0.000000
# 4 0.000000 0.000000 0.000000 0.047344 0.000000 -0.018779
# 5 -0.004989 0.001851 -0.005359 0.000000 0.041159 0.000000
# 6 0.000000 0.000000 0.000000 -0.018779 0.000000 0.036657
#
#
# Mechanical properties :
#
#
# Convention : Reuss Voigt Hill
#
# Bulk Modulus (GPa) = 81.72394 98.72255 90.22325
# Shear Modulus (GPa) = 26.92234 35.22804 31.07519
#
# Velocity S-wave (km/s) = 3.29287 3.76671 3.53773
# Velocity P-wave (km/s) = 6.88271 7.66016 7.28182
#
# Compressibility (1/GPa) = 0.01223632
#
# Stress axis : x y z
#
# Youngs Moduli (GPa) = 83.95097 64.25005 145.28800
#
# Poissons Ratio (x) = 0.48987 0.07810
# Poissons Ratio (y) = 0.64007 0.42123
# Poissons Ratio (z) = 0.04513 0.18628
#
# Static dielectric constant tensor:
#      x y z
#    x 2.023160 0.000000 -0.015420 
#    y 0.000000 2.013730 0.000000 
#    z -0.015420 0.000000 1.989420 
# 
# From -- ./inp_files/64380.got.cif
#   From: 2010.05.17/outbox.cif.g08.bks.cpg/sg15_33_cif.got.tgz:64380.got - 2010.06.03 18:47:42.
