data_PCOD9303342
_publ_section_title
;
Structure prediction by ZEFSAII (Michael W. Deem and Ramdas Pophale) SiO2 
 PCOD9303342
Probable space group: C 2/C
;
_chemical_formula_sum "Si O2"
_cell_formula_units_Z 48
_cell_length_a 8.521650
_cell_length_b 14.125723
_cell_length_c 25.506539
_cell_angle_alpha 90.000000
_cell_angle_beta 40.538989
_cell_angle_gamma 90.000000
_cell_volume 1995.612025
_symmetry_space_group_name_H-M "C 2/C"
_symmetry_group_IT_number 15
_symmetry_cell_setting 'monoclinic'
loop_
_space_group_symop_operation_xyz
x,y,z
-x,y,1/2-z
-x,-y,-z
x,-y,1/2+z
1/2+x,1/2+y,z
1/2-x,1/2+y,1/2-z
1/2-x,1/2-y,-z
1/2+x,1/2-y,1/2+z
loop_
_atom_site_type_symbol
_atom_site_label
_atom_site_fract_x
_atom_site_fract_y
_atom_site_fract_z
Si Si1 0.658875 0.485326 0.259843
Si Si2 0.506723 0.803956 0.308473
Si Si3 0.537437 0.242893 0.916191
Si Si4 0.071491 0.935607 0.431739
Si Si5 0.273363 0.937355 0.069254
Si Si6 0.596498 0.896027 0.670228
O O1 0.500000 0.463058 0.250000
O O2 0.439185 0.504143 0.354860
O O3 0.800381 0.390540 0.241607
O O4 0.859545 0.566521 0.199786
O O5 0.500000 0.765714 0.250000
O O6 0.570561 0.746248 0.344767
O O7 0.246933 0.846322 0.391676
O O8 0.642101 0.144100 0.912130
O O9 0.710194 0.320923 0.899797
O O10 0.250000 0.250000 0.000000
O O11 0.842126 0.904249 0.456303
O O12 0.252447 0.009220 0.357161
O O13 0.000000 0.000000 0.500000
O O14 0.500000 0.000000 0.000000
O O15 0.500000 0.860199 0.750000
#
# Coordination Sequence:
#
# PCOD9303342 Si02
#       6
#     8   8   8   8   8   8
#     4  11  22  44  76 108 130 192 257 299 361 456
#     4  11  22  43  75 104 138 191 256 302 361 459
#     4  12  28  48  73 111 155 196 243 319 392 440
#     4  11  22  43  72 102 139 194 248 301 365 454
#     4  12  24  43  73 102 142 195 247 292 364 460
#     4  11  24  44  71 103 148 184 238 318 376 425
#
# _framework density 24.052769999999999
#
# number of rings (size 3 to 8) (size 9 to 14) (size 15 to 20)
#    0.000    0.667    5.000    4.000    4.667    0.000 
#    0.000    7.500    0.000    0.000    0.000    0.000 
#    0.000    0.000    0.000    0.000    0.000    0.000 
#
# Total GULP energy -133879.525179 kJ/mol
# GULP energy per Si atom -5578.313549 kJ/mol
# Density = 2.399802 g / cm^3
# Si number density = 24.052770 Si / 1000 Ang^3
#
#
#
# Elastic Constant Matrix: (Units=GPa)
#
#
# Indices 1 2 3 4 5 6 
#
# 1 158.5720 31.3371 55.7904 0.0003 -15.4806 0.0003
# 2 31.3371 63.9974 20.2593 0.0004 -16.5352 0.0000
# 3 55.7904 20.2593 122.3758 0.0054 -22.5017 -0.0013
# 4 0.0003 0.0004 0.0054 21.8982 -0.0017 -2.9396
# 5 -15.4806 -16.5352 -22.5017 -0.0017 55.3503 0.0003
# 6 0.0003 0.0000 -0.0013 -2.9396 0.0003 30.6719
#
#
#
# Elastic Compliance Matrix: (Units=1/GPa)
#
#
# Indices 1 2 3 4 5 6 
#
# 1 0.007995 -0.002894 -0.003149 0.000001 0.000091 0.000000
# 2 -0.002894 0.018458 -0.000941 0.000000 0.004322 0.000000
# 3 -0.003149 -0.000941 0.010321 -0.000002 0.003034 0.000000
# 4 0.000001 0.000000 -0.000002 0.046261 0.000001 0.004434
# 5 0.000091 0.004322 0.003034 0.000001 0.020617 0.000000
# 6 0.000000 0.000000 0.000000 0.004434 0.000000 0.033028
#
#
# Mechanical properties :
#
#
# Convention : Reuss Voigt Hill
#
# Bulk Modulus (GPa) = 43.85234 62.19099 53.02166
# Shear Modulus (GPa) = 31.59553 37.42130 34.50842
#
# Velocity S-wave (km/s) = 3.62828 3.94864 3.79185
# Velocity P-wave (km/s) = 5.98531 6.83383 6.42359
#
# Compressibility (1/GPa) = 0.02280380
#
# Stress axis : x y z
#
# Youngs Moduli (GPa) = 125.07665 54.17824 96.89149
#
# Poissons Ratio (x) = 0.15682 0.30511
# Poissons Ratio (y) = 0.36203 0.09122
# Poissons Ratio (z) = 0.39386 0.05101
#
# Static dielectric constant tensor:
#      x y z
#    x 2.026310 0.000000 0.089270 
#    y 0.000000 1.996090 0.000000 
#    z 0.089270 0.000000 1.958510 
# 
# From -- ./inp_files/289035.got.cif
#   From: 2010.05.17/outbox.cif.g08.bks.cpg/sg15_145_cif.got.tgz:289035.got - 2010.06.03 18:47:42.
