data_PCOD9303614
_publ_section_title
;
Structure prediction by ZEFSAII (Michael W. Deem and Ramdas Pophale) SiO2 
 PCOD9303614
Probable space group: C 2/C
;
_chemical_formula_sum "Si O2"
_cell_formula_units_Z 48
_cell_length_a 11.024640
_cell_length_b 12.674098
_cell_length_c 14.353675
_cell_angle_alpha 90.000000
_cell_angle_beta 65.872983
_cell_angle_gamma 90.000000
_cell_volume 1830.394978
_symmetry_space_group_name_H-M "C 2/C"
_symmetry_group_IT_number 15
_symmetry_cell_setting 'monoclinic'
loop_
_space_group_symop_operation_xyz
x,y,z
-x,y,1/2-z
-x,-y,-z
x,-y,1/2+z
1/2+x,1/2+y,z
1/2-x,1/2+y,1/2-z
1/2-x,1/2-y,-z
1/2+x,1/2-y,1/2+z
loop_
_atom_site_type_symbol
_atom_site_label
_atom_site_fract_x
_atom_site_fract_y
_atom_site_fract_z
Si Si1 0.881224 0.212495 0.672412
Si Si2 0.192918 0.594860 0.180951
Si Si3 0.772610 0.468649 0.034236
Si Si4 0.521608 0.524405 0.345787
Si Si5 0.612813 0.807357 0.016837
Si Si6 0.132549 0.380765 0.302730
O O1 0.870785 0.302156 0.753457
O O2 0.938432 0.098449 0.677600
O O3 0.943945 0.249170 0.556145
O O4 0.725107 0.188255 0.707522
O O5 0.352668 0.583279 0.149065
O O6 0.130112 0.494573 0.254393
O O7 0.177937 0.587003 0.074934
O O8 0.623495 0.514335 0.062970
O O9 0.856626 0.573741 0.024739
O O10 0.791888 0.399108 0.120903
O O11 0.500000 0.570282 0.250000
O O12 0.750000 0.750000 0.000000
O O13 0.503595 0.823485 0.130405
#
# Coordination Sequence:
#
# PCOD9303614 Si02
#       6
#     8   8   8   8   8   8
#     4  11  25  44  72 107 146 191 249 302 371 450
#     4  11  25  45  75 106 145 201 241 310 380 436
#     4  12  25  47  74 103 149 198 241 318 377 437
#     4  11  22  46  71 106 150 186 251 307 366 451
#     4  12  27  48  76 107 143 201 250 309 375 441
#     4  11  26  51  68 112 154 184 256 308 367 456
#
# _framework density 26.223849999999999
#
# number of rings (size 3 to 8) (size 9 to 14) (size 15 to 20)
#    0.000    0.667    5.000    3.000    4.667    4.667 
#    0.000    0.000    0.000    0.000    0.000    0.000 
#    0.000    0.000    0.000    0.000    0.000    0.000 
#
# Total GULP energy -134492.834840 kJ/mol
# GULP energy per Si atom -5603.868118 kJ/mol
# Density = 2.616416 g / cm^3
# Si number density = 26.223850 Si / 1000 Ang^3
#
#
#
# Elastic Constant Matrix: (Units=GPa)
#
#
# Indices 1 2 3 4 5 6 
#
# 1 116.7323 11.4163 20.2960 0.0000 -2.3408 0.0000
# 2 11.4163 89.2030 17.6525 0.0000 0.1690 0.0000
# 3 20.2960 17.6525 116.7230 0.0000 -0.4644 0.0000
# 4 0.0000 0.0000 0.0000 34.1705 0.0000 -6.6079
# 5 -2.3408 0.1690 -0.4644 0.0000 58.2721 0.0000
# 6 0.0000 0.0000 0.0000 -6.6079 0.0000 23.9829
#
#
#
# Elastic Compliance Matrix: (Units=1/GPa)
#
#
# Indices 1 2 3 4 5 6 
#
# 1 0.008904 -0.000860 -0.001417 0.000000 0.000349 0.000000
# 2 -0.000860 0.011639 -0.001611 0.000000 -0.000081 0.000000
# 3 -0.001417 -0.001611 0.009057 0.000000 0.000020 0.000000
# 4 0.000000 0.000000 0.000000 0.030912 0.000000 0.008517
# 5 0.000349 -0.000081 0.000020 0.000000 0.017175 0.000000
# 6 0.000000 0.000000 0.000000 0.008517 0.000000 0.044043
#
#
# Mechanical properties :
#
#
# Convention : Reuss Voigt Hill
#
# Bulk Modulus (GPa) = 45.81831 46.82088 46.31960
# Shear Modulus (GPa) = 36.55454 41.50465 39.02959
#
# Velocity S-wave (km/s) = 3.73760 3.98264 3.86207
# Velocity P-wave (km/s) = 6.01134 6.24833 6.13098
#
# Compressibility (1/GPa) = 0.02182533
#
# Stress axis : x y z
#
# Youngs Moduli (GPa) = 112.30862 85.91503 110.40717
#
# Poissons Ratio (x) = 0.07387 0.15643
# Poissons Ratio (y) = 0.09657 0.17788
# Poissons Ratio (z) = 0.15912 0.13842
#
# Static dielectric constant tensor:
#      x y z
#    x 2.158350 0.000000 -0.049550 
#    y 0.000000 1.990260 0.000000 
#    z -0.049550 0.000000 1.986750 
# 
# From -- ./inp_files/144064.got.cif
#   From: 2010.05.17/outbox.cif.g08.bks.cpg/sg15_73_cif.got.tgz:144064.got - 2010.06.03 18:47:42.
