data_PCOD9303041
_publ_section_title
;
Structure prediction by ZEFSAII (Michael W. Deem and Ramdas Pophale) SiO2 
 PCOD9303041
Probable space group: C 2/C
;
_chemical_formula_sum "Si O2"
_cell_formula_units_Z 52
_cell_length_a 28.923138
_cell_length_b 8.109511
_cell_length_c 15.987208
_cell_angle_alpha 90.000000
_cell_angle_beta 39.008620
_cell_angle_gamma 90.000000
_cell_volume 2360.288987
_symmetry_space_group_name_H-M "C 2/C"
_symmetry_group_IT_number 15
_symmetry_cell_setting 'monoclinic'
loop_
_space_group_symop_operation_xyz
x,y,z
-x,y,1/2-z
-x,-y,-z
x,-y,1/2+z
1/2+x,1/2+y,z
1/2-x,1/2+y,1/2-z
1/2-x,1/2-y,-z
1/2+x,1/2-y,1/2+z
loop_
_atom_site_type_symbol
_atom_site_label
_atom_site_fract_x
_atom_site_fract_y
_atom_site_fract_z
Si Si1 0.648541 0.264042 0.952188
Si Si2 0.863876 0.336139 0.848321
Si Si3 0.000000 0.288005 0.250000
Si Si4 0.306964 0.659807 0.773730
Si Si5 0.134347 0.146053 0.970397
Si Si6 0.487102 0.050327 0.421668
Si Si7 0.230478 0.365066 0.951046
O O1 0.729521 0.186283 0.835450
O O2 0.631512 0.270130 0.074978
O O3 0.649768 0.455523 0.928353
O O4 0.588914 0.148095 0.989880
O O5 0.811345 0.275505 0.848418
O O6 0.832515 0.509069 0.927694
O O7 0.944318 0.334683 0.696912
O O8 0.067971 0.172205 0.128362
O O9 0.001420 0.406760 0.165434
O O10 0.370320 0.709358 0.619126
O O11 0.298466 0.476120 0.823605
O O12 0.198358 0.250395 0.924077
O O13 0.500000 0.000000 0.500000
O O14 0.250000 0.250000 0.000000
#
# Coordination Sequence:
#
# PCOD9303041 Si02
#       7
#     8   8   4   8   8   8   8
#     4  11  24  46  71  99 145 189 236 300 371 435
#     4  11  22  43  68  99 140 191 236 292 370 437
#     4  12  24  48  66 104 148 188 242 300 368 442
#     4  11  24  44  70 105 140 187 245 299 368 441
#     4  12  25  42  69 103 141 182 241 307 358 434
#     4  12  25  46  74 103 143 198 244 295 371 449
#     4  11  22  41  69 100 140 183 237 301 363 432
#
# _framework density 22.031199999999998
#
# number of rings (size 3 to 8) (size 9 to 14) (size 15 to 20)
#    0.000    0.615    3.077    6.462    2.154    3.692 
#    2.769    1.538    0.000    0.000    0.000    0.000 
#    0.000    0.000    0.000    0.000    0.000    0.000 
#
# Total GULP energy -145024.878009 kJ/mol
# GULP energy per Si atom -5577.879923 kJ/mol
# Density = 2.198106 g / cm^3
# Si number density = 22.031200 Si / 1000 Ang^3
#
#
#
# Elastic Constant Matrix: (Units=GPa)
#
#
# Indices 1 2 3 4 5 6 
#
# 1 101.9793 31.1151 33.9652 -0.0011 22.6571 0.0004
# 2 31.1151 80.0057 12.4435 -0.0041 16.0959 0.0002
# 3 33.9652 12.4435 108.4967 -0.0051 30.6764 0.0013
# 4 -0.0011 -0.0041 -0.0051 21.3251 0.0012 5.3871
# 5 22.6571 16.0959 30.6764 0.0012 44.4295 0.0002
# 6 0.0004 0.0002 0.0013 5.3871 0.0002 34.9628
#
#
#
# Elastic Compliance Matrix: (Units=1/GPa)
#
#
# Indices 1 2 3 4 5 6 
#
# 1 0.012551 -0.003830 -0.002575 -0.000001 -0.003235 0.000000
# 2 -0.003830 0.014654 0.000580 0.000003 -0.003757 -0.000001
# 3 -0.002575 0.000580 0.011984 0.000003 -0.007171 -0.000001
# 4 -0.000001 0.000003 0.000003 0.048792 -0.000005 -0.007518
# 5 -0.003235 -0.003757 -0.007171 -0.000005 0.030470 0.000001
# 6 0.000000 -0.000001 -0.000001 -0.007518 0.000001 0.029760
#
#
# Mechanical properties :
#
#
# Convention : Reuss Voigt Hill
#
# Bulk Modulus (GPa) = 36.31112 49.50325 42.90718
# Shear Modulus (GPa) = 29.57873 34.34067 31.95970
#
# Velocity S-wave (km/s) = 3.66810 3.95236 3.81288
# Velocity P-wave (km/s) = 5.87005 6.58381 6.23715
#
# Compressibility (1/GPa) = 0.02753978
#
# Stress axis : x y z
#
# Youngs Moduli (GPa) = 79.67602 68.24044 83.44355
#
# Poissons Ratio (x) = 0.26135 0.21488
# Poissons Ratio (y) = 0.30514 -0.04843
# Poissons Ratio (z) = 0.20518 -0.03961
#
# Static dielectric constant tensor:
#      x y z
#    x 1.914730 0.000010 0.012300 
#    y 0.000010 1.828720 0.000000 
#    z 0.012300 0.000000 1.908910 
# 
# From -- ./inp_files/181081.got.cif
#   From: 2010.05.17/outbox.cif.g08.bks.cpg/sg15_91_cif.got.tgz:181081.got - 2010.06.03 18:47:42.
