data_PCOD9303195
_publ_section_title
;
Structure prediction by ZEFSAII (Michael W. Deem and Ramdas Pophale) SiO2 
 PCOD9303195
Probable space group: C 2/C
;
_chemical_formula_sum "Si O2"
_cell_formula_units_Z 52
_cell_length_a 17.623370
_cell_length_b 17.036500
_cell_length_c 9.878111
_cell_angle_alpha 90.000000
_cell_angle_beta 127.615159
_cell_angle_gamma 90.000000
_cell_volume 2349.301231
_symmetry_space_group_name_H-M "C 2/C"
_symmetry_group_IT_number 15
_symmetry_cell_setting 'monoclinic'
loop_
_space_group_symop_operation_xyz
x,y,z
-x,y,1/2-z
-x,-y,-z
x,-y,1/2+z
1/2+x,1/2+y,z
1/2-x,1/2+y,1/2-z
1/2-x,1/2-y,-z
1/2+x,1/2-y,1/2+z
loop_
_atom_site_type_symbol
_atom_site_label
_atom_site_fract_x
_atom_site_fract_y
_atom_site_fract_z
Si Si1 0.796295 0.834792 0.737179
Si Si2 0.358350 0.610059 0.026441
Si Si3 0.004771 0.160215 0.548764
Si Si4 0.721916 0.991735 0.203101
Si Si5 0.393605 0.049190 0.185135
Si Si6 0.500000 0.478714 0.250000
Si Si7 0.663673 0.225137 0.307840
O O1 0.807698 0.839938 0.588071
O O2 0.776187 0.924679 0.762669
O O3 0.711563 0.784529 0.710967
O O4 0.897823 0.808792 0.910543
O O5 0.406838 0.533767 0.149318
O O6 0.445663 0.650491 0.043080
O O7 0.287078 0.577095 0.834497
O O8 0.999206 0.076913 0.618414
O O9 0.077456 0.213712 0.711769
O O10 0.632957 0.002629 0.208193
O O11 0.682994 0.975021 0.012209
O O12 0.500000 0.033349 0.250000
O O13 0.377984 0.141087 0.195819
O O14 0.750000 0.250000 0.500000
#
# Coordination Sequence:
#
# PCOD9303195 Si02
#       7
#     8   8   8   8   8   4   8
#     4  11  23  42  68 101 140 181 237 294 347 433
#     4  12  22  39  67 104 137 176 227 300 364 403
#     4  12  24  40  67  97 144 187 232 289 353 431
#     4  11  22  42  70 105 138 171 231 303 359 405
#     4  11  25  44  71 100 135 184 237 289 351 425
#     4  12  22  36  66 106 136 174 232 292 354 416
#     4  11  27  44  65  98 140 196 237 279 354 433
#
# _framework density 22.134242
#
# number of rings (size 3 to 8) (size 9 to 14) (size 15 to 20)
#    0.000    0.615    4.615    3.692    5.385    0.615 
#    0.000    0.000    0.000    0.000    0.000    0.000 
#    0.000    0.000    0.000    0.000    0.000    0.000 
#
# Total GULP energy -145600.966243 kJ/mol
# GULP energy per Si atom -5600.037163 kJ/mol
# Density = 2.208386 g / cm^3
# Si number density = 22.134242 Si / 1000 Ang^3
#
#
#
# Elastic Constant Matrix: (Units=GPa)
#
#
# Indices 1 2 3 4 5 6 
#
# 1 123.2877 11.0605 1.7334 0.0000 -5.6779 0.0000
# 2 11.0605 41.6055 4.4466 0.0000 9.1961 0.0000
# 3 1.7334 4.4466 63.6653 0.0000 0.1155 0.0000
# 4 0.0000 0.0000 0.0000 23.5882 0.0000 -0.7285
# 5 -5.6779 9.1961 0.1155 0.0000 47.7716 0.0000
# 6 0.0000 0.0000 0.0000 -0.7285 0.0000 29.7248
#
#
#
# Elastic Compliance Matrix: (Units=1/GPa)
#
#
# Indices 1 2 3 4 5 6 
#
# 1 0.008410 -0.002560 -0.000053 0.000000 0.001493 0.000000
# 2 -0.002560 0.026078 -0.001742 0.000000 -0.005320 0.000000
# 3 -0.000053 -0.001742 0.015830 0.000000 0.000291 0.000000
# 4 0.000000 0.000000 0.000000 0.042426 0.000000 0.001040
# 5 0.001493 -0.005320 0.000291 0.000000 0.022134 0.000000
# 6 0.000000 0.000000 0.000000 0.001040 0.000000 0.033667
#
#
# Mechanical properties :
#
#
# Convention : Reuss Voigt Hill
#
# Bulk Modulus (GPa) = 24.03382 29.22660 26.63021
# Shear Modulus (GPa) = 29.21849 34.30479 31.76164
#
# Velocity S-wave (km/s) = 3.63720 3.94109 3.79219
# Velocity P-wave (km/s) = 5.34048 5.82602 5.58853
#
# Compressibility (1/GPa) = 0.04160804
#
# Stress axis : x y z
#
# Youngs Moduli (GPa) = 118.90241 38.34658 63.17233
#
# Poissons Ratio (x) = 0.09817 0.00334
# Poissons Ratio (y) = 0.30440 0.11005
# Poissons Ratio (z) = 0.00629 0.06680
#
# Static dielectric constant tensor:
#      x y z
#    x 1.812620 0.000000 -0.028740 
#    y 0.000000 1.785420 0.000000 
#    z -0.028740 0.000000 1.808580 
# 
# From -- ./inp_files/49244.got.cif
#   From: 2010.05.17/outbox.cif.g08.bks.cpg/sg15_25_cif.got.tgz:49244.got - 2010.06.03 18:47:42.
