data_PCOD9303702
_publ_section_title
;
Structure prediction by ZEFSAII (Michael W. Deem and Ramdas Pophale) SiO2 
 PCOD9303702
Probable space group: C 2/C
;
_chemical_formula_sum "Si O2"
_cell_formula_units_Z 64
_cell_length_a 17.073425
_cell_length_b 9.936130
_cell_length_c 22.367330
_cell_angle_alpha 90.000000
_cell_angle_beta 127.723543
_cell_angle_gamma 90.000000
_cell_volume 3001.326719
_symmetry_space_group_name_H-M "C 2/C"
_symmetry_group_IT_number 15
_symmetry_cell_setting 'monoclinic'
loop_
_space_group_symop_operation_xyz
x,y,z
-x,y,1/2-z
-x,-y,-z
x,-y,1/2+z
1/2+x,1/2+y,z
1/2-x,1/2+y,1/2-z
1/2-x,1/2-y,-z
1/2+x,1/2-y,1/2+z
loop_
_atom_site_type_symbol
_atom_site_label
_atom_site_fract_x
_atom_site_fract_y
_atom_site_fract_z
Si Si1 0.395508 0.727508 0.424166
Si Si2 0.471994 0.491514 0.865800
Si Si3 0.666455 0.415635 0.421103
Si Si4 0.674180 0.013078 0.683602
Si Si5 0.909858 0.243765 0.902323
Si Si6 0.294229 0.869920 0.587003
Si Si7 0.697169 0.122154 0.828734
Si Si8 0.866062 0.088843 0.208693
O O1 0.425285 0.616193 0.388623
O O2 0.357696 0.860322 0.372020
O O3 0.494887 0.746284 0.509920
O O4 0.304354 0.677526 0.422638
O O5 0.588270 0.515468 0.929124
O O6 0.425862 0.635729 0.857641
O O7 0.460788 0.453022 0.791382
O O8 0.639028 0.264172 0.386986
O O9 0.766065 0.403630 0.505562
O O10 0.670038 0.506252 0.364859
O O11 0.680131 0.061216 0.754676
O O12 0.603494 0.889188 0.633463
O O13 0.780312 0.948635 0.716789
O O14 0.809305 0.184778 0.886444
O O15 0.326866 0.004195 0.635941
O O16 0.630917 0.254419 0.804175
#
# Coordination Sequence:
#
# PCOD9303702 Si02
#       8
#     8   8   8   8   8   8   8   8
#     4  12  21  43  67  97 132 164 219 277 324 390
#     4  12  22  40  67  95 125 168 217 273 319 387
#     4  11  25  41  64  94 130 172 213 265 328 401
#     4  11  23  39  65  98 132 163 217 276 322 379
#     4  11  23  36  66  99 127 164 211 270 327 374
#     4  11  23  42  67  94 129 171 217 269 327 396
#     4  11  23  42  66  97 125 172 224 269 320 387
#     4  11  23  40  63  92 131 173 215 263 331 394
#
# _framework density 21.323903000000001
#
# number of rings (size 3 to 8) (size 9 to 14) (size 15 to 20)
#    0.000    0.750    6.250    1.875    3.500    0.500 
#    0.000    1.250    0.000    0.000    0.000    0.000 
#    0.000    0.000    0.000    0.000    0.000    0.000 
#
# Total GULP energy -178697.525587 kJ/mol
# GULP energy per Si atom -5584.297675 kJ/mol
# Density = 2.127537 g / cm^3
# Si number density = 21.323903 Si / 1000 Ang^3
#
#
#
# Elastic Constant Matrix: (Units=GPa)
#
#
# Indices 1 2 3 4 5 6 
#
# 1 23.1099 8.3316 5.1021 0.0000 -1.8598 0.0000
# 2 8.3316 171.4846 64.3256 0.0000 -17.8505 0.0000
# 3 5.1021 64.3256 101.1334 0.0000 -17.6881 0.0000
# 4 0.0000 0.0000 0.0000 39.1127 0.0000 -10.4639
# 5 -1.8598 -17.8505 -17.6881 0.0000 20.7732 0.0000
# 6 0.0000 0.0000 0.0000 -10.4639 0.0000 23.0427
#
#
#
# Elastic Compliance Matrix: (Units=1/GPa)
#
#
# Indices 1 2 3 4 5 6 
#
# 1 0.044198 -0.001630 -0.000876 0.000000 0.001810 0.000000
# 2 -0.001630 0.007866 -0.004423 0.000000 0.002847 0.000000
# 3 -0.000876 -0.004423 0.014178 0.000000 0.008194 0.000000
# 4 0.000000 0.000000 0.000000 0.029103 0.000000 0.013216
# 5 0.001810 0.002847 0.008194 0.000000 0.057725 0.000000
# 6 0.000000 0.000000 0.000000 0.013216 0.000000 0.049399
#
#
# Mechanical properties :
#
#
# Convention : Reuss Voigt Hill
#
# Bulk Modulus (GPa) = 19.08987 50.13849 34.61418
# Shear Modulus (GPa) = 21.38673 31.11695 26.25184
#
# Velocity S-wave (km/s) = 3.17037 3.82416 3.51251
# Velocity P-wave (km/s) = 4.73005 6.56222 5.71997
#
# Compressibility (1/GPa) = 0.05238381
#
# Stress axis : x y z
#
# Youngs Moduli (GPa) = 22.62524 127.12725 70.52969
#
# Poissons Ratio (x) = 0.20725 0.06181
# Poissons Ratio (y) = 0.03688 0.31195
# Poissons Ratio (z) = 0.01983 0.56228
#
# Static dielectric constant tensor:
#      x y z
#    x 1.848460 0.000000 0.040510 
#    y 0.000000 1.747910 0.000000 
#    z 0.040510 0.000000 1.778120 
# 
# From -- ./inp_files/279591.got.cif
#   From: 2010.05.17/outbox.cif.g08.bks.cpg/sg15_140_cif.got.tgz:279591.got - 2010.06.03 18:47:42.
