data_PCOD9303115
_publ_section_title
;
Structure prediction by ZEFSAII (Michael W. Deem and Ramdas Pophale) SiO2 
 PCOD9303115
Probable space group: C 2/C
;
_chemical_formula_sum "Si O2"
_cell_formula_units_Z 48
_cell_length_a 19.270497
_cell_length_b 16.584583
_cell_length_c 9.004976
_cell_angle_alpha 90.000000
_cell_angle_beta 51.545428
_cell_angle_gamma 90.000000
_cell_volume 2253.710239
_symmetry_space_group_name_H-M "C 2/C"
_symmetry_group_IT_number 15
_symmetry_cell_setting 'monoclinic'
loop_
_space_group_symop_operation_xyz
x,y,z
-x,y,1/2-z
-x,-y,-z
x,-y,1/2+z
1/2+x,1/2+y,z
1/2-x,1/2+y,1/2-z
1/2-x,1/2-y,-z
1/2+x,1/2-y,1/2+z
loop_
_atom_site_type_symbol
_atom_site_label
_atom_site_fract_x
_atom_site_fract_y
_atom_site_fract_z
Si Si1 0.086820 0.885338 0.557706
Si Si2 0.814336 0.186913 0.995023
Si Si3 0.500000 0.226257 0.250000
Si Si4 0.410820 0.540797 0.769180
Si Si5 0.000000 0.476922 0.250000
Si Si6 0.579240 0.105904 0.930266
Si Si7 0.753261 0.279038 0.329875
O O1 0.069744 0.935881 0.428160
O O2 0.159131 0.819282 0.420383
O O3 0.000000 0.847446 0.750000
O O4 0.114616 0.950230 0.647391
O O5 0.827071 0.096497 0.925364
O O6 0.912797 0.221724 0.850605
O O7 0.750000 0.250000 0.000000
O O8 0.780453 0.198868 0.205423
O O9 0.488703 0.171223 0.410655
O O10 0.500000 0.556721 0.750000
O O11 0.050893 0.425309 0.306659
O O12 0.932034 0.533054 0.435857
O O13 0.672825 0.152190 0.800706
O O14 0.750000 0.250000 0.500000
#
# Coordination Sequence:
#
# PCOD9303115 Si02
#       7
#     8   8   4   8   4   8   8
#     4  11  25  43  67  95 130 170 217 267 327 385
#     4  11  22  42  65  94 125 173 217 259 329 386
#     4   9  20  38  64  86 131 158 206 264 311 386
#     4  11  23  43  69  94 126 172 216 270 328 386
#     4   9  18  40  64  90 119 160 202 250 319 370
#     4   9  20  39  62  91 122 160 202 254 313 371
#     4  11  26  42  61  97 131 165 213 267 313 380
#
# _framework density 21.298213000000001
#
# number of rings (size 3 to 8) (size 9 to 14) (size 15 to 20)
#    0.000    1.667    2.500    2.000    4.667    2.667 
#    7.500    0.000    0.000    0.000    0.000    0.000 
#    0.000    0.000    0.000    0.000    0.000    0.000 
#
# Total GULP energy -133867.394405 kJ/mol
# GULP energy per Si atom -5577.808100 kJ/mol
# Density = 2.124974 g / cm^3
# Si number density = 21.298213 Si / 1000 Ang^3
#
#
#
# Elastic Constant Matrix: (Units=GPa)
#
#
# Indices 1 2 3 4 5 6 
#
# 1 41.0823 2.7634 25.5698 0.0000 3.3297 0.0000
# 2 2.7634 41.6455 14.9910 0.0000 -13.2445 0.0000
# 3 25.5698 14.9910 135.9029 0.0000 3.6696 0.0000
# 4 0.0000 0.0000 0.0000 10.8698 0.0000 15.2674
# 5 3.3297 -13.2445 3.6696 0.0000 41.6736 0.0000
# 6 0.0000 0.0000 0.0000 15.2674 0.0000 7.0476
#
#
#
# Elastic Compliance Matrix: (Units=1/GPa)
#
#
# Indices 1 2 3 4 5 6 
#
# 1 0.027712 -0.000632 -0.005091 0.000000 -0.001967 0.000000
# 2 -0.000632 0.028175 -0.003240 0.000000 0.009290 0.000000
# 3 -0.005091 -0.003240 0.008711 0.000000 -0.001390 0.000000
# 4 0.000000 0.000000 0.000000 -0.045036 0.000000 0.097562
# 5 -0.001967 0.009290 -0.001390 0.000000 0.027228 0.000000
# 6 0.000000 0.000000 0.000000 0.097562 0.000000 -0.069460
#
#
# Mechanical properties :
#
#
# Convention : Reuss Voigt Hill
#
# Bulk Modulus (GPa) = 21.42586 33.91990 27.67288
# Shear Modulus (GPa) = 462.40535 23.60529 243.00532
#
# Velocity S-wave (km/s) = 14.75064 3.33276 10.69319
# Velocity P-wave (km/s) = 17.32600 5.54711 12.86391
#
# Compressibility (1/GPa) = 0.04667256
#
# Stress axis : x y z
#
# Youngs Moduli (GPa) = 36.08545 35.49255 114.79740
#
# Poissons Ratio (x) = 0.02242 0.58445
# Poissons Ratio (y) = 0.02279 0.37193
# Poissons Ratio (z) = 0.18372 0.11499
#
# Static dielectric constant tensor:
#      x y z
#    x 1.812130 0.000000 0.048970 
#    y 0.000000 2.786220 0.000000 
#    z 0.048970 0.000000 1.894710 
# 
# From -- ./inp_files/56450.got.cif
#   From: 2010.05.17/outbox.cif.g08.bks.cpg/sg15_29_cif.got.tgz:56450.got - 2010.06.03 18:47:42.
