data_PCOD9303617
_publ_section_title
;
Structure prediction by ZEFSAII (Michael W. Deem and Ramdas Pophale) SiO2 
 PCOD9303617
Probable space group: C 2/C
;
_chemical_formula_sum "Si O2"
_cell_formula_units_Z 56
_cell_length_a 18.573088
_cell_length_b 8.907009
_cell_length_c 17.533718
_cell_angle_alpha 90.000000
_cell_angle_beta 69.999147
_cell_angle_gamma 90.000000
_cell_volume 2725.671343
_symmetry_space_group_name_H-M "C 2/C"
_symmetry_group_IT_number 15
_symmetry_cell_setting 'monoclinic'
loop_
_space_group_symop_operation_xyz
x,y,z
-x,y,1/2-z
-x,-y,-z
x,-y,1/2+z
1/2+x,1/2+y,z
1/2-x,1/2+y,1/2-z
1/2-x,1/2-y,-z
1/2+x,1/2-y,1/2+z
loop_
_atom_site_type_symbol
_atom_site_label
_atom_site_fract_x
_atom_site_fract_y
_atom_site_fract_z
Si Si1 0.223478 0.079159 0.515303
Si Si2 0.426636 0.630392 0.313786
Si Si3 0.998021 0.414811 0.581530
Si Si4 0.694232 0.557550 0.706364
Si Si5 0.447952 0.570657 0.952878
Si Si6 0.863295 0.434569 0.380401
Si Si7 0.338779 0.103223 0.229811
O O1 0.250000 0.250000 0.500000
O O2 0.209261 0.058765 0.610119
O O3 0.143574 0.060511 0.498996
O O4 0.290544 0.976147 0.458432
O O5 0.500000 0.708326 0.250000
O O6 0.383111 0.539654 0.263380
O O7 0.454477 0.519292 0.370654
O O8 0.371538 0.757103 0.367065
O O9 0.913478 0.411688 0.649126
O O10 0.000000 0.500000 0.500000
O O11 0.027872 0.243802 0.564300
O O12 0.059081 0.502493 0.611017
O O13 0.679716 0.723085 0.744399
O O14 0.765059 0.475276 0.719523
O O15 0.500000 0.500000 0.000000
O O16 0.853889 0.517259 0.303293
#
# Coordination Sequence:
#
# PCOD9303617 Si02
#       7
#     8   8   8   8   8   8   8
#     4  11  22  46  71  96 141 180 229 291 354 421
#     4  11  24  44  66  97 139 175 225 282 347 416
#     4  12  25  43  68  99 136 176 233 285 349 416
#     4  11  25  44  68 100 136 186 229 287 358 416
#     4  11  25  42  68  98 132 179 225 285 347 411
#     4  12  24  42  70  99 132 185 224 284 351 416
#     4  12  25  42  68  99 136 177 231 285 346 420
#
# _framework density 20.545399
#
# number of rings (size 3 to 8) (size 9 to 14) (size 15 to 20)
#    0.000    0.571    2.857    5.571    0.000    5.714 
#    0.000    0.000    0.000    0.000    0.000    0.000 
#    0.000    0.000    0.000    0.000    0.000    0.000 
#
# Total GULP energy -156624.664423 kJ/mol
# GULP energy per Si atom -5593.738015 kJ/mol
# Density = 2.049864 g / cm^3
# Si number density = 20.545399 Si / 1000 Ang^3
#
#
#
# Elastic Constant Matrix: (Units=GPa)
#
#
# Indices 1 2 3 4 5 6 
#
# 1 189.1701 65.2673 71.2473 0.0000 12.2903 0.0000
# 2 65.2673 130.2442 36.3741 0.0000 0.7841 0.0000
# 3 71.2473 36.3741 94.8142 0.0000 -16.7819 0.0000
# 4 0.0000 0.0000 0.0000 30.9676 0.0000 2.7565
# 5 12.2903 0.7841 -16.7819 0.0000 49.6628 0.0000
# 6 0.0000 0.0000 0.0000 2.7565 0.0000 44.5539
#
#
#
# Elastic Compliance Matrix: (Units=1/GPa)
#
#
# Indices 1 2 3 4 5 6 
#
# 1 0.008907 -0.002636 -0.006451 0.000000 -0.004343 0.000000
# 2 -0.002636 0.009463 -0.001660 0.000000 -0.000058 0.000000
# 3 -0.006451 -0.001660 0.017356 0.000000 0.007488 0.000000
# 4 0.000000 0.000000 0.000000 0.032471 0.000000 -0.002009
# 5 -0.004343 -0.000058 0.007488 0.000000 0.023742 0.000000
# 6 0.000000 0.000000 0.000000 -0.002009 0.000000 0.022569
#
#
# Mechanical properties :
#
#
# Convention : Reuss Voigt Hill
#
# Bulk Modulus (GPa) = 70.25656 84.44511 77.35083
# Shear Modulus (GPa) = 35.52525 41.12617 38.32571
#
# Velocity S-wave (km/s) = 4.16277 4.47891 4.32373
# Velocity P-wave (km/s) = 7.57462 8.24248 7.91560
#
# Compressibility (1/GPa) = 0.01423355
#
# Stress axis : x y z
#
# Youngs Moduli (GPa) = 112.26635 105.67860 57.61588
#
# Poissons Ratio (x) = 0.27856 0.37167
# Poissons Ratio (y) = 0.29593 0.09563
# Poissons Ratio (z) = 0.72420 0.17540
#
# Static dielectric constant tensor:
#      x y z
#    x 1.734640 0.000000 -0.020260 
#    y 0.000000 1.725370 0.000000 
#    z -0.020260 0.000000 1.705980 
# 
# From -- ./inp_files/209536.got.cif
#   From: 2010.05.17/outbox.cif.g08.bks.cpg/sg15_105_cif.got.tgz:209536.got - 2010.06.03 18:47:42.
