data_PCOD9303547
_publ_section_title
;
Structure prediction by ZEFSAII (Michael W. Deem and Ramdas Pophale) SiO2 
 PCOD9303547
Probable space group: C 2/C
;
_chemical_formula_sum "Si O2"
_cell_formula_units_Z 40
_cell_length_a 11.643313
_cell_length_b 10.628809
_cell_length_c 16.046100
_cell_angle_alpha 90.000000
_cell_angle_beta 115.681042
_cell_angle_gamma 90.000000
_cell_volume 1789.623661
_symmetry_space_group_name_H-M "C 2/C"
_symmetry_group_IT_number 15
_symmetry_cell_setting 'monoclinic'
loop_
_space_group_symop_operation_xyz
x,y,z
-x,y,1/2-z
-x,-y,-z
x,-y,1/2+z
1/2+x,1/2+y,z
1/2-x,1/2+y,1/2-z
1/2-x,1/2-y,-z
1/2+x,1/2-y,1/2+z
loop_
_atom_site_type_symbol
_atom_site_label
_atom_site_fract_x
_atom_site_fract_y
_atom_site_fract_z
Si Si1 0.004947 0.011167 0.602291
Si Si2 0.791336 0.805324 0.383174
Si Si3 0.107342 0.260794 0.180048
Si Si4 0.383536 0.092420 0.532367
Si Si5 0.746357 0.856422 0.068380
O O1 0.117891 0.112193 0.646793
O O2 0.877561 0.065318 0.604226
O O3 0.041656 0.873744 0.645818
O O4 0.000000 0.000000 0.500000
O O5 0.672737 0.762662 0.290109
O O6 0.735436 0.886076 0.442184
O O7 0.865307 0.691356 0.451036
O O8 0.215374 0.287286 0.144658
O O9 0.004363 0.368738 0.125942
O O10 0.366746 0.953695 0.490903
O O11 0.750000 0.750000 0.000000
#
# Coordination Sequence:
#
# PCOD9303547 Si02
#       5
#     8   8   8   8   8
#     4  12  22  48  71  95 149 186 230 307 363 424
#     4  11  24  43  71 104 136 189 240 292 359 437
#     4  12  26  43  72 108 138 185 248 293 355 442
#     4  11  22  45  70  98 144 187 229 297 368 423
#     4  12  24  44  74 101 137 192 237 295 374 425
#
# _framework density 22.351067
#
# number of rings (size 3 to 8) (size 9 to 14) (size 15 to 20)
#    0.000    0.400    6.000    2.400    2.800    0.800 
#    0.000    0.000    0.000    0.000    0.000    0.000 
#    0.000    0.000    0.000    0.000    0.000    0.000 
#
# Total GULP energy -111938.373094 kJ/mol
# GULP energy per Si atom -5596.918655 kJ/mol
# Density = 2.230019 g / cm^3
# Si number density = 22.351067 Si / 1000 Ang^3
#
#
#
# Elastic Constant Matrix: (Units=GPa)
#
#
# Indices 1 2 3 4 5 6 
#
# 1 109.2229 31.1795 5.9301 0.0000 -4.6534 0.0000
# 2 31.1795 90.1052 22.2941 0.0000 1.0553 0.0000
# 3 5.9301 22.2941 84.5775 0.0000 8.1151 0.0000
# 4 0.0000 0.0000 0.0000 24.1425 0.0000 6.9286
# 5 -4.6534 1.0553 8.1151 0.0000 41.0741 0.0000
# 6 0.0000 0.0000 0.0000 6.9286 0.0000 50.7356
#
#
#
# Elastic Compliance Matrix: (Units=1/GPa)
#
#
# Indices 1 2 3 4 5 6 
#
# 1 0.010224 -0.003579 0.000109 0.000000 0.001229 0.000000
# 2 -0.003579 0.013129 -0.003199 0.000000 -0.000111 0.000000
# 3 0.000109 -0.003199 0.012895 0.000000 -0.002453 0.000000
# 4 0.000000 0.000000 0.000000 0.043110 0.000000 -0.005887
# 5 0.001229 -0.000111 -0.002453 0.000000 0.024973 0.000000
# 6 0.000000 0.000000 0.000000 -0.005887 0.000000 0.020514
#
#
# Mechanical properties :
#
#
# Convention : Reuss Voigt Hill
#
# Bulk Modulus (GPa) = 43.65197 44.74588 44.19893
# Shear Modulus (GPa) = 34.28872 38.15723 36.22298
#
# Velocity S-wave (km/s) = 3.92101 4.13628 4.03008
# Velocity P-wave (km/s) = 6.33021 6.54789 6.43997
#
# Compressibility (1/GPa) = 0.02290847
#
# Stress axis : x y z
#
# Youngs Moduli (GPa) = 97.81158 76.16449 77.55222
#
# Poissons Ratio (x) = 0.27260 -0.00843
# Poissons Ratio (y) = 0.35007 0.24811
# Poissons Ratio (z) = -0.01063 0.24367
#
# Static dielectric constant tensor:
#      x y z
#    x 1.980570 0.000000 0.010490 
#    y 0.000000 1.726910 0.000000 
#    z 0.010490 0.000000 1.807390 
# 
# From -- ./inp_files/141749.got.cif
#   From: 2010.05.17/outbox.cif.g08.bks.cpg/sg15_71_cif.got.tgz:141749.got - 2010.06.03 18:47:42.
