data_PCOD9303035
_publ_section_title
;
Structure prediction by ZEFSAII (Michael W. Deem and Ramdas Pophale) SiO2 
 PCOD9303035
Probable space group: C 2/C
;
_chemical_formula_sum "Si O2"
_cell_formula_units_Z 56
_cell_length_a 12.835600
_cell_length_b 7.283814
_cell_length_c 30.900865
_cell_angle_alpha 90.000000
_cell_angle_beta 62.029724
_cell_angle_gamma 90.000000
_cell_volume 2551.527812
_symmetry_space_group_name_H-M "C 2/C"
_symmetry_group_IT_number 15
_symmetry_cell_setting 'monoclinic'
loop_
_space_group_symop_operation_xyz
x,y,z
-x,y,1/2-z
-x,-y,-z
x,-y,1/2+z
1/2+x,1/2+y,z
1/2-x,1/2+y,1/2-z
1/2-x,1/2-y,-z
1/2+x,1/2-y,1/2+z
loop_
_atom_site_type_symbol
_atom_site_label
_atom_site_fract_x
_atom_site_fract_y
_atom_site_fract_z
Si Si1 0.108580 0.356332 0.980678
Si Si2 0.732759 0.638340 0.698342
Si Si3 0.394750 0.954898 0.804784
Si Si4 0.989812 0.345104 0.370843
Si Si5 0.129892 0.054377 0.048296
Si Si6 0.292002 0.273655 0.197600
Si Si7 0.022546 0.709130 0.408982
O O1 0.229697 0.445971 0.973436
O O2 0.118513 0.294224 0.928658
O O3 0.093007 0.176490 0.013753
O O4 0.000000 0.500000 0.000000
O O5 0.651470 0.746992 0.680346
O O6 0.695571 0.705183 0.753476
O O7 0.727176 0.418613 0.699523
O O8 0.870644 0.684135 0.663712
O O9 0.500000 0.956393 0.750000
O O10 0.435124 0.065507 0.838759
O O11 0.285566 0.061137 0.804824
O O12 0.925923 0.165234 0.400400
O O13 0.976664 0.504093 0.409550
O O14 0.076081 0.852715 0.058132
O O15 0.414117 0.266397 0.147931
#
# Coordination Sequence:
#
# PCOD9303035 Si02
#       7
#     8   8   8   8   8   8   8
#     4  11  24  49  71 102 138 173 228 288 349 416
#     4  11  23  42  66  93 137 185 219 279 335 390
#     4  12  23  40  62  96 133 180 232 271 328 399
#     4  11  24  43  65 101 139 175 230 276 328 416
#     4  11  25  45  75 100 136 179 225 284 348 404
#     4  11  22  41  68  96 138 179 226 278 333 401
#     4  11  24  44  70 102 136 180 229 278 344 407
#
# _framework density 21.947634999999998
#
# number of rings (size 3 to 8) (size 9 to 14) (size 15 to 20)
#    0.000    0.857    4.286    3.000    0.000    4.571 
#    5.143    0.000    0.000    0.000    0.000    0.000 
#    0.000    0.000    0.000    0.000    0.000    0.000 
#
# Total GULP energy -156641.798444 kJ/mol
# GULP energy per Si atom -5594.349944 kJ/mol
# Density = 2.189768 g / cm^3
# Si number density = 21.947635 Si / 1000 Ang^3
#
#
#
# Elastic Constant Matrix: (Units=GPa)
#
#
# Indices 1 2 3 4 5 6 
#
# 1 65.7299 14.6103 15.6892 0.0000 10.2378 0.0000
# 2 14.6103 66.6473 10.6471 0.0000 -5.7406 0.0000
# 3 15.6892 10.6471 70.8089 0.0000 5.2821 0.0000
# 4 0.0000 0.0000 0.0000 37.1078 0.0000 -7.4819
# 5 10.2378 -5.7406 5.2821 0.0000 31.0847 0.0000
# 6 0.0000 0.0000 0.0000 -7.4819 0.0000 24.0824
#
#
#
# Elastic Compliance Matrix: (Units=1/GPa)
#
#
# Indices 1 2 3 4 5 6 
#
# 1 0.017726 -0.003949 -0.002880 0.000000 -0.006078 0.000000
# 2 -0.003949 0.016590 -0.001970 0.000000 0.004699 0.000000
# 3 -0.002880 -0.001970 0.015206 0.000000 -0.001999 0.000000
# 4 0.000000 0.000000 0.000000 0.028749 0.000000 0.008932
# 5 -0.006078 0.004699 -0.001999 0.000000 0.035379 0.000000
# 6 0.000000 0.000000 0.000000 0.008932 0.000000 0.044299
#
#
# Mechanical properties :
#
#
# Convention : Reuss Voigt Hill
#
# Bulk Modulus (GPa) = 31.32597 31.67549 31.50073
# Shear Modulus (GPa) = 26.85444 29.27094 28.06269
#
# Velocity S-wave (km/s) = 3.50175 3.65591 3.57966
# Velocity P-wave (km/s) = 5.53658 5.68195 5.60973
#
# Compressibility (1/GPa) = 0.03192240
#
# Stress axis : x y z
#
# Youngs Moduli (GPa) = 56.41503 60.27885 65.76330
#
# Poissons Ratio (x) = 0.23805 0.18942
# Poissons Ratio (y) = 0.22279 0.12955
# Poissons Ratio (z) = 0.16249 0.11875
#
# Static dielectric constant tensor:
#      x y z
#    x 1.777690 0.000000 0.033090 
#    y 0.000000 1.794580 0.000000 
#    z 0.033090 0.000000 1.855890 
# 
# From -- ./inp_files/310240.got.cif
#   From: 2010.05.17/outbox.cif.g08.bks.cpg/sg15_156_cif.got.tgz:310240.got - 2010.06.03 18:47:42.
