data_PCOD9303965
_publ_section_title
;
Structure prediction by ZEFSAII (Michael W. Deem and Ramdas Pophale) SiO2 
 PCOD9303965
Probable space group: C 2/C
;
_chemical_formula_sum "Si O2"
_cell_formula_units_Z 56
_cell_length_a 11.560461
_cell_length_b 10.346474
_cell_length_c 21.971551
_cell_angle_alpha 90.000000
_cell_angle_beta 119.399285
_cell_angle_gamma 90.000000
_cell_volume 2289.581168
_symmetry_space_group_name_H-M "C 2/C"
_symmetry_group_IT_number 15
_symmetry_cell_setting 'monoclinic'
loop_
_space_group_symop_operation_xyz
x,y,z
-x,y,1/2-z
-x,-y,-z
x,-y,1/2+z
1/2+x,1/2+y,z
1/2-x,1/2+y,1/2-z
1/2-x,1/2-y,-z
1/2+x,1/2-y,1/2+z
loop_
_atom_site_type_symbol
_atom_site_label
_atom_site_fract_x
_atom_site_fract_y
_atom_site_fract_z
Si Si1 0.574002 0.575086 0.830858
Si Si2 0.035535 0.168089 0.131631
Si Si3 0.897385 0.574058 0.555499
Si Si4 0.172016 0.457865 0.602312
Si Si5 0.765195 0.501389 0.137846
Si Si6 0.784599 0.243939 0.214089
Si Si7 0.013865 0.326473 0.689727
O O1 0.500000 0.523717 0.750000
O O2 0.544287 0.459616 0.870591
O O3 0.731197 0.576419 0.856275
O O4 0.540738 0.704936 0.862007
O O5 0.955036 0.282286 0.078775
O O6 0.156111 0.110354 0.122071
O O7 0.091023 0.230767 0.209502
O O8 0.027713 0.476942 0.597515
O O9 0.854487 0.549319 0.475721
O O10 0.777430 0.552877 0.572133
O O11 0.259007 0.334923 0.645633
O O12 0.756973 0.390807 0.187351
O O13 0.912863 0.561398 0.177583
O O14 0.669018 0.168052 0.221054
O O15 0.000000 0.246441 0.750000
#
# Coordination Sequence:
#
# PCOD9303965 Si02
#       7
#     8   8   8   8   8   8   8
#     4  11  23  43  71 105 142 186 240 307 366 424
#     4  12  26  42  71 115 143 187 252 301 365 443
#     4  11  28  48  74 102 150 202 242 299 372 448
#     4  11  25  51  70 102 150 196 244 303 371 439
#     4  12  26  45  72 107 143 195 244 302 370 438
#     4  12  25  41  74 109 144 186 247 309 365 433
#     4  11  23  41  67 104 149 187 236 310 365 430
#
# _framework density 24.458621999999998
#
# number of rings (size 3 to 8) (size 9 to 14) (size 15 to 20)
#    0.000    0.571    5.714    1.714    6.000    2.286 
#    2.571    3.571    0.000    0.000    0.000    0.000 
#    0.000    0.000    0.000    0.000    0.000    0.000 
#
# Total GULP energy -156026.099439 kJ/mol
# GULP energy per Si atom -5572.360694 kJ/mol
# Density = 2.440295 g / cm^3
# Si number density = 24.458622 Si / 1000 Ang^3
#
#
#
# Elastic Constant Matrix: (Units=GPa)
#
#
# Indices 1 2 3 4 5 6 
#
# 1 81.6906 -11.9638 27.7770 0.0000 -10.3465 0.0000
# 2 -11.9638 69.7769 -15.4390 0.0000 7.5619 0.0000
# 3 27.7770 -15.4390 40.6174 0.0000 4.5749 0.0000
# 4 0.0000 0.0000 0.0000 3.1214 0.0000 5.5958
# 5 -10.3465 7.5619 4.5749 0.0000 33.9821 0.0000
# 6 0.0000 0.0000 0.0000 5.5958 0.0000 40.5646
#
#
#
# Elastic Compliance Matrix: (Units=1/GPa)
#
#
# Indices 1 2 3 4 5 6 
#
# 1 0.017489 -0.000667 -0.013028 0.000000 0.007227 0.000000
# 2 -0.000667 0.016332 0.007206 0.000000 -0.004808 0.000000
# 3 -0.013028 0.007206 0.037463 0.000000 -0.010613 0.000000
# 4 0.000000 0.000000 0.000000 0.425632 0.000000 -0.058715
# 5 0.007227 -0.004808 -0.010613 0.000000 0.034126 0.000000
# 6 0.000000 0.000000 0.000000 -0.058715 0.000000 0.032752
#
#
# Mechanical properties :
#
#
# Convention : Reuss Voigt Hill
#
# Bulk Modulus (GPa) = 17.15064 21.42591 19.28827
# Shear Modulus (GPa) = 8.38634 28.31432 18.35033
#
# Velocity S-wave (km/s) = 1.85371 3.40610 2.74206
# Velocity P-wave (km/s) = 3.40719 4.92421 4.23419
#
# Compressibility (1/GPa) = 0.05830687
#
# Stress axis : x y z
#
# Youngs Moduli (GPa) = 57.18001 61.22795 26.69266
#
# Poissons Ratio (x) = 0.04085 0.34774
# Poissons Ratio (y) = 0.03815 -0.19234
# Poissons Ratio (z) = 0.74491 -0.44120
#
# Static dielectric constant tensor:
#      x y z
#    x 2.044310 0.000000 -0.136290 
#    y 0.000000 2.217380 0.000000 
#    z -0.136290 0.000000 2.074700 
# 
# From -- ./inp_files/237617.got.cif
#   From: 2010.05.17/outbox.cif.g08.bks.cpg/sg15_119_cif.got.tgz:237617.got - 2010.06.03 18:47:42.
