data_PCOD9303269
_publ_section_title
;
Structure prediction by ZEFSAII (Michael W. Deem and Ramdas Pophale) SiO2 
 PCOD9303269
Probable space group: C 2/C
;
_chemical_formula_sum "Si O2"
_cell_formula_units_Z 40
_cell_length_a 18.097795
_cell_length_b 6.762664
_cell_length_c 14.429131
_cell_angle_alpha 90.000000
_cell_angle_beta 115.057585
_cell_angle_gamma 90.000000
_cell_volume 1599.762670
_symmetry_space_group_name_H-M "C 2/C"
_symmetry_group_IT_number 15
_symmetry_cell_setting 'monoclinic'
loop_
_space_group_symop_operation_xyz
x,y,z
-x,y,1/2-z
-x,-y,-z
x,-y,1/2+z
1/2+x,1/2+y,z
1/2-x,1/2+y,1/2-z
1/2-x,1/2-y,-z
1/2+x,1/2-y,1/2+z
loop_
_atom_site_type_symbol
_atom_site_label
_atom_site_fract_x
_atom_site_fract_y
_atom_site_fract_z
Si Si1 0.198515 0.451880 0.983928
Si Si2 0.994179 0.574283 0.142340
Si Si3 0.808613 0.817308 0.652443
Si Si4 0.561988 0.483693 0.418040
Si Si5 0.087319 0.244788 0.113473
O O1 0.229239 0.548935 0.095743
O O2 0.250000 0.250000 0.000000
O O3 0.212076 0.607896 0.907267
O O4 0.101000 0.442089 0.933866
O O5 0.874987 0.065460 0.123726
O O6 0.000531 0.811771 0.147508
O O7 0.000000 0.493142 0.250000
O O8 0.061764 0.475533 0.113301
O O9 0.845462 0.796558 0.773151
O O10 0.503041 0.662041 0.410890
O O11 0.604910 0.387414 0.531562
#
# Coordination Sequence:
#
# PCOD9303269 Si02
#       5
#     8   8   8   8   8
#     4  11  23  39  67  95 130 177 227 275 344 414
#     4  12  21  40  68  95 130 179 225 275 343 410
#     4  11  22  43  66  93 137 180 219 281 348 406
#     4  11  23  38  67  99 134 171 229 281 333 409
#     4  11  23  41  64 102 132 174 224 284 341 402
#
# _framework density 25.003710000000002
#
# number of rings (size 3 to 8) (size 9 to 14) (size 15 to 20)
#    0.000    0.800    6.000    2.400    0.000    0.000 
#    0.000    4.000    0.000    0.000    0.000    0.000 
#    0.000    0.000    0.000    0.000    0.000    0.000 
#
# Total GULP energy -111659.518238 kJ/mol
# GULP energy per Si atom -5582.975912 kJ/mol
# Density = 2.494680 g / cm^3
# Si number density = 25.003710 Si / 1000 Ang^3
#
#
#
# Elastic Constant Matrix: (Units=GPa)
#
#
# Indices 1 2 3 4 5 6 
#
# 1 86.7573 17.8891 20.0779 0.0000 7.9228 0.0000
# 2 17.8891 125.4202 40.4335 0.0000 4.7413 0.0000
# 3 20.0779 40.4335 200.8952 0.0000 16.4167 0.0000
# 4 0.0000 0.0000 0.0000 35.3910 0.0000 11.0211
# 5 7.9228 4.7413 16.4167 0.0000 33.6911 0.0000
# 6 0.0000 0.0000 0.0000 11.0211 0.0000 33.7865
#
#
#
# Elastic Compliance Matrix: (Units=1/GPa)
#
#
# Indices 1 2 3 4 5 6 
#
# 1 0.012201 -0.001412 -0.000747 0.000000 -0.002307 0.000000
# 2 -0.001412 0.008695 -0.001600 0.000000 -0.000112 0.000000
# 3 -0.000747 -0.001600 0.005563 0.000000 -0.002310 0.000000
# 4 0.000000 0.000000 0.000000 0.031451 0.000000 -0.010259
# 5 -0.002307 -0.000112 -0.002310 0.000000 0.031365 0.000000
# 6 0.000000 0.000000 0.000000 -0.010259 0.000000 0.032944
#
#
# Mechanical properties :
#
#
# Convention : Reuss Voigt Hill
#
# Bulk Modulus (GPa) = 52.79432 63.31930 58.05681
# Shear Modulus (GPa) = 36.75125 42.88519 39.81822
#
# Velocity S-wave (km/s) = 3.83800 4.14593 3.99493
# Velocity P-wave (km/s) = 6.38755 6.94963 6.67450
#
# Compressibility (1/GPa) = 0.01894143
#
# Stress axis : x y z
#
# Youngs Moduli (GPa) = 81.95996 115.01418 179.75718
#
# Poissons Ratio (x) = 0.16244 0.13421
# Poissons Ratio (y) = 0.11576 0.28754
# Poissons Ratio (z) = 0.06119 0.18398
#
# Static dielectric constant tensor:
#      x y z
#    x 1.990090 0.000000 -0.069310 
#    y 0.000000 2.107730 0.000000 
#    z -0.069310 0.000000 2.035020 
# 
# From -- ./inp_files/217630.got.cif
#   From: 2010.05.17/outbox.cif.g08.bks.cpg/sg15_109_cif.got.tgz:217630.got - 2010.06.03 18:47:42.
