data_PCOD9303647
_publ_section_title
;
Structure prediction by ZEFSAII (Michael W. Deem and Ramdas Pophale) SiO2 
 PCOD9303647
Probable space group: C 2/C
;
_chemical_formula_sum "Si O2"
_cell_formula_units_Z 56
_cell_length_a 11.727983
_cell_length_b 8.952645
_cell_length_c 26.332904
_cell_angle_alpha 90.000000
_cell_angle_beta 65.209225
_cell_angle_gamma 90.000000
_cell_volume 2510.066075
_symmetry_space_group_name_H-M "C 2/C"
_symmetry_group_IT_number 15
_symmetry_cell_setting 'monoclinic'
loop_
_space_group_symop_operation_xyz
x,y,z
-x,y,1/2-z
-x,-y,-z
x,-y,1/2+z
1/2+x,1/2+y,z
1/2-x,1/2+y,1/2-z
1/2-x,1/2-y,-z
1/2+x,1/2-y,1/2+z
loop_
_atom_site_type_symbol
_atom_site_label
_atom_site_fract_x
_atom_site_fract_y
_atom_site_fract_z
Si Si1 0.613359 0.906547 0.151683
Si Si2 0.300970 0.715717 0.700935
Si Si3 0.413101 0.763678 0.883927
Si Si4 0.661390 0.054871 0.808589
Si Si5 0.829688 0.385469 0.082091
Si Si6 0.258091 0.201320 0.056491
Si Si7 0.479857 0.334283 0.481418
O O1 0.716676 0.881020 0.177029
O O2 0.469559 0.919156 0.197184
O O3 0.640537 0.764168 0.109902
O O4 0.623591 0.062182 0.117922
O O5 0.450201 0.716111 0.661790
O O6 0.261305 0.662736 0.764061
O O7 0.275383 0.892279 0.702925
O O8 0.302444 0.681238 0.875965
O O9 0.406333 0.702805 0.943177
O O10 0.611483 0.071451 0.875473
O O11 0.793486 0.528967 0.055673
O O12 0.914537 0.269525 0.035819
O O13 0.379826 0.281416 0.056607
O O14 0.250000 0.250000 0.000000
O O15 0.500000 0.500000 0.500000
#
# Coordination Sequence:
#
# PCOD9303647 Si02
#       7
#     8   8   8   8   8   8   8
#     4  11  22  47  69  98 138 180 236 288 363 418
#     4  11  25  48  71  99 139 183 239 289 363 419
#     4  11  25  44  69 101 140 185 234 289 352 437
#     4  11  26  45  71 102 137 186 235 300 353 428
#     4  12  25  43  65 107 139 178 241 285 357 431
#     4  12  22  40  69 100 137 180 226 292 351 421
#     4  12  24  43  68 100 144 187 232 289 356 427
#
# _framework density 22.310168000000001
#
# number of rings (size 3 to 8) (size 9 to 14) (size 15 to 20)
#    0.000    0.571    2.857    5.571    2.000    1.714 
#    2.571    0.000    0.000    0.000    0.000    0.000 
#    0.000    0.000    0.000    0.000    0.000    0.000 
#
# Total GULP energy -156219.791141 kJ/mol
# GULP energy per Si atom -5579.278255 kJ/mol
# Density = 2.225939 g / cm^3
# Si number density = 22.310168 Si / 1000 Ang^3
#
#
#
# Elastic Constant Matrix: (Units=GPa)
#
#
# Indices 1 2 3 4 5 6 
#
# 1 80.9531 38.1359 11.4816 0.0000 5.9781 0.0000
# 2 38.1359 148.6195 43.8809 0.0000 -13.8460 0.0000
# 3 11.4816 43.8809 101.1871 0.0000 3.7361 0.0000
# 4 0.0000 0.0000 0.0000 31.7809 0.0000 -3.5170
# 5 5.9781 -13.8460 3.7361 0.0000 27.0584 0.0000
# 6 0.0000 0.0000 0.0000 -3.5170 0.0000 38.4226
#
#
#
# Elastic Compliance Matrix: (Units=1/GPa)
#
#
# Indices 1 2 3 4 5 6 
#
# 1 0.014802 -0.004457 0.000461 0.000000 -0.005615 0.000000
# 2 -0.004457 0.009627 -0.003907 0.000000 0.006450 0.000000
# 3 0.000461 -0.003907 0.011662 0.000000 -0.003711 0.000000
# 4 0.000000 0.000000 0.000000 0.031787 0.000000 0.002910
# 5 -0.005615 0.006450 -0.003711 0.000000 0.042011 0.000000
# 6 0.000000 0.000000 0.000000 0.002910 0.000000 0.026293
#
#
# Mechanical properties :
#
#
# Convention : Reuss Voigt Hill
#
# Bulk Modulus (GPa) = 49.30226 57.52849 53.41538
# Shear Modulus (GPa) = 31.49606 35.26982 33.38294
#
# Velocity S-wave (km/s) = 3.76138 3.98035 3.87241
# Velocity P-wave (km/s) = 6.40395 6.85317 6.63236
#
# Compressibility (1/GPa) = 0.02028304
#
# Stress axis : x y z
#
# Youngs Moduli (GPa) = 67.55894 103.87543 85.74970
#
# Poissons Ratio (x) = 0.46300 -0.03951
# Poissons Ratio (y) = 0.30113 0.33504
# Poissons Ratio (z) = -0.03112 0.40586
#
# Static dielectric constant tensor:
#      x y z
#    x 2.025620 0.000000 0.109770 
#    y 0.000000 1.873400 0.000000 
#    z 0.109770 0.000000 1.940540 
# 
# From -- ./inp_files/291512.got.cif
#   From: 2010.05.17/outbox.cif.g08.bks.cpg/sg15_146_cif.got.tgz:291512.got - 2010.06.03 18:47:42.
