data_PCOD9303128
_publ_section_title
;
Structure prediction by ZEFSAII (Michael W. Deem and Ramdas Pophale) SiO2 
 PCOD9303128
Probable space group: C 2/C
;
_chemical_formula_sum "Si O2"
_cell_formula_units_Z 48
_cell_length_a 4.877728
_cell_length_b 18.977554
_cell_length_c 22.232510
_cell_angle_alpha 90.000000
_cell_angle_beta 71.951136
_cell_angle_gamma 90.000000
_cell_volume 1956.735469
_symmetry_space_group_name_H-M "C 2/C"
_symmetry_group_IT_number 15
_symmetry_cell_setting 'monoclinic'
loop_
_space_group_symop_operation_xyz
x,y,z
-x,y,1/2-z
-x,-y,-z
x,-y,1/2+z
1/2+x,1/2+y,z
1/2-x,1/2+y,1/2-z
1/2-x,1/2-y,-z
1/2+x,1/2-y,1/2+z
loop_
_atom_site_type_symbol
_atom_site_label
_atom_site_fract_x
_atom_site_fract_y
_atom_site_fract_z
Si Si1 0.827611 0.355312 0.704910
Si Si2 0.020470 0.246931 0.435851
Si Si3 0.183209 0.719250 0.677565
Si Si4 0.617944 0.401765 0.969559
Si Si5 0.932278 0.392226 0.407865
Si Si6 0.688033 0.039949 0.405749
O O1 0.500000 0.349137 0.750000
O O2 0.927794 0.274432 0.682863
O O3 0.000000 0.382780 0.750000
O O4 0.841467 0.408239 0.648882
O O5 0.750000 0.250000 0.500000
O O6 0.926439 0.235216 0.373124
O O7 0.187191 0.179603 0.448771
O O8 0.119328 0.328103 0.425560
O O9 0.187921 0.643342 0.645359
O O10 0.000000 0.707802 0.750000
O O11 0.914013 0.438875 0.966209
O O12 0.480279 0.441252 0.920782
O O13 0.357263 0.405109 0.034200
O O14 0.128340 0.460550 0.389374
#
# Coordination Sequence:
#
# PCOD9303128 Si02
#       6
#     8   8   8   8   8   8
#     4  11  24  42  65  93 123 171 223 263 315 392
#     4   8  17  39  65  91 128 168 218 262 317 380
#     4   9  19  39  66  89 130 166 220 261 328 377
#     4  11  22  42  66  98 127 171 214 263 321 390
#     4   9  21  39  64  98 132 164 211 270 328 381
#     4  12  23  41  67  94 131 168 212 269 324 381
#
# _framework density 24.530656
#
# number of rings (size 3 to 8) (size 9 to 14) (size 15 to 20)
#    1.000    1.000    1.667    2.000    2.333    0.667 
#    0.000   23.333    0.000    4.000    0.000    0.000 
#    0.000    0.000    0.000    0.000    0.000    0.000 
#
# Total GULP energy -133986.329035 kJ/mol
# GULP energy per Si atom -5582.763710 kJ/mol
# Density = 2.447482 g / cm^3
# Si number density = 24.530656 Si / 1000 Ang^3
#
#
#
# Elastic Constant Matrix: (Units=GPa)
#
#
# Indices 1 2 3 4 5 6 
#
# 1 92.7733 20.2602 20.8299 0.0000 3.3225 0.0000
# 2 20.2602 198.6536 32.6554 0.0000 -5.5184 0.0000
# 3 20.8299 32.6554 154.4226 0.0000 5.4057 0.0000
# 4 0.0000 0.0000 0.0000 65.2763 0.0000 0.4879
# 5 3.3225 -5.5184 5.4057 0.0000 24.9014 0.0000
# 6 0.0000 0.0000 0.0000 0.4879 0.0000 19.9300
#
#
#
# Elastic Compliance Matrix: (Units=1/GPa)
#
#
# Indices 1 2 3 4 5 6 
#
# 1 0.011332 -0.000988 -0.001269 0.000000 -0.001455 0.000000
# 2 -0.000988 0.005351 -0.001052 0.000000 0.001546 0.000000
# 3 -0.001269 -0.001052 0.006924 0.000000 -0.001567 0.000000
# 4 0.000000 0.000000 0.000000 0.015322 0.000000 -0.000375
# 5 -0.001455 0.001546 -0.001567 0.000000 0.041035 0.000000
# 6 0.000000 0.000000 0.000000 -0.000375 0.000000 0.050185
#
#
# Mechanical properties :
#
#
# Convention : Reuss Voigt Hill
#
# Bulk Modulus (GPa) = 58.86122 65.92674 62.39398
# Shear Modulus (GPa) = 35.10511 46.82845 40.96678
#
# Velocity S-wave (km/s) = 3.78705 4.37392 4.09103
# Velocity P-wave (km/s) = 6.57034 7.24168 6.91416
#
# Compressibility (1/GPa) = 0.01698911
#
# Stress axis : x y z
#
# Youngs Moduli (GPa) = 88.24870 186.89691 144.41952
#
# Poissons Ratio (x) = 0.18457 0.18323
# Poissons Ratio (y) = 0.08715 0.15198
# Poissons Ratio (z) = 0.11196 0.19669
#
# Static dielectric constant tensor:
#      x y z
#    x 1.995070 0.000000 -0.005020 
#    y 0.000000 2.002900 0.000000 
#    z -0.005020 0.000000 1.968210 
# 
# From -- ./inp_files/260704.got.cif
#   From: 2010.05.17/outbox.cif.g08.bks.cpg/sg15_131_cif.got.tgz:260704.got - 2010.06.03 18:47:42.
