data_PCOD9303288
_publ_section_title
;
Structure prediction by ZEFSAII (Michael W. Deem and Ramdas Pophale) SiO2 
 PCOD9303288
Probable space group: C 2/C
;
_chemical_formula_sum "Si O2"
_cell_formula_units_Z 56
_cell_length_a 11.428708
_cell_length_b 8.894030
_cell_length_c 29.108199
_cell_angle_alpha 90.000000
_cell_angle_beta 109.116795
_cell_angle_gamma 90.000000
_cell_volume 2795.601647
_symmetry_space_group_name_H-M "C 2/C"
_symmetry_group_IT_number 15
_symmetry_cell_setting 'monoclinic'
loop_
_space_group_symop_operation_xyz
x,y,z
-x,y,1/2-z
-x,-y,-z
x,-y,1/2+z
1/2+x,1/2+y,z
1/2-x,1/2+y,1/2-z
1/2-x,1/2-y,-z
1/2+x,1/2-y,1/2+z
loop_
_atom_site_type_symbol
_atom_site_label
_atom_site_fract_x
_atom_site_fract_y
_atom_site_fract_z
Si Si1 0.325435 0.266702 0.853832
Si Si2 0.989851 0.732857 0.697383
Si Si3 0.458777 0.227854 0.406592
Si Si4 0.281911 0.564008 0.142396
Si Si5 0.950407 0.942022 0.579040
Si Si6 0.347940 0.990263 0.616490
Si Si7 0.337237 0.339639 0.476252
O O1 0.379439 0.274143 0.809248
O O2 0.269456 0.102337 0.855785
O O3 0.447567 0.312659 0.899390
O O4 0.223246 0.386171 0.856095
O O5 0.926966 0.612045 0.654992
O O6 0.000000 0.673211 0.750000
O O7 0.899063 0.877819 0.686356
O O8 0.494291 0.397961 0.398963
O O9 0.427156 0.235737 0.456919
O O10 0.332892 0.175650 0.366027
O O11 0.564458 0.113509 0.404035
O O12 0.332938 0.579898 0.096978
O O13 0.911051 0.943924 0.521350
O O14 0.247109 0.069411 0.570662
O O15 0.250000 0.250000 0.500000
#
# Coordination Sequence:
#
# PCOD9303288 Si02
#       7
#     8   8   8   8   8   8   8
#     4  11  23  43  70  96 131 169 215 267 330 389
#     4  11  25  46  71  96 127 165 215 276 337 395
#     4  12  23  40  66  90 132 176 217 263 318 377
#     4  11  22  43  68  95 129 170 216 269 323 383
#     4  11  23  41  64  95 133 180 217 263 314 381
#     4  12  25  43  67  96 132 178 215 270 329 383
#     4  12  24  41  62  96 139 176 225 264 312 378
#
# _framework density 20.031466999999999
#
# number of rings (size 3 to 8) (size 9 to 14) (size 15 to 20)
#    0.000    0.571    7.143    1.286    0.000    3.429 
#    0.000    0.714    0.000    0.000    0.000    0.000 
#    0.000    0.000    0.000    0.000    0.000    0.000 
#
# Total GULP energy -156345.597567 kJ/mol
# GULP energy per Si atom -5583.771342 kJ/mol
# Density = 1.998587 g / cm^3
# Si number density = 20.031467 Si / 1000 Ang^3
#
#
#
# Elastic Constant Matrix: (Units=GPa)
#
#
# Indices 1 2 3 4 5 6 
#
# 1 138.7037 57.2850 29.5789 0.0000 -23.1838 0.0000
# 2 57.2850 126.4582 32.1629 0.0000 -0.3457 0.0000
# 3 29.5789 32.1629 79.1264 0.0000 -18.6640 0.0000
# 4 0.0000 0.0000 0.0000 12.0106 0.0000 -1.9948
# 5 -23.1838 -0.3457 -18.6640 0.0000 20.9048 0.0000
# 6 0.0000 0.0000 0.0000 -1.9948 0.0000 48.3555
#
#
#
# Elastic Compliance Matrix: (Units=1/GPa)
#
#
# Indices 1 2 3 4 5 6 
#
# 1 0.011515 -0.005472 0.001154 0.000000 0.013710 0.000000
# 2 -0.005472 0.011674 -0.005176 0.000000 -0.010497 0.000000
# 3 0.001154 -0.005176 0.018485 0.000000 0.017697 0.000000
# 4 0.000000 0.000000 0.000000 0.083834 0.000000 0.003458
# 5 0.013710 -0.010497 0.017697 0.000000 0.078667 0.000000
# 6 0.000000 0.000000 0.000000 0.003458 0.000000 0.020823
#
#
# Mechanical properties :
#
#
# Convention : Reuss Voigt Hill
#
# Bulk Modulus (GPa) = 44.08014 64.70468 54.39241
# Shear Modulus (GPa) = 19.87683 31.27161 25.57422
#
# Velocity S-wave (km/s) = 3.15347 3.95539 3.57697
# Velocity P-wave (km/s) = 5.94242 7.29601 6.65373
#
# Compressibility (1/GPa) = 0.02268595
#
# Stress axis : x y z
#
# Youngs Moduli (GPa) = 86.84113 85.65811 54.09833
#
# Poissons Ratio (x) = 0.46875 -0.06241
# Poissons Ratio (y) = 0.47522 0.27999
# Poissons Ratio (z) = -0.10018 0.44333
#
# Static dielectric constant tensor:
#      x y z
#    x 1.750310 0.000000 0.009970 
#    y 0.000000 1.726380 0.000000 
#    z 0.009970 0.000000 1.704690 
# 
# From -- ./inp_files/310059.got.cif
#   From: 2010.05.17/outbox.cif.g08.bks.cpg/sg15_156_cif.got.tgz:310059.got - 2010.06.03 18:47:42.
