data_PCOD9303891
_publ_section_title
;
Structure prediction by ZEFSAII (Michael W. Deem and Ramdas Pophale) SiO2 
 PCOD9303891
Probable space group: C 2/C
;
_chemical_formula_sum "Si O2"
_cell_formula_units_Z 60
_cell_length_a 8.453837
_cell_length_b 13.550142
_cell_length_c 21.067818
_cell_angle_alpha 90.000000
_cell_angle_beta 74.767135
_cell_angle_gamma 90.000000
_cell_volume 2328.542944
_symmetry_space_group_name_H-M "C 2/C"
_symmetry_group_IT_number 15
_symmetry_cell_setting 'monoclinic'
loop_
_space_group_symop_operation_xyz
x,y,z
-x,y,1/2-z
-x,-y,-z
x,-y,1/2+z
1/2+x,1/2+y,z
1/2-x,1/2+y,1/2-z
1/2-x,1/2-y,-z
1/2+x,1/2-y,1/2+z
loop_
_atom_site_type_symbol
_atom_site_label
_atom_site_fract_x
_atom_site_fract_y
_atom_site_fract_z
Si Si1 0.140953 0.920519 0.107152
Si Si2 0.750000 0.750000 0.500000
Si Si3 0.106051 0.084231 0.413259
Si Si4 0.443927 0.221130 0.985655
Si Si5 0.328107 0.366262 0.207260
Si Si6 0.365769 0.071821 0.886503
Si Si7 0.330349 0.683823 0.229137
Si Si8 0.330351 0.021553 0.194416
O O1 0.217758 0.836017 0.056512
O O2 0.261832 0.990246 0.133755
O O3 0.034450 0.001991 0.079814
O O4 0.018807 0.868038 0.170993
O O5 0.553826 0.802796 0.535160
O O6 0.057010 0.179713 0.459525
O O7 0.254381 0.017842 0.422908
O O8 0.146870 0.136371 0.341986
O O9 0.447810 0.136663 0.931969
O O10 0.250000 0.250000 0.000000
O O11 0.244730 0.358223 0.146536
O O12 0.229507 0.295636 0.264824
O O13 0.288622 0.472639 0.241029
O O14 0.490963 0.022347 0.824523
O O15 0.500000 0.674950 0.250000
O O16 0.187353 0.634558 0.286444
#
# Coordination Sequence:
#
# PCOD9303891 Si02
#       8
#     8   4   8   8   8   8   8   8
#     4  11  24  47  70 102 148 194 250 322 372 455
#     4  12  28  50  78 104 144 206 272 314 386 452
#     4  11  25  47  74 110 148 197 256 312 399 476
#     4  12  27  52  78 105 148 204 262 324 385 449
#     4  11  23  40  70 104 149 194 241 313 389 475
#     4  11  24  44  70 106 151 192 248 325 382 468
#     4  12  22  38  70 107 145 194 236 299 397 480
#     4  12  21  43  66 108 151 187 241 305 392 462
#
# _framework density 25.767185000000001
#
# number of rings (size 3 to 8) (size 9 to 14) (size 15 to 20)
#    0.000    0.533    5.333    4.800    0.000    3.200 
#    4.800    1.333    0.000    0.000    0.000    0.000 
#    0.000    0.000    0.000    0.000    0.000    0.000 
#
# Total GULP energy -167270.113912 kJ/mol
# GULP energy per Si atom -5575.670464 kJ/mol
# Density = 2.570854 g / cm^3
# Si number density = 25.767185 Si / 1000 Ang^3
#
#
#
# Elastic Constant Matrix: (Units=GPa)
#
#
# Indices 1 2 3 4 5 6 
#
# 1 85.5536 6.4101 2.8963 0.0000 7.4442 0.0000
# 2 6.4101 67.5941 17.4441 0.0000 -1.0921 0.0000
# 3 2.8963 17.4441 50.1857 0.0000 -9.8835 0.0000
# 4 0.0000 0.0000 0.0000 46.1153 0.0000 -9.6400
# 5 7.4442 -1.0921 -9.8835 0.0000 49.9226 0.0000
# 6 0.0000 0.0000 0.0000 -9.6400 0.0000 45.1856
#
#
#
# Elastic Compliance Matrix: (Units=1/GPa)
#
#
# Indices 1 2 3 4 5 6 
#
# 1 0.011956 -0.000976 -0.000735 0.000000 -0.001950 0.000000
# 2 -0.000976 0.016362 -0.005756 0.000000 -0.000636 0.000000
# 3 -0.000735 -0.005756 0.022857 0.000000 0.004509 0.000000
# 4 0.000000 0.000000 0.000000 0.022697 0.000000 0.004842
# 5 -0.001950 -0.000636 0.004509 0.000000 0.021200 0.000000
# 6 0.000000 0.000000 0.000000 0.004842 0.000000 0.023164
#
#
# Mechanical properties :
#
#
# Convention : Reuss Voigt Hill
#
# Bulk Modulus (GPa) = 27.59245 28.53715 28.06480
# Shear Modulus (GPa) = 34.42316 40.01688 37.22002
#
# Velocity S-wave (km/s) = 3.65900 3.94511 3.80475
# Velocity P-wave (km/s) = 5.34628 5.64366 5.49698
#
# Compressibility (1/GPa) = 0.03624180
#
# Stress axis : x y z
#
# Youngs Moduli (GPa) = 83.63857 61.11734 43.74992
#
# Poissons Ratio (x) = 0.05963 0.03215
# Poissons Ratio (y) = 0.08161 0.25184
# Poissons Ratio (z) = 0.06146 0.35181
#
# Static dielectric constant tensor:
#      x y z
#    x 1.922680 0.000000 -0.129060 
#    y 0.000000 1.883770 0.000000 
#    z -0.129060 0.000000 1.951130 
# 
# From -- ./inp_files/264295.got.cif
#   From: 2010.05.17/outbox.cif.g08.bks.cpg/sg15_133_cif.got.tgz:264295.got - 2010.06.03 18:47:42.
