data_PCOD9303563
_publ_section_title
;
Structure prediction by ZEFSAII (Michael W. Deem and Ramdas Pophale) SiO2 
 PCOD9303563
Probable space group: C 2/C
;
_chemical_formula_sum "Si O2"
_cell_formula_units_Z 40
_cell_length_a 10.581943
_cell_length_b 14.325485
_cell_length_c 11.916680
_cell_angle_alpha 90.000000
_cell_angle_beta 72.345031
_cell_angle_gamma 90.000000
_cell_volume 1721.382643
_symmetry_space_group_name_H-M "C 2/C"
_symmetry_group_IT_number 15
_symmetry_cell_setting 'monoclinic'
loop_
_space_group_symop_operation_xyz
x,y,z
-x,y,1/2-z
-x,-y,-z
x,-y,1/2+z
1/2+x,1/2+y,z
1/2-x,1/2+y,1/2-z
1/2-x,1/2-y,-z
1/2+x,1/2-y,1/2+z
loop_
_atom_site_type_symbol
_atom_site_label
_atom_site_fract_x
_atom_site_fract_y
_atom_site_fract_z
Si Si1 0.469632 0.399223 0.561778
Si Si2 0.132599 0.529660 0.028660
Si Si3 0.685009 0.151840 0.218482
Si Si4 0.622051 0.356000 0.143417
Si Si5 0.747006 0.351242 0.552032
O O1 0.500000 0.500000 0.500000
O O2 0.332029 0.389673 0.661133
O O3 0.446094 0.334336 0.458418
O O4 0.592008 0.373015 0.605388
O O5 0.248038 0.580764 0.921364
O O6 0.197236 0.430737 0.045418
O O7 0.107955 0.593887 0.143413
O O8 0.000000 0.500000 0.000000
O O9 0.668840 0.260255 0.188650
O O10 0.670893 0.144172 0.355330
O O11 0.500000 0.397712 0.250000
O O12 0.750000 0.250000 0.500000
#
# Coordination Sequence:
#
# PCOD9303563 Si02
#       5
#     8   8   8   8   8
#     4  11  22  45  72 103 144 192 255 308 372 454
#     4  11  27  48  75 106 157 196 251 312 388 462
#     4  11  26  47  74 106 151 201 246 318 378 452
#     4  11  25  46  80 104 143 203 259 306 386 458
#     4  12  27  44  72 110 149 189 257 311 379 458
#
# _framework density 23.237136
#
# number of rings (size 3 to 8) (size 9 to 14) (size 15 to 20)
#    0.000    0.800    4.000    4.200   11.200    1.600 
#    0.000    0.000    0.000    0.000    0.000    0.000 
#    0.000    0.000    0.000    0.000    0.000    0.000 
#
# Total GULP energy -111699.012872 kJ/mol
# GULP energy per Si atom -5584.950644 kJ/mol
# Density = 2.318425 g / cm^3
# Si number density = 23.237136 Si / 1000 Ang^3
#
#
#
# Elastic Constant Matrix: (Units=GPa)
#
#
# Indices 1 2 3 4 5 6 
#
# 1 178.5936 48.0610 44.3936 0.0000 14.9423 0.0000
# 2 48.0610 143.3981 39.4155 0.0000 -5.2616 0.0000
# 3 44.3936 39.4155 115.7322 0.0000 5.4857 0.0000
# 4 0.0000 0.0000 0.0000 21.2056 0.0000 4.9360
# 5 14.9423 -5.2616 5.4857 0.0000 46.1488 0.0000
# 6 0.0000 0.0000 0.0000 4.9360 0.0000 30.9023
#
#
#
# Elastic Compliance Matrix: (Units=1/GPa)
#
#
# Indices 1 2 3 4 5 6 
#
# 1 0.006734 -0.001826 -0.001859 0.000000 -0.002168 0.000000
# 2 -0.001826 0.008255 -0.002196 0.000000 0.001793 0.000000
# 3 -0.001859 -0.002196 0.010142 0.000000 -0.000854 0.000000
# 4 0.000000 0.000000 0.000000 0.048978 0.000000 -0.007823
# 5 -0.002168 0.001793 -0.000854 0.000000 0.022677 0.000000
# 6 0.000000 0.000000 0.000000 -0.007823 0.000000 0.033610
#
#
# Mechanical properties :
#
#
# Convention : Reuss Voigt Hill
#
# Bulk Modulus (GPa) = 74.79306 77.94047 76.36676
# Shear Modulus (GPa) = 34.10338 40.04160 37.07249
#
# Velocity S-wave (km/s) = 3.83511 4.15561 3.99858
# Velocity P-wave (km/s) = 7.20191 7.52593 7.36570
#
# Compressibility (1/GPa) = 0.01337023
#
# Stress axis : x y z
#
# Youngs Moduli (GPa) = 148.50167 121.14011 98.59989
#
# Poissons Ratio (x) = 0.22115 0.18325
# Poissons Ratio (y) = 0.27110 0.21654
# Poissons Ratio (z) = 0.27600 0.26604
#
# Static dielectric constant tensor:
#      x y z
#    x 1.931920 0.000000 -0.031220 
#    y 0.000000 2.384690 0.000000 
#    z -0.031220 0.000000 1.909070 
# 
# From -- ./inp_files/85511.got.cif
#   From: 2010.05.17/outbox.cif.g08.bks.cpg/sg15_43_cif.got.tgz:85511.got - 2010.06.03 18:47:42.
