data_PCOD9303718
_publ_section_title
;
Structure prediction by ZEFSAII (Michael W. Deem and Ramdas Pophale) SiO2 
 PCOD9303718
Probable space group: C 2/C
;
_chemical_formula_sum "Si O2"
_cell_formula_units_Z 56
_cell_length_a 22.448956
_cell_length_b 11.672761
_cell_length_c 10.006347
_cell_angle_alpha 90.000000
_cell_angle_beta 118.847423
_cell_angle_gamma 90.000000
_cell_volume 2296.696534
_symmetry_space_group_name_H-M "C 2/C"
_symmetry_group_IT_number 15
_symmetry_cell_setting 'monoclinic'
loop_
_space_group_symop_operation_xyz
x,y,z
-x,y,1/2-z
-x,-y,-z
x,-y,1/2+z
1/2+x,1/2+y,z
1/2-x,1/2+y,1/2-z
1/2-x,1/2-y,-z
1/2+x,1/2-y,1/2+z
loop_
_atom_site_type_symbol
_atom_site_label
_atom_site_fract_x
_atom_site_fract_y
_atom_site_fract_z
Si Si1 0.100073 0.787034 0.440939
Si Si2 0.456787 0.535309 0.080768
Si Si3 0.266080 0.406834 0.973506
Si Si4 0.105926 0.351013 0.198713
Si Si5 0.870084 0.255123 0.985695
Si Si6 0.894970 0.397300 0.768749
Si Si7 0.241843 0.885730 0.223665
O O1 0.074112 0.916244 0.398495
O O2 0.182684 0.807661 0.521767
O O3 0.074872 0.731845 0.553174
O O4 0.077775 0.700551 0.300437
O O5 0.500000 0.584570 0.250000
O O6 0.500000 0.500000 0.000000
O O7 0.406348 0.636783 0.986453
O O8 0.185426 0.397251 0.858885
O O9 0.284027 0.519756 0.909473
O O10 0.276687 0.416130 0.144269
O O11 0.120896 0.283896 0.350613
O O12 0.075268 0.474579 0.205080
O O13 0.177462 0.383969 0.206496
O O14 0.899134 0.354900 0.924980
O O15 0.791971 0.233098 0.859800
#
# Coordination Sequence:
#
# PCOD9303718 Si02
#       7
#     8   8   8   8   8   8   8
#     4  12  22  44  70  89 140 182 222 287 346 393
#     4  12  28  48  73 103 126 171 241 301 348 381
#     4  11  23  37  64 100 144 182 225 265 335 420
#     4  11  25  38  65 103 137 181 220 264 336 428
#     4  12  24  43  68  93 140 177 227 290 339 400
#     4  11  23  41  64  99 140 184 216 264 335 432
#     4  11  23  38  62 102 143 181 226 267 332 420
#
# _framework density 24.382847000000002
#
# number of rings (size 3 to 8) (size 9 to 14) (size 15 to 20)
#    0.000    0.571    4.286    4.286    8.000    0.000 
#    0.000    0.000    0.000   17.143    0.000    0.000 
#    0.000    0.000    0.000    0.000    0.000    0.000 
#
# Total GULP energy -156695.385168 kJ/mol
# GULP energy per Si atom -5596.263756 kJ/mol
# Density = 2.432735 g / cm^3
# Si number density = 24.382847 Si / 1000 Ang^3
#
#
#
# Elastic Constant Matrix: (Units=GPa)
#
#
# Indices 1 2 3 4 5 6 
#
# 1 48.7153 8.3282 15.5248 0.0000 -8.4229 0.0000
# 2 8.3282 96.9215 6.3632 0.0000 -12.2358 0.0000
# 3 15.5248 6.3632 124.3508 0.0000 -42.5001 0.0000
# 4 0.0000 0.0000 0.0000 46.3165 0.0000 -12.0482
# 5 -8.4229 -12.2358 -42.5001 0.0000 38.3154 0.0000
# 6 0.0000 0.0000 0.0000 -12.0482 0.0000 12.1724
#
#
#
# Elastic Compliance Matrix: (Units=1/GPa)
#
#
# Indices 1 2 3 4 5 6 
#
# 1 0.021763 -0.001465 -0.001879 0.000000 0.002232 0.000000
# 2 -0.001465 0.010928 0.001138 0.000000 0.004430 0.000000
# 3 -0.001879 0.001138 0.013209 0.000000 0.014601 0.000000
# 4 0.000000 0.000000 0.000000 0.029077 0.000000 0.028781
# 5 0.002232 0.004430 0.014601 0.000000 0.044200 0.000000
# 6 0.000000 0.000000 0.000000 0.028781 0.000000 0.110640
#
#
# Mechanical properties :
#
#
# Convention : Reuss Voigt Hill
#
# Bulk Modulus (GPa) = 24.10440 36.71332 30.40886
# Shear Modulus (GPa) = 20.15651 35.34562 27.75106
#
# Velocity S-wave (km/s) = 2.87830 3.81150 3.37729
# Velocity P-wave (km/s) = 4.57749 5.87025 5.26371
#
# Compressibility (1/GPa) = 0.04148620
#
# Stress axis : x y z
#
# Youngs Moduli (GPa) = 45.95034 91.50785 75.70853
#
# Poissons Ratio (x) = 0.13405 0.14228
# Poissons Ratio (y) = 0.06731 -0.08613
# Poissons Ratio (z) = 0.08635 -0.10410
#
# Static dielectric constant tensor:
#      x y z
#    x 2.002490 0.000000 0.059720 
#    y 0.000000 1.982660 0.000000 
#    z 0.059720 0.000000 1.874580 
# 
# From -- ./inp_files/65545.got.cif
#   From: 2010.05.17/outbox.cif.g08.bks.cpg/sg15_33_cif.got.tgz:65545.got - 2010.06.03 18:47:42.
