data_PCOD9303187
_publ_section_title
;
Structure prediction by ZEFSAII (Michael W. Deem and Ramdas Pophale) SiO2 
 PCOD9303187
Probable space group: C 2/C
;
_chemical_formula_sum "Si O2"
_cell_formula_units_Z 32
_cell_length_a 13.954485
_cell_length_b 12.247784
_cell_length_c 7.863549
_cell_angle_alpha 90.000000
_cell_angle_beta 92.289961
_cell_angle_gamma 90.000000
_cell_volume 1342.897817
_symmetry_space_group_name_H-M "C 2/C"
_symmetry_group_IT_number 15
_symmetry_cell_setting 'monoclinic'
loop_
_space_group_symop_operation_xyz
x,y,z
-x,y,1/2-z
-x,-y,-z
x,-y,1/2+z
1/2+x,1/2+y,z
1/2-x,1/2+y,1/2-z
1/2-x,1/2-y,-z
1/2+x,1/2-y,1/2+z
loop_
_atom_site_type_symbol
_atom_site_label
_atom_site_fract_x
_atom_site_fract_y
_atom_site_fract_z
Si Si1 0.602365 0.166084 0.299110
Si Si2 0.924897 0.940371 0.619880
Si Si3 0.196368 0.872686 0.187597
Si Si4 0.101661 0.430509 0.176102
O O1 0.500000 0.221340 0.250000
O O2 0.680458 0.257081 0.274639
O O3 0.608572 0.119641 0.489502
O O4 0.605874 0.062340 0.174919
O O5 0.851997 0.871343 0.501317
O O6 0.000000 0.879902 0.750000
O O7 0.860814 0.031456 0.713268
O O8 0.000000 0.000000 0.500000
O O9 0.307959 0.897290 0.204484
O O10 0.000000 0.401255 0.250000
#
# Coordination Sequence:
#
# PCOD9303187 Si02
#       4
#     8   8   8   8
#     4  11  23  44  67  94 133 179 223 276 335 396
#     4   9  19  38  64 101 139 167 211 277 337 397
#     4  11  22  42  69  99 135 179 221 273 338 403
#     4  11  24  44  67  98 138 177 224 278 329 400
#
# _framework density 23.829066999999998
#
# number of rings (size 3 to 8) (size 9 to 14) (size 15 to 20)
#    0.000    1.500    0.000    7.500    0.000    0.000 
#    0.000   32.500    0.000    1.500    0.000    0.000 
#    0.000    0.000    0.000    0.000    0.000    0.000 
#
# Total GULP energy -89584.710134 kJ/mol
# GULP energy per Si atom -5599.044383 kJ/mol
# Density = 2.377483 g / cm^3
# Si number density = 23.829067 Si / 1000 Ang^3
#
#
#
# Elastic Constant Matrix: (Units=GPa)
#
#
# Indices 1 2 3 4 5 6 
#
# 1 197.1574 39.6490 58.4970 0.0000 21.3017 0.0000
# 2 39.6490 80.3301 37.9452 0.0000 -11.7474 0.0000
# 3 58.4970 37.9452 138.5375 0.0000 19.9785 0.0000
# 4 0.0000 0.0000 0.0000 17.0050 0.0000 -10.3084
# 5 21.3017 -11.7474 19.9785 0.0000 37.1327 0.0000
# 6 0.0000 0.0000 0.0000 -10.3084 0.0000 18.6751
#
#
#
# Elastic Compliance Matrix: (Units=1/GPa)
#
#
# Indices 1 2 3 4 5 6 
#
# 1 0.006543 -0.003213 -0.001295 0.000000 -0.004073 0.000000
# 2 -0.003213 0.017896 -0.005017 0.000000 0.010204 0.000000
# 3 -0.001295 -0.005017 0.010040 0.000000 -0.006246 0.000000
# 4 0.000000 0.000000 0.000000 0.088378 0.000000 0.048783
# 5 -0.004073 0.010204 -0.006246 0.000000 0.035855 0.000000
# 6 0.000000 0.000000 0.000000 0.048783 0.000000 0.080475
#
#
# Mechanical properties :
#
#
# Convention : Reuss Voigt Hill
#
# Bulk Modulus (GPa) = 64.81229 76.46750 70.63990
# Shear Modulus (GPa) = 18.98394 33.22483 26.10439
#
# Velocity S-wave (km/s) = 2.82560 3.73808 3.31340
# Velocity P-wave (km/s) = 6.15656 7.12676 6.65935
#
# Compressibility (1/GPa) = 0.01542917
#
# Stress axis : x y z
#
# Youngs Moduli (GPa) = 152.84485 55.87706 99.60254
#
# Poissons Ratio (x) = 0.17954 0.12900
# Poissons Ratio (y) = 0.49110 0.49967
# Poissons Ratio (z) = 0.19796 0.28031
#
# Static dielectric constant tensor:
#      x y z
#    x 2.028750 0.000000 -0.004060 
#    y 0.000000 1.903210 0.000000 
#    z -0.004060 0.000000 1.946860 
# 
# From -- ./inp_files/36545.got.cif
#   From: 2010.05.17/outbox.cif.g08.bks.cpg/sg15_19_cif.got.tgz:36545.got - 2010.06.03 18:47:42.
