data_PCOD9303935
_publ_section_title
;
Structure prediction by ZEFSAII (Michael W. Deem and Ramdas Pophale) SiO2 
 PCOD9303935
Probable space group: C 2/C
;
_chemical_formula_sum "Si O2"
_cell_formula_units_Z 52
_cell_length_a 15.375765
_cell_length_b 27.335526
_cell_length_c 8.975275
_cell_angle_alpha 90.000000
_cell_angle_beta 42.716853
_cell_angle_gamma 90.000000
_cell_volume 2559.070699
_symmetry_space_group_name_H-M "C 2/C"
_symmetry_group_IT_number 15
_symmetry_cell_setting 'monoclinic'
loop_
_space_group_symop_operation_xyz
x,y,z
-x,y,1/2-z
-x,-y,-z
x,-y,1/2+z
1/2+x,1/2+y,z
1/2-x,1/2+y,1/2-z
1/2-x,1/2-y,-z
1/2+x,1/2-y,1/2+z
loop_
_atom_site_type_symbol
_atom_site_label
_atom_site_fract_x
_atom_site_fract_y
_atom_site_fract_z
Si Si1 0.972782 0.773923 0.462460
Si Si2 0.285627 0.105565 0.231139
Si Si3 0.710420 0.006220 0.084299
Si Si4 0.000000 0.565442 0.750000
Si Si5 0.710073 0.216627 0.193120
Si Si6 0.374615 0.530610 0.616386
Si Si7 0.015895 0.877053 0.908038
O O1 0.820160 0.767870 0.671309
O O2 0.009281 0.823391 0.498887
O O3 0.000000 0.779965 0.250000
O O4 0.064176 0.731541 0.406499
O O5 0.294579 0.058740 0.328758
O O6 0.284459 0.157601 0.319705
O O7 0.154463 0.106193 0.298323
O O8 0.404816 0.098231 0.969000
O O9 0.587762 0.971095 0.239467
O O10 0.832495 0.978431 0.001135
O O11 0.749769 0.014879 0.864643
O O12 0.750000 0.250000 0.000000
O O13 0.500000 0.500000 0.500000
O O14 0.411148 0.585845 0.603721
O O15 0.000000 0.878349 0.750000
#
# Coordination Sequence:
#
# PCOD9303935 Si02
#       7
#     8   8   8   4   8   8   8
#     4   9  20  40  66  92 130 163 214 277 329 398
#     4  11  24  43  69  90 138 182 213 282 335 390
#     4  12  25  42  63  96 132 178 219 277 322 400
#     4  12  24  48  60  96 140 176 232 260 336 408
#     4   9  20  42  65  96 126 164 219 272 330 400
#     4  12  23  38  65  92 129 164 219 268 329 392
#     4  11  23  41  64  99 128 168 221 273 338 393
#
# _framework density 20.319876000000001
#
# number of rings (size 3 to 8) (size 9 to 14) (size 15 to 20)
#    0.000    1.231    3.077    2.769    6.462    0.000 
#   11.077    1.538    0.000    0.000    0.000    0.000 
#    0.000    0.000    0.000    0.000    0.000    0.000 
#
# Total GULP energy -145007.981312 kJ/mol
# GULP energy per Si atom -5577.230050 kJ/mol
# Density = 2.027363 g / cm^3
# Si number density = 20.319876 Si / 1000 Ang^3
#
#
#
# Elastic Constant Matrix: (Units=GPa)
#
#
# Indices 1 2 3 4 5 6 
#
# 1 91.3768 54.5261 3.0107 0.0000 -15.7249 0.0000
# 2 54.5261 119.6671 16.9232 0.0000 -11.0307 0.0000
# 3 3.0107 16.9232 51.0845 0.0000 -3.7226 0.0000
# 4 0.0000 0.0000 0.0000 25.7853 0.0000 -2.9978
# 5 -15.7249 -11.0307 -3.7226 0.0000 26.2879 0.0000
# 6 0.0000 0.0000 0.0000 -2.9978 0.0000 41.5763
#
#
#
# Elastic Compliance Matrix: (Units=1/GPa)
#
#
# Indices 1 2 3 4 5 6 
#
# 1 0.016299 -0.007043 0.001887 0.000000 0.007062 0.000000
# 2 -0.007043 0.012103 -0.003568 0.000000 0.000361 0.000000
# 3 0.001887 -0.003568 0.020834 0.000000 0.002582 0.000000
# 4 0.000000 0.000000 0.000000 0.039110 0.000000 0.002820
# 5 0.007062 0.000361 0.002582 0.000000 0.042782 0.000000
# 6 0.000000 0.000000 0.000000 0.002820 0.000000 0.024255
#
#
# Mechanical properties :
#
#
# Convention : Reuss Voigt Hill
#
# Bulk Modulus (GPa) = 31.45701 45.67206 38.56454
# Shear Modulus (GPa) = 27.25868 31.24113 29.24990
#
# Velocity S-wave (km/s) = 3.66659 3.92531 3.79815
# Velocity P-wave (km/s) = 5.78271 6.56273 6.18503
#
# Compressibility (1/GPa) = 0.03178941
#
# Stress axis : x y z
#
# Youngs Moduli (GPa) = 61.35248 82.62187 47.99754
#
# Poissons Ratio (x) = 0.58188 -0.09057
# Poissons Ratio (y) = 0.43208 0.17127
# Poissons Ratio (z) = -0.11578 0.29481
#
# Static dielectric constant tensor:
#      x y z
#    x 1.723830 0.000000 -0.010290 
#    y 0.000000 1.700920 0.000000 
#    z -0.010290 0.000000 1.758670 
# 
# From -- ./inp_files/43388.got.cif
#   From: 2010.05.17/outbox.cif.g08.bks.cpg/sg15_22_cif.got.tgz:43388.got - 2010.06.03 18:47:42.
