data_PCOD9303476
_publ_section_title
;
Structure prediction by ZEFSAII (Michael W. Deem and Ramdas Pophale) SiO2 
 PCOD9303476
Probable space group: C 2/C
;
_chemical_formula_sum "Si O2"
_cell_formula_units_Z 60
_cell_length_a 10.965300
_cell_length_b 16.742432
_cell_length_c 22.410544
_cell_angle_alpha 90.000000
_cell_angle_beta 140.242665
_cell_angle_gamma 90.000000
_cell_volume 2631.221589
_symmetry_space_group_name_H-M "C 2/C"
_symmetry_group_IT_number 15
_symmetry_cell_setting 'monoclinic'
loop_
_space_group_symop_operation_xyz
x,y,z
-x,y,1/2-z
-x,-y,-z
x,-y,1/2+z
1/2+x,1/2+y,z
1/2-x,1/2+y,1/2-z
1/2-x,1/2-y,-z
1/2+x,1/2-y,1/2+z
loop_
_atom_site_type_symbol
_atom_site_label
_atom_site_fract_x
_atom_site_fract_y
_atom_site_fract_z
Si Si1 0.782301 0.023182 0.549485
Si Si2 0.000000 0.508053 0.250000
Si Si3 0.684635 0.387223 0.850739
Si Si4 0.244780 0.679622 0.599912
Si Si5 0.596297 0.432825 0.074623
Si Si6 0.400272 0.002737 0.336346
Si Si7 0.588665 0.737630 0.577814
Si Si8 0.802924 0.171716 0.752451
O O1 0.697106 0.087272 0.564757
O O2 0.951704 0.066355 0.576853
O O3 0.864223 0.947534 0.614844
O O4 0.609968 0.992874 0.443578
O O5 0.185471 0.456039 0.334275
O O6 0.061945 0.549445 0.211931
O O7 0.500000 0.353643 0.750000
O O8 0.787815 0.441773 0.839792
O O9 0.809520 0.311852 0.914752
O O10 0.205432 0.703414 0.654112
O O11 0.472329 0.678524 0.677836
O O12 0.130723 0.733598 0.509829
O O13 0.594426 0.345755 0.046076
O O14 0.500000 0.500000 0.000000
O O15 0.289278 0.918788 0.281682
O O16 0.692404 0.716097 0.680772
#
# Coordination Sequence:
#
# PCOD9303476 Si02
#       8
#     8   4   8   8   8   8   8   8
#     4  12  23  47  81 107 144 193 260 312 371 452
#     4  12  24  46  72  98 148 192 248 294 372 466
#     4  12  26  45  74 111 144 190 252 315 371 445
#     4  11  22  44  73 109 145 194 254 309 374 448
#     4  12  27  49  74 106 147 208 245 305 388 469
#     4  12  23  43  75 107 142 197 253 301 375 456
#     4  12  26  45  70 108 155 189 243 321 379 439
#     4  11  23  41  72 105 149 201 239 307 383 446
#
# _framework density 22.803096
#
# number of rings (size 3 to 8) (size 9 to 14) (size 15 to 20)
#    0.000    0.267    6.667    3.200    0.933    0.000 
#    4.800    0.667    0.000    0.000    0.000    0.000 
#    0.000    0.000    0.000    0.000    0.000    0.000 
#
# Total GULP energy -167216.515581 kJ/mol
# GULP energy per Si atom -5573.883853 kJ/mol
# Density = 2.275120 g / cm^3
# Si number density = 22.803096 Si / 1000 Ang^3
#
#
#
# Elastic Constant Matrix: (Units=GPa)
#
#
# Indices 1 2 3 4 5 6 
#
# 1 26.7553 -6.8937 -0.2145 0.0000 6.1679 0.0000
# 2 -6.8937 84.6472 32.1169 0.0000 2.9158 0.0000
# 3 -0.2145 32.1169 128.1056 0.0000 21.6099 -0.0001
# 4 0.0000 0.0000 0.0000 40.1753 0.0000 -2.2649
# 5 6.1679 2.9158 21.6099 0.0000 43.8683 0.0000
# 6 0.0000 0.0000 -0.0001 -2.2649 0.0000 3.6488
#
#
#
# Elastic Compliance Matrix: (Units=1/GPa)
#
#
# Indices 1 2 3 4 5 6 
#
# 1 0.039599 0.003343 0.000223 0.000000 -0.005900 0.000000
# 2 0.003343 0.013365 -0.003398 0.000000 0.000316 0.000000
# 3 0.000223 -0.003398 0.009407 0.000000 -0.004440 0.000000
# 4 0.000000 0.000000 0.000000 0.025794 0.000000 0.016011
# 5 -0.005900 0.000316 -0.004440 0.000000 0.025791 0.000000
# 6 0.000000 0.000000 0.000000 0.016011 0.000000 0.283999
#
#
# Mechanical properties :
#
#
# Convention : Reuss Voigt Hill
#
# Bulk Modulus (GPa) = 15.94687 32.16950 24.05818
# Shear Modulus (GPa) = 11.94684 31.83845 21.89265
#
# Velocity S-wave (km/s) = 2.29140 3.74067 3.10187
# Velocity P-wave (km/s) = 3.74288 5.72669 4.83757
#
# Compressibility (1/GPa) = 0.06270824
#
# Stress axis : x y z
#
# Youngs Moduli (GPa) = 25.25302 74.82499 106.30043
#
# Poissons Ratio (x) = -0.25018 -0.02374
# Poissons Ratio (y) = -0.08443 0.36123
# Poissons Ratio (z) = -0.00564 0.25427
#
# Static dielectric constant tensor:
#      x y z
#    x 1.958520 0.000000 -0.065590 
#    y 0.000000 1.866990 0.000000 
#    z -0.065590 0.000000 1.929220 
# 
# From -- ./inp_files/270614.got.cif
#   From: 2010.05.17/outbox.cif.g08.bks.cpg/sg15_136_cif.got.tgz:270614.got - 2010.06.03 18:47:42.
