data_PCOD9303954
_publ_section_title
;
Structure prediction by ZEFSAII (Michael W. Deem and Ramdas Pophale) SiO2 
 PCOD9303954
Probable space group: C 2/C
;
_chemical_formula_sum "Si O2"
_cell_formula_units_Z 40
_cell_length_a 12.435181
_cell_length_b 18.388250
_cell_length_c 8.796403
_cell_angle_alpha 90.000000
_cell_angle_beta 99.295750
_cell_angle_gamma 90.000000
_cell_volume 1984.981959
_symmetry_space_group_name_H-M "C 2/C"
_symmetry_group_IT_number 15
_symmetry_cell_setting 'monoclinic'
loop_
_space_group_symop_operation_xyz
x,y,z
-x,y,1/2-z
-x,-y,-z
x,-y,1/2+z
1/2+x,1/2+y,z
1/2-x,1/2+y,1/2-z
1/2-x,1/2-y,-z
1/2+x,1/2-y,1/2+z
loop_
_atom_site_type_symbol
_atom_site_label
_atom_site_fract_x
_atom_site_fract_y
_atom_site_fract_z
Si Si1 0.881977 0.110012 0.662150
Si Si2 0.767484 0.292540 0.163726
Si Si3 0.729984 0.971523 0.681944
Si Si4 0.885677 0.842851 0.813290
Si Si5 0.893200 0.439760 0.123271
O O1 0.833565 0.171631 0.766460
O O2 0.895477 0.137744 0.493008
O O3 0.000000 0.086764 0.750000
O O4 0.801000 0.040925 0.644499
O O5 0.828624 0.235081 0.283995
O O6 0.843283 0.361025 0.144898
O O7 0.750000 0.250000 0.000000
O O8 0.808110 0.902498 0.714946
O O9 0.622183 0.952069 0.559107
O O10 0.686169 0.997738 0.832751
O O11 0.000000 0.842214 0.750000
O O12 0.000000 0.444003 0.250000
#
# Coordination Sequence:
#
# PCOD9303954 Si02
#       5
#     8   8   8   8   8
#     4  11  25  42  66  99 131 170 219 269 328 389
#     4  11  23  43  67  94 133 171 216 268 324 392
#     4  11  23  41  66  94 133 168 220 274 320 390
#     4  12  24  41  68  95 132 174 215 269 332 384
#     4  11  23  42  65  93 128 175 218 267 330 388
#
# _framework density 20.151318
#
# number of rings (size 3 to 8) (size 9 to 14) (size 15 to 20)
#    0.000    0.800    4.000    3.600    2.800    1.600 
#    0.000    1.000    0.000    0.000    0.000    0.000 
#    0.000    0.000    0.000    0.000    0.000    0.000 
#
# Total GULP energy -111578.024749 kJ/mol
# GULP energy per Si atom -5578.901237 kJ/mol
# Density = 2.010545 g / cm^3
# Si number density = 20.151318 Si / 1000 Ang^3
#
#
#
# Elastic Constant Matrix: (Units=GPa)
#
#
# Indices 1 2 3 4 5 6 
#
# 1 73.4774 17.9258 27.4428 0.0000 13.7319 0.0000
# 2 17.9258 80.9715 14.3283 0.0000 5.7563 0.0000
# 3 27.4428 14.3283 116.1130 0.0000 14.4895 0.0000
# 4 0.0000 0.0000 0.0000 33.2668 0.0000 19.1076
# 5 13.7319 5.7563 14.4895 0.0000 38.3473 0.0000
# 6 0.0000 0.0000 0.0000 19.1076 0.0000 2.6044
#
#
#
# Elastic Compliance Matrix: (Units=1/GPa)
#
#
# Indices 1 2 3 4 5 6 
#
# 1 0.016182 -0.002757 -0.002952 0.000000 -0.004265 0.000000
# 2 -0.002757 0.013164 -0.000892 0.000000 -0.000652 0.000000
# 3 -0.002952 -0.000892 0.009730 0.000000 -0.002486 0.000000
# 4 0.000000 0.000000 0.000000 -0.009353 0.000000 0.068619
# 5 -0.004265 -0.000652 -0.002486 0.000000 0.028642 0.000000
# 6 0.000000 0.000000 0.000000 0.068619 0.000000 -0.119467
#
#
# Mechanical properties :
#
#
# Convention : Reuss Voigt Hill
#
# Bulk Modulus (GPa) = 38.64636 43.32844 40.98740
# Shear Modulus (GPa) = -127.30581 28.90136 -49.20222
#
# Velocity S-wave (km/s) = -7.95689 3.79121 -4.94665
# Velocity P-wave (km/s) = 8.07443 6.38064 3.49884
#
# Compressibility (1/GPa) = 0.02587566
#
# Stress axis : x y z
#
# Youngs Moduli (GPa) = 61.79754 75.96207 102.77279
#
# Poissons Ratio (x) = 0.20941 0.30339
# Poissons Ratio (y) = 0.17036 0.09163
# Poissons Ratio (z) = 0.18243 0.06773
#
# Static dielectric constant tensor:
#      x y z
#    x 1.719740 0.000000 -0.001940 
#    y 0.000000 1.664170 0.000000 
#    z -0.001940 0.000000 1.730410 
# 
# From -- ./inp_files/29048.got.cif
#   From: 2010.05.17/outbox.cif.g08.bks.cpg/sg15_15_cif.got.tgz:29048.got - 2010.06.03 18:47:42.
