data_PCOD9303599
_publ_section_title
;
Structure prediction by ZEFSAII (Michael W. Deem and Ramdas Pophale) SiO2 
 PCOD9303599
Probable space group: C 2/C
;
_chemical_formula_sum "Si O2"
_cell_formula_units_Z 60
_cell_length_a 8.255849
_cell_length_b 11.638323
_cell_length_c 28.496641
_cell_angle_alpha 90.000000
_cell_angle_beta 100.219290
_cell_angle_gamma 90.000000
_cell_volume 2694.640961
_symmetry_space_group_name_H-M "C 2/C"
_symmetry_group_IT_number 15
_symmetry_cell_setting 'monoclinic'
loop_
_space_group_symop_operation_xyz
x,y,z
-x,y,1/2-z
-x,-y,-z
x,-y,1/2+z
1/2+x,1/2+y,z
1/2-x,1/2+y,1/2-z
1/2-x,1/2-y,-z
1/2+x,1/2-y,1/2+z
loop_
_atom_site_type_symbol
_atom_site_label
_atom_site_fract_x
_atom_site_fract_y
_atom_site_fract_z
Si Si1 0.143766 0.154281 0.325232
Si Si2 0.500000 0.175285 0.750000
Si Si3 0.048962 0.514148 0.666987
Si Si4 0.309722 0.984778 0.486547
Si Si5 0.891781 0.958543 0.449986
Si Si6 0.680290 0.411346 0.642584
Si Si7 0.872186 0.318495 0.414634
Si Si8 0.285456 0.274626 0.565549
O O1 0.297409 0.072005 0.324370
O O2 0.182358 0.212276 0.377439
O O3 0.131635 0.244942 0.282874
O O4 0.956915 0.103970 0.323286
O O5 0.570946 0.098102 0.712184
O O6 0.862819 0.461948 0.661378
O O7 0.071528 0.585281 0.619929
O O8 0.266951 0.973389 0.539050
O O9 0.250294 0.102926 0.459079
O O10 0.500000 0.000000 0.500000
O O11 0.265925 0.879282 0.449874
O O12 0.850253 0.824178 0.448087
O O13 0.915431 0.006129 0.399552
O O14 0.000000 0.000000 0.500000
O O15 0.702520 0.287205 0.618473
O O16 0.040827 0.270244 0.445680
#
# Coordination Sequence:
#
# PCOD9303599 Si02
#       8
#     8   4   8   8   8   8   8   8
#     4  11  26  49  77 105 146 192 233 304 379 435
#     4  12  26  50  78 114 142 178 248 306 362 460
#     4  12  25  50  76 107 146 189 237 303 373 442
#     4  12  24  40  68  99 136 198 244 286 352 418
#     4  12  25  39  65 107 143 191 251 297 345 422
#     4  11  25  50  72 108 151 193 245 298 369 437
#     4  11  23  46  70 100 147 191 240 299 362 426
#     4  11  22  46  68  95 151 192 230 306 367 412
#
# _framework density 22.266417000000001
#
# number of rings (size 3 to 8) (size 9 to 14) (size 15 to 20)
#    0.000    0.533    6.667    2.000    3.733    1.600 
#    2.400    1.333    0.000    0.000    0.000    0.000 
#    0.000    0.000    0.000    0.000    0.000    0.000 
#
# Total GULP energy -167452.028533 kJ/mol
# GULP energy per Si atom -5581.734284 kJ/mol
# Density = 2.221574 g / cm^3
# Si number density = 22.266417 Si / 1000 Ang^3
#
#
#
# Elastic Constant Matrix: (Units=GPa)
#
#
# Indices 1 2 3 4 5 6 
#
# 1 71.8746 50.5143 24.8717 0.0000 9.3594 0.0000
# 2 50.5143 127.8305 45.9759 0.0000 16.8338 0.0000
# 3 24.8717 45.9759 100.6500 0.0000 10.0472 0.0000
# 4 0.0000 0.0000 0.0000 50.1546 0.0000 9.2027
# 5 9.3594 16.8338 10.0472 0.0000 18.5326 0.0000
# 6 0.0000 0.0000 0.0000 9.2027 0.0000 41.1442
#
#
#
# Elastic Compliance Matrix: (Units=1/GPa)
#
#
# Indices 1 2 3 4 5 6 
#
# 1 0.019598 -0.006850 -0.001424 0.000000 -0.002903 0.000000
# 2 -0.006850 0.012570 -0.003441 0.000000 -0.006093 0.000000
# 3 -0.001424 -0.003441 0.012132 0.000000 -0.002733 0.000000
# 4 0.000000 0.000000 0.000000 0.020792 0.000000 -0.004650
# 5 -0.002903 -0.006093 -0.002733 0.000000 0.062441 0.000000
# 6 0.000000 0.000000 0.000000 -0.004650 0.000000 0.025345
#
#
# Mechanical properties :
#
#
# Convention : Reuss Voigt Hill
#
# Bulk Modulus (GPa) = 47.91589 60.34208 54.12899
# Shear Modulus (GPa) = 27.28312 33.89915 30.59113
#
# Velocity S-wave (km/s) = 3.50423 3.90607 3.71059
# Velocity P-wave (km/s) = 6.15946 6.89217 6.53609
#
# Compressibility (1/GPa) = 0.02086990
#
# Stress axis : x y z
#
# Youngs Moduli (GPa) = 51.02491 79.55701 82.42802
#
# Poissons Ratio (x) = 0.54497 0.11738
# Poissons Ratio (y) = 0.34952 0.28362
# Poissons Ratio (z) = 0.07266 0.27374
#
# Static dielectric constant tensor:
#      x y z
#    x 1.815850 0.000000 0.097140 
#    y 0.000000 1.879500 0.000000 
#    z 0.097140 0.000000 1.789990 
# 
# From -- ./inp_files/307212.got.cif
#   From: 2010.05.17/outbox.cif.g08.bks.cpg/sg15_154_cif.got.tgz:307212.got - 2010.06.03 18:47:42.
