data_PCOD9303335
_publ_section_title
;
Structure prediction by ZEFSAII (Michael W. Deem and Ramdas Pophale) SiO2 
 PCOD9303335
Probable space group: C 2/C
;
_chemical_formula_sum "Si O2"
_cell_formula_units_Z 40
_cell_length_a 29.135783
_cell_length_b 7.742121
_cell_length_c 14.450322
_cell_angle_alpha 90.000000
_cell_angle_beta 30.164989
_cell_angle_gamma 90.000000
_cell_volume 1637.921535
_symmetry_space_group_name_H-M "C 2/C"
_symmetry_group_IT_number 15
_symmetry_cell_setting 'monoclinic'
loop_
_space_group_symop_operation_xyz
x,y,z
-x,y,1/2-z
-x,-y,-z
x,-y,1/2+z
1/2+x,1/2+y,z
1/2-x,1/2+y,1/2-z
1/2-x,1/2-y,-z
1/2+x,1/2-y,1/2+z
loop_
_atom_site_type_symbol
_atom_site_label
_atom_site_fract_x
_atom_site_fract_y
_atom_site_fract_z
Si Si1 0.217264 0.666477 0.840695
Si Si2 0.530463 0.733006 0.605256
Si Si3 0.410606 0.103014 0.181931
Si Si4 0.362265 0.517707 0.714559
Si Si5 0.222410 0.026006 0.944005
O O1 0.267389 0.535433 0.822989
O O2 0.214277 0.847647 0.900343
O O3 0.275361 0.663021 0.643146
O O4 0.114036 0.638623 0.984165
O O5 0.500000 0.631625 0.750000
O O6 0.439736 0.832591 0.732241
O O7 0.570255 0.608389 0.457320
O O8 0.397116 0.284495 0.152732
O O9 0.320939 0.990978 0.322705
O O10 0.500000 0.000000 0.000000
O O11 0.345698 0.463109 0.850210
#
# Coordination Sequence:
#
# PCOD9303335 Si02
#       5
#     8   8   8   8   8
#     4  11  22  43  71  98 129 181 228 271 333 414
#     4  12  24  44  69  98 139 182 223 282 347 399
#     4  11  23  43  67 101 135 171 220 285 346 389
#     4  11  25  45  71  96 138 182 228 276 337 415
#     4  11  23  46  69  98 134 181 229 276 339 408
#
# _framework density 24.421195999999998
#
# number of rings (size 3 to 8) (size 9 to 14) (size 15 to 20)
#    0.000    0.800    4.000    5.400    0.000    0.800 
#    0.000    1.000    0.000    0.000    0.000    0.000 
#    0.000    0.000    0.000    0.000    0.000    0.000 
#
# Total GULP energy -111704.182377 kJ/mol
# GULP energy per Si atom -5585.209119 kJ/mol
# Density = 2.436561 g / cm^3
# Si number density = 24.421196 Si / 1000 Ang^3
#
#
#
# Elastic Constant Matrix: (Units=GPa)
#
#
# Indices 1 2 3 4 5 6 
#
# 1 131.7568 17.4373 54.5782 0.0000 24.1263 0.0000
# 2 17.4373 45.8224 26.3796 -0.0001 26.5614 0.0000
# 3 54.5782 26.3796 124.2449 -0.0001 48.6784 0.0000
# 4 0.0000 -0.0001 -0.0001 30.7214 0.0000 -3.4333
# 5 24.1263 26.5614 48.6784 0.0000 75.7188 0.0000
# 6 0.0000 0.0000 0.0000 -3.4333 0.0000 34.3312
#
#
#
# Elastic Compliance Matrix: (Units=1/GPa)
#
#
# Indices 1 2 3 4 5 6 
#
# 1 0.009352 -0.001331 -0.003798 0.000000 -0.000072 0.000000
# 2 -0.001331 0.028300 -0.002273 0.000000 -0.008042 0.000000
# 3 -0.003798 -0.002273 0.012582 0.000000 -0.006081 0.000000
# 4 0.000000 0.000000 0.000000 0.032918 0.000000 0.003292
# 5 -0.000072 -0.008042 -0.006081 0.000000 0.019960 0.000000
# 6 0.000000 0.000000 0.000000 0.003292 0.000000 0.029457
#
#
# Mechanical properties :
#
#
# Convention : Reuss Voigt Hill
#
# Bulk Modulus (GPa) = 28.22417 55.40156 41.81287
# Shear Modulus (GPa) = 31.41018 41.71623 36.56320
#
# Velocity S-wave (km/s) = 3.59023 4.13752 3.87355
# Velocity P-wave (km/s) = 5.36365 6.74985 6.09628
#
# Compressibility (1/GPa) = 0.03543063
#
# Stress axis : x y z
#
# Youngs Moduli (GPa) = 106.92817 35.33553 79.47807
#
# Poissons Ratio (x) = 0.04704 0.30182
# Poissons Ratio (y) = 0.14234 0.18066
# Poissons Ratio (z) = 0.40606 0.08032
#
# Static dielectric constant tensor:
#      x y z
#    x 2.059240 0.000000 0.006140 
#    y 0.000000 2.009950 0.000000 
#    z 0.006140 0.000000 1.987260 
# 
# From -- ./inp_files/181003.got.cif
#   From: 2010.05.17/outbox.cif.g08.bks.cpg/sg15_91_cif.got.tgz:181003.got - 2010.06.03 18:47:42.
