data_PCOD9303056
_publ_section_title
;
Structure prediction by ZEFSAII (Michael W. Deem and Ramdas Pophale) SiO2 
 PCOD9303056
Probable space group: C 2/C
;
_chemical_formula_sum "Si O2"
_cell_formula_units_Z 56
_cell_length_a 23.108463
_cell_length_b 9.082313
_cell_length_c 15.920815
_cell_angle_alpha 90.000000
_cell_angle_beta 39.927114
_cell_angle_gamma 90.000000
_cell_volume 2144.574130
_symmetry_space_group_name_H-M "C 2/C"
_symmetry_group_IT_number 15
_symmetry_cell_setting 'monoclinic'
loop_
_space_group_symop_operation_xyz
x,y,z
-x,y,1/2-z
-x,-y,-z
x,-y,1/2+z
1/2+x,1/2+y,z
1/2-x,1/2+y,1/2-z
1/2-x,1/2-y,-z
1/2+x,1/2-y,1/2+z
loop_
_atom_site_type_symbol
_atom_site_label
_atom_site_fract_x
_atom_site_fract_y
_atom_site_fract_z
Si Si1 0.617816 0.655128 0.413734
Si Si2 0.407880 0.018604 0.506922
Si Si3 0.733131 0.613151 0.119095
Si Si4 0.500000 0.867648 0.750000
Si Si5 0.500000 0.417990 0.750000
Si Si6 0.873298 0.137381 0.824957
Si Si7 0.413366 0.256958 0.109357
Si Si8 0.330245 0.614122 0.537751
O O1 0.631783 0.827938 0.415602
O O2 0.666145 0.604063 0.273978
O O3 0.509489 0.661694 0.515446
O O4 0.657019 0.558579 0.449325
O O5 0.488306 0.047609 0.350523
O O6 0.329559 0.943928 0.540156
O O7 0.429606 0.906822 0.557911
O O8 0.701976 0.490479 0.084422
O O9 0.746843 0.790677 0.093876
O O10 0.411164 0.763050 0.844276
O O11 0.458801 0.526592 0.726608
O O12 0.583231 0.339090 0.615382
O O13 0.859694 0.225341 0.754964
O O14 0.352244 0.324365 0.105360
#
# Coordination Sequence:
#
# PCOD9303056 Si02
#       8
#     8   8   8   4   4   8   8   8
#     4  12  20  41  70 105 135 184 239 308 349 426
#     4  11  26  43  71 110 142 185 243 308 369 432
#     4  11  26  41  66 106 147 183 245 303 366 422
#     4  11  24  47  72 104 149 195 246 300 365 451
#     4  11  22  41  70 102 139 195 246 290 349 451
#     4  11  22  45  73 102 140 200 248 289 366 437
#     4  11  22  42  73 104 132 186 255 297 351 430
#     4  11  23  41  68 104 144 184 240 304 359 425
#
# _framework density 26.112411999999999
#
# number of rings (size 3 to 8) (size 9 to 14) (size 15 to 20)
#    0.000    0.857    4.286    3.429    2.000    3.429 
#    0.000    1.429    0.000    0.000    0.000    0.000 
#    0.000    0.000    0.000    0.000    0.000    0.000 
#
# Total GULP energy -156128.129346 kJ/mol
# GULP energy per Si atom -5576.004619 kJ/mol
# Density = 2.605298 g / cm^3
# Si number density = 26.112412 Si / 1000 Ang^3
#
#
#
# Elastic Constant Matrix: (Units=GPa)
#
#
# Indices 1 2 3 4 5 6 
#
# 1 79.1104 39.4684 6.2408 -0.0001 2.8641 0.0001
# 2 39.4684 171.1649 22.0173 0.0002 7.6496 -0.0003
# 3 6.2408 22.0173 33.3969 0.0000 2.1772 0.0002
# 4 -0.0001 0.0002 0.0000 50.1075 0.0000 -1.0392
# 5 2.8641 7.6496 2.1772 0.0000 36.1751 0.0001
# 6 0.0001 -0.0003 0.0002 -1.0392 0.0001 43.0019
#
#
#
# Elastic Compliance Matrix: (Units=1/GPa)
#
#
# Indices 1 2 3 4 5 6 
#
# 1 0.014299 -0.003210 -0.000528 0.000000 -0.000421 0.000000
# 2 -0.003210 0.007148 -0.004047 0.000000 -0.001014 0.000000
# 3 -0.000528 -0.004047 0.032779 0.000000 -0.001075 0.000000
# 4 0.000000 0.000000 0.000000 0.019967 0.000000 0.000483
# 5 -0.000421 -0.001014 -0.001075 0.000000 0.027956 0.000000
# 6 0.000000 0.000000 0.000000 0.000483 0.000000 0.023266
#
#
# Mechanical properties :
#
#
# Convention : Reuss Voigt Hill
#
# Bulk Modulus (GPa) = 25.86868 46.56946 36.21907
# Shear Modulus (GPa) = 32.49446 40.25328 36.37387
#
# Velocity S-wave (km/s) = 3.53144 3.93050 3.73630
# Velocity P-wave (km/s) = 5.15328 6.20253 5.70209
#
# Compressibility (1/GPa) = 0.03865678
#
# Stress axis : x y z
#
# Youngs Moduli (GPa) = 69.93410 139.89040 30.50688
#
# Poissons Ratio (x) = 0.44911 0.01611
# Poissons Ratio (y) = 0.22452 0.12345
# Poissons Ratio (z) = 0.03693 0.56609
#
# Static dielectric constant tensor:
#      x y z
#    x 2.121980 0.000000 0.017160 
#    y 0.000000 2.150890 0.000000 
#    z 0.017160 0.000000 2.031730 
# 
# From -- ./inp_files/222037.got.cif
#   From: 2010.05.17/outbox.cif.g08.bks.cpg/sg15_112_cif.got.tgz:222037.got - 2010.06.03 18:47:42.
