data_PCOD9303091
_publ_section_title
;
Structure prediction by ZEFSAII (Michael W. Deem and Ramdas Pophale) SiO2 
 PCOD9303091
Probable space group: C 2/C
;
_chemical_formula_sum "Si O2"
_cell_formula_units_Z 40
_cell_length_a 10.287790
_cell_length_b 13.699954
_cell_length_c 12.785360
_cell_angle_alpha 90.000000
_cell_angle_beta 113.990209
_cell_angle_gamma 90.000000
_cell_volume 1646.331766
_symmetry_space_group_name_H-M "C 2/C"
_symmetry_group_IT_number 15
_symmetry_cell_setting 'monoclinic'
loop_
_space_group_symop_operation_xyz
x,y,z
-x,y,1/2-z
-x,-y,-z
x,-y,1/2+z
1/2+x,1/2+y,z
1/2-x,1/2+y,1/2-z
1/2-x,1/2-y,-z
1/2+x,1/2-y,1/2+z
loop_
_atom_site_type_symbol
_atom_site_label
_atom_site_fract_x
_atom_site_fract_y
_atom_site_fract_z
Si Si1 0.500000 0.958935 0.250000
Si Si2 0.500000 0.696738 0.750000
Si Si3 0.013347 0.105860 0.374681
Si Si4 0.176797 0.073080 0.982209
Si Si5 0.492147 0.126315 0.393544
Si Si6 0.115016 0.312232 0.425093
O O1 0.619621 0.887008 0.332129
O O2 0.437024 0.031564 0.315191
O O3 0.399632 0.631655 0.639997
O O4 0.559659 0.776364 0.684741
O O5 0.009291 0.222737 0.369094
O O6 0.000000 0.074496 0.250000
O O7 0.902401 0.085181 0.431843
O O8 0.152809 0.042177 0.452018
O O9 0.336503 0.112918 0.048150
O O10 0.441199 0.130563 0.493810
O O11 0.250000 0.250000 0.500000
#
# Coordination Sequence:
#
# PCOD9303091 Si02
#       6
#     4   4   8   8   8   8
#     4  11  26  49  72 108 148 201 242 307 394 454
#     4  11  22  41  74 104 146 199 248 307 384 460
#     4  11  24  44  71 108 147 196 248 317 374 449
#     4  11  24  46  72 110 153 197 257 310 387 461
#     4  11  26  46  73 108 146 199 252 313 377 466
#     4  12  26  46  71 107 146 191 254 315 379 454
#
# _framework density 24.29644
#
# number of rings (size 3 to 8) (size 9 to 14) (size 15 to 20)
#    0.000    0.800    4.000    2.400    0.000    6.400 
#    0.000    0.000    0.000    0.000    0.000    0.000 
#    0.000    0.000    0.000    0.000    0.000    0.000 
#
# Total GULP energy -111627.470944 kJ/mol
# GULP energy per Si atom -5581.373547 kJ/mol
# Density = 2.424114 g / cm^3
# Si number density = 24.296440 Si / 1000 Ang^3
#
#
#
# Elastic Constant Matrix: (Units=GPa)
#
#
# Indices 1 2 3 4 5 6 
#
# 1 102.9195 25.9530 60.1984 0.0000 -1.9539 0.0000
# 2 25.9530 179.4555 75.3938 0.0000 -1.3443 0.0000
# 3 60.1984 75.3938 173.9573 0.0000 1.1718 0.0000
# 4 0.0000 0.0000 0.0000 12.9245 0.0000 26.1376
# 5 -1.9539 -1.3443 1.1718 0.0000 20.5684 0.0000
# 6 0.0000 0.0000 0.0000 26.1376 0.0000 2.6744
#
#
#
# Elastic Compliance Matrix: (Units=1/GPa)
#
#
# Indices 1 2 3 4 5 6 
#
# 1 0.012223 0.000029 -0.004252 0.000000 0.001405 0.000000
# 2 0.000029 0.006821 -0.002970 0.000000 0.000618 0.000000
# 3 -0.004252 -0.002970 0.008515 0.000000 -0.001083 0.000000
# 4 0.000000 0.000000 0.000000 -0.004123 0.000000 0.040298
# 5 0.001405 0.000618 -0.001083 0.000000 0.048854 0.000000
# 6 0.000000 0.000000 0.000000 0.040298 0.000000 -0.019927
#
#
# Mechanical properties :
#
#
# Convention : Reuss Voigt Hill
#
# Bulk Modulus (GPa) = 75.91937 86.60254 81.26096
# Shear Modulus (GPa) = 70.28552 26.88594 48.58573
#
# Velocity S-wave (km/s) = 5.38434 3.33014 4.47666
# Velocity P-wave (km/s) = 8.36479 7.10689 7.76137
#
# Compressibility (1/GPa) = 0.01317187
#
# Stress axis : x y z
#
# Youngs Moduli (GPa) = 81.81612 146.61121 117.44613
#
# Poissons Ratio (x) = -0.00427 0.49935
# Poissons Ratio (y) = -0.00239 0.34886
# Poissons Ratio (z) = 0.34786 0.43549
#
# Static dielectric constant tensor:
#      x y z
#    x 1.950490 0.000000 0.106080 
#    y 0.000000 2.072570 0.000000 
#    z 0.106080 0.000000 2.028260 
# 
# From -- ./inp_files/86291.got.cif
#   From: 2010.05.17/outbox.cif.g08.bks.cpg/sg15_44_cif.got.tgz:86291.got - 2010.06.03 18:47:42.
