data_PCOD9303500
_publ_section_title
;
Structure prediction by ZEFSAII (Michael W. Deem and Ramdas Pophale) SiO2 
 PCOD9303500
Probable space group: C 2/C
;
_chemical_formula_sum "Si O2"
_cell_formula_units_Z 32
_cell_length_a 11.808072
_cell_length_b 7.337196
_cell_length_c 13.873616
_cell_angle_alpha 90.000000
_cell_angle_beta 114.853099
_cell_angle_gamma 90.000000
_cell_volume 1090.666533
_symmetry_space_group_name_H-M "C 2/C"
_symmetry_group_IT_number 15
_symmetry_cell_setting 'monoclinic'
loop_
_space_group_symop_operation_xyz
x,y,z
-x,y,1/2-z
-x,-y,-z
x,-y,1/2+z
1/2+x,1/2+y,z
1/2-x,1/2+y,1/2-z
1/2-x,1/2-y,-z
1/2+x,1/2-y,1/2+z
loop_
_atom_site_type_symbol
_atom_site_label
_atom_site_fract_x
_atom_site_fract_y
_atom_site_fract_z
Si Si1 0.094218 0.932102 0.170706
Si Si2 0.265167 0.744726 0.388696
Si Si3 0.093832 0.741072 0.853354
Si Si4 0.141150 0.386401 0.576343
O O1 0.192143 0.051786 0.140297
O O2 0.149269 0.825012 0.284110
O O3 0.984770 0.078729 0.145743
O O4 0.051854 0.761396 0.091036
O O5 0.250000 0.750000 0.500000
O O6 0.219136 0.185687 0.347323
O O7 0.365869 0.904222 0.399035
O O8 0.134842 0.630071 0.959831
O O9 0.000000 0.635959 0.750000
#
# Coordination Sequence:
#
# PCOD9303500 Si02
#       4
#     8   8   8   8
#     4  12  25  47  76 113 159 206 260 337 406 464
#     4  12  25  45  79 113 154 207 264 329 396 483
#     4  11  22  44  77 107 150 209 257 324 403 469
#     4  11  25  48  74 110 156 199 269 332 388 492
#
# _framework density 29.339860000000002
#
# number of rings (size 3 to 8) (size 9 to 14) (size 15 to 20)
#    0.000    0.500    5.000    3.750    0.000    1.000 
#    0.000    2.500   11.000    0.000    0.000    0.000 
#    0.000    0.000    0.000    0.000    0.000    0.000 
#
# Total GULP energy -89707.346702 kJ/mol
# GULP energy per Si atom -5606.709169 kJ/mol
# Density = 2.927308 g / cm^3
# Si number density = 29.339860 Si / 1000 Ang^3
#
#
#
# Elastic Constant Matrix: (Units=GPa)
#
#
# Indices 1 2 3 4 5 6 
#
# 1 112.2999 35.4584 23.1436 0.0000 0.1316 0.0000
# 2 35.4584 210.0224 40.6917 0.0000 2.1177 0.0000
# 3 23.1436 40.6917 197.5950 0.0000 5.3606 0.0000
# 4 0.0000 0.0000 0.0000 53.7077 0.0000 -2.7287
# 5 0.1316 2.1177 5.3606 0.0000 45.4204 0.0000
# 6 0.0000 0.0000 0.0000 -2.7287 0.0000 38.3475
#
#
#
# Elastic Compliance Matrix: (Units=1/GPa)
#
#
# Indices 1 2 3 4 5 6 
#
# 1 0.009532 -0.001452 -0.000821 0.000000 0.000137 0.000000
# 2 -0.001452 0.005181 -0.000893 0.000000 -0.000132 0.000000
# 3 -0.000821 -0.000893 0.005357 0.000000 -0.000588 0.000000
# 4 0.000000 0.000000 0.000000 0.018687 0.000000 0.001330
# 5 0.000137 -0.000132 -0.000588 0.000000 0.022092 0.000000
# 6 0.000000 0.000000 0.000000 0.001330 0.000000 0.026172
#
#
# Mechanical properties :
#
#
# Convention : Reuss Voigt Hill
#
# Bulk Modulus (GPa) = 72.79251 79.83382 76.31317
# Shear Modulus (GPa) = 51.05579 55.53669 53.29624
#
# Velocity S-wave (km/s) = 4.17604 4.35544 4.26668
# Velocity P-wave (km/s) = 6.93660 7.24998 7.09502
#
# Compressibility (1/GPa) = 0.01373768
#
# Stress axis : x y z
#
# Youngs Moduli (GPa) = 104.90809 193.01733 186.67261
#
# Poissons Ratio (x) = 0.28018 0.15330
# Poissons Ratio (y) = 0.15228 0.16676
# Poissons Ratio (z) = 0.08616 0.17243
#
# Static dielectric constant tensor:
#      x y z
#    x 2.391060 0.000000 0.008050 
#    y 0.000000 2.144830 0.000000 
#    z 0.008050 0.000000 2.344670 
# 
# From -- ./inp_files/158047.got.cif
#   From: 2010.05.17/outbox.cif.g08.bks.cpg/sg15_80_cif.got.tgz:158047.got - 2010.06.03 18:47:42.
