data_PCOD9303606
_publ_section_title
;
Structure prediction by ZEFSAII (Michael W. Deem and Ramdas Pophale) SiO2 
 PCOD9303606
Probable space group: C 2/C
;
_chemical_formula_sum "Si O2"
_cell_formula_units_Z 64
_cell_length_a 30.593987
_cell_length_b 20.895433
_cell_length_c 15.196864
_cell_angle_alpha 90.000000
_cell_angle_beta 161.217427
_cell_angle_gamma 90.000000
_cell_volume 3128.003926
_symmetry_space_group_name_H-M "C 2/C"
_symmetry_group_IT_number 15
_symmetry_cell_setting 'monoclinic'
loop_
_space_group_symop_operation_xyz
x,y,z
-x,y,1/2-z
-x,-y,-z
x,-y,1/2+z
1/2+x,1/2+y,z
1/2-x,1/2+y,1/2-z
1/2-x,1/2-y,-z
1/2+x,1/2-y,1/2+z
loop_
_atom_site_type_symbol
_atom_site_label
_atom_site_fract_x
_atom_site_fract_y
_atom_site_fract_z
Si Si1 0.651963 0.119795 0.575102
Si Si2 0.845893 0.988111 0.491844
Si Si3 0.052839 0.065778 0.142137
Si Si4 0.186521 0.827298 0.784721
Si Si5 0.589108 0.327004 0.009882
Si Si6 0.907329 0.311976 0.357239
Si Si7 0.666527 0.788576 0.768878
Si Si8 0.339054 0.638768 0.455230
O O1 0.644073 0.147098 0.658742
O O2 0.732752 0.052813 0.726009
O O3 0.752865 0.166103 0.713910
O O4 0.500000 0.116785 0.250000
O O5 0.844505 0.960284 0.587915
O O6 0.000000 0.977078 0.750000
O O7 0.822334 0.063155 0.438420
O O8 0.108152 0.109896 0.169171
O O9 0.956246 0.114656 0.013000
O O10 0.000000 0.000000 0.000000
O O11 0.098543 0.762493 0.624377
O O12 0.228521 0.838336 0.764563
O O13 0.307969 0.819218 0.085149
O O14 0.500000 0.327914 0.750000
O O15 0.577949 0.260876 0.041139
O O16 0.057383 0.330971 0.612900
O O17 0.770078 0.825746 0.904563
O O18 0.750000 0.750000 0.000000
O O19 0.500000 0.652031 0.750000
#
# Coordination Sequence:
#
# PCOD9303606 Si02
#       8
#     8   8   8   8   8   8   8   8
#     4  12  24  45  68 101 142 185 227 293 355 413
#     4  11  22  46  70 100 134 181 245 281 338 424
#     4  12  22  40  75 105 132 174 240 291 334 402
#     4  11  23  42  70 100 141 179 229 280 347 413
#     4  12  24  44  74 102 135 188 240 285 343 422
#     4  11  24  43  67 102 139 183 227 284 348 422
#     4  12  27  44  67 104 141 175 232 289 351 414
#     4  11  26  45  70 100 138 182 228 291 350 412
#
# _framework density 20.460331
#
# number of rings (size 3 to 8) (size 9 to 14) (size 15 to 20)
#    0.000    0.500    5.000    3.750    5.250    1.000 
#    2.250    0.625    0.000    0.000    0.000    0.000 
#    0.000    0.000    0.000    0.000    0.000    0.000 
#
# Total GULP energy -178878.171759 kJ/mol
# GULP energy per Si atom -5589.942867 kJ/mol
# Density = 2.041376 g / cm^3
# Si number density = 20.460331 Si / 1000 Ang^3
#
#
#
# Elastic Constant Matrix: (Units=GPa)
#
#
# Indices 1 2 3 4 5 6 
#
# 1 102.4640 31.7977 8.3497 0.0000 11.0472 0.0000
# 2 31.7977 106.7235 14.9970 0.0000 7.5802 0.0000
# 3 8.3497 14.9970 64.3631 0.0000 3.0352 0.0000
# 4 0.0000 0.0000 0.0000 18.8018 0.0000 -0.5004
# 5 11.0472 7.5802 3.0352 0.0000 35.4173 0.0000
# 6 0.0000 0.0000 0.0000 -0.5004 0.0000 35.7130
#
#
#
# Elastic Compliance Matrix: (Units=1/GPa)
#
#
# Indices 1 2 3 4 5 6 
#
# 1 0.011039 -0.003009 -0.000601 0.000000 -0.002748 0.000000
# 2 -0.003009 0.010635 -0.002033 0.000000 -0.001163 0.000000
# 3 -0.000601 -0.002033 0.016124 0.000000 -0.000759 0.000000
# 4 0.000000 0.000000 0.000000 0.053206 0.000000 0.000745
# 5 -0.002748 -0.001163 -0.000759 0.000000 0.029406 0.000000
# 6 0.000000 0.000000 0.000000 0.000745 0.000000 0.028011
#
#
# Mechanical properties :
#
#
# Convention : Reuss Voigt Hill
#
# Bulk Modulus (GPa) = 37.71988 42.64884 40.18436
# Shear Modulus (GPa) = 29.66567 32.54684 31.10626
#
# Velocity S-wave (km/s) = 3.81190 3.99272 3.90336
# Velocity P-wave (km/s) = 6.15222 6.49197 6.32437
#
# Compressibility (1/GPa) = 0.02651122
#
# Stress axis : x y z
#
# Youngs Moduli (GPa) = 90.59109 94.03029 62.01821
#
# Poissons Ratio (x) = 0.28296 0.03729
# Poissons Ratio (y) = 0.27261 0.12607
# Poissons Ratio (z) = 0.05447 0.19114
#
# Static dielectric constant tensor:
#      x y z
#    x 1.729810 0.000000 0.000740 
#    y 0.000000 1.719560 0.000000 
#    z 0.000740 0.000000 1.734640 
# 
# From -- ./inp_files/183145.got.cif
#   From: 2010.05.17/outbox.cif.g08.bks.cpg/sg15_92_cif.got.tgz:183145.got - 2010.06.03 18:47:42.
