data_PCOD9303490
_publ_section_title
;
Structure prediction by ZEFSAII (Michael W. Deem and Ramdas Pophale) SiO2 
 PCOD9303490
Probable space group: C 2/C
;
_chemical_formula_sum "Si O2"
_cell_formula_units_Z 52
_cell_length_a 17.159722
_cell_length_b 10.366810
_cell_length_c 21.187059
_cell_angle_alpha 90.000000
_cell_angle_beta 43.698906
_cell_angle_gamma 90.000000
_cell_volume 2603.883330
_symmetry_space_group_name_H-M "C 2/C"
_symmetry_group_IT_number 15
_symmetry_cell_setting 'monoclinic'
loop_
_space_group_symop_operation_xyz
x,y,z
-x,y,1/2-z
-x,-y,-z
x,-y,1/2+z
1/2+x,1/2+y,z
1/2-x,1/2+y,1/2-z
1/2-x,1/2-y,-z
1/2+x,1/2-y,1/2+z
loop_
_atom_site_type_symbol
_atom_site_label
_atom_site_fract_x
_atom_site_fract_y
_atom_site_fract_z
Si Si1 0.314118 0.113487 0.456476
Si Si2 0.951851 0.870405 0.706973
Si Si3 0.679872 0.360143 0.503856
Si Si4 0.870379 0.526093 0.561467
Si Si5 0.223762 0.247149 0.846976
Si Si6 0.500000 0.807525 0.750000
Si Si7 0.161866 0.144219 0.748374
O O1 0.250000 0.250000 0.500000
O O2 0.365380 0.077786 0.493729
O O3 0.412966 0.117300 0.346382
O O4 0.224447 0.000844 0.496091
O O5 0.858334 0.759087 0.761189
O O6 0.000000 0.886928 0.750000
O O7 0.053486 0.841186 0.601052
O O8 0.893757 0.002597 0.718060
O O9 0.750000 0.250000 0.500000
O O10 0.692879 0.347559 0.421496
O O11 0.813245 0.386943 0.605471
O O12 0.790315 0.623060 0.648366
O O13 0.000000 0.500000 0.500000
O O14 0.168192 0.209889 0.813179
O O15 0.582978 0.723604 0.746292
#
# Coordination Sequence:
#
# PCOD9303490 Si02
#       7
#     8   8   8   8   8   4   8
#     4  12  25  45  74 107 141 193 251 292 357 439
#     4  11  22  44  74  96 147 198 235 295 368 443
#     4  12  24  44  72 103 142 190 237 294 367 431
#     4  11  24  45  70 101 152 188 233 303 371 428
#     4  11  26  43  70 109 138 189 245 295 370 432
#     4  12  24  44  76 102 140 190 244 306 354 436
#     4  11  24  45  70 104 146 192 241 299 367 430
#
# _framework density 19.970172999999999
#
# number of rings (size 3 to 8) (size 9 to 14) (size 15 to 20)
#    0.000    0.615    5.385    2.769    2.154    5.538 
#    0.000    0.000    0.000    0.000    0.000    0.000 
#    0.000    0.000    0.000    0.000    0.000    0.000 
#
# Total GULP energy -145285.593241 kJ/mol
# GULP energy per Si atom -5587.907432 kJ/mol
# Density = 1.992472 g / cm^3
# Si number density = 19.970173 Si / 1000 Ang^3
#
#
#
# Elastic Constant Matrix: (Units=GPa)
#
#
# Indices 1 2 3 4 5 6 
#
# 1 145.0017 43.9927 70.7944 0.0000 13.0958 0.0000
# 2 43.9927 60.5181 22.7607 0.0000 8.3855 0.0000
# 3 70.7944 22.7607 154.6110 0.0000 -8.7405 0.0000
# 4 0.0000 0.0000 0.0000 23.1059 0.0000 3.1544
# 5 13.0958 8.3855 -8.7405 0.0000 47.7222 0.0000
# 6 0.0000 0.0000 0.0000 3.1544 0.0000 21.0544
#
#
#
# Elastic Compliance Matrix: (Units=1/GPa)
#
#
# Indices 1 2 3 4 5 6 
#
# 1 0.011110 -0.006053 -0.004353 0.000000 -0.002782 0.000000
# 2 -0.006053 0.021419 -0.000505 0.000000 -0.002195 0.000000
# 3 -0.004353 -0.000505 0.008698 0.000000 0.002876 0.000000
# 4 0.000000 0.000000 0.000000 0.044183 0.000000 -0.006620
# 5 -0.002782 -0.002195 0.002876 0.000000 0.022631 0.000000
# 6 0.000000 0.000000 0.000000 -0.006620 0.000000 0.048488
#
#
# Mechanical properties :
#
#
# Convention : Reuss Voigt Hill
#
# Bulk Modulus (GPa) = 51.53948 70.58070 61.06009
# Shear Modulus (GPa) = 27.05355 33.21537 30.13446
#
# Velocity S-wave (km/s) = 3.68462 4.08272 3.88876
# Velocity P-wave (km/s) = 6.63069 7.59240 7.12779
#
# Compressibility (1/GPa) = 0.01940260
#
# Stress axis : x y z
#
# Youngs Moduli (GPa) = 90.01216 46.68853 114.96748
#
# Poissons Ratio (x) = 0.28262 0.50047
# Poissons Ratio (y) = 0.54486 0.05811
# Poissons Ratio (z) = 0.39183 0.02360
#
# Static dielectric constant tensor:
#      x y z
#    x 1.688230 0.000000 -0.013490 
#    y 0.000000 1.700820 0.000000 
#    z -0.013490 0.000000 1.714460 
# 
# From -- ./inp_files/248554.got.cif
#   From: 2010.05.17/outbox.cif.g08.bks.cpg/sg15_125_cif.got.tgz:248554.got - 2010.06.03 18:47:42.
