data_PCOD9303169
_publ_section_title
;
Structure prediction by ZEFSAII (Michael W. Deem and Ramdas Pophale) SiO2 
 PCOD9303169
Probable space group: C 2/C
;
_chemical_formula_sum "Si O2"
_cell_formula_units_Z 56
_cell_length_a 8.633164
_cell_length_b 26.157106
_cell_length_c 16.691503
_cell_angle_alpha 90.000000
_cell_angle_beta 43.148009
_cell_angle_gamma 90.000000
_cell_volume 2577.735944
_symmetry_space_group_name_H-M "C 2/C"
_symmetry_group_IT_number 15
_symmetry_cell_setting 'monoclinic'
loop_
_space_group_symop_operation_xyz
x,y,z
-x,y,1/2-z
-x,-y,-z
x,-y,1/2+z
1/2+x,1/2+y,z
1/2-x,1/2+y,1/2-z
1/2-x,1/2-y,-z
1/2+x,1/2-y,1/2+z
loop_
_atom_site_type_symbol
_atom_site_label
_atom_site_fract_x
_atom_site_fract_y
_atom_site_fract_z
Si Si1 0.000000 0.003918 0.250000
Si Si2 0.398978 0.944147 0.557684
Si Si3 0.000000 0.306603 0.750000
Si Si4 0.378388 0.430337 0.159076
Si Si5 0.404807 0.235948 0.568947
Si Si6 0.355347 0.917958 0.401057
Si Si7 0.709508 0.854596 0.508993
Si Si8 0.178789 0.698976 0.617096
O O1 0.014919 0.967572 0.166901
O O2 0.793714 0.041010 0.307907
O O3 0.286926 0.925645 0.517449
O O4 0.556182 0.899758 0.529935
O O5 0.500000 0.000000 0.500000
O O6 0.210423 0.268299 0.686744
O O7 0.096731 0.338595 0.637225
O O8 0.292282 0.451332 0.105298
O O9 0.129834 0.422925 0.294382
O O10 0.542077 0.381042 0.086751
O O11 0.306127 0.194688 0.543899
O O12 0.578695 0.275194 0.461390
O O13 0.566200 0.209906 0.573513
O O14 0.306984 0.861673 0.387258
O O15 0.000000 0.717450 0.750000
#
# Coordination Sequence:
#
# PCOD9303169 Si02
#       8
#     4   8   4   8   8   8   8   8
#     4  12  26  45  72 102 138 188 235 304 346 446
#     4  12  25  48  70 103 143 186 246 290 367 423
#     4  12  28  43  70 114 142 184 245 300 358 432
#     4  11  23  41  75 102 138 182 241 290 363 416
#     4  11  26  43  70 103 149 191 237 290 368 422
#     4  11  23  42  72 104 135 182 240 295 349 432
#     4  12  26  49  73 103 150 194 234 304 358 438
#     4  11  22  42  69 102 138 187 238 292 346 438
#
# _framework density 21.724492999999999
#
# number of rings (size 3 to 8) (size 9 to 14) (size 15 to 20)
#    0.000    0.571    5.714    2.143    2.000    2.857 
#    3.857    0.000    0.000    0.000    0.000    0.000 
#    0.000    0.000    0.000    0.000    0.000    0.000 
#
# Total GULP energy -156148.529939 kJ/mol
# GULP energy per Si atom -5576.733212 kJ/mol
# Density = 2.167505 g / cm^3
# Si number density = 21.724493 Si / 1000 Ang^3
#
#
#
# Elastic Constant Matrix: (Units=GPa)
#
#
# Indices 1 2 3 4 5 6 
#
# 1 111.9359 34.5562 25.9141 0.0000 -2.6902 0.0000
# 2 34.5562 67.3519 29.5906 0.0000 -7.5203 0.0000
# 3 25.9141 29.5906 82.9708 0.0000 -4.8411 0.0000
# 4 0.0000 0.0000 0.0000 42.1664 0.0000 -4.0356
# 5 -2.6902 -7.5203 -4.8411 0.0000 39.9986 0.0000
# 6 0.0000 0.0000 0.0000 -4.0356 0.0000 -1.1788
#
#
#
# Elastic Compliance Matrix: (Units=1/GPa)
#
#
# Indices 1 2 3 4 5 6 
#
# 1 0.010810 -0.004857 -0.001667 0.000000 -0.000388 0.000000
# 2 -0.004857 0.020055 -0.005473 0.000000 0.002781 0.000000
# 3 -0.001667 -0.005473 0.014561 0.000000 0.000621 0.000000
# 4 0.000000 0.000000 0.000000 0.017863 0.000000 -0.061152
# 5 -0.000388 0.002781 0.000621 0.000000 0.025573 0.000000
# 6 0.000000 0.000000 0.000000 -0.061152 0.000000 -0.638960
#
#
# Mechanical properties :
#
#
# Convention : Reuss Voigt Hill
#
# Bulk Modulus (GPa) = 46.65932 49.15337 47.90634
# Shear Modulus (GPa) = -9.63463 27.67709 9.02123
#
# Velocity S-wave (km/s) = -2.10821 3.57319 2.03999
# Velocity P-wave (km/s) = 3.94947 6.30067 5.25818
#
# Compressibility (1/GPa) = 0.02143195
#
# Stress axis : x y z
#
# Youngs Moduli (GPa) = 92.50973 49.86402 68.67647
#
# Poissons Ratio (x) = 0.24220 0.11445
# Poissons Ratio (y) = 0.44934 0.37586
# Poissons Ratio (z) = 0.15417 0.27290
#
# Static dielectric constant tensor:
#      x y z
#    x 1.822900 0.000000 0.009220 
#    y 0.000000 1.792820 0.000000 
#    z 0.009220 0.000000 1.842880 
# 
# From -- ./inp_files/193879.got.cif
#   From: 2010.05.17/outbox.cif.g08.bks.cpg/sg15_97_cif.got.tgz:193879.got - 2010.06.03 18:47:42.
