data_PCOD9303089
_publ_section_title
;
Structure prediction by ZEFSAII (Michael W. Deem and Ramdas Pophale) SiO2 
 PCOD9303089
Probable space group: C 2/C
;
_chemical_formula_sum "Si O2"
_cell_formula_units_Z 64
_cell_length_a 7.915071
_cell_length_b 28.354495
_cell_length_c 16.892115
_cell_angle_alpha 90.000000
_cell_angle_beta 46.978158
_cell_angle_gamma 90.000000
_cell_volume 2771.620592
_symmetry_space_group_name_H-M "C 2/C"
_symmetry_group_IT_number 15
_symmetry_cell_setting 'monoclinic'
loop_
_space_group_symop_operation_xyz
x,y,z
-x,y,1/2-z
-x,-y,-z
x,-y,1/2+z
1/2+x,1/2+y,z
1/2-x,1/2+y,1/2-z
1/2-x,1/2-y,-z
1/2+x,1/2-y,1/2+z
loop_
_atom_site_type_symbol
_atom_site_label
_atom_site_fract_x
_atom_site_fract_y
_atom_site_fract_z
Si Si1 0.924045 0.053040 0.998626
Si Si2 0.273844 0.303899 0.182399
Si Si3 0.769700 0.198010 0.266778
Si Si4 0.741149 0.617780 0.682267
Si Si5 0.303254 0.963502 0.253220
Si Si6 0.600441 0.134228 0.448916
Si Si7 0.582475 0.034677 0.403943
Si Si8 0.522726 0.653485 0.042678
O O1 0.093038 0.057891 0.869466
O O2 0.655364 0.050507 0.062423
O O3 0.965446 0.098712 0.040818
O O4 0.000000 0.000000 0.000000
O O5 0.321941 0.251003 0.196565
O O6 0.305561 0.339346 0.244871
O O7 0.000000 0.306246 0.250000
O O8 0.414319 0.320009 0.059450
O O9 0.604629 0.162779 0.366706
O O10 0.000000 0.196368 0.250000
O O11 0.833606 0.179578 0.158927
O O12 0.500000 0.591314 0.750000
O O13 0.909655 0.580099 0.669406
O O14 0.845402 0.631678 0.565844
O O15 0.500000 0.979996 0.250000
O O16 0.260438 0.006094 0.207443
O O17 0.693281 0.081895 0.402176
O O18 0.752435 0.155384 0.471712
O O19 0.500000 0.000000 0.500000
#
# Coordination Sequence:
#
# PCOD9303089 Si02
#       8
#     8   8   8   8   8   8   8   8
#     4  12  25  42  66  95 133 176 222 272 321 394
#     4  11  22  41  73  97 127 169 218 279 326 390
#     4   9  24  41  67 103 129 172 214 271 339 392
#     4  12  24  41  65  96 128 169 221 277 332 387
#     4  12  24  43  64  94 127 173 228 266 329 390
#     4  11  23  43  64  93 137 169 215 270 334 392
#     4  12  26  42  63  96 132 175 217 270 328 387
#     4  11  23  44  69 101 133 170 225 272 331 400
#
# _framework density 23.091183999999998
#
# number of rings (size 3 to 8) (size 9 to 14) (size 15 to 20)
#    0.000    0.750    5.000    2.625    3.500    1.500 
#    2.250    1.875    0.000    0.000    0.000    0.000 
#    0.000    0.000    0.000    0.000    0.000    0.000 
#
# Total GULP energy -178902.119847 kJ/mol
# GULP energy per Si atom -5590.691245 kJ/mol
# Density = 2.303863 g / cm^3
# Si number density = 23.091184 Si / 1000 Ang^3
#
#
#
# Elastic Constant Matrix: (Units=GPa)
#
#
# Indices 1 2 3 4 5 6 
#
# 1 36.7416 8.3237 19.5300 0.0000 4.1662 0.0000
# 2 8.3237 155.8647 87.5461 0.0000 30.7691 0.0000
# 3 19.5300 87.5461 165.1996 0.0000 25.4163 0.0000
# 4 0.0000 0.0000 0.0000 39.9453 0.0000 5.2755
# 5 4.1662 30.7691 25.4163 0.0000 26.6040 0.0000
# 6 0.0000 0.0000 0.0000 5.2755 0.0000 24.7999
#
#
#
# Elastic Compliance Matrix: (Units=1/GPa)
#
#
# Indices 1 2 3 4 5 6 
#
# 1 0.029167 0.000882 -0.003582 0.000000 -0.002165 0.000000
# 2 0.000882 0.010413 -0.004394 0.000000 -0.007983 0.000000
# 3 -0.003582 -0.004394 0.009305 0.000000 -0.003246 0.000000
# 4 0.000000 0.000000 0.000000 0.025758 0.000000 -0.005479
# 5 -0.002165 -0.007983 -0.003246 0.000000 0.050262 0.000000
# 6 0.000000 0.000000 0.000000 -0.005479 0.000000 0.041488
#
#
# Mechanical properties :
#
#
# Convention : Reuss Voigt Hill
#
# Bulk Modulus (GPa) = 28.82224 65.40061 47.11142
# Shear Modulus (GPa) = 26.02173 34.43026 30.22600
#
# Velocity S-wave (km/s) = 3.36059 3.86561 3.62191
# Velocity P-wave (km/s) = 5.25044 6.95041 6.15935
#
# Compressibility (1/GPa) = 0.03469543
#
# Stress axis : x y z
#
# Youngs Moduli (GPa) = 34.28526 96.03548 107.46973
#
# Poissons Ratio (x) = -0.08470 0.38500
# Poissons Ratio (y) = -0.03024 0.47225
# Poissons Ratio (z) = 0.12282 0.42200
#
# Static dielectric constant tensor:
#      x y z
#    x 1.958260 0.000000 0.031870 
#    y 0.000000 1.885810 0.000000 
#    z 0.031870 0.000000 1.937710 
# 
# From -- ./inp_files/139820.got.cif
#   From: 2010.05.17/outbox.cif.g08.bks.cpg/sg15_70_cif.got.tgz:139820.got - 2010.06.03 18:47:42.
