data_PCOD9303885
_publ_section_title
;
Structure prediction by ZEFSAII (Michael W. Deem and Ramdas Pophale) SiO2 
 PCOD9303885
Probable space group: C 2/C
;
_chemical_formula_sum "Si O2"
_cell_formula_units_Z 52
_cell_length_a 11.183938
_cell_length_b 21.772242
_cell_length_c 13.096659
_cell_angle_alpha 90.000000
_cell_angle_beta 53.857479
_cell_angle_gamma 90.000000
_cell_volume 2575.307757
_symmetry_space_group_name_H-M "C 2/C"
_symmetry_group_IT_number 15
_symmetry_cell_setting 'monoclinic'
loop_
_space_group_symop_operation_xyz
x,y,z
-x,y,1/2-z
-x,-y,-z
x,-y,1/2+z
1/2+x,1/2+y,z
1/2-x,1/2+y,1/2-z
1/2-x,1/2-y,-z
1/2+x,1/2-y,1/2+z
loop_
_atom_site_type_symbol
_atom_site_label
_atom_site_fract_x
_atom_site_fract_y
_atom_site_fract_z
Si Si1 0.882682 0.559716 0.900664
Si Si2 0.000000 0.871244 0.750000
Si Si3 0.842921 0.575086 0.386284
Si Si4 0.440439 0.869936 0.041422
Si Si5 0.034794 0.929278 0.951739
Si Si6 0.216730 0.148305 0.838160
Si Si7 0.217052 0.281653 0.908108
O O1 0.807159 0.493925 0.944078
O O2 0.794669 0.618454 0.900467
O O3 0.000000 0.551520 0.750000
O O4 0.955069 0.574344 0.972440
O O5 0.994623 0.912450 0.855023
O O6 0.146317 0.827751 0.682879
O O7 0.864236 0.618697 0.472327
O O8 0.706490 0.587762 0.381010
O O9 0.000000 0.576874 0.250000
O O10 0.316953 0.867892 0.191242
O O11 0.557166 0.814129 0.984341
O O12 0.939978 0.885595 0.075061
O O13 0.000000 0.000000 0.000000
O O14 0.211436 0.221473 0.840499
O O15 0.250000 0.250000 0.000000
#
# Coordination Sequence:
#
# PCOD9303885 Si02
#       7
#     8   4   8   8   8   8   8
#     4   9  18  36  62  98 133 169 218 273 329 408
#     4  12  26  44  74 104 138 188 232 294 358 402
#     4  11  24  43  65  98 140 179 225 279 346 427
#     4  11  23  40  69  94 137 187 220 281 350 401
#     4  12  26  46  69 105 145 178 233 293 350 429
#     4  11  23  42  67 105 135 175 237 287 341 410
#     4  12  22  42  74 102 138 179 239 295 334 408
#
# _framework density 20.191761
#
# number of rings (size 3 to 8) (size 9 to 14) (size 15 to 20)
#    0.000    0.923    4.615    2.308    1.077    1.846 
#    0.000    0.769    3.385    0.000    0.000    0.000 
#    0.000    0.000    0.000    0.000    0.000    0.000 
#
# Total GULP energy -144999.326223 kJ/mol
# GULP energy per Si atom -5576.897162 kJ/mol
# Density = 2.014580 g / cm^3
# Si number density = 20.191761 Si / 1000 Ang^3
#
#
#
# Elastic Constant Matrix: (Units=GPa)
#
#
# Indices 1 2 3 4 5 6 
#
# 1 113.7796 42.7836 49.4528 0.0000 -11.6730 0.0000
# 2 42.7836 109.1360 50.3418 0.0000 -0.2787 0.0000
# 3 49.4528 50.3418 105.4314 0.0000 -8.8146 0.0000
# 4 0.0000 0.0000 0.0000 25.7781 0.0000 9.6728
# 5 -11.6730 -0.2787 -8.8146 0.0000 34.0787 0.0000
# 6 0.0000 0.0000 0.0000 9.6728 0.0000 -3.5217
#
#
#
# Elastic Compliance Matrix: (Units=1/GPa)
#
#
# Indices 1 2 3 4 5 6 
#
# 1 0.011887 -0.002817 -0.003978 0.000000 0.003020 0.000000
# 2 -0.002817 0.012483 -0.004815 0.000000 -0.002108 0.000000
# 3 -0.003978 -0.004815 0.013832 0.000000 0.002176 0.000000
# 4 0.000000 0.000000 0.000000 0.019104 0.000000 0.052471
# 5 0.003020 -0.002108 0.002176 0.000000 0.030924 0.000000
# 6 0.000000 0.000000 0.000000 0.052471 0.000000 -0.139836
#
#
# Mechanical properties :
#
#
# Convention : Reuss Voigt Hill
#
# Bulk Modulus (GPa) = 66.75184 68.16706 67.45945
# Shear Modulus (GPa) = -213.74943 23.65160 -95.04891
#
# Velocity S-wave (km/s) = -10.29998 3.42621 -6.86843
# Velocity P-wave (km/s) = 10.40779 7.03456 5.42388
#
# Compressibility (1/GPa) = 0.01498086
#
# Stress axis : x y z
#
# Youngs Moduli (GPa) = 84.12502 80.10816 72.29697
#
# Poissons Ratio (x) = 0.22569 0.28759
# Poissons Ratio (y) = 0.23701 0.34813
# Poissons Ratio (z) = 0.33465 0.38574
#
# Static dielectric constant tensor:
#      x y z
#    x 1.772470 0.000000 -0.015320 
#    y 0.000000 1.772710 0.000000 
#    z -0.015320 0.000000 1.720820 
# 
# From -- ./inp_files/89521.got.cif
#   From: 2010.05.17/outbox.cif.g08.bks.cpg/sg15_45_cif.got.tgz:89521.got - 2010.06.03 18:47:42.
