data_PCOD9303846
_publ_section_title
;
Structure prediction by ZEFSAII (Michael W. Deem and Ramdas Pophale) SiO2 
 PCOD9303846
Probable space group: C 2/C
;
_chemical_formula_sum "Si O2"
_cell_formula_units_Z 48
_cell_length_a 24.832745
_cell_length_b 8.401663
_cell_length_c 19.150541
_cell_angle_alpha 90.000000
_cell_angle_beta 32.772491
_cell_angle_gamma 90.000000
_cell_volume 2162.781916
_symmetry_space_group_name_H-M "C 2/C"
_symmetry_group_IT_number 15
_symmetry_cell_setting 'monoclinic'
loop_
_space_group_symop_operation_xyz
x,y,z
-x,y,1/2-z
-x,-y,-z
x,-y,1/2+z
1/2+x,1/2+y,z
1/2-x,1/2+y,1/2-z
1/2-x,1/2-y,-z
1/2+x,1/2-y,1/2+z
loop_
_atom_site_type_symbol
_atom_site_label
_atom_site_fract_x
_atom_site_fract_y
_atom_site_fract_z
Si Si1 0.743283 0.886825 0.606851
Si Si2 0.167152 0.425882 0.940176
Si Si3 0.896745 0.923831 0.025774
Si Si4 0.388996 0.875851 0.883739
Si Si5 0.382422 0.605773 0.190636
Si Si6 0.613686 0.033805 0.859701
O O1 0.669486 0.920199 0.622852
O O2 0.811576 0.738249 0.509438
O O3 0.827496 0.009729 0.540102
O O4 0.668004 0.897616 0.755097
O O5 0.132895 0.261766 0.941521
O O6 0.280649 0.426363 0.841758
O O7 0.163145 0.550371 0.881296
O O8 0.097227 0.474720 0.079656
O O9 0.878717 0.017610 0.118708
O O10 0.014693 0.942448 0.885571
O O11 0.500000 0.808002 0.750000
O O12 0.381863 0.795593 0.181342
O O13 0.500000 0.000000 0.000000
#
# Coordination Sequence:
#
# PCOD9303846 Si02
#       6
#     8   8   8   8   8   8
#     4  11  25  48  70 106 142 189 247 295 356 428
#     4  12  23  42  71 103 139 187 234 301 355 431
#     4  11  24  40  69 107 142 179 232 294 368 424
#     4  11  28  48  73 101 145 200 242 289 361 433
#     4  11  23  40  65 108 142 177 229 295 368 417
#     4  12  23  41  74 104 140 185 237 300 364 430
#
# _framework density 22.193639000000001
#
# number of rings (size 3 to 8) (size 9 to 14) (size 15 to 20)
#    0.000    0.667    5.000    2.000    2.333    3.333 
#    0.000    0.833    0.000    0.000    0.000    0.000 
#    0.000    0.000    0.000    0.000    0.000    0.000 
#
# Total GULP energy -133926.416188 kJ/mol
# GULP energy per Si atom -5580.267341 kJ/mol
# Density = 2.214312 g / cm^3
# Si number density = 22.193639 Si / 1000 Ang^3
#
#
#
# Elastic Constant Matrix: (Units=GPa)
#
#
# Indices 1 2 3 4 5 6 
#
# 1 125.2585 21.3933 49.9371 -0.0004 -7.9460 0.0002
# 2 21.3933 53.0622 27.4004 -0.0017 4.8510 0.0011
# 3 49.9371 27.4004 139.6905 -0.0005 -25.8982 0.0003
# 4 -0.0004 -0.0017 -0.0005 34.3081 0.0003 -4.6734
# 5 -7.9460 4.8510 -25.8982 0.0003 45.2720 -0.0001
# 6 0.0002 0.0011 0.0003 -4.6734 -0.0001 25.0003
#
#
#
# Elastic Compliance Matrix: (Units=1/GPa)
#
#
# Indices 1 2 3 4 5 6 
#
# 1 0.009564 -0.002383 -0.002901 0.000000 0.000275 0.000000
# 2 -0.002383 0.022693 -0.004617 0.000001 -0.005491 -0.000001
# 3 -0.002901 -0.004617 0.010178 0.000000 0.005808 0.000000
# 4 0.000000 0.000001 0.000000 0.029909 0.000000 0.005591
# 5 0.000275 -0.005491 0.005808 0.000000 0.026048 0.000000
# 6 0.000000 -0.000001 0.000000 0.005591 0.000000 0.041045
#
#
# Mechanical properties :
#
#
# Convention : Reuss Voigt Hill
#
# Bulk Modulus (GPa) = 44.18359 57.27474 50.72917
# Shear Modulus (GPa) = 29.97883 35.53479 32.75681
#
# Velocity S-wave (km/s) = 3.67929 4.00575 3.84598
# Velocity P-wave (km/s) = 6.16450 6.87441 6.52911
#
# Compressibility (1/GPa) = 0.02263284
#
# Stress axis : x y z
#
# Youngs Moduli (GPa) = 104.55440 44.06639 98.24990
#
# Poissons Ratio (x) = 0.10503 0.28499
# Poissons Ratio (y) = 0.24919 0.45365
# Poissons Ratio (z) = 0.30328 0.20347
#
# Static dielectric constant tensor:
#      x y z
#    x 1.806770 0.000000 -0.035270 
#    y 0.000000 1.871060 0.000000 
#    z -0.035270 0.000000 1.890780 
# 
# From -- ./inp_files/257142.got.cif
#   From: 2010.05.17/outbox.cif.g08.bks.cpg/sg15_129_cif.got.tgz:257142.got - 2010.06.03 18:47:42.
