data_PCOD9303455
_publ_section_title
;
Structure prediction by ZEFSAII (Michael W. Deem and Ramdas Pophale) SiO2 
 PCOD9303455
Probable space group: C 2/C
;
_chemical_formula_sum "Si O2"
_cell_formula_units_Z 32
_cell_length_a 12.240378
_cell_length_b 8.134740
_cell_length_c 13.450997
_cell_angle_alpha 90.000000
_cell_angle_beta 65.418305
_cell_angle_gamma 90.000000
_cell_volume 1217.960362
_symmetry_space_group_name_H-M "C 2/C"
_symmetry_group_IT_number 15
_symmetry_cell_setting 'monoclinic'
loop_
_space_group_symop_operation_xyz
x,y,z
-x,y,1/2-z
-x,-y,-z
x,-y,1/2+z
1/2+x,1/2+y,z
1/2-x,1/2+y,1/2-z
1/2-x,1/2-y,-z
1/2+x,1/2-y,1/2+z
loop_
_atom_site_type_symbol
_atom_site_label
_atom_site_fract_x
_atom_site_fract_y
_atom_site_fract_z
Si Si1 0.428650 0.555017 0.873295
Si Si2 0.626582 0.017176 0.752808
Si Si3 0.727435 0.187049 0.369517
Si Si4 0.535164 0.739701 0.452069
O O1 0.500000 0.616096 0.750000
O O2 0.313934 0.450306 0.882907
O O3 0.518906 0.423256 0.891163
O O4 0.404680 0.690699 0.966243
O O5 0.500000 0.983298 0.750000
O O6 0.704904 0.138685 0.655782
O O7 0.596574 0.121698 0.863647
O O8 0.698484 0.862059 0.766258
O O9 0.600212 0.205306 0.470604
#
# Coordination Sequence:
#
# PCOD9303455 Si02
#       4
#     8   8   8   8
#     4  11  22  44  72 101 138 180 232 281 343 411
#     4  12  27  46  69 105 142 179 235 281 337 417
#     4  12  25  43  72  98 141 187 222 283 347 395
#     4  11  24  43  72 103 138 181 229 285 340 409
#
# _framework density 26.273432
#
# number of rings (size 3 to 8) (size 9 to 14) (size 15 to 20)
#    0.000    0.500    5.000    3.000    3.500    4.000 
#    0.000    0.000    0.000    0.000    0.000    0.000 
#    0.000    0.000    0.000    0.000    0.000    0.000 
#
# Total GULP energy -89863.104255 kJ/mol
# GULP energy per Si atom -5616.444016 kJ/mol
# Density = 2.621363 g / cm^3
# Si number density = 26.273432 Si / 1000 Ang^3
#
#
#
# Elastic Constant Matrix: (Units=GPa)
#
#
# Indices 1 2 3 4 5 6 
#
# 1 125.4314 25.9351 25.0650 0.0000 16.0539 0.0000
# 2 25.9351 72.8320 25.2099 0.0000 7.4649 0.0000
# 3 25.0650 25.2099 98.1552 0.0000 9.6633 0.0000
# 4 0.0000 0.0000 0.0000 30.6167 0.0000 14.0756
# 5 16.0539 7.4649 9.6633 0.0000 54.8677 0.0000
# 6 0.0000 0.0000 0.0000 14.0756 0.0000 44.3403
#
#
#
# Elastic Compliance Matrix: (Units=1/GPa)
#
#
# Indices 1 2 3 4 5 6 
#
# 1 0.009045 -0.002504 -0.001465 0.000000 -0.002048 0.000000
# 2 -0.002504 0.015868 -0.003354 0.000000 -0.000836 0.000000
# 3 -0.001465 -0.003354 0.011536 0.000000 -0.001147 0.000000
# 4 0.000000 0.000000 0.000000 0.038243 0.000000 -0.012140
# 5 -0.002048 -0.000836 -0.001147 0.000000 0.019140 0.000000
# 6 0.000000 0.000000 0.000000 -0.012140 0.000000 0.026407
#
#
# Mechanical properties :
#
#
# Convention : Reuss Voigt Hill
#
# Bulk Modulus (GPa) = 45.86296 49.87096 47.86696
# Shear Modulus (GPa) = 35.17313 40.64554 37.90934
#
# Velocity S-wave (km/s) = 3.66284 3.93749 3.80264
# Velocity P-wave (km/s) = 5.94832 6.30035 6.12686
#
# Compressibility (1/GPa) = 0.02180409
#
# Stress axis : x y z
#
# Youngs Moduli (GPa) = 110.55737 63.01826 86.68226
#
# Poissons Ratio (x) = 0.15779 0.12699
# Poissons Ratio (y) = 0.27682 0.29073
# Poissons Ratio (z) = 0.16197 0.21136
#
# Static dielectric constant tensor:
#      x y z
#    x 2.006620 0.000000 0.045200 
#    y 0.000000 2.080530 0.000000 
#    z 0.045200 0.000000 2.063850 
# 
# From -- ./inp_files/111924.got.cif
#   From: 2010.05.17/outbox.cif.g08.bks.cpg/sg15_56_cif.got.tgz:111924.got - 2010.06.03 18:47:42.
