data_PCOD9303907
_publ_section_title
;
Structure prediction by ZEFSAII (Michael W. Deem and Ramdas Pophale) SiO2 
 PCOD9303907
Probable space group: C 2/C
;
_chemical_formula_sum "Si O2"
_cell_formula_units_Z 60
_cell_length_a 15.813519
_cell_length_b 9.889059
_cell_length_c 21.353523
_cell_angle_alpha 90.000000
_cell_angle_beta 124.952923
_cell_angle_gamma 90.000000
_cell_volume 2736.952064
_symmetry_space_group_name_H-M "C 2/C"
_symmetry_group_IT_number 15
_symmetry_cell_setting 'monoclinic'
loop_
_space_group_symop_operation_xyz
x,y,z
-x,y,1/2-z
-x,-y,-z
x,-y,1/2+z
1/2+x,1/2+y,z
1/2-x,1/2+y,1/2-z
1/2-x,1/2-y,-z
1/2+x,1/2-y,1/2+z
loop_
_atom_site_type_symbol
_atom_site_label
_atom_site_fract_x
_atom_site_fract_y
_atom_site_fract_z
Si Si1 0.678476 0.462894 0.713058
Si Si2 0.712346 0.045359 0.866299
Si Si3 0.167638 0.839152 0.502451
Si Si4 0.500000 0.077298 0.250000
Si Si5 0.640411 0.050222 0.114251
Si Si6 0.036996 0.223422 0.650178
Si Si7 0.440351 0.752646 0.413064
Si Si8 0.179105 0.725399 0.029658
O O1 0.750246 0.482779 0.682850
O O2 0.752944 0.446269 0.803044
O O3 0.615064 0.600875 0.693576
O O4 0.607277 0.336177 0.663538
O O5 0.770638 0.970432 0.948056
O O6 0.591427 0.016368 0.815534
O O7 0.756643 0.195177 0.889823
O O8 0.250000 0.750000 0.500000
O O9 0.070348 0.846235 0.414988
O O10 0.119144 0.784896 0.547556
O O11 0.468406 0.178666 0.292394
O O12 0.572356 0.176146 0.109578
O O13 0.662746 0.074986 0.050341
O O14 0.562353 0.277243 0.969604
O O15 0.417788 0.911334 0.395382
O O16 0.250000 0.750000 0.000000
#
# Coordination Sequence:
#
# PCOD9303907 Si02
#       8
#     8   8   8   4   8   8   8   8
#     4  11  24  46  72  99 143 187 230 298 370 421
#     4  11  24  44  69 103 141 183 240 294 362 425
#     4  11  23  40  73  98 135 179 233 294 349 424
#     4  12  26  40  74 110 138 188 242 306 360 456
#     4  12  25  44  75 102 144 191 241 296 363 433
#     4  12  24  45  69 106 139 186 240 294 366 431
#     4  11  26  46  70 104 138 187 241 291 360 429
#     4  12  28  46  70 103 146 192 243 294 358 430
#
# _framework density 21.922196
#
# number of rings (size 3 to 8) (size 9 to 14) (size 15 to 20)
#    0.000    0.533    5.333    2.000    5.600    2.133 
#    2.400    0.000    0.000    0.000    0.000    0.000 
#    0.000    0.000    0.000    0.000    0.000    0.000 
#
# Total GULP energy -167669.333804 kJ/mol
# GULP energy per Si atom -5588.977793 kJ/mol
# Density = 2.187230 g / cm^3
# Si number density = 21.922196 Si / 1000 Ang^3
#
#
#
# Elastic Constant Matrix: (Units=GPa)
#
#
# Indices 1 2 3 4 5 6 
#
# 1 111.2875 27.9409 35.5694 0.0000 13.6909 0.0000
# 2 27.9409 96.8027 34.7211 0.0000 24.7456 0.0000
# 3 35.5694 34.7211 111.3384 0.0000 30.8127 0.0000
# 4 0.0000 0.0000 0.0000 26.1090 0.0000 0.1448
# 5 13.6909 24.7456 30.8127 0.0000 39.7369 0.0000
# 6 0.0000 0.0000 0.0000 0.1448 0.0000 34.1012
#
#
#
# Elastic Compliance Matrix: (Units=1/GPa)
#
#
# Indices 1 2 3 4 5 6 
#
# 1 0.010352 -0.001973 -0.002604 0.000000 -0.000319 0.000000
# 2 -0.001973 0.013093 -0.001763 0.000000 -0.006107 0.000000
# 3 -0.002604 -0.001763 0.012492 0.000000 -0.007692 0.000000
# 4 0.000000 0.000000 0.000000 0.038302 0.000000 -0.000163
# 5 -0.000319 -0.006107 -0.007692 0.000000 0.035043 0.000000
# 6 0.000000 0.000000 0.000000 -0.000163 0.000000 0.029325
#
#
# Mechanical properties :
#
#
# Convention : Reuss Voigt Hill
#
# Bulk Modulus (GPa) = 42.99399 57.32128 50.15763
# Shear Modulus (GPa) = 31.43893 34.73589 33.08741
#
# Velocity S-wave (km/s) = 3.79108 3.98491 3.88920
# Velocity P-wave (km/s) = 6.23038 6.88310 6.56486
#
# Compressibility (1/GPa) = 0.02325907
#
# Stress axis : x y z
#
# Youngs Moduli (GPa) = 96.59517 76.37639 80.05242
#
# Poissons Ratio (x) = 0.15066 0.20844
# Poissons Ratio (y) = 0.19054 0.14112
# Poissons Ratio (z) = 0.25151 0.13464
#
# Static dielectric constant tensor:
#      x y z
#    x 1.860590 0.000000 -0.015950 
#    y 0.000000 1.845980 0.000000 
#    z -0.015950 0.000000 1.831370 
# 
# From -- ./inp_files/277275.got.cif
#   From: 2010.05.17/outbox.cif.g08.bks.cpg/sg15_139_cif.got.tgz:277275.got - 2010.06.03 18:47:42.
