data_PCOD9303876
_publ_section_title
;
Structure prediction by ZEFSAII (Michael W. Deem and Ramdas Pophale) SiO2 
 PCOD9303876
Probable space group: C 2/C
;
_chemical_formula_sum "Si O2"
_cell_formula_units_Z 64
_cell_length_a 11.492104
_cell_length_b 30.517114
_cell_length_c 12.692839
_cell_angle_alpha 90.000000
_cell_angle_beta 46.139213
_cell_angle_gamma 90.000000
_cell_volume 3209.611046
_symmetry_space_group_name_H-M "C 2/C"
_symmetry_group_IT_number 15
_symmetry_cell_setting 'monoclinic'
loop_
_space_group_symop_operation_xyz
x,y,z
-x,y,1/2-z
-x,-y,-z
x,-y,1/2+z
1/2+x,1/2+y,z
1/2-x,1/2+y,1/2-z
1/2-x,1/2-y,-z
1/2+x,1/2-y,1/2+z
loop_
_atom_site_type_symbol
_atom_site_label
_atom_site_fract_x
_atom_site_fract_y
_atom_site_fract_z
Si Si1 0.837127 0.712433 0.675909
Si Si2 0.329373 0.318005 0.419438
Si Si3 0.344785 0.583173 0.924363
Si Si4 0.580941 0.453174 0.434626
Si Si5 0.386156 0.379435 0.919269
Si Si6 0.489640 0.295144 0.988614
Si Si7 0.618289 0.041312 0.915175
Si Si8 0.025198 0.623625 0.612036
O O1 0.790750 0.708059 0.580886
O O2 0.951932 0.754188 0.617269
O O3 0.918189 0.666532 0.657521
O O4 0.674041 0.716730 0.845884
O O5 0.500000 0.317968 0.250000
O O6 0.275054 0.368332 0.458984
O O7 0.372232 0.303248 0.509846
O O8 0.500000 0.580048 0.750000
O O9 0.432622 0.574679 0.978400
O O10 0.209750 0.549992 0.968472
O O11 0.500000 0.500000 0.500000
O O12 0.634263 0.423927 0.500004
O O13 0.734503 0.460921 0.261838
O O14 0.500000 0.388582 0.750000
O O15 0.455337 0.339666 0.946465
O O16 0.212406 0.365153 0.985259
O O17 0.522434 0.084252 0.935706
O O18 0.500000 0.000000 0.000000
O O19 0.000000 0.610328 0.750000
#
# Coordination Sequence:
#
# PCOD9303876 Si02
#       8
#     8   8   8   8   8   8   8   8
#     4  11  23  40  68  98 131 172 217 272 333 393
#     4   9  17  37  66  93 125 166 214 264 327 384
#     4   9  18  37  67  92 120 165 213 258 320 386
#     4  11  24  43  67  96 132 170 217 269 323 391
#     4  12  28  45  68  92 133 181 222 269 324 394
#     4  11  23  42  66  98 130 171 221 273 328 393
#     4  11  24  41  69 100 129 167 215 271 328 392
#     4  12  24  45  67  93 133 178 218 265 331 391
#
# _framework density 19.940111000000002
#
# number of rings (size 3 to 8) (size 9 to 14) (size 15 to 20)
#    0.000    1.250    5.000    0.375    5.250    1.500 
#    0.000    0.000    0.000    3.000    0.000    0.000 
#    0.000    0.000    0.000    0.000    0.000    0.000 
#
# Total GULP energy -178579.155123 kJ/mol
# GULP energy per Si atom -5580.598598 kJ/mol
# Density = 1.989473 g / cm^3
# Si number density = 19.940111 Si / 1000 Ang^3
#
#
#
# Elastic Constant Matrix: (Units=GPa)
#
#
# Indices 1 2 3 4 5 6 
#
# 1 76.6273 26.0966 29.4596 0.0000 -14.9862 0.0000
# 2 26.0966 121.0548 32.9729 0.0000 -13.6271 0.0000
# 3 29.4596 32.9729 68.2515 0.0000 -5.6828 0.0000
# 4 0.0000 0.0000 0.0000 28.6550 0.0000 -12.6153
# 5 -14.9862 -13.6271 -5.6828 0.0000 20.7934 0.0000
# 6 0.0000 0.0000 0.0000 -12.6153 0.0000 23.7101
#
#
#
# Elastic Compliance Matrix: (Units=1/GPa)
#
#
# Indices 1 2 3 4 5 6 
#
# 1 0.017885 -0.000928 -0.006394 0.000000 0.010534 0.000000
# 2 -0.000928 0.010119 -0.004084 0.000000 0.004846 0.000000
# 3 -0.006394 -0.004084 0.019216 0.000000 -0.002034 0.000000
# 4 0.000000 0.000000 0.000000 0.045573 0.000000 0.024248
# 5 0.010534 0.004846 -0.002034 0.000000 0.058305 0.000000
# 6 0.000000 0.000000 0.000000 0.024248 0.000000 0.055077
#
#
# Mechanical properties :
#
#
# Convention : Reuss Voigt Hill
#
# Bulk Modulus (GPa) = 40.97392 49.22131 45.09761
# Shear Modulus (GPa) = 21.08617 26.45868 23.77242
#
# Velocity S-wave (km/s) = 3.25541 3.64663 3.45656
# Velocity P-wave (km/s) = 5.89265 6.51680 6.21257
#
# Compressibility (1/GPa) = 0.02440577
#
# Stress axis : x y z
#
# Youngs Moduli (GPa) = 55.91373 98.82548 52.04125
#
# Poissons Ratio (x) = 0.09172 0.33276
# Poissons Ratio (y) = 0.05189 0.21256
# Poissons Ratio (z) = 0.35752 0.40364
#
# Static dielectric constant tensor:
#      x y z
#    x 1.766820 0.000000 0.015210 
#    y 0.000000 1.723020 0.000000 
#    z 0.015210 0.000000 1.706170 
# 
# From -- ./inp_files/148741.got.cif
#   From: 2010.05.17/outbox.cif.g08.bks.cpg/sg15_75_cif.got.tgz:148741.got - 2010.06.03 18:47:42.
