data_PCOD9303496
_publ_section_title
;
Structure prediction by ZEFSAII (Michael W. Deem and Ramdas Pophale) SiO2 
 PCOD9303496
Probable space group: C 2/C
;
_chemical_formula_sum "Si O2"
_cell_formula_units_Z 24
_cell_length_a 20.639725
_cell_length_b 5.240243
_cell_length_c 23.433811
_cell_angle_alpha 90.000000
_cell_angle_beta 21.493038
_cell_angle_gamma 90.000000
_cell_volume 928.623559
_symmetry_space_group_name_H-M "C 2/C"
_symmetry_group_IT_number 15
_symmetry_cell_setting 'monoclinic'
loop_
_space_group_symop_operation_xyz
x,y,z
-x,y,1/2-z
-x,-y,-z
x,-y,1/2+z
1/2+x,1/2+y,z
1/2-x,1/2+y,1/2-z
1/2-x,1/2-y,-z
1/2+x,1/2-y,1/2+z
loop_
_atom_site_type_symbol
_atom_site_label
_atom_site_fract_x
_atom_site_fract_y
_atom_site_fract_z
Si Si1 0.680363 0.819148 0.118958
Si Si2 0.398764 0.752160 0.605123
Si Si3 0.068236 0.027887 0.318452
O O1 0.500000 0.970016 0.250000
O O2 0.620986 0.587729 0.209678
O O3 0.750000 0.750000 0.000000
O O4 0.858288 0.937393 0.998803
O O5 0.500000 0.500000 0.500000
O O6 0.201391 0.781292 0.742389
O O7 0.394199 0.731011 0.677880
O O8 0.500000 0.000000 0.500000
#
# Coordination Sequence:
#
# PCOD9303496 Si02
#       3
#     8   8   8
#     4   9  20  41  77 116 160 222 273 334 397 495
#     4  12  26  45  75 124 159 208 259 339 416 487
#     4  11  22  44  75 120 165 209 273 338 418 484
#
# _framework density 25.844701000000001
#
# number of rings (size 3 to 8) (size 9 to 14) (size 15 to 20)
#    0.000    1.333    3.333    2.000    0.000    0.000 
#    0.000    0.000    0.000   26.000    0.000    0.000 
#    0.000    0.000    0.000    0.000    0.000    0.000 
#
# Total GULP energy -66926.847510 kJ/mol
# GULP energy per Si atom -5577.237292 kJ/mol
# Density = 2.578588 g / cm^3
# Si number density = 25.844701 Si / 1000 Ang^3
#
#
#
# Elastic Constant Matrix: (Units=GPa)
#
#
# Indices 1 2 3 4 5 6 
#
# 1 187.6857 43.3200 79.9944 -0.0047 -7.9754 0.0029
# 2 43.3200 148.5364 60.3099 -0.0051 -3.4618 0.0013
# 3 79.9944 60.3099 185.6484 -0.0112 -35.1842 0.0140
# 4 -0.0047 -0.0051 -0.0112 46.3910 0.0044 11.1044
# 5 -7.9754 -3.4618 -35.1842 0.0044 91.0755 -0.0021
# 6 0.0029 0.0013 0.0140 11.1044 -0.0021 18.9755
#
#
#
# Elastic Compliance Matrix: (Units=1/GPa)
#
#
# Indices 1 2 3 4 5 6 
#
# 1 0.006647 -0.000864 -0.002675 0.000000 -0.000484 0.000001
# 2 -0.000864 0.007913 -0.002326 0.000000 -0.000673 0.000001
# 3 -0.002675 -0.002326 0.007805 0.000003 0.002693 -0.000006
# 4 0.000000 0.000000 0.000003 0.025067 -0.000001 -0.014669
# 5 -0.000484 -0.000673 0.002693 -0.000001 0.011952 0.000000
# 6 0.000001 0.000001 -0.000006 -0.014669 0.000000 0.061284
#
#
# Mechanical properties :
#
#
# Convention : Reuss Voigt Hill
#
# Bulk Modulus (GPa) = 94.02816 98.79101 96.40959
# Shear Modulus (GPa) = 36.77981 53.83814 45.30898
#
# Velocity S-wave (km/s) = 3.77650 4.56909 4.19158
# Velocity P-wave (km/s) = 7.44828 8.13286 7.79809
#
# Compressibility (1/GPa) = 0.01063511
#
# Stress axis : x y z
#
# Youngs Moduli (GPa) = 150.44138 126.37428 128.11754
#
# Poissons Ratio (x) = 0.10914 0.34277
# Poissons Ratio (y) = 0.12992 0.29802
# Poissons Ratio (z) = 0.40249 0.29397
#
# Static dielectric constant tensor:
#      x y z
#    x 2.165270 -0.000020 0.077660 
#    y -0.000020 2.054590 0.000010 
#    z 0.077660 0.000010 1.782670 
# 
# From -- ./inp_files/283055.got.cif
#   From: 2010.05.17/outbox.cif.g08.bks.cpg/sg15_142_cif.got.tgz:283055.got - 2010.06.03 18:47:42.
