data_PCOD9303308
_publ_section_title
;
Structure prediction by ZEFSAII (Michael W. Deem and Ramdas Pophale) SiO2 
 PCOD9303308
Probable space group: C 2/C
;
_chemical_formula_sum "Si O2"
_cell_formula_units_Z 56
_cell_length_a 8.852664
_cell_length_b 11.567163
_cell_length_c 22.222990
_cell_angle_alpha 90.000000
_cell_angle_beta 68.031383
_cell_angle_gamma 90.000000
_cell_volume 2110.402154
_symmetry_space_group_name_H-M "C 2/C"
_symmetry_group_IT_number 15
_symmetry_cell_setting 'monoclinic'
loop_
_space_group_symop_operation_xyz
x,y,z
-x,y,1/2-z
-x,-y,-z
x,-y,1/2+z
1/2+x,1/2+y,z
1/2-x,1/2+y,1/2-z
1/2-x,1/2-y,-z
1/2+x,1/2-y,1/2+z
loop_
_atom_site_type_symbol
_atom_site_label
_atom_site_fract_x
_atom_site_fract_y
_atom_site_fract_z
Si Si1 0.648470 0.146389 0.103107
Si Si2 0.400794 0.982984 0.182773
Si Si3 0.906695 0.999801 0.699633
Si Si4 0.687772 0.603537 0.606992
Si Si5 0.718001 0.447827 0.486925
Si Si6 0.447872 0.735678 0.329067
Si Si7 0.391459 0.221697 0.045667
O O1 0.507499 0.098428 0.167819
O O2 0.740347 0.263894 0.104783
O O3 0.549065 0.181640 0.057722
O O4 0.745860 0.030245 0.074398
O O5 0.279958 0.982257 0.257442
O O6 0.289223 0.973896 0.139152
O O7 0.499192 0.864732 0.163715
O O8 0.000000 0.001619 0.750000
O O9 0.951716 0.877131 0.663095
O O10 0.995666 0.102680 0.652290
O O11 0.689795 0.538034 0.544268
O O12 0.593118 0.349151 0.485160
O O13 0.859069 0.366914 0.495446
O O14 0.500000 0.730715 0.250000
O O15 0.266847 0.722528 0.385424
#
# Coordination Sequence:
#
# PCOD9303308 Si02
#       7
#     8   8   8   8   8   8   8
#     4  12  24  43  70  96 138 174 221 279 333 401
#     4  11  24  44  68  97 137 175 224 279 340 400
#     4   9  20  41  63  90 127 172 220 268 333 393
#     4  11  24  43  68  98 134 178 222 275 341 399
#     4  11  23  44  66 102 134 177 228 271 335 406
#     4  11  22  43  69  97 132 179 227 276 335 397
#     4  11  23  42  73  97 132 182 225 272 339 396
#
# _framework density 26.535228
#
# number of rings (size 3 to 8) (size 9 to 14) (size 15 to 20)
#    0.000    1.143    4.286    2.571    4.000    0.571 
#    5.143    0.000    0.000    0.000    0.000    0.000 
#    0.000    0.000    0.000    0.000    0.000    0.000 
#
# Total GULP energy -156629.942204 kJ/mol
# GULP energy per Si atom -5593.926507 kJ/mol
# Density = 2.647483 g / cm^3
# Si number density = 26.535228 Si / 1000 Ang^3
#
#
#
# Elastic Constant Matrix: (Units=GPa)
#
#
# Indices 1 2 3 4 5 6 
#
# 1 45.3320 26.7100 9.7535 0.0000 9.6692 0.0000
# 2 26.7100 193.8890 34.8320 0.0000 -19.2147 0.0000
# 3 9.7535 34.8320 107.3577 0.0000 -18.9580 0.0000
# 4 0.0000 0.0000 0.0000 44.1918 0.0000 -1.7990
# 5 9.6692 -19.2147 -18.9580 0.0000 32.5798 0.0000
# 6 0.0000 0.0000 0.0000 -1.7990 0.0000 33.3851
#
#
#
# Elastic Compliance Matrix: (Units=1/GPa)
#
#
# Indices 1 2 3 4 5 6 
#
# 1 0.028275 -0.004581 -0.003390 0.000000 -0.013066 0.000000
# 2 -0.004581 0.006400 -0.000840 0.000000 0.004645 0.000000
# 3 -0.003390 -0.000840 0.011129 0.000000 0.006986 0.000000
# 4 0.000000 0.000000 0.000000 0.022678 0.000000 0.001222
# 5 -0.013066 0.004645 0.006986 0.000000 0.041377 0.000000
# 6 0.000000 0.000000 0.000000 0.001222 0.000000 0.030019
#
#
# Mechanical properties :
#
#
# Convention : Reuss Voigt Hill
#
# Bulk Modulus (GPa) = 35.48330 54.35219 44.91775
# Shear Modulus (GPa) = 29.95925 40.38357 35.17141
#
# Velocity S-wave (km/s) = 3.36376 3.90537 3.64464
# Velocity P-wave (km/s) = 5.33739 6.39244 5.88859
#
# Compressibility (1/GPa) = 0.02818227
#
# Stress axis : x y z
#
# Youngs Moduli (GPa) = 35.36713 156.25207 89.85650
#
# Poissons Ratio (x) = 0.71579 0.30459
# Poissons Ratio (y) = 0.16202 0.07548
# Poissons Ratio (z) = 0.11988 0.13125
#
# Static dielectric constant tensor:
#      x y z
#    x 2.115500 0.000000 -0.030380 
#    y 0.000000 2.004660 0.000000 
#    z -0.030380 0.000000 2.155500 
# 
# From -- ./inp_files/310223.got.cif
#   From: 2010.05.17/outbox.cif.g08.bks.cpg/sg15_156_cif.got.tgz:310223.got - 2010.06.03 18:47:42.
