data_PCOD9303094
_publ_section_title
;
Structure prediction by ZEFSAII (Michael W. Deem and Ramdas Pophale) SiO2 
 PCOD9303094
Probable space group: C 2/C
;
_chemical_formula_sum "Si O2"
_cell_formula_units_Z 36
_cell_length_a 14.245520
_cell_length_b 6.860508
_cell_length_c 16.695365
_cell_angle_alpha 90.000000
_cell_angle_beta 123.728700
_cell_angle_gamma 90.000000
_cell_volume 1357.015214
_symmetry_space_group_name_H-M "C 2/C"
_symmetry_group_IT_number 15
_symmetry_cell_setting 'monoclinic'
loop_
_space_group_symop_operation_xyz
x,y,z
-x,y,1/2-z
-x,-y,-z
x,-y,1/2+z
1/2+x,1/2+y,z
1/2-x,1/2+y,1/2-z
1/2-x,1/2-y,-z
1/2+x,1/2-y,1/2+z
loop_
_atom_site_type_symbol
_atom_site_label
_atom_site_fract_x
_atom_site_fract_y
_atom_site_fract_z
Si Si1 0.000000 0.572407 0.250000
Si Si2 0.070436 0.486533 0.950081
Si Si3 0.235812 0.257333 0.621784
Si Si4 0.803772 0.845184 0.215960
Si Si5 0.621734 0.390174 0.541885
O O1 0.982080 0.451791 0.159568
O O2 0.895529 0.709804 0.219379
O O3 0.170049 0.624262 0.023378
O O4 0.100080 0.257708 0.958659
O O5 0.000000 0.500000 0.000000
O O6 0.182980 0.189664 0.682901
O O7 0.316602 0.431322 0.692677
O O8 0.179494 0.740703 0.633836
O O9 0.723131 0.457179 0.077036
O O10 0.500000 0.500000 0.500000
#
# Coordination Sequence:
#
# PCOD9303094 Si02
#       5
#     4   8   8   8   8
#     4  12  26  50  70 118 152 194 256 328 370 446
#     4  11  23  44  76 103 152 201 241 310 381 443
#     4  11  22  44  75 107 143 205 243 301 383 450
#     4  11  24  41  76 106 152 194 254 310 379 446
#     4  11  22  41  76 107 146 197 256 300 375 456
#
# _framework density 26.528811000000001
#
# number of rings (size 3 to 8) (size 9 to 14) (size 15 to 20)
#    0.000    0.889    6.667    0.000    0.000    3.556 
#    0.000    6.667    0.000    0.000    0.000    0.000 
#    0.000    0.000    0.000    0.000    0.000    0.000 
#
# Total GULP energy -100207.055169 kJ/mol
# GULP energy per Si atom -5567.058620 kJ/mol
# Density = 2.646843 g / cm^3
# Si number density = 26.528811 Si / 1000 Ang^3
#
#
#
# Elastic Constant Matrix: (Units=GPa)
#
#
# Indices 1 2 3 4 5 6 
#
# 1 74.1122 13.5018 44.6237 0.0000 9.8701 0.0000
# 2 13.5018 125.3808 26.1038 0.0000 21.1132 0.0000
# 3 44.6237 26.1038 201.6048 0.0000 -18.4468 0.0000
# 4 0.0000 0.0000 0.0000 22.6605 0.0000 16.2378
# 5 9.8701 21.1132 -18.4468 0.0000 36.5946 0.0000
# 6 0.0000 0.0000 0.0000 16.2378 0.0000 29.9553
#
#
#
# Elastic Compliance Matrix: (Units=1/GPa)
#
#
# Indices 1 2 3 4 5 6 
#
# 1 0.017056 0.000268 -0.004450 0.000000 -0.006998 0.000000
# 2 0.000268 0.009422 -0.001870 0.000000 -0.006451 0.000000
# 3 -0.004450 -0.001870 0.006705 0.000000 0.005659 0.000000
# 4 0.000000 0.000000 0.000000 0.072158 0.000000 -0.039114
# 5 -0.006998 -0.006451 0.005659 0.000000 0.035789 0.000000
# 6 0.000000 0.000000 0.000000 -0.039114 0.000000 0.054586
#
#
# Mechanical properties :
#
#
# Convention : Reuss Voigt Hill
#
# Bulk Modulus (GPa) = 47.43830 63.28404 55.36117
# Shear Modulus (GPa) = 23.27256 38.96664 31.11960
#
# Velocity S-wave (km/s) = 2.96506 3.83671 3.42870
# Velocity P-wave (km/s) = 5.44452 6.59801 6.04882
#
# Compressibility (1/GPa) = 0.02108001
#
# Stress axis : x y z
#
# Youngs Moduli (GPa) = 58.63139 106.13022 149.14011
#
# Poissons Ratio (x) = -0.02848 0.66371
# Poissons Ratio (y) = -0.01573 0.27884
# Poissons Ratio (z) = 0.26092 0.19843
#
# Static dielectric constant tensor:
#      x y z
#    x 2.235450 0.000000 0.015260 
#    y 0.000000 2.163070 0.000000 
#    z 0.015260 0.000000 2.153940 
# 
# From -- ./inp_files/158919.got.cif
#   From: 2010.05.17/outbox.cif.g08.bks.cpg/sg15_80_cif.got.tgz:158919.got - 2010.06.03 18:47:42.
