data_PCOD9303421
_publ_section_title
;
Structure prediction by ZEFSAII (Michael W. Deem and Ramdas Pophale) SiO2 
 PCOD9303421
Probable space group: C 2/C
;
_chemical_formula_sum "Si O2"
_cell_formula_units_Z 52
_cell_length_a 16.407220
_cell_length_b 9.997193
_cell_length_c 18.323391
_cell_angle_alpha 90.000000
_cell_angle_beta 126.037697
_cell_angle_gamma 90.000000
_cell_volume 2430.350028
_symmetry_space_group_name_H-M "C 2/C"
_symmetry_group_IT_number 15
_symmetry_cell_setting 'monoclinic'
loop_
_space_group_symop_operation_xyz
x,y,z
-x,y,1/2-z
-x,-y,-z
x,-y,1/2+z
1/2+x,1/2+y,z
1/2-x,1/2+y,1/2-z
1/2-x,1/2-y,-z
1/2+x,1/2-y,1/2+z
loop_
_atom_site_type_symbol
_atom_site_label
_atom_site_fract_x
_atom_site_fract_y
_atom_site_fract_z
Si Si1 0.500000 0.735707 0.250000
Si Si2 0.311510 0.131281 0.994030
Si Si3 0.191213 0.442979 0.164317
Si Si4 0.651325 0.445132 0.133564
Si Si5 0.703804 0.863171 0.421590
Si Si6 0.039028 0.686197 0.062973
Si Si7 0.947534 0.200804 0.380267
O O1 0.600348 0.817734 0.326764
O O2 0.476288 0.660847 0.313445
O O3 0.426104 0.171097 0.033629
O O4 0.315067 0.999072 0.044350
O O5 0.250000 0.250000 0.000000
O O6 0.263913 0.091512 0.890939
O O7 0.273102 0.492577 0.263724
O O8 0.104502 0.553872 0.108776
O O9 0.143003 0.307206 0.170594
O O10 0.714595 0.401624 0.096800
O O11 0.592095 0.313385 0.127043
O O12 0.580500 0.572806 0.086476
O O13 0.750000 0.750000 0.500000
O O14 0.030297 0.719814 0.971759
#
# Coordination Sequence:
#
# PCOD9303421 Si02
#       7
#     4   8   8   8   8   8   8
#     4  12  24  42  68 108 136 186 244 294 346 418
#     4  11  25  45  71 103 141 183 231 297 362 416
#     4  11  22  44  69  97 136 186 231 276 352 429
#     4  12  25  44  70 101 141 182 233 288 354 420
#     4  12  26  46  74 105 143 187 243 295 349 428
#     4  11  24  46  71  98 139 188 228 285 361 423
#     4  11  23  42  68 100 134 184 232 288 343 420
#
# _framework density 21.396094999999999
#
# number of rings (size 3 to 8) (size 9 to 14) (size 15 to 20)
#    0.000    0.615    1.538    8.769    2.154    1.231 
#    0.000    0.000    0.000    0.000    0.000    0.000 
#    0.000    0.000    0.000    0.000    0.000    0.000 
#
# Total GULP energy -145393.306028 kJ/mol
# GULP energy per Si atom -5592.050232 kJ/mol
# Density = 2.134740 g / cm^3
# Si number density = 21.396095 Si / 1000 Ang^3
#
#
#
# Elastic Constant Matrix: (Units=GPa)
#
#
# Indices 1 2 3 4 5 6 
#
# 1 105.3966 60.8032 52.5891 0.0000 -17.1277 0.0000
# 2 60.8032 129.7708 40.0874 0.0000 1.7019 0.0000
# 3 52.5891 40.0874 123.2418 0.0000 -9.1243 0.0000
# 4 0.0000 0.0000 0.0000 24.0662 0.0000 -0.0944
# 5 -17.1277 1.7019 -9.1243 0.0000 18.6142 0.0000
# 6 0.0000 0.0000 0.0000 -0.0944 0.0000 47.1958
#
#
#
# Elastic Compliance Matrix: (Units=1/GPa)
#
#
# Indices 1 2 3 4 5 6 
#
# 1 0.018534 -0.007564 -0.004290 0.000000 0.015643 0.000000
# 2 -0.007564 0.011744 -0.001232 0.000000 -0.008637 0.000000
# 3 -0.004290 -0.001232 0.010441 0.000000 0.001283 0.000000
# 4 0.000000 0.000000 0.000000 0.041552 0.000000 0.000083
# 5 0.015643 -0.008637 0.001283 0.000000 0.069535 0.000000
# 6 0.000000 0.000000 0.000000 0.000083 0.000000 0.021188
#
#
# Mechanical properties :
#
#
# Convention : Reuss Voigt Hill
#
# Bulk Modulus (GPa) = 68.74561 73.92984 71.33772
# Shear Modulus (GPa) = 24.50798 31.63720 28.07259
#
# Velocity S-wave (km/s) = 3.38811 3.84949 3.62614
# Velocity P-wave (km/s) = 6.89242 7.37469 7.13763
#
# Compressibility (1/GPa) = 0.01454638
#
# Stress axis : x y z
#
# Youngs Moduli (GPa) = 53.95356 85.15186 95.78060
#
# Poissons Ratio (x) = 0.64409 0.41094
# Poissons Ratio (y) = 0.40810 0.11798
# Poissons Ratio (z) = 0.23148 0.10489
#
# Static dielectric constant tensor:
#      x y z
#    x 1.811520 0.000000 0.025780 
#    y 0.000000 1.777640 0.000000 
#    z 0.025780 0.000000 1.820660 
# 
# From -- ./inp_files/209694.got.cif
#   From: 2010.05.17/outbox.cif.g08.bks.cpg/sg15_105_cif.got.tgz:209694.got - 2010.06.03 18:47:42.
