data_PCOD9303054
_publ_section_title
;
Structure prediction by ZEFSAII (Michael W. Deem and Ramdas Pophale) SiO2 
 PCOD9303054
Probable space group: C 2/C
;
_chemical_formula_sum "Si O2"
_cell_formula_units_Z 40
_cell_length_a 15.908411
_cell_length_b 10.555194
_cell_length_c 11.993812
_cell_angle_alpha 90.000000
_cell_angle_beta 64.170437
_cell_angle_gamma 90.000000
_cell_volume 1812.751057
_symmetry_space_group_name_H-M "C 2/C"
_symmetry_group_IT_number 15
_symmetry_cell_setting 'monoclinic'
loop_
_space_group_symop_operation_xyz
x,y,z
-x,y,1/2-z
-x,-y,-z
x,-y,1/2+z
1/2+x,1/2+y,z
1/2-x,1/2+y,1/2-z
1/2-x,1/2-y,-z
1/2+x,1/2-y,1/2+z
loop_
_atom_site_type_symbol
_atom_site_label
_atom_site_fract_x
_atom_site_fract_y
_atom_site_fract_z
Si Si1 0.295569 0.741428 0.298070
Si Si2 0.765754 0.131820 0.073009
Si Si3 0.019410 0.303921 0.425185
Si Si4 0.571997 0.052117 0.109235
Si Si5 0.361901 0.391226 0.982228
O O1 0.266508 0.672123 0.200969
O O2 0.392140 0.810201 0.208171
O O3 0.323513 0.648990 0.382904
O O4 0.210376 0.828374 0.387877
O O5 0.675076 0.049080 0.097637
O O6 0.750000 0.250000 0.000000
O O7 0.854327 0.042161 0.998291
O O8 0.057472 0.338393 0.525405
O O9 0.949593 0.417853 0.435322
O O10 0.962104 0.174340 0.444023
O O11 0.500000 0.074111 0.250000
#
# Coordination Sequence:
#
# PCOD9303054 Si02
#       5
#     8   8   8   8   8
#     4  11  24  46  71 100 137 177 229 282 345 413
#     4  12  26  44  66 101 141 176 228 286 342 406
#     4  11  23  44  70 100 135 181 233 280 340 413
#     4  11  22  41  70 100 134 177 234 287 334 407
#     4  11  25  43  71 102 135 186 226 282 350 413
#
# _framework density 22.065909000000001
#
# number of rings (size 3 to 8) (size 9 to 14) (size 15 to 20)
#    0.000    0.800    2.000    6.600    2.800    4.000 
#    0.000    0.000    0.000    0.000    0.000    0.000 
#    0.000    0.000    0.000    0.000    0.000    0.000 
#
# Total GULP energy -111928.154990 kJ/mol
# GULP energy per Si atom -5596.407749 kJ/mol
# Density = 2.201569 g / cm^3
# Si number density = 22.065909 Si / 1000 Ang^3
#
#
#
# Elastic Constant Matrix: (Units=GPa)
#
#
# Indices 1 2 3 4 5 6 
#
# 1 104.4257 22.4212 13.4997 0.0000 13.1755 0.0000
# 2 22.4212 85.1160 35.5926 0.0000 14.7283 0.0000
# 3 13.4997 35.5926 98.1816 0.0000 16.0813 0.0000
# 4 0.0000 0.0000 0.0000 31.2145 0.0000 -4.2475
# 5 13.1755 14.7283 16.0813 0.0000 46.5692 0.0000
# 6 0.0000 0.0000 0.0000 -4.2475 0.0000 25.8743
#
#
#
# Elastic Compliance Matrix: (Units=1/GPa)
#
#
# Indices 1 2 3 4 5 6 
#
# 1 0.010362 -0.002253 -0.000259 0.000000 -0.002130 0.000000
# 2 -0.002253 0.014692 -0.004621 0.000000 -0.002414 0.000000
# 3 -0.000259 -0.004621 0.012343 0.000000 -0.002727 0.000000
# 4 0.000000 0.000000 0.000000 0.032768 0.000000 0.005379
# 5 -0.002130 -0.002414 -0.002727 0.000000 0.023781 0.000000
# 6 0.000000 0.000000 0.000000 0.005379 0.000000 0.039531
#
#
# Mechanical properties :
#
#
# Convention : Reuss Voigt Hill
#
# Bulk Modulus (GPa) = 43.23218 47.86113 45.54665
# Shear Modulus (GPa) = 32.16381 35.14559 33.65470
#
# Velocity S-wave (km/s) = 3.82203 3.99526 3.90960
# Velocity P-wave (km/s) = 6.25396 6.55896 6.40828
#
# Compressibility (1/GPa) = 0.02313092
#
# Stress axis : x y z
#
# Youngs Moduli (GPa) = 96.50574 68.06394 81.01882
#
# Poissons Ratio (x) = 0.15332 0.02101
# Poissons Ratio (y) = 0.21739 0.37440
# Poissons Ratio (z) = 0.02503 0.31453
#
# Static dielectric constant tensor:
#      x y z
#    x 1.812670 0.000000 -0.004930 
#    y 0.000000 1.856970 0.000000 
#    z -0.004930 0.000000 1.778640 
# 
# From -- ./inp_files/94868.got.cif
#   From: 2010.05.17/outbox.cif.g08.bks.cpg/sg15_48_cif.got.tgz:94868.got - 2010.06.03 18:47:42.
