data_PCOD9303596
_publ_section_title
;
Structure prediction by ZEFSAII (Michael W. Deem and Ramdas Pophale) SiO2 
 PCOD9303596
Probable space group: C 2/C
;
_chemical_formula_sum "Si O2"
_cell_formula_units_Z 40
_cell_length_a 15.142293
_cell_length_b 5.121664
_cell_length_c 22.830871
_cell_angle_alpha 90.000000
_cell_angle_beta 90.696841
_cell_angle_gamma 90.000000
_cell_volume 1770.488412
_symmetry_space_group_name_H-M "C 2/C"
_symmetry_group_IT_number 15
_symmetry_cell_setting 'monoclinic'
loop_
_space_group_symop_operation_xyz
x,y,z
-x,y,1/2-z
-x,-y,-z
x,-y,1/2+z
1/2+x,1/2+y,z
1/2-x,1/2+y,1/2-z
1/2-x,1/2-y,-z
1/2+x,1/2-y,1/2+z
loop_
_atom_site_type_symbol
_atom_site_label
_atom_site_fract_x
_atom_site_fract_y
_atom_site_fract_z
Si Si1 0.817677 0.244407 0.322317
Si Si2 0.511443 0.989927 0.186423
Si Si3 0.864630 0.910754 0.222711
Si Si4 0.709415 0.797283 0.936473
Si Si5 0.615808 0.298749 0.889297
O O1 0.870348 0.019478 0.288200
O O2 0.725543 0.253640 0.286773
O O3 0.786762 0.214300 0.388494
O O4 0.882974 0.492255 0.319126
O O5 0.500000 0.854376 0.250000
O O6 0.446255 0.239373 0.196757
O O7 0.478112 0.824477 0.130151
O O8 0.849351 0.149429 0.176636
O O9 0.636649 0.572892 0.920818
O O10 0.665458 0.077907 0.926114
O O11 0.750000 0.750000 0.000000
#
# Coordination Sequence:
#
# PCOD9303596 Si02
#       5
#     8   8   8   8   8
#     4  11  23  42  72 101 148 199 232 300 382 428
#     4  12  24  40  66 110 147 183 226 298 377 448
#     4  11  23  44  66 107 151 182 247 296 377 459
#     4  11  25  48  76 100 141 202 256 299 352 428
#     4  11  22  46  68 100 150 177 242 313 350 435
#
# _framework density 22.592635999999999
#
# number of rings (size 3 to 8) (size 9 to 14) (size 15 to 20)
#    0.000    0.800    6.000    3.000    2.800    1.600 
#    0.000    2.000    0.000    0.000    0.000    0.000 
#    0.000    0.000    0.000    0.000    0.000    0.000 
#
# Total GULP energy -111425.026437 kJ/mol
# GULP energy per Si atom -5571.251322 kJ/mol
# Density = 2.254121 g / cm^3
# Si number density = 22.592636 Si / 1000 Ang^3
#
#
#
# Elastic Constant Matrix: (Units=GPa)
#
#
# Indices 1 2 3 4 5 6 
#
# 1 105.7859 25.6987 23.9275 0.0000 16.5549 0.0000
# 2 25.6987 121.8504 22.0860 0.0000 10.9028 0.0000
# 3 23.9275 22.0860 128.2838 0.0000 25.4263 0.0000
# 4 0.0000 0.0000 0.0000 27.3376 0.0000 9.5193
# 5 16.5549 10.9028 25.4263 0.0000 29.5479 0.0000
# 6 0.0000 0.0000 0.0000 9.5193 0.0000 22.7859
#
#
#
# Elastic Compliance Matrix: (Units=1/GPa)
#
#
# Indices 1 2 3 4 5 6 
#
# 1 0.010787 -0.001710 -0.000777 0.000000 -0.004744 0.000000
# 2 -0.001710 0.008869 -0.000903 0.000000 -0.001537 0.000000
# 3 -0.000777 -0.000903 0.009577 0.000000 -0.007472 0.000000
# 4 0.000000 0.000000 0.000000 0.042807 0.000000 -0.017883
# 5 -0.004744 -0.001537 -0.007472 0.000000 0.043498 0.000000
# 6 0.000000 0.000000 0.000000 -0.017883 0.000000 0.051358
#
#
# Mechanical properties :
#
#
# Convention : Reuss Voigt Hill
#
# Bulk Modulus (GPa) = 44.54069 55.48271 50.01170
# Shear Modulus (GPa) = 27.60004 34.88147 31.24075
#
# Velocity S-wave (km/s) = 3.49899 3.93355 3.72262
# Velocity P-wave (km/s) = 6.00678 6.72619 6.37664
#
# Compressibility (1/GPa) = 0.02245138
#
# Stress axis : x y z
#
# Youngs Moduli (GPa) = 92.70802 112.75709 104.42006
#
# Poissons Ratio (x) = 0.19277 0.08117
# Poissons Ratio (y) = 0.15849 0.09432
# Poissons Ratio (z) = 0.07207 0.10185
#
# Static dielectric constant tensor:
#      x y z
#    x 1.957190 0.000000 0.039340 
#    y 0.000000 2.011350 0.000000 
#    z 0.039340 0.000000 1.802180 
# 
# From -- ./inp_files/271678.got.cif
#   From: 2010.05.17/outbox.cif.g08.bks.cpg/sg15_136_cif.got.tgz:271678.got - 2010.06.03 18:47:42.
