data_PCOD9303402
_publ_section_title
;
Structure prediction by ZEFSAII (Michael W. Deem and Ramdas Pophale) SiO2 
 PCOD9303402
Probable space group: C 2/C
;
_chemical_formula_sum "Si O2"
_cell_formula_units_Z 56
_cell_length_a 19.070060
_cell_length_b 20.890412
_cell_length_c 15.312891
_cell_angle_alpha 90.000000
_cell_angle_beta 156.208228
_cell_angle_gamma 90.000000
_cell_volume 2460.974494
_symmetry_space_group_name_H-M "C 2/C"
_symmetry_group_IT_number 15
_symmetry_cell_setting 'monoclinic'
loop_
_space_group_symop_operation_xyz
x,y,z
-x,y,1/2-z
-x,-y,-z
x,-y,1/2+z
1/2+x,1/2+y,z
1/2-x,1/2+y,1/2-z
1/2-x,1/2-y,-z
1/2+x,1/2-y,1/2+z
loop_
_atom_site_type_symbol
_atom_site_label
_atom_site_fract_x
_atom_site_fract_y
_atom_site_fract_z
Si Si1 0.063287 0.927603 0.581323
Si Si2 0.500000 0.131767 0.750000
Si Si3 0.164666 0.043127 0.375402
Si Si4 0.000000 0.192109 0.750000
Si Si5 0.919895 0.202697 0.469184
Si Si6 0.187373 0.592633 0.425188
Si Si7 0.923066 0.567918 0.396832
Si Si8 0.027581 0.687636 0.972273
O O1 0.070265 0.916919 0.691486
O O2 0.989509 0.866462 0.445599
O O3 0.263101 0.929903 0.780774
O O4 0.000000 0.000000 0.500000
O O5 0.336370 0.085968 0.589305
O O6 0.465054 0.174372 0.622863
O O7 0.000000 0.031503 0.250000
O O8 0.238613 0.971077 0.441708
O O9 0.968916 0.227444 0.621786
O O10 0.832971 0.147198 0.580141
O O11 0.714494 0.191417 0.232978
O O12 0.943627 0.248411 0.413186
O O13 0.146929 0.571769 0.280199
O O14 0.000000 0.612548 0.250000
O O15 0.052377 0.624817 0.571907
O O16 0.000000 0.500000 0.500000
#
# Coordination Sequence:
#
# PCOD9303402 Si02
#       8
#     8   4   8   4   8   8   8   8
#     4  11  22  44  68 105 149 182 243 311 362 443
#     4  12  24  50  74 104 156 194 252 316 366 456
#     4  12  23  40  73 112 149 196 245 302 381 444
#     4  12  24  50  74 104 156 194 252 316 366 456
#     4  11  26  49  73 105 149 194 253 308 372 450
#     4  12  23  40  73 112 149 196 245 302 381 444
#     4  11  22  44  68 105 149 182 243 311 362 443
#     4  11  26  49  73 105 149 194 253 308 372 450
#
# _framework density 22.755213000000001
#
# number of rings (size 3 to 8) (size 9 to 14) (size 15 to 20)
#    0.000    0.571    7.143    3.429    0.000    4.571 
#    2.571    0.000    0.000    0.000    0.000    0.000 
#    0.000    0.000    0.000    0.000    0.000    0.000 
#
# Total GULP energy -156092.916633 kJ/mol
# GULP energy per Si atom -5574.747023 kJ/mol
# Density = 2.270342 g / cm^3
# Si number density = 22.755213 Si / 1000 Ang^3
#
#
#
# Elastic Constant Matrix: (Units=GPa)
#
#
# Indices 1 2 3 4 5 6 
#
# 1 34.7444 13.6153 14.7683 0.0000 4.5316 0.0000
# 2 13.6153 82.8096 -2.6911 0.0000 -0.3712 0.0000
# 3 14.7683 -2.6911 56.2707 0.0000 -4.0285 0.0000
# 4 0.0000 0.0000 0.0000 12.6106 0.0000 -7.0307
# 5 4.5316 -0.3712 -4.0285 0.0000 53.1119 0.0000
# 6 0.0000 0.0000 0.0000 -7.0307 0.0000 40.7071
#
#
#
# Elastic Compliance Matrix: (Units=1/GPa)
#
#
# Indices 1 2 3 4 5 6 
#
# 1 0.036003 -0.006263 -0.010026 0.000000 -0.003876 0.000000
# 2 -0.006263 0.013185 0.002332 0.000000 0.000803 0.000000
# 3 -0.010026 0.002332 0.020689 0.000000 0.002441 0.000000
# 4 0.000000 0.000000 0.000000 0.087748 0.000000 0.015155
# 5 -0.003876 0.000803 0.002441 0.000000 0.019350 0.000000
# 6 0.000000 0.000000 0.000000 0.015155 0.000000 0.027183
#
#
# Mechanical properties :
#
#
# Convention : Reuss Voigt Hill
#
# Bulk Modulus (GPa) = 23.83065 25.02331 24.42698
# Shear Modulus (GPa) = 20.32031 31.16139 25.74085
#
# Velocity S-wave (km/s) = 2.99155 3.70458 3.36699
# Velocity P-wave (km/s) = 4.73580 5.41472 5.08660
#
# Compressibility (1/GPa) = 0.04196277
#
# Stress axis : x y z
#
# Youngs Moduli (GPa) = 27.77550 75.84391 48.33528
#
# Poissons Ratio (x) = 0.47499 0.48461
# Poissons Ratio (y) = 0.17395 -0.11270
# Poissons Ratio (z) = 0.27848 -0.17685
#
# Static dielectric constant tensor:
#      x y z
#    x 1.938290 0.000000 0.019290 
#    y 0.000000 2.101800 0.000000 
#    z 0.019290 0.000000 1.895740 
# 
# From -- ./inp_files/163870.got.cif
#   From: 2010.05.17/outbox.cif.g08.bks.cpg/sg15_82_cif.got.tgz:163870.got - 2010.06.03 18:47:42.
