data_PCOD9303624
_publ_section_title
;
Structure prediction by ZEFSAII (Michael W. Deem and Ramdas Pophale) SiO2 
 PCOD9303624
Probable space group: C 2/C
;
_chemical_formula_sum "Si O2"
_cell_formula_units_Z 40
_cell_length_a 16.562729
_cell_length_b 8.170658
_cell_length_c 26.774808
_cell_angle_alpha 90.000000
_cell_angle_beta 25.546426
_cell_angle_gamma 90.000000
_cell_volume 1562.559831
_symmetry_space_group_name_H-M "C 2/C"
_symmetry_group_IT_number 15
_symmetry_cell_setting 'monoclinic'
loop_
_space_group_symop_operation_xyz
x,y,z
-x,y,1/2-z
-x,-y,-z
x,-y,1/2+z
1/2+x,1/2+y,z
1/2-x,1/2+y,1/2-z
1/2-x,1/2-y,-z
1/2+x,1/2-y,1/2+z
loop_
_atom_site_type_symbol
_atom_site_label
_atom_site_fract_x
_atom_site_fract_y
_atom_site_fract_z
Si Si1 0.108806 0.868206 0.733004
Si Si2 0.614600 0.380954 0.003602
Si Si3 0.752347 0.933601 0.252857
Si Si4 0.497024 0.255236 0.971310
Si Si5 0.514638 0.002991 0.683496
O O1 0.310429 0.826840 0.597147
O O2 0.990882 0.701972 0.810264
O O3 0.000000 0.961930 0.750000
O O4 0.140327 0.957089 0.766976
O O5 0.421026 0.324677 0.136590
O O6 0.567799 0.565647 0.010633
O O7 0.634591 0.274540 0.942209
O O8 0.794702 0.410768 0.937573
O O9 0.592070 0.842298 0.373480
O O10 0.654548 0.023486 0.260416
O O11 0.500000 0.954797 0.750000
#
# Coordination Sequence:
#
# PCOD9303624 Si02
#       5
#     8   8   8   8   8
#     4  11  23  46  73 104 142 193 239 304 359 423
#     4  11  23  44  77 102 147 194 239 297 359 439
#     4  12  26  41  75 111 144 186 244 299 361 426
#     4  11  23  46  70 108 147 184 241 309 354 428
#     4  11  22  46  73 105 138 197 242 289 361 437
#
# _framework density 25.599019999999999
#
# number of rings (size 3 to 8) (size 9 to 14) (size 15 to 20)
#    0.000    0.800    6.000    3.000    2.800    1.600 
#    0.000    6.000    0.000    0.000    0.000    0.000 
#    0.000    0.000    0.000    0.000    0.000    0.000 
#
# Total GULP energy -111904.612131 kJ/mol
# GULP energy per Si atom -5595.230607 kJ/mol
# Density = 2.554076 g / cm^3
# Si number density = 25.599020 Si / 1000 Ang^3
#
#
#
# Elastic Constant Matrix: (Units=GPa)
#
#
# Indices 1 2 3 4 5 6 
#
# 1 216.7868 32.0358 51.7096 -0.0005 -15.0573 -0.0002
# 2 32.0358 24.6194 10.6101 -0.0006 9.0113 -0.0001
# 3 51.7096 10.6101 112.6846 -0.0055 5.3828 0.0003
# 4 -0.0005 -0.0006 -0.0055 31.3865 0.0003 1.6155
# 5 -15.0573 9.0113 5.3828 0.0003 51.0362 0.0002
# 6 -0.0002 -0.0001 0.0003 1.6155 0.0002 40.1808
#
#
#
# Elastic Compliance Matrix: (Units=1/GPa)
#
#
# Indices 1 2 3 4 5 6 
#
# 1 0.006841 -0.009277 -0.002453 -0.000001 0.003915 0.000000
# 2 -0.009277 0.057635 -0.000555 0.000001 -0.012855 0.000000
# 3 -0.002453 -0.000555 0.010133 0.000002 -0.001694 0.000000
# 4 -0.000001 0.000001 0.000002 0.031927 -0.000001 -0.001284
# 5 0.003915 -0.012855 -0.001694 -0.000001 0.023197 0.000000
# 6 0.000000 0.000000 0.000000 -0.001284 0.000000 0.024939
#
#
# Mechanical properties :
#
#
# Convention : Reuss Voigt Hill
#
# Bulk Modulus (GPa) = 19.98483 60.31133 40.14808
# Shear Modulus (GPa) = 25.52029 41.83638 33.67833
#
# Velocity S-wave (km/s) = 3.16084 4.04703 3.63107
# Velocity P-wave (km/s) = 4.59837 6.74159 5.77036
#
# Compressibility (1/GPa) = 0.05003795
#
# Stress axis : x y z
#
# Youngs Moduli (GPa) = 146.18280 17.35055 98.68721
#
# Poissons Ratio (x) = 0.16097 0.24204
# Poissons Ratio (y) = 1.35620 0.05481
# Poissons Ratio (z) = 0.35853 0.00964
#
# Static dielectric constant tensor:
#      x y z
#    x 2.013330 0.000000 -0.015990 
#    y 0.000000 2.055740 0.000000 
#    z -0.015990 0.000000 2.064800 
# 
# From -- ./inp_files/273748.got.cif
#   From: 2010.05.17/outbox.cif.g08.bks.cpg/sg15_137_cif.got.tgz:273748.got - 2010.06.03 18:47:42.
