data_PCOD9303112
_publ_section_title
;
Structure prediction by ZEFSAII (Michael W. Deem and Ramdas Pophale) SiO2 
 PCOD9303112
Probable space group: C 2/C
;
_chemical_formula_sum "Si O2"
_cell_formula_units_Z 48
_cell_length_a 9.677185
_cell_length_b 22.842524
_cell_length_c 12.408798
_cell_angle_alpha 90.000000
_cell_angle_beta 129.117555
_cell_angle_gamma 90.000000
_cell_volume 2128.150652
_symmetry_space_group_name_H-M "C 2/C"
_symmetry_group_IT_number 15
_symmetry_cell_setting 'monoclinic'
loop_
_space_group_symop_operation_xyz
x,y,z
-x,y,1/2-z
-x,-y,-z
x,-y,1/2+z
1/2+x,1/2+y,z
1/2-x,1/2+y,1/2-z
1/2-x,1/2-y,-z
1/2+x,1/2-y,1/2+z
loop_
_atom_site_type_symbol
_atom_site_label
_atom_site_fract_x
_atom_site_fract_y
_atom_site_fract_z
Si Si1 0.891631 0.873781 0.971428
Si Si2 0.296089 0.497294 0.936472
Si Si3 0.500000 0.337866 0.250000
Si Si4 0.270709 0.220976 0.392128
Si Si5 0.787310 0.893524 0.539465
Si Si6 0.831465 0.254817 0.383348
Si Si7 0.000000 0.579817 0.750000
O O1 0.758791 0.928825 0.911696
O O2 0.799565 0.811895 0.904562
O O3 0.990964 0.873735 0.135460
O O4 0.048379 0.879354 0.959129
O O5 0.286964 0.535367 0.043776
O O6 0.160754 0.535672 0.797338
O O7 0.500000 0.500000 0.000000
O O8 0.673845 0.297565 0.336273
O O9 0.250000 0.250000 0.500000
O O10 0.210438 0.153085 0.365105
O O11 0.166115 0.252941 0.245693
O O12 0.480917 0.226640 0.473676
O O13 0.596275 0.882258 0.387586
#
# Coordination Sequence:
#
# PCOD9303112 Si02
#       7
#     8   8   4   8   8   8   4
#     4  11  22  42  65  91 133 177 219 269 323 401
#     4   8  18  36  63  92 123 170 209 264 326 389
#     4  12  26  43  60  92 131 184 224 260 328 408
#     4  12  24  39  68  98 129 165 218 283 340 386
#     4   9  20  38  64  99 123 164 214 278 337 382
#     4  12  26  42  63  98 133 175 222 272 335 398
#     4   8  18  35  66  90 127 160 214 266 342 376
#
# _framework density 22.554794000000001
#
# number of rings (size 3 to 8) (size 9 to 14) (size 15 to 20)
#    1.000    0.667    3.333    1.000    4.667    0.667 
#    0.000    5.000    0.000    3.000    0.000    0.000 
#    0.000    0.000    0.000    0.000    0.000    0.000 
#
# Total GULP energy -133753.142577 kJ/mol
# GULP energy per Si atom -5573.047607 kJ/mol
# Density = 2.250346 g / cm^3
# Si number density = 22.554794 Si / 1000 Ang^3
#
#
#
# Elastic Constant Matrix: (Units=GPa)
#
#
# Indices 1 2 3 4 5 6 
#
# 1 45.6306 14.3498 19.2570 0.0000 10.2691 0.0000
# 2 14.3498 87.1407 0.1347 0.0000 -6.2433 0.0000
# 3 19.2570 0.1347 86.7964 0.0000 8.6061 0.0000
# 4 0.0000 0.0000 0.0000 24.9639 0.0000 7.1649
# 5 10.2691 -6.2433 8.6061 0.0000 35.2092 0.0000
# 6 0.0000 0.0000 0.0000 7.1649 0.0000 31.2654
#
#
#
# Elastic Compliance Matrix: (Units=1/GPa)
#
#
# Indices 1 2 3 4 5 6 
#
# 1 0.027468 -0.005060 -0.005332 0.000000 -0.007605 0.000000
# 2 -0.005060 0.012560 0.000754 0.000000 0.003519 0.000000
# 3 -0.005332 0.000754 0.012847 0.000000 -0.001451 0.000000
# 4 0.000000 0.000000 0.000000 0.042878 0.000000 -0.009826
# 5 -0.007605 0.003519 -0.001451 0.000000 0.031598 0.000000
# 6 0.000000 0.000000 0.000000 -0.009826 0.000000 0.034236
#
#
# Mechanical properties :
#
#
# Convention : Reuss Voigt Hill
#
# Bulk Modulus (GPa) = 29.76265 31.89451 30.82858
# Shear Modulus (GPa) = 26.03310 30.67612 28.35461
#
# Velocity S-wave (km/s) = 3.40106 3.69192 3.54947
# Velocity P-wave (km/s) = 5.35232 5.68729 5.52234
#
# Compressibility (1/GPa) = 0.03359916
#
# Stress axis : x y z
#
# Youngs Moduli (GPa) = 36.40566 79.61878 77.83934
#
# Poissons Ratio (x) = 0.40287 0.41506
# Poissons Ratio (y) = 0.18421 -0.05871
# Poissons Ratio (z) = 0.19413 -0.06005
#
# Static dielectric constant tensor:
#      x y z
#    x 1.811440 0.000000 -0.025560 
#    y 0.000000 1.907270 0.000000 
#    z -0.025560 0.000000 1.884860 
# 
# From -- ./inp_files/91014.got.cif
#   From: 2010.05.17/outbox.cif.g08.bks.cpg/sg15_46_cif.got.tgz:91014.got - 2010.06.03 18:47:42.
