data_PCOD9303220
_publ_section_title
;
Structure prediction by ZEFSAII (Michael W. Deem and Ramdas Pophale) SiO2 
 PCOD9303220
Probable space group: C 2/C
;
_chemical_formula_sum "Si O2"
_cell_formula_units_Z 48
_cell_length_a 23.742490
_cell_length_b 11.419926
_cell_length_c 14.169918
_cell_angle_alpha 90.000000
_cell_angle_beta 146.841384
_cell_angle_gamma 90.000000
_cell_volume 2101.413038
_symmetry_space_group_name_H-M "C 2/C"
_symmetry_group_IT_number 15
_symmetry_cell_setting 'monoclinic'
loop_
_space_group_symop_operation_xyz
x,y,z
-x,y,1/2-z
-x,-y,-z
x,-y,1/2+z
1/2+x,1/2+y,z
1/2-x,1/2+y,1/2-z
1/2-x,1/2-y,-z
1/2+x,1/2-y,1/2+z
loop_
_atom_site_type_symbol
_atom_site_label
_atom_site_fract_x
_atom_site_fract_y
_atom_site_fract_z
Si Si1 0.134697 0.382420 0.689710
Si Si2 0.873805 0.972633 0.725095
Si Si3 0.519714 0.752252 0.167750
Si Si4 0.030685 0.223362 0.683395
Si Si5 0.291240 0.120381 0.651989
Si Si6 0.306241 0.322197 0.798254
O O1 0.099797 0.329115 0.740594
O O2 0.138931 0.521892 0.700494
O O3 0.248668 0.348889 0.814040
O O4 0.059585 0.325962 0.506408
O O5 0.970653 0.883849 0.849060
O O6 0.795635 0.942044 0.530890
O O7 0.817922 0.933344 0.744225
O O8 0.911378 0.104257 0.765510
O O9 0.500000 0.761259 0.250000
O O10 0.632814 0.804907 0.306866
O O11 0.000000 0.227178 0.750000
O O12 0.921287 0.222536 0.477068
O O13 0.248711 0.214956 0.665920
#
# Coordination Sequence:
#
# PCOD9303220 Si02
#       6
#     8   8   8   8   8   8
#     4  12  26  44  70 104 145 185 229 291 361 418
#     4  11  23  45  73 100 137 180 238 291 339 412
#     4  11  22  42  72 102 134 180 236 289 348 409
#     4  12  27  46  70 103 147 189 234 286 353 422
#     4  11  24  44  67 102 140 176 230 288 348 421
#     4  11  25  45  72 101 138 182 241 289 346 415
#
# _framework density 22.841774000000001
#
# number of rings (size 3 to 8) (size 9 to 14) (size 15 to 20)
#    0.000    0.667    3.333    6.500    2.333    3.333 
#    0.000    0.000    0.000    0.000    0.000    0.000 
#    0.000    0.000    0.000    0.000    0.000    0.000 
#
# Total GULP energy -134326.919737 kJ/mol
# GULP energy per Si atom -5596.954989 kJ/mol
# Density = 2.278978 g / cm^3
# Si number density = 22.841774 Si / 1000 Ang^3
#
#
#
# Elastic Constant Matrix: (Units=GPa)
#
#
# Indices 1 2 3 4 5 6 
#
# 1 132.2533 41.5988 1.4889 0.0000 -5.1132 0.0000
# 2 41.5988 92.1123 0.9032 0.0000 1.0695 0.0000
# 3 1.4889 0.9032 59.8271 0.0000 -4.5491 0.0000
# 4 0.0000 0.0000 0.0000 34.7484 0.0000 1.9466
# 5 -5.1132 1.0695 -4.5491 0.0000 28.9560 0.0000
# 6 0.0000 0.0000 0.0000 1.9466 0.0000 17.1409
#
#
#
# Elastic Compliance Matrix: (Units=1/GPa)
#
#
# Indices 1 2 3 4 5 6 
#
# 1 0.008898 -0.004038 -0.000030 0.000000 0.001716 0.000000
# 2 -0.004038 0.012696 -0.000183 0.000000 -0.001211 0.000000
# 3 -0.000030 -0.000183 0.016921 0.000000 0.002660 0.000000
# 4 0.000000 0.000000 0.000000 0.028963 0.000000 -0.003289
# 5 0.001716 -0.001211 0.002660 0.000000 0.035301 0.000000
# 6 0.000000 0.000000 0.000000 -0.003289 0.000000 0.058713
#
#
# Mechanical properties :
#
#
# Convention : Reuss Voigt Hill
#
# Bulk Modulus (GPa) = 33.32024 41.35272 37.33648
# Shear Modulus (GPa) = 27.77815 32.18253 29.98034
#
# Velocity S-wave (km/s) = 3.49106 3.75765 3.62681
# Velocity P-wave (km/s) = 5.55600 6.08028 5.82404
#
# Compressibility (1/GPa) = 0.03001179
#
# Stress axis : x y z
#
# Youngs Moduli (GPa) = 112.38416 78.76622 59.09958
#
# Poissons Ratio (x) = 0.31806 0.00177
# Poissons Ratio (y) = 0.45382 0.01083
# Poissons Ratio (z) = 0.00337 0.01443
#
# Static dielectric constant tensor:
#      x y z
#    x 1.865760 0.000000 -0.005480 
#    y 0.000000 1.856370 0.000000 
#    z -0.005480 0.000000 1.882060 
# 
# From -- ./inp_files/177876.got.cif
#   From: 2010.05.17/outbox.cif.g08.bks.cpg/sg15_89_cif.got.tgz:177876.got - 2010.06.03 18:47:42.
