data_PCOD9303915
_publ_section_title
;
Structure prediction by ZEFSAII (Michael W. Deem and Ramdas Pophale) SiO2 
 PCOD9303915
Probable space group: C 2/C
;
_chemical_formula_sum "Si O2"
_cell_formula_units_Z 56
_cell_length_a 9.505871
_cell_length_b 29.584628
_cell_length_c 11.226172
_cell_angle_alpha 90.000000
_cell_angle_beta 120.087147
_cell_angle_gamma 90.000000
_cell_volume 2731.733361
_symmetry_space_group_name_H-M "C 2/C"
_symmetry_group_IT_number 15
_symmetry_cell_setting 'monoclinic'
loop_
_space_group_symop_operation_xyz
x,y,z
-x,y,1/2-z
-x,-y,-z
x,-y,1/2+z
1/2+x,1/2+y,z
1/2-x,1/2+y,1/2-z
1/2-x,1/2-y,-z
1/2+x,1/2-y,1/2+z
loop_
_atom_site_type_symbol
_atom_site_label
_atom_site_fract_x
_atom_site_fract_y
_atom_site_fract_z
Si Si1 0.625028 0.923333 0.194829
Si Si2 0.839628 0.138299 0.628685
Si Si3 0.703945 0.912502 0.545359
Si Si4 0.493066 0.584738 0.481773
Si Si5 0.823039 0.709581 0.110842
Si Si6 0.644947 0.508644 0.229811
Si Si7 0.349459 0.336343 0.754518
O O1 0.500000 0.913481 0.250000
O O2 0.741667 0.884118 0.195241
O O3 0.724679 0.970156 0.243425
O O4 0.483337 0.926142 0.034981
O O5 0.923003 0.100514 0.578371
O O6 0.715335 0.166921 0.493611
O O7 0.000000 0.163849 0.750000
O O8 0.785496 0.951304 0.658987
O O9 0.728260 0.862835 0.613970
O O10 0.814302 0.913938 0.470403
O O11 0.420976 0.536601 0.411784
O O12 0.423519 0.622464 0.362642
O O13 0.718081 0.699489 0.183221
O O14 0.000000 0.714022 0.250000
O O15 0.750000 0.750000 0.000000
O O16 0.500000 0.489078 0.250000
O O17 0.500000 0.315458 0.750000
#
# Coordination Sequence:
#
# PCOD9303915 Si02
#       7
#     8   8   8   8   8   8   8
#     4  12  24  34  48  78 117 156 200 248 291 341
#     4  11  23  41  62  86 117 158 198 240 296 355
#     4   9  17  34  56  81 109 148 198 251 297 343
#     4   8  17  35  60  80 108 150 200 247 296 348
#     4  11  23  42  67  96 124 152 188 237 292 355
#     4   9  19  35  53  76 109 153 201 249 299 349
#     4   8  16  35  63  89 113 149 192 236 290 351
#
# _framework density 20.499804000000001
#
# number of rings (size 3 to 8) (size 9 to 14) (size 15 to 20)
#    0.000    2.286    0.000    4.714    0.000    2.286 
#    0.000    6.429    0.000    0.000    0.000    0.000 
#    0.000    0.000    0.000    0.000    0.000    0.000 
#
# Total GULP energy -155879.091498 kJ/mol
# GULP energy per Si atom -5567.110411 kJ/mol
# Density = 2.045315 g / cm^3
# Si number density = 20.499804 Si / 1000 Ang^3
#
#
#
# Elastic Constant Matrix: (Units=GPa)
#
#
# Indices 1 2 3 4 5 6 
#
# 1 144.2155 64.9449 61.3056 0.0000 2.5085 0.0000
# 2 64.9449 86.1079 48.8997 0.0000 -1.5402 0.0000
# 3 61.3056 48.8997 87.1592 0.0000 8.8564 0.0000
# 4 0.0000 0.0000 0.0000 37.6925 0.0000 -9.8324
# 5 2.5085 -1.5402 8.8564 0.0000 46.2508 0.0000
# 6 0.0000 0.0000 0.0000 -9.8324 0.0000 24.6582
#
#
#
# Elastic Compliance Matrix: (Units=1/GPa)
#
#
# Indices 1 2 3 4 5 6 
#
# 1 0.011739 -0.006103 -0.004842 0.000000 0.000087 0.000000
# 2 -0.006103 0.020492 -0.007452 0.000000 0.002440 0.000000
# 3 -0.004842 -0.007452 0.019437 0.000000 -0.003707 0.000000
# 4 0.000000 0.000000 0.000000 0.029610 0.000000 0.011807
# 5 0.000087 0.002440 -0.003707 0.000000 0.022408 0.000000
# 6 0.000000 0.000000 0.000000 0.011807 0.000000 0.045263
#
#
# Mechanical properties :
#
#
# Convention : Reuss Voigt Hill
#
# Bulk Modulus (GPa) = 67.23218 74.19809 70.71513
# Shear Modulus (GPa) = 26.21917 31.20912 28.71415
#
# Velocity S-wave (km/s) = 3.58019 3.90604 3.74666
# Velocity P-wave (km/s) = 7.06810 7.52436 7.29979
#
# Compressibility (1/GPa) = 0.01487383
#
# Stress axis : x y z
#
# Youngs Moduli (GPa) = 85.18538 48.80002 51.44904
#
# Poissons Ratio (x) = 0.29781 0.24912
# Poissons Ratio (y) = 0.51986 0.38341
# Poissons Ratio (z) = 0.41247 0.36367
#
# Static dielectric constant tensor:
#      x y z
#    x 1.739830 0.000000 0.029940 
#    y 0.000000 1.705820 0.000000 
#    z 0.029940 0.000000 1.928600 
# 
# From -- ./inp_files/82676.got.cif
#   From: 2010.05.17/outbox.cif.g08.bks.cpg/sg15_42_cif.got.tgz:82676.got - 2010.06.03 18:47:42.
