data_PCOD9303221
_publ_section_title
;
Structure prediction by ZEFSAII (Michael W. Deem and Ramdas Pophale) SiO2 
 PCOD9303221
Probable space group: C 2/C
;
_chemical_formula_sum "Si O2"
_cell_formula_units_Z 48
_cell_length_a 15.353002
_cell_length_b 6.379682
_cell_length_c 22.519184
_cell_angle_alpha 90.000000
_cell_angle_beta 71.312561
_cell_angle_gamma 90.000000
_cell_volume 2089.409691
_symmetry_space_group_name_H-M "C 2/C"
_symmetry_group_IT_number 15
_symmetry_cell_setting 'monoclinic'
loop_
_space_group_symop_operation_xyz
x,y,z
-x,y,1/2-z
-x,-y,-z
x,-y,1/2+z
1/2+x,1/2+y,z
1/2-x,1/2+y,1/2-z
1/2-x,1/2-y,-z
1/2+x,1/2-y,1/2+z
loop_
_atom_site_type_symbol
_atom_site_label
_atom_site_fract_x
_atom_site_fract_y
_atom_site_fract_z
Si Si1 0.422403 0.874224 0.481488
Si Si2 0.385991 0.801737 0.199006
Si Si3 0.770855 0.492548 0.814880
Si Si4 0.521158 0.488245 0.612613
Si Si5 0.682902 0.202968 0.070757
Si Si6 0.862899 0.323851 0.616388
O O1 0.462283 0.661864 0.447010
O O2 0.348400 0.836645 0.549148
O O3 0.500000 0.000000 0.500000
O O4 0.381553 0.015182 0.438686
O O5 0.299862 0.644227 0.208792
O O6 0.476762 0.657747 0.173714
O O7 0.364798 0.953540 0.259406
O O8 0.385131 0.956860 0.142404
O O9 0.774372 0.375586 0.877179
O O10 0.725676 0.716645 0.837060
O O11 0.617622 0.602035 0.601823
O O12 0.446283 0.663816 0.611964
O O13 0.750000 0.250000 0.000000
#
# Coordination Sequence:
#
# PCOD9303221 Si02
#       6
#     8   8   8   8   8   8
#     4  12  23  42  71 100 141 188 234 285 366 429
#     4  11  22  45  73 101 133 194 236 294 371 442
#     4  11  25  43  73 101 142 182 249 301 362 440
#     4  11  24  43  70 100 144 187 232 296 368 432
#     4  12  27  45  69 112 145 186 245 313 365 426
#     4  11  22  42  72 102 137 187 241 288 357 444
#
# _framework density 22.972995999999998
#
# number of rings (size 3 to 8) (size 9 to 14) (size 15 to 20)
#    0.000    0.667    5.000    2.500    2.333    4.000 
#    0.000    5.000    0.000    0.000    0.000    0.000 
#    0.000    0.000    0.000    0.000    0.000    0.000 
#
# Total GULP energy -134203.357757 kJ/mol
# GULP energy per Si atom -5591.806573 kJ/mol
# Density = 2.292071 g / cm^3
# Si number density = 22.972996 Si / 1000 Ang^3
#
#
#
# Elastic Constant Matrix: (Units=GPa)
#
#
# Indices 1 2 3 4 5 6 
#
# 1 52.7087 20.1831 29.4406 0.0001 -11.9762 0.0002
# 2 20.1831 98.8909 33.8919 0.0002 -19.9218 0.0002
# 3 29.4406 33.8919 141.2029 0.0001 -26.0904 0.0002
# 4 0.0001 0.0002 0.0001 46.1811 0.0001 -6.9116
# 5 -11.9762 -19.9218 -26.0904 0.0001 29.3275 0.0001
# 6 0.0002 0.0002 0.0002 -6.9116 0.0001 33.4695
#
#
#
# Elastic Compliance Matrix: (Units=1/GPa)
#
#
# Indices 1 2 3 4 5 6 
#
# 1 0.022858 -0.002605 -0.003283 0.000000 0.004645 0.000000
# 2 -0.002605 0.012324 -0.001274 0.000000 0.006175 0.000000
# 3 -0.003283 -0.001274 0.009172 0.000000 0.005954 0.000000
# 4 0.000000 0.000000 0.000000 0.022344 0.000000 0.004614
# 5 0.004645 0.006175 0.005954 0.000000 0.045486 0.000000
# 6 0.000000 0.000000 0.000000 0.004614 0.000000 0.030831
#
#
# Mechanical properties :
#
#
# Convention : Reuss Voigt Hill
#
# Bulk Modulus (GPa) = 33.29714 51.09263 42.19489
# Shear Modulus (GPa) = 29.87761 35.74807 32.81284
#
# Velocity S-wave (km/s) = 3.61023 3.94901 3.78342
# Velocity P-wave (km/s) = 5.64835 6.56365 6.12313
#
# Compressibility (1/GPa) = 0.03003261
#
# Stress axis : x y z
#
# Youngs Moduli (GPa) = 43.74762 81.14051 109.02306
#
# Poissons Ratio (x) = 0.21133 0.35787
# Poissons Ratio (y) = 0.11394 0.13891
# Poissons Ratio (z) = 0.14360 0.10339
#
# Static dielectric constant tensor:
#      x y z
#    x 1.882390 0.000000 -0.043370 
#    y 0.000000 1.861420 0.000000 
#    z -0.043370 0.000000 1.924210 
# 
# From -- ./inp_files/275835.got.cif
#   From: 2010.05.17/outbox.cif.g08.bks.cpg/sg15_138_cif.got.tgz:275835.got - 2010.06.03 18:47:42.
