data_PCOD9303758
_publ_section_title
;
Structure prediction by ZEFSAII (Michael W. Deem and Ramdas Pophale) SiO2 
 PCOD9303758
Probable space group: C 2/C
;
_chemical_formula_sum "Si O2"
_cell_formula_units_Z 40
_cell_length_a 13.657830
_cell_length_b 28.225104
_cell_length_c 8.379117
_cell_angle_alpha 90.000000
_cell_angle_beta 36.983864
_cell_angle_gamma 90.000000
_cell_volume 1943.194069
_symmetry_space_group_name_H-M "C 2/C"
_symmetry_group_IT_number 15
_symmetry_cell_setting 'monoclinic'
loop_
_space_group_symop_operation_xyz
x,y,z
-x,y,1/2-z
-x,-y,-z
x,-y,1/2+z
1/2+x,1/2+y,z
1/2-x,1/2+y,1/2-z
1/2-x,1/2-y,-z
1/2+x,1/2-y,1/2+z
loop_
_atom_site_type_symbol
_atom_site_label
_atom_site_fract_x
_atom_site_fract_y
_atom_site_fract_z
Si Si1 0.749772 0.713042 0.233126
Si Si2 0.813650 0.352595 0.933399
Si Si3 0.386666 0.070307 0.122469
Si Si4 0.500000 0.999846 0.750000
Si Si5 0.915311 0.187487 0.522743
Si Si6 0.000000 0.644951 0.750000
O O1 0.797504 0.694850 0.347541
O O2 0.805270 0.766424 0.130767
O O3 0.560876 0.705468 0.446743
O O4 0.849166 0.678804 0.983033
O O5 0.764903 0.394997 0.874822
O O6 0.000000 0.358376 0.750000
O O7 0.694783 0.349078 0.237676
O O8 0.446544 0.034850 0.179831
O O9 0.510235 0.109703 0.887893
O O10 0.362390 0.035088 0.003509
O O11 0.000000 0.170379 0.250000
#
# Coordination Sequence:
#
# PCOD9303758 Si02
#       6
#     8   8   8   4   8   4
#     4  11  23  40  58  83 124 164 213 246 301 344
#     4  11  23  39  59  86 122 161 203 252 298 352
#     4   9  18  32  57  88 123 146 195 247 301 360
#     4   9  16  32  56  92 118 148 186 250 308 363
#     4  12  25  38  60  86 119 168 210 254 294 346
#     4   9  20  34  58  88 122 160 194 256 290 355
#
# _framework density 20.584664
#
# number of rings (size 3 to 8) (size 9 to 14) (size 15 to 20)
#    0.000    1.600    2.000    3.000    5.600    0.000 
#    0.000    0.000    0.000    0.000    0.000   65.800 
#    0.000    0.000    0.000    0.000    0.000    0.000 
#
# Total GULP energy -111435.112060 kJ/mol
# GULP energy per Si atom -5571.755603 kJ/mol
# Density = 2.053781 g / cm^3
# Si number density = 20.584664 Si / 1000 Ang^3
#
#
#
# Elastic Constant Matrix: (Units=GPa)
#
#
# Indices 1 2 3 4 5 6 
#
# 1 62.6368 7.8623 29.5129 0.0000 8.0515 0.0000
# 2 7.8623 88.8694 46.4782 0.0000 24.9212 0.0000
# 3 29.5129 46.4782 125.0492 0.0000 24.7992 0.0000
# 4 0.0000 0.0000 0.0000 18.9811 0.0000 19.6621
# 5 8.0515 24.9212 24.7992 0.0000 46.0409 0.0000
# 6 0.0000 0.0000 0.0000 19.6621 0.0000 29.9744
#
#
#
# Elastic Compliance Matrix: (Units=1/GPa)
#
#
# Indices 1 2 3 4 5 6 
#
# 1 0.018078 0.001088 -0.004397 0.000000 -0.001382 0.000000
# 2 0.001088 0.015310 -0.004776 0.000000 -0.005905 0.000000
# 3 -0.004397 -0.004776 0.011358 0.000000 -0.002764 0.000000
# 4 0.000000 0.000000 0.000000 0.164381 0.000000 -0.107828
# 5 -0.001382 -0.005905 -0.002764 0.000000 0.026646 0.000000
# 6 0.000000 0.000000 0.000000 -0.107828 0.000000 0.104093
#
#
# Mechanical properties :
#
#
# Convention : Reuss Voigt Hill
#
# Bulk Modulus (GPa) = 34.99554 49.36247 42.17901
# Shear Modulus (GPa) = 13.67759 31.84607 22.76183
#
# Velocity S-wave (km/s) = 2.58050 3.93756 3.32891
# Velocity P-wave (km/s) = 5.09081 6.68616 5.94227
#
# Compressibility (1/GPa) = 0.02857507
#
# Stress axis : x y z
#
# Youngs Moduli (GPa) = 55.31641 65.31712 88.04547
#
# Poissons Ratio (x) = -0.07104 0.38711
# Poissons Ratio (y) = -0.06016 0.42051
# Poissons Ratio (z) = 0.24321 0.31196
#
# Static dielectric constant tensor:
#      x y z
#    x 1.780640 0.000000 0.054690 
#    y 0.000000 1.768920 0.000000 
#    z 0.054690 0.000000 1.767450 
# 
# From -- ./inp_files/44735.got.cif
#   From: 2010.05.17/outbox.cif.g08.bks.cpg/sg15_23_cif.got.tgz:44735.got - 2010.06.03 18:47:42.
