data_PCOD9303022
_publ_section_title
;
Structure prediction by ZEFSAII (Michael W. Deem and Ramdas Pophale) SiO2 
 PCOD9303022
Probable space group: C 2/C
;
_chemical_formula_sum "Si O2"
_cell_formula_units_Z 64
_cell_length_a 14.386860
_cell_length_b 18.514674
_cell_length_c 19.027813
_cell_angle_alpha 90.000000
_cell_angle_beta 140.808551
_cell_angle_gamma 90.000000
_cell_volume 3202.791681
_symmetry_space_group_name_H-M "C 2/C"
_symmetry_group_IT_number 15
_symmetry_cell_setting 'monoclinic'
loop_
_space_group_symop_operation_xyz
x,y,z
-x,y,1/2-z
-x,-y,-z
x,-y,1/2+z
1/2+x,1/2+y,z
1/2-x,1/2+y,1/2-z
1/2-x,1/2-y,-z
1/2+x,1/2-y,1/2+z
loop_
_atom_site_type_symbol
_atom_site_label
_atom_site_fract_x
_atom_site_fract_y
_atom_site_fract_z
Si Si1 0.083121 0.455828 0.487428
Si Si2 0.347233 0.841086 0.322116
Si Si3 0.649298 0.001975 0.377444
Si Si4 0.633382 0.408931 0.774094
Si Si5 0.506532 0.307120 0.924711
Si Si6 0.934381 0.073015 0.495770
Si Si7 0.323615 0.834669 0.148849
Si Si8 0.592865 0.573967 0.732975
O O1 0.146194 0.504957 0.460876
O O2 0.210825 0.405034 0.594814
O O3 0.000000 0.500000 0.500000
O O4 0.963916 0.405310 0.380520
O O5 0.433862 0.770033 0.394851
O O6 0.282537 0.827628 0.206780
O O7 0.229569 0.871539 0.308366
O O8 0.500000 0.018240 0.250000
O O9 0.683406 0.918260 0.378925
O O10 0.766519 0.054273 0.411554
O O11 0.500000 0.412596 0.750000
O O12 0.580140 0.346459 0.690478
O O13 0.642830 0.490666 0.749389
O O14 0.470693 0.361815 0.966291
O O15 0.685443 0.300510 0.025021
O O16 0.997557 0.089739 0.609083
O O17 0.000000 0.000000 0.500000
O O18 0.500000 0.811909 0.250000
O O19 0.500000 0.578314 0.750000
#
# Coordination Sequence:
#
# PCOD9303022 Si02
#       8
#     8   8   8   8   8   8   8   8
#     4  12  25  42  67  99 137 178 225 283 337 400
#     4  12  26  44  65 101 140 180 224 277 350 403
#     4  11  22  41  68 104 131 176 235 277 339 398
#     4  11  24  41  67 104 135 172 234 281 331 406
#     4  12  27  42  69 103 139 183 227 279 341 410
#     4  12  22  41  72  97 132 176 234 279 330 405
#     4  11  22  44  69  95 137 181 220 274 339 413
#     4  11  22  44  74  96 128 180 232 286 338 396
#
# _framework density 19.982567
#
# number of rings (size 3 to 8) (size 9 to 14) (size 15 to 20)
#    0.000    0.500    7.500    2.250    3.500    1.000 
#    0.000    1.250    0.000    0.000    0.000    0.000 
#    0.000    0.000    0.000    0.000    0.000    0.000 
#
# Total GULP energy -178596.618349 kJ/mol
# GULP energy per Si atom -5581.144323 kJ/mol
# Density = 1.993709 g / cm^3
# Si number density = 19.982567 Si / 1000 Ang^3
#
#
#
# Elastic Constant Matrix: (Units=GPa)
#
#
# Indices 1 2 3 4 5 6 
#
# 1 91.6345 32.3098 26.4227 0.0000 8.7407 0.0000
# 2 32.3098 74.8611 5.7779 0.0001 10.4091 0.0000
# 3 26.4227 5.7779 92.0301 0.0001 16.6817 0.0001
# 4 0.0000 0.0001 0.0001 15.1232 0.0001 -0.4810
# 5 8.7407 10.4091 16.6817 0.0001 41.6069 0.0000
# 6 0.0000 0.0000 0.0001 -0.4810 0.0000 21.2489
#
#
#
# Elastic Compliance Matrix: (Units=1/GPa)
#
#
# Indices 1 2 3 4 5 6 
#
# 1 0.013998 -0.005755 -0.003651 0.000000 -0.000037 0.000000
# 2 -0.005755 0.016211 0.001241 0.000000 -0.003344 0.000000
# 3 -0.003651 0.001241 0.012675 0.000000 -0.004625 0.000000
# 4 0.000000 0.000000 0.000000 0.066171 0.000000 0.001498
# 5 -0.000037 -0.003344 -0.004625 0.000000 0.026733 0.000000
# 6 0.000000 0.000000 0.000000 0.001498 0.000000 0.047095
#
#
# Mechanical properties :
#
#
# Convention : Reuss Voigt Hill
#
# Bulk Modulus (GPa) = 37.65919 43.06070 40.35995
# Shear Modulus (GPa) = 24.03095 28.53014 26.28054
#
# Velocity S-wave (km/s) = 3.47161 3.78266 3.63047
# Velocity P-wave (km/s) = 5.91239 6.37761 6.14940
#
# Compressibility (1/GPa) = 0.02655395
#
# Stress axis : x y z
#
# Youngs Moduli (GPa) = 71.43731 61.68659 78.89710
#
# Poissons Ratio (x) = 0.35498 0.28805
# Poissons Ratio (y) = 0.41110 -0.09788
# Poissons Ratio (z) = 0.26082 -0.07653
#
# Static dielectric constant tensor:
#      x y z
#    x 1.760670 0.000000 -0.013430 
#    y 0.000000 1.692740 0.000000 
#    z -0.013430 0.000000 1.880170 
# 
# From -- ./inp_files/206464.got.cif
#   From: 2010.05.17/outbox.cif.g08.bks.cpg/sg15_104_cif.got.tgz:206464.got - 2010.06.03 18:47:42.
