data_PCOD9303561
_publ_section_title
;
Structure prediction by ZEFSAII (Michael W. Deem and Ramdas Pophale) SiO2 
 PCOD9303561
Probable space group: C 2/C
;
_chemical_formula_sum "Si O2"
_cell_formula_units_Z 44
_cell_length_a 15.499709
_cell_length_b 16.565333
_cell_length_c 8.795010
_cell_angle_alpha 90.000000
_cell_angle_beta 118.079668
_cell_angle_gamma 90.000000
_cell_volume 1992.385424
_symmetry_space_group_name_H-M "C 2/C"
_symmetry_group_IT_number 15
_symmetry_cell_setting 'monoclinic'
loop_
_space_group_symop_operation_xyz
x,y,z
-x,y,1/2-z
-x,-y,-z
x,-y,1/2+z
1/2+x,1/2+y,z
1/2-x,1/2+y,1/2-z
1/2-x,1/2-y,-z
1/2+x,1/2-y,1/2+z
loop_
_atom_site_type_symbol
_atom_site_label
_atom_site_fract_x
_atom_site_fract_y
_atom_site_fract_z
Si Si1 0.676883 0.739914 0.800354
Si Si2 0.500000 0.117216 0.750000
Si Si3 0.766849 0.995490 0.371638
Si Si4 0.430433 0.911106 0.847978
Si Si5 0.105165 0.924038 0.291758
Si Si6 0.789919 0.673718 0.618306
O O1 0.624139 0.822985 0.706277
O O2 0.595571 0.670769 0.752034
O O3 0.750958 0.693230 0.750615
O O4 0.750000 0.750000 0.000000
O O5 0.477448 0.079817 0.558920
O O6 0.404730 0.169068 0.701871
O O7 0.841165 0.969888 0.300902
O O8 0.751197 0.914351 0.459332
O O9 0.658499 0.024533 0.237132
O O10 0.819552 0.065044 0.508036
O O11 0.500000 0.916718 0.750000
O O12 0.000000 0.958839 0.250000
O O13 0.750000 0.750000 0.500000
#
# Coordination Sequence:
#
# PCOD9303561 Si02
#       6
#     8   4   8   8   8   8
#     4  11  22  45  72 101 147 193 245 308 374 443
#     4  12  26  46  76 110 148 204 258 304 382 452
#     4  11  26  46  70 109 149 190 248 318 373 453
#     4  12  26  47  78 116 152 200 252 314 384 452
#     4  11  24  45  73 104 145 194 248 304 381 455
#     4  11  25  47  68 102 150 195 247 312 375 447
#
# _framework density 22.084081000000001
#
# number of rings (size 3 to 8) (size 9 to 14) (size 15 to 20)
#    0.000    0.727    3.636    3.273    3.818    0.727 
#    1.636    0.000    0.000    0.000    0.000    0.000 
#    0.000    0.000    0.000    0.000    0.000    0.000 
#
# Total GULP energy -122631.101475 kJ/mol
# GULP energy per Si atom -5574.140976 kJ/mol
# Density = 2.203382 g / cm^3
# Si number density = 22.084081 Si / 1000 Ang^3
#
#
#
# Elastic Constant Matrix: (Units=GPa)
#
#
# Indices 1 2 3 4 5 6 
#
# 1 176.9949 28.2450 14.2755 0.0000 9.9157 0.0000
# 2 28.2450 121.0035 18.4070 0.0000 0.5343 0.0000
# 3 14.2755 18.4070 85.8700 0.0000 3.9284 0.0000
# 4 0.0000 0.0000 0.0000 33.3073 0.0000 7.2641
# 5 9.9157 0.5343 3.9284 0.0000 33.7046 0.0000
# 6 0.0000 0.0000 0.0000 7.2641 0.0000 50.9432
#
#
#
# Elastic Compliance Matrix: (Units=1/GPa)
#
#
# Indices 1 2 3 4 5 6 
#
# 1 0.006002 -0.001296 -0.000644 0.000000 -0.001670 0.000000
# 2 -0.001296 0.008823 -0.001696 0.000000 0.000439 0.000000
# 3 -0.000644 -0.001696 0.012171 0.000000 -0.001202 0.000000
# 4 0.000000 0.000000 0.000000 0.030987 0.000000 -0.004418
# 5 -0.001670 0.000439 -0.001202 0.000000 0.030294 0.000000
# 6 0.000000 0.000000 0.000000 -0.004418 0.000000 0.020260
#
#
# Mechanical properties :
#
#
# Convention : Reuss Voigt Hill
#
# Bulk Modulus (GPa) = 50.69633 56.19149 53.44391
# Shear Modulus (GPa) = 40.85549 45.12041 42.98795
#
# Velocity S-wave (km/s) = 4.30583 4.52499 4.41677
# Velocity P-wave (km/s) = 6.90841 7.26638 7.08965
#
# Compressibility (1/GPa) = 0.01972529
#
# Stress axis : x y z
#
# Youngs Moduli (GPa) = 166.60720 113.34367 82.16215
#
# Poissons Ratio (x) = 0.14687 0.05288
# Poissons Ratio (y) = 0.21588 0.13934
# Poissons Ratio (z) = 0.10724 0.19222
#
# Static dielectric constant tensor:
#      x y z
#    x 1.906090 0.000000 -0.054280 
#    y 0.000000 1.883580 0.000000 
#    z -0.054280 0.000000 1.819550 
# 
# From -- ./inp_files/39729.got.cif
#   From: 2010.05.17/outbox.cif.g08.bks.cpg/sg15_20_cif.got.tgz:39729.got - 2010.06.03 18:47:42.
