data_PCOD9303352
_publ_section_title
;
Structure prediction by ZEFSAII (Michael W. Deem and Ramdas Pophale) SiO2 
 PCOD9303352
Probable space group: C 2/C
;
_chemical_formula_sum "Si O2"
_cell_formula_units_Z 40
_cell_length_a 14.684728
_cell_length_b 14.163833
_cell_length_c 8.400467
_cell_angle_alpha 90.000000
_cell_angle_beta 86.743207
_cell_angle_gamma 90.000000
_cell_volume 1744.408349
_symmetry_space_group_name_H-M "C 2/C"
_symmetry_group_IT_number 15
_symmetry_cell_setting 'monoclinic'
loop_
_space_group_symop_operation_xyz
x,y,z
-x,y,1/2-z
-x,-y,-z
x,-y,1/2+z
1/2+x,1/2+y,z
1/2-x,1/2+y,1/2-z
1/2-x,1/2-y,-z
1/2+x,1/2-y,1/2+z
loop_
_atom_site_type_symbol
_atom_site_label
_atom_site_fract_x
_atom_site_fract_y
_atom_site_fract_z
Si Si1 0.291414 0.157485 0.580477
Si Si2 0.324800 0.170886 0.957056
Si Si3 0.196354 0.962384 0.602074
Si Si4 0.432770 0.543482 0.636574
Si Si5 0.009661 0.607980 0.059983
O O1 0.250000 0.250000 0.500000
O O2 0.312073 0.156320 0.768493
O O3 0.388563 0.139335 0.491825
O O4 0.220522 0.071068 0.563163
O O5 0.250000 0.250000 0.000000
O O6 0.292627 0.089003 0.086285
O O7 0.432506 0.174148 0.984629
O O8 0.143245 0.910322 0.463855
O O9 0.126168 0.967854 0.755115
O O10 0.500000 0.597037 0.750000
O O11 0.500000 0.500000 0.500000
O O12 0.000000 0.610637 0.250000
O O13 0.000000 0.500000 0.000000
#
# Coordination Sequence:
#
# PCOD9303352 Si02
#       5
#     8   8   8   8   8
#     4  12  27  47  74 109 148 194 250 315 376 446
#     4  12  27  47  74 109 148 193 252 312 376 448
#     4  11  22  43  72  99 143 188 246 307 372 438
#     4   9  20  40  64  98 135 185 236 286 362 444
#     4  12  26  48  78 109 149 200 256 311 377 451
#
# _framework density 22.930410999999999
#
# number of rings (size 3 to 8) (size 9 to 14) (size 15 to 20)
#    0.000    0.800    4.000    3.000    5.600    0.000 
#   10.800    0.000    0.000    0.000    0.000    0.000 
#    0.000    0.000    0.000    0.000    0.000    0.000 
#
# Total GULP energy -111468.218278 kJ/mol
# GULP energy per Si atom -5573.410914 kJ/mol
# Density = 2.287822 g / cm^3
# Si number density = 22.930411 Si / 1000 Ang^3
#
#
#
# Elastic Constant Matrix: (Units=GPa)
#
#
# Indices 1 2 3 4 5 6 
#
# 1 173.2270 47.8760 89.9751 0.0000 -11.8359 0.0000
# 2 47.8760 100.0211 37.4124 0.0000 -4.8278 0.0000
# 3 89.9751 37.4124 155.4953 0.0000 -18.2052 0.0000
# 4 0.0000 0.0000 0.0000 23.1955 0.0000 1.9790
# 5 -11.8359 -4.8278 -18.2052 0.0000 63.8616 0.0000
# 6 0.0000 0.0000 0.0000 1.9790 0.0000 38.4758
#
#
#
# Elastic Compliance Matrix: (Units=1/GPa)
#
#
# Indices 1 2 3 4 5 6 
#
# 1 0.008804 -0.002536 -0.004465 0.000000 0.000167 0.000000
# 2 -0.002536 0.011718 -0.001348 0.000000 0.000031 0.000000
# 3 -0.004465 -0.001348 0.009549 0.000000 0.001793 0.000000
# 4 0.000000 0.000000 0.000000 0.043302 0.000000 -0.002227
# 5 0.000167 0.000031 0.001793 0.000000 0.016203 0.000000
# 6 0.000000 0.000000 0.000000 -0.002227 0.000000 0.026105
#
#
# Mechanical properties :
#
#
# Convention : Reuss Voigt Hill
#
# Bulk Modulus (GPa) = 74.77892 86.58560 80.68226
# Shear Modulus (GPa) = 36.54023 42.00524 39.27274
#
# Velocity S-wave (km/s) = 3.99623 4.28466 4.14296
# Velocity P-wave (km/s) = 7.34678 7.89430 7.62545
#
# Compressibility (1/GPa) = 0.01337275
#
# Stress axis : x y z
#
# Youngs Moduli (GPa) = 113.58426 85.34178 104.72679
#
# Poissons Ratio (x) = 0.21644 0.46756
# Poissons Ratio (y) = 0.28806 0.14118
# Poissons Ratio (z) = 0.50710 0.11505
#
# Static dielectric constant tensor:
#      x y z
#    x 1.720290 0.000000 -0.177380 
#    y 0.000000 1.849640 0.000000 
#    z -0.177380 0.000000 1.666650 
# 
# From -- ./inp_files/37959.got.cif
#   From: 2010.05.17/outbox.cif.g08.bks.cpg/sg15_19_cif.got.tgz:37959.got - 2010.06.03 18:47:42.
