data_PCOD9303993
_publ_section_title
;
Structure prediction by ZEFSAII (Michael W. Deem and Ramdas Pophale) SiO2 
 PCOD9303993
Probable space group: C 2/C
;
_chemical_formula_sum "Si O2"
_cell_formula_units_Z 32
_cell_length_a 8.799454
_cell_length_b 4.640582
_cell_length_c 27.653957
_cell_angle_alpha 90.000000
_cell_angle_beta 108.255032
_cell_angle_gamma 90.000000
_cell_volume 1072.405219
_symmetry_space_group_name_H-M "C 2/C"
_symmetry_group_IT_number 15
_symmetry_cell_setting 'monoclinic'
loop_
_space_group_symop_operation_xyz
x,y,z
-x,y,1/2-z
-x,-y,-z
x,-y,1/2+z
1/2+x,1/2+y,z
1/2-x,1/2+y,1/2-z
1/2-x,1/2-y,-z
1/2+x,1/2-y,1/2+z
loop_
_atom_site_type_symbol
_atom_site_label
_atom_site_fract_x
_atom_site_fract_y
_atom_site_fract_z
Si Si1 0.175645 0.261124 0.612391
Si Si2 0.854766 0.523304 0.047566
Si Si3 0.311105 0.740060 0.317688
Si Si4 0.500000 0.500000 0.500000
Si Si5 0.500000 0.562569 0.250000
O O1 0.323059 0.154704 0.595189
O O2 0.177709 0.585137 0.631090
O O3 0.003245 0.239815 0.566603
O O4 0.177429 0.084915 0.662259
O O5 0.678126 0.656865 0.027857
O O6 0.907453 0.276794 0.016593
O O7 0.446066 0.755926 0.290094
O O8 0.149248 0.860435 0.278377
#
# Coordination Sequence:
#
# PCOD9303993 Si02
#       5
#     8   8   8   4   4
#     4  11  23  41  68  98 137 184 239 298 366 439
#     4   9  18  36  66  99 140 186 240 299 364 438
#     4  12  27  46  71 103 139 188 241 303 373 446
#     4   8  16  34  66 100 140 188 240 298 366 436
#     4  12  28  48  72 102 144 186 244 306 376 452
#
# _framework density 29.839469999999999
#
# number of rings (size 3 to 8) (size 9 to 14) (size 15 to 20)
#    0.000    1.500    0.000    4.500    0.000    7.000 
#    0.000    0.000    0.000  105.000    0.000    0.000 
#    0.000    0.000    0.000    0.000    0.000    0.000 
#
# Total GULP energy -89594.938357 kJ/mol
# GULP energy per Si atom -5599.683647 kJ/mol
# Density = 2.977155 g / cm^3
# Si number density = 29.839470 Si / 1000 Ang^3
#
#
#
# Elastic Constant Matrix: (Units=GPa)
#
#
# Indices 1 2 3 4 5 6 
#
# 1 284.4230 67.2385 68.8199 0.0000 -22.8264 0.0000
# 2 67.2385 98.3658 -20.8472 0.0000 14.3888 0.0000
# 3 68.8199 -20.8472 98.7797 0.0000 12.7864 0.0000
# 4 0.0000 0.0000 0.0000 37.1479 0.0000 11.0676
# 5 -22.8264 14.3888 12.7864 0.0000 64.1138 0.0000
# 6 0.0000 0.0000 0.0000 11.0676 0.0000 68.3286
#
#
#
# Elastic Compliance Matrix: (Units=1/GPa)
#
#
# Indices 1 2 3 4 5 6 
#
# 1 0.007768 -0.007868 -0.007862 0.000000 0.006099 0.000000
# 2 -0.007868 0.019169 0.010723 0.000000 -0.009242 0.000000
# 3 -0.007862 0.010723 0.019029 0.000000 -0.009001 0.000000
# 4 0.000000 0.000000 0.000000 0.028284 0.000000 -0.004581
# 5 0.006099 -0.009242 -0.009001 0.000000 0.021638 0.000000
# 6 0.000000 0.000000 0.000000 -0.004581 0.000000 0.015377
#
#
# Mechanical properties :
#
#
# Convention : Reuss Voigt Hill
#
# Bulk Modulus (GPa) = 27.81400 79.11009 53.46204
# Shear Modulus (GPa) = 37.52008 58.34190 47.93099
#
# Velocity S-wave (km/s) = 3.54983 4.42655 4.01221
# Velocity P-wave (km/s) = 5.11304 7.25915 6.27847
#
# Compressibility (1/GPa) = 0.03595312
#
# Stress axis : x y z
#
# Youngs Moduli (GPa) = 128.73916 52.16783 52.55118
#
# Poissons Ratio (x) = 0.41046 0.41314
# Poissons Ratio (y) = 1.01292 -0.56353
# Poissons Ratio (z) = 1.01211 -0.55942
#
# Static dielectric constant tensor:
#      x y z
#    x 2.178030 0.000000 -0.091120 
#    y 0.000000 2.554990 0.000000 
#    z -0.091120 0.000000 2.985820 
# 
# From -- ./inp_files/306276.got.cif
#   From: 2010.05.17/outbox.cif.g08.bks.cpg/sg15_154_cif.got.tgz:306276.got - 2010.06.03 18:47:42.
