data_PCOD9303686
_publ_section_title
;
Structure prediction by ZEFSAII (Michael W. Deem and Ramdas Pophale) SiO2 
 PCOD9303686
Probable space group: C 2/C
;
_chemical_formula_sum "Si O2"
_cell_formula_units_Z 64
_cell_length_a 14.902648
_cell_length_b 24.395864
_cell_length_c 11.260706
_cell_angle_alpha 90.000000
_cell_angle_beta 47.001482
_cell_angle_gamma 90.000000
_cell_volume 2994.216546
_symmetry_space_group_name_H-M "C 2/C"
_symmetry_group_IT_number 15
_symmetry_cell_setting 'monoclinic'
loop_
_space_group_symop_operation_xyz
x,y,z
-x,y,1/2-z
-x,-y,-z
x,-y,1/2+z
1/2+x,1/2+y,z
1/2-x,1/2+y,1/2-z
1/2-x,1/2-y,-z
1/2+x,1/2-y,1/2+z
loop_
_atom_site_type_symbol
_atom_site_label
_atom_site_fract_x
_atom_site_fract_y
_atom_site_fract_z
Si Si1 0.577386 0.324886 0.375365
Si Si2 0.767504 0.314629 0.002261
Si Si3 0.221122 0.297044 0.122733
Si Si4 0.137579 0.630303 0.498181
Si Si5 0.828763 0.516590 0.278304
Si Si6 0.388399 0.001347 0.982563
Si Si7 0.820343 0.123065 0.142071
Si Si8 0.463106 0.792079 0.003509
O O1 0.662584 0.337360 0.185447
O O2 0.658895 0.320636 0.420844
O O3 0.462430 0.364671 0.495172
O O4 0.525749 0.263349 0.402928
O O5 0.894415 0.321973 0.957795
O O6 0.750000 0.250000 0.000000
O O7 0.753451 0.340580 0.886856
O O8 0.139164 0.275127 0.305892
O O9 0.250000 0.250000 0.000000
O O10 0.148169 0.344925 0.119723
O O11 0.093090 0.567689 0.529135
O O12 0.272823 0.634646 0.317473
O O13 0.054195 0.668676 0.491549
O O14 0.823284 0.480722 0.162008
O O15 0.811343 0.502771 0.431583
O O16 0.731066 0.563268 0.339371
O O17 0.977598 0.526786 0.144199
#
# Coordination Sequence:
#
# PCOD9303686 Si02
#       8
#     8   8   8   8   8   8   8   8
#     4  11  23  40  58  88 132 176 218 262 315 393
#     4  11  23  38  60  89 126 175 217 264 314 390
#     4  11  23  37  57  90 127 174 214 262 318 387
#     4  11  23  38  63  98 125 168 213 271 339 390
#     4   9  20  38  63  94 124 164 209 279 350 393
#     4   9  20  39  64  94 131 156 213 285 348 389
#     4  11  23  39  62  89 128 173 213 263 333 396
#     4  11  23  35  58  89 128 167 215 263 319 386
#
# _framework density 21.37454
#
# number of rings (size 3 to 8) (size 9 to 14) (size 15 to 20)
#    0.000    1.500    2.500    2.250    3.500    8.000 
#    2.250    0.000    0.000    0.750    3.250    0.000 
#    0.000    0.000    0.000    0.000    0.000    0.000 
#
# Total GULP energy -178595.722603 kJ/mol
# GULP energy per Si atom -5581.116331 kJ/mol
# Density = 2.132589 g / cm^3
# Si number density = 21.374540 Si / 1000 Ang^3
#
#
#
# Elastic Constant Matrix: (Units=GPa)
#
#
# Indices 1 2 3 4 5 6 
#
# 1 101.0250 14.9501 36.1923 0.0000 8.1963 0.0000
# 2 14.9501 22.5244 7.5056 0.0000 -17.1834 0.0000
# 3 36.1923 7.5056 73.6596 0.0000 6.5705 0.0000
# 4 0.0000 0.0000 0.0000 22.9533 0.0000 -5.1780
# 5 8.1963 -17.1834 6.5705 0.0000 44.4843 0.0000
# 6 0.0000 0.0000 0.0000 -5.1780 0.0000 29.5995
#
#
#
# Elastic Compliance Matrix: (Units=1/GPa)
#
#
# Indices 1 2 3 4 5 6 
#
# 1 0.014182 -0.012992 -0.005030 0.000000 -0.006889 0.000000
# 2 -0.012992 0.080873 -0.004922 0.000000 0.034360 0.000000
# 3 -0.005030 -0.004922 0.016858 0.000000 -0.003464 0.000000
# 4 0.000000 0.000000 0.000000 0.045357 0.000000 0.007934
# 5 -0.006889 0.034360 -0.003464 0.000000 0.037534 0.000000
# 6 0.000000 0.000000 0.000000 0.007934 0.000000 0.035172
#
#
# Mechanical properties :
#
#
# Convention : Reuss Voigt Hill
#
# Bulk Modulus (GPa) = 15.14588 34.94498 25.04543
# Shear Modulus (GPa) = 16.78574 28.64482 22.71528
#
# Velocity S-wave (km/s) = 2.80539 3.66476 3.26348
# Velocity P-wave (km/s) = 4.19463 5.85591 5.09346
#
# Compressibility (1/GPa) = 0.06602454
#
# Stress axis : x y z
#
# Youngs Moduli (GPa) = 70.51154 12.36509 59.31918
#
# Poissons Ratio (x) = 0.16065 0.29837
# Poissons Ratio (y) = 0.91611 0.29196
# Poissons Ratio (z) = 0.35467 0.06086
#
# Static dielectric constant tensor:
#      x y z
#    x 1.801660 0.000000 0.030630 
#    y 0.000000 1.805940 0.000000 
#    z 0.030630 0.000000 1.823880 
# 
# From -- ./inp_files/101308.got.cif
#   From: 2010.05.17/outbox.cif.g08.bks.cpg/sg15_51_cif.got.tgz:101308.got - 2010.06.03 18:47:42.
