data_PCOD9303990
_publ_section_title
;
Structure prediction by ZEFSAII (Michael W. Deem and Ramdas Pophale) SiO2 
 PCOD9303990
Probable space group: C 2/C
;
_chemical_formula_sum "Si O2"
_cell_formula_units_Z 64
_cell_length_a 29.239716
_cell_length_b 6.594164
_cell_length_c 25.314517
_cell_angle_alpha 90.000000
_cell_angle_beta 38.898119
_cell_angle_gamma 90.000000
_cell_volume 3064.918741
_symmetry_space_group_name_H-M "C 2/C"
_symmetry_group_IT_number 15
_symmetry_cell_setting 'monoclinic'
loop_
_space_group_symop_operation_xyz
x,y,z
-x,y,1/2-z
-x,-y,-z
x,-y,1/2+z
1/2+x,1/2+y,z
1/2-x,1/2+y,1/2-z
1/2-x,1/2-y,-z
1/2+x,1/2-y,1/2+z
loop_
_atom_site_type_symbol
_atom_site_label
_atom_site_fract_x
_atom_site_fract_y
_atom_site_fract_z
Si Si1 0.729952 0.199436 0.926151
Si Si2 0.127566 0.085904 0.996873
Si Si3 0.879568 0.664631 0.252187
Si Si4 0.043414 0.053338 0.354356
Si Si5 0.822194 0.363369 0.451890
Si Si6 0.059178 0.341677 0.241198
Si Si7 0.346914 0.163444 0.694515
Si Si8 0.202540 0.393842 0.854147
O O1 0.815131 0.258007 0.848161
O O2 0.723182 0.041502 0.883759
O O3 0.678926 0.392985 0.961472
O O4 0.700585 0.079586 0.003472
O O5 0.136080 0.236651 0.039767
O O6 0.043239 0.030898 0.063531
O O7 0.157988 0.208606 0.919290
O O8 0.945564 0.554545 0.223592
O O9 0.845529 0.490816 0.245462
O O10 0.913006 0.843853 0.187487
O O11 0.058399 0.164552 0.284684
O O12 0.081157 0.199726 0.363397
O O13 0.750000 0.250000 0.500000
O O14 0.867713 0.362942 0.357659
O O15 0.000000 0.309843 0.250000
O O16 0.275925 0.306342 0.761804
O O17 0.342390 0.026368 0.646952
#
# Coordination Sequence:
#
# PCOD9303990 Si02
#       8
#     8   8   8   8   8   8   8   8
#     4  11  23  42  67  97 133 176 225 276 327 391
#     4  11  25  43  65 100 137 174 219 282 331 393
#     4  11  23  41  68  97 130 177 226 265 331 398
#     4  11  25  44  66  98 140 174 218 275 340 391
#     4  11  24  41  65  94 134 175 228 278 324 382
#     4  11  24  42  62  94 133 175 220 271 324 395
#     4  11  24  43  73  99 130 174 222 274 327 407
#     4  11  24  43  72  99 130 171 224 273 330 397
#
# _framework density 20.881466
#
# number of rings (size 3 to 8) (size 9 to 14) (size 15 to 20)
#    0.000    1.000    3.750    2.250    5.250    5.000 
#    0.000    1.250    0.000    0.000    0.000    0.000 
#    0.000    0.000    0.000    0.000    0.000    0.000 
#
# Total GULP energy -178907.459146 kJ/mol
# GULP energy per Si atom -5590.858098 kJ/mol
# Density = 2.083394 g / cm^3
# Si number density = 20.881466 Si / 1000 Ang^3
#
#
#
# Elastic Constant Matrix: (Units=GPa)
#
#
# Indices 1 2 3 4 5 6 
#
# 1 60.2504 8.7698 -8.9806 0.0099 -7.5027 0.0408
# 2 8.7698 90.5205 3.2719 0.0029 -7.7527 0.0081
# 3 -8.9806 3.2719 37.2851 -0.0028 -9.5074 0.0046
# 4 0.0099 0.0029 -0.0028 23.2685 -0.0073 6.3795
# 5 -7.5027 -7.7527 -9.5074 -0.0073 29.6937 0.0091
# 6 0.0408 0.0081 0.0046 6.3795 0.0091 27.5458
#
#
#
# Elastic Compliance Matrix: (Units=1/GPa)
#
#
# Indices 1 2 3 4 5 6 
#
# 1 0.018517 -0.001480 0.006190 0.000004 0.006274 -0.000031
# 2 -0.001480 0.011421 -0.000755 0.000000 0.002366 -0.000002
# 3 0.006190 -0.000755 0.031280 0.000010 0.011382 -0.000020
# 4 0.000004 0.000000 0.000010 0.045890 0.000019 -0.010628
# 5 0.006274 0.002366 0.011382 0.000019 0.039525 -0.000029
# 6 -0.000031 -0.000002 -0.000020 -0.010628 -0.000029 0.038765
#
#
# Mechanical properties :
#
#
# Convention : Reuss Voigt Hill
#
# Bulk Modulus (GPa) = 14.46654 21.57535 18.02094
# Shear Modulus (GPa) = 24.93384 28.43459 26.68421
#
# Velocity S-wave (km/s) = 3.45927 3.69414 3.57864
# Velocity P-wave (km/s) = 4.78523 5.34325 5.07192
#
# Compressibility (1/GPa) = 0.06912505
#
# Stress axis : x y z
#
# Youngs Moduli (GPa) = 54.00514 87.56124 31.96945
#
# Poissons Ratio (x) = 0.12962 -0.19788
# Poissons Ratio (y) = 0.07994 0.02415
# Poissons Ratio (z) = -0.33428 0.06615
#
# Static dielectric constant tensor:
#      x y z
#    x 1.746080 -0.000030 -0.001950 
#    y -0.000030 1.771530 0.000010 
#    z -0.001950 0.000010 1.690720 
# 
# From -- ./inp_files/304071.got.cif
#   From: 2010.05.17/outbox.cif.g08.bks.cpg/sg15_153_cif.got.tgz:304071.got - 2010.06.03 18:47:42.
