data_PCOD9303737
_publ_section_title
;
Structure prediction by ZEFSAII (Michael W. Deem and Ramdas Pophale) SiO2 
 PCOD9303737
Probable space group: C 2/C
;
_chemical_formula_sum "Si O2"
_cell_formula_units_Z 32
_cell_length_a 8.442661
_cell_length_b 11.434047
_cell_length_c 23.172664
_cell_angle_alpha 90.000000
_cell_angle_beta 142.710024
_cell_angle_gamma 90.000000
_cell_volume 1355.251333
_symmetry_space_group_name_H-M "C 2/C"
_symmetry_group_IT_number 15
_symmetry_cell_setting 'monoclinic'
loop_
_space_group_symop_operation_xyz
x,y,z
-x,y,1/2-z
-x,-y,-z
x,-y,1/2+z
1/2+x,1/2+y,z
1/2-x,1/2+y,1/2-z
1/2-x,1/2-y,-z
1/2+x,1/2-y,1/2+z
loop_
_atom_site_type_symbol
_atom_site_label
_atom_site_fract_x
_atom_site_fract_y
_atom_site_fract_z
Si Si1 0.486709 0.014231 0.899492
Si Si2 0.733909 0.516317 0.207768
Si Si3 0.745951 0.160982 0.070985
Si Si4 0.559629 0.354332 0.464461
O O1 0.349173 0.924919 0.904747
O O2 0.300822 0.028063 0.791186
O O3 0.747058 0.948378 0.951173
O O4 0.583013 0.120248 0.967620
O O5 0.551054 0.631356 0.154034
O O6 0.565778 0.418225 0.126359
O O7 0.000000 0.535340 0.250000
O O8 0.664997 0.291361 0.064382
O O9 0.750000 0.250000 0.500000
#
# Coordination Sequence:
#
# PCOD9303737 Si02
#       4
#     8   8   8   8
#     4   9  19  39  64  92 130 171 213 271 329 380
#     4  11  23  38  62  96 135 171 212 276 331 383
#     4   9  19  39  66  92 127 173 217 265 326 394
#     4   9  20  39  63  94 127 166 218 268 322 389
#
# _framework density 23.611854999999998
#
# number of rings (size 3 to 8) (size 9 to 14) (size 15 to 20)
#    0.000    2.500    0.000    2.250    0.000    8.000 
#    0.000   10.000    0.000    0.000    0.000    0.000 
#    0.000    0.000    0.000    0.000    0.000    0.000 
#
# Total GULP energy -89552.880855 kJ/mol
# GULP energy per Si atom -5597.055053 kJ/mol
# Density = 2.355811 g / cm^3
# Si number density = 23.611855 Si / 1000 Ang^3
#
#
#
# Elastic Constant Matrix: (Units=GPa)
#
#
# Indices 1 2 3 4 5 6 
#
# 1 102.8910 19.1889 39.7444 0.0000 3.8799 0.0000
# 2 19.1889 91.4002 57.5266 0.0000 -7.8625 0.0000
# 3 39.7444 57.5266 179.3217 0.0000 -16.6759 0.0000
# 4 0.0000 0.0000 0.0000 14.7112 0.0000 9.8387
# 5 3.8799 -7.8625 -16.6759 0.0000 47.2370 0.0000
# 6 0.0000 0.0000 0.0000 9.8387 0.0000 48.7122
#
#
#
# Elastic Compliance Matrix: (Units=1/GPa)
#
#
# Indices 1 2 3 4 5 6 
#
# 1 0.010848 -0.001021 -0.002249 0.000000 -0.001855 0.000000
# 2 -0.001021 0.013831 -0.004124 0.000000 0.000930 0.000000
# 3 -0.002249 -0.004124 0.007601 0.000000 0.002182 0.000000
# 4 0.000000 0.000000 0.000000 0.078591 0.000000 -0.015873
# 5 -0.001855 0.000930 0.002182 0.000000 0.022247 0.000000
# 6 0.000000 0.000000 0.000000 -0.015873 0.000000 0.023735
#
#
# Mechanical properties :
#
#
# Convention : Reuss Voigt Hill
#
# Bulk Modulus (GPa) = 57.17320 67.39252 62.28286
# Shear Modulus (GPa) = 28.17324 39.27563 33.72444
#
# Velocity S-wave (km/s) = 3.45799 4.08289 3.78336
# Velocity P-wave (km/s) = 6.34113 7.12954 6.74686
#
# Compressibility (1/GPa) = 0.01749071
#
# Stress axis : x y z
#
# Youngs Moduli (GPa) = 92.18042 72.30107 131.56202
#
# Poissons Ratio (x) = 0.07385 0.29591
# Poissons Ratio (y) = 0.09416 0.54258
# Poissons Ratio (z) = 0.20733 0.29818
#
# Static dielectric constant tensor:
#      x y z
#    x 1.978280 0.000000 0.039280 
#    y 0.000000 1.917440 0.000000 
#    z 0.039280 0.000000 1.841120 
# 
# From -- ./inp_files/132073.got.cif
#   From: 2010.05.17/outbox.cif.g08.bks.cpg/sg15_67_cif.got.tgz:132073.got - 2010.06.03 18:47:42.
