data_PCOD9303709
_publ_section_title
;
Structure prediction by ZEFSAII (Michael W. Deem and Ramdas Pophale) SiO2 
 PCOD9303709
Probable space group: C 2/C
;
_chemical_formula_sum "Si O2"
_cell_formula_units_Z 56
_cell_length_a 22.840119
_cell_length_b 11.832973
_cell_length_c 24.171690
_cell_angle_alpha 90.000000
_cell_angle_beta 153.499279
_cell_angle_gamma 90.000000
_cell_volume 2914.993899
_symmetry_space_group_name_H-M "C 2/C"
_symmetry_group_IT_number 15
_symmetry_cell_setting 'monoclinic'
loop_
_space_group_symop_operation_xyz
x,y,z
-x,y,1/2-z
-x,-y,-z
x,-y,1/2+z
1/2+x,1/2+y,z
1/2-x,1/2+y,1/2-z
1/2-x,1/2-y,-z
1/2+x,1/2-y,1/2+z
loop_
_atom_site_type_symbol
_atom_site_label
_atom_site_fract_x
_atom_site_fract_y
_atom_site_fract_z
Si Si1 0.093248 0.917103 0.112688
Si Si2 0.136081 0.659508 0.713796
Si Si3 0.670466 0.075040 0.535082
Si Si4 0.047003 0.485545 0.731581
Si Si5 0.346641 0.758799 0.634829
Si Si6 0.981316 0.332141 0.967996
Si Si7 0.282136 0.591436 0.203295
O O1 0.224187 0.885532 0.189653
O O2 0.026327 0.794957 0.062297
O O3 0.134254 0.988389 0.200996
O O4 0.000000 0.000000 0.000000
O O5 0.147133 0.789147 0.742317
O O6 0.094750 0.576908 0.728018
O O7 0.042437 0.663178 0.580963
O O8 0.783024 0.168147 0.622798
O O9 0.574865 0.101958 0.505585
O O10 0.578990 0.071153 0.404165
O O11 0.729053 0.953466 0.600115
O O12 0.853637 0.383491 0.668742
O O13 0.000000 0.536366 0.750000
O O14 0.500000 0.733271 0.750000
O O15 0.250000 0.750000 0.500000
O O16 0.836347 0.383833 0.853154
#
# Coordination Sequence:
#
# PCOD9303709 Si02
#       7
#     8   8   8   8   8   8   8
#     4  11  23  37  58  97 139 166 211 267 334 399
#     4  11  23  43  66  92 136 174 218 271 329 404
#     4  12  23  41  71  94 132 175 221 280 341 401
#     4  11  24  45  70  91 127 180 227 274 338 395
#     4  11  24  46  67 101 130 170 231 285 334 394
#     4  11  23  39  65 100 129 174 216 263 346 402
#     4  11  23  40  62 101 139 172 217 274 330 408
#
# _framework density 19.211019
#
# number of rings (size 3 to 8) (size 9 to 14) (size 15 to 20)
#    0.000    0.857    7.143    1.286    4.000    0.000 
#    0.000    1.429    0.000    0.000    0.000    0.000 
#    0.000    0.000    0.000    0.000    0.000    0.000 
#
# Total GULP energy -156302.768848 kJ/mol
# GULP energy per Si atom -5582.241745 kJ/mol
# Density = 1.916729 g / cm^3
# Si number density = 19.211019 Si / 1000 Ang^3
#
#
#
# Elastic Constant Matrix: (Units=GPa)
#
#
# Indices 1 2 3 4 5 6 
#
# 1 70.6109 41.4996 23.5674 0.0002 -10.0297 0.0000
# 2 41.4996 128.9497 43.1923 0.0006 -13.3163 0.0000
# 3 23.5674 43.1923 93.9606 0.0008 -20.8389 0.0000
# 4 0.0002 0.0006 0.0008 34.8687 -0.0001 -9.6751
# 5 -10.0297 -13.3163 -20.8389 -0.0001 29.7417 -0.0001
# 6 0.0000 0.0000 0.0000 -9.6751 -0.0001 20.0493
#
#
#
# Elastic Compliance Matrix: (Units=1/GPa)
#
#
# Indices 1 2 3 4 5 6 
#
# 1 0.018013 -0.004971 -0.001633 0.000000 0.002705 0.000000
# 2 -0.004971 0.010585 -0.003481 0.000000 0.000624 0.000000
# 3 -0.001633 -0.003481 0.014426 0.000000 0.007999 0.000000
# 4 0.000000 0.000000 0.000000 0.033113 0.000000 0.015979
# 5 0.002705 0.000624 0.007999 0.000000 0.040419 0.000000
# 6 0.000000 0.000000 0.000000 0.015979 0.000000 0.057588
#
#
# Mechanical properties :
#
#
# Convention : Reuss Voigt Hill
#
# Bulk Modulus (GPa) = 43.75365 56.67108 50.21237
# Shear Modulus (GPa) = 24.76092 29.28273 27.02183
#
# Velocity S-wave (km/s) = 3.59401 3.90842 3.75451
# Velocity P-wave (km/s) = 6.32829 7.06619 6.70739
#
# Compressibility (1/GPa) = 0.02285524
#
# Stress axis : x y z
#
# Youngs Moduli (GPa) = 55.51619 94.47374 69.31748
#
# Poissons Ratio (x) = 0.46960 0.11321
# Poissons Ratio (y) = 0.27595 0.24126
# Poissons Ratio (z) = 0.09067 0.32882
#
# Static dielectric constant tensor:
#      x y z
#    x 1.663320 0.000000 -0.008960 
#    y 0.000000 1.870550 0.000000 
#    z -0.008960 0.000000 1.727780 
# 
# From -- ./inp_files/280013.got.cif
#   From: 2010.05.17/outbox.cif.g08.bks.cpg/sg15_141_cif.got.tgz:280013.got - 2010.06.03 18:47:42.
