data_PCOD9303132
_publ_section_title
;
Structure prediction by ZEFSAII (Michael W. Deem and Ramdas Pophale) SiO2 
 PCOD9303132
Probable space group: C 2/C
;
_chemical_formula_sum "Si O2"
_cell_formula_units_Z 40
_cell_length_a 19.474823
_cell_length_b 13.840045
_cell_length_c 14.244297
_cell_angle_alpha 90.000000
_cell_angle_beta 26.756286
_cell_angle_gamma 90.000000
_cell_volume 1728.439042
_symmetry_space_group_name_H-M "C 2/C"
_symmetry_group_IT_number 15
_symmetry_cell_setting 'monoclinic'
loop_
_space_group_symop_operation_xyz
x,y,z
-x,y,1/2-z
-x,-y,-z
x,-y,1/2+z
1/2+x,1/2+y,z
1/2-x,1/2+y,1/2-z
1/2-x,1/2-y,-z
1/2+x,1/2-y,1/2+z
loop_
_atom_site_type_symbol
_atom_site_label
_atom_site_fract_x
_atom_site_fract_y
_atom_site_fract_z
Si Si1 0.254339 0.588571 0.486024
Si Si2 0.792957 0.563800 0.320940
Si Si3 0.043557 0.254639 0.343391
Si Si4 0.778662 0.254902 0.191237
Si Si5 0.633613 0.041044 0.964763
O O1 0.307958 0.508297 0.494551
O O2 0.125103 0.653880 0.695652
O O3 0.384730 0.660782 0.291965
O O4 0.183698 0.530944 0.484958
O O5 0.726376 0.667315 0.375302
O O6 0.828103 0.511743 0.179547
O O7 0.954451 0.567746 0.179143
O O8 0.079454 0.254134 0.410741
O O9 0.861949 0.256235 0.563576
O O10 0.775918 0.358052 0.144280
#
# Coordination Sequence:
#
# PCOD9303132 Si02
#       5
#     8   8   8   8   8
#     4  11  24  42  69 101 130 183 230 276 330 407
#     4  11  22  42  67 101 134 181 224 274 342 408
#     4  11  25  42  72 103 134 179 234 285 325 401
#     4  12  23  46  68 103 139 178 222 285 343 397
#     4  11  23  41  69  99 138 179 223 279 339 405
#
# _framework density 23.142267
#
# number of rings (size 3 to 8) (size 9 to 14) (size 15 to 20)
#    0.000    0.800    6.000    1.800    2.800    4.000 
#    0.000    0.000    0.000    0.000    0.000    0.000 
#    0.000    0.000    0.000    0.000    0.000    0.000 
#
# Total GULP energy -112065.330182 kJ/mol
# GULP energy per Si atom -5603.266509 kJ/mol
# Density = 2.308959 g / cm^3
# Si number density = 23.142267 Si / 1000 Ang^3
#
#
#
# Elastic Constant Matrix: (Units=GPa)
#
#
# Indices 1 2 3 4 5 6 
#
# 1 97.3601 49.5516 8.2258 0.0000 13.9193 0.0000
# 2 49.5516 194.7949 30.5313 0.0000 14.6732 0.0000
# 3 8.2258 30.5313 37.7234 -0.0001 6.7823 0.0000
# 4 0.0000 0.0000 -0.0001 25.4876 0.0000 11.4089
# 5 13.9193 14.6732 6.7823 0.0000 19.1149 0.0000
# 6 0.0000 0.0000 0.0000 11.4089 0.0000 54.3392
#
#
#
# Elastic Compliance Matrix: (Units=1/GPa)
#
#
# Indices 1 2 3 4 5 6 
#
# 1 0.012681 -0.002800 0.000827 0.000000 -0.007379 0.000000
# 2 -0.002800 0.006665 -0.004519 0.000000 -0.001474 0.000000
# 3 0.000827 -0.004519 0.031478 0.000000 -0.008303 0.000000
# 4 0.000000 0.000000 0.000000 0.043305 0.000000 -0.009092
# 5 -0.007379 -0.001474 -0.008303 0.000000 0.061766 0.000000
# 6 0.000000 0.000000 0.000000 -0.009092 0.000000 0.020312
#
#
# Mechanical properties :
#
#
# Convention : Reuss Voigt Hill
#
# Bulk Modulus (GPa) = 26.42548 56.27728 41.35138
# Shear Modulus (GPa) = 24.77657 35.89299 30.33478
#
# Velocity S-wave (km/s) = 3.27558 3.94251 3.62442
# Velocity P-wave (km/s) = 5.07439 6.71530 5.95167
#
# Compressibility (1/GPa) = 0.03784226
#
# Stress axis : x y z
#
# Youngs Moduli (GPa) = 78.85794 150.03564 31.76780
#
# Poissons Ratio (x) = 0.42005 -0.02628
# Poissons Ratio (y) = 0.22077 0.14355
# Poissons Ratio (z) = -0.06524 0.67798
#
# Static dielectric constant tensor:
#      x y z
#    x 1.851920 0.000000 -0.001890 
#    y 0.000000 1.863030 0.000000 
#    z -0.001890 0.000000 1.855940 
# 
# From -- ./inp_files/153728.got.cif
#   From: 2010.05.17/outbox.cif.g08.bks.cpg/sg15_77_cif.got.tgz:153728.got - 2010.06.03 18:47:42.
