data_PCOD9303646
_publ_section_title
;
Structure prediction by ZEFSAII (Michael W. Deem and Ramdas Pophale) SiO2 
 PCOD9303646
Probable space group: C 2/C
;
_chemical_formula_sum "Si O2"
_cell_formula_units_Z 48
_cell_length_a 8.977151
_cell_length_b 18.959894
_cell_length_c 21.241820
_cell_angle_alpha 90.000000
_cell_angle_beta 38.254899
_cell_angle_gamma 90.000000
_cell_volume 2238.565565
_symmetry_space_group_name_H-M "C 2/C"
_symmetry_group_IT_number 15
_symmetry_cell_setting 'monoclinic'
loop_
_space_group_symop_operation_xyz
x,y,z
-x,y,1/2-z
-x,-y,-z
x,-y,1/2+z
1/2+x,1/2+y,z
1/2-x,1/2+y,1/2-z
1/2-x,1/2-y,-z
1/2+x,1/2-y,1/2+z
loop_
_atom_site_type_symbol
_atom_site_label
_atom_site_fract_x
_atom_site_fract_y
_atom_site_fract_z
Si Si1 0.500000 0.517344 0.250000
Si Si2 0.949710 0.141632 0.923574
Si Si3 0.740646 0.208017 0.869729
Si Si4 0.464925 0.074657 0.623961
Si Si5 0.000000 0.370473 0.250000
Si Si6 0.936408 0.977414 0.906017
Si Si7 0.252132 0.365302 0.628198
O O1 0.272642 0.468353 0.312542
O O2 0.543549 0.556250 0.170116
O O3 0.805086 0.187380 0.920234
O O4 0.231925 0.166659 0.837654
O O5 0.979304 0.061049 0.889292
O O6 0.790356 0.135357 0.039903
O O7 0.566440 0.151382 0.896308
O O8 0.647363 0.287063 0.890050
O O9 0.000000 0.201813 0.750000
O O10 0.510177 0.084137 0.682804
O O11 0.676008 0.033733 0.520477
O O12 0.110328 0.933808 0.893191
O O13 0.000000 0.367404 0.750000
#
# Coordination Sequence:
#
# PCOD9303646 Si02
#       7
#     4   8   8   8   4   8   8
#     4  12  24  44  69  97 142 178 224 284 358 412
#     4  12  24  44  72 103 130 188 232 283 346 413
#     4  11  22  47  69  95 137 187 230 273 351 420
#     4  12  23  43  69 100 132 182 230 287 336 418
#     4  12  22  40  73  99 132 174 246 280 322 422
#     4  12  26  40  68 106 135 176 229 291 345 406
#     4  11  28  43  67 101 145 180 221 288 353 411
#
# _framework density 21.442301
#
# number of rings (size 3 to 8) (size 9 to 14) (size 15 to 20)
#    0.000    0.333    7.500    1.500    3.500    0.667 
#    0.000    0.833    0.000    0.000    0.000    0.000 
#    0.000    0.000    0.000    0.000    0.000    0.000 
#
# Total GULP energy -133974.610061 kJ/mol
# GULP energy per Si atom -5582.275419 kJ/mol
# Density = 2.139350 g / cm^3
# Si number density = 21.442301 Si / 1000 Ang^3
#
#
#
# Elastic Constant Matrix: (Units=GPa)
#
#
# Indices 1 2 3 4 5 6 
#
# 1 73.4558 -1.3668 26.6686 -0.3506 17.4186 -0.0443
# 2 -1.3668 53.9199 -7.2872 -0.2294 -12.5408 -0.0051
# 3 26.6686 -7.2872 131.2945 -0.2088 17.8726 -0.0325
# 4 -0.3506 -0.2294 -0.2088 423.4844 -0.0677 21.5729
# 5 17.4186 -12.5408 17.8726 -0.0677 48.8334 0.0296
# 6 -0.0443 -0.0051 -0.0325 21.5729 0.0296 22.0735
#
#
#
# Elastic Compliance Matrix: (Units=1/GPa)
#
#
# Indices 1 2 3 4 5 6 
#
# 1 0.015700 -0.001099 -0.002578 0.000009 -0.004939 0.000025
# 2 -0.001099 0.019824 0.000607 0.000012 0.005261 -0.000015
# 3 -0.002578 0.000607 0.008448 0.000002 -0.002017 0.000009
# 4 0.000009 0.000012 0.000002 0.002485 0.000004 -0.002429
# 5 -0.004939 0.005261 -0.002017 0.000004 0.024329 -0.000048
# 6 0.000025 -0.000015 0.000009 -0.002429 -0.000048 0.047677
#
#
# Mechanical properties :
#
#
# Convention : Reuss Voigt Hill
#
# Bulk Modulus (GPa) = 26.43147 32.74439 29.58793
# Shear Modulus (GPa) = 36.43972 114.92197 75.68084
#
# Velocity S-wave (km/s) = 4.12689 7.32887 5.94741
# Velocity P-wave (km/s) = 5.92130 9.32311 7.80968
#
# Compressibility (1/GPa) = 0.03783369
#
# Stress axis : x y z
#
# Youngs Moduli (GPa) = 63.69313 50.44427 118.36741
#
# Poissons Ratio (x) = 0.05544 0.30512
# Poissons Ratio (y) = 0.07000 -0.07190
# Poissons Ratio (z) = 0.16418 -0.03064
#
# Static dielectric constant tensor:
#      x y z
#    x 1.785970 0.000000 0.012230 
#    y 0.000000 1.773440 0.000030 
#    z 0.012230 0.000030 1.826390 
# 
# From -- ./inp_files/233724.got.cif
#   From: 2010.05.17/outbox.cif.g08.bks.cpg/sg15_117_cif.got.tgz:233724.got - 2010.06.03 18:47:42.
