data_PCOD9303779
_publ_section_title
;
Structure prediction by ZEFSAII (Michael W. Deem and Ramdas Pophale) SiO2 
 PCOD9303779
Probable space group: C 2/C
;
_chemical_formula_sum "Si O2"
_cell_formula_units_Z 32
_cell_length_a 19.291094
_cell_length_b 9.366220
_cell_length_c 10.807354
_cell_angle_alpha 90.000000
_cell_angle_beta 139.115157
_cell_angle_gamma 90.000000
_cell_volume 1278.136793
_symmetry_space_group_name_H-M "C 2/C"
_symmetry_group_IT_number 15
_symmetry_cell_setting 'monoclinic'
loop_
_space_group_symop_operation_xyz
x,y,z
-x,y,1/2-z
-x,-y,-z
x,-y,1/2+z
1/2+x,1/2+y,z
1/2-x,1/2+y,1/2-z
1/2-x,1/2-y,-z
1/2+x,1/2-y,1/2+z
loop_
_atom_site_type_symbol
_atom_site_label
_atom_site_fract_x
_atom_site_fract_y
_atom_site_fract_z
Si Si1 0.392978 0.254372 0.176623
Si Si2 0.113990 0.813771 0.867659
Si Si3 0.325361 0.951476 0.186731
Si Si4 0.719774 0.681285 0.755693
O O1 0.500000 0.278021 0.250000
O O2 0.372688 0.348789 0.270823
O O3 0.382269 0.091471 0.213793
O O4 0.300897 0.271146 0.949101
O O5 0.106856 0.688835 0.757665
O O6 0.000000 0.875238 0.750000
O O7 0.210875 0.919922 0.967499
O O8 0.161809 0.749366 0.060222
O O9 0.291725 0.938633 0.285517
#
# Coordination Sequence:
#
# PCOD9303779 Si02
#       4
#     8   8   8   8
#     4  11  23  39  63  91 117 157 196 248 299 337
#     4   9  19  37  59  86 120 161 191 243 295 346
#     4   9  21  36  62  87 120 153 208 234 293 360
#     4   9  23  38  57  89 125 147 200 248 288 357
#
# _framework density 25.036445000000001
#
# number of rings (size 3 to 8) (size 9 to 14) (size 15 to 20)
#    1.500    1.000    0.000    0.750    7.000    1.000 
#    0.000    6.250    0.000    0.000    0.000    0.000 
#    0.000    0.000    0.000    0.000    0.000    0.000 
#
# Total GULP energy -89127.349568 kJ/mol
# GULP energy per Si atom -5570.459348 kJ/mol
# Density = 2.497946 g / cm^3
# Si number density = 25.036445 Si / 1000 Ang^3
#
#
#
# Elastic Constant Matrix: (Units=GPa)
#
#
# Indices 1 2 3 4 5 6 
#
# 1 220.0470 30.3033 32.1065 0.0000 -5.3744 0.0000
# 2 30.3033 85.7827 -9.5404 0.0000 -20.6559 0.0000
# 3 32.1065 -9.5404 40.0331 0.0000 -10.1596 0.0000
# 4 0.0000 0.0000 0.0000 5.2628 0.0000 -1.3946
# 5 -5.3744 -20.6559 -10.1596 0.0000 50.4208 0.0000
# 6 0.0000 0.0000 0.0000 -1.3946 0.0000 29.7701
#
#
#
# Elastic Compliance Matrix: (Units=1/GPa)
#
#
# Indices 1 2 3 4 5 6 
#
# 1 0.005787 -0.003142 -0.005859 0.000000 -0.001851 0.000000
# 2 -0.003142 0.015522 0.008165 0.000000 0.007669 0.000000
# 3 -0.005859 0.008165 0.034056 0.000000 0.009583 0.000000
# 4 0.000000 0.000000 0.000000 0.192401 0.000000 0.009013
# 5 -0.001851 0.007669 0.009583 0.000000 0.024709 0.000000
# 6 0.000000 0.000000 0.000000 0.009013 0.000000 0.034013
#
#
# Mechanical properties :
#
#
# Convention : Reuss Voigt Hill
#
# Bulk Modulus (GPa) = 18.62444 50.17796 34.40120
# Shear Modulus (GPa) = 15.33473 36.62363 25.97918
#
# Velocity S-wave (km/s) = 2.47755 3.82882 3.22476
# Velocity P-wave (km/s) = 3.95467 6.29539 5.25697
#
# Compressibility (1/GPa) = 0.05369290
#
# Stress axis : x y z
#
# Youngs Moduli (GPa) = 172.80551 64.42503 29.36313
#
# Poissons Ratio (x) = 0.20240 0.17205
# Poissons Ratio (y) = 0.54288 -0.23975
# Poissons Ratio (z) = 1.01254 -0.52603
#
# Static dielectric constant tensor:
#      x y z
#    x 2.020130 0.000000 0.015600 
#    y 0.000000 2.071820 0.000000 
#    z 0.015600 0.000000 1.981610 
# 
# From -- ./inp_files/103419.got.cif
#   From: 2010.05.17/outbox.cif.g08.bks.cpg/sg15_52_cif.got.tgz:103419.got - 2010.06.03 18:47:42.
