data_PCOD9303684
_publ_section_title
;
Structure prediction by ZEFSAII (Michael W. Deem and Ramdas Pophale) SiO2 
 PCOD9303684
Probable space group: C 2/C
;
_chemical_formula_sum "Si O2"
_cell_formula_units_Z 48
_cell_length_a 17.765986
_cell_length_b 7.077926
_cell_length_c 18.943900
_cell_angle_alpha 90.000000
_cell_angle_beta 75.675938
_cell_angle_gamma 90.000000
_cell_volume 2308.070248
_symmetry_space_group_name_H-M "C 2/C"
_symmetry_group_IT_number 15
_symmetry_cell_setting 'monoclinic'
loop_
_space_group_symop_operation_xyz
x,y,z
-x,y,1/2-z
-x,-y,-z
x,-y,1/2+z
1/2+x,1/2+y,z
1/2-x,1/2+y,1/2-z
1/2-x,1/2-y,-z
1/2+x,1/2-y,1/2+z
loop_
_atom_site_type_symbol
_atom_site_label
_atom_site_fract_x
_atom_site_fract_y
_atom_site_fract_z
Si Si1 0.211977 0.539816 0.125410
Si Si2 0.317016 0.060672 0.032076
Si Si3 0.471655 0.185359 0.965446
Si Si4 0.372552 0.360913 0.546641
Si Si5 0.927540 0.298181 0.317209
Si Si6 0.342183 0.457036 0.389493
O O1 0.305852 0.541867 0.110432
O O2 0.151227 0.412870 0.183080
O O3 0.181164 0.755715 0.137030
O O4 0.201638 0.479162 0.045626
O O5 0.346585 0.860057 0.053927
O O6 0.234840 0.089203 0.088158
O O7 0.385681 0.214103 0.019321
O O8 0.537482 0.345488 0.952037
O O9 0.454856 0.135272 0.888476
O O10 0.500000 0.000000 0.000000
O O11 0.366974 0.416872 0.464966
O O12 0.000000 0.325161 0.250000
O O13 0.904933 0.078655 0.333369
#
# Coordination Sequence:
#
# PCOD9303684 Si02
#       6
#     8   8   8   8   8   8
#     4   8  16  32  53  74 102 143 177 212 265 325
#     4   7  13  27  51  81 104 130 166 223 271 308
#     4   9  17  32  55  82 109 132 175 232 271 304
#     4   8  14  28  53  79 104 130 170 222 271 308
#     4  11  23  35  52  76 109 148 181 219 272 332
#     4   9  17  32  52  79 106 131 178 221 264 324
#
# _framework density 20.796595
#
# number of rings (size 3 to 8) (size 9 to 14) (size 15 to 20)
#    0.000    3.333    0.000    3.000    0.000    7.333 
#    0.000    0.000   11.000    0.000    0.000    0.000 
#    0.000    0.000    0.000    0.000    0.000    0.000 
#
# Total GULP energy -133608.457606 kJ/mol
# GULP energy per Si atom -5567.019067 kJ/mol
# Density = 2.074926 g / cm^3
# Si number density = 20.796595 Si / 1000 Ang^3
#
#
#
# Elastic Constant Matrix: (Units=GPa)
#
#
# Indices 1 2 3 4 5 6 
#
# 1 97.4228 24.9090 23.1387 0.0000 -34.5984 0.0000
# 2 24.9090 85.5920 29.6850 0.0000 -21.9675 0.0000
# 3 23.1387 29.6850 66.7000 0.0000 -40.1331 0.0000
# 4 0.0000 0.0000 0.0000 18.0502 0.0000 -16.9321
# 5 -34.5984 -21.9675 -40.1331 0.0000 33.6285 0.0000
# 6 0.0000 0.0000 0.0000 -16.9321 0.0000 39.7007
#
#
#
# Elastic Compliance Matrix: (Units=1/GPa)
#
#
# Indices 1 2 3 4 5 6 
#
# 1 0.022804 -0.001827 0.022351 0.000000 0.048943 0.000000
# 2 -0.001827 0.014310 -0.004403 0.000000 0.002214 0.000000
# 3 0.022351 -0.004403 0.075568 0.000000 0.110304 0.000000
# 4 0.000000 0.000000 0.000000 0.092347 0.000000 0.039385
# 5 0.048943 0.002214 0.110304 0.000000 0.213176 0.000000
# 6 0.000000 0.000000 0.000000 0.039385 0.000000 0.041986
#
#
# Mechanical properties :
#
#
# Convention : Reuss Voigt Hill
#
# Bulk Modulus (GPa) = 6.90018 45.02005 25.96011
# Shear Modulus (GPa) = 10.49849 29.74133 20.11991
#
# Velocity S-wave (km/s) = 2.24925 3.78578 3.11378
# Velocity P-wave (km/s) = 3.17343 6.38782 5.04356
#
# Compressibility (1/GPa) = 0.14492381
#
# Stress axis : x y z
#
# Youngs Moduli (GPa) = 43.85100 69.88008 13.23311
#
# Poissons Ratio (x) = 0.12767 -0.29577
# Poissons Ratio (y) = 0.08011 0.05827
# Poissons Ratio (z) = -0.98010 0.30769
#
# Static dielectric constant tensor:
#      x y z
#    x 1.841670 0.000000 -0.060430 
#    y 0.000000 1.818800 0.000000 
#    z -0.060430 0.000000 1.721410 
# 
# From -- ./inp_files/276014.got.cif
#   From: 2010.05.17/outbox.cif.g08.bks.cpg/sg15_139_cif.got.tgz:276014.got - 2010.06.03 18:47:42.
