data_PCOD9303435
_publ_section_title
;
Structure prediction by ZEFSAII (Michael W. Deem and Ramdas Pophale) SiO2 
 PCOD9303435
Probable space group: C 2/C
;
_chemical_formula_sum "Si O2"
_cell_formula_units_Z 52
_cell_length_a 10.761051
_cell_length_b 23.345153
_cell_length_c 12.458749
_cell_angle_alpha 90.000000
_cell_angle_beta 117.463946
_cell_angle_gamma 90.000000
_cell_volume 2777.134593
_symmetry_space_group_name_H-M "C 2/C"
_symmetry_group_IT_number 15
_symmetry_cell_setting 'monoclinic'
loop_
_space_group_symop_operation_xyz
x,y,z
-x,y,1/2-z
-x,-y,-z
x,-y,1/2+z
1/2+x,1/2+y,z
1/2-x,1/2+y,1/2-z
1/2-x,1/2-y,-z
1/2+x,1/2-y,1/2+z
loop_
_atom_site_type_symbol
_atom_site_label
_atom_site_fract_x
_atom_site_fract_y
_atom_site_fract_z
Si Si1 0.534020 0.233664 0.876588
Si Si2 0.583910 0.451278 0.896083
Si Si3 0.500000 0.352720 0.250000
Si Si4 0.760118 0.159103 0.090177
Si Si5 0.154567 0.635909 0.285689
Si Si6 0.116898 0.927522 0.485266
Si Si7 0.267071 0.258974 0.133076
O O1 0.500000 0.204111 0.750000
O O2 0.617110 0.292421 0.876444
O O3 0.386779 0.243718 0.876241
O O4 0.629158 0.193118 0.988184
O O5 0.500000 0.448821 0.750000
O O6 0.687691 0.397718 0.948242
O O7 0.472111 0.443669 0.945895
O O8 0.655371 0.513125 0.941139
O O9 0.525023 0.390999 0.365107
O O10 0.360671 0.313533 0.201402
O O11 0.720193 0.133719 0.191941
O O12 0.256142 0.609280 0.416102
O O13 0.150097 0.703928 0.295361
O O14 0.000000 0.612473 0.250000
O O15 0.250000 0.250000 0.000000
#
# Coordination Sequence:
#
# PCOD9303435 Si02
#       7
#     8   8   4   8   8   8   8
#     4  11  24  40  63 100 130 168 213 273 323 397
#     4  11  22  44  70  93 122 172 222 273 321 385
#     4  12  26  38  64  98 134 172 216 276 320 390
#     4  11  24  41  68  92 131 171 219 268 329 388
#     4  12  23  42  65  96 130 175 212 269 329 399
#     4  11  25  42  67  96 127 168 229 270 320 385
#     4  12  24  38  61  94 134 172 210 258 333 392
#
# _framework density 18.724336000000001
#
# number of rings (size 3 to 8) (size 9 to 14) (size 15 to 20)
#    0.000    0.615    6.154    2.308    2.154    0.000 
#    0.000    1.538    0.000    0.000    0.000    0.000 
#    0.000    0.000    0.000    0.000    0.000    0.000 
#
# Total GULP energy -144984.703320 kJ/mol
# GULP energy per Si atom -5576.334743 kJ/mol
# Density = 1.868172 g / cm^3
# Si number density = 18.724336 Si / 1000 Ang^3
#
#
#
# Elastic Constant Matrix: (Units=GPa)
#
#
# Indices 1 2 3 4 5 6 
#
# 1 116.0232 24.1708 52.6448 0.0000 6.6990 0.0000
# 2 24.1708 103.7322 37.1648 0.0000 12.2481 0.0000
# 3 52.6448 37.1648 115.1789 0.0000 3.8394 0.0000
# 4 0.0000 0.0000 0.0000 26.2912 0.0000 -6.8050
# 5 6.6990 12.2481 3.8394 0.0000 28.1142 0.0000
# 6 0.0000 0.0000 0.0000 -6.8050 0.0000 16.8365
#
#
#
# Elastic Compliance Matrix: (Units=1/GPa)
#
#
# Indices 1 2 3 4 5 6 
#
# 1 0.011016 -0.000660 -0.004766 0.000000 -0.001686 0.000000
# 2 -0.000660 0.011480 -0.003256 0.000000 -0.004399 0.000000
# 3 -0.004766 -0.003256 0.011880 0.000000 0.000932 0.000000
# 4 0.000000 0.000000 0.000000 0.042480 0.000000 0.017170
# 5 -0.001686 -0.004399 0.000932 0.000000 0.037760 0.000000
# 6 0.000000 0.000000 0.000000 0.017170 0.000000 0.066334
#
#
# Mechanical properties :
#
#
# Convention : Reuss Voigt Hill
#
# Bulk Modulus (GPa) = 58.78106 62.54387 60.66247
# Shear Modulus (GPa) = 24.51149 28.97863 26.74506
#
# Velocity S-wave (km/s) = 3.62203 3.93828 3.78346
# Velocity P-wave (km/s) = 6.99666 7.35901 7.18012
#
# Compressibility (1/GPa) = 0.01701228
#
# Stress axis : x y z
#
# Youngs Moduli (GPa) = 90.77335 87.10807 84.17475
#
# Poissons Ratio (x) = 0.05752 0.40118
# Poissons Ratio (y) = 0.05994 0.27406
# Poissons Ratio (z) = 0.43263 0.28361
#
# Static dielectric constant tensor:
#      x y z
#    x 1.705470 0.000000 -0.001230 
#    y 0.000000 1.642080 0.000000 
#    z -0.001230 0.000000 1.665460 
# 
# From -- ./inp_files/89719.got.cif
#   From: 2010.05.17/outbox.cif.g08.bks.cpg/sg15_45_cif.got.tgz:89719.got - 2010.06.03 18:47:42.
