data_PCOD9303569
_publ_section_title
;
Structure prediction by ZEFSAII (Michael W. Deem and Ramdas Pophale) SiO2 
 PCOD9303569
Probable space group: C 2/C
;
_chemical_formula_sum "Si O2"
_cell_formula_units_Z 28
_cell_length_a 20.124342
_cell_length_b 10.954781
_cell_length_c 9.286652
_cell_angle_alpha 90.000000
_cell_angle_beta 149.956745
_cell_angle_gamma 90.000000
_cell_volume 1024.995487
_symmetry_space_group_name_H-M "C 2/C"
_symmetry_group_IT_number 15
_symmetry_cell_setting 'monoclinic'
loop_
_space_group_symop_operation_xyz
x,y,z
-x,y,1/2-z
-x,-y,-z
x,-y,1/2+z
1/2+x,1/2+y,z
1/2-x,1/2+y,1/2-z
1/2-x,1/2-y,-z
1/2+x,1/2-y,1/2+z
loop_
_atom_site_type_symbol
_atom_site_label
_atom_site_fract_x
_atom_site_fract_y
_atom_site_fract_z
Si Si1 0.225129 0.873962 0.613241
Si Si2 0.081662 0.619853 0.265612
Si Si3 0.113691 0.722174 0.821345
Si Si4 0.000000 0.943173 0.750000
O O1 0.137129 0.753235 0.419622
O O2 0.289801 0.923344 0.585823
O O3 0.340578 0.831956 0.939654
O O4 0.129752 0.973941 0.505202
O O5 0.000000 0.569629 0.250000
O O6 0.969901 0.634648 0.935248
O O7 0.032318 0.848405 0.683437
O O8 0.250000 0.750000 0.000000
#
# Coordination Sequence:
#
# PCOD9303569 Si02
#       4
#     8   8   8   4
#     4  11  24  45  77 115 153 202 264 318 381 468
#     4  11  22  45  73 110 165 195 247 338 380 443
#     4  12  24  47  80 114 159 201 254 332 383 457
#     4  12  26  50  86 112 146 216 266 298 406 468
#
# _framework density 27.317194000000001
#
# number of rings (size 3 to 8) (size 9 to 14) (size 15 to 20)
#    0.000    0.571    7.143    0.000    0.000    4.571 
#    0.000    1.429   15.714    0.000    0.000    0.000 
#    0.000    0.000    0.000    0.000    0.000    0.000 
#
# Total GULP energy -78480.134408 kJ/mol
# GULP energy per Si atom -5605.723886 kJ/mol
# Density = 2.725502 g / cm^3
# Si number density = 27.317194 Si / 1000 Ang^3
#
#
#
# Elastic Constant Matrix: (Units=GPa)
#
#
# Indices 1 2 3 4 5 6 
#
# 1 249.8451 54.3747 58.6505 0.0000 22.2939 0.0000
# 2 54.3747 134.5480 49.9373 0.0000 18.5715 0.0000
# 3 58.6505 49.9373 139.8342 0.0000 -0.7429 0.0000
# 4 0.0000 0.0000 0.0000 37.4756 0.0000 19.2537
# 5 22.2939 18.5715 -0.7429 0.0000 48.6908 0.0000
# 6 0.0000 0.0000 0.0000 19.2537 0.0000 57.6699
#
#
#
# Elastic Compliance Matrix: (Units=1/GPa)
#
#
# Indices 1 2 3 4 5 6 
#
# 1 0.004781 -0.001078 -0.001630 0.000000 -0.001802 0.000000
# 2 -0.001078 0.009382 -0.002915 0.000000 -0.003129 0.000000
# 3 -0.001630 -0.002915 0.008886 0.000000 0.001993 0.000000
# 4 0.000000 0.000000 0.000000 0.032209 0.000000 -0.010753
# 5 -0.001802 -0.003129 0.001993 0.000000 0.022587 0.000000
# 6 0.000000 0.000000 0.000000 -0.010753 0.000000 0.020930
#
#
# Mechanical properties :
#
#
# Convention : Reuss Voigt Hill
#
# Bulk Modulus (GPa) = 84.72197 94.46136 89.59167
# Shear Modulus (GPa) = 43.87729 52.85159 48.36444
#
# Velocity S-wave (km/s) = 4.01211 4.40334 4.21227
# Velocity P-wave (km/s) = 7.24874 7.77863 7.51835
#
# Compressibility (1/GPa) = 0.01180331
#
# Stress axis : x y z
#
# Youngs Moduli (GPa) = 209.18168 106.58949 112.53267
#
# Poissons Ratio (x) = 0.11494 0.18338
# Poissons Ratio (y) = 0.22557 0.32800
# Poissons Ratio (z) = 0.34088 0.31068
#
# Static dielectric constant tensor:
#      x y z
#    x 2.158120 0.000000 -0.030950 
#    y 0.000000 2.216850 0.000000 
#    z -0.030950 0.000000 2.026480 
# 
# From -- ./inp_files/55721.got.cif
#   From: 2010.05.17/outbox.cif.g08.bks.cpg/sg15_28_cif.got.tgz:55721.got - 2010.06.03 18:47:42.
