data_PCOD9303071
_publ_section_title
;
Structure prediction by ZEFSAII (Michael W. Deem and Ramdas Pophale) SiO2 
 PCOD9303071
Probable space group: C 2/C
;
_chemical_formula_sum "Si O2"
_cell_formula_units_Z 48
_cell_length_a 9.303221
_cell_length_b 17.154448
_cell_length_c 19.201816
_cell_angle_alpha 90.000000
_cell_angle_beta 130.011514
_cell_angle_gamma 90.000000
_cell_volume 2347.108190
_symmetry_space_group_name_H-M "C 2/C"
_symmetry_group_IT_number 15
_symmetry_cell_setting 'monoclinic'
loop_
_space_group_symop_operation_xyz
x,y,z
-x,y,1/2-z
-x,-y,-z
x,-y,1/2+z
1/2+x,1/2+y,z
1/2-x,1/2+y,1/2-z
1/2-x,1/2-y,-z
1/2+x,1/2-y,1/2+z
loop_
_atom_site_type_symbol
_atom_site_label
_atom_site_fract_x
_atom_site_fract_y
_atom_site_fract_z
Si Si1 0.292732 0.771308 0.191398
Si Si2 0.533153 0.393467 0.444727
Si Si3 0.933652 0.583152 0.012309
Si Si4 0.233830 0.674385 0.042222
Si Si5 0.876231 0.362747 0.781979
Si Si6 0.439541 0.568341 0.398251
O O1 0.500000 0.809759 0.250000
O O2 0.123544 0.829226 0.119063
O O3 0.312432 0.703134 0.140221
O O4 0.213281 0.723055 0.232222
O O5 0.711964 0.402497 0.450295
O O6 0.434301 0.477412 0.412329
O O7 0.612338 0.384612 0.547760
O O8 0.023031 0.647311 0.989048
O O9 0.020986 0.602511 0.116828
O O10 0.000000 0.500000 0.000000
O O11 0.354118 0.601410 0.053704
O O12 0.250000 0.750000 0.000000
O O13 0.697573 0.415207 0.707570
O O14 0.000000 0.362839 0.750000
#
# Coordination Sequence:
#
# PCOD9303071 Si02
#       6
#     8   8   8   8   8   8
#     4  11  24  42  67  99 135 177 232 284 340 415
#     4  11  24  43  68 102 138 178 234 288 345 417
#     4  11  24  44  70 101 137 181 231 284 348 416
#     4  11  22  41  71  95 130 181 224 273 347 416
#     4  11  24  43  71  98 137 184 233 286 351 418
#     4  11  22  43  69  97 139 185 224 281 355 413
#
# _framework density 20.450697000000002
#
# number of rings (size 3 to 8) (size 9 to 14) (size 15 to 20)
#    0.000    1.000    6.667    0.000    0.000    4.667 
#    3.000    0.000    0.000    0.000    0.000    0.000 
#    0.000    0.000    0.000    0.000    0.000    0.000 
#
# Total GULP energy -133715.177561 kJ/mol
# GULP energy per Si atom -5571.465732 kJ/mol
# Density = 2.040415 g / cm^3
# Si number density = 20.450697 Si / 1000 Ang^3
#
#
#
# Elastic Constant Matrix: (Units=GPa)
#
#
# Indices 1 2 3 4 5 6 
#
# 1 121.8886 26.0031 24.7508 0.0000 7.9177 0.0000
# 2 26.0031 75.2724 29.0466 0.0000 -2.5562 0.0000
# 3 24.7508 29.0466 67.3639 0.0000 12.6333 0.0000
# 4 0.0000 0.0000 0.0000 28.5652 0.0000 -1.3107
# 5 7.9177 -2.5562 12.6333 0.0000 29.3964 0.0000
# 6 0.0000 0.0000 0.0000 -1.3107 0.0000 38.2948
#
#
#
# Elastic Compliance Matrix: (Units=1/GPa)
#
#
# Indices 1 2 3 4 5 6 
#
# 1 0.009260 -0.002500 -0.001975 0.000000 -0.001863 0.000000
# 2 -0.002500 0.017237 -0.007528 0.000000 0.005408 0.000000
# 3 -0.001975 -0.007528 0.020491 0.000000 -0.008929 0.000000
# 4 0.000000 0.000000 0.000000 0.035063 0.000000 0.001200
# 5 -0.001863 0.005408 -0.008929 0.000000 0.038827 0.000000
# 6 0.000000 0.000000 0.000000 0.001200 0.000000 0.026154
#
#
# Mechanical properties :
#
#
# Convention : Reuss Voigt Hill
#
# Bulk Modulus (GPa) = 43.51253 47.12510 45.31881
# Shear Modulus (GPa) = 27.98014 31.56624 29.77319
#
# Velocity S-wave (km/s) = 3.70290 3.93304 3.81970
# Velocity P-wave (km/s) = 6.29324 6.61199 6.45458
#
# Compressibility (1/GPa) = 0.02298189
#
# Stress axis : x y z
#
# Youngs Moduli (GPa) = 107.99664 58.01362 48.80214
#
# Poissons Ratio (x) = 0.14503 0.09638
# Poissons Ratio (y) = 0.26998 0.36739
# Poissons Ratio (z) = 0.21328 0.43674
#
# Static dielectric constant tensor:
#      x y z
#    x 1.841820 0.000000 -0.010300 
#    y 0.000000 1.713820 0.000000 
#    z -0.010300 0.000000 1.776550 
# 
# From -- ./inp_files/232500.got.cif
#   From: 2010.05.17/outbox.cif.g08.bks.cpg/sg15_117_cif.got.tgz:232500.got - 2010.06.03 18:47:42.
