data_PCOD9303766
_publ_section_title
;
Structure prediction by ZEFSAII (Michael W. Deem and Ramdas Pophale) SiO2 
 PCOD9303766
Probable space group: C 2/C
;
_chemical_formula_sum "Si O2"
_cell_formula_units_Z 40
_cell_length_a 12.830092
_cell_length_b 25.753256
_cell_length_c 9.150087
_cell_angle_alpha 90.000000
_cell_angle_beta 39.443012
_cell_angle_gamma 90.000000
_cell_volume 1920.760083
_symmetry_space_group_name_H-M "C 2/C"
_symmetry_group_IT_number 15
_symmetry_cell_setting 'monoclinic'
loop_
_space_group_symop_operation_xyz
x,y,z
-x,y,1/2-z
-x,-y,-z
x,-y,1/2+z
1/2+x,1/2+y,z
1/2-x,1/2+y,1/2-z
1/2-x,1/2-y,-z
1/2+x,1/2-y,1/2+z
loop_
_atom_site_type_symbol
_atom_site_label
_atom_site_fract_x
_atom_site_fract_y
_atom_site_fract_z
Si Si1 0.097016 0.780370 0.794148
Si Si2 0.547637 0.552775 0.365994
Si Si3 0.594699 0.358326 0.296996
Si Si4 0.567668 0.186263 0.029146
Si Si5 0.645111 0.129202 0.474997
O O1 0.242899 0.820886 0.601980
O O2 0.000000 0.770618 0.750000
O O3 0.987050 0.810033 0.032200
O O4 0.135254 0.727218 0.836935
O O5 0.500000 0.546351 0.250000
O O6 0.500000 0.500000 0.500000
O O7 0.429738 0.595077 0.565553
O O8 0.729628 0.580178 0.178812
O O9 0.500000 0.368770 0.250000
O O10 0.216261 0.347580 0.428330
O O11 0.500000 0.212943 0.250000
O O12 0.439587 0.149600 0.082398
O O13 0.500000 0.119747 0.750000
#
# Coordination Sequence:
#
# PCOD9303766 Si02
#       5
#     8   8   8   8   8
#     4  11  23  39  61  89 130 179 216 256 317 380
#     4  11  24  45  70  94 124 166 209 257 326 391
#     4  11  23  42  64  90 127 170 213 261 323 384
#     4  12  24  38  60  94 131 170 219 270 311 366
#     4  11  23  42  66  94 127 166 217 268 311 372
#
# _framework density 20.825089999999999
#
# number of rings (size 3 to 8) (size 9 to 14) (size 15 to 20)
#    0.000    0.800    0.000   10.200    0.000    4.800 
#    0.000    8.000    0.000    0.000    0.000    0.000 
#    0.000    0.000    0.000    0.000    0.000    0.000 
#
# Total GULP energy -111763.000092 kJ/mol
# GULP energy per Si atom -5588.150005 kJ/mol
# Density = 2.077769 g / cm^3
# Si number density = 20.825090 Si / 1000 Ang^3
#
#
#
# Elastic Constant Matrix: (Units=GPa)
#
#
# Indices 1 2 3 4 5 6 
#
# 1 120.0486 62.3290 41.9869 0.0000 15.5996 0.0000
# 2 62.3290 107.4793 56.4632 0.0000 -1.6706 0.0000
# 3 41.9869 56.4632 118.8774 0.0000 10.1326 0.0000
# 4 0.0000 0.0000 0.0000 33.8254 0.0000 11.6411
# 5 15.5996 -1.6706 10.1326 0.0000 48.0636 0.0000
# 6 0.0000 0.0000 0.0000 11.6411 0.0000 15.8933
#
#
#
# Elastic Compliance Matrix: (Units=1/GPa)
#
#
# Indices 1 2 3 4 5 6 
#
# 1 0.012846 -0.007092 -0.000807 0.000000 -0.004246 0.000000
# 2 -0.007092 0.016451 -0.005656 0.000000 0.004066 0.000000
# 3 -0.000807 -0.005656 0.011586 0.000000 -0.002377 0.000000
# 4 0.000000 0.000000 0.000000 0.039528 0.000000 -0.028952
# 5 -0.004246 0.004066 -0.002377 0.000000 0.022826 0.000000
# 6 0.000000 0.000000 0.000000 -0.028952 0.000000 0.084126
#
#
# Mechanical properties :
#
#
# Convention : Reuss Voigt Hill
#
# Bulk Modulus (GPa) = 72.59772 74.21818 73.40795
# Shear Modulus (GPa) = 22.82461 31.93153 27.37807
#
# Velocity S-wave (km/s) = 3.31420 3.92001 3.62977
# Velocity P-wave (km/s) = 7.04142 7.49699 7.27277
#
# Compressibility (1/GPa) = 0.01377454
#
# Stress axis : x y z
#
# Youngs Moduli (GPa) = 77.84644 60.78692 86.31220
#
# Poissons Ratio (x) = 0.43108 0.06965
# Poissons Ratio (y) = 0.55205 0.48814
# Poissons Ratio (z) = 0.06281 0.34378
#
# Static dielectric constant tensor:
#      x y z
#    x 1.737440 0.000000 -0.035210 
#    y 0.000000 1.853490 0.000000 
#    z -0.035210 0.000000 1.747950 
# 
# From -- ./inp_files/33312.got.cif
#   From: 2010.05.17/outbox.cif.g08.bks.cpg/sg15_17_cif.got.tgz:33312.got - 2010.06.03 18:47:42.
