data_PCOD9303867
_publ_section_title
;
Structure prediction by ZEFSAII (Michael W. Deem and Ramdas Pophale) SiO2 
 PCOD9303867
Probable space group: C 2/C
;
_chemical_formula_sum "Si O2"
_cell_formula_units_Z 40
_cell_length_a 4.978832
_cell_length_b 26.127109
_cell_length_c 15.233194
_cell_angle_alpha 90.000000
_cell_angle_beta 119.461951
_cell_angle_gamma 90.000000
_cell_volume 1725.319871
_symmetry_space_group_name_H-M "C 2/C"
_symmetry_group_IT_number 15
_symmetry_cell_setting 'monoclinic'
loop_
_space_group_symop_operation_xyz
x,y,z
-x,y,1/2-z
-x,-y,-z
x,-y,1/2+z
1/2+x,1/2+y,z
1/2-x,1/2+y,1/2-z
1/2-x,1/2-y,-z
1/2+x,1/2-y,1/2+z
loop_
_atom_site_type_symbol
_atom_site_label
_atom_site_fract_x
_atom_site_fract_y
_atom_site_fract_z
Si Si1 0.317181 0.369326 0.962180
Si Si2 0.736881 0.958258 0.072036
Si Si3 0.000000 0.971911 0.750000
Si Si4 0.010378 0.362070 0.356130
Si Si5 0.500000 0.097832 0.250000
Si Si6 0.536526 0.213714 0.523384
O O1 0.243240 0.370799 0.847837
O O2 0.334602 0.426580 0.003017
O O3 0.646208 0.350200 0.051030
O O4 0.038545 0.337305 0.961823
O O5 0.610380 0.914632 0.118968
O O6 0.987875 0.990966 0.164225
O O7 0.500000 0.000000 0.000000
O O8 0.298225 0.936596 0.784013
O O9 0.000000 0.365904 0.250000
O O10 0.832352 0.312601 0.366522
O O11 0.750000 0.250000 0.500000
O O12 0.250000 0.250000 0.500000
#
# Coordination Sequence:
#
# PCOD9303867 Si02
#       6
#     8   8   4   8   4   8
#     4  11  25  46  73 104 150 185 247 294 367 427
#     4  11  23  40  67 104 145 196 239 298 348 428
#     4  12  26  42  68 103 146 197 246 284 358 422
#     4  11  25  45  77 109 148 193 247 310 367 437
#     4  12  28  44  70 103 148 199 238 294 354 434
#     4  11  24  50  76 105 142 183 239 303 371 441
#
# _framework density 23.184106
#
# number of rings (size 3 to 8) (size 9 to 14) (size 15 to 20)
#    0.000    0.800    4.000    2.400    7.000    4.000 
#    3.600    0.000    0.000    0.000    0.000    0.000 
#    0.000    0.000    0.000    0.000    0.000    0.000 
#
# Total GULP energy -111566.597729 kJ/mol
# GULP energy per Si atom -5578.329886 kJ/mol
# Density = 2.313134 g / cm^3
# Si number density = 23.184106 Si / 1000 Ang^3
#
#
#
# Elastic Constant Matrix: (Units=GPa)
#
#
# Indices 1 2 3 4 5 6 
#
# 1 91.3702 12.8027 13.8314 0.0000 -0.5918 0.0000
# 2 12.8027 85.2885 16.1392 0.0000 -2.4775 0.0000
# 3 13.8314 16.1392 151.1945 0.0000 -3.7359 0.0000
# 4 0.0000 0.0000 0.0000 15.9727 0.0000 -8.0565
# 5 -0.5918 -2.4775 -3.7359 0.0000 33.7361 0.0000
# 6 0.0000 0.0000 0.0000 -8.0565 0.0000 37.6082
#
#
#
# Elastic Compliance Matrix: (Units=1/GPa)
#
#
# Indices 1 2 3 4 5 6 
#
# 1 0.011291 -0.001531 -0.000870 0.000000 -0.000011 0.000000
# 2 -0.001531 0.012193 -0.001143 0.000000 0.000742 0.000000
# 3 -0.000870 -0.001143 0.006832 0.000000 0.000657 0.000000
# 4 0.000000 0.000000 0.000000 0.070191 0.000000 0.015036
# 5 -0.000011 0.000742 0.000657 0.000000 0.029769 0.000000
# 6 0.000000 0.000000 0.000000 0.015036 0.000000 0.029811
#
#
# Mechanical properties :
#
#
# Convention : Reuss Voigt Hill
#
# Bulk Modulus (GPa) = 43.05146 45.93330 44.49238
# Shear Modulus (GPa) = 28.58519 36.46871 32.52695
#
# Velocity S-wave (km/s) = 3.51517 3.97042 3.74971
# Velocity P-wave (km/s) = 5.92325 6.39331 6.16276
#
# Compressibility (1/GPa) = 0.02322801
#
# Stress axis : x y z
#
# Youngs Moduli (GPa) = 88.56971 82.01741 146.37369
#
# Poissons Ratio (x) = 0.12553 0.12731
# Poissons Ratio (y) = 0.13556 0.16733
# Poissons Ratio (z) = 0.07703 0.09376
#
# Static dielectric constant tensor:
#      x y z
#    x 2.066180 0.000000 0.014090 
#    y 0.000000 1.991390 0.000000 
#    z 0.014090 0.000000 1.920450 
# 
# From -- ./inp_files/129937.got.cif
#   From: 2010.05.17/outbox.cif.g08.bks.cpg/sg15_65_cif.got.tgz:129937.got - 2010.06.03 18:47:42.
