data_PCOD9303005
_publ_section_title
;
Structure prediction by ZEFSAII (Michael W. Deem and Ramdas Pophale) SiO2 
 PCOD9303005
Probable space group: C 2/C
;
_chemical_formula_sum "Si O2"
_cell_formula_units_Z 44
_cell_length_a 9.485264
_cell_length_b 11.068991
_cell_length_c 26.154964
_cell_angle_alpha 90.000000
_cell_angle_beta 133.463179
_cell_angle_gamma 90.000000
_cell_volume 1993.143074
_symmetry_space_group_name_H-M "C 2/C"
_symmetry_group_IT_number 15
_symmetry_cell_setting 'monoclinic'
loop_
_space_group_symop_operation_xyz
x,y,z
-x,y,1/2-z
-x,-y,-z
x,-y,1/2+z
1/2+x,1/2+y,z
1/2-x,1/2+y,1/2-z
1/2-x,1/2-y,-z
1/2+x,1/2-y,1/2+z
loop_
_atom_site_type_symbol
_atom_site_label
_atom_site_fract_x
_atom_site_fract_y
_atom_site_fract_z
Si Si1 0.954747 0.072380 0.847887
Si Si2 0.169729 0.523568 0.869492
Si Si3 0.190269 0.640961 0.688409
Si Si4 0.110489 0.313694 0.925197
Si Si5 0.000000 0.656732 0.250000
Si Si6 0.162737 0.470817 0.583297
O O1 0.819637 0.073067 0.763952
O O2 0.052400 0.205645 0.872884
O O3 0.835670 0.055982 0.870686
O O4 0.124219 0.972936 0.887763
O O5 0.213197 0.435343 0.928476
O O6 0.033726 0.637254 0.849406
O O7 0.029238 0.431105 0.804665
O O8 0.306119 0.764313 0.708701
O O9 0.181717 0.570602 0.632765
O O10 0.916598 0.355814 0.906147
O O11 0.250000 0.250000 0.000000
O O12 0.000000 0.500000 0.500000
#
# Coordination Sequence:
#
# PCOD9303005 Si02
#       6
#     8   8   8   8   4   8
#     4  12  22  44  67  98 129 171 223 273 328 393
#     4  11  25  41  67 100 130 166 225 278 321 393
#     4  11  22  41  67  96 130 173 218 270 330 390
#     4  11  24  44  66  93 137 177 212 273 340 388
#     4  12  20  40  70  90 132 168 214 276 332 378
#     4  11  23  42  68  98 134 177 221 270 333 400
#
# _framework density 22.075685
#
# number of rings (size 3 to 8) (size 9 to 14) (size 15 to 20)
#    0.000    0.727    7.273    0.000    0.000    2.182 
#    0.000    2.727    0.000    0.000    0.000    0.000 
#    0.000    0.000    0.000    0.000    0.000    0.000 
#
# Total GULP energy -122777.573221 kJ/mol
# GULP energy per Si atom -5580.798783 kJ/mol
# Density = 2.202544 g / cm^3
# Si number density = 22.075685 Si / 1000 Ang^3
#
#
#
# Elastic Constant Matrix: (Units=GPa)
#
#
# Indices 1 2 3 4 5 6 
#
# 1 153.0618 21.7564 9.5387 0.0000 8.6847 0.0000
# 2 21.7564 60.6357 -4.7261 0.0000 2.7322 0.0000
# 3 9.5387 -4.7261 81.7162 0.0000 -15.9846 0.0000
# 4 0.0000 0.0000 0.0000 30.4254 0.0000 0.0497
# 5 8.6847 2.7322 -15.9846 0.0000 21.4373 0.0000
# 6 0.0000 0.0000 0.0000 0.0497 0.0000 46.7167
#
#
#
# Elastic Compliance Matrix: (Units=1/GPa)
#
#
# Indices 1 2 3 4 5 6 
#
# 1 0.007228 -0.002554 -0.001757 0.000000 -0.003913 0.000000
# 2 -0.002554 0.017518 0.001261 0.000000 -0.000258 0.000000
# 3 -0.001757 0.001261 0.014779 0.000000 0.011571 0.000000
# 4 0.000000 0.000000 0.000000 0.032867 0.000000 -0.000035
# 5 -0.003913 -0.000258 0.011571 0.000000 0.056893 0.000000
# 6 0.000000 0.000000 0.000000 -0.000035 0.000000 0.021406
#
#
# Mechanical properties :
#
#
# Convention : Reuss Voigt Hill
#
# Bulk Modulus (GPa) = 29.91768 38.72797 34.32282
# Shear Modulus (GPa) = 29.77388 37.63887 33.70638
#
# Velocity S-wave (km/s) = 3.67647 4.13363 3.91174
# Velocity P-wave (km/s) = 5.62172 6.35326 5.99865
#
# Compressibility (1/GPa) = 0.03342506
#
# Stress axis : x y z
#
# Youngs Moduli (GPa) = 138.35445 57.08345 67.66442
#
# Poissons Ratio (x) = 0.14579 0.11887
# Poissons Ratio (y) = 0.35336 -0.08532
# Poissons Ratio (z) = 0.24305 -0.07197
#
# Static dielectric constant tensor:
#      x y z
#    x 1.930420 0.000000 -0.082440 
#    y 0.000000 1.259930 0.000000 
#    z -0.082440 0.000000 1.940610 
# 
# From -- ./inp_files/230157.got.cif
#   From: 2010.05.17/outbox.cif.g08.bks.cpg/sg15_116_cif.got.tgz:230157.got - 2010.06.03 18:47:42.
