data_PCOD9303833
_publ_section_title
;
Structure prediction by ZEFSAII (Michael W. Deem and Ramdas Pophale) SiO2 
 PCOD9303833
Probable space group: C 2/C
;
_chemical_formula_sum "Si O2"
_cell_formula_units_Z 56
_cell_length_a 16.157822
_cell_length_b 27.132552
_cell_length_c 8.982718
_cell_angle_alpha 90.000000
_cell_angle_beta 140.327220
_cell_angle_gamma 90.000000
_cell_volume 2514.059883
_symmetry_space_group_name_H-M "C 2/C"
_symmetry_group_IT_number 15
_symmetry_cell_setting 'monoclinic'
loop_
_space_group_symop_operation_xyz
x,y,z
-x,y,1/2-z
-x,-y,-z
x,-y,1/2+z
1/2+x,1/2+y,z
1/2-x,1/2+y,1/2-z
1/2-x,1/2-y,-z
1/2+x,1/2-y,1/2+z
loop_
_atom_site_type_symbol
_atom_site_label
_atom_site_fract_x
_atom_site_fract_y
_atom_site_fract_z
Si Si1 0.299083 0.301940 0.132360
Si Si2 0.900462 0.331645 0.388737
Si Si3 0.332733 0.464404 0.104489
Si Si4 0.754574 0.856569 0.596706
Si Si5 0.930027 0.059670 0.401009
Si Si6 0.550007 0.723637 0.151761
Si Si7 0.839737 0.615784 0.222037
O O1 0.202880 0.314746 0.133531
O O2 0.445046 0.296938 0.389928
O O3 0.250000 0.250000 0.000000
O O4 0.274425 0.346551 0.985334
O O5 0.949002 0.282113 0.374328
O O6 0.021891 0.361013 0.621171
O O7 0.824984 0.363026 0.162502
O O8 0.364667 0.520594 0.196414
O O9 0.416853 0.439767 0.354579
O O10 0.381455 0.454391 0.001915
O O11 0.194636 0.436630 0.900397
O O12 0.885007 0.888048 0.782647
O O13 0.671252 0.879518 0.614986
O O14 0.808600 0.800625 0.680564
O O15 0.500000 0.713577 0.250000
#
# Coordination Sequence:
#
# PCOD9303833 Si02
#       7
#     8   8   8   8   8   8   8
#     4  12  25  41  61  92 124 167 215 265 318 372
#     4  12  25  41  62  89 129 171 212 256 317 388
#     4   9  19  38  63  93 121 160 206 265 323 376
#     4  11  23  41  64  91 124 168 213 262 319 385
#     4   9  19  38  63  93 124 158 209 265 320 373
#     4  12  24  41  63  89 124 165 218 265 310 374
#     4  11  23  40  63  91 129 165 207 260 324 383
#
# _framework density 22.274726999999999
#
# number of rings (size 3 to 8) (size 9 to 14) (size 15 to 20)
#    0.000    1.143    2.857    3.857    0.000    4.000 
#    5.143    0.714    0.000    1.714    0.000    0.000 
#    0.000    0.000    0.000    0.000    0.000    0.000 
#
# Total GULP energy -156281.343508 kJ/mol
# GULP energy per Si atom -5581.476554 kJ/mol
# Density = 2.222403 g / cm^3
# Si number density = 22.274727 Si / 1000 Ang^3
#
#
#
# Elastic Constant Matrix: (Units=GPa)
#
#
# Indices 1 2 3 4 5 6 
#
# 1 42.3489 1.7644 24.7321 0.0000 -7.7731 0.0000
# 2 1.7644 69.6607 38.1672 0.0000 -5.7690 0.0000
# 3 24.7321 38.1672 115.7838 0.0000 -5.3898 0.0000
# 4 0.0000 0.0000 0.0000 42.9952 0.0000 -3.1479
# 5 -7.7731 -5.7690 -5.3898 0.0000 34.9241 0.0000
# 6 0.0000 0.0000 0.0000 -3.1479 0.0000 10.4576
#
#
#
# Elastic Compliance Matrix: (Units=1/GPa)
#
#
# Indices 1 2 3 4 5 6 
#
# 1 0.028655 0.003619 -0.007040 0.000000 0.005889 0.000000
# 2 0.003619 0.018119 -0.006616 0.000000 0.002777 0.000000
# 3 -0.007040 -0.006616 0.012286 0.000000 -0.000764 0.000000
# 4 0.000000 0.000000 0.000000 0.023783 0.000000 0.007159
# 5 0.005889 0.002777 -0.000764 0.000000 0.030285 0.000000
# 6 0.000000 0.000000 0.000000 0.007159 0.000000 0.097779
#
#
# Mechanical properties :
#
#
# Convention : Reuss Voigt Hill
#
# Bulk Modulus (GPa) = 25.65074 39.68011 32.66542
# Shear Modulus (GPa) = 20.49380 28.55069 24.52225
#
# Velocity S-wave (km/s) = 3.03652 3.58404 3.32158
# Velocity P-wave (km/s) = 4.88206 5.91437 5.42284
#
# Compressibility (1/GPa) = 0.03898524
#
# Stress axis : x y z
#
# Youngs Moduli (GPa) = 34.89822 55.19130 81.39337
#
# Poissons Ratio (x) = -0.19973 0.57298
# Poissons Ratio (y) = -0.12629 0.53854
# Poissons Ratio (z) = 0.24567 0.36517
#
# Static dielectric constant tensor:
#      x y z
#    x -20.873310 0.000000 23.539800 
#    y 0.000000 1.850500 0.000000 
#    z 23.539800 0.000000 -22.532980 
# 
# From -- ./inp_files/35148.got.cif
#   From: 2010.05.17/outbox.cif.g08.bks.cpg/sg15_18_cif.got.tgz:35148.got - 2010.06.03 18:47:42.
