data_PCOD9303947
_publ_section_title
;
Structure prediction by ZEFSAII (Michael W. Deem and Ramdas Pophale) SiO2 
 PCOD9303947
Probable space group: C 2/C
;
_chemical_formula_sum "Si O2"
_cell_formula_units_Z 48
_cell_length_a 6.581139
_cell_length_b 17.850864
_cell_length_c 24.281128
_cell_angle_alpha 90.000000
_cell_angle_beta 53.788002
_cell_angle_gamma 90.000000
_cell_volume 2301.520057
_symmetry_space_group_name_H-M "C 2/C"
_symmetry_group_IT_number 15
_symmetry_cell_setting 'monoclinic'
loop_
_space_group_symop_operation_xyz
x,y,z
-x,y,1/2-z
-x,-y,-z
x,-y,1/2+z
1/2+x,1/2+y,z
1/2-x,1/2+y,1/2-z
1/2-x,1/2-y,-z
1/2+x,1/2-y,1/2+z
loop_
_atom_site_type_symbol
_atom_site_label
_atom_site_fract_x
_atom_site_fract_y
_atom_site_fract_z
Si Si1 0.514985 0.167447 0.422376
Si Si2 0.500000 0.118861 0.750000
Si Si3 0.037140 0.100073 0.685694
Si Si4 0.718095 0.947973 0.816104
Si Si5 0.516112 0.750835 0.336380
Si Si6 0.000000 0.360073 0.750000
Si Si7 0.147750 0.287113 0.433803
O O1 0.576074 0.085057 0.392147
O O2 0.279711 0.210410 0.432781
O O3 0.485544 0.177135 0.492220
O O4 0.763365 0.208557 0.360079
O O5 0.486000 0.175346 0.700671
O O6 0.761377 0.073654 0.709480
O O7 0.144767 0.154891 0.622708
O O8 0.000000 0.142683 0.750000
O O9 0.220982 0.033169 0.674802
O O10 0.544203 0.914899 0.794995
O O11 0.000000 0.923843 0.750000
O O12 0.756806 0.695348 0.293352
O O13 0.486700 0.772131 0.405272
#
# Coordination Sequence:
#
# PCOD9303947 Si02
#       7
#     8   4   8   8   8   4   8
#     4  11  23  41  65  97 134 173 221 277 340 399
#     4  12  22  39  68 100 133 170 226 280 340 393
#     4  11  24  42  65  94 131 178 218 274 331 399
#     4  11  24  42  65  94 131 178 218 274 331 399
#     4  12  21  38  66  98 133 168 220 286 329 396
#     4  12  22  39  68 100 133 170 226 280 340 393
#     4  11  23  41  65  97 134 173 221 277 340 399
#
# _framework density 20.855782999999999
#
# number of rings (size 3 to 8) (size 9 to 14) (size 15 to 20)
#    0.000    0.667    6.667    2.500    0.000    3.333 
#    0.000    0.000    0.000    2.000    0.000    0.000 
#    0.000    0.000    0.000    0.000    0.000    0.000 
#
# Total GULP energy -133764.605922 kJ/mol
# GULP energy per Si atom -5573.525247 kJ/mol
# Density = 2.080831 g / cm^3
# Si number density = 20.855783 Si / 1000 Ang^3
#
#
#
# Elastic Constant Matrix: (Units=GPa)
#
#
# Indices 1 2 3 4 5 6 
#
# 1 63.1869 17.3774 -2.0882 0.0000 8.8379 0.0000
# 2 17.3774 79.2520 25.2251 0.0000 8.2188 0.0000
# 3 -2.0882 25.2251 83.1661 0.0000 11.8661 0.0000
# 4 0.0000 0.0000 0.0000 29.1183 0.0000 -6.1332
# 5 8.8379 8.2188 11.8661 0.0000 33.9570 0.0000
# 6 0.0000 0.0000 0.0000 -6.1332 0.0000 36.2748
#
#
#
# Elastic Compliance Matrix: (Units=1/GPa)
#
#
# Indices 1 2 3 4 5 6 
#
# 1 0.017663 -0.004159 0.002334 0.000000 -0.004406 0.000000
# 2 -0.004159 0.015076 -0.004537 0.000000 -0.000981 0.000000
# 3 0.002334 -0.004537 0.014091 0.000000 -0.004433 0.000000
# 4 0.000000 0.000000 0.000000 0.035611 0.000000 0.006021
# 5 -0.004406 -0.000981 -0.004433 0.000000 0.032382 0.000000
# 6 0.000000 0.000000 0.000000 0.006021 0.000000 0.028585
#
#
# Mechanical properties :
#
#
# Convention : Reuss Voigt Hill
#
# Bulk Modulus (GPa) = 29.32062 34.07042 31.69552
# Shear Modulus (GPa) = 29.85038 32.20941 31.02989
#
# Velocity S-wave (km/s) = 3.78732 3.93413 3.86143
# Velocity P-wave (km/s) = 5.76319 6.08344 5.92548
#
# Compressibility (1/GPa) = 0.03410569
#
# Stress axis : x y z
#
# Youngs Moduli (GPa) = 56.61492 66.33191 70.96519
#
# Poissons Ratio (x) = 0.27586 -0.16560
# Poissons Ratio (y) = 0.23545 0.32197
# Poissons Ratio (z) = -0.13211 0.30095
#
# Static dielectric constant tensor:
#      x y z
#    x 1.822830 0.000000 -0.018540 
#    y 0.000000 1.811260 0.000000 
#    z -0.018540 0.000000 1.753500 
# 
# From -- ./inp_files/261096.got.cif
#   From: 2010.05.17/outbox.cif.g08.bks.cpg/sg15_131_cif.got.tgz:261096.got - 2010.06.03 18:47:42.
