data_PCOD9303953
_publ_section_title
;
Structure prediction by ZEFSAII (Michael W. Deem and Ramdas Pophale) SiO2 
 PCOD9303953
Probable space group: C 2/C
;
_chemical_formula_sum "Si O2"
_cell_formula_units_Z 52
_cell_length_a 15.537974
_cell_length_b 15.399722
_cell_length_c 15.462407
_cell_angle_alpha 90.000000
_cell_angle_beta 45.692379
_cell_angle_gamma 90.000000
_cell_volume 2647.613584
_symmetry_space_group_name_H-M "C 2/C"
_symmetry_group_IT_number 15
_symmetry_cell_setting 'monoclinic'
loop_
_space_group_symop_operation_xyz
x,y,z
-x,y,1/2-z
-x,-y,-z
x,-y,1/2+z
1/2+x,1/2+y,z
1/2-x,1/2+y,1/2-z
1/2-x,1/2-y,-z
1/2+x,1/2-y,1/2+z
loop_
_atom_site_type_symbol
_atom_site_label
_atom_site_fract_x
_atom_site_fract_y
_atom_site_fract_z
Si Si1 0.130848 0.385836 0.845814
Si Si2 0.989182 0.296058 0.090067
Si Si3 0.706331 0.713755 0.397287
Si Si4 0.211664 0.040295 0.124441
Si Si5 0.470868 0.020877 0.869240
Si Si6 0.000000 0.821636 0.750000
Si Si7 0.129161 0.853080 0.128662
O O1 0.190580 0.340901 0.722158
O O2 0.228411 0.448136 0.823218
O O3 0.015789 0.441551 0.896955
O O4 0.091870 0.316196 0.946217
O O5 0.883465 0.249430 0.112105
O O6 0.961339 0.391999 0.146854
O O7 0.019616 0.237401 0.151350
O O8 0.766414 0.795313 0.402685
O O9 0.641869 0.656954 0.516569
O O10 0.117174 0.117644 0.178286
O O11 0.146125 0.950151 0.151470
O O12 0.329598 0.040078 0.980361
O O13 0.500000 0.001905 0.750000
O O14 0.000000 0.819371 0.250000
#
# Coordination Sequence:
#
# PCOD9303953 Si02
#       7
#     8   8   8   8   8   4   8
#     4  11  23  41  68  96 132 176 220 282 328 393
#     4  11  23  42  64  96 131 172 222 275 331 392
#     4  11  23  41  66  98 132 169 227 271 330 401
#     4  11  23  43  64  93 137 172 220 275 331 393
#     4  11  23  41  69 100 132 176 224 274 336 395
#     4  12  24  44  68  96 136 178 222 276 336 402
#     4  11  23  41  66  94 132 177 213 273 334 395
#
# _framework density 19.640329000000001
#
# number of rings (size 3 to 8) (size 9 to 14) (size 15 to 20)
#    0.000    0.923    3.077    5.538    0.000    6.769 
#    0.000    6.154    0.000    0.000    0.000    0.000 
#    0.000    0.000    0.000    0.000    0.000    0.000 
#
# Total GULP energy -145239.386255 kJ/mol
# GULP energy per Si atom -5586.130241 kJ/mol
# Density = 1.959563 g / cm^3
# Si number density = 19.640329 Si / 1000 Ang^3
#
#
#
# Elastic Constant Matrix: (Units=GPa)
#
#
# Indices 1 2 3 4 5 6 
#
# 1 82.1395 25.6894 37.5070 0.0000 8.0369 0.0000
# 2 25.6894 73.4946 32.7650 0.0000 5.6484 0.0000
# 3 37.5070 32.7650 107.9564 0.0000 12.7217 0.0000
# 4 0.0000 0.0000 0.0000 25.0368 0.0000 -5.8410
# 5 8.0369 5.6484 12.7217 0.0000 34.3879 0.0000
# 6 0.0000 0.0000 0.0000 -5.8410 0.0000 22.2511
#
#
#
# Elastic Compliance Matrix: (Units=1/GPa)
#
#
# Indices 1 2 3 4 5 6 
#
# 1 0.015250 -0.003391 -0.004093 0.000000 -0.001493 0.000000
# 2 -0.003391 0.016514 -0.003772 0.000000 -0.000524 0.000000
# 3 -0.004093 -0.003772 0.012175 0.000000 -0.002928 0.000000
# 4 0.000000 0.000000 0.000000 0.042547 0.000000 0.011169
# 5 -0.001493 -0.000524 -0.002928 0.000000 0.030598 0.000000
# 6 0.000000 0.000000 0.000000 0.011169 0.000000 0.047874
#
#
# Mechanical properties :
#
#
# Convention : Reuss Voigt Hill
#
# Bulk Modulus (GPa) = 46.67166 50.61259 48.64212
# Shear Modulus (GPa) = 25.69217 27.51042 26.60130
#
# Velocity S-wave (km/s) = 3.62074 3.74667 3.68424
# Velocity P-wave (km/s) = 6.42607 6.67401 6.55121
#
# Compressibility (1/GPa) = 0.02142628
#
# Stress axis : x y z
#
# Youngs Moduli (GPa) = 65.57338 60.55597 82.13599
#
# Poissons Ratio (x) = 0.20534 0.33620
# Poissons Ratio (y) = 0.22236 0.30982
# Poissons Ratio (z) = 0.26841 0.22842
#
# Static dielectric constant tensor:
#      x y z
#    x 1.684090 0.000000 -0.009650 
#    y 0.000000 1.690240 0.000000 
#    z -0.009650 0.000000 1.697120 
# 
# From -- ./inp_files/155426.got.cif
#   From: 2010.05.17/outbox.cif.g08.bks.cpg/sg15_78_cif.got.tgz:155426.got - 2010.06.03 18:47:42.
