data_PCOD9303202
_publ_section_title
;
Structure prediction by ZEFSAII (Michael W. Deem and Ramdas Pophale) SiO2 
 PCOD9303202
Probable space group: C 2/C
;
_chemical_formula_sum "Si O2"
_cell_formula_units_Z 44
_cell_length_a 11.002069
_cell_length_b 25.179382
_cell_length_c 11.300259
_cell_angle_alpha 90.000000
_cell_angle_beta 143.057561
_cell_angle_gamma 90.000000
_cell_volume 1881.443806
_symmetry_space_group_name_H-M "C 2/C"
_symmetry_group_IT_number 15
_symmetry_cell_setting 'monoclinic'
loop_
_space_group_symop_operation_xyz
x,y,z
-x,y,1/2-z
-x,-y,-z
x,-y,1/2+z
1/2+x,1/2+y,z
1/2-x,1/2+y,1/2-z
1/2-x,1/2-y,-z
1/2+x,1/2-y,1/2+z
loop_
_atom_site_type_symbol
_atom_site_label
_atom_site_fract_x
_atom_site_fract_y
_atom_site_fract_z
Si Si1 0.879014 0.990352 0.030774
Si Si2 0.652430 0.310564 0.157498
Si Si3 0.767287 0.088907 0.068702
Si Si4 0.706677 0.391582 0.658511
Si Si5 0.000000 0.324699 0.250000
Si Si6 0.474123 0.797116 0.593012
O O1 0.000000 0.987784 0.250000
O O2 0.746347 0.042631 0.955675
O O3 0.775506 0.933348 0.933452
O O4 0.000000 0.000000 0.000000
O O5 0.520383 0.257492 0.061169
O O6 0.824282 0.299153 0.191982
O O7 0.766519 0.317447 0.372454
O O8 0.512127 0.361623 0.019133
O O9 0.746918 0.073121 0.188945
O O10 0.000000 0.108247 0.250000
O O11 0.620031 0.136842 0.931005
O O12 0.864084 0.344022 0.788731
O O13 0.500000 0.781912 0.750000
#
# Coordination Sequence:
#
# PCOD9303202 Si02
#       6
#     8   8   8   8   4   8
#     4  11  22  42  71 105 142 196 240 299 370 432
#     4  12  26  45  75 104 142 194 239 300 371 435
#     4  11  22  46  69 103 151 183 240 309 351 438
#     4  12  25  47  74 105 146 195 242 303 373 432
#     4  12  24  44  74 108 142 190 242 300 370 436
#     4  12  28  48  69 107 146 189 246 303 363 447
#
# _framework density 23.386293999999999
#
# number of rings (size 3 to 8) (size 9 to 14) (size 15 to 20)
#    0.000    0.364    9.091    0.545    2.545    0.727 
#    3.273    0.909    0.000    0.000    0.000    0.000 
#    0.000    0.000    0.000    0.000    0.000    0.000 
#
# Total GULP energy -122721.920525 kJ/mol
# GULP energy per Si atom -5578.269115 kJ/mol
# Density = 2.333307 g / cm^3
# Si number density = 23.386294 Si / 1000 Ang^3
#
#
#
# Elastic Constant Matrix: (Units=GPa)
#
#
# Indices 1 2 3 4 5 6 
#
# 1 70.8954 43.7153 18.0227 0.0000 -20.4291 0.0000
# 2 43.7153 100.1389 29.3098 0.0000 -12.4674 0.0000
# 3 18.0227 29.3098 97.5598 0.0000 -11.5443 0.0000
# 4 0.0000 0.0000 0.0000 11.1801 0.0000 -29.1461
# 5 -20.4291 -12.4674 -11.5443 0.0000 36.8583 0.0000
# 6 0.0000 0.0000 0.0000 -29.1461 0.0000 3.2289
#
#
#
# Elastic Compliance Matrix: (Units=1/GPa)
#
#
# Indices 1 2 3 4 5 6 
#
# 1 0.022022 -0.008324 -0.000474 0.000000 0.009242 0.000000
# 2 -0.008324 0.014376 -0.002858 0.000000 -0.000646 0.000000
# 3 -0.000474 -0.002858 0.011476 0.000000 0.002365 0.000000
# 4 0.000000 0.000000 0.000000 -0.003970 0.000000 -0.035833
# 5 0.009242 -0.000646 0.002365 0.000000 0.032775 0.000000
# 6 0.000000 0.000000 0.000000 -0.035833 0.000000 -0.013745
#
#
# Mechanical properties :
#
#
# Convention : Reuss Voigt Hill
#
# Bulk Modulus (GPa) = 40.71261 50.07664 45.39462
# Shear Modulus (GPa) = 52.94749 22.08988 37.51869
#
# Velocity S-wave (km/s) = 4.76335 3.07671 4.00972
# Velocity P-wave (km/s) = 6.90647 5.83788 6.39453
#
# Compressibility (1/GPa) = 0.02456242
#
# Stress axis : x y z
#
# Youngs Moduli (GPa) = 45.40997 69.56036 87.13808
#
# Poissons Ratio (x) = 0.57903 0.04128
# Poissons Ratio (y) = 0.37800 0.24901
# Poissons Ratio (z) = 0.02151 0.19878
#
# Static dielectric constant tensor:
#      x y z
#    x 2.023380 0.000000 -0.058390 
#    y 0.000000 1.884160 0.000000 
#    z -0.058390 0.000000 1.762610 
# 
# From -- ./inp_files/92157.got.cif
#   From: 2010.05.17/outbox.cif.g08.bks.cpg/sg15_47_cif.got.tgz:92157.got - 2010.06.03 18:47:42.
