data_PCOD9303869
_publ_section_title
;
Structure prediction by ZEFSAII (Michael W. Deem and Ramdas Pophale) SiO2 
 PCOD9303869
Probable space group: C 2/C
;
_chemical_formula_sum "Si O2"
_cell_formula_units_Z 64
_cell_length_a 30.522248
_cell_length_b 8.733061
_cell_length_c 25.694433
_cell_angle_alpha 90.000000
_cell_angle_beta 154.049807
_cell_angle_gamma 90.000000
_cell_volume 2997.016289
_symmetry_space_group_name_H-M "C 2/C"
_symmetry_group_IT_number 15
_symmetry_cell_setting 'monoclinic'
loop_
_space_group_symop_operation_xyz
x,y,z
-x,y,1/2-z
-x,-y,-z
x,-y,1/2+z
1/2+x,1/2+y,z
1/2-x,1/2+y,1/2-z
1/2-x,1/2-y,-z
1/2+x,1/2-y,1/2+z
loop_
_atom_site_type_symbol
_atom_site_label
_atom_site_fract_x
_atom_site_fract_y
_atom_site_fract_z
Si Si1 0.346503 0.661974 0.788948
Si Si2 0.597877 0.935046 0.379167
Si Si3 0.129992 0.843903 0.062949
Si Si4 0.727577 0.370271 0.852716
Si Si5 0.206152 0.375442 0.914959
Si Si6 0.536728 0.807067 0.180172
Si Si7 0.530263 0.831112 0.657795
Si Si8 0.665652 0.345088 0.545922
O O1 0.356100 0.651052 0.860700
O O2 0.326595 0.501626 0.738786
O O3 0.441082 0.750551 0.865390
O O4 0.251079 0.763488 0.670707
O O5 0.500000 0.028313 0.250000
O O6 0.685006 0.942277 0.517153
O O7 0.527326 0.807379 0.333990
O O8 0.669525 0.972984 0.406155
O O9 0.218079 0.747898 0.128566
O O10 0.126607 0.013394 0.036729
O O11 0.028212 0.766632 0.934985
O O12 0.642436 0.279514 0.794039
O O13 0.115591 0.286818 0.789641
O O14 0.285647 0.408388 0.954865
O O15 0.250000 0.250000 0.000000
O O16 0.541654 0.986071 0.169938
O O17 0.422342 0.774376 0.559860
#
# Coordination Sequence:
#
# PCOD9303869 Si02
#       8
#     8   8   8   8   8   8   8   8
#     4  11  24  42  70  99 132 181 227 282 348 402
#     4  11  23  42  68  95 133 182 220 281 340 400
#     4  11  25  43  66 100 137 177 225 286 346 405
#     4  11  24  44  68 100 138 173 234 280 338 420
#     4  11  23  40  67  97 130 176 226 277 336 397
#     4  11  24  44  66  97 139 179 224 285 339 409
#     4  11  23  43  67  96 135 177 229 281 336 410
#     4  11  24  43  68  99 134 176 230 282 334 412
#
# _framework density 21.354572999999998
#
# number of rings (size 3 to 8) (size 9 to 14) (size 15 to 20)
#    0.000    1.000    1.250    6.750    0.000    4.000 
#    2.250    0.000    0.000    0.000    0.000    0.000 
#    0.000    0.000    0.000    0.000    0.000    0.000 
#
# Total GULP energy -178305.066734 kJ/mol
# GULP energy per Si atom -5572.033335 kJ/mol
# Density = 2.130597 g / cm^3
# Si number density = 21.354573 Si / 1000 Ang^3
#
#
#
# Elastic Constant Matrix: (Units=GPa)
#
#
# Indices 1 2 3 4 5 6 
#
# 1 141.7557 45.1693 83.4544 0.0000 -17.8876 0.0000
# 2 45.1693 104.5259 45.0741 0.0000 -4.1109 0.0000
# 3 83.4544 45.0741 110.6147 0.0000 0.7997 0.0000
# 4 0.0000 0.0000 0.0000 23.5785 0.0000 5.1481
# 5 -17.8876 -4.1109 0.7997 0.0000 39.7902 0.0000
# 6 0.0000 0.0000 0.0000 5.1481 0.0000 26.6562
#
#
#
# Elastic Compliance Matrix: (Units=1/GPa)
#
#
# Indices 1 2 3 4 5 6 
#
# 1 0.014444 -0.001535 -0.010320 0.000000 0.006542 0.000000
# 2 -0.001535 0.011837 -0.003670 0.000000 0.000607 0.000000
# 3 -0.010320 -0.003670 0.018361 0.000000 -0.005387 0.000000
# 4 0.000000 0.000000 0.000000 0.044279 0.000000 -0.008551
# 5 0.006542 0.000607 -0.005387 0.000000 0.028244 0.000000
# 6 0.000000 0.000000 0.000000 -0.008551 0.000000 0.039166
#
#
# Mechanical properties :
#
#
# Convention : Reuss Voigt Hill
#
# Bulk Modulus (GPa) = 73.56591 78.25467 75.91029
# Shear Modulus (GPa) = 26.05398 30.21820 28.13609
#
# Velocity S-wave (km/s) = 3.49673 3.76582 3.63377
# Velocity P-wave (km/s) = 7.12933 7.45879 7.29592
#
# Compressibility (1/GPa) = 0.01359325
#
# Stress axis : x y z
#
# Youngs Moduli (GPa) = 69.23168 84.48415 54.46469
#
# Poissons Ratio (x) = 0.12964 0.56205
# Poissons Ratio (y) = 0.10624 0.19988
# Poissons Ratio (z) = 0.71444 0.31005
#
# Static dielectric constant tensor:
#      x y z
#    x 1.820440 0.000000 0.018390 
#    y 0.000000 1.800090 0.000000 
#    z 0.018390 0.000000 1.780310 
# 
# From -- ./inp_files/284456.got.cif
#   From: 2010.05.17/outbox.cif.g08.bks.cpg/sg15_143_cif.got.tgz:284456.got - 2010.06.03 18:47:42.
