data_PCOD9303757
_publ_section_title
;
Structure prediction by ZEFSAII (Michael W. Deem and Ramdas Pophale) SiO2 
 PCOD9303757
Probable space group: C 2/C
;
_chemical_formula_sum "Si O2"
_cell_formula_units_Z 40
_cell_length_a 11.003091
_cell_length_b 13.163805
_cell_length_c 17.623603
_cell_angle_alpha 90.000000
_cell_angle_beta 124.409287
_cell_angle_gamma 90.000000
_cell_volume 2105.990122
_symmetry_space_group_name_H-M "C 2/C"
_symmetry_group_IT_number 15
_symmetry_cell_setting 'monoclinic'
loop_
_space_group_symop_operation_xyz
x,y,z
-x,y,1/2-z
-x,-y,-z
x,-y,1/2+z
1/2+x,1/2+y,z
1/2-x,1/2+y,1/2-z
1/2-x,1/2-y,-z
1/2+x,1/2-y,1/2+z
loop_
_atom_site_type_symbol
_atom_site_label
_atom_site_fract_x
_atom_site_fract_y
_atom_site_fract_z
Si Si1 0.360857 0.306256 0.598031
Si Si2 0.122348 0.982658 0.479954
Si Si3 0.644349 0.102401 0.332100
Si Si4 0.996319 0.184205 0.830025
Si Si5 0.806860 0.215829 0.256276
O O1 0.250000 0.250000 0.500000
O O2 0.373711 0.420816 0.572608
O O3 0.526522 0.258659 0.659018
O O4 0.311709 0.311576 0.668815
O O5 0.273062 0.962854 0.577062
O O6 0.078261 0.881320 0.420316
O O7 0.000000 0.000000 0.500000
O O8 0.500000 0.047393 0.250000
O O9 0.580635 0.207825 0.346521
O O10 0.748398 0.133181 0.297670
O O11 0.000000 0.129943 0.750000
O O12 0.824561 0.201963 0.786745
#
# Coordination Sequence:
#
# PCOD9303757 Si02
#       5
#     8   8   8   8   8
#     4  11  23  39  58  89 128 160 196 243 311 358
#     4  12  22  36  65  90 118 160 207 241 298 372
#     4   9  20  42  61  87 119 155 203 255 298 346
#     4   9  21  40  65  86 116 158 203 251 299 353
#     4   9  20  41  60  83 123 158 192 253 298 355
#
# _framework density 18.99344
#
# number of rings (size 3 to 8) (size 9 to 14) (size 15 to 20)
#    0.000    2.400    2.000    1.800    2.800    0.000 
#   10.800    4.000    0.000    0.000    0.000    0.000 
#    0.000    0.000    0.000    0.000    0.000    0.000 
#
# Total GULP energy -111434.469818 kJ/mol
# GULP energy per Si atom -5571.723491 kJ/mol
# Density = 1.895021 g / cm^3
# Si number density = 18.993440 Si / 1000 Ang^3
#
#
#
# Elastic Constant Matrix: (Units=GPa)
#
#
# Indices 1 2 3 4 5 6 
#
# 1 127.2786 28.4494 66.8549 0.0000 1.2518 0.0000
# 2 28.4494 41.2905 39.2072 0.0000 4.4683 0.0000
# 3 66.8549 39.2072 159.6736 0.0000 18.9505 0.0000
# 4 0.0000 0.0000 0.0000 -3.9432 0.0000 -3.7184
# 5 1.2518 4.4683 18.9505 0.0000 36.2299 0.0000
# 6 0.0000 0.0000 0.0000 -3.7184 0.0000 2.3100
#
#
#
# Elastic Compliance Matrix: (Units=1/GPa)
#
#
# Indices 1 2 3 4 5 6 
#
# 1 0.010704 -0.004056 -0.003733 0.000000 0.002083 0.000000
# 2 -0.004056 0.033120 -0.006361 0.000000 -0.000617 0.000000
# 3 -0.003733 -0.006361 0.009893 0.000000 -0.004261 0.000000
# 4 0.000000 0.000000 0.000000 -0.100718 0.000000 -0.162127
# 5 0.002083 -0.000617 -0.004261 0.000000 0.029835 0.000000
# 6 0.000000 0.000000 0.000000 -0.162127 0.000000 0.171928
#
#
# Mechanical properties :
#
#
# Convention : Reuss Voigt Hill
#
# Bulk Modulus (GPa) = 39.34281 66.36288 52.85284
# Shear Modulus (GPa) = 26.10507 19.83474 22.96991
#
# Velocity S-wave (km/s) = 3.71135 3.23506 3.48136
# Velocity P-wave (km/s) = 6.25494 6.99785 6.63680
#
# Compressibility (1/GPa) = 0.02541761
#
# Stress axis : x y z
#
# Youngs Moduli (GPa) = 93.42664 30.19324 101.07712
#
# Poissons Ratio (x) = 0.12245 0.37731
# Poissons Ratio (y) = 0.37891 0.64296
# Poissons Ratio (z) = 0.34875 0.19206
#
# Static dielectric constant tensor:
#      x y z
#    x 1.676570 0.000000 -0.005970 
#    y 0.000000 1.645260 0.000000 
#    z -0.005970 0.000000 1.589280 
# 
# From -- ./inp_files/141746.got.cif
#   From: 2010.05.17/outbox.cif.g08.bks.cpg/sg15_71_cif.got.tgz:141746.got - 2010.06.03 18:47:42.
