data_PCOD9303603
_publ_section_title
;
Structure prediction by ZEFSAII (Michael W. Deem and Ramdas Pophale) SiO2 
 PCOD9303603
Probable space group: C 2/C
;
_chemical_formula_sum "Si O2"
_cell_formula_units_Z 56
_cell_length_a 21.059585
_cell_length_b 11.182544
_cell_length_c 12.120432
_cell_angle_alpha 90.000000
_cell_angle_beta 79.630043
_cell_angle_gamma 90.000000
_cell_volume 2807.735416
_symmetry_space_group_name_H-M "C 2/C"
_symmetry_group_IT_number 15
_symmetry_cell_setting 'monoclinic'
loop_
_space_group_symop_operation_xyz
x,y,z
-x,y,1/2-z
-x,-y,-z
x,-y,1/2+z
1/2+x,1/2+y,z
1/2-x,1/2+y,1/2-z
1/2-x,1/2-y,-z
1/2+x,1/2-y,1/2+z
loop_
_atom_site_type_symbol
_atom_site_label
_atom_site_fract_x
_atom_site_fract_y
_atom_site_fract_z
Si Si1 0.225900 0.153179 0.596960
Si Si2 0.500000 0.457836 0.250000
Si Si3 0.409530 0.660291 0.181912
Si Si4 0.586234 0.697173 0.574166
Si Si5 0.563246 0.978777 0.553957
Si Si6 0.799916 0.582886 0.024111
Si Si7 0.000000 0.639414 0.750000
Si Si8 0.279035 0.236209 0.813009
O O1 0.250000 0.250000 0.500000
O O2 0.149347 0.168164 0.625909
O O3 0.257174 0.175733 0.706316
O O4 0.249418 0.025253 0.547131
O O5 0.444559 0.544789 0.220401
O O6 0.472849 0.374430 0.355122
O O7 0.457635 0.772670 0.187121
O O8 0.342708 0.687243 0.264413
O O9 0.399676 0.652968 0.054277
O O10 0.573436 0.838963 0.574778
O O11 0.628643 0.030509 0.480051
O O12 0.548286 0.055238 0.667727
O O13 0.500000 0.000000 0.500000
O O14 0.777428 0.679993 0.120734
O O15 0.795924 0.643650 0.905027
#
# Coordination Sequence:
#
# PCOD9303603 Si02
#       8
#     8   4   8   8   8   8   4   8
#     4  12  25  43  70 100 137 183 228 284 345 400
#     4  11  27  42  70 102 133 183 226 282 332 413
#     4  11  22  46  69  94 139 177 225 277 346 408
#     4  12  25  46  66 103 137 180 227 281 344 402
#     4  12  24  42  69 102 136 174 228 280 338 412
#     4  11  26  45  71 104 137 183 231 286 348 408
#     4  11  23  40  68  96 135 181 212 276 348 397
#     4  11  25  46  73 101 138 181 232 285 347 414
#
# _framework density 19.944898999999999
#
# number of rings (size 3 to 8) (size 9 to 14) (size 15 to 20)
#    0.000    0.571    5.714    1.714    2.000    3.429 
#    0.000    0.000    0.000    0.000    0.000    0.000 
#    0.000    0.000    0.000    0.000    0.000    0.000 
#
# Total GULP energy -156626.353219 kJ/mol
# GULP energy per Si atom -5593.798329 kJ/mol
# Density = 1.989950 g / cm^3
# Si number density = 19.944899 Si / 1000 Ang^3
#
#
#
# Elastic Constant Matrix: (Units=GPa)
#
#
# Indices 1 2 3 4 5 6 
#
# 1 123.3887 54.6732 30.6642 0.0000 -14.3242 0.0000
# 2 54.6732 120.4246 51.3993 0.0000 -17.9508 0.0000
# 3 30.6642 51.3993 108.4742 0.0000 -13.3534 0.0000
# 4 0.0000 0.0000 0.0000 26.8221 0.0000 -18.5406
# 5 -14.3242 -17.9508 -13.3534 0.0000 22.8665 0.0000
# 6 0.0000 0.0000 0.0000 -18.5406 0.0000 21.7425
#
#
#
# Elastic Compliance Matrix: (Units=1/GPa)
#
#
# Indices 1 2 3 4 5 6 
#
# 1 0.010383 -0.003978 -0.000683 0.000000 0.002983 0.000000
# 2 -0.003978 0.012672 -0.004269 0.000000 0.004963 0.000000
# 3 -0.000683 -0.004269 0.011819 0.000000 0.003123 0.000000
# 4 0.000000 0.000000 0.000000 0.090811 0.000000 0.077437
# 5 0.002983 0.004963 0.003123 0.000000 0.051320 0.000000
# 6 0.000000 0.000000 0.000000 0.077437 0.000000 0.112026
#
#
# Mechanical properties :
#
#
# Convention : Reuss Voigt Hill
#
# Bulk Modulus (GPa) = 58.77459 69.52897 64.15178
# Shear Modulus (GPa) = 15.99681 28.65627 22.32654
#
# Velocity S-wave (km/s) = 2.83512 3.79459 3.34939
# Velocity P-wave (km/s) = 6.34426 7.35763 6.86966
#
# Compressibility (1/GPa) = 0.01701416
#
# Stress axis : x y z
#
# Youngs Moduli (GPa) = 96.31097 78.91598 84.60858
#
# Poissons Ratio (x) = 0.31391 0.05780
# Poissons Ratio (y) = 0.38310 0.36119
# Poissons Ratio (z) = 0.06580 0.33689
#
# Static dielectric constant tensor:
#      x y z
#    x 1.730330 0.000000 0.008420 
#    y 0.000000 1.684230 0.000000 
#    z 0.008420 0.000000 1.695120 
# 
# From -- ./inp_files/111615.got.cif
#   From: 2010.05.17/outbox.cif.g08.bks.cpg/sg15_56_cif.got.tgz:111615.got - 2010.06.03 18:47:42.
