data_PCOD9303567
_publ_section_title
;
Structure prediction by ZEFSAII (Michael W. Deem and Ramdas Pophale) SiO2 
 PCOD9303567
Probable space group: C 2/C
;
_chemical_formula_sum "Si O2"
_cell_formula_units_Z 52
_cell_length_a 23.865562
_cell_length_b 12.149957
_cell_length_c 12.423354
_cell_angle_alpha 90.000000
_cell_angle_beta 137.248689
_cell_angle_gamma 90.000000
_cell_volume 2445.334796
_symmetry_space_group_name_H-M "C 2/C"
_symmetry_group_IT_number 15
_symmetry_cell_setting 'monoclinic'
loop_
_space_group_symop_operation_xyz
x,y,z
-x,y,1/2-z
-x,-y,-z
x,-y,1/2+z
1/2+x,1/2+y,z
1/2-x,1/2+y,1/2-z
1/2-x,1/2-y,-z
1/2+x,1/2-y,1/2+z
loop_
_atom_site_type_symbol
_atom_site_label
_atom_site_fract_x
_atom_site_fract_y
_atom_site_fract_z
Si Si1 0.591922 0.196489 0.244298
Si Si2 0.848401 0.015387 0.969618
Si Si3 0.301260 0.608513 0.691800
Si Si4 0.000000 0.158281 0.250000
Si Si5 0.851172 0.756908 0.954588
Si Si6 0.808898 0.518290 0.625938
Si Si7 0.940265 0.300787 0.368697
O O1 0.634930 0.313525 0.280886
O O2 0.589834 0.197108 0.372476
O O3 0.653941 0.100705 0.295701
O O4 0.513194 0.174007 0.057896
O O5 0.854867 0.047875 0.855549
O O6 0.758963 0.054953 0.883915
O O7 0.849962 0.885002 0.982198
O O8 0.920819 0.079522 0.130299
O O9 0.234878 0.694766 0.646301
O O10 0.247806 0.513758 0.556879
O O11 0.017784 0.231620 0.168549
O O12 0.877128 0.752428 0.866202
O O13 0.885814 0.602330 0.735552
#
# Coordination Sequence:
#
# PCOD9303567 Si02
#       7
#     8   8   8   4   8   8   8
#     4  11  22  47  71 107 143 182 233 302 346 429
#     4  12  25  45  70 104 136 188 234 290 357 427
#     4  11  22  45  73 103 141 180 237 297 346 426
#     4  12  32  46  64 100 152 182 236 294 362 420
#     4  11  24  42  75 103 136 185 242 285 349 425
#     4  11  24  44  75 101 136 187 237 285 365 420
#     4  12  27  46  67 106 146 187 230 300 356 424
#
# _framework density 21.264980999999999
#
# number of rings (size 3 to 8) (size 9 to 14) (size 15 to 20)
#    0.000    0.615    6.154    1.846    4.308    3.692 
#    5.538    0.000    0.000    0.000    0.000    0.000 
#    0.000    0.000    0.000    0.000    0.000    0.000 
#
# Total GULP energy -144836.263240 kJ/mol
# GULP energy per Si atom -5570.625509 kJ/mol
# Density = 2.121658 g / cm^3
# Si number density = 21.264981 Si / 1000 Ang^3
#
#
#
# Elastic Constant Matrix: (Units=GPa)
#
#
# Indices 1 2 3 4 5 6 
#
# 1 53.0119 13.3779 -4.7254 0.0000 -12.7256 0.0000
# 2 13.3779 74.3673 33.3369 0.0000 -0.1178 0.0000
# 3 -4.7254 33.3369 73.0591 0.0000 -0.8094 0.0000
# 4 0.0000 0.0000 0.0000 34.4942 0.0000 -1.3174
# 5 -12.7256 -0.1178 -0.8094 0.0000 27.8958 0.0000
# 6 0.0000 0.0000 0.0000 -1.3174 0.0000 -18.3069
#
#
#
# Elastic Compliance Matrix: (Units=1/GPa)
#
#
# Indices 1 2 3 4 5 6 
#
# 1 0.023413 -0.006194 0.004460 0.000000 0.010784 0.000000
# 2 -0.006194 0.018544 -0.008895 0.000000 -0.003005 0.000000
# 3 0.004460 -0.008895 0.018063 0.000000 0.002521 0.000000
# 4 0.000000 0.000000 0.000000 0.028911 0.000000 -0.002080
# 5 0.010784 -0.003005 0.002521 0.000000 0.040828 0.000000
# 6 0.000000 0.000000 0.000000 -0.002080 0.000000 -0.054474
#
#
# Mechanical properties :
#
#
# Convention : Reuss Voigt Hill
#
# Bulk Modulus (GPa) = 25.79901 31.60187 28.70044
# Shear Modulus (GPa) = 45.67743 19.37987 32.52865
#
# Velocity S-wave (km/s) = 4.63969 3.02214 3.91536
# Velocity P-wave (km/s) = 6.39225 5.20298 5.82803
#
# Compressibility (1/GPa) = 0.03876118
#
# Stress axis : x y z
#
# Youngs Moduli (GPa) = 42.71117 53.92621 55.36186
#
# Poissons Ratio (x) = 0.33402 -0.24692
# Poissons Ratio (y) = 0.26456 0.49247
# Poissons Ratio (z) = -0.19050 0.47970
#
# Static dielectric constant tensor:
#      x y z
#    x 1.834890 0.000000 0.003320 
#    y 0.000000 1.755760 0.000000 
#    z 0.003320 0.000000 1.809630 
# 
# From -- ./inp_files/118064.got.cif
#   From: 2010.05.17/outbox.cif.g08.bks.cpg/sg15_60_cif.got.tgz:118064.got - 2010.06.03 18:47:42.
