data_PCOD9303196
_publ_section_title
;
Structure prediction by ZEFSAII (Michael W. Deem and Ramdas Pophale) SiO2 
 PCOD9303196
Probable space group: C 2/C
;
_chemical_formula_sum "Si O2"
_cell_formula_units_Z 44
_cell_length_a 20.531035
_cell_length_b 8.789676
_cell_length_c 13.337410
_cell_angle_alpha 90.000000
_cell_angle_beta 123.506411
_cell_angle_gamma 90.000000
_cell_volume 2006.918026
_symmetry_space_group_name_H-M "C 2/C"
_symmetry_group_IT_number 15
_symmetry_cell_setting 'monoclinic'
loop_
_space_group_symop_operation_xyz
x,y,z
-x,y,1/2-z
-x,-y,-z
x,-y,1/2+z
1/2+x,1/2+y,z
1/2-x,1/2+y,1/2-z
1/2-x,1/2-y,-z
1/2+x,1/2-y,1/2+z
loop_
_atom_site_type_symbol
_atom_site_label
_atom_site_fract_x
_atom_site_fract_y
_atom_site_fract_z
Si Si1 0.072089 0.518294 0.984530
Si Si2 0.735376 0.290743 0.636474
Si Si3 0.360320 0.386720 0.119408
Si Si4 0.000000 0.686541 0.250000
Si Si5 0.846555 0.757998 0.583749
Si Si6 0.180066 0.599937 0.748869
O O1 0.107944 0.674243 0.968264
O O2 0.042604 0.419121 0.866215
O O3 0.139857 0.452608 0.112560
O O4 0.000000 0.500000 0.000000
O O5 0.656671 0.322020 0.506759
O O6 0.785194 0.164500 0.619600
O O7 0.776992 0.454616 0.669371
O O8 0.730627 0.238538 0.747343
O O9 0.432671 0.300255 0.231465
O O10 0.368479 0.566307 0.115717
O O11 0.750000 0.750000 0.500000
O O12 0.871077 0.668197 0.705688
#
# Coordination Sequence:
#
# PCOD9303196 Si02
#       6
#     8   8   8   4   8   8
#     4  12  26  46  70 104 147 197 242 304 390 462
#     4  11  22  42  70 109 144 191 255 318 373 450
#     4  11  24  44  71 102 152 195 250 313 383 457
#     4  12  26  48  68 100 156 198 236 300 396 466
#     4  12  25  47  75 109 145 194 260 326 376 452
#     4  12  24  41  74 106 140 194 256 313 380 448
#
# _framework density 21.924164000000001
#
# number of rings (size 3 to 8) (size 9 to 14) (size 15 to 20)
#    0.000    0.364    3.636    6.545    0.000    2.182 
#    3.273    1.818    0.000    0.000    0.000    0.000 
#    0.000    0.000    0.000    0.000    0.000    0.000 
#
# Total GULP energy -122759.298241 kJ/mol
# GULP energy per Si atom -5579.968102 kJ/mol
# Density = 2.187426 g / cm^3
# Si number density = 21.924164 Si / 1000 Ang^3
#
#
#
# Elastic Constant Matrix: (Units=GPa)
#
#
# Indices 1 2 3 4 5 6 
#
# 1 74.4451 33.5248 -8.3291 0.0000 -13.8713 0.0000
# 2 33.5248 118.6382 20.3241 0.0000 -6.7754 0.0000
# 3 -8.3291 20.3241 82.9449 0.0000 -2.5663 0.0000
# 4 0.0000 0.0000 0.0000 30.1927 0.0000 -6.0591
# 5 -13.8713 -6.7754 -2.5663 0.0000 41.7646 0.0000
# 6 0.0000 0.0000 0.0000 -6.0591 0.0000 38.1119
#
#
#
# Elastic Compliance Matrix: (Units=1/GPa)
#
#
# Indices 1 2 3 4 5 6 
#
# 1 0.016985 -0.005044 0.003096 0.000000 0.005013 0.000000
# 2 -0.005044 0.010367 -0.003052 0.000000 -0.000181 0.000000
# 3 0.003096 -0.003052 0.013157 0.000000 0.001342 0.000000
# 4 0.000000 0.000000 0.000000 0.034212 0.000000 0.005439
# 5 0.005013 -0.000181 0.001342 0.000000 0.025662 0.000000
# 6 0.000000 0.000000 0.000000 0.005439 0.000000 0.027103
#
#
# Mechanical properties :
#
#
# Convention : Reuss Voigt Hill
#
# Bulk Modulus (GPa) = 32.77717 40.78533 36.78125
# Shear Modulus (GPa) = 33.86306 37.38108 35.62207
#
# Velocity S-wave (km/s) = 3.93435 4.13367 4.03524
# Velocity P-wave (km/s) = 5.96837 6.43632 6.20676
#
# Compressibility (1/GPa) = 0.03050904
#
# Stress axis : x y z
#
# Youngs Moduli (GPa) = 58.87705 96.46198 76.00782
#
# Poissons Ratio (x) = 0.48652 -0.23536
# Poissons Ratio (y) = 0.29696 0.23200
# Poissons Ratio (z) = -0.18231 0.29443
#
# Static dielectric constant tensor:
#      x y z
#    x 1.924580 0.000000 0.044990 
#    y 0.000000 1.869450 0.000000 
#    z 0.044990 0.000000 1.851100 
# 
# From -- ./inp_files/166071.got.cif
#   From: 2010.05.17/outbox.cif.g08.bks.cpg/sg15_84_cif.got.tgz:166071.got - 2010.06.03 18:47:42.
