data_PCOD9303286
_publ_section_title
;
Structure prediction by ZEFSAII (Michael W. Deem and Ramdas Pophale) SiO2 
 PCOD9303286
Probable space group: C 2/C
;
_chemical_formula_sum "Si O2"
_cell_formula_units_Z 52
_cell_length_a 13.264897
_cell_length_b 13.998643
_cell_length_c 15.217981
_cell_angle_alpha 90.000000
_cell_angle_beta 135.154130
_cell_angle_gamma 90.000000
_cell_volume 1992.784912
_symmetry_space_group_name_H-M "C 2/C"
_symmetry_group_IT_number 15
_symmetry_cell_setting 'monoclinic'
loop_
_space_group_symop_operation_xyz
x,y,z
-x,y,1/2-z
-x,-y,-z
x,-y,1/2+z
1/2+x,1/2+y,z
1/2-x,1/2+y,1/2-z
1/2-x,1/2-y,-z
1/2+x,1/2-y,1/2+z
loop_
_atom_site_type_symbol
_atom_site_label
_atom_site_fract_x
_atom_site_fract_y
_atom_site_fract_z
Si Si1 0.156571 0.841145 0.173853
Si Si2 0.711587 0.031323 0.175018
Si Si3 0.000000 0.442436 0.250000
Si Si4 0.945282 0.724542 0.843565
Si Si5 0.520916 0.583843 0.415195
Si Si6 0.466897 0.820355 0.562900
Si Si7 0.262702 0.035068 0.001419
O O1 0.279002 0.770430 0.211611
O O2 0.047670 0.770212 0.156018
O O3 0.250205 0.920253 0.281786
O O4 0.079425 0.898486 0.048460
O O5 0.571446 0.085905 0.123468
O O6 0.851460 0.078042 0.303706
O O7 0.708251 0.028969 0.067469
O O8 0.004535 0.371124 0.171437
O O9 0.141476 0.503113 0.355911
O O10 0.044495 0.814619 0.880711
O O11 0.949842 0.715764 0.952121
O O12 0.600215 0.492932 0.423046
O O13 0.321119 0.859598 0.515006
#
# Coordination Sequence:
#
# PCOD9303286 Si02
#       7
#     8   8   4   8   8   8   8
#     4  11  23  45  73 102 138 193 247 294 349 433
#     4  12  23  44  69 103 142 189 244 293 354 437
#     4  12  24  38  68 106 140 186 236 290 358 428
#     4  11  22  43  68 107 144 185 239 296 357 428
#     4  11  26  41  69 107 145 184 238 308 358 418
#     4  11  24  44  73 101 139 199 238 292 359 438
#     4  12  25  42  67 102 146 184 233 293 370 420
#
# _framework density 26.094135999999999
#
# number of rings (size 3 to 8) (size 9 to 14) (size 15 to 20)
#    0.000    0.615    6.154    2.308    2.154    0.615 
#    0.000    0.769    3.385    0.000    0.000    0.000 
#    0.000    0.000    0.000    0.000    0.000    0.000 
#
# Total GULP energy -145255.842041 kJ/mol
# GULP energy per Si atom -5586.763155 kJ/mol
# Density = 2.603474 g / cm^3
# Si number density = 26.094136 Si / 1000 Ang^3
#
#
#
# Elastic Constant Matrix: (Units=GPa)
#
#
# Indices 1 2 3 4 5 6 
#
# 1 66.9704 41.0034 19.4719 0.0000 12.3221 0.0000
# 2 41.0034 121.6410 18.4376 0.0000 6.6548 0.0000
# 3 19.4719 18.4376 106.9243 0.0000 7.9907 0.0000
# 4 0.0000 0.0000 0.0000 27.8542 0.0000 0.0718
# 5 12.3221 6.6548 7.9907 0.0000 36.1893 0.0000
# 6 0.0000 0.0000 0.0000 0.0718 0.0000 23.9933
#
#
#
# Elastic Compliance Matrix: (Units=1/GPa)
#
#
# Indices 1 2 3 4 5 6 
#
# 1 0.020378 -0.006240 -0.002239 0.000000 -0.005297 0.000000
# 2 -0.006240 0.010408 -0.000685 0.000000 0.000362 0.000000
# 3 -0.002239 -0.000685 0.009977 0.000000 -0.001314 0.000000
# 4 0.000000 0.000000 0.000000 0.035902 0.000000 -0.000107
# 5 -0.005297 0.000362 -0.001314 0.000000 0.029660 0.000000
# 6 0.000000 0.000000 0.000000 -0.000107 0.000000 0.041679
#
#
# Mechanical properties :
#
#
# Convention : Reuss Voigt Hill
#
# Bulk Modulus (GPa) = 44.57563 50.37351 47.47457
# Shear Modulus (GPa) = 28.76703 32.04889 30.40796
#
# Velocity S-wave (km/s) = 3.32389 3.50837 3.41738
# Velocity P-wave (km/s) = 5.64364 5.97980 5.81415
#
# Compressibility (1/GPa) = 0.02243378
#
# Stress axis : x y z
#
# Youngs Moduli (GPa) = 49.07228 96.07606 100.23431
#
# Poissons Ratio (x) = 0.59951 0.22445
# Poissons Ratio (y) = 0.30621 0.06871
# Poissons Ratio (z) = 0.10988 0.06586
#
# Static dielectric constant tensor:
#      x y z
#    x 2.120270 0.000000 0.013320 
#    y 0.000000 2.218420 0.000000 
#    z 0.013320 0.000000 2.028280 
# 
# From -- ./inp_files/205782.got.cif
#   From: 2010.05.17/outbox.cif.g08.bks.cpg/sg15_103_cif.got.tgz:205782.got - 2010.06.03 18:47:42.
