data_PCOD9303760
_publ_section_title
;
Structure prediction by ZEFSAII (Michael W. Deem and Ramdas Pophale) SiO2 
 PCOD9303760
Probable space group: C 2/C
;
_chemical_formula_sum "Si O2"
_cell_formula_units_Z 40
_cell_length_a 29.243829
_cell_length_b 5.175234
_cell_length_c 11.998644
_cell_angle_alpha 90.000000
_cell_angle_beta 117.977413
_cell_angle_gamma 90.000000
_cell_volume 1603.696978
_symmetry_space_group_name_H-M "C 2/C"
_symmetry_group_IT_number 15
_symmetry_cell_setting 'monoclinic'
loop_
_space_group_symop_operation_xyz
x,y,z
-x,y,1/2-z
-x,-y,-z
x,-y,1/2+z
1/2+x,1/2+y,z
1/2-x,1/2+y,1/2-z
1/2-x,1/2-y,-z
1/2+x,1/2-y,1/2+z
loop_
_atom_site_type_symbol
_atom_site_label
_atom_site_fract_x
_atom_site_fract_y
_atom_site_fract_z
Si Si1 0.587039 0.669742 0.676509
Si Si2 0.652393 0.683026 0.382971
Si Si3 0.174398 0.485886 0.684967
Si Si4 0.453305 0.829594 0.278981
Si Si5 0.775366 0.146902 0.415898
O O1 0.630148 0.597694 0.819910
O O2 0.557048 0.395624 0.640493
O O3 0.625179 0.794449 0.628996
O O4 0.546895 0.890541 0.665450
O O5 0.668575 0.827045 0.287714
O O6 0.599352 0.822700 0.354351
O O7 0.697935 0.624549 0.520059
O O8 0.181274 0.669019 0.587251
O O9 0.228942 0.352456 0.774354
O O10 0.500000 0.775532 0.250000
O O11 0.750000 0.250000 0.500000
#
# Coordination Sequence:
#
# PCOD9303760 Si02
#       5
#     8   8   8   8   8
#     4   9  19  36  58  90 123 161 202 257 313 364
#     4   9  21  39  58  91 124 161 206 253 310 370
#     4  11  23  39  59  91 128 170 207 260 307 371
#     4   9  17  34  64  93 119 160 211 254 317 377
#     4  12  22  39  61  88 127 168 215 254 309 374
#
# _framework density 24.942368999999999
#
# number of rings (size 3 to 8) (size 9 to 14) (size 15 to 20)
#    1.200    0.800    2.000    2.400    0.000    0.000 
#    0.000    0.000    0.000    6.000    0.000    0.000 
#    0.000    0.000    0.000    0.000    0.000    0.000 
#
# Total GULP energy -111582.507570 kJ/mol
# GULP energy per Si atom -5579.125378 kJ/mol
# Density = 2.488560 g / cm^3
# Si number density = 24.942369 Si / 1000 Ang^3
#
#
#
# Elastic Constant Matrix: (Units=GPa)
#
#
# Indices 1 2 3 4 5 6 
#
# 1 134.2169 28.9986 5.2164 0.0000 -10.2110 0.0000
# 2 28.9986 133.7879 6.2611 0.0000 -10.5077 0.0000
# 3 5.2164 6.2611 75.7704 0.0000 -10.3017 0.0000
# 4 0.0000 0.0000 0.0000 24.2965 0.0000 -0.5566
# 5 -10.2110 -10.5077 -10.3017 0.0000 12.0761 0.0000
# 6 0.0000 0.0000 0.0000 -0.5566 0.0000 32.3375
#
#
#
# Elastic Compliance Matrix: (Units=1/GPa)
#
#
# Indices 1 2 3 4 5 6 
#
# 1 0.008183 -0.001312 0.000374 0.000000 0.006097 0.000000
# 2 -0.001312 0.008240 0.000264 0.000000 0.006286 0.000000
# 3 0.000374 0.000264 0.014959 0.000000 0.013307 0.000000
# 4 0.000000 0.000000 0.000000 0.041174 0.000000 0.000709
# 5 0.006097 0.006286 0.013307 0.000000 0.104784 0.000000
# 6 0.000000 0.000000 0.000000 0.000709 0.000000 0.030936
#
#
# Mechanical properties :
#
#
# Convention : Reuss Voigt Hill
#
# Bulk Modulus (GPa) = 33.29529 47.19193 40.24361
# Shear Modulus (GPa) = 22.76467 33.96195 28.36331
#
# Velocity S-wave (km/s) = 3.02435 3.69401 3.37583
# Velocity P-wave (km/s) = 5.05702 6.09555 5.60041
#
# Compressibility (1/GPa) = 0.03003428
#
# Stress axis : x y z
#
# Youngs Moduli (GPa) = 122.19743 121.35481 66.84731
#
# Poissons Ratio (x) = 0.15927 -0.02500
# Poissons Ratio (y) = 0.16038 -0.01765
# Poissons Ratio (z) = -0.04570 -0.03204
#
# Static dielectric constant tensor:
#      x y z
#    x 1.992290 0.000000 0.023850 
#    y 0.000000 2.102360 0.000000 
#    z 0.023850 0.000000 2.042360 
# 
# From -- ./inp_files/125100.got.cif
#   From: 2010.05.17/outbox.cif.g08.bks.cpg/sg15_63_cif.got.tgz:125100.got - 2010.06.03 18:47:42.
