data_PCOD9303535
_publ_section_title
;
Structure prediction by ZEFSAII (Michael W. Deem and Ramdas Pophale) SiO2 
 PCOD9303535
Probable space group: C 2/C
;
_chemical_formula_sum "Si O2"
_cell_formula_units_Z 52
_cell_length_a 17.013750
_cell_length_b 9.405112
_cell_length_c 16.797290
_cell_angle_alpha 90.000000
_cell_angle_beta 118.809063
_cell_angle_gamma 90.000000
_cell_volume 2355.166352
_symmetry_space_group_name_H-M "C 2/C"
_symmetry_group_IT_number 15
_symmetry_cell_setting 'monoclinic'
loop_
_space_group_symop_operation_xyz
x,y,z
-x,y,1/2-z
-x,-y,-z
x,-y,1/2+z
1/2+x,1/2+y,z
1/2-x,1/2+y,1/2-z
1/2-x,1/2-y,-z
1/2+x,1/2-y,1/2+z
loop_
_atom_site_type_symbol
_atom_site_label
_atom_site_fract_x
_atom_site_fract_y
_atom_site_fract_z
Si Si1 0.669678 0.092051 0.254582
Si Si2 0.965420 0.818787 0.925362
Si Si3 0.090566 0.411500 0.539814
Si Si4 0.728554 0.388834 0.936267
Si Si5 0.500000 0.789583 0.750000
Si Si6 0.931606 0.915295 0.077760
Si Si7 0.309688 0.774312 0.245926
O O1 0.625080 0.098918 0.145831
O O2 0.588291 0.119547 0.273999
O O3 0.744201 0.213838 0.282595
O O4 0.711830 0.936461 0.286746
O O5 0.907763 0.733484 0.832997
O O6 0.915976 0.837842 0.985708
O O7 0.989709 0.971365 0.902092
O O8 0.058338 0.739190 0.989683
O O9 0.175141 0.464828 0.530578
O O10 0.000000 0.500000 0.500000
O O11 0.654527 0.496261 0.934140
O O12 0.697174 0.325889 0.834989
O O13 0.750000 0.250000 0.000000
O O14 0.529380 0.691437 0.838092
#
# Coordination Sequence:
#
# PCOD9303535 Si02
#       7
#     8   8   8   8   4   8   8
#     4  11  27  45  71 103 143 186 234 287 359 417
#     4  11  23  44  72 101 141 187 235 284 366 418
#     4  11  22  45  69  98 138 182 231 288 351 417
#     4  11  25  45  70 102 141 183 241 286 347 420
#     4  12  26  44  68 106 142 176 238 302 344 420
#     4  11  25  42  71 105 140 186 234 297 350 422
#     4  11  27  45  72 101 143 190 229 290 355 428
#
# _framework density 22.079121000000001
#
# number of rings (size 3 to 8) (size 9 to 14) (size 15 to 20)
#    0.000    0.923    4.615    0.923    8.615    2.462 
#    0.000    1.538    0.000    0.000    0.000    0.000 
#    0.000    0.000    0.000    0.000    0.000    0.000 
#
# Total GULP energy -145349.612269 kJ/mol
# GULP energy per Si atom -5590.369703 kJ/mol
# Density = 2.202887 g / cm^3
# Si number density = 22.079121 Si / 1000 Ang^3
#
#
#
# Elastic Constant Matrix: (Units=GPa)
#
#
# Indices 1 2 3 4 5 6 
#
# 1 128.1064 40.4002 20.9554 0.0000 -8.6066 0.0000
# 2 40.4002 80.4503 -2.3181 0.0000 -1.1953 0.0000
# 3 20.9554 -2.3181 60.4586 0.0000 0.7787 0.0000
# 4 0.0000 0.0000 0.0000 24.2614 0.0000 3.7263
# 5 -8.6066 -1.1953 0.7787 0.0000 22.6080 0.0000
# 6 0.0000 0.0000 0.0000 3.7263 0.0000 46.2157
#
#
#
# Elastic Compliance Matrix: (Units=1/GPa)
#
#
# Indices 1 2 3 4 5 6 
#
# 1 0.010343 -0.005248 -0.003835 0.000000 0.003792 0.000000
# 2 -0.005248 0.015116 0.002415 0.000000 -0.001282 0.000000
# 3 -0.003835 0.002415 0.017987 0.000000 -0.001952 0.000000
# 4 0.000000 0.000000 0.000000 0.041734 0.000000 -0.003365
# 5 0.003792 -0.001282 -0.001952 0.000000 0.045675 0.000000
# 6 0.000000 0.000000 0.000000 -0.003365 0.000000 0.021909
#
#
# Mechanical properties :
#
#
# Convention : Reuss Voigt Hill
#
# Bulk Modulus (GPa) = 33.21131 43.01005 38.11068
# Shear Modulus (GPa) = 28.38672 32.61554 30.50113
#
# Velocity S-wave (km/s) = 3.58953 3.84762 3.72081
# Velocity P-wave (km/s) = 5.67928 6.26587 5.97977
#
# Compressibility (1/GPa) = 0.03011022
#
# Stress axis : x y z
#
# Youngs Moduli (GPa) = 96.68139 66.15444 55.59486
#
# Poissons Ratio (x) = 0.34720 0.21321
# Poissons Ratio (y) = 0.50741 -0.13427
# Poissons Ratio (z) = 0.37079 -0.15978
#
# Static dielectric constant tensor:
#      x y z
#    x 1.857350 0.000000 0.009290 
#    y 0.000000 1.902220 0.000000 
#    z 0.009290 0.000000 1.808050 
# 
# From -- ./inp_files/209691.got.cif
#   From: 2010.05.17/outbox.cif.g08.bks.cpg/sg15_105_cif.got.tgz:209691.got - 2010.06.03 18:47:42.
