data_PCOD9303320
_publ_section_title
;
Structure prediction by ZEFSAII (Michael W. Deem and Ramdas Pophale) SiO2 
 PCOD9303320
Probable space group: C 2/C
;
_chemical_formula_sum "Si O2"
_cell_formula_units_Z 52
_cell_length_a 13.011086
_cell_length_b 7.465839
_cell_length_c 30.222886
_cell_angle_alpha 90.000000
_cell_angle_beta 48.799887
_cell_angle_gamma 90.000000
_cell_volume 2208.944189
_symmetry_space_group_name_H-M "C 2/C"
_symmetry_group_IT_number 15
_symmetry_cell_setting 'monoclinic'
loop_
_space_group_symop_operation_xyz
x,y,z
-x,y,1/2-z
-x,-y,-z
x,-y,1/2+z
1/2+x,1/2+y,z
1/2-x,1/2+y,1/2-z
1/2-x,1/2-y,-z
1/2+x,1/2-y,1/2+z
loop_
_atom_site_type_symbol
_atom_site_label
_atom_site_fract_x
_atom_site_fract_y
_atom_site_fract_z
Si Si1 0.363522 0.666962 0.000523
Si Si2 0.031647 0.666082 0.818174
Si Si3 0.274471 0.852599 0.167227
Si Si4 0.637306 0.128178 0.424400
Si Si5 0.654872 0.632579 0.058688
Si Si6 0.732457 0.991982 0.627279
Si Si7 0.000000 0.056198 0.250000
O O1 0.488054 0.796137 0.978373
O O2 0.417841 0.507872 0.953088
O O3 0.250000 0.750000 0.000000
O O4 0.294232 0.583092 0.063611
O O5 0.951236 0.754149 0.882663
O O6 0.931633 0.509254 0.830368
O O7 0.042864 0.814051 0.777531
O O8 0.176756 0.614630 0.796776
O O9 0.271576 0.646187 0.154122
O O10 0.372348 0.970580 0.108067
O O11 0.126248 0.934233 0.200615
O O12 0.735636 0.061326 0.436094
O O13 0.714577 0.304176 0.382719
O O14 0.750000 0.750000 0.000000
#
# Coordination Sequence:
#
# PCOD9303320 Si02
#       7
#     8   8   8   8   8   8   4
#     4  12  24  37  67 109 149 195 234 280 363 437
#     4  11  26  50  76 103 146 188 244 302 367 422
#     4  12  27  49  77 103 141 196 243 303 367 422
#     4  11  24  44  69 105 154 186 240 294 354 435
#     4  11  22  43  70 104 147 187 230 294 357 436
#     4  11  24  45  71 109 145 189 240 292 357 444
#     4  12  28  54  72 106 138 186 256 314 350 432
#
# _framework density 23.540659000000002
#
# number of rings (size 3 to 8) (size 9 to 14) (size 15 to 20)
#    0.000    0.615    6.154    3.231    2.154    4.308 
#    5.538    0.000    0.000    0.000    0.000    0.000 
#    0.000    0.000    0.000    0.000    0.000    0.000 
#
# Total GULP energy -145566.656283 kJ/mol
# GULP energy per Si atom -5598.717549 kJ/mol
# Density = 2.348708 g / cm^3
# Si number density = 23.540659 Si / 1000 Ang^3
#
#
#
# Elastic Constant Matrix: (Units=GPa)
#
#
# Indices 1 2 3 4 5 6 
#
# 1 110.5373 23.0421 -10.8274 -0.0002 10.1653 -0.0004
# 2 23.0421 67.3181 9.4035 -0.0004 1.3539 -0.0008
# 3 -10.8274 9.4035 41.0072 -0.0001 11.4477 0.0000
# 4 -0.0002 -0.0004 -0.0001 9.9357 -0.0001 6.3231
# 5 10.1653 1.3539 11.4477 -0.0001 19.2850 -0.0001
# 6 -0.0004 -0.0008 0.0000 6.3231 -0.0001 35.6773
#
#
#
# Elastic Compliance Matrix: (Units=1/GPa)
#
#
# Indices 1 2 3 4 5 6 
#
# 1 0.011625 -0.004747 0.006923 0.000000 -0.009904 0.000000
# 2 -0.004747 0.017308 -0.006690 0.000001 0.005258 0.000000
# 3 0.006923 -0.006690 0.034323 0.000000 -0.023554 0.000000
# 4 0.000000 0.000001 0.000000 0.113443 0.000001 -0.020106
# 5 -0.009904 0.005258 -0.023554 0.000001 0.070687 0.000000
# 6 0.000000 0.000000 0.000000 -0.020106 0.000000 0.031592
#
#
# Mechanical properties :
#
#
# Convention : Reuss Voigt Hill
#
# Bulk Modulus (GPa) = 18.44068 29.12212 23.78140
# Shear Modulus (GPa) = 16.33537 26.12921 21.23229
#
# Velocity S-wave (km/s) = 2.63710 3.33522 3.00649
# Velocity P-wave (km/s) = 4.13798 5.21818 4.70916
#
# Compressibility (1/GPa) = 0.05422794
#
# Stress axis : x y z
#
# Youngs Moduli (GPa) = 86.02052 57.77520 29.13456
#
# Poissons Ratio (x) = 0.27426 -0.20169
# Poissons Ratio (y) = 0.40834 0.19492
# Poissons Ratio (z) = -0.59550 0.38654
#
# Static dielectric constant tensor:
#      x y z
#    x 1.976140 0.000000 -0.078900 
#    y 0.000000 1.869680 0.000000 
#    z -0.078900 0.000000 1.975220 
# 
# From -- ./inp_files/291480.got.cif
#   From: 2010.05.17/outbox.cif.g08.bks.cpg/sg15_146_cif.got.tgz:291480.got - 2010.06.03 18:47:42.
