data_PCOD9303475
_publ_section_title
;
Structure prediction by ZEFSAII (Michael W. Deem and Ramdas Pophale) SiO2 
 PCOD9303475
Probable space group: C 2/C
;
_chemical_formula_sum "Si O2"
_cell_formula_units_Z 40
_cell_length_a 23.392041
_cell_length_b 9.075648
_cell_length_c 27.849305
_cell_angle_alpha 90.000000
_cell_angle_beta 16.981202
_cell_angle_gamma 90.000000
_cell_volume 1726.748692
_symmetry_space_group_name_H-M "C 2/C"
_symmetry_group_IT_number 15
_symmetry_cell_setting 'monoclinic'
loop_
_space_group_symop_operation_xyz
x,y,z
-x,y,1/2-z
-x,-y,-z
x,-y,1/2+z
1/2+x,1/2+y,z
1/2-x,1/2+y,1/2-z
1/2-x,1/2-y,-z
1/2+x,1/2-y,1/2+z
loop_
_atom_site_type_symbol
_atom_site_label
_atom_site_fract_x
_atom_site_fract_y
_atom_site_fract_z
Si Si1 0.464368 0.546262 0.154160
Si Si2 0.184543 0.280153 0.386163
Si Si3 0.091567 0.282021 0.979166
Si Si4 0.498687 0.048595 0.383162
Si Si5 0.180355 0.584709 0.568342
O O1 0.330155 0.407542 0.249410
O O2 0.557140 0.631216 0.034755
O O3 0.314583 0.663171 0.298997
O O4 0.635918 0.507849 0.053227
O O5 0.995320 0.276533 0.504279
O O6 0.127643 0.334763 0.484590
O O7 0.300231 0.128366 0.291298
O O8 0.978598 0.409614 0.099610
O O9 0.386854 0.995078 0.425959
O O10 0.250000 0.750000 0.500000
O O11 0.000000 0.590359 0.750000
#
# Coordination Sequence:
#
# PCOD9303475 Si02
#       5
#     8   8   8   8   8
#     4  11  24  42  71 100 140 185 234 292 345 416
#     4  11  25  44  69 109 145 182 232 292 363 419
#     4  11  22  44  73 106 141 186 236 288 354 426
#     4  11  26  45  71 101 148 188 233 292 352 420
#     4  12  27  48  73 103 136 186 249 288 348 425
#
# _framework density 23.164922000000001
#
# number of rings (size 3 to 8) (size 9 to 14) (size 15 to 20)
#    0.000    0.800    2.000    6.000    5.600    0.800 
#    0.000    4.000    0.000    0.000    0.000    0.000 
#    0.000    0.000    0.000    0.000    0.000    0.000 
#
# Total GULP energy -112121.158284 kJ/mol
# GULP energy per Si atom -5606.057914 kJ/mol
# Density = 2.311220 g / cm^3
# Si number density = 23.164922 Si / 1000 Ang^3
#
#
#
# Elastic Constant Matrix: (Units=GPa)
#
#
# Indices 1 2 3 4 5 6 
#
# 1 170.3414 24.3227 66.2208 -0.0011 -1.5260 -0.0005
# 2 24.3227 53.6125 53.0815 -0.0266 19.0359 0.0017
# 3 66.2208 53.0815 102.1808 -0.0495 -0.3228 0.0021
# 4 -0.0011 -0.0266 -0.0495 47.2783 -0.0076 7.7784
# 5 -1.5260 19.0359 -0.3228 -0.0076 37.9930 0.0020
# 6 -0.0005 0.0017 0.0021 7.7784 0.0020 34.0895
#
#
#
# Elastic Compliance Matrix: (Units=1/GPa)
#
#
# Indices 1 2 3 4 5 6 
#
# 1 0.008200 0.004726 -0.007776 -0.000006 -0.002105 0.000002
# 2 0.004726 0.063959 -0.036390 -0.000008 -0.032165 0.000003
# 3 -0.007776 -0.036390 0.033788 0.000019 0.018208 -0.000006
# 4 -0.000006 -0.000008 0.000019 0.021976 0.000008 -0.005014
# 5 -0.002105 -0.032165 0.018208 0.000008 0.042507 -0.000004
# 6 0.000002 0.000003 -0.000006 -0.005014 -0.000004 0.030479
#
#
# Mechanical properties :
#
#
# Convention : Reuss Voigt Hill
#
# Bulk Modulus (GPa) = 36.94634 68.15387 52.55010
# Shear Modulus (GPa) = 17.31243 36.03950 26.67596
#
# Velocity S-wave (km/s) = 2.73675 3.94862 3.39716
# Velocity P-wave (km/s) = 5.09610 7.09040 6.17430
#
# Compressibility (1/GPa) = 0.02706628
#
# Stress axis : x y z
#
# Youngs Moduli (GPa) = 121.95473 15.63508 29.59664
#
# Poissons Ratio (x) = -0.07389 0.23014
# Poissons Ratio (y) = -0.57637 1.07703
# Poissons Ratio (z) = 0.94830 0.56896
#
# Static dielectric constant tensor:
#      x y z
#    x 1.810050 0.000000 0.032130 
#    y 0.000000 1.882240 0.000010 
#    z 0.032130 0.000010 1.897150 
# 
# From -- ./inp_files/279949.got.cif
#   From: 2010.05.17/outbox.cif.g08.bks.cpg/sg15_140_cif.got.tgz:279949.got - 2010.06.03 18:47:42.
