data_PCOD9303579
_publ_section_title
;
Structure prediction by ZEFSAII (Michael W. Deem and Ramdas Pophale) SiO2 
 PCOD9303579
Probable space group: C 2/C
;
_chemical_formula_sum "Si O2"
_cell_formula_units_Z 36
_cell_length_a 12.281576
_cell_length_b 22.793972
_cell_length_c 5.244236
_cell_angle_alpha 90.000000
_cell_angle_beta 86.985997
_cell_angle_gamma 90.000000
_cell_volume 1466.071559
_symmetry_space_group_name_H-M "C 2/C"
_symmetry_group_IT_number 15
_symmetry_cell_setting 'monoclinic'
loop_
_space_group_symop_operation_xyz
x,y,z
-x,y,1/2-z
-x,-y,-z
x,-y,1/2+z
1/2+x,1/2+y,z
1/2-x,1/2+y,1/2-z
1/2-x,1/2-y,-z
1/2+x,1/2-y,1/2+z
loop_
_atom_site_type_symbol
_atom_site_label
_atom_site_fract_x
_atom_site_fract_y
_atom_site_fract_z
Si Si1 0.113996 0.071828 0.830463
Si Si2 0.500000 0.249490 0.750000
Si Si3 0.840223 0.147205 0.174370
Si Si4 0.846918 0.531582 0.805536
Si Si5 0.901703 0.353415 0.586044
O O1 0.143578 0.116300 0.597765
O O2 0.215313 0.028498 0.832534
O O3 0.000000 0.044949 0.750000
O O4 0.112145 0.107934 0.096120
O O5 0.594317 0.292090 0.841483
O O6 0.556892 0.206979 0.539782
O O7 0.712041 0.154026 0.250745
O O8 0.883642 0.511387 0.525681
O O9 0.878699 0.597392 0.875420
O O10 0.000000 0.374676 0.750000
#
# Coordination Sequence:
#
# PCOD9303579 Si02
#       5
#     8   4   8   8   8
#     4  11  22  45  76 110 145 187 241 298 366 445
#     4  12  26  46  76 110 144 202 228 300 370 434
#     4  11  25  46  73 109 155 185 234 299 364 433
#     4  11  26  48  73 103 145 192 245 308 360 411
#     4  11  29  46  73 109 147 193 252 293 352 448
#
# _framework density 24.555420999999999
#
# number of rings (size 3 to 8) (size 9 to 14) (size 15 to 20)
#    0.000    0.889    2.222    3.333   12.444    2.667 
#    0.000    0.000    0.000    0.000    0.000    0.000 
#    0.000    0.000    0.000    0.000    0.000    0.000 
#
# Total GULP energy -100969.891847 kJ/mol
# GULP energy per Si atom -5609.438436 kJ/mol
# Density = 2.449953 g / cm^3
# Si number density = 24.555421 Si / 1000 Ang^3
#
#
#
# Elastic Constant Matrix: (Units=GPa)
#
#
# Indices 1 2 3 4 5 6 
#
# 1 195.4969 34.8686 38.7347 0.0000 -5.7731 0.0000
# 2 34.8686 95.8943 39.7804 0.0000 13.0593 0.0000
# 3 38.7347 39.7804 110.4358 0.0000 28.3533 0.0000
# 4 0.0000 0.0000 0.0000 -155.6698 0.0000 -246.7001
# 5 -5.7731 13.0593 28.3533 0.0000 32.7191 0.0000
# 6 0.0000 0.0000 0.0000 -246.7001 0.0000 -274.5483
#
#
#
# Elastic Compliance Matrix: (Units=1/GPa)
#
#
# Indices 1 2 3 4 5 6 
#
# 1 0.006029 -0.001683 -0.002513 0.000000 0.003913 0.000000
# 2 -0.001683 0.012778 -0.003379 0.000000 -0.002469 0.000000
# 3 -0.002513 -0.003379 0.014046 0.000000 -0.011267 0.000000
# 4 0.000000 0.000000 0.000000 0.015150 0.000000 -0.013613
# 5 0.003913 -0.002469 -0.011267 0.000000 0.042003 0.000000
# 6 0.000000 0.000000 0.000000 -0.013613 0.000000 0.008590
#
#
# Mechanical properties :
#
#
# Convention : Reuss Voigt Hill
#
# Bulk Modulus (GPa) = 56.48411 69.84382 63.16396
# Shear Modulus (GPa) = 41.79017 -60.27024 -9.24003
#
# Velocity S-wave (km/s) = 4.12985 -4.95962 -1.94193
# Velocity P-wave (km/s) = 6.76709 2.07173 4.55530
#
# Compressibility (1/GPa) = 0.01770409
#
# Stress axis : x y z
#
# Youngs Moduli (GPa) = 165.87173 78.26081 71.19365
#
# Poissons Ratio (x) = 0.13167 0.17892
# Poissons Ratio (y) = 0.27908 0.24054
# Poissons Ratio (z) = 0.41686 0.26442
#
# Static dielectric constant tensor:
#      x y z
#    x 2.001640 0.000000 0.015750 
#    y 0.000000 1.895040 0.000000 
#    z 0.015750 0.000000 1.942060 
# 
# From -- ./inp_files/4290.got.cif
#   From: 2010.05.17/outbox.cif.g08.bks.cpg/sg15_3_cif.got.tgz:4290.got - 2010.06.03 18:47:42.
