data_PCOD9303008
_publ_section_title
;
Structure prediction by ZEFSAII (Michael W. Deem and Ramdas Pophale) SiO2 
 PCOD9303008
Probable space group: C 2/C
;
_chemical_formula_sum "Si O2"
_cell_formula_units_Z 56
_cell_length_a 9.135928
_cell_length_b 11.173531
_cell_length_c 27.012545
_cell_angle_alpha 90.000000
_cell_angle_beta 110.106917
_cell_angle_gamma 90.000000
_cell_volume 2589.396771
_symmetry_space_group_name_H-M "C 2/C"
_symmetry_group_IT_number 15
_symmetry_cell_setting 'monoclinic'
loop_
_space_group_symop_operation_xyz
x,y,z
-x,y,1/2-z
-x,-y,-z
x,-y,1/2+z
1/2+x,1/2+y,z
1/2-x,1/2+y,1/2-z
1/2-x,1/2-y,-z
1/2+x,1/2-y,1/2+z
loop_
_atom_site_type_symbol
_atom_site_label
_atom_site_fract_x
_atom_site_fract_y
_atom_site_fract_z
Si Si1 0.491419 0.985538 0.690216
Si Si2 0.494058 0.705694 0.806532
Si Si3 0.132590 0.347644 0.009915
Si Si4 0.211111 0.326645 0.575079
Si Si5 0.690429 0.081690 0.625080
Si Si6 0.673274 0.414381 0.130239
Si Si7 0.099930 0.972636 0.963506
O O1 0.500000 0.017184 0.750000
O O2 0.591317 0.066466 0.663869
O O3 0.314338 0.994396 0.650101
O O4 0.536776 0.846472 0.690629
O O5 0.500000 0.677471 0.750000
O O6 0.658248 0.661852 0.847293
O O7 0.361929 0.633421 0.819348
O O8 0.116503 0.356770 0.067503
O O9 0.231526 0.466505 0.009159
O O10 0.250000 0.250000 0.000000
O O11 0.965297 0.334673 0.965856
O O12 0.228672 0.444286 0.612395
O O13 0.221771 0.200437 0.603510
O O14 0.345770 0.343714 0.549456
O O15 0.513413 0.468536 0.090442
O O16 0.000000 0.000000 0.000000
#
# Coordination Sequence:
#
# PCOD9303008 Si02
#       7
#     8   8   8   8   8   8   8
#     4  11  27  45  69 101 131 176 232 284 343 408
#     4  11  23  46  72  95 131 177 227 287 341 399
#     4  11  22  41  67  96 136 186 224 264 339 418
#     4  11  23  43  66  98 138 182 219 277 341 407
#     4  11  22  43  69  96 134 183 219 276 351 393
#     4  12  24  44  68  99 137 171 230 278 338 412
#     4  11  25  39  63 100 135 178 225 275 331 406
#
# _framework density 21.626657999999999
#
# number of rings (size 3 to 8) (size 9 to 14) (size 15 to 20)
#    0.000    0.857    5.714    2.571    4.000    2.857 
#    0.000    0.714    0.000    0.000    0.000    0.000 
#    0.000    0.000    0.000    0.000    0.000    0.000 
#
# Total GULP energy -156340.692638 kJ/mol
# GULP energy per Si atom -5583.596166 kJ/mol
# Density = 2.157744 g / cm^3
# Si number density = 21.626658 Si / 1000 Ang^3
#
#
#
# Elastic Constant Matrix: (Units=GPa)
#
#
# Indices 1 2 3 4 5 6 
#
# 1 93.0208 8.0929 20.0577 0.0000 -27.7933 0.0000
# 2 8.0929 27.3077 5.6425 0.0000 0.6700 0.0000
# 3 20.0577 5.6425 82.2789 0.0000 -13.8190 0.0000
# 4 0.0000 0.0000 0.0000 11.3521 0.0000 13.9636
# 5 -27.7933 0.6700 -13.8190 0.0000 31.8095 0.0000
# 6 0.0000 0.0000 0.0000 13.9636 0.0000 30.4110
#
#
#
# Elastic Compliance Matrix: (Units=1/GPa)
#
#
# Indices 1 2 3 4 5 6 
#
# 1 0.015271 -0.004586 -0.001242 0.000000 0.012900 0.000000
# 2 -0.004586 0.038646 -0.002526 0.000000 -0.005918 0.000000
# 3 -0.001242 -0.002526 0.013437 0.000000 0.004806 0.000000
# 4 0.000000 0.000000 0.000000 0.202405 0.000000 -0.092937
# 5 0.012900 -0.005918 0.004806 0.000000 0.044921 0.000000
# 6 0.000000 0.000000 0.000000 -0.092937 0.000000 0.075556
#
#
# Mechanical properties :
#
#
# Convention : Reuss Voigt Hill
#
# Bulk Modulus (GPa) = 19.74465 30.02153 24.88309
# Shear Modulus (GPa) = 11.79729 25.96881 18.88305
#
# Velocity S-wave (km/s) = 2.33812 3.46898 2.95810
# Velocity P-wave (km/s) = 4.05447 5.47330 4.81641
#
# Compressibility (1/GPa) = 0.05064662
#
# Stress axis : x y z
#
# Youngs Moduli (GPa) = 65.48162 25.87588 74.42213
#
# Poissons Ratio (x) = 0.11866 0.09241
# Poissons Ratio (y) = 0.30029 0.18802
# Poissons Ratio (z) = 0.08131 0.06537
#
# Static dielectric constant tensor:
#      x y z
#    x 1.760700 0.000000 -0.019250 
#    y 0.000000 1.828410 0.000000 
#    z -0.019250 0.000000 1.827030 
# 
# From -- ./inp_files/288069.got.cif
#   From: 2010.05.17/outbox.cif.g08.bks.cpg/sg15_145_cif.got.tgz:288069.got - 2010.06.03 18:47:42.
