data_PCOD9303812
_publ_section_title
;
Structure prediction by ZEFSAII (Michael W. Deem and Ramdas Pophale) SiO2 
 PCOD9303812
Probable space group: C 2/C
;
_chemical_formula_sum "Si O2"
_cell_formula_units_Z 64
_cell_length_a 12.936307
_cell_length_b 22.758119
_cell_length_c 14.071544
_cell_angle_alpha 90.000000
_cell_angle_beta 140.050475
_cell_angle_gamma 90.000000
_cell_volume 2660.109790
_symmetry_space_group_name_H-M "C 2/C"
_symmetry_group_IT_number 15
_symmetry_cell_setting 'monoclinic'
loop_
_space_group_symop_operation_xyz
x,y,z
-x,y,1/2-z
-x,-y,-z
x,-y,1/2+z
1/2+x,1/2+y,z
1/2-x,1/2+y,1/2-z
1/2-x,1/2-y,-z
1/2+x,1/2-y,1/2+z
loop_
_atom_site_type_symbol
_atom_site_label
_atom_site_fract_x
_atom_site_fract_y
_atom_site_fract_z
Si Si1 0.335811 0.227491 0.343933
Si Si2 0.979244 0.270057 0.347069
Si Si3 0.652251 0.138058 0.294606
Si Si4 0.007827 0.839964 0.370742
Si Si5 0.197121 0.493992 0.872130
Si Si6 0.943048 0.603251 0.814123
Si Si7 0.665379 0.018990 0.062435
Si Si8 0.099770 0.967206 0.123612
O O1 0.366720 0.233594 0.477822
O O2 0.389549 0.167241 0.334928
O O3 0.416787 0.281738 0.345020
O O4 0.144592 0.223748 0.199015
O O5 0.000000 0.261219 0.250000
O O6 0.894523 0.332508 0.314693
O O7 0.500000 0.152245 0.250000
O O8 0.670427 0.068422 0.300857
O O9 0.810257 0.161672 0.460224
O O10 0.937504 0.901385 0.365102
O O11 0.000000 0.842161 0.250000
O O12 0.000000 0.511266 0.750000
O O13 0.222048 0.487389 0.005027
O O14 0.405839 0.497594 0.987902
O O15 0.795341 0.555342 0.703250
O O16 0.000000 0.620364 0.750000
O O17 0.102110 0.581687 0.980736
O O18 0.811181 0.007825 0.236007
O O19 0.500000 0.000000 0.000000
#
# Coordination Sequence:
#
# PCOD9303812 Si02
#       8
#     8   8   8   8   8   8   8   8
#     4  12  27  48  76 108 146 198 257 305 368 438
#     4  11  25  47  76 107 148 195 251 308 370 437
#     4  12  27  46  76 108 145 190 248 314 370 450
#     4  12  28  51  75 106 151 199 245 311 383 445
#     4  11  23  45  70 107 148 185 239 300 363 443
#     4   9  20  39  67 104 136 180 237 295 355 430
#     4  11  23  39  70 106 141 191 235 287 361 432
#     4  12  26  42  69 102 147 189 237 289 370 438
#
# _framework density 24.059158
#
# number of rings (size 3 to 8) (size 9 to 14) (size 15 to 20)
#    0.000    0.750    3.750    3.375    3.500    1.000 
#    0.000    0.000    0.000    0.750    0.000    0.000 
#    0.000    0.000    0.000    0.000    0.000    0.000 
#
# Total GULP energy -178251.992619 kJ/mol
# GULP energy per Si atom -5570.374769 kJ/mol
# Density = 2.400440 g / cm^3
# Si number density = 24.059158 Si / 1000 Ang^3
#
#
#
# Elastic Constant Matrix: (Units=GPa)
#
#
# Indices 1 2 3 4 5 6 
#
# 1 163.2716 56.5535 77.7247 0.0000 -13.1793 0.0000
# 2 56.5535 70.2110 7.4141 0.0000 -10.7766 0.0000
# 3 77.7247 7.4141 144.4876 0.0000 -9.5614 0.0000
# 4 0.0000 0.0000 0.0000 13.8285 0.0000 -6.4835
# 5 -13.1793 -10.7766 -9.5614 0.0000 52.0455 0.0000
# 6 0.0000 0.0000 0.0000 -6.4835 0.0000 21.0392
#
#
#
# Elastic Compliance Matrix: (Units=1/GPa)
#
#
# Indices 1 2 3 4 5 6 
#
# 1 0.012211 -0.009182 -0.006093 0.000000 0.000072 0.000000
# 2 -0.009182 0.021659 0.004019 0.000000 0.002898 0.000000
# 3 -0.006093 0.004019 0.010068 0.000000 0.001139 0.000000
# 4 0.000000 0.000000 0.000000 0.084527 0.000000 0.026048
# 5 0.000072 0.002898 0.001139 0.000000 0.020041 0.000000
# 6 0.000000 0.000000 0.000000 0.026048 0.000000 0.055557
#
#
# Mechanical properties :
#
#
# Convention : Reuss Voigt Hill
#
# Bulk Modulus (GPa) = 46.66871 73.48386 60.07629
# Shear Modulus (GPa) = 21.39344 33.13451 27.26398
#
# Velocity S-wave (km/s) = 2.98518 3.71510 3.36996
# Velocity P-wave (km/s) = 5.59655 7.00085 6.33772
#
# Compressibility (1/GPa) = 0.02142763
#
# Stress axis : x y z
#
# Youngs Moduli (GPa) = 81.89061 46.17070 99.32681
#
# Poissons Ratio (x) = 0.42392 0.60520
# Poissons Ratio (y) = 0.75189 -0.39924
# Poissons Ratio (z) = 0.49896 -0.18558
#
# Static dielectric constant tensor:
#      x y z
#    x 2.138650 0.000000 0.088420 
#    y 0.000000 2.013840 0.000000 
#    z 0.088420 0.000000 1.914220 
# 
# From -- ./inp_files/148786.got.cif
#   From: 2010.05.17/outbox.cif.g08.bks.cpg/sg15_75_cif.got.tgz:148786.got - 2010.06.03 18:47:42.
