data_PCOD9303181
_publ_section_title
;
Structure prediction by ZEFSAII (Michael W. Deem and Ramdas Pophale) SiO2 
 PCOD9303181
Probable space group: C 2/C
;
_chemical_formula_sum "Si O2"
_cell_formula_units_Z 64
_cell_length_a 12.051755
_cell_length_b 15.949905
_cell_length_c 26.599999
_cell_angle_alpha 90.000000
_cell_angle_beta 37.093180
_cell_angle_gamma 90.000000
_cell_volume 3083.817993
_symmetry_space_group_name_H-M "C 2/C"
_symmetry_group_IT_number 15
_symmetry_cell_setting 'monoclinic'
loop_
_space_group_symop_operation_xyz
x,y,z
-x,y,1/2-z
-x,-y,-z
x,-y,1/2+z
1/2+x,1/2+y,z
1/2-x,1/2+y,1/2-z
1/2-x,1/2-y,-z
1/2+x,1/2-y,1/2+z
loop_
_atom_site_type_symbol
_atom_site_label
_atom_site_fract_x
_atom_site_fract_y
_atom_site_fract_z
Si Si1 0.797813 0.043712 0.566569
Si Si2 0.783911 0.306565 0.329232
Si Si3 0.789626 0.892563 0.442340
Si Si4 0.405781 0.725706 0.703170
Si Si5 0.081711 0.670338 0.470061
Si Si6 0.362490 0.286852 0.621023
Si Si7 0.619333 0.417300 0.573814
Si Si8 0.835902 0.629360 0.401659
O O1 0.755433 0.107997 0.626019
O O2 0.797794 0.088687 0.512625
O O3 0.651407 0.968838 0.614517
O O4 0.000000 0.000000 0.500000
O O5 0.719866 0.311103 0.295200
O O6 0.662624 0.235282 0.400311
O O7 0.000000 0.287248 0.250000
O O8 0.584586 0.885099 0.493020
O O9 0.768614 0.860081 0.507480
O O10 0.914134 0.831820 0.364006
O O11 0.886651 0.983115 0.412836
O O12 0.293526 0.734347 0.794473
O O13 0.477198 0.818928 0.663918
O O14 0.247978 0.616514 0.431336
O O15 0.009580 0.724137 0.543742
O O16 0.444366 0.356104 0.630069
O O17 0.278825 0.333853 0.603194
#
# Coordination Sequence:
#
# PCOD9303181 Si02
#       8
#     8   8   8   8   8   8   8   8
#     4  11  22  43  68 102 129 173 228 288 345 402
#     4  12  26  43  69 101 139 180 228 283 341 413
#     4  11  24  44  70 100 132 184 232 281 337 414
#     4  12  25  42  68  99 138 180 227 280 346 406
#     4  12  23  45  70  96 136 187 232 270 341 423
#     4  12  24  41  70 102 135 176 228 283 345 404
#     4  11  24  41  71  97 134 180 225 285 345 409
#     4  11  22  42  69  97 131 176 228 280 339 405
#
# _framework density 20.753495000000001
#
# number of rings (size 3 to 8) (size 9 to 14) (size 15 to 20)
#    0.000    0.500    5.000    4.500    1.750    1.000 
#    0.000    0.000    5.500    0.000    0.000    0.000 
#    0.000    0.000    0.000    0.000    0.000    0.000 
#
# Total GULP energy -178820.589783 kJ/mol
# GULP energy per Si atom -5588.143431 kJ/mol
# Density = 2.070626 g / cm^3
# Si number density = 20.753495 Si / 1000 Ang^3
#
#
#
# Elastic Constant Matrix: (Units=GPa)
#
#
# Indices 1 2 3 4 5 6 
#
# 1 113.2182 27.5682 20.7186 0.0000 -1.7564 0.0002
# 2 27.5682 50.4765 21.4499 0.0001 14.6246 0.0003
# 3 20.7186 21.4499 78.3315 0.0014 8.4242 0.0008
# 4 0.0000 0.0001 0.0014 2.8427 0.0005 -0.5299
# 5 -1.7564 14.6246 8.4242 0.0005 25.7932 -0.0001
# 6 0.0002 0.0003 0.0008 -0.5299 -0.0001 39.7475
#
#
#
# Elastic Compliance Matrix: (Units=1/GPa)
#
#
# Indices 1 2 3 4 5 6 
#
# 1 0.010833 -0.006715 -0.001571 0.000000 0.005058 0.000000
# 2 -0.006715 0.030132 -0.004756 0.000004 -0.015989 0.000000
# 3 -0.001571 -0.004756 0.014723 -0.000007 -0.002219 0.000000
# 4 0.000000 0.000004 -0.000007 0.352658 -0.000007 0.004702
# 5 0.005058 -0.015989 -0.002219 -0.000007 0.048905 0.000000
# 6 0.000000 0.000000 0.000000 0.004702 0.000000 0.025222
#
#
# Mechanical properties :
#
#
# Convention : Reuss Voigt Hill
#
# Bulk Modulus (GPa) = 33.77718 42.38884 38.08301
# Shear Modulus (GPa) = 9.64464 25.16264 17.40364
#
# Velocity S-wave (km/s) = 2.15808 3.48581 2.89898
# Velocity P-wave (km/s) = 4.74558 6.05561 5.44017
#
# Compressibility (1/GPa) = 0.02960579
#
# Stress axis : x y z
#
# Youngs Moduli (GPa) = 92.30713 33.18759 67.92285
#
# Poissons Ratio (x) = 0.22285 0.10668
# Poissons Ratio (y) = 0.61982 0.32301
# Poissons Ratio (z) = 0.14498 0.15783
#
# Static dielectric constant tensor:
#      x y z
#    x 1.763410 0.000000 -0.030140 
#    y 0.000000 1.798670 0.000000 
#    z -0.030140 0.000000 1.723720 
# 
# From -- ./inp_files/293061.got.cif
#   From: 2010.05.17/outbox.cif.g08.bks.cpg/sg15_147_cif.got.tgz:293061.got - 2010.06.03 18:47:42.
