data_PCOD9303081
_publ_section_title
;
Structure prediction by ZEFSAII (Michael W. Deem and Ramdas Pophale) SiO2 
 PCOD9303081
Probable space group: C 2/C
;
_chemical_formula_sum "Si O2"
_cell_formula_units_Z 48
_cell_length_a 13.592169
_cell_length_b 13.398180
_cell_length_c 25.684836
_cell_angle_alpha 90.000000
_cell_angle_beta 30.332192
_cell_angle_gamma 90.000000
_cell_volume 2362.183472
_symmetry_space_group_name_H-M "C 2/C"
_symmetry_group_IT_number 15
_symmetry_cell_setting 'monoclinic'
loop_
_space_group_symop_operation_xyz
x,y,z
-x,y,1/2-z
-x,-y,-z
x,-y,1/2+z
1/2+x,1/2+y,z
1/2-x,1/2+y,1/2-z
1/2-x,1/2-y,-z
1/2+x,1/2-y,1/2+z
loop_
_atom_site_type_symbol
_atom_site_label
_atom_site_fract_x
_atom_site_fract_y
_atom_site_fract_z
Si Si1 0.000000 0.640031 0.750000
Si Si2 0.866065 0.480570 0.889708
Si Si3 0.941036 0.885283 0.397925
Si Si4 0.199551 0.496500 0.318824
Si Si5 0.834672 0.275394 0.640315
Si Si6 0.178076 0.661614 0.917772
Si Si7 0.000000 0.314300 0.750000
O O1 0.867914 0.568431 0.846539
O O2 0.852899 0.708406 0.784902
O O3 0.957236 0.385335 0.818309
O O4 0.010143 0.514945 0.869498
O O5 0.665989 0.444918 0.006930
O O6 0.786533 0.863298 0.422704
O O7 0.114999 0.949675 0.294465
O O8 0.031004 0.783641 0.379825
O O9 0.225035 0.614091 0.315455
O O10 0.169727 0.436108 0.385938
O O11 0.970118 0.292774 0.527644
O O12 0.314710 0.742720 0.827121
#
# Coordination Sequence:
#
# PCOD9303081 Si02
#       7
#     4   8   8   8   8   8   4
#     4  11  28  47  66 106 142 175 228 293 356 396
#     4  11  25  45  69 102 139 180 232 282 340 413
#     4  12  24  46  73 101 136 189 229 278 343 417
#     4  12  26  42  70 106 142 174 230 293 333 408
#     4  12  26  46  71  99 142 185 223 287 350 400
#     4  12  24  42  73 107 133 180 238 277 340 411
#     4  11  22  41  72  98 134 181 238 279 326 418
#
# _framework density 20.320183
#
# number of rings (size 3 to 8) (size 9 to 14) (size 15 to 20)
#    0.000    0.333    6.667    2.000    2.333    2.000 
#    0.000    1.667    0.000    0.000    0.000    0.000 
#    0.000    0.000    0.000    0.000    0.000    0.000 
#
# Total GULP energy -134296.813476 kJ/mol
# GULP energy per Si atom -5595.700562 kJ/mol
# Density = 2.027393 g / cm^3
# Si number density = 20.320183 Si / 1000 Ang^3
#
#
#
# Elastic Constant Matrix: (Units=GPa)
#
#
# Indices 1 2 3 4 5 6 
#
# 1 72.6554 25.2922 -4.0118 0.0001 11.7187 0.0001
# 2 25.2922 100.6606 37.9371 -0.0011 12.5054 -0.0023
# 3 -4.0118 37.9371 119.1116 0.0031 15.3256 0.0038
# 4 0.0001 -0.0011 0.0031 31.6100 -0.0009 -8.4154
# 5 11.7187 12.5054 15.3256 -0.0009 23.7905 -0.0013
# 6 0.0001 -0.0023 0.0038 -8.4154 -0.0013 24.2206
#
#
#
# Elastic Compliance Matrix: (Units=1/GPa)
#
#
# Indices 1 2 3 4 5 6 
#
# 1 0.016702 -0.004334 0.002953 -0.000001 -0.007851 -0.000002
# 2 -0.004334 0.012764 -0.003950 0.000001 -0.002030 0.000002
# 3 0.002953 -0.003950 0.010547 -0.000002 -0.006173 -0.000003
# 4 -0.000001 0.000001 -0.000002 0.034860 0.000003 0.012112
# 5 -0.007851 -0.002030 -0.006173 0.000003 0.050944 0.000005
# 6 -0.000002 0.000002 -0.000003 0.012112 0.000005 0.045496
#
#
# Mechanical properties :
#
#
# Convention : Reuss Voigt Hill
#
# Bulk Modulus (GPa) = 34.07048 45.65140 39.86094
# Shear Modulus (GPa) = 26.07432 31.47155 28.77293
#
# Velocity S-wave (km/s) = 3.58603 3.93973 3.76703
# Velocity P-wave (km/s) = 5.82661 6.57344 6.21126
#
# Compressibility (1/GPa) = 0.02935092
#
# Stress axis : x y z
#
# Youngs Moduli (GPa) = 59.87393 78.34329 94.81081
#
# Poissons Ratio (x) = 0.33955 -0.27999
# Poissons Ratio (y) = 0.25950 0.37453
# Poissons Ratio (z) = -0.17682 0.30948
#
# Static dielectric constant tensor:
#      x y z
#    x 1.715720 0.000000 0.020870 
#    y 0.000000 1.702650 0.000000 
#    z 0.020870 0.000000 1.723640 
# 
# From -- ./inp_files/151888.got.cif
#   From: 2010.05.17/outbox.cif.g08.bks.cpg/sg15_76_cif.got.tgz:151888.got - 2010.06.03 18:47:42.
