data_PCOD9303324
_publ_section_title
;
Structure prediction by ZEFSAII (Michael W. Deem and Ramdas Pophale) SiO2 
 PCOD9303324
Probable space group: C 2/C
;
_chemical_formula_sum "Si O2"
_cell_formula_units_Z 32
_cell_length_a 27.341736
_cell_length_b 6.890772
_cell_length_c 16.456491
_cell_angle_alpha 90.000000
_cell_angle_beta 31.093422
_cell_angle_gamma 90.000000
_cell_volume 1601.204812
_symmetry_space_group_name_H-M "C 2/C"
_symmetry_group_IT_number 15
_symmetry_cell_setting 'monoclinic'
loop_
_space_group_symop_operation_xyz
x,y,z
-x,y,1/2-z
-x,-y,-z
x,-y,1/2+z
1/2+x,1/2+y,z
1/2-x,1/2+y,1/2-z
1/2-x,1/2-y,-z
1/2+x,1/2-y,1/2+z
loop_
_atom_site_type_symbol
_atom_site_label
_atom_site_fract_x
_atom_site_fract_y
_atom_site_fract_z
Si Si1 0.635133 0.104716 0.459412
Si Si2 0.171885 0.133032 0.060379
Si Si3 0.678863 0.339304 0.914351
Si Si4 0.488670 0.588449 0.427264
O O1 0.634262 0.218730 0.545497
O O2 0.731124 0.154987 0.273499
O O3 0.549195 0.189795 0.527532
O O4 0.640619 0.878714 0.471986
O O5 0.205768 0.944471 0.960872
O O6 0.250000 0.250000 0.000000
O O7 0.086527 0.072614 0.240114
O O8 0.594018 0.465139 0.997601
O O9 0.500000 0.500000 0.500000
#
# Coordination Sequence:
#
# PCOD9303324 Si02
#       4
#     8   8   8   8
#     4  11  22  43  70  95 135 179 222 282 341 400
#     4  11  25  43  66 100 137 173 229 276 335 411
#     4  11  22  43  70  95 135 179 222 282 341 400
#     4  11  25  43  66 100 137 173 229 276 335 411
#
# _framework density 19.984950999999999
#
# number of rings (size 3 to 8) (size 9 to 14) (size 15 to 20)
#    0.000    1.000    5.000    4.500    0.000    6.000 
#    0.000    0.000    0.000    0.000    0.000    0.000 
#    0.000    0.000    0.000    0.000    0.000    0.000 
#
# Total GULP energy -89348.598433 kJ/mol
# GULP energy per Si atom -5584.287402 kJ/mol
# Density = 1.993946 g / cm^3
# Si number density = 19.984951 Si / 1000 Ang^3
#
#
#
# Elastic Constant Matrix: (Units=GPa)
#
#
# Indices 1 2 3 4 5 6 
#
# 1 129.1349 40.0429 39.2011 0.0008 16.8005 -0.0001
# 2 40.0429 120.6227 -11.3921 0.0013 20.5216 -0.0029
# 3 39.2011 -11.3921 111.8624 0.0035 31.1185 -0.0028
# 4 0.0008 0.0013 0.0035 37.2287 -0.0019 -1.4799
# 5 16.8005 20.5216 31.1185 -0.0019 28.9269 0.0012
# 6 -0.0001 -0.0029 -0.0028 -1.4799 0.0012 32.6535
#
#
#
# Elastic Compliance Matrix: (Units=1/GPa)
#
#
# Indices 1 2 3 4 5 6 
#
# 1 0.010137 -0.004103 -0.004484 0.000000 0.001847 -0.000001
# 2 -0.004103 0.012557 0.006467 -0.000002 -0.013483 0.000002
# 3 -0.004484 0.006467 0.016727 -0.000003 -0.019978 0.000003
# 4 0.000000 -0.000002 -0.000003 0.026909 0.000005 0.001220
# 5 0.001847 -0.013483 -0.019978 0.000005 0.064554 -0.000005
# 6 -0.000001 0.000002 0.000003 0.001220 -0.000005 0.030680
#
#
# Mechanical properties :
#
#
# Convention : Reuss Voigt Hill
#
# Bulk Modulus (GPa) = 28.42374 55.25816 41.84095
# Shear Modulus (GPa) = 28.16408 39.34637 33.75522
#
# Velocity S-wave (km/s) = 3.75809 4.44193 4.11424
# Velocity P-wave (km/s) = 5.75191 7.34966 6.59932
#
# Compressibility (1/GPa) = 0.03518186
#
# Stress axis : x y z
#
# Youngs Moduli (GPa) = 98.64851 79.63733 59.78268
#
# Poissons Ratio (x) = 0.32674 0.26807
# Poissons Ratio (y) = 0.40474 -0.38663
# Poissons Ratio (z) = 0.44234 -0.51504
#
# Static dielectric constant tensor:
#      x y z
#    x 1.733720 0.000000 0.003140 
#    y 0.000000 1.753010 0.000000 
#    z 0.003140 0.000000 1.669420 
# 
# From -- ./inp_files/172228.got.cif
#   From: 2010.05.17/outbox.cif.g08.bks.cpg/sg15_87_cif.got.tgz:172228.got - 2010.06.03 18:47:42.
