data_PCOD9303119
_publ_section_title
;
Structure prediction by ZEFSAII (Michael W. Deem and Ramdas Pophale) SiO2 
 PCOD9303119
Probable space group: C 2/C
;
_chemical_formula_sum "Si O2"
_cell_formula_units_Z 60
_cell_length_a 20.175332
_cell_length_b 11.713418
_cell_length_c 14.265147
_cell_angle_alpha 90.000000
_cell_angle_beta 118.447309
_cell_angle_gamma 90.000000
_cell_volume 2964.119456
_symmetry_space_group_name_H-M "C 2/C"
_symmetry_group_IT_number 15
_symmetry_cell_setting 'monoclinic'
loop_
_space_group_symop_operation_xyz
x,y,z
-x,y,1/2-z
-x,-y,-z
x,-y,1/2+z
1/2+x,1/2+y,z
1/2-x,1/2+y,1/2-z
1/2-x,1/2-y,-z
1/2+x,1/2-y,1/2+z
loop_
_atom_site_type_symbol
_atom_site_label
_atom_site_fract_x
_atom_site_fract_y
_atom_site_fract_z
Si Si1 0.158207 0.118232 0.773098
Si Si2 0.262666 0.281490 0.615094
Si Si3 0.035443 0.709584 0.566212
Si Si4 0.500000 0.711074 0.250000
Si Si5 0.821435 0.409641 0.297524
Si Si6 0.867732 0.958947 0.600957
Si Si7 0.086619 0.965253 0.565384
Si Si8 0.377793 0.159321 0.353529
O O1 0.247154 0.108890 0.810561
O O2 0.128116 0.242530 0.727587
O O3 0.129905 0.085212 0.856325
O O4 0.119578 0.025750 0.678469
O O5 0.250000 0.250000 0.500000
O O6 0.306690 0.181868 0.702327
O O7 0.304749 0.400605 0.624634
O O8 0.183270 0.302108 0.610179
O O9 0.102553 0.621681 0.596836
O O10 0.076250 0.829476 0.566133
O O11 0.019239 0.718717 0.668228
O O12 0.960324 0.672415 0.458552
O O13 0.563949 0.625352 0.330585
O O14 0.841742 0.541556 0.288250
O O15 0.865972 0.979626 0.488573
O O16 0.000000 0.000000 0.500000
#
# Coordination Sequence:
#
# PCOD9303119 Si02
#       8
#     8   8   8   4   8   8   8   8
#     4  11  22  42  65  97 130 171 225 273 337 398
#     4  11  22  42  68  99 128 175 230 277 322 402
#     4  12  24  42  67 101 136 174 224 277 347 404
#     4  12  20  36  70  98 124 168 218 288 320 386
#     4  11  24  43  67  92 137 180 216 272 341 405
#     4  12  21  39  67  98 128 163 225 279 329 388
#     4  12  22  40  66 102 131 166 218 289 335 389
#     4  11  24  42  66  93 138 177 218 274 342 402
#
# _framework density 20.242099
#
# number of rings (size 3 to 8) (size 9 to 14) (size 15 to 20)
#    0.000    0.533    6.667    2.800    1.867    0.000 
#    0.000    2.000    2.933    0.000    0.000    0.000 
#    0.000    0.000    0.000    0.000    0.000    0.000 
#
# Total GULP energy -167056.943255 kJ/mol
# GULP energy per Si atom -5568.564775 kJ/mol
# Density = 2.019603 g / cm^3
# Si number density = 20.242099 Si / 1000 Ang^3
#
#
#
# Elastic Constant Matrix: (Units=GPa)
#
#
# Indices 1 2 3 4 5 6 
#
# 1 45.8684 9.0519 16.7676 0.0000 24.3255 0.0000
# 2 9.0519 65.4889 25.6566 0.0000 2.9923 0.0000
# 3 16.7676 25.6566 52.7720 0.0000 9.2816 0.0000
# 4 0.0000 0.0000 0.0000 23.4088 0.0000 4.9250
# 5 24.3255 2.9923 9.2816 0.0000 38.2954 0.0000
# 6 0.0000 0.0000 0.0000 4.9250 0.0000 30.9031
#
#
#
# Elastic Compliance Matrix: (Units=1/GPa)
#
#
# Indices 1 2 3 4 5 6 
#
# 1 0.035693 -0.001204 -0.007087 0.000000 -0.020861 0.000000
# 2 -0.001204 0.018926 -0.009080 0.000000 0.001487 0.000000
# 3 -0.007087 -0.009080 0.025799 0.000000 -0.001042 0.000000
# 4 0.000000 0.000000 0.000000 0.044201 0.000000 -0.007044
# 5 -0.020861 0.001487 -0.001042 0.000000 0.039500 0.000000
# 6 0.000000 0.000000 0.000000 -0.007044 0.000000 0.033482
#
#
# Mechanical properties :
#
#
# Convention : Reuss Voigt Hill
#
# Bulk Modulus (GPa) = 21.89341 29.67573 25.78457
# Shear Modulus (GPa) = 20.19657 26.03167 23.11412
#
# Velocity S-wave (km/s) = 3.16215 3.59000 3.38284
# Velocity P-wave (km/s) = 4.91645 5.64591 5.29376
#
# Compressibility (1/GPa) = 0.04567585
#
# Stress axis : x y z
#
# Youngs Moduli (GPa) = 28.01692 52.83854 38.76129
#
# Poissons Ratio (x) = 0.06362 0.27468
# Poissons Ratio (y) = 0.03373 0.35196
# Poissons Ratio (z) = 0.19854 0.47978
#
# Static dielectric constant tensor:
#      x y z
#    x 1.759210 0.000000 0.040110 
#    y 0.000000 2.047950 0.000000 
#    z 0.040110 0.000000 1.744730 
# 
# From -- ./inp_files/167702.got.cif
#   From: 2010.05.17/outbox.cif.g08.bks.cpg/sg15_84_cif.got.tgz:167702.got - 2010.06.03 18:47:42.
