data_PCOD9303939
_publ_section_title
;
Structure prediction by ZEFSAII (Michael W. Deem and Ramdas Pophale) SiO2 
 PCOD9303939
Probable space group: C 2/C
;
_chemical_formula_sum "Si O2"
_cell_formula_units_Z 56
_cell_length_a 17.014878
_cell_length_b 22.613434
_cell_length_c 8.200901
_cell_angle_alpha 90.000000
_cell_angle_beta 58.367507
_cell_angle_gamma 90.000000
_cell_volume 2686.616583
_symmetry_space_group_name_H-M "C 2/C"
_symmetry_group_IT_number 15
_symmetry_cell_setting 'monoclinic'
loop_
_space_group_symop_operation_xyz
x,y,z
-x,y,1/2-z
-x,-y,-z
x,-y,1/2+z
1/2+x,1/2+y,z
1/2-x,1/2+y,1/2-z
1/2-x,1/2-y,-z
1/2+x,1/2-y,1/2+z
loop_
_atom_site_type_symbol
_atom_site_label
_atom_site_fract_x
_atom_site_fract_y
_atom_site_fract_z
Si Si1 0.862071 0.629470 0.151479
Si Si2 0.567370 0.253294 0.519354
Si Si3 0.163860 0.489398 0.016362
Si Si4 0.000000 0.197845 0.750000
Si Si5 0.889797 0.871785 0.883218
Si Si6 0.202074 0.987604 0.374276
Si Si7 0.341271 0.617785 0.061355
Si Si8 0.000000 0.575131 0.250000
O O1 0.854078 0.576418 0.029089
O O2 0.766713 0.628266 0.357271
O O3 0.948271 0.614176 0.172341
O O4 0.875885 0.693277 0.058524
O O5 0.500000 0.247513 0.750000
O O6 0.517906 0.265878 0.398175
O O7 0.625647 0.312065 0.497989
O O8 0.266686 0.510199 0.848036
O O9 0.190959 0.488850 0.177742
O O10 0.078200 0.532499 0.089911
O O11 0.088154 0.155857 0.620091
O O12 0.853606 0.865517 0.738633
O O13 0.000000 0.880273 0.750000
O O14 0.845874 0.928277 0.017623
O O15 0.143911 0.047192 0.463152
#
# Coordination Sequence:
#
# PCOD9303939 Si02
#       8
#     8   8   8   4   8   8   8   4
#     4  11  25  44  71 101 145 187 237 290 357 424
#     4  11  26  47  69 104 141 192 244 289 344 428
#     4  11  23  42  67  99 142 173 230 294 350 425
#     4  12  25  48  74 100 151 182 236 310 342 418
#     4  11  23  45  67 102 142 183 242 289 348 430
#     4  11  23  41  65 105 139 177 231 290 356 421
#     4  11  24  45  69 105 140 185 236 295 363 422
#     4  12  23  44  68 108 137 184 238 296 358 428
#
# _framework density 20.844059999999999
#
# number of rings (size 3 to 8) (size 9 to 14) (size 15 to 20)
#    0.000    0.857    8.571    0.857    4.000    1.714 
#    0.000    0.000    0.000    0.000    0.000    0.000 
#    0.000    0.000    0.000    0.000    0.000    0.000 
#
# Total GULP energy -156243.741382 kJ/mol
# GULP energy per Si atom -5580.133621 kJ/mol
# Density = 2.079662 g / cm^3
# Si number density = 20.844060 Si / 1000 Ang^3
#
#
#
# Elastic Constant Matrix: (Units=GPa)
#
#
# Indices 1 2 3 4 5 6 
#
# 1 75.6018 32.0909 1.8862 0.0000 5.2479 0.0000
# 2 32.0909 160.6691 61.1186 0.0000 -13.4817 0.0000
# 3 1.8862 61.1186 62.2389 0.0000 -4.8994 0.0000
# 4 0.0000 0.0000 0.0000 27.3321 0.0000 -8.0787
# 5 5.2479 -13.4817 -4.8994 0.0000 34.3305 0.0000
# 6 0.0000 0.0000 0.0000 -8.0787 0.0000 11.9955
#
#
#
# Elastic Compliance Matrix: (Units=1/GPa)
#
#
# Indices 1 2 3 4 5 6 
#
# 1 0.015496 -0.004977 0.004124 0.000000 -0.003735 0.000000
# 2 -0.004977 0.011758 -0.011096 0.000000 0.003794 0.000000
# 3 0.004124 -0.011096 0.026747 0.000000 -0.001171 0.000000
# 4 0.000000 0.000000 0.000000 0.045680 0.000000 0.030765
# 5 -0.003735 0.003794 -0.001171 0.000000 0.031023 0.000000
# 6 0.000000 0.000000 0.000000 0.030765 0.000000 0.104084
#
#
# Mechanical properties :
#
#
# Convention : Reuss Voigt Hill
#
# Bulk Modulus (GPa) = 33.22117 54.30012 43.76065
# Shear Modulus (GPa) = 18.60669 28.29255 23.44962
#
# Velocity S-wave (km/s) = 2.99099 3.68821 3.35774
# Velocity P-wave (km/s) = 5.28210 6.65165 6.00604
#
# Compressibility (1/GPa) = 0.03010129
#
# Stress axis : x y z
#
# Youngs Moduli (GPa) = 64.53147 85.05145 37.38785
#
# Poissons Ratio (x) = 0.42333 -0.15419
# Poissons Ratio (y) = 0.32119 0.41487
# Poissons Ratio (z) = -0.26614 0.94377
#
# Static dielectric constant tensor:
#      x y z
#    x 1.786930 0.000000 0.058290 
#    y 0.000000 1.730870 0.000000 
#    z 0.058290 0.000000 1.800000 
# 
# From -- ./inp_files/50158.got.cif
#   From: 2010.05.17/outbox.cif.g08.bks.cpg/sg15_26_cif.got.tgz:50158.got - 2010.06.03 18:47:42.
