data_PCOD9303918
_publ_section_title
;
Structure prediction by ZEFSAII (Michael W. Deem and Ramdas Pophale) SiO2 
 PCOD9303918
Probable space group: C 2/C
;
_chemical_formula_sum "Si O2"
_cell_formula_units_Z 40
_cell_length_a 9.840998
_cell_length_b 13.521183
_cell_length_c 14.830706
_cell_angle_alpha 90.000000
_cell_angle_beta 89.707356
_cell_angle_gamma 90.000000
_cell_volume 1973.376695
_symmetry_space_group_name_H-M "C 2/C"
_symmetry_group_IT_number 15
_symmetry_cell_setting 'monoclinic'
loop_
_space_group_symop_operation_xyz
x,y,z
-x,y,1/2-z
-x,-y,-z
x,-y,1/2+z
1/2+x,1/2+y,z
1/2-x,1/2+y,1/2-z
1/2-x,1/2-y,-z
1/2+x,1/2-y,1/2+z
loop_
_atom_site_type_symbol
_atom_site_label
_atom_site_fract_x
_atom_site_fract_y
_atom_site_fract_z
Si Si1 0.086101 0.877900 0.659560
Si Si2 0.502431 0.094886 0.936645
Si Si3 0.721815 0.592603 0.660624
Si Si4 0.264079 0.316883 0.145483
Si Si5 0.470795 0.307649 0.479232
O O1 0.199974 0.792906 0.648968
O O2 0.000000 0.858814 0.750000
O O3 0.990277 0.867282 0.572311
O O4 0.153578 0.985021 0.663457
O O5 0.618670 0.084192 0.861071
O O6 0.356172 0.114662 0.893000
O O7 0.537781 0.192943 0.993840
O O8 0.500000 0.000000 0.000000
O O9 0.698697 0.647371 0.755003
O O10 0.652338 0.653447 0.580055
O O11 0.392699 0.321039 0.079914
#
# Coordination Sequence:
#
# PCOD9303918 Si02
#       5
#     8   8   8   8   8
#     4  11  23  41  63  90 124 163 201 251 308 362
#     4  11  23  41  63  90 124 164 203 251 307 361
#     4  12  24  40  64  94 122 160 207 253 300 362
#     4  11  23  42  62  90 126 162 201 251 307 364
#     4  11  23  42  64  90 122 161 205 252 302 363
#
# _framework density 20.269824
#
# number of rings (size 3 to 8) (size 9 to 14) (size 15 to 20)
#    0.000    0.800    0.000   10.800    0.000    3.200 
#    0.000    4.000    0.000    0.000    0.000    0.000 
#    0.000    0.000    0.000    0.000    0.000    0.000 
#
# Total GULP energy -112000.171980 kJ/mol
# GULP energy per Si atom -5600.008599 kJ/mol
# Density = 2.022369 g / cm^3
# Si number density = 20.269824 Si / 1000 Ang^3
#
#
#
# Elastic Constant Matrix: (Units=GPa)
#
#
# Indices 1 2 3 4 5 6 
#
# 1 76.8138 -3.7329 23.3031 0.0000 -9.9810 0.0000
# 2 -3.7329 53.6569 20.2131 0.0000 28.1687 0.0000
# 3 23.3031 20.2131 134.0109 0.0000 1.6638 0.0000
# 4 0.0000 0.0000 0.0000 27.8644 0.0000 -1.3283
# 5 -9.9810 28.1687 1.6638 0.0000 48.1768 0.0000
# 6 0.0000 0.0000 0.0000 -1.3283 0.0000 18.7744
#
#
#
# Elastic Compliance Matrix: (Units=1/GPa)
#
#
# Indices 1 2 3 4 5 6 
#
# 1 0.014180 0.000533 -0.002580 0.000000 0.002715 0.000000
# 2 0.000533 0.029070 -0.004270 0.000000 -0.016739 0.000000
# 3 -0.002580 -0.004270 0.008534 0.000000 0.001667 0.000000
# 4 0.000000 0.000000 0.000000 0.036010 0.000000 0.002548
# 5 0.002715 -0.016739 0.001667 0.000000 0.031049 0.000000
# 6 0.000000 0.000000 0.000000 0.002548 0.000000 0.053444
#
#
# Mechanical properties :
#
#
# Convention : Reuss Voigt Hill
#
# Bulk Modulus (GPa) = 25.54211 38.22758 31.88484
# Shear Modulus (GPa) = 25.25633 33.94301 29.59967
#
# Velocity S-wave (km/s) = 3.53371 4.09658 3.82551
# Velocity P-wave (km/s) = 5.41090 6.42466 5.93945
#
# Compressibility (1/GPa) = 0.03915103
#
# Stress axis : x y z
#
# Youngs Moduli (GPa) = 70.52259 34.39954 117.17885
#
# Poissons Ratio (x) = -0.01833 0.30230
# Poissons Ratio (y) = -0.03758 0.50030
# Poissons Ratio (z) = 0.18194 0.14687
#
# Static dielectric constant tensor:
#      x y z
#    x 1.703670 0.000000 0.000240 
#    y 0.000000 1.684790 0.000000 
#    z 0.000240 0.000000 1.695670 
# 
# From -- ./inp_files/133171.got.cif
#   From: 2010.05.17/outbox.cif.g08.bks.cpg/sg15_67_cif.got.tgz:133171.got - 2010.06.03 18:47:42.
