data_PCOD9303172
_publ_section_title
;
Structure prediction by ZEFSAII (Michael W. Deem and Ramdas Pophale) SiO2 
 PCOD9303172
Probable space group: C 2/C
;
_chemical_formula_sum "Si O2"
_cell_formula_units_Z 60
_cell_length_a 16.288659
_cell_length_b 13.803468
_cell_length_c 16.019154
_cell_angle_alpha 90.000000
_cell_angle_beta 127.527941
_cell_angle_gamma 90.000000
_cell_volume 2856.387881
_symmetry_space_group_name_H-M "C 2/C"
_symmetry_group_IT_number 15
_symmetry_cell_setting 'monoclinic'
loop_
_space_group_symop_operation_xyz
x,y,z
-x,y,1/2-z
-x,-y,-z
x,-y,1/2+z
1/2+x,1/2+y,z
1/2-x,1/2+y,1/2-z
1/2-x,1/2-y,-z
1/2+x,1/2-y,1/2+z
loop_
_atom_site_type_symbol
_atom_site_label
_atom_site_fract_x
_atom_site_fract_y
_atom_site_fract_z
Si Si1 0.657587 0.389971 0.162296
Si Si2 0.847259 0.917386 0.749901
Si Si3 0.000000 0.207354 0.250000
Si Si4 0.259584 0.521746 0.530380
Si Si5 0.898385 0.344347 0.645335
Si Si6 0.205294 0.328780 0.409429
Si Si7 0.740842 0.724312 0.184954
Si Si8 0.422270 0.662505 0.545788
O O1 0.655699 0.504325 0.177978
O O2 0.716406 0.354351 0.116870
O O3 0.719293 0.332080 0.273134
O O4 0.538108 0.361489 0.091901
O O5 0.772883 0.832003 0.736269
O O6 0.956868 0.866847 0.794581
O O7 0.806118 0.975647 0.643658
O O8 0.903696 0.279834 0.179997
O O9 0.169128 0.602424 0.467944
O O10 0.201436 0.431713 0.451908
O O11 0.355113 0.571381 0.538667
O O12 0.823168 0.327353 0.676632
O O13 0.926372 0.240884 0.622737
O O14 0.000000 0.391327 0.750000
O O15 0.250000 0.250000 0.500000
O O16 0.635359 0.711531 0.068360
#
# Coordination Sequence:
#
# PCOD9303172 Si02
#       8
#     8   8   4   8   8   8   8   8
#     4  12  24  42  74 104 135 185 245 298 349 436
#     4  12  25  45  72 101 140 189 248 292 351 437
#     4  12  26  48  72 100 150 194 228 300 366 426
#     4  11  24  45  68 103 143 192 237 296 362 437
#     4  11  22  42  69 103 144 182 233 304 374 423
#     4  12  27  48  70 101 148 188 235 292 371 437
#     4  11  23  43  63 103 142 176 235 304 358 423
#     4  11  24  41  74 104 138 182 239 306 363 417
#
# _framework density 21.005549999999999
#
# number of rings (size 3 to 8) (size 9 to 14) (size 15 to 20)
#    0.000    0.533    4.000    5.600    2.800    1.067 
#    0.000    0.667    0.000    0.000    0.000    0.000 
#    0.000    0.000    0.000    0.000    0.000    0.000 
#
# Total GULP energy -167397.774106 kJ/mol
# GULP energy per Si atom -5579.925804 kJ/mol
# Density = 2.095774 g / cm^3
# Si number density = 21.005550 Si / 1000 Ang^3
#
#
#
# Elastic Constant Matrix: (Units=GPa)
#
#
# Indices 1 2 3 4 5 6 
#
# 1 117.2048 53.3721 39.2534 0.0000 9.5372 0.0000
# 2 53.3721 119.3727 21.0627 0.0000 7.5415 0.0000
# 3 39.2534 21.0627 64.2472 0.0000 6.1599 0.0000
# 4 0.0000 0.0000 0.0000 34.2873 0.0000 -4.7679
# 5 9.5372 7.5415 6.1599 0.0000 30.9153 0.0000
# 6 0.0000 0.0000 0.0000 -4.7679 0.0000 42.6418
#
#
#
# Elastic Compliance Matrix: (Units=1/GPa)
#
#
# Indices 1 2 3 4 5 6 
#
# 1 0.012794 -0.004529 -0.006178 0.000000 -0.001611 0.000000
# 2 -0.004529 0.010575 -0.000598 0.000000 -0.001063 0.000000
# 3 -0.006178 -0.000598 0.019715 0.000000 -0.001877 0.000000
# 4 0.000000 0.000000 0.000000 0.029626 0.000000 0.003313
# 5 -0.001611 -0.001063 -0.001877 0.000000 0.033477 0.000000
# 6 0.000000 0.000000 0.000000 0.003313 0.000000 0.023822
#
#
# Mechanical properties :
#
#
# Convention : Reuss Voigt Hill
#
# Bulk Modulus (GPa) = 48.83897 58.68902 53.76399
# Shear Modulus (GPa) = 31.35918 34.04463 32.70191
#
# Velocity S-wave (km/s) = 3.86800 4.03021 3.94994
# Velocity P-wave (km/s) = 6.57644 7.04679 6.81567
#
# Compressibility (1/GPa) = 0.02047545
#
# Stress axis : x y z
#
# Youngs Moduli (GPa) = 78.15877 94.56652 50.72183
#
# Poissons Ratio (x) = 0.42825 0.31336
# Poissons Ratio (y) = 0.35395 0.03033
# Poissons Ratio (z) = 0.48286 0.05655
#
# Static dielectric constant tensor:
#      x y z
#    x 1.715380 0.000000 -0.033740 
#    y 0.000000 1.737580 0.000000 
#    z -0.033740 0.000000 1.818070 
# 
# From -- ./inp_files/154298.got.cif
#   From: 2010.05.17/outbox.cif.g08.bks.cpg/sg15_78_cif.got.tgz:154298.got - 2010.06.03 18:47:42.
