data_PCOD9303755
_publ_section_title
;
Structure prediction by ZEFSAII (Michael W. Deem and Ramdas Pophale) SiO2 
 PCOD9303755
Probable space group: C 2/C
;
_chemical_formula_sum "Si O2"
_cell_formula_units_Z 56
_cell_length_a 9.432838
_cell_length_b 31.062306
_cell_length_c 14.738319
_cell_angle_alpha 90.000000
_cell_angle_beta 48.456680
_cell_angle_gamma 90.000000
_cell_volume 3232.134572
_symmetry_space_group_name_H-M "C 2/C"
_symmetry_group_IT_number 15
_symmetry_cell_setting 'monoclinic'
loop_
_space_group_symop_operation_xyz
x,y,z
-x,y,1/2-z
-x,-y,-z
x,-y,1/2+z
1/2+x,1/2+y,z
1/2-x,1/2+y,1/2-z
1/2-x,1/2-y,-z
1/2+x,1/2-y,1/2+z
loop_
_atom_site_type_symbol
_atom_site_label
_atom_site_fract_x
_atom_site_fract_y
_atom_site_fract_z
Si Si1 0.682897 0.382551 0.608165
Si Si2 0.813616 0.298372 0.457972
Si Si3 0.686473 0.024562 0.112900
Si Si4 0.829753 0.664366 0.768960
Si Si5 0.072214 0.057267 0.998243
Si Si6 0.158320 0.915279 0.258904
Si Si7 0.519606 0.051550 0.003436
O O1 0.500000 0.381672 0.750000
O O2 0.759063 0.334415 0.555322
O O3 0.624444 0.401896 0.535281
O O4 0.838394 0.416785 0.579422
O O5 0.750000 0.250000 0.500000
O O6 0.730045 0.312468 0.395020
O O7 0.040056 0.303291 0.344312
O O8 0.500000 0.014401 0.250000
O O9 0.626182 0.054842 0.055073
O O10 0.790011 0.981725 0.031776
O O11 0.852104 0.045402 0.103489
O O12 0.700044 0.634241 0.765241
O O13 0.000000 0.637680 0.750000
O O14 0.104526 0.063421 0.877244
O O15 0.000000 0.921092 0.250000
O O16 0.349658 0.933793 0.135249
O O17 0.500000 0.000000 0.000000
#
# Coordination Sequence:
#
# PCOD9303755 Si02
#       7
#     8   8   8   8   8   8   8
#     4  12  24  37  60  89 124 153 199 252 312 364
#     4   9  19  36  62  93 118 147 193 248 315 365
#     4  11  23  39  56  77 117 160 198 252 302 350
#     4   8  18  36  63  87 117 149 191 245 303 366
#     4  11  23  40  55  85 113 157 207 246 299 358
#     4  12  22  38  62  85 117 162 209 250 294 362
#     4  12  23  38  56  85 117 162 204 252 297 356
#
# _framework density 17.326011000000001
#
# number of rings (size 3 to 8) (size 9 to 14) (size 15 to 20)
#    0.857    0.286    5.714    1.714    2.000    1.714 
#    0.000    0.000    0.000    0.857    0.000    0.000 
#    0.000    0.000    0.000    0.000    0.000    0.000 
#
# Total GULP energy -155963.486199 kJ/mol
# GULP energy per Si atom -5570.124507 kJ/mol
# Density = 1.728658 g / cm^3
# Si number density = 17.326011 Si / 1000 Ang^3
#
#
#
# Elastic Constant Matrix: (Units=GPa)
#
#
# Indices 1 2 3 4 5 6 
#
# 1 68.7275 31.2506 37.1068 0.0000 -0.6493 0.0000
# 2 31.2506 114.8698 41.6440 0.0000 -4.5753 0.0000
# 3 37.1068 41.6440 101.3362 0.0000 -8.4766 0.0000
# 4 0.0000 0.0000 0.0000 21.7888 0.0000 1.7176
# 5 -0.6493 -4.5753 -8.4766 0.0000 28.0150 0.0000
# 6 0.0000 0.0000 0.0000 1.7176 0.0000 20.4727
#
#
#
# Elastic Compliance Matrix: (Units=1/GPa)
#
#
# Indices 1 2 3 4 5 6 
#
# 1 0.019133 -0.003152 -0.005865 0.000000 -0.001846 0.000000
# 2 -0.003152 0.010754 -0.003205 0.000000 0.000713 0.000000
# 3 -0.005865 -0.003205 0.013622 0.000000 0.003462 0.000000
# 4 0.000000 0.000000 0.000000 0.046201 0.000000 -0.003876
# 5 -0.001846 0.000713 0.003462 0.000000 0.036816 0.000000
# 6 0.000000 0.000000 0.000000 -0.003876 0.000000 0.049171
#
#
# Mechanical properties :
#
#
# Convention : Reuss Voigt Hill
#
# Bulk Modulus (GPa) = 52.45524 56.10405 54.27965
# Shear Modulus (GPa) = 24.21352 25.71743 24.96548
#
# Velocity S-wave (km/s) = 3.74240 3.85687 3.80007
# Velocity P-wave (km/s) = 7.00109 7.23088 7.11691
#
# Compressibility (1/GPa) = 0.01906387
#
# Stress axis : x y z
#
# Youngs Moduli (GPa) = 52.26648 92.99287 73.40805
#
# Poissons Ratio (x) = 0.29315 0.43053
# Poissons Ratio (y) = 0.16477 0.23528
# Poissons Ratio (z) = 0.30654 0.29805
#
# Static dielectric constant tensor:
#      x y z
#    x 1.625110 0.000000 0.002180 
#    y 0.000000 1.603990 0.000000 
#    z 0.002180 0.000000 1.617690 
# 
# From -- ./inp_files/139450.got.cif
#   From: 2010.05.17/outbox.cif.g08.bks.cpg/sg15_70_cif.got.tgz:139450.got - 2010.06.03 18:47:42.
