data_PCOD9303215
_publ_section_title
;
Structure prediction by ZEFSAII (Michael W. Deem and Ramdas Pophale) SiO2 
 PCOD9303215
Probable space group: C 2/C
;
_chemical_formula_sum "Si O2"
_cell_formula_units_Z 64
_cell_length_a 17.405654
_cell_length_b 14.593315
_cell_length_c 14.855258
_cell_angle_alpha 90.000000
_cell_angle_beta 125.052755
_cell_angle_gamma 90.000000
_cell_volume 3088.934865
_symmetry_space_group_name_H-M "C 2/C"
_symmetry_group_IT_number 15
_symmetry_cell_setting 'monoclinic'
loop_
_space_group_symop_operation_xyz
x,y,z
-x,y,1/2-z
-x,-y,-z
x,-y,1/2+z
1/2+x,1/2+y,z
1/2-x,1/2+y,1/2-z
1/2-x,1/2-y,-z
1/2+x,1/2-y,1/2+z
loop_
_atom_site_type_symbol
_atom_site_label
_atom_site_fract_x
_atom_site_fract_y
_atom_site_fract_z
Si Si1 0.007238 0.542856 0.862131
Si Si2 0.239261 0.812248 0.804108
Si Si3 0.165495 0.400459 0.996566
Si Si4 0.800125 0.489030 0.295156
Si Si5 0.094307 0.885921 0.854872
Si Si6 0.307874 0.472221 0.947447
Si Si7 0.615475 0.278976 0.552297
Si Si8 0.075429 0.732088 0.984706
O O1 0.062816 0.628310 0.941829
O O2 0.000000 0.553139 0.750000
O O3 0.903645 0.539241 0.833526
O O4 0.065498 0.451860 0.924787
O O5 0.166535 0.850917 0.828412
O O6 0.179527 0.765316 0.685020
O O7 0.292826 0.901311 0.801573
O O8 0.321130 0.754107 0.905135
O O9 0.217124 0.441069 0.120444
O O10 0.151562 0.292708 0.002351
O O11 0.220584 0.429163 0.944087
O O12 0.727659 0.474200 0.164937
O O13 0.063584 0.798367 0.892115
O O14 0.000000 0.927094 0.750000
O O15 0.141945 0.958234 0.952445
O O16 0.371473 0.385165 0.963904
O O17 0.508587 0.255019 0.503939
#
# Coordination Sequence:
#
# PCOD9303215 Si02
#       8
#     8   8   8   8   8   8   8   8
#     4  12  23  39  70 108 140 171 233 291 351 406
#     4  11  24  45  67 102 134 177 230 280 346 411
#     4  12  22  44  71  98 142 184 222 290 344 401
#     4  11  22  42  71  99 136 180 225 284 346 403
#     4  12  25  46  69  96 140 180 230 293 336 406
#     4  11  26  46  67 101 135 191 235 273 340 416
#     4  11  26  44  67 100 143 178 232 285 337 413
#     4  12  24  41  70 103 137 180 224 293 351 400
#
# _framework density 20.719116
#
# number of rings (size 3 to 8) (size 9 to 14) (size 15 to 20)
#    0.000    0.500    6.250    2.250    1.750    0.500 
#    2.250    0.625    0.000    0.000    0.000    0.000 
#    0.000    0.000    0.000    0.000    0.000    0.000 
#
# Total GULP energy -179027.187286 kJ/mol
# GULP energy per Si atom -5594.599603 kJ/mol
# Density = 2.067196 g / cm^3
# Si number density = 20.719116 Si / 1000 Ang^3
#
#
#
# Elastic Constant Matrix: (Units=GPa)
#
#
# Indices 1 2 3 4 5 6 
#
# 1 53.9164 2.0875 16.0926 0.0000 -2.6043 0.0000
# 2 2.0875 50.7740 8.7039 0.0000 10.2355 0.0000
# 3 16.0926 8.7039 62.4971 0.0000 10.6795 0.0000
# 4 0.0000 0.0000 0.0000 36.5108 0.0000 0.7610
# 5 -2.6043 10.2355 10.6795 0.0000 27.9678 0.0000
# 6 0.0000 0.0000 0.0000 0.7610 0.0000 30.4750
#
#
#
# Elastic Compliance Matrix: (Units=1/GPa)
#
#
# Indices 1 2 3 4 5 6 
#
# 1 0.020568 -0.000722 -0.005957 0.000000 0.004454 0.000000
# 2 -0.000722 0.021469 -0.001551 0.000000 -0.007332 0.000000
# 3 -0.005957 -0.001551 0.018987 0.000000 -0.007237 0.000000
# 4 0.000000 0.000000 0.000000 0.027403 0.000000 -0.000684
# 5 0.004454 -0.007332 -0.007237 0.000000 0.041617 0.000000
# 6 0.000000 0.000000 0.000000 -0.000684 0.000000 0.032831
#
#
# Mechanical properties :
#
#
# Convention : Reuss Voigt Hill
#
# Bulk Modulus (GPa) = 22.43965 24.55060 23.49513
# Shear Modulus (GPa) = 25.74791 28.34430 27.04610
#
# Velocity S-wave (km/s) = 3.52904 3.70270 3.61691
# Velocity P-wave (km/s) = 5.24017 5.49135 5.36723
#
# Compressibility (1/GPa) = 0.04456397
#
# Stress axis : x y z
#
# Youngs Moduli (GPa) = 48.61862 46.57936 52.66690
#
# Poissons Ratio (x) = 0.03365 0.31372
# Poissons Ratio (y) = 0.03512 0.08169
# Poissons Ratio (z) = 0.28961 0.07224
#
# Static dielectric constant tensor:
#      x y z
#    x 1.723260 0.000000 -0.009830 
#    y 0.000000 1.724000 0.000000 
#    z -0.009830 0.000000 1.760640 
# 
# From -- ./inp_files/162562.got.cif
#   From: 2010.05.17/outbox.cif.g08.bks.cpg/sg15_82_cif.got.tgz:162562.got - 2010.06.03 18:47:42.
