data_PCOD9303751
_publ_section_title
;
Structure prediction by ZEFSAII (Michael W. Deem and Ramdas Pophale) SiO2 
 PCOD9303751
Probable space group: C 2/C
;
_chemical_formula_sum "Si O2"
_cell_formula_units_Z 52
_cell_length_a 19.254421
_cell_length_b 5.250648
_cell_length_c 22.491125
_cell_angle_alpha 90.000000
_cell_angle_beta 94.615745
_cell_angle_gamma 90.000000
_cell_volume 2266.437541
_symmetry_space_group_name_H-M "C 2/C"
_symmetry_group_IT_number 15
_symmetry_cell_setting 'monoclinic'
loop_
_space_group_symop_operation_xyz
x,y,z
-x,y,1/2-z
-x,-y,-z
x,-y,1/2+z
1/2+x,1/2+y,z
1/2-x,1/2+y,1/2-z
1/2-x,1/2-y,-z
1/2+x,1/2-y,1/2+z
loop_
_atom_site_type_symbol
_atom_site_label
_atom_site_fract_x
_atom_site_fract_y
_atom_site_fract_z
Si Si1 0.876309 0.489891 0.345322
Si Si2 0.657180 0.514304 0.583239
Si Si3 0.187604 0.389364 0.915535
Si Si4 0.500000 0.377429 0.250000
Si Si5 0.988200 0.233493 0.149832
Si Si6 0.108890 0.888546 0.954236
Si Si7 0.873328 0.487476 0.710600
O O1 0.846537 0.740542 0.374409
O O2 0.849072 0.461703 0.275808
O O3 0.961358 0.476905 0.351052
O O4 0.859514 0.241578 0.382599
O O5 0.734029 0.460753 0.562410
O O6 0.606970 0.567072 0.524146
O O7 0.140705 0.609604 0.942343
O O8 0.181489 0.407925 0.843172
O O9 0.157536 0.114795 0.931572
O O10 0.526908 0.543871 0.196677
O O11 0.565951 0.220012 0.276706
O O12 0.963858 0.115853 0.086378
O O13 0.917378 0.289114 0.181793
#
# Coordination Sequence:
#
# PCOD9303751 Si02
#       7
#     8   8   8   4   8   8   8
#     4  12  25  41  64  96 141 171 204 274 335 407
#     4  12  27  43  63  94 137 180 209 263 343 393
#     4  11  24  44  70  94 122 172 231 276 314 391
#     4  12  16  40  64  98 128 152 224 272 336 368
#     4  11  23  38  69  98 125 171 225 273 329 389
#     4  11  24  44  70  94 123 173 229 277 313 391
#     4  11  23  38  69  96 124 168 222 272 326 383
#
# _framework density 22.943497000000001
#
# number of rings (size 3 to 8) (size 9 to 14) (size 15 to 20)
#    0.000    0.615    4.615    3.692    0.000    2.462 
#    0.000    0.000    0.000    0.000    0.000    0.000 
#    0.000    0.000    0.000    0.000    0.000    0.000 
#
# Total GULP energy -145353.486202 kJ/mol
# GULP energy per Si atom -5590.518700 kJ/mol
# Density = 2.289128 g / cm^3
# Si number density = 22.943497 Si / 1000 Ang^3
#
#
#
# Elastic Constant Matrix: (Units=GPa)
#
#
# Indices 1 2 3 4 5 6 
#
# 1 32.0371 -6.5447 -3.6637 0.0000 8.3692 0.0000
# 2 -6.5447 74.9353 3.3951 0.0000 0.0963 0.0000
# 3 -3.6637 3.3951 109.8409 0.0000 15.0788 0.0000
# 4 0.0000 0.0000 0.0000 25.7305 0.0000 -7.5398
# 5 8.3692 0.0963 15.0788 0.0000 30.5083 0.0000
# 6 0.0000 0.0000 0.0000 -7.5398 0.0000 29.8625
#
#
#
# Elastic Compliance Matrix: (Units=1/GPa)
#
#
# Indices 1 2 3 4 5 6 
#
# 1 0.034948 0.002950 0.002566 0.000000 -0.010865 0.000000
# 2 0.002950 0.013613 -0.000220 0.000000 -0.000743 0.000000
# 3 0.002566 -0.000220 0.009969 0.000000 -0.005631 0.000000
# 4 0.000000 0.000000 0.000000 0.041970 0.000000 0.010597
# 5 -0.010865 -0.000743 -0.005631 0.000000 0.038544 0.000000
# 6 0.000000 0.000000 0.000000 0.010597 0.000000 0.036162
#
#
# Mechanical properties :
#
#
# Convention : Reuss Voigt Hill
#
# Bulk Modulus (GPa) = 14.46714 22.57631 18.52173
# Shear Modulus (GPa) = 26.64452 32.12870 29.38661
#
# Velocity S-wave (km/s) = 3.41150 3.74617 3.58274
# Velocity P-wave (km/s) = 4.67301 5.34538 5.02046
#
# Compressibility (1/GPa) = 0.06912215
#
# Stress axis : x y z
#
# Youngs Moduli (GPa) = 28.61391 73.45691 100.30656
#
# Poissons Ratio (x) = -0.21670 -0.25738
# Poissons Ratio (y) = -0.08441 0.02210
# Poissons Ratio (z) = -0.07342 0.01619
#
# Static dielectric constant tensor:
#      x y z
#    x 1.929180 0.000000 -0.039150 
#    y 0.000000 1.865620 0.000000 
#    z -0.039150 0.000000 1.881480 
# 
# From -- ./inp_files/251091.got.cif
#   From: 2010.05.17/outbox.cif.g08.bks.cpg/sg15_126_cif.got.tgz:251091.got - 2010.06.03 18:47:42.
