data_PCOD9303841
_publ_section_title
;
Structure prediction by ZEFSAII (Michael W. Deem and Ramdas Pophale) SiO2 
 PCOD9303841
Probable space group: C 2/C
;
_chemical_formula_sum "Si O2"
_cell_formula_units_Z 48
_cell_length_a 14.745978
_cell_length_b 12.177639
_cell_length_c 10.767413
_cell_angle_alpha 90.000000
_cell_angle_beta 96.447455
_cell_angle_gamma 90.000000
_cell_volume 1921.288234
_symmetry_space_group_name_H-M "C 2/C"
_symmetry_group_IT_number 15
_symmetry_cell_setting 'monoclinic'
loop_
_space_group_symop_operation_xyz
x,y,z
-x,y,1/2-z
-x,-y,-z
x,-y,1/2+z
1/2+x,1/2+y,z
1/2-x,1/2+y,1/2-z
1/2-x,1/2-y,-z
1/2+x,1/2-y,1/2+z
loop_
_atom_site_type_symbol
_atom_site_label
_atom_site_fract_x
_atom_site_fract_y
_atom_site_fract_z
Si Si1 0.112059 0.903276 0.777768
Si Si2 0.898955 0.048657 0.492705
Si Si3 0.585094 0.024491 0.672515
Si Si4 0.600043 0.205874 0.219822
Si Si5 0.225962 0.315293 0.253732
Si Si6 0.362983 0.196870 0.006337
O O1 0.141130 0.957748 0.651687
O O2 0.162455 0.785638 0.791200
O O3 0.000000 0.890135 0.750000
O O4 0.140263 0.980885 0.897005
O O5 0.902295 0.179885 0.514011
O O6 0.000000 0.000000 0.500000
O O7 0.500000 0.024344 0.750000
O O8 0.671018 0.073524 0.762160
O O9 0.573812 0.111112 0.559536
O O10 0.598707 0.899536 0.631956
O O11 0.500000 0.243087 0.250000
O O12 0.671347 0.296238 0.186319
O O13 0.642325 0.158170 0.354394
O O14 0.222998 0.306775 0.100769
#
# Coordination Sequence:
#
# PCOD9303841 Si02
#       6
#     8   8   8   8   8   8
#     4   9  17  33  59  95 132 171 214 271 338 403
#     4   9  18  31  60  96 135 166 213 270 336 403
#     4   9  21  39  69  90 123 177 219 267 331 407
#     4  11  23  40  64  96 126 172 228 271 322 407
#     4   9  20  39  64  91 122 174 218 271 334 402
#     4   9  21  40  66  88 130 178 219 264 347 401
#
# _framework density 24.983239000000001
#
# number of rings (size 3 to 8) (size 9 to 14) (size 15 to 20)
#    1.000    1.667    0.000    1.000    2.333    6.000 
#    3.000    1.667    3.667    4.000    0.000    0.000 
#    0.000    0.000    0.000    0.000    0.000    0.000 
#
# Total GULP energy -133900.376665 kJ/mol
# GULP energy per Si atom -5579.182361 kJ/mol
# Density = 2.492638 g / cm^3
# Si number density = 24.983239 Si / 1000 Ang^3
#
#
#
# Elastic Constant Matrix: (Units=GPa)
#
#
# Indices 1 2 3 4 5 6 
#
# 1 130.6413 57.0581 -5.4764 0.0000 30.1759 0.0000
# 2 57.0581 112.5876 17.9752 0.0000 8.7456 0.0000
# 3 -5.4764 17.9752 76.7164 0.0000 -13.0743 0.0000
# 4 0.0000 0.0000 0.0000 27.3093 0.0000 -9.7682
# 5 30.1759 8.7456 -13.0743 0.0000 20.1917 0.0000
# 6 0.0000 0.0000 0.0000 -9.7682 0.0000 26.0867
#
#
#
# Elastic Compliance Matrix: (Units=1/GPa)
#
#
# Indices 1 2 3 4 5 6 
#
# 1 0.014828 -0.005765 -0.001059 0.000000 -0.020349 0.000000
# 2 -0.005765 0.012181 -0.003031 0.000000 0.001378 0.000000
# 3 -0.001059 -0.003031 0.015920 0.000000 0.013203 0.000000
# 4 0.000000 0.000000 0.000000 0.042280 0.000000 0.015832
# 5 -0.020349 0.001378 0.013203 0.000000 0.087889 0.000000
# 6 0.000000 0.000000 0.000000 0.015832 0.000000 0.044262
#
#
# Mechanical properties :
#
#
# Convention : Reuss Voigt Hill
#
# Bulk Modulus (GPa) = 43.06713 51.00657 47.03685
# Shear Modulus (GPa) = 20.42412 31.41011 25.91711
#
# Velocity S-wave (km/s) = 2.86232 3.54961 3.22433
# Velocity P-wave (km/s) = 5.31034 6.10412 5.72101
#
# Compressibility (1/GPa) = 0.02321956
#
# Stress axis : x y z
#
# Youngs Moduli (GPa) = 67.43811 82.09809 62.81541
#
# Poissons Ratio (x) = 0.47331 0.06650
# Poissons Ratio (y) = 0.38879 0.19038
# Poissons Ratio (z) = 0.07139 0.24882
#
# Static dielectric constant tensor:
#      x y z
#    x 2.103810 0.000000 0.046060 
#    y 0.000000 1.978630 0.000000 
#    z 0.046060 0.000000 2.029500 
# 
# From -- ./inp_files/96456.got.cif
#   From: 2010.05.17/outbox.cif.g08.bks.cpg/sg15_49_cif.got.tgz:96456.got - 2010.06.03 18:47:42.
