data_PCOD9303250
_publ_section_title
;
Structure prediction by ZEFSAII (Michael W. Deem and Ramdas Pophale) SiO2 
 PCOD9303250
Probable space group: C 2/C
;
_chemical_formula_sum "Si O2"
_cell_formula_units_Z 44
_cell_length_a 17.702687
_cell_length_b 7.445028
_cell_length_c 13.693913
_cell_angle_alpha 90.000000
_cell_angle_beta 91.250181
_cell_angle_gamma 90.000000
_cell_volume 1804.387035
_symmetry_space_group_name_H-M "C 2/C"
_symmetry_group_IT_number 15
_symmetry_cell_setting 'monoclinic'
loop_
_space_group_symop_operation_xyz
x,y,z
-x,y,1/2-z
-x,-y,-z
x,-y,1/2+z
1/2+x,1/2+y,z
1/2-x,1/2+y,1/2-z
1/2-x,1/2-y,-z
1/2+x,1/2-y,1/2+z
loop_
_atom_site_type_symbol
_atom_site_label
_atom_site_fract_x
_atom_site_fract_y
_atom_site_fract_z
Si Si1 0.500000 0.178993 0.750000
Si Si2 0.850086 0.369516 0.158681
Si Si3 0.680362 0.673065 0.695496
Si Si4 0.640838 0.451881 0.394319
Si Si5 0.689200 0.986232 0.054567
Si Si6 0.089649 0.858938 0.587543
O O1 0.574588 0.070175 0.783366
O O2 0.522820 0.298569 0.656845
O O3 0.767852 0.391919 0.205604
O O4 0.861410 0.153561 0.147527
O O5 0.819508 0.650124 0.370299
O O6 0.647564 0.682233 0.803525
O O7 0.842280 0.548358 0.550911
O O8 0.631384 0.526232 0.637476
O O9 0.721899 0.445559 0.451158
O O10 0.578255 0.404728 0.472912
O O11 0.644701 0.813011 0.088193
#
# Coordination Sequence:
#
# PCOD9303250 Si02
#       6
#     4   8   8   8   8   8
#     4  12  28  46  70 108 158 194 232 314 372 442
#     4  11  23  45  71 105 153 187 245 303 361 431
#     4  11  23  46  74 113 138 191 253 301 350 441
#     4  11  22  42  75 107 140 189 249 304 349 436
#     4  11  24  43  76 109 146 185 250 309 350 428
#     4  12  25  46  71 106 145 196 237 297 378 423
#
# _framework density 24.385013000000001
#
# number of rings (size 3 to 8) (size 9 to 14) (size 15 to 20)
#    0.000    0.727    5.455    2.727    2.545    2.909 
#    0.000    0.909    0.000    0.000    0.000    0.000 
#    0.000    0.000    0.000    0.000    0.000    0.000 
#
# Total GULP energy -123300.552739 kJ/mol
# GULP energy per Si atom -5604.570579 kJ/mol
# Density = 2.432951 g / cm^3
# Si number density = 24.385013 Si / 1000 Ang^3
#
#
#
# Elastic Constant Matrix: (Units=GPa)
#
#
# Indices 1 2 3 4 5 6 
#
# 1 85.5884 14.3537 35.8419 0.0000 -10.8825 0.0000
# 2 14.3537 78.4910 18.1859 0.0000 -2.1493 0.0000
# 3 35.8419 18.1859 188.8244 0.0000 -16.0206 0.0000
# 4 0.0000 0.0000 0.0000 2.8642 0.0000 3.6049
# 5 -10.8825 -2.1493 -16.0206 0.0000 48.2042 0.0000
# 6 0.0000 0.0000 0.0000 3.6049 0.0000 23.2632
#
#
#
# Elastic Compliance Matrix: (Units=1/GPa)
#
#
# Indices 1 2 3 4 5 6 
#
# 1 0.013166 -0.001853 -0.002136 0.000000 0.002180 0.000000
# 2 -0.001853 0.013293 -0.000940 0.000000 -0.000138 0.000000
# 3 -0.002136 -0.000940 0.005914 0.000000 0.001441 0.000000
# 4 0.000000 0.000000 0.000000 0.433732 0.000000 -0.067211
# 5 0.002180 -0.000138 0.001441 0.000000 0.021710 0.000000
# 6 0.000000 0.000000 0.000000 -0.067211 0.000000 0.053401
#
#
# Mechanical properties :
#
#
# Convention : Reuss Voigt Hill
#
# Bulk Modulus (GPa) = 44.41418 54.40742 49.41080
# Shear Modulus (GPa) = 8.95127 33.83447 21.39287
#
# Velocity S-wave (km/s) = 1.91801 3.72897 2.96513
# Velocity P-wave (km/s) = 4.81231 6.39536 5.65946
#
# Compressibility (1/GPa) = 0.02251533
#
# Stress axis : x y z
#
# Youngs Moduli (GPa) = 75.95219 75.22603 169.08531
#
# Poissons Ratio (x) = 0.13941 0.36112
# Poissons Ratio (y) = 0.14075 0.15898
# Poissons Ratio (z) = 0.16221 0.07073
#
# Static dielectric constant tensor:
#      x y z
#    x 1.922580 0.000000 -0.000360 
#    y 0.000000 1.936150 0.000000 
#    z -0.000360 0.000000 1.993880 
# 
# From -- ./inp_files/159261.got.cif
#   From: 2010.05.17/outbox.cif.g08.bks.cpg/sg15_80_cif.got.tgz:159261.got - 2010.06.03 18:47:42.
