data_PCOD9303585
_publ_section_title
;
Structure prediction by ZEFSAII (Michael W. Deem and Ramdas Pophale) SiO2 
 PCOD9303585
Probable space group: C 2/C
;
_chemical_formula_sum "Si O2"
_cell_formula_units_Z 56
_cell_length_a 8.635325
_cell_length_b 18.106398
_cell_length_c 27.416972
_cell_angle_alpha 90.000000
_cell_angle_beta 147.525681
_cell_angle_gamma 90.000000
_cell_volume 2301.659407
_symmetry_space_group_name_H-M "C 2/C"
_symmetry_group_IT_number 15
_symmetry_cell_setting 'monoclinic'
loop_
_space_group_symop_operation_xyz
x,y,z
-x,y,1/2-z
-x,-y,-z
x,-y,1/2+z
1/2+x,1/2+y,z
1/2-x,1/2+y,1/2-z
1/2-x,1/2-y,-z
1/2+x,1/2-y,1/2+z
loop_
_atom_site_type_symbol
_atom_site_label
_atom_site_fract_x
_atom_site_fract_y
_atom_site_fract_z
Si Si1 0.000000 0.037523 0.750000
Si Si2 0.436577 0.184880 0.026597
Si Si3 0.489713 0.080077 0.371181
Si Si4 0.129245 0.810139 0.711390
Si Si5 0.882555 0.081150 0.380093
Si Si6 0.193702 0.647843 0.720531
Si Si7 0.923678 0.671546 0.542732
Si Si8 0.500000 0.951873 0.250000
O O1 0.956460 0.091720 0.783835
O O2 0.709862 0.990037 0.671001
O O3 0.381391 0.112963 0.045070
O O4 0.783431 0.198182 0.122478
O O5 0.388393 0.177985 0.956241
O O6 0.250000 0.250000 0.000000
O O7 0.263035 0.137322 0.287326
O O8 0.722809 0.074262 0.389770
O O9 0.194299 0.850423 0.676889
O O10 0.263311 0.730015 0.755297
O O11 0.212032 0.101429 0.478045
O O12 0.772113 0.008193 0.322644
O O13 0.063499 0.661248 0.632424
O O14 0.983245 0.603187 0.699980
O O15 0.750000 0.750000 0.500000
#
# Coordination Sequence:
#
# PCOD9303585 Si02
#       8
#     4   8   8   8   8   8   8   4
#     4  12  26  46  68 104 156 184 238 308 380 434
#     4  11  24  40  73 109 146 188 251 310 370 438
#     4  12  23  45  74 104 140 203 246 301 367 461
#     4  11  23  43  76 105 140 192 262 303 355 441
#     4  11  22  45  79 102 140 202 247 297 380 456
#     4  12  28  45  70 111 150 189 245 324 363 441
#     4  11  24  47  72 109 150 190 254 313 372 445
#     4  12  26  46  72 106 146 194 252 292 388 446
#
# _framework density 24.330273999999999
#
# number of rings (size 3 to 8) (size 9 to 14) (size 15 to 20)
#    0.000    0.571    7.143    0.857    6.000    0.571 
#    0.000    0.714    0.000    0.000    0.000    0.000 
#    0.000    0.000    0.000    0.000    0.000    0.000 
#
# Total GULP energy -156564.441851 kJ/mol
# GULP energy per Si atom -5591.587209 kJ/mol
# Density = 2.427490 g / cm^3
# Si number density = 24.330274 Si / 1000 Ang^3
#
#
#
# Elastic Constant Matrix: (Units=GPa)
#
#
# Indices 1 2 3 4 5 6 
#
# 1 149.5722 53.8848 34.7994 0.0004 -12.1365 -0.0001
# 2 53.8848 152.9107 23.2541 0.0006 -7.8730 -0.0001
# 3 34.7994 23.2541 73.8634 0.0024 -12.2443 0.0008
# 4 0.0004 0.0006 0.0024 31.0053 0.0001 1.9639
# 5 -12.1365 -7.8730 -12.2443 0.0001 28.5266 0.0003
# 6 -0.0001 -0.0001 0.0008 1.9639 0.0003 42.8783
#
#
#
# Elastic Compliance Matrix: (Units=1/GPa)
#
#
# Indices 1 2 3 4 5 6 
#
# 1 0.008368 -0.002422 -0.002907 0.000000 0.001644 0.000000
# 2 -0.002422 0.007599 -0.001157 0.000000 0.000570 0.000000
# 3 -0.002907 -0.001157 0.016165 -0.000001 0.005382 0.000000
# 4 0.000000 0.000000 -0.000001 0.032346 -0.000001 -0.001482
# 5 0.001644 0.000570 0.005382 -0.000001 0.038222 0.000000
# 6 0.000000 0.000000 0.000000 -0.001482 0.000000 0.023390
#
#
# Mechanical properties :
#
#
# Convention : Reuss Voigt Hill
#
# Bulk Modulus (GPa) = 52.19475 66.69144 59.44310
# Shear Modulus (GPa) = 34.37660 38.10924 36.24292
#
# Velocity S-wave (km/s) = 3.76295 3.96198 3.86375
# Velocity P-wave (km/s) = 6.35444 6.95702 6.66255
#
# Compressibility (1/GPa) = 0.01915902
#
# Stress axis : x y z
#
# Youngs Moduli (GPa) = 119.50081 131.60421 61.86355
#
# Poissons Ratio (x) = 0.31876 0.17987
# Poissons Ratio (y) = 0.28944 0.07155
# Poissons Ratio (z) = 0.34745 0.15221
#
# Static dielectric constant tensor:
#      x y z
#    x 1.994470 0.000000 0.040520 
#    y 0.000000 1.989270 0.000000 
#    z 0.040520 0.000000 1.999560 
# 
# From -- ./inp_files/308678.got.cif
#   From: 2010.05.17/outbox.cif.g08.bks.cpg/sg15_155_cif.got.tgz:308678.got - 2010.06.03 18:47:42.
