data_PCOD9303143
_publ_section_title
;
Structure prediction by ZEFSAII (Michael W. Deem and Ramdas Pophale) SiO2 
 PCOD9303143
Probable space group: C 2/C
;
_chemical_formula_sum "Si O2"
_cell_formula_units_Z 60
_cell_length_a 12.313963
_cell_length_b 9.806060
_cell_length_c 21.411896
_cell_angle_alpha 90.000000
_cell_angle_beta 92.088427
_cell_angle_gamma 90.000000
_cell_volume 2583.800338
_symmetry_space_group_name_H-M "C 2/C"
_symmetry_group_IT_number 15
_symmetry_cell_setting 'monoclinic'
loop_
_space_group_symop_operation_xyz
x,y,z
-x,y,1/2-z
-x,-y,-z
x,-y,1/2+z
1/2+x,1/2+y,z
1/2-x,1/2+y,1/2-z
1/2-x,1/2-y,-z
1/2+x,1/2-y,1/2+z
loop_
_atom_site_type_symbol
_atom_site_label
_atom_site_fract_x
_atom_site_fract_y
_atom_site_fract_z
Si Si1 0.375667 0.597264 0.241406
Si Si2 0.540159 0.294320 0.961837
Si Si3 0.618167 0.043737 0.029040
Si Si4 0.154062 0.942144 0.500619
Si Si5 0.930663 0.646844 0.661518
Si Si6 0.830957 0.637271 0.332516
Si Si7 0.202358 0.954694 0.136563
Si Si8 0.500000 0.071083 0.250000
O O1 0.500000 0.543001 0.250000
O O2 0.392174 0.753527 0.217154
O O3 0.281887 0.560144 0.188817
O O4 0.326982 0.554622 0.307079
O O5 0.429765 0.315758 0.999510
O O6 0.518995 0.235632 0.892491
O O7 0.624949 0.192601 0.996776
O O8 0.598168 0.440168 0.958299
O O9 0.625014 0.069493 0.102942
O O10 0.719020 0.944529 0.014398
O O11 0.500000 0.000000 0.000000
O O12 0.150299 0.993007 0.572147
O O13 0.831590 0.558871 0.632270
O O14 0.002993 0.531967 0.692727
O O15 0.824988 0.796982 0.351098
O O16 0.894316 0.651958 0.267042
#
# Coordination Sequence:
#
# PCOD9303143 Si02
#       8
#     8   8   8   8   8   8   8   4
#     4  11  23  40  66 101 132 178 234 288 348 410
#     4  11  23  44  73 104 132 185 237 295 357 428
#     4  12  25  46  70 102 145 190 228 301 365 430
#     4  11  23  42  74 103 134 178 243 285 364 429
#     4  11  22  42  69  95 139 180 233 287 345 430
#     4  11  26  44  67  98 140 183 231 285 359 422
#     4  11  22  42  67  98 138 180 226 297 350 418
#     4  12  24  46  62  98 130 192 226 272 354 424
#
# _framework density 23.221609000000001
#
# number of rings (size 3 to 8) (size 9 to 14) (size 15 to 20)
#    0.000    0.800    4.667    3.600    0.933    1.600 
#    0.000    0.000    0.000    0.000    0.000    0.000 
#    0.000    0.000    0.000    0.000    0.000    0.000 
#
# Total GULP energy -167088.330077 kJ/mol
# GULP energy per Si atom -5569.611003 kJ/mol
# Density = 2.316876 g / cm^3
# Si number density = 23.221609 Si / 1000 Ang^3
#
#
#
# Elastic Constant Matrix: (Units=GPa)
#
#
# Indices 1 2 3 4 5 6 
#
# 1 106.4833 -4.9902 20.1469 0.0000 1.4289 0.0000
# 2 -4.9902 9.4340 15.4653 0.0000 -7.0146 0.0000
# 3 20.1469 15.4653 113.4449 0.0000 7.3214 0.0000
# 4 0.0000 0.0000 0.0000 42.5458 0.0000 -8.8940
# 5 1.4289 -7.0146 7.3214 0.0000 36.0502 0.0000
# 6 0.0000 0.0000 0.0000 -8.8940 0.0000 22.6563
#
#
#
# Elastic Compliance Matrix: (Units=1/GPa)
#
#
# Indices 1 2 3 4 5 6 
#
# 1 0.010852 0.015150 -0.004210 0.000000 0.003373 0.000000
# 2 0.015150 0.202271 -0.033201 0.000000 0.045500 0.000000
# 3 -0.004210 -0.033201 0.014687 0.000000 -0.009276 0.000000
# 4 0.000000 0.000000 0.000000 0.025605 0.000000 0.010052
# 5 0.003373 0.045500 -0.009276 0.000000 0.038343 0.000000
# 6 0.000000 0.000000 0.000000 0.010052 0.000000 0.048084
#
#
# Mechanical properties :
#
#
# Convention : Reuss Voigt Hill
#
# Bulk Modulus (GPa) = 5.45589 32.28957 18.87273
# Shear Modulus (GPa) = 11.22431 33.49981 22.36206
#
# Velocity S-wave (km/s) = 2.20092 3.80230 3.10657
# Velocity P-wave (km/s) = 2.96872 5.76296 4.58394
#
# Compressibility (1/GPa) = 0.18328826
#
# Stress axis : x y z
#
# Youngs Moduli (GPa) = 92.14482 4.94386 68.08565
#
# Poissons Ratio (x) = -0.07490 0.28666
# Poissons Ratio (y) = -1.39602 2.26054
# Poissons Ratio (z) = 0.38796 0.16414
#
# Static dielectric constant tensor:
#      x y z
#    x 1.969050 0.000000 -0.090580 
#    y 0.000000 1.946580 0.000000 
#    z -0.090580 0.000000 1.729860 
# 
# From -- ./inp_files/237581.got.cif
#   From: 2010.05.17/outbox.cif.g08.bks.cpg/sg15_119_cif.got.tgz:237581.got - 2010.06.03 18:47:42.
