data_PCOD9303580
_publ_section_title
;
Structure prediction by ZEFSAII (Michael W. Deem and Ramdas Pophale) SiO2 
 PCOD9303580
Probable space group: C 2/C
;
_chemical_formula_sum "Si O2"
_cell_formula_units_Z 60
_cell_length_a 13.045342
_cell_length_b 8.471238
_cell_length_c 24.938124
_cell_angle_alpha 90.000000
_cell_angle_beta 70.280169
_cell_angle_gamma 90.000000
_cell_volume 2594.292973
_symmetry_space_group_name_H-M "C 2/C"
_symmetry_group_IT_number 15
_symmetry_cell_setting 'monoclinic'
loop_
_space_group_symop_operation_xyz
x,y,z
-x,y,1/2-z
-x,-y,-z
x,-y,1/2+z
1/2+x,1/2+y,z
1/2-x,1/2+y,1/2-z
1/2-x,1/2-y,-z
1/2+x,1/2-y,1/2+z
loop_
_atom_site_type_symbol
_atom_site_label
_atom_site_fract_x
_atom_site_fract_y
_atom_site_fract_z
Si Si1 0.500000 0.430356 0.750000
Si Si2 0.412855 0.485645 0.562234
Si Si3 0.902166 0.455117 0.852038
Si Si4 0.825199 0.316349 0.273703
Si Si5 0.655589 0.945348 0.823423
Si Si6 0.785187 0.686263 0.935937
Si Si7 0.084461 0.009256 0.122297
Si Si8 0.763710 0.698654 0.606417
O O1 0.589886 0.316369 0.760929
O O2 0.442472 0.516363 0.810031
O O3 0.500000 0.500000 0.500000
O O4 0.325135 0.625042 0.572339
O O5 0.476027 0.493617 0.606978
O O6 0.353337 0.316506 0.567915
O O7 0.884525 0.590050 0.810915
O O8 0.860608 0.530655 0.915669
O O9 0.818034 0.319616 0.848471
O O10 0.027900 0.413604 0.836282
O O11 0.802580 0.443586 0.232310
O O12 0.721300 0.217175 0.310680
O O13 0.681085 0.056387 0.870241
O O14 0.854964 0.824686 0.896545
O O15 0.750000 0.750000 0.000000
O O16 0.173572 0.884601 0.084996
#
# Coordination Sequence:
#
# PCOD9303580 Si02
#       8
#     4   8   8   8   8   8   8   8
#     4  12  22  46  70 100 152 192 224 308 356 422
#     4  11  25  46  76 105 142 191 236 304 375 427
#     4  11  24  44  64  98 140 177 235 297 352 427
#     4  12  23  42  68  98 139 190 238 291 356 429
#     4  12  24  42  68  98 140 188 236 289 361 423
#     4  11  22  45  77 103 138 188 236 298 370 433
#     4  12  25  49  71 104 151 186 247 297 366 440
#     4  11  26  43  68 103 138 183 241 296 353 438
#
# _framework density 23.127689
#
# number of rings (size 3 to 8) (size 9 to 14) (size 15 to 20)
#    0.000    0.533    5.333    2.400    0.000    5.867 
#    2.400    0.667    0.000    0.000    0.000    0.000 
#    0.000    0.000    0.000    0.000    0.000    0.000 
#
# Total GULP energy -167682.768356 kJ/mol
# GULP energy per Si atom -5589.425612 kJ/mol
# Density = 2.307505 g / cm^3
# Si number density = 23.127689 Si / 1000 Ang^3
#
#
#
# Elastic Constant Matrix: (Units=GPa)
#
#
# Indices 1 2 3 4 5 6 
#
# 1 129.8732 25.5773 14.2871 0.0000 -29.6025 0.0000
# 2 25.5773 26.4365 7.7285 0.0000 -13.4924 0.0000
# 3 14.2871 7.7285 63.4699 0.0000 -15.7250 0.0000
# 4 0.0000 0.0000 0.0000 16.0471 0.0000 -17.1474
# 5 -29.6025 -13.4924 -15.7250 0.0000 31.5782 0.0000
# 6 0.0000 0.0000 0.0000 -17.1474 0.0000 40.9477
#
#
#
# Elastic Compliance Matrix: (Units=1/GPa)
#
#
# Indices 1 2 3 4 5 6 
#
# 1 0.010637 -0.006663 0.000208 0.000000 0.007228 0.000000
# 2 -0.006663 0.052592 -0.001009 0.000000 0.015723 0.000000
# 3 0.000208 -0.001009 0.017993 0.000000 0.008724 0.000000
# 4 0.000000 0.000000 0.000000 0.112785 0.000000 0.047230
# 5 0.007228 0.015723 0.008724 0.000000 0.049505 0.000000
# 6 0.000000 0.000000 0.000000 0.047230 0.000000 0.044200
#
#
# Mechanical properties :
#
#
# Convention : Reuss Voigt Hill
#
# Bulk Modulus (GPa) = 15.08432 34.99616 25.04024
# Shear Modulus (GPa) = 15.39706 29.19370 22.29538
#
# Velocity S-wave (km/s) = 2.58300 3.55672 3.10822
# Velocity P-wave (km/s) = 3.92838 5.65964 4.87154
#
# Compressibility (1/GPa) = 0.06629401
#
# Stress axis : x y z
#
# Youngs Moduli (GPa) = 94.01504 19.01423 55.57749
#
# Poissons Ratio (x) = 0.12669 -0.01154
# Poissons Ratio (y) = 0.62640 0.05606
# Poissons Ratio (z) = -0.01953 0.01918
#
# Static dielectric constant tensor:
#      x y z
#    x 1.879190 0.000000 -0.002870 
#    y 0.000000 1.932980 0.000000 
#    z -0.002870 0.000000 1.900420 
# 
# From -- ./inp_files/310281.got.cif
#   From: 2010.05.17/outbox.cif.g08.bks.cpg/sg15_156_cif.got.tgz:310281.got - 2010.06.03 18:47:42.
