data_PCOD9303786
_publ_section_title
;
Structure prediction by ZEFSAII (Michael W. Deem and Ramdas Pophale) SiO2 
 PCOD9303786
Probable space group: C 2/C
;
_chemical_formula_sum "Si O2"
_cell_formula_units_Z 40
_cell_length_a 5.864702
_cell_length_b 25.539504
_cell_length_c 11.364366
_cell_angle_alpha 90.000000
_cell_angle_beta 93.106641
_cell_angle_gamma 90.000000
_cell_volume 1699.671177
_symmetry_space_group_name_H-M "C 2/C"
_symmetry_group_IT_number 15
_symmetry_cell_setting 'monoclinic'
loop_
_space_group_symop_operation_xyz
x,y,z
-x,y,1/2-z
-x,-y,-z
x,-y,1/2+z
1/2+x,1/2+y,z
1/2-x,1/2+y,1/2-z
1/2-x,1/2-y,-z
1/2+x,1/2-y,1/2+z
loop_
_atom_site_type_symbol
_atom_site_label
_atom_site_fract_x
_atom_site_fract_y
_atom_site_fract_z
Si Si1 0.368272 0.875514 0.868322
Si Si2 0.938186 0.781865 0.575471
Si Si3 0.476399 0.535502 0.115729
Si Si4 0.708863 0.375267 0.489811
Si Si5 0.000000 0.863030 0.250000
Si Si6 0.500000 0.805132 0.250000
O O1 0.500000 0.872973 0.750000
O O2 0.193277 0.827262 0.856191
O O3 0.258026 0.932121 0.884375
O O4 0.522469 0.868014 0.989502
O O5 0.750000 0.750000 0.500000
O O6 0.104189 0.818082 0.505457
O O7 0.059967 0.736805 0.650705
O O8 0.500000 0.513786 0.250000
O O9 0.500000 0.500000 0.000000
O O10 0.650449 0.583315 0.090967
O O11 0.586633 0.394046 0.367446
O O12 0.250389 0.834549 0.226261
#
# Coordination Sequence:
#
# PCOD9303786 Si02
#       6
#     8   8   8   8   4   4
#     4  11  23  44  73 106 144 198 253 315 382 462
#     4  11  23  39  64 102 146 204 253 308 356 439
#     4  11  26  50  76 110 142 184 248 318 399 478
#     4  11  25  45  71 101 149 194 251 304 383 450
#     4  12  28  44  66 109 154 207 252 316 364 448
#     4  12  26  42  66 105 152 201 266 306 370 430
#
# _framework density 23.533964000000001
#
# number of rings (size 3 to 8) (size 9 to 14) (size 15 to 20)
#    0.000    0.800    4.000    2.400   11.200    2.400 
#    0.000    0.000    0.000    0.000    0.000    0.000 
#    0.000    0.000    0.000    0.000    0.000    0.000 
#
# Total GULP energy -111390.722632 kJ/mol
# GULP energy per Si atom -5569.536132 kJ/mol
# Density = 2.348040 g / cm^3
# Si number density = 23.533964 Si / 1000 Ang^3
#
#
#
# Elastic Constant Matrix: (Units=GPa)
#
#
# Indices 1 2 3 4 5 6 
#
# 1 107.4075 42.4617 51.9558 0.0000 4.4644 0.0000
# 2 42.4617 97.0211 56.3307 0.0000 -13.4849 0.0000
# 3 51.9558 56.3307 153.3854 0.0000 3.0657 0.0000
# 4 0.0000 0.0000 0.0000 48.5513 0.0000 -4.9609
# 5 4.4644 -13.4849 3.0657 0.0000 52.8910 0.0000
# 6 0.0000 0.0000 0.0000 -4.9609 0.0000 9.1146
#
#
#
# Elastic Compliance Matrix: (Units=1/GPa)
#
#
# Indices 1 2 3 4 5 6 
#
# 1 0.012285 -0.004134 -0.002604 0.000000 -0.001940 0.000000
# 2 -0.004134 0.015224 -0.004280 0.000000 0.004478 0.000000
# 3 -0.002604 -0.004280 0.009001 0.000000 -0.001393 0.000000
# 4 0.000000 0.000000 0.000000 0.021810 0.000000 0.011871
# 5 -0.001940 0.004478 -0.001393 0.000000 0.020293 0.000000
# 6 0.000000 0.000000 0.000000 0.011871 0.000000 0.116175
#
#
# Mechanical properties :
#
#
# Convention : Reuss Voigt Hill
#
# Bulk Modulus (GPa) = 69.09312 73.25669 71.17490
# Shear Modulus (GPa) = 22.55810 35.91577 29.23693
#
# Velocity S-wave (km/s) = 3.09938 3.91080 3.52849
# Velocity P-wave (km/s) = 6.49852 7.18249 6.84905
#
# Compressibility (1/GPa) = 0.01447322
#
# Stress axis : x y z
#
# Youngs Moduli (GPa) = 81.39931 65.68617 111.09440
#
# Poissons Ratio (x) = 0.27156 0.28931
# Poissons Ratio (y) = 0.33653 0.47549
# Poissons Ratio (z) = 0.21198 0.28114
#
# Static dielectric constant tensor:
#      x y z
#    x 1.894810 0.000000 0.027880 
#    y 0.000000 1.861680 0.000000 
#    z 0.027880 0.000000 2.039390 
# 
# From -- ./inp_files/73374.got.cif
#   From: 2010.05.17/outbox.cif.g08.bks.cpg/sg15_37_cif.got.tgz:73374.got - 2010.06.03 18:47:42.
