data_PCOD9303301
_publ_section_title
;
Structure prediction by ZEFSAII (Michael W. Deem and Ramdas Pophale) SiO2 
 PCOD9303301
Probable space group: C 2/C
;
_chemical_formula_sum "Si O2"
_cell_formula_units_Z 60
_cell_length_a 12.535561
_cell_length_b 21.122419
_cell_length_c 18.898464
_cell_angle_alpha 90.000000
_cell_angle_beta 146.702773
_cell_angle_gamma 90.000000
_cell_volume 2747.086472
_symmetry_space_group_name_H-M "C 2/C"
_symmetry_group_IT_number 15
_symmetry_cell_setting 'monoclinic'
loop_
_space_group_symop_operation_xyz
x,y,z
-x,y,1/2-z
-x,-y,-z
x,-y,1/2+z
1/2+x,1/2+y,z
1/2-x,1/2+y,1/2-z
1/2-x,1/2-y,-z
1/2+x,1/2-y,1/2+z
loop_
_atom_site_type_symbol
_atom_site_label
_atom_site_fract_x
_atom_site_fract_y
_atom_site_fract_z
Si Si1 0.949975 0.214526 0.638960
Si Si2 0.741826 0.586387 0.004597
Si Si3 0.808471 0.958189 0.603508
Si Si4 0.135314 0.588508 0.143383
Si Si5 0.500000 0.809930 0.250000
Si Si6 0.304714 0.273494 0.747557
Si Si7 0.622095 0.561190 0.089365
Si Si8 0.648964 0.348312 0.979853
O O1 0.750000 0.250000 0.500000
O O2 0.917038 0.139676 0.604009
O O3 0.000000 0.223250 0.750000
O O4 0.139302 0.242200 0.703926
O O5 0.722405 0.513098 0.970483
O O6 0.750569 0.584665 0.094525
O O7 0.929276 0.604741 0.062959
O O8 0.647885 0.946098 0.574987
O O9 0.857955 0.892589 0.592886
O O10 0.000000 0.979897 0.750000
O O11 0.238428 0.656013 0.192385
O O12 0.251065 0.551189 0.269518
O O13 0.662919 0.768128 0.303101
O O14 0.624479 0.847150 0.375838
O O15 0.523701 0.284533 0.899414
O O16 0.467396 0.615165 0.023270
O O17 0.500000 0.500000 0.000000
#
# Coordination Sequence:
#
# PCOD9303301 Si02
#       8
#     8   8   8   8   4   8   8   8
#     4  12  29  47  75 107 149 196 250 306 364 445
#     4  12  25  43  70 109 142 186 247 299 366 432
#     4  12  22  46  69 101 145 188 235 295 365 441
#     4  11  24  41  73 100 141 195 238 292 368 437
#     4  12  26  44  70 110 140 182 242 312 350 422
#     4  11  24  46  73 101 145 188 244 290 370 427
#     4  11  22  43  69 101 139 186 233 296 358 438
#     4  11  25  43  73 103 141 189 238 296 368 431
#
# _framework density 21.841322000000002
#
# number of rings (size 3 to 8) (size 9 to 14) (size 15 to 20)
#    0.000    0.533    5.333    3.200    5.600    2.133 
#    0.000    2.667    0.000    0.000    0.000    0.000 
#    0.000    0.000    0.000    0.000    0.000    0.000 
#
# Total GULP energy -167448.432956 kJ/mol
# GULP energy per Si atom -5581.614432 kJ/mol
# Density = 2.179161 g / cm^3
# Si number density = 21.841322 Si / 1000 Ang^3
#
#
#
# Elastic Constant Matrix: (Units=GPa)
#
#
# Indices 1 2 3 4 5 6 
#
# 1 159.2944 35.4846 23.0773 -0.0013 -13.6827 -0.0001
# 2 35.4846 54.7079 10.6380 -0.0017 -1.8934 -0.0004
# 3 23.0773 10.6380 49.3046 -0.0062 6.4914 -0.0021
# 4 -0.0013 -0.0017 -0.0062 24.2268 -0.0017 5.3147
# 5 -13.6827 -1.8934 6.4914 -0.0017 31.4941 -0.0004
# 6 -0.0001 -0.0004 -0.0021 5.3147 -0.0004 35.8088
#
#
#
# Elastic Compliance Matrix: (Units=1/GPa)
#
#
# Indices 1 2 3 4 5 6 
#
# 1 0.008095 -0.004464 -0.003344 0.000000 0.003938 0.000000
# 2 -0.004464 0.021671 -0.002572 0.000001 -0.000106 0.000000
# 3 -0.003344 -0.002572 0.023245 0.000005 -0.006399 0.000001
# 4 0.000000 0.000001 0.000005 0.042666 0.000001 -0.006332
# 5 0.003938 -0.000106 -0.006399 0.000001 0.034775 0.000000
# 6 0.000000 0.000000 0.000001 -0.006332 0.000000 0.028866
#
#
# Mechanical properties :
#
#
# Convention : Reuss Voigt Hill
#
# Bulk Modulus (GPa) = 31.00815 44.63409 37.82112
# Shear Modulus (GPa) = 26.20165 31.24640 28.72403
#
# Velocity S-wave (km/s) = 3.46733 3.78644 3.63040
# Velocity P-wave (km/s) = 5.50070 6.29255 5.90990
#
# Compressibility (1/GPa) = 0.03224959
#
# Stress axis : x y z
#
# Youngs Moduli (GPa) = 123.53662 46.14506 43.02051
#
# Poissons Ratio (x) = 0.20599 0.14386
# Poissons Ratio (y) = 0.55145 0.11066
# Poissons Ratio (z) = 0.41312 0.11870
#
# Static dielectric constant tensor:
#      x y z
#    x 1.819320 0.000000 -0.025920 
#    y 0.000000 1.824950 0.000000 
#    z -0.025920 0.000000 1.995890 
# 
# From -- ./inp_files/200549.got.cif
#   From: 2010.05.17/outbox.cif.g08.bks.cpg/sg15_101_cif.got.tgz:200549.got - 2010.06.03 18:47:42.
