data_PCOD9303086
_publ_section_title
;
Structure prediction by ZEFSAII (Michael W. Deem and Ramdas Pophale) SiO2 
 PCOD9303086
Probable space group: C 2/C
;
_chemical_formula_sum "Si O2"
_cell_formula_units_Z 52
_cell_length_a 8.512846
_cell_length_b 17.392906
_cell_length_c 16.389439
_cell_angle_alpha 90.000000
_cell_angle_beta 121.838275
_cell_angle_gamma 90.000000
_cell_volume 2061.555801
_symmetry_space_group_name_H-M "C 2/C"
_symmetry_group_IT_number 15
_symmetry_cell_setting 'monoclinic'
loop_
_space_group_symop_operation_xyz
x,y,z
-x,y,1/2-z
-x,-y,-z
x,-y,1/2+z
1/2+x,1/2+y,z
1/2-x,1/2+y,1/2-z
1/2-x,1/2-y,-z
1/2+x,1/2-y,1/2+z
loop_
_atom_site_type_symbol
_atom_site_label
_atom_site_fract_x
_atom_site_fract_y
_atom_site_fract_z
Si Si1 0.130786 0.854962 0.591642
Si Si2 0.234439 0.617300 0.966417
Si Si3 0.500000 0.551032 0.750000
Si Si4 0.226601 0.042954 0.969946
Si Si5 0.962413 0.692078 0.994083
Si Si6 0.797917 0.631674 0.721866
Si Si7 0.291612 0.687476 0.218606
O O1 0.160076 0.927356 0.540788
O O2 0.252221 0.853063 0.706758
O O3 0.919227 0.859115 0.562720
O O4 0.139637 0.773821 0.544482
O O5 0.301350 0.620193 0.891931
O O6 0.165684 0.534892 0.978290
O O7 0.076497 0.678076 0.941807
O O8 0.589015 0.517921 0.858436
O O9 0.676152 0.594815 0.758836
O O10 0.330593 0.119363 0.968993
O O11 0.120918 0.683938 0.107783
O O12 0.808278 0.721846 0.740522
O O13 0.000000 0.600816 0.750000
O O14 0.500000 0.662338 0.250000
#
# Coordination Sequence:
#
# PCOD9303086 Si02
#       7
#     8   8   4   8   8   8   8
#     4  12  24  44  73 102 143 189 239 298 358 434
#     4  12  24  48  69 104 148 189 236 300 373 429
#     4  12  24  46  72 104 146 200 244 288 376 444
#     4  12  28  45  71 107 149 187 236 308 369 430
#     4  12  24  45  74 105 139 192 247 299 357 440
#     4  11  24  44  74 106 145 193 245 304 366 440
#     4  11  22  41  73 108 138 188 247 296 357 431
#
# _framework density 25.223668
#
# number of rings (size 3 to 8) (size 9 to 14) (size 15 to 20)
#    0.000    0.308    4.615    5.538    0.000    3.077 
#    2.769    0.000    0.000    0.000    0.000    0.000 
#    0.000    0.000    0.000    0.000    0.000    0.000 
#
# Total GULP energy -145150.502223 kJ/mol
# GULP energy per Si atom -5582.711624 kJ/mol
# Density = 2.516626 g / cm^3
# Si number density = 25.223668 Si / 1000 Ang^3
#
#
#
# Elastic Constant Matrix: (Units=GPa)
#
#
# Indices 1 2 3 4 5 6 
#
# 1 60.3952 8.6621 3.7175 0.0000 -20.3232 0.0000
# 2 8.6621 95.8720 25.3056 0.0000 -7.1567 0.0000
# 3 3.7175 25.3056 185.3801 0.0000 -21.9028 0.0000
# 4 0.0000 0.0000 0.0000 19.8200 0.0000 1.1284
# 5 -20.3232 -7.1567 -21.9028 0.0000 40.3402 0.0000
# 6 0.0000 0.0000 0.0000 1.1284 0.0000 19.3547
#
#
#
# Elastic Compliance Matrix: (Units=1/GPa)
#
#
# Indices 1 2 3 4 5 6 
#
# 1 0.020218 -0.001310 0.001014 0.000000 0.010504 0.000000
# 2 -0.001310 0.010959 -0.001408 0.000000 0.000519 0.000000
# 3 0.001014 -0.001408 0.005981 0.000000 0.003509 0.000000
# 4 0.000000 0.000000 0.000000 0.050622 0.000000 -0.002951
# 5 0.010504 0.000519 0.003509 0.000000 0.032078 0.000000
# 6 0.000000 0.000000 0.000000 -0.002951 0.000000 0.051839
#
#
# Mechanical properties :
#
#
# Convention : Reuss Voigt Hill
#
# Bulk Modulus (GPa) = 29.63016 46.33532 37.98274
# Shear Modulus (GPa) = 26.83041 36.16711 31.49876
#
# Velocity S-wave (km/s) = 3.26498 3.79074 3.53764
# Velocity P-wave (km/s) = 5.09764 6.12938 5.63716
#
# Compressibility (1/GPa) = 0.03374940
#
# Stress axis : x y z
#
# Youngs Moduli (GPa) = 49.46164 91.24509 167.20265
#
# Poissons Ratio (x) = 0.11956 -0.16963
# Poissons Ratio (y) = 0.06481 0.23549
# Poissons Ratio (z) = -0.05018 0.12851
#
# Static dielectric constant tensor:
#      x y z
#    x 2.053130 0.000000 0.020160 
#    y 0.000000 1.912120 0.000000 
#    z 0.020160 0.000000 2.171910 
# 
# From -- ./inp_files/191125.got.cif
#   From: 2010.05.17/outbox.cif.g08.bks.cpg/sg15_96_cif.got.tgz:191125.got - 2010.06.03 18:47:42.
