data_PCOD9303367
_publ_section_title
;
Structure prediction by ZEFSAII (Michael W. Deem and Ramdas Pophale) SiO2 
 PCOD9303367
Probable space group: C 2/C
;
_chemical_formula_sum "Si O2"
_cell_formula_units_Z 36
_cell_length_a 7.752787
_cell_length_b 12.437990
_cell_length_c 14.572764
_cell_angle_alpha 90.000000
_cell_angle_beta 102.642081
_cell_angle_gamma 90.000000
_cell_volume 1371.170130
_symmetry_space_group_name_H-M "C 2/C"
_symmetry_group_IT_number 15
_symmetry_cell_setting 'monoclinic'
loop_
_space_group_symop_operation_xyz
x,y,z
-x,y,1/2-z
-x,-y,-z
x,-y,1/2+z
1/2+x,1/2+y,z
1/2-x,1/2+y,1/2-z
1/2-x,1/2-y,-z
1/2+x,1/2-y,1/2+z
loop_
_atom_site_type_symbol
_atom_site_label
_atom_site_fract_x
_atom_site_fract_y
_atom_site_fract_z
Si Si1 0.120102 0.207638 0.113571
Si Si2 0.259788 0.825115 0.115338
Si Si3 0.500000 0.500000 0.000000
Si Si4 0.203987 0.903212 0.303734
Si Si5 0.662116 0.877671 0.698207
O O1 0.261691 0.304394 0.124897
O O2 0.172659 0.153354 0.217333
O O3 0.934678 0.271163 0.095099
O O4 0.113427 0.106230 0.047179
O O5 0.299954 0.878064 0.219193
O O6 0.137758 0.722527 0.128094
O O7 0.161495 0.917060 0.048575
O O8 0.000000 0.912810 0.250000
O O9 0.279962 0.015153 0.348102
O O10 0.500000 0.890374 0.750000
#
# Coordination Sequence:
#
# PCOD9303367 Si02
#       5
#     8   8   4   8   8
#     4  11  23  43  70 102 140 186 232 285 358 418
#     4  11  23  43  70 102 140 186 232 285 358 418
#     4  12  26  44  68 100 156 186 228 294 356 432
#     4  11  22  43  75 104 134 179 243 296 346 423
#     4  11  22  43  75 104 134 179 243 296 346 423
#
# _framework density 26.254947999999999
#
# number of rings (size 3 to 8) (size 9 to 14) (size 15 to 20)
#    0.000    0.889    2.222    8.667    0.000    0.000 
#    0.000    5.556    0.000    0.000    0.000    0.000 
#    0.000    0.000    0.000    0.000    0.000    0.000 
#
# Total GULP energy -100240.581602 kJ/mol
# GULP energy per Si atom -5568.921200 kJ/mol
# Density = 2.619519 g / cm^3
# Si number density = 26.254948 Si / 1000 Ang^3
#
#
#
# Elastic Constant Matrix: (Units=GPa)
#
#
# Indices 1 2 3 4 5 6 
#
# 1 141.7454 93.4034 40.1335 0.0000 32.5022 0.0000
# 2 93.4034 297.2843 66.8503 0.0000 24.4446 0.0000
# 3 40.1335 66.8503 71.8982 0.0000 3.0092 0.0000
# 4 0.0000 0.0000 0.0000 52.1077 0.0000 23.2282
# 5 32.5022 24.4446 3.0092 0.0000 29.1441 0.0000
# 6 0.0000 0.0000 0.0000 23.2282 0.0000 35.1418
#
#
#
# Elastic Compliance Matrix: (Units=1/GPa)
#
#
# Indices 1 2 3 4 5 6 
#
# 1 0.012255 -0.001852 -0.004631 0.000000 -0.011635 0.000000
# 2 -0.001852 0.004847 -0.003403 0.000000 -0.001648 0.000000
# 3 -0.004631 -0.003403 0.019407 0.000000 0.006016 0.000000
# 4 0.000000 0.000000 0.000000 0.027208 0.000000 -0.017984
# 5 -0.011635 -0.001648 0.006016 0.000000 0.048049 0.000000
# 6 0.000000 0.000000 0.000000 -0.017984 0.000000 0.040343
#
#
# Mechanical properties :
#
#
# Convention : Reuss Voigt Hill
#
# Bulk Modulus (GPa) = 59.75985 101.30024 80.53005
# Shear Modulus (GPa) = 28.17540 43.98143 36.07842
#
# Velocity S-wave (km/s) = 3.27945 4.09732 3.71098
# Velocity P-wave (km/s) = 6.09512 7.81352 7.00720
#
# Compressibility (1/GPa) = 0.01673364
#
# Stress axis : x y z
#
# Youngs Moduli (GPa) = 81.60214 206.33269 51.52891
#
# Poissons Ratio (x) = 0.38214 0.23866
# Poissons Ratio (y) = 0.15113 0.17538
# Poissons Ratio (z) = 0.37794 0.70225
#
# Static dielectric constant tensor:
#      x y z
#    x 1.983160 0.000000 -0.057910 
#    y 0.000000 2.028860 0.000000 
#    z -0.057910 0.000000 2.068010 
# 
# From -- ./inp_files/230057.got.cif
#   From: 2010.05.17/outbox.cif.g08.bks.cpg/sg15_116_cif.got.tgz:230057.got - 2010.06.03 18:47:42.
