data_PCOD9303828
_publ_section_title
;
Structure prediction by ZEFSAII (Michael W. Deem and Ramdas Pophale) SiO2 
 PCOD9303828
Probable space group: C 2/C
;
_chemical_formula_sum "Si O2"
_cell_formula_units_Z 32
_cell_length_a 12.826806
_cell_length_b 22.540492
_cell_length_c 4.763836
_cell_angle_alpha 90.000000
_cell_angle_beta 81.986169
_cell_angle_gamma 90.000000
_cell_volume 1363.881844
_symmetry_space_group_name_H-M "C 2/C"
_symmetry_group_IT_number 15
_symmetry_cell_setting 'monoclinic'
loop_
_space_group_symop_operation_xyz
x,y,z
-x,y,1/2-z
-x,-y,-z
x,-y,1/2+z
1/2+x,1/2+y,z
1/2-x,1/2+y,1/2-z
1/2-x,1/2-y,-z
1/2+x,1/2-y,1/2+z
loop_
_atom_site_type_symbol
_atom_site_label
_atom_site_fract_x
_atom_site_fract_y
_atom_site_fract_z
Si Si1 0.933363 0.626485 0.502352
Si Si2 0.725366 0.304130 0.217614
Si Si3 0.795880 0.541106 0.172522
Si Si4 0.121750 0.141152 0.266762
O O1 0.834877 0.660266 0.673320
O O2 0.885961 0.579063 0.297032
O O3 0.000000 0.606834 0.750000
O O4 0.000000 0.665585 0.250000
O O5 0.677275 0.308108 0.547709
O O6 0.750000 0.250000 0.000000
O O7 0.637201 0.339843 0.079828
O O8 0.800228 0.480570 0.351297
O O9 0.691669 0.581557 0.218134
O O10 0.000000 0.133429 0.250000
#
# Coordination Sequence:
#
# PCOD9303828 Si02
#       4
#     8   8   8   8
#     4  11  23  40  62  91 128 168 214 268 320 379
#     4  11  24  43  65  94 128 165 213 267 322 383
#     4  11  23  40  63  94 130 170 217 265 316 378
#     4  11  24  43  66  94 129 168 214 267 319 379
#
# _framework density 23.462440999999998
#
# number of rings (size 3 to 8) (size 9 to 14) (size 15 to 20)
#    0.000    1.000    0.000    9.000    0.000    7.000 
#    0.000    0.000    0.000    0.000    0.000    0.000 
#    0.000    0.000    0.000    0.000    0.000    0.000 
#
# Total GULP energy -89221.182055 kJ/mol
# GULP energy per Si atom -5576.323878 kJ/mol
# Density = 2.340904 g / cm^3
# Si number density = 23.462441 Si / 1000 Ang^3
#
#
#
# Elastic Constant Matrix: (Units=GPa)
#
#
# Indices 1 2 3 4 5 6 
#
# 1 174.7481 28.3199 44.4887 0.0000 19.0341 0.0000
# 2 28.3199 57.4355 9.4705 0.0000 9.6644 0.0000
# 3 44.4887 9.4705 165.8642 0.0000 1.1838 0.0000
# 4 0.0000 0.0000 0.0000 33.4304 0.0000 10.5068
# 5 19.0341 9.6644 1.1838 0.0000 30.8221 0.0000
# 6 0.0000 0.0000 0.0000 10.5068 0.0000 -6.8833
#
#
#
# Elastic Compliance Matrix: (Units=1/GPa)
#
#
# Indices 1 2 3 4 5 6 
#
# 1 0.006941 -0.002569 -0.001691 0.000000 -0.003416 0.000000
# 2 -0.002569 0.019502 -0.000392 0.000000 -0.004513 0.000000
# 3 -0.001691 -0.000392 0.006498 0.000000 0.000918 0.000000
# 4 0.000000 0.000000 0.000000 0.020215 0.000000 0.030857
# 5 -0.003416 -0.004513 0.000918 0.000000 0.035934 0.000000
# 6 0.000000 0.000000 0.000000 0.030857 0.000000 -0.098179
#
#
# Mechanical properties :
#
#
# Convention : Reuss Voigt Hill
#
# Bulk Modulus (GPa) = 42.30584 62.51180 52.40882
# Shear Modulus (GPa) = 617.69368 32.52508 325.10938
#
# Velocity S-wave (km/s) = 16.24317 3.72729 11.78417
# Velocity P-wave (km/s) = 19.23169 6.72494 14.40630
#
# Compressibility (1/GPa) = 0.02363740
#
# Stress axis : x y z
#
# Youngs Moduli (GPa) = 144.06283 51.27775 153.88444
#
# Poissons Ratio (x) = 0.13173 0.26019
# Poissons Ratio (y) = 0.37010 0.06036
# Poissons Ratio (z) = 0.24358 0.02011
#
# Static dielectric constant tensor:
#      x y z
#    x 0.908940 0.000000 1.193810 
#    y 0.000000 1.969590 0.000000 
#    z 1.193810 0.000000 0.247460 
# 
# From -- ./inp_files/3688.got.cif
#   From: 2010.05.17/outbox.cif.g08.bks.cpg/sg15_2_cif.got.tgz:3688.got - 2010.06.03 18:47:42.
