data_PCOD9303123
_publ_section_title
;
Structure prediction by ZEFSAII (Michael W. Deem and Ramdas Pophale) SiO2 
 PCOD9303123
Probable space group: C 2/C
;
_chemical_formula_sum "Si O2"
_cell_formula_units_Z 52
_cell_length_a 19.076753
_cell_length_b 15.293015
_cell_length_c 14.875071
_cell_angle_alpha 90.000000
_cell_angle_beta 145.282748
_cell_angle_gamma 90.000000
_cell_volume 2471.558950
_symmetry_space_group_name_H-M "C 2/C"
_symmetry_group_IT_number 15
_symmetry_cell_setting 'monoclinic'
loop_
_space_group_symop_operation_xyz
x,y,z
-x,y,1/2-z
-x,-y,-z
x,-y,1/2+z
1/2+x,1/2+y,z
1/2-x,1/2+y,1/2-z
1/2-x,1/2-y,-z
1/2+x,1/2-y,1/2+z
loop_
_atom_site_type_symbol
_atom_site_label
_atom_site_fract_x
_atom_site_fract_y
_atom_site_fract_z
Si Si1 0.619874 0.883062 0.100278
Si Si2 0.333672 0.678628 0.344334
Si Si3 0.057364 0.931236 0.683108
Si Si4 0.000000 0.203855 0.250000
Si Si5 0.089401 0.346169 0.480584
Si Si6 0.193876 0.511360 0.510642
Si Si7 0.283826 0.489923 0.903509
O O1 0.644079 0.779471 0.111959
O O2 0.494528 0.881448 0.026566
O O3 0.710854 0.942797 0.259724
O O4 0.624946 0.922215 0.005154
O O5 0.442581 0.627536 0.406569
O O6 0.294471 0.608770 0.377601
O O7 0.219795 0.680989 0.156722
O O8 0.169714 0.998821 0.800810
O O9 0.092739 0.863885 0.800860
O O10 0.924501 0.973908 0.558122
O O11 0.038055 0.265088 0.371371
O O12 0.116394 0.423586 0.440802
O O13 0.218626 0.521077 0.431312
#
# Coordination Sequence:
#
# PCOD9303123 Si02
#       7
#     8   8   8   4   8   8   8
#     4  12  25  43  66  93 134 177 216 276 325 404
#     4  11  26  41  69  93 132 182 212 275 335 392
#     4  11  22  42  66 103 126 167 222 283 337 375
#     4  12  20  38  74  98 128 160 226 292 324 388
#     4  11  24  43  61 102 133 165 223 267 348 388
#     4  11  25  40  66  94 134 175 217 271 330 402
#     4  12  24  44  68  95 136 173 225 275 328 391
#
# _framework density 21.039352999999998
#
# number of rings (size 3 to 8) (size 9 to 14) (size 15 to 20)
#    0.000    0.615    6.154    2.769    0.000    1.846 
#    0.000    0.000    0.000    0.000    0.000    0.000 
#    0.000    0.000    0.000    0.000    0.000    0.000 
#
# Total GULP energy -144996.039852 kJ/mol
# GULP energy per Si atom -5576.770764 kJ/mol
# Density = 2.099147 g / cm^3
# Si number density = 21.039353 Si / 1000 Ang^3
#
#
#
# Elastic Constant Matrix: (Units=GPa)
#
#
# Indices 1 2 3 4 5 6 
#
# 1 131.7965 52.2714 0.0476 0.0000 -14.0914 0.0000
# 2 52.2714 70.5779 8.0496 0.0000 -20.0287 0.0000
# 3 0.0476 8.0496 27.0886 0.0000 3.5333 0.0000
# 4 0.0000 0.0000 0.0000 -6.9520 0.0000 9.2272
# 5 -14.0914 -20.0287 3.5333 0.0000 31.3942 0.0000
# 6 0.0000 0.0000 0.0000 9.2272 0.0000 35.1096
#
#
#
# Elastic Compliance Matrix: (Units=1/GPa)
#
#
# Indices 1 2 3 4 5 6 
#
# 1 0.010920 -0.008654 0.002672 0.000000 -0.000920 0.000000
# 2 -0.008654 0.025437 -0.009290 0.000000 0.013389 0.000000
# 3 0.002672 -0.009290 0.040889 0.000000 -0.009329 0.000000
# 4 0.000000 0.000000 0.000000 -0.106644 0.000000 0.028027
# 5 -0.000920 0.013389 -0.009329 0.000000 0.041032 0.000000
# 6 0.000000 0.000000 0.000000 0.028027 0.000000 0.021116
#
#
# Mechanical properties :
#
#
# Convention : Reuss Voigt Hill
#
# Bulk Modulus (GPa) = 21.41180 38.91112 30.16146
# Shear Modulus (GPa) = 63.40276 23.18331 43.29304
#
# Velocity S-wave (km/s) = 5.49552 3.32309 4.54113
# Velocity P-wave (km/s) = 7.10400 5.76702 6.47013
#
# Compressibility (1/GPa) = 0.04670322
#
# Stress axis : x y z
#
# Youngs Moduli (GPa) = 91.57343 39.31287 24.45663
#
# Poissons Ratio (x) = 0.34020 -0.06535
# Poissons Ratio (y) = 0.79244 0.22720
# Poissons Ratio (z) = -0.24471 0.36522
#
# Static dielectric constant tensor:
#      x y z
#    x 1.797870 0.000000 -0.014840 
#    y 0.000000 1.791870 0.000000 
#    z -0.014840 0.000000 1.774640 
# 
# From -- ./inp_files/162606.got.cif
#   From: 2010.05.17/outbox.cif.g08.bks.cpg/sg15_82_cif.got.tgz:162606.got - 2010.06.03 18:47:42.
