data_PCOD9303703
_publ_section_title
;
Structure prediction by ZEFSAII (Michael W. Deem and Ramdas Pophale) SiO2 
 PCOD9303703
Probable space group: C 2/C
;
_chemical_formula_sum "Si O2"
_cell_formula_units_Z 48
_cell_length_a 26.327873
_cell_length_b 10.727655
_cell_length_c 8.131509
_cell_angle_alpha 90.000000
_cell_angle_beta 98.098422
_cell_angle_gamma 90.000000
_cell_volume 2273.730536
_symmetry_space_group_name_H-M "C 2/C"
_symmetry_group_IT_number 15
_symmetry_cell_setting 'monoclinic'
loop_
_space_group_symop_operation_xyz
x,y,z
-x,y,1/2-z
-x,-y,-z
x,-y,1/2+z
1/2+x,1/2+y,z
1/2-x,1/2+y,1/2-z
1/2-x,1/2-y,-z
1/2+x,1/2-y,1/2+z
loop_
_atom_site_type_symbol
_atom_site_label
_atom_site_fract_x
_atom_site_fract_y
_atom_site_fract_z
Si Si1 0.894892 0.114894 0.618931
Si Si2 0.710723 0.754204 0.199061
Si Si3 0.462660 0.571668 0.358286
Si Si4 0.849589 0.646672 0.150640
Si Si5 0.681928 0.902619 0.491987
Si Si6 0.282864 0.517701 0.662185
O O1 0.917379 0.131076 0.445893
O O2 0.893671 0.252864 0.692939
O O3 0.839515 0.047406 0.619293
O O4 0.933708 0.030028 0.736450
O O5 0.683280 0.795639 0.356422
O O6 0.714701 0.605111 0.218425
O O7 0.759932 0.849172 0.216230
O O8 0.682372 0.791185 0.016563
O O9 0.500000 0.646342 0.250000
O O10 0.500000 0.500000 0.500000
O O11 0.826766 0.631935 0.322949
O O12 0.857581 0.507588 0.087790
O O13 0.737859 0.969081 0.520001
#
# Coordination Sequence:
#
# PCOD9303703 Si02
#       6
#     8   8   8   8   8   8
#     4  11  23  36  69  96 122 163 226 267 320 420
#     4  11  25  41  57  85 140 190 227 273 311 359
#     4   9  21  43  62  93 129 151 193 275 363 401
#     4  11  23  41  60  89 128 181 224 266 316 369
#     4  11  23  40  57  84 140 186 217 262 311 356
#     4  11  24  36  61  91 128 182 231 260 313 374
#
# _framework density 21.110682000000001
#
# number of rings (size 3 to 8) (size 9 to 14) (size 15 to 20)
#    0.000    1.333    3.333    2.500    7.000    2.000 
#    0.000    0.000    0.000    0.000    0.000   15.167 
#    0.000    0.000    0.000    0.000    0.000    0.000 
#
# Total GULP energy -133636.461440 kJ/mol
# GULP energy per Si atom -5568.185893 kJ/mol
# Density = 2.106263 g / cm^3
# Si number density = 21.110682 Si / 1000 Ang^3
#
#
#
# Elastic Constant Matrix: (Units=GPa)
#
#
# Indices 1 2 3 4 5 6 
#
# 1 81.0287 26.2324 30.8709 0.0000 -31.1696 0.0000
# 2 26.2324 100.7001 44.2626 0.0000 -16.2709 0.0000
# 3 30.8709 44.2626 127.9771 0.0000 -36.5428 0.0000
# 4 0.0000 0.0000 0.0000 42.9697 0.0000 -5.4368
# 5 -31.1696 -16.2709 -36.5428 0.0000 37.2687 0.0000
# 6 0.0000 0.0000 0.0000 -5.4368 0.0000 3.9560
#
#
#
# Elastic Compliance Matrix: (Units=1/GPa)
#
#
# Indices 1 2 3 4 5 6 
#
# 1 0.018829 -0.002779 0.000791 0.000000 0.015310 0.000000
# 2 -0.002779 0.012189 -0.003735 0.000000 -0.000665 0.000000
# 3 0.000791 -0.003735 0.011997 0.000000 0.010794 0.000000
# 4 0.000000 0.000000 0.000000 0.028171 0.000000 0.038715
# 5 0.015310 -0.000665 0.010794 0.000000 0.049930 0.000000
# 6 0.000000 0.000000 0.000000 0.038715 0.000000 0.305986
#
#
# Mechanical properties :
#
#
# Convention : Reuss Voigt Hill
#
# Bulk Modulus (GPa) = 31.67761 56.93753 44.30757
# Shear Modulus (GPa) = 11.13411 30.72822 20.93116
#
# Velocity S-wave (km/s) = 2.29905 3.81934 3.15222
# Velocity P-wave (km/s) = 4.69953 6.81758 5.85512
#
# Compressibility (1/GPa) = 0.03156804
#
# Stress axis : x y z
#
# Youngs Moduli (GPa) = 53.10995 82.04316 83.35270
#
# Poissons Ratio (x) = 0.22798 -0.06590
# Poissons Ratio (y) = 0.14758 0.31134
# Poissons Ratio (z) = -0.04199 0.30645
#
# Static dielectric constant tensor:
#      x y z
#    x 1.860320 0.000000 -0.050430 
#    y 0.000000 1.796140 0.000000 
#    z -0.050430 0.000000 1.845530 
# 
# From -- ./inp_files/60631.got.cif
#   From: 2010.05.17/outbox.cif.g08.bks.cpg/sg15_31_cif.got.tgz:60631.got - 2010.06.03 18:47:42.
