data_PCOD9303906
_publ_section_title
;
Structure prediction by ZEFSAII (Michael W. Deem and Ramdas Pophale) SiO2 
 PCOD9303906
Probable space group: C 2/C
;
_chemical_formula_sum "Si O2"
_cell_formula_units_Z 32
_cell_length_a 31.790784
_cell_length_b 8.409219
_cell_length_c 9.889909
_cell_angle_alpha 90.000000
_cell_angle_beta 29.392668
_cell_angle_gamma 90.000000
_cell_volume 1297.618128
_symmetry_space_group_name_H-M "C 2/C"
_symmetry_group_IT_number 15
_symmetry_cell_setting 'monoclinic'
loop_
_space_group_symop_operation_xyz
x,y,z
-x,y,1/2-z
-x,-y,-z
x,-y,1/2+z
1/2+x,1/2+y,z
1/2-x,1/2+y,1/2-z
1/2-x,1/2-y,-z
1/2+x,1/2-y,1/2+z
loop_
_atom_site_type_symbol
_atom_site_label
_atom_site_fract_x
_atom_site_fract_y
_atom_site_fract_z
Si Si1 0.427385 0.632258 0.205219
Si Si2 0.867420 0.672545 0.092883
Si Si3 0.318779 0.344388 0.497226
Si Si4 0.347214 0.190571 0.690885
O O1 0.343657 0.522934 0.467656
O O2 0.411191 0.713171 0.107319
O O3 0.438788 0.763028 0.290194
O O4 0.500000 0.500000 0.000000
O O5 0.782573 0.669451 0.235910
O O6 0.854880 0.796042 0.249814
O O7 0.867212 0.495357 0.152829
O O8 0.355978 0.232568 0.509046
O O9 0.250000 0.250000 0.000000
#
# Coordination Sequence:
#
# PCOD9303906 Si02
#       4
#     8   8   8   8
#     4  12  27  47  71 110 159 202 250 322 402 456
#     4  11  23  43  72 109 150 197 264 322 371 464
#     4  11  23  40  72 110 149 196 260 317 380 461
#     4  12  23  42  75 112 149 199 261 317 386 470
#
# _framework density 24.660567
#
# number of rings (size 3 to 8) (size 9 to 14) (size 15 to 20)
#    0.000    0.500    5.000    3.000    3.500    4.000 
#    0.000    7.500    0.000    0.000    0.000    0.000 
#    0.000    0.000    0.000    0.000    0.000    0.000 
#
# Total GULP energy -89638.290616 kJ/mol
# GULP energy per Si atom -5602.393164 kJ/mol
# Density = 2.460444 g / cm^3
# Si number density = 24.660567 Si / 1000 Ang^3
#
#
#
# Elastic Constant Matrix: (Units=GPa)
#
#
# Indices 1 2 3 4 5 6 
#
# 1 116.8935 30.2709 25.0836 0.0000 -2.9587 0.0000
# 2 30.2709 153.1234 33.9327 0.0000 -8.5613 0.0000
# 3 25.0836 33.9327 70.3958 0.0000 -6.9893 0.0000
# 4 0.0000 0.0000 0.0000 41.1658 0.0000 2.5918
# 5 -2.9587 -8.5613 -6.9893 0.0000 25.9557 0.0000
# 6 0.0000 0.0000 0.0000 2.5918 0.0000 56.8536
#
#
#
# Elastic Compliance Matrix: (Units=1/GPa)
#
#
# Indices 1 2 3 4 5 6 
#
# 1 0.009475 -0.001263 -0.002776 0.000000 -0.000084 0.000000
# 2 -0.001263 0.007537 -0.003032 0.000000 0.001526 0.000000
# 3 -0.002776 -0.003032 0.016979 0.000000 0.003256 0.000000
# 4 0.000000 0.000000 0.000000 0.024362 0.000000 -0.001111
# 5 -0.000084 0.001526 0.003256 0.000000 0.039898 0.000000
# 6 0.000000 0.000000 0.000000 -0.001111 0.000000 0.017640
#
#
# Mechanical properties :
#
#
# Convention : Reuss Voigt Hill
#
# Bulk Modulus (GPa) = 50.37523 57.66524 54.02023
# Shear Modulus (GPa) = 36.59006 41.53674 39.06340
#
# Velocity S-wave (km/s) = 3.85612 4.10852 3.98432
# Velocity P-wave (km/s) = 6.34807 6.77797 6.56654
#
# Compressibility (1/GPa) = 0.01985103
#
# Stress axis : x y z
#
# Youngs Moduli (GPa) = 105.53708 132.67026 58.89555
#
# Poissons Ratio (x) = 0.16752 0.16349
# Poissons Ratio (y) = 0.13326 0.17856
# Poissons Ratio (z) = 0.29296 0.40224
#
# Static dielectric constant tensor:
#      x y z
#    x 1.912310 0.000000 -0.053840 
#    y 0.000000 1.938030 0.000000 
#    z -0.053840 0.000000 2.153190 
# 
# From -- ./inp_files/116095.got.cif
#   From: 2010.05.17/outbox.cif.g08.bks.cpg/sg15_59_cif.got.tgz:116095.got - 2010.06.03 18:47:42.
