data_PCOD9303019
_publ_section_title
;
Structure prediction by ZEFSAII (Michael W. Deem and Ramdas Pophale) SiO2 
 PCOD9303019
Probable space group: C 2/C
;
_chemical_formula_sum "Si O2"
_cell_formula_units_Z 56
_cell_length_a 18.257105
_cell_length_b 17.460378
_cell_length_c 15.002531
_cell_angle_alpha 90.000000
_cell_angle_beta 32.488915
_cell_angle_gamma 90.000000
_cell_volume 2568.826034
_symmetry_space_group_name_H-M "C 2/C"
_symmetry_group_IT_number 15
_symmetry_cell_setting 'monoclinic'
loop_
_space_group_symop_operation_xyz
x,y,z
-x,y,1/2-z
-x,-y,-z
x,-y,1/2+z
1/2+x,1/2+y,z
1/2-x,1/2+y,1/2-z
1/2-x,1/2-y,-z
1/2+x,1/2-y,1/2+z
loop_
_atom_site_type_symbol
_atom_site_label
_atom_site_fract_x
_atom_site_fract_y
_atom_site_fract_z
Si Si1 0.844956 0.180342 0.426229
Si Si2 0.832757 0.014011 0.414557
Si Si3 0.521925 0.673343 0.620409
Si Si4 0.288895 0.811180 0.255732
Si Si5 0.929587 0.694239 0.088345
Si Si6 0.698657 0.440901 0.230877
Si Si7 0.750425 0.934157 0.675158
O O1 0.750000 0.250000 0.500000
O O2 0.817226 0.102144 0.403084
O O3 0.804870 0.159486 0.568043
O O4 0.000000 0.200564 0.250000
O O5 0.000000 0.001676 0.250000
O O6 0.765047 0.966821 0.405116
O O7 0.760695 0.990819 0.580227
O O8 0.500000 0.673130 0.750000
O O9 0.484058 0.755330 0.616607
O O10 0.434407 0.610586 0.654216
O O11 0.669788 0.640119 0.446341
O O12 0.205276 0.737601 0.308724
O O13 0.294898 0.878668 0.177263
O O14 0.447892 0.795638 0.109309
O O15 0.888738 0.606655 0.150490
O O16 0.688850 0.514887 0.305496
#
# Coordination Sequence:
#
# PCOD9303019 Si02
#       7
#     8   8   8   8   8   8   8
#     4  11  25  45  69  98 136 176 231 283 335 408
#     4  11  23  42  68 103 133 182 234 280 341 412
#     4  11  22  41  68 101 136 178 234 284 343 419
#     4  11  24  46  65 105 135 178 228 281 345 409
#     4  11  26  41  71  97 138 183 222 281 353 413
#     4  11  23  39  70  97 137 177 228 283 342 408
#     4  12  22  42  67 100 137 180 229 288 343 410
#
# _framework density 21.799842000000002
#
# number of rings (size 3 to 8) (size 9 to 14) (size 15 to 20)
#    0.000    0.857    5.714    1.286    2.000    3.429 
#    0.000    0.000    0.000    0.000    0.000    0.000 
#    0.000    0.000    0.000    0.000    0.000    0.000 
#
# Total GULP energy -156041.896658 kJ/mol
# GULP energy per Si atom -5572.924881 kJ/mol
# Density = 2.175022 g / cm^3
# Si number density = 21.799842 Si / 1000 Ang^3
#
#
#
# Elastic Constant Matrix: (Units=GPa)
#
#
# Indices 1 2 3 4 5 6 
#
# 1 49.7587 29.3170 32.2019 -0.0001 17.9832 0.0002
# 2 29.3170 106.3703 29.6572 0.0000 -4.8893 0.0000
# 3 32.2019 29.6572 117.2469 -0.0001 -8.7978 0.0002
# 4 -0.0001 0.0000 -0.0001 29.8748 0.0001 0.7949
# 5 17.9832 -4.8893 -8.7978 0.0001 37.1122 -0.0002
# 6 0.0002 0.0000 0.0002 0.7949 -0.0002 31.2199
#
#
#
# Elastic Compliance Matrix: (Units=1/GPa)
#
#
# Indices 1 2 3 4 5 6 
#
# 1 0.041163 -0.009454 -0.010695 0.000000 -0.023727 0.000000
# 2 -0.009454 0.012306 -0.000052 0.000000 0.006190 0.000000
# 3 -0.010695 -0.000052 0.012083 0.000000 0.008040 0.000000
# 4 0.000000 0.000000 0.000000 0.033496 0.000000 -0.000853
# 5 -0.023727 0.006190 0.008040 0.000000 0.041164 0.000000
# 6 0.000000 0.000000 0.000000 -0.000853 0.000000 0.032053
#
#
# Mechanical properties :
#
#
# Convention : Reuss Voigt Hill
#
# Bulk Modulus (GPa) = 39.75950 50.63646 45.19798
# Shear Modulus (GPa) = 22.61950 31.78803 27.20377
#
# Velocity S-wave (km/s) = 3.22467 3.82275 3.53638
# Velocity P-wave (km/s) = 5.66946 6.53933 6.11987
#
# Compressibility (1/GPa) = 0.02515122
#
# Stress axis : x y z
#
# Youngs Moduli (GPa) = 24.29344 81.26332 82.76348
#
# Poissons Ratio (x) = 0.76826 0.88512
# Poissons Ratio (y) = 0.22967 0.00428
# Poissons Ratio (z) = 0.25981 0.00420
#
# Static dielectric constant tensor:
#      x y z
#    x 1.958220 0.000000 0.520220 
#    y 0.000000 1.848400 0.000000 
#    z 0.520220 0.000000 4.295810 
# 
# From -- ./inp_files/169105.got.cif
#   From: 2010.05.17/outbox.cif.g08.bks.cpg/sg15_85_cif.got.tgz:169105.got - 2010.06.03 18:47:42.
