data_PCOD9303277
_publ_section_title
;
Structure prediction by ZEFSAII (Michael W. Deem and Ramdas Pophale) SiO2 
 PCOD9303277
Probable space group: C 2/C
;
_chemical_formula_sum "Si O2"
_cell_formula_units_Z 48
_cell_length_a 8.534506
_cell_length_b 10.362571
_cell_length_c 24.187199
_cell_angle_alpha 90.000000
_cell_angle_beta 104.702432
_cell_angle_gamma 90.000000
_cell_volume 2069.061300
_symmetry_space_group_name_H-M "C 2/C"
_symmetry_group_IT_number 15
_symmetry_cell_setting 'monoclinic'
loop_
_space_group_symop_operation_xyz
x,y,z
-x,y,1/2-z
-x,-y,-z
x,-y,1/2+z
1/2+x,1/2+y,z
1/2-x,1/2+y,1/2-z
1/2-x,1/2-y,-z
1/2+x,1/2-y,1/2+z
loop_
_atom_site_type_symbol
_atom_site_label
_atom_site_fract_x
_atom_site_fract_y
_atom_site_fract_z
Si Si1 0.265625 0.011085 0.657899
Si Si2 0.197502 0.250187 0.133684
Si Si3 0.079990 0.776310 0.816616
Si Si4 0.466473 0.861665 0.021169
Si Si5 0.106597 0.106504 0.542345
Si Si6 0.691129 0.482984 0.279450
O O1 0.316216 0.872195 0.637115
O O2 0.379908 0.134677 0.659032
O O3 0.115634 0.062638 0.606867
O O4 0.263653 0.004724 0.724592
O O5 0.258702 0.358629 0.181221
O O6 0.052783 0.173829 0.152670
O O7 0.112025 0.315638 0.074323
O O8 0.000000 0.759359 0.750000
O O9 0.213793 0.885788 0.817308
O O10 0.290336 0.879294 0.034752
O O11 0.460072 0.749117 0.974696
O O12 0.500000 0.000000 0.000000
O O13 0.000000 0.000000 0.500000
O O14 0.500000 0.471322 0.250000
#
# Coordination Sequence:
#
# PCOD9303277 Si02
#       6
#     8   8   8   8   8   8
#     4  12  22  42  68  99 130 176 220 273 337 400
#     4  12  24  44  67  99 137 172 224 275 333 404
#     4  11  22  43  67  95 136 177 217 266 337 404
#     4  11  27  47  70 100 132 183 232 284 339 399
#     4  11  25  46  71  97 136 180 228 283 339 399
#     4  11  24  42  67 102 138 174 214 277 338 403
#
# _framework density 23.198927000000001
#
# number of rings (size 3 to 8) (size 9 to 14) (size 15 to 20)
#    0.000    0.667    8.333    0.000    2.333    2.667 
#    6.000    0.000    0.000    0.000    0.000    0.000 
#    0.000    0.000    0.000    0.000    0.000    0.000 
#
# Total GULP energy -133865.083085 kJ/mol
# GULP energy per Si atom -5577.711795 kJ/mol
# Density = 2.314613 g / cm^3
# Si number density = 23.198927 Si / 1000 Ang^3
#
#
#
# Elastic Constant Matrix: (Units=GPa)
#
#
# Indices 1 2 3 4 5 6 
#
# 1 22.1671 21.6924 -0.5237 0.0000 7.3991 0.0000
# 2 21.6924 237.0902 84.4823 0.0000 20.8491 0.0000
# 3 -0.5237 84.4823 102.2938 0.0000 19.5814 0.0000
# 4 0.0000 0.0000 0.0000 46.2146 0.0000 -0.8013
# 5 7.3991 20.8491 19.5814 0.0000 24.1167 0.0000
# 6 0.0000 0.0000 0.0000 -0.8013 0.0000 27.6133
#
#
#
# Elastic Compliance Matrix: (Units=1/GPa)
#
#
# Indices 1 2 3 4 5 6 
#
# 1 0.059174 -0.007262 0.010152 0.000000 -0.020120 0.000000
# 2 -0.007262 0.006907 -0.005949 0.000000 0.001088 0.000000
# 3 0.010152 -0.005949 0.016994 0.000000 -0.011770 0.000000
# 4 0.000000 0.000000 0.000000 0.021649 0.000000 0.000628
# 5 -0.020120 0.001088 -0.011770 0.000000 0.056254 0.000000
# 6 0.000000 0.000000 0.000000 0.000628 0.000000 0.036233
#
#
# Mechanical properties :
#
#
# Convention : Reuss Voigt Hill
#
# Bulk Modulus (GPa) = 12.99444 63.65033 38.32239
# Shear Modulus (GPa) = 21.83578 36.64893 29.24236
#
# Velocity S-wave (km/s) = 3.07129 3.97894 3.55421
# Velocity P-wave (km/s) = 4.26504 6.97177 5.77911
#
# Compressibility (1/GPa) = 0.07695598
#
# Stress axis : x y z
#
# Youngs Moduli (GPa) = 16.89920 144.79016 58.84343
#
# Poissons Ratio (x) = 1.05152 -0.59739
# Poissons Ratio (y) = 0.12273 0.35008
# Poissons Ratio (z) = -0.17156 0.86142
#
# Static dielectric constant tensor:
#      x y z
#    x 1.948510 0.000000 0.016780 
#    y 0.000000 1.935200 0.000000 
#    z 0.016780 0.000000 1.869110 
# 
# From -- ./inp_files/268097.got.cif
#   From: 2010.05.17/outbox.cif.g08.bks.cpg/sg15_135_cif.got.tgz:268097.got - 2010.06.03 18:47:42.
