data_PCOD9303592
_publ_section_title
;
Structure prediction by ZEFSAII (Michael W. Deem and Ramdas Pophale) SiO2 
 PCOD9303592
Probable space group: C 2/C
;
_chemical_formula_sum "Si O2"
_cell_formula_units_Z 56
_cell_length_a 16.903856
_cell_length_b 20.158088
_cell_length_c 14.335447
_cell_angle_alpha 90.000000
_cell_angle_beta 150.064912
_cell_angle_gamma 90.000000
_cell_volume 2437.603346
_symmetry_space_group_name_H-M "C 2/C"
_symmetry_group_IT_number 15
_symmetry_cell_setting 'monoclinic'
loop_
_space_group_symop_operation_xyz
x,y,z
-x,y,1/2-z
-x,-y,-z
x,-y,1/2+z
1/2+x,1/2+y,z
1/2-x,1/2+y,1/2-z
1/2-x,1/2-y,-z
1/2+x,1/2-y,1/2+z
loop_
_atom_site_type_symbol
_atom_site_label
_atom_site_fract_x
_atom_site_fract_y
_atom_site_fract_z
Si Si1 0.885513 0.231908 0.565938
Si Si2 0.148058 0.581249 0.125553
Si Si3 0.823249 0.790193 0.788980
Si Si4 0.613390 0.130378 0.500167
Si Si5 0.130315 0.007262 0.515022
Si Si6 0.165382 0.157478 0.619835
Si Si7 0.766062 0.990151 0.088282
O O1 0.750000 0.250000 0.500000
O O2 0.832659 0.205411 0.412239
O O3 0.965073 0.302428 0.615910
O O4 0.000000 0.189600 0.750000
O O5 0.197889 0.653255 0.138679
O O6 0.274879 0.546117 0.325310
O O7 0.154739 0.535174 0.040827
O O8 0.990716 0.594495 0.026051
O O9 0.782277 0.717287 0.708918
O O10 0.993008 0.813326 0.928359
O O11 0.779446 0.152829 0.716647
O O12 0.670745 0.078519 0.483492
O O13 0.161071 0.081964 0.582359
O O14 0.197457 0.010249 0.479158
O O15 0.941815 0.990059 0.316844
#
# Coordination Sequence:
#
# PCOD9303592 Si02
#       7
#     8   8   8   8   8   8   8
#     4  11  23  39  58  96 137 170 217 271 323 406
#     4  12  23  45  69 101 135 181 221 282 334 406
#     4  11  23  40  71  91 133 185 222 270 347 391
#     4  11  24  40  65  99 139 176 220 266 341 407
#     4  11  25  43  70  98 137 171 232 280 343 391
#     4  11  22  46  65  99 130 178 225 275 333 408
#     4  11  24  43  68  99 131 179 221 283 337 402
#
# _framework density 22.973385
#
# number of rings (size 3 to 8) (size 9 to 14) (size 15 to 20)
#    0.000    0.857    2.857    6.000    4.000    0.000 
#    0.000    0.714    0.000    0.000    0.000    0.000 
#    0.000    0.000    0.000    0.000    0.000    0.000 
#
# Total GULP energy -156254.773941 kJ/mol
# GULP energy per Si atom -5580.527641 kJ/mol
# Density = 2.292110 g / cm^3
# Si number density = 22.973385 Si / 1000 Ang^3
#
#
#
# Elastic Constant Matrix: (Units=GPa)
#
#
# Indices 1 2 3 4 5 6 
#
# 1 67.7494 10.1037 -2.7326 0.0000 6.6253 0.0000
# 2 10.1037 120.3776 15.0022 0.0000 4.9756 0.0000
# 3 -2.7326 15.0022 37.6453 0.0000 9.7865 0.0000
# 4 0.0000 0.0000 0.0000 31.8565 0.0000 6.4424
# 5 6.6253 4.9756 9.7865 0.0000 28.8308 0.0000
# 6 0.0000 0.0000 0.0000 6.4424 0.0000 28.1166
#
#
#
# Elastic Compliance Matrix: (Units=1/GPa)
#
#
# Indices 1 2 3 4 5 6 
#
# 1 0.015512 -0.001478 0.002824 0.000000 -0.004268 0.000000
# 2 -0.001478 0.008885 -0.003661 0.000000 0.000049 0.000000
# 3 0.002824 -0.003661 0.030965 0.000000 -0.010528 0.000000
# 4 0.000000 0.000000 0.000000 0.032916 0.000000 -0.007542
# 5 -0.004268 0.000049 -0.010528 0.000000 0.039231 0.000000
# 6 0.000000 0.000000 0.000000 -0.007542 0.000000 0.037294
#
#
# Mechanical properties :
#
#
# Convention : Reuss Voigt Hill
#
# Bulk Modulus (GPa) = 19.71064 30.05765 24.88415
# Shear Modulus (GPa) = 26.83224 31.32071 29.07647
#
# Velocity S-wave (km/s) = 3.42127 3.69636 3.56147
# Velocity P-wave (km/s) = 4.91987 5.59728 5.26947
#
# Compressibility (1/GPa) = 0.05073401
#
# Stress axis : x y z
#
# Youngs Moduli (GPa) = 64.46638 112.54367 32.29491
#
# Poissons Ratio (x) = 0.16629 -0.09122
# Poissons Ratio (y) = 0.09525 0.11823
# Poissons Ratio (z) = -0.18208 0.41201
#
# Static dielectric constant tensor:
#      x y z
#    x 1.837010 0.000000 0.035070 
#    y 0.000000 1.891520 0.000000 
#    z 0.035070 0.000000 1.934020 
# 
# From -- ./inp_files/50319.got.cif
#   From: 2010.05.17/outbox.cif.g08.bks.cpg/sg15_26_cif.got.tgz:50319.got - 2010.06.03 18:47:42.
