data_PCOD9303113
_publ_section_title
;
Structure prediction by ZEFSAII (Michael W. Deem and Ramdas Pophale) SiO2 
 PCOD9303113
Probable space group: C 2/C
;
_chemical_formula_sum "Si O2"
_cell_formula_units_Z 48
_cell_length_a 15.434816
_cell_length_b 9.506548
_cell_length_c 26.628183
_cell_angle_alpha 90.000000
_cell_angle_beta 144.305168
_cell_angle_gamma 90.000000
_cell_volume 2279.727025
_symmetry_space_group_name_H-M "C 2/C"
_symmetry_group_IT_number 15
_symmetry_cell_setting 'monoclinic'
loop_
_space_group_symop_operation_xyz
x,y,z
-x,y,1/2-z
-x,-y,-z
x,-y,1/2+z
1/2+x,1/2+y,z
1/2-x,1/2+y,1/2-z
1/2-x,1/2-y,-z
1/2+x,1/2-y,1/2+z
loop_
_atom_site_type_symbol
_atom_site_label
_atom_site_fract_x
_atom_site_fract_y
_atom_site_fract_z
Si Si1 0.551802 0.047428 0.828746
Si Si2 0.121521 0.688034 0.197619
Si Si3 0.610060 0.103435 0.081825
Si Si4 0.024388 0.815887 0.645935
Si Si5 0.114517 0.101700 0.525112
Si Si6 0.084137 0.044524 0.743124
O O1 0.500000 0.101572 0.750000
O O2 0.516384 0.160801 0.855190
O O3 0.727228 0.026349 0.906666
O O4 0.457553 0.911365 0.799295
O O5 0.056934 0.650734 0.112480
O O6 0.298909 0.666823 0.278887
O O7 0.102766 0.847324 0.206551
O O8 0.634651 0.249683 0.063737
O O9 0.760694 0.016899 0.163766
O O10 0.500000 0.000000 0.000000
O O11 0.945188 0.859791 0.557955
O O12 0.987719 0.917143 0.675322
O O13 0.000000 0.000000 0.500000
O O14 0.000000 0.113035 0.750000
#
# Coordination Sequence:
#
# PCOD9303113 Si02
#       6
#     8   8   8   8   8   8
#     4  12  24  41  65  95 128 172 220 270 331 398
#     4  11  23  41  65  94 128 170 217 274 331 393
#     4  11  24  44  68  96 131 176 223 275 333 397
#     4  11  22  42  65  92 128 173 219 268 328 399
#     4  12  25  43  66  98 135 176 222 277 334 402
#     4  11  23  41  64  93 129 169 216 270 329 391
#
# _framework density 21.055152
#
# number of rings (size 3 to 8) (size 9 to 14) (size 15 to 20)
#    0.000    0.667    0.000   10.500    0.000    2.667 
#    0.000    2.500    0.000    0.000    0.000    0.000 
#    0.000    0.000    0.000    0.000    0.000    0.000 
#
# Total GULP energy -134231.697978 kJ/mol
# GULP energy per Si atom -5592.987416 kJ/mol
# Density = 2.100723 g / cm^3
# Si number density = 21.055152 Si / 1000 Ang^3
#
#
#
# Elastic Constant Matrix: (Units=GPa)
#
#
# Indices 1 2 3 4 5 6 
#
# 1 95.8297 38.8333 43.5637 0.0000 9.6464 0.0000
# 2 38.8333 72.6043 34.9027 0.0000 5.3654 0.0000
# 3 43.5637 34.9027 104.4686 0.0000 -10.3758 0.0000
# 4 0.0000 0.0000 0.0000 31.2797 0.0000 -14.6537
# 5 9.6464 5.3654 -10.3758 0.0000 40.0463 0.0000
# 6 0.0000 0.0000 0.0000 -14.6537 0.0000 35.9697
#
#
#
# Elastic Compliance Matrix: (Units=1/GPa)
#
#
# Indices 1 2 3 4 5 6 
#
# 1 0.015362 -0.005503 -0.004990 0.000000 -0.004256 0.000000
# 2 -0.005503 0.018937 -0.004262 0.000000 -0.002316 0.000000
# 3 -0.004990 -0.004262 0.013603 0.000000 0.005298 0.000000
# 4 0.000000 0.000000 0.000000 0.039510 0.000000 0.016096
# 5 -0.004256 -0.002316 0.005298 0.000000 0.027679 0.000000
# 6 0.000000 0.000000 0.000000 0.016096 0.000000 0.034359
#
#
# Mechanical properties :
#
#
# Convention : Reuss Voigt Hill
#
# Bulk Modulus (GPa) = 54.37272 56.38911 55.38091
# Shear Modulus (GPa) = 27.01376 31.83266 29.42321
#
# Velocity S-wave (km/s) = 3.58578 3.89250 3.74228
# Velocity P-wave (km/s) = 6.55925 6.85870 6.71065
#
# Compressibility (1/GPa) = 0.01839158
#
# Stress axis : x y z
#
# Youngs Moduli (GPa) = 65.09493 52.80760 73.51218
#
# Poissons Ratio (x) = 0.29061 0.36684
# Poissons Ratio (y) = 0.35823 0.31330
# Poissons Ratio (z) = 0.32483 0.22506
#
# Static dielectric constant tensor:
#      x y z
#    x 1.750980 0.000000 -0.000760 
#    y 0.000000 1.770870 0.000000 
#    z -0.000760 0.000000 1.749410 
# 
# From -- ./inp_files/295436.got.cif
#   From: 2010.05.17/outbox.cif.g08.bks.cpg/sg15_148_cif.got.tgz:295436.got - 2010.06.03 18:47:42.
