data_PCOD9303399
_publ_section_title
;
Structure prediction by ZEFSAII (Michael W. Deem and Ramdas Pophale) SiO2 
 PCOD9303399
Probable space group: C 2/C
;
_chemical_formula_sum "Si O2"
_cell_formula_units_Z 48
_cell_length_a 14.059877
_cell_length_b 14.615819
_cell_length_c 9.496017
_cell_angle_alpha 90.000000
_cell_angle_beta 94.175041
_cell_angle_gamma 90.000000
_cell_volume 1946.220917
_symmetry_space_group_name_H-M "C 2/C"
_symmetry_group_IT_number 15
_symmetry_cell_setting 'monoclinic'
loop_
_space_group_symop_operation_xyz
x,y,z
-x,y,1/2-z
-x,-y,-z
x,-y,1/2+z
1/2+x,1/2+y,z
1/2-x,1/2+y,1/2-z
1/2-x,1/2-y,-z
1/2+x,1/2-y,1/2+z
loop_
_atom_site_type_symbol
_atom_site_label
_atom_site_fract_x
_atom_site_fract_y
_atom_site_fract_z
Si Si1 0.431136 0.516510 0.862721
Si Si2 0.167859 0.712447 0.892558
Si Si3 0.714533 0.991941 0.283840
Si Si4 0.347624 0.253719 0.921534
Si Si5 0.978632 0.219060 0.899783
Si Si6 0.101152 0.448595 0.010115
O O1 0.500000 0.479617 0.750000
O O2 0.323012 0.483344 0.832027
O O3 0.421158 0.627320 0.853044
O O4 0.500000 0.500000 0.000000
O O5 0.189410 0.609033 0.844107
O O6 0.162710 0.769965 0.745981
O O7 0.250000 0.750000 0.000000
O O8 0.078286 0.725391 0.987188
O O9 0.682417 0.994730 0.118200
O O10 0.642121 0.056249 0.358511
O O11 0.397833 0.154152 0.934595
O O12 0.250000 0.250000 0.000000
O O13 0.422674 0.313515 0.016579
O O14 0.000000 0.265125 0.750000
O O15 0.000000 0.500000 0.000000
#
# Coordination Sequence:
#
# PCOD9303399 Si02
#       6
#     8   8   8   8   8   8
#     4  11  25  43  67  96 136 180 230 289 348 413
#     4  11  22  44  68 100 135 183 233 286 359 420
#     4  11  24  44  72  98 141 182 232 288 350 428
#     4  11  26  42  70 104 142 183 237 296 355 433
#     4  11  24  43  69  98 139 175 230 288 351 421
#     4  11  25  45  70 102 140 185 235 291 355 425
#
# _framework density 24.663181000000002
#
# number of rings (size 3 to 8) (size 9 to 14) (size 15 to 20)
#    0.000    1.000    1.667    4.000    9.333    8.000 
#    0.000    0.000    0.000    0.000    0.000    0.000 
#    0.000    0.000    0.000    0.000    0.000    0.000 
#
# Total GULP energy -134126.264636 kJ/mol
# GULP energy per Si atom -5588.594360 kJ/mol
# Density = 2.460705 g / cm^3
# Si number density = 24.663181 Si / 1000 Ang^3
#
#
#
# Elastic Constant Matrix: (Units=GPa)
#
#
# Indices 1 2 3 4 5 6 
#
# 1 205.5498 18.1313 57.7728 0.0000 -4.4540 0.0000
# 2 18.1313 57.6610 4.2683 0.0000 9.6136 0.0000
# 3 57.7728 4.2683 182.5061 0.0000 -4.7667 0.0000
# 4 0.0000 0.0000 0.0000 30.9460 0.0000 8.8023
# 5 -4.4540 9.6136 -4.7667 0.0000 44.2447 0.0000
# 6 0.0000 0.0000 0.0000 8.8023 0.0000 29.8227
#
#
#
# Elastic Compliance Matrix: (Units=1/GPa)
#
#
# Indices 1 2 3 4 5 6 
#
# 1 0.005507 -0.001732 -0.001683 0.000000 0.000749 0.000000
# 2 -0.001732 0.018590 0.000003 0.000000 -0.004213 0.000000
# 3 -0.001683 0.000003 0.006025 0.000000 0.000479 0.000000
# 4 0.000000 0.000000 0.000000 0.035276 0.000000 -0.010412
# 5 0.000749 -0.004213 0.000479 0.000000 0.023644 0.000000
# 6 0.000000 0.000000 0.000000 -0.010412 0.000000 0.036605
#
#
# Mechanical properties :
#
#
# Convention : Reuss Voigt Hill
#
# Bulk Modulus (GPa) = 42.92274 67.34022 55.13148
# Shear Modulus (GPa) = 35.65436 45.37230 40.51333
#
# Velocity S-wave (km/s) = 3.80630 4.29380 4.05738
# Velocity P-wave (km/s) = 6.06288 7.20732 6.65973
#
# Compressibility (1/GPa) = 0.02329767
#
# Stress axis : x y z
#
# Youngs Moduli (GPa) = 181.58340 53.79355 165.98836
#
# Poissons Ratio (x) = 0.09317 0.27939
# Poissons Ratio (y) = 0.31451 -0.00058
# Poissons Ratio (z) = 0.30564 -0.00019
#
# Static dielectric constant tensor:
#      x y z
#    x 1.961310 0.000000 0.000380 
#    y 0.000000 2.112380 0.000000 
#    z 0.000380 0.000000 1.985220 
# 
# From -- ./inp_files/39649.got.cif
#   From: 2010.05.17/outbox.cif.g08.bks.cpg/sg15_20_cif.got.tgz:39649.got - 2010.06.03 18:47:42.
