data_PCOD9303893
_publ_section_title
;
Structure prediction by ZEFSAII (Michael W. Deem and Ramdas Pophale) SiO2 
 PCOD9303893
Probable space group: C 2/C
;
_chemical_formula_sum "Si O2"
_cell_formula_units_Z 60
_cell_length_a 26.577320
_cell_length_b 20.521507
_cell_length_c 12.764003
_cell_angle_alpha 90.000000
_cell_angle_beta 24.086766
_cell_angle_gamma 90.000000
_cell_volume 2841.154113
_symmetry_space_group_name_H-M "C 2/C"
_symmetry_group_IT_number 15
_symmetry_cell_setting 'monoclinic'
loop_
_space_group_symop_operation_xyz
x,y,z
-x,y,1/2-z
-x,-y,-z
x,-y,1/2+z
1/2+x,1/2+y,z
1/2-x,1/2+y,1/2-z
1/2-x,1/2-y,-z
1/2+x,1/2-y,1/2+z
loop_
_atom_site_type_symbol
_atom_site_label
_atom_site_fract_x
_atom_site_fract_y
_atom_site_fract_z
Si Si1 0.368035 0.634041 0.558888
Si Si2 0.119293 0.564415 0.970845
Si Si3 0.368104 0.624000 0.972533
Si Si4 0.774571 0.449669 0.587162
Si Si5 0.987571 0.630753 0.646741
Si Si6 0.183355 0.730297 0.236067
Si Si7 0.500000 0.000000 0.500000
Si Si8 0.621064 0.456986 0.259391
O O1 0.248824 0.603117 0.726972
O O2 0.339384 0.707375 0.648288
O O3 0.377812 0.593957 0.648276
O O4 0.500000 0.628740 0.250000
O O5 0.144377 0.499815 0.996456
O O6 0.069656 0.546702 0.951920
O O7 0.000000 0.599367 0.250000
O O8 0.500000 0.653543 0.750000
O O9 0.374010 0.579024 0.859067
O O10 0.331813 0.576380 0.136530
O O11 0.268132 0.678555 0.136648
O O12 0.843319 0.386189 0.413926
O O13 0.734482 0.494813 0.567371
O O14 0.053267 0.692375 0.469892
O O15 0.042625 0.565480 0.490119
O O16 0.000000 0.635395 0.750000
O O17 0.250000 0.750000 0.000000
O O18 0.500000 0.500000 0.500000
#
# Coordination Sequence:
#
# PCOD9303893 Si02
#       8
#     8   8   8   8   8   8   4   8
#     4  11  28  49  71 104 150 200 247 298 368 445
#     4  11  24  42  70 111 146 187 236 307 376 437
#     4  12  25  45  71 104 144 198 237 303 370 450
#     4  11  23  40  70 109 141 182 240 295 378 441
#     4  12  24  42  70 108 140 186 240 299 366 436
#     4  12  27  50  73  96 143 205 253 294 364 437
#     4  12  22  40  74 114 148 172 244 314 388 432
#     4  11  25  43  72 107 150 182 236 300 380 447
#
# _framework density 21.118179000000001
#
# number of rings (size 3 to 8) (size 9 to 14) (size 15 to 20)
#    0.000    0.533    6.667    0.400    9.333    0.533 
#    0.000    0.000    0.000    4.000    0.000    0.000 
#    0.000    0.000    0.000    0.000    0.000    0.000 
#
# Total GULP energy -167034.843165 kJ/mol
# GULP energy per Si atom -5567.828105 kJ/mol
# Density = 2.107011 g / cm^3
# Si number density = 21.118179 Si / 1000 Ang^3
#
#
#
# Elastic Constant Matrix: (Units=GPa)
#
#
# Indices 1 2 3 4 5 6 
#
# 1 105.6470 36.1984 52.4775 0.0001 -5.3901 -0.0001
# 2 36.1984 106.6544 48.1548 0.0001 1.6448 0.0000
# 3 52.4775 48.1548 131.7123 0.0003 10.2663 -0.0001
# 4 0.0001 0.0001 0.0003 49.4764 -0.0001 2.3738
# 5 -5.3901 1.6448 10.2663 -0.0001 30.3821 0.0001
# 6 -0.0001 0.0000 -0.0001 2.3738 0.0001 19.8053
#
#
#
# Elastic Compliance Matrix: (Units=1/GPa)
#
#
# Indices 1 2 3 4 5 6 
#
# 1 0.012707 -0.002335 -0.004513 0.000000 0.003906 0.000000
# 2 -0.002335 0.011678 -0.003346 0.000000 0.000084 0.000000
# 3 -0.004513 -0.003346 0.010950 0.000000 -0.004320 0.000000
# 4 0.000000 0.000000 0.000000 0.020329 0.000000 -0.002436
# 5 0.003906 0.000084 -0.004320 0.000000 0.035062 0.000000
# 6 0.000000 0.000000 0.000000 -0.002436 0.000000 0.050783
#
#
# Mechanical properties :
#
#
# Convention : Reuss Voigt Hill
#
# Bulk Modulus (GPa) = 66.90418 68.63057 67.76738
# Shear Modulus (GPa) = 29.96165 33.74498 31.85332
#
# Velocity S-wave (km/s) = 3.77073 4.00172 3.88794
# Velocity P-wave (km/s) = 7.12092 7.34307 7.23285
#
# Compressibility (1/GPa) = 0.01494675
#
# Stress axis : x y z
#
# Youngs Moduli (GPa) = 78.69825 85.63175 91.32016
#
# Poissons Ratio (x) = 0.19996 0.41217
# Poissons Ratio (y) = 0.18377 0.30553
# Poissons Ratio (z) = 0.35520 0.28650
#
# Static dielectric constant tensor:
#      x y z
#    x 1.727270 0.000000 0.089130 
#    y 0.000000 1.746820 0.000000 
#    z 0.089130 0.000000 1.577130 
# 
# From -- ./inp_files/119928.got.cif
#   From: 2010.05.17/outbox.cif.g08.bks.cpg/sg15_60_cif.got.tgz:119928.got - 2010.06.03 18:47:42.
