data_PCOD9303950
_publ_section_title
;
Structure prediction by ZEFSAII (Michael W. Deem and Ramdas Pophale) SiO2 
 PCOD9303950
Probable space group: C 2/C
;
_chemical_formula_sum "Si O2"
_cell_formula_units_Z 40
_cell_length_a 6.715663
_cell_length_b 22.947228
_cell_length_c 14.304985
_cell_angle_alpha 90.000000
_cell_angle_beta 103.618654
_cell_angle_gamma 90.000000
_cell_volume 2142.501527
_symmetry_space_group_name_H-M "C 2/C"
_symmetry_group_IT_number 15
_symmetry_cell_setting 'monoclinic'
loop_
_space_group_symop_operation_xyz
x,y,z
-x,y,1/2-z
-x,-y,-z
x,-y,1/2+z
1/2+x,1/2+y,z
1/2-x,1/2+y,1/2-z
1/2-x,1/2-y,-z
1/2+x,1/2-y,1/2+z
loop_
_atom_site_type_symbol
_atom_site_label
_atom_site_fract_x
_atom_site_fract_y
_atom_site_fract_z
Si Si1 0.173819 0.269524 0.844185
Si Si2 0.900768 0.108605 0.341292
Si Si3 0.420805 0.011089 0.141806
Si Si4 0.536932 0.214212 0.980339
Si Si5 0.177791 0.415097 0.521998
O O1 0.260442 0.334088 0.832644
O O2 0.379460 0.231474 0.880478
O O3 0.000000 0.252945 0.750000
O O4 0.063015 0.268980 0.931764
O O5 0.761945 0.053884 0.350482
O O6 0.000000 0.106341 0.250000
O O7 0.091516 0.105717 0.432860
O O8 0.500000 0.987996 0.250000
O O9 0.584644 0.050825 0.102096
O O10 0.346819 0.960243 0.065236
O O11 0.750000 0.250000 0.000000
O O12 0.562177 0.144768 0.986975
#
# Coordination Sequence:
#
# PCOD9303950 Si02
#       5
#     8   8   8   8   8
#     4  11  24  40  64  98 127 163 218 268 311 382
#     4  12  21  38  68  95 121 165 220 260 312 376
#     4  11  23  42  62  93 128 162 217 262 316 383
#     4  11  23  43  65  93 130 166 211 263 326 380
#     4  11  23  41  66  90 128 172 205 268 316 376
#
# _framework density 18.669765000000002
#
# number of rings (size 3 to 8) (size 9 to 14) (size 15 to 20)
#    0.000    0.800    6.000    2.400    0.000    0.000 
#    3.600    0.000    0.000    0.000    0.000    0.000 
#    0.000    0.000    0.000    0.000    0.000    0.000 
#
# Total GULP energy -111658.769811 kJ/mol
# GULP energy per Si atom -5582.938491 kJ/mol
# Density = 1.862727 g / cm^3
# Si number density = 18.669765 Si / 1000 Ang^3
#
#
#
# Elastic Constant Matrix: (Units=GPa)
#
#
# Indices 1 2 3 4 5 6 
#
# 1 -123.4532 -362.1513 19.9621 0.0000 -67.4035 0.0000
# 2 -362.1513 -602.7612 -9.2238 0.0000 -122.2929 0.0000
# 3 19.9621 -9.2238 131.0350 0.0000 9.8044 0.0000
# 4 0.0000 0.0000 0.0000 -0.4361 0.0000 -98.9726
# 5 -67.4035 -122.2929 9.8044 0.0000 17.6003 0.0000
# 6 0.0000 0.0000 0.0000 -98.9726 0.0000 -410.1605
#
#
#
# Elastic Compliance Matrix: (Units=1/GPa)
#
#
# Indices 1 2 3 4 5 6 
#
# 1 0.011258 -0.006522 -0.002097 0.000000 -0.001035 0.000000
# 2 -0.006522 0.003103 0.001532 0.000000 -0.004272 0.000000
# 3 -0.002097 0.001532 0.008205 0.000000 -0.001959 0.000000
# 4 0.000000 0.000000 0.000000 0.042651 0.000000 -0.010292
# 5 -0.001035 -0.004272 -0.001959 0.000000 0.024266 0.000000
# 6 0.000000 0.000000 0.000000 -0.010292 0.000000 0.000045
#
#
# Mechanical properties :
#
#
# Convention : Reuss Voigt Hill
#
# Bulk Modulus (GPa) = 119.16504 -144.22283 -12.52889
# Shear Modulus (GPa) = 46.94877 -94.85034 -23.95079
#
# Velocity S-wave (km/s) = 5.02011 -7.13544 -3.58560
# Velocity P-wave (km/s) = 9.87767 12.05418 4.88542
#
# Compressibility (1/GPa) = 0.00839172
#
# Stress axis : x y z
#
# Youngs Moduli (GPa) = 88.82676 322.30030 121.87205
#
# Poissons Ratio (x) = 2.10203 0.25553
# Poissons Ratio (y) = 0.57932 -0.18666
# Poissons Ratio (z) = 0.18624 -0.49363
#
# Static dielectric constant tensor:
#      x y z
#    x 1.667890 0.000000 0.036450 
#    y 0.000000 1.616730 0.000000 
#    z 0.036450 0.000000 1.669360 
# 
# From -- ./inp_files/73074.got.cif
#   From: 2010.05.17/outbox.cif.g08.bks.cpg/sg15_37_cif.got.tgz:73074.got - 2010.06.03 18:47:42.
