data_PCOD9303910
_publ_section_title
;
Structure prediction by ZEFSAII (Michael W. Deem and Ramdas Pophale) SiO2 
 PCOD9303910
Probable space group: C 2/C
;
_chemical_formula_sum "Si O2"
_cell_formula_units_Z 56
_cell_length_a 8.562892
_cell_length_b 33.236244
_cell_length_c 19.280339
_cell_angle_alpha 90.000000
_cell_angle_beta 147.595088
_cell_angle_gamma 90.000000
_cell_volume 2940.560787
_symmetry_space_group_name_H-M "C 2/C"
_symmetry_group_IT_number 15
_symmetry_cell_setting 'monoclinic'
loop_
_space_group_symop_operation_xyz
x,y,z
-x,y,1/2-z
-x,-y,-z
x,-y,1/2+z
1/2+x,1/2+y,z
1/2-x,1/2+y,1/2-z
1/2-x,1/2-y,-z
1/2+x,1/2-y,1/2+z
loop_
_atom_site_type_symbol
_atom_site_label
_atom_site_fract_x
_atom_site_fract_y
_atom_site_fract_z
Si Si1 0.431404 0.969743 0.367397
Si Si2 0.549526 0.880067 0.128176
Si Si3 0.290426 0.372587 0.068744
Si Si4 0.765344 0.302271 0.056642
Si Si5 0.068291 0.775533 0.697197
Si Si6 0.326724 0.536600 0.571755
Si Si7 0.785067 0.707289 0.051910
O O1 0.555907 0.925400 0.400224
O O2 0.300353 0.966502 0.396879
O O3 0.165957 0.974036 0.213204
O O4 0.662976 0.005373 0.460591
O O5 0.580655 0.871658 0.057533
O O6 0.877452 0.874137 0.279151
O O7 0.353704 0.848148 0.093781
O O8 0.265563 0.417286 0.026110
O O9 0.240188 0.332918 0.004339
O O10 0.679030 0.292504 0.945521
O O11 0.479230 0.293465 0.993484
O O12 0.028555 0.272774 0.176640
O O13 0.386959 0.790385 0.795632
O O14 0.000000 0.787339 0.750000
O O15 0.750000 0.750000 0.000000
#
# Coordination Sequence:
#
# PCOD9303910 Si02
#       7
#     8   8   8   8   8   8   8
#     4   8  14  27  50  75 110 139 186 231 287 333
#     4   9  18  34  54  82 110 148 190 236 280 337
#     4   9  19  33  55  81 113 148 191 234 281 335
#     4  11  24  39  58  82 112 147 190 239 284 338
#     4  11  23  41  58  81 110 146 190 237 281 339
#     4   8  14  28  48  78 107 144 181 236 283 333
#     4  12  23  38  57  81 112 151 188 234 283 333
#
# _framework density 19.043987999999999
#
# number of rings (size 3 to 8) (size 9 to 14) (size 15 to 20)
#    0.000    2.286    1.429    3.857    2.000    0.000 
#    2.571    0.000    0.000    0.857    0.000    0.000 
#    0.000    0.000    0.000    0.000    0.000    0.000 
#
# Total GULP energy -156094.919139 kJ/mol
# GULP energy per Si atom -5574.818541 kJ/mol
# Density = 1.900064 g / cm^3
# Si number density = 19.043988 Si / 1000 Ang^3
#
#
#
# Elastic Constant Matrix: (Units=GPa)
#
#
# Indices 1 2 3 4 5 6 
#
# 1 51.7591 34.5963 19.3614 0.0000 6.5442 0.0000
# 2 34.5963 167.6558 61.3280 0.0000 5.6294 0.0000
# 3 19.3614 61.3280 58.1654 -0.0001 1.4240 0.0000
# 4 0.0000 0.0000 -0.0001 28.6730 0.0000 0.0317
# 5 6.5442 5.6294 1.4240 0.0000 17.5531 0.0000
# 6 0.0000 0.0000 0.0000 0.0317 0.0000 23.7394
#
#
#
# Elastic Compliance Matrix: (Units=1/GPa)
#
#
# Indices 1 2 3 4 5 6 
#
# 1 0.024029 -0.003003 -0.004645 0.000000 -0.007618 0.000000
# 2 -0.003003 0.010177 -0.009698 0.000000 -0.001357 0.000000
# 3 -0.004645 -0.009698 0.028902 0.000000 0.002497 0.000000
# 4 0.000000 0.000000 0.000000 0.034876 0.000000 -0.000047
# 5 -0.007618 -0.001357 0.002497 0.000000 0.060043 0.000000
# 6 0.000000 0.000000 0.000000 -0.000047 0.000000 0.042124
#
#
# Mechanical properties :
#
#
# Convention : Reuss Voigt Hill
#
# Bulk Modulus (GPa) = 35.19163 56.46130 45.82647
# Shear Modulus (GPa) = 20.46528 24.81275 22.63902
#
# Velocity S-wave (km/s) = 3.28171 3.61351 3.45160
# Velocity P-wave (km/s) = 5.73400 6.86456 6.32459
#
# Compressibility (1/GPa) = 0.02841585
#
# Stress axis : x y z
#
# Youngs Moduli (GPa) = 41.61706 98.25745 34.59910
#
# Poissons Ratio (x) = 0.29511 0.16072
# Poissons Ratio (y) = 0.12499 0.33553
# Poissons Ratio (z) = 0.19332 0.95288
#
# Static dielectric constant tensor:
#      x y z
#    x 1.682930 0.000000 -0.005170 
#    y 0.000000 1.681690 0.000000 
#    z -0.005170 0.000000 1.665600 
# 
# From -- ./inp_files/82488.got.cif
#   From: 2010.05.17/outbox.cif.g08.bks.cpg/sg15_42_cif.got.tgz:82488.got - 2010.06.03 18:47:42.
