data_PCOD9303077
_publ_section_title
;
Structure prediction by ZEFSAII (Michael W. Deem and Ramdas Pophale) SiO2 
 PCOD9303077
Probable space group: C 2/C
;
_chemical_formula_sum "Si O2"
_cell_formula_units_Z 56
_cell_length_a 20.667417
_cell_length_b 9.576939
_cell_length_c 12.595690
_cell_angle_alpha 90.000000
_cell_angle_beta 97.378215
_cell_angle_gamma 90.000000
_cell_volume 2472.429891
_symmetry_space_group_name_H-M "C 2/C"
_symmetry_group_IT_number 15
_symmetry_cell_setting 'monoclinic'
loop_
_space_group_symop_operation_xyz
x,y,z
-x,y,1/2-z
-x,-y,-z
x,-y,1/2+z
1/2+x,1/2+y,z
1/2-x,1/2+y,1/2-z
1/2-x,1/2-y,-z
1/2+x,1/2-y,1/2+z
loop_
_atom_site_type_symbol
_atom_site_label
_atom_site_fract_x
_atom_site_fract_y
_atom_site_fract_z
Si Si1 0.000000 0.008835 0.250000
Si Si2 0.790412 0.764605 0.186165
Si Si3 0.240615 0.995048 0.098167
Si Si4 0.071324 0.229154 0.888508
Si Si5 0.887162 0.127427 0.371414
Si Si6 0.500000 0.955319 0.750000
Si Si7 0.270892 0.937219 0.875119
Si Si8 0.362961 0.912748 0.273593
O O1 0.040958 0.911704 0.337005
O O2 0.050004 0.086515 0.183620
O O3 0.752103 0.663392 0.096402
O O4 0.865432 0.743635 0.171074
O O5 0.772910 0.927756 0.170398
O O6 0.842908 0.496765 0.376342
O O7 0.164747 0.001293 0.120156
O O8 0.274698 0.196834 0.298753
O O9 0.247805 0.916499 0.989058
O O10 0.020276 0.352900 0.851920
O O11 0.092268 0.197929 0.012898
O O12 0.856103 0.250415 0.295157
O O13 0.564250 0.046696 0.742516
O O14 0.305742 0.045971 0.678668
#
# Coordination Sequence:
#
# PCOD9303077 Si02
#       8
#     4   8   8   8   8   4   8   8
#     4  11  29  46  74 110 141 193 248 298 358 449
#     4  11  22  41  72 104 146 185 254 298 370 442
#     4  11  23  42  74 104 143 190 246 298 380 432
#     4  11  24  47  75  99 144 200 235 293 375 437
#     4  12  25  48  76 102 148 191 242 306 368 436
#     4  11  23  46  64 106 145 187 248 296 354 443
#     4  11  22  42  70 108 140 193 239 307 365 440
#     4  11  25  41  69 105 139 188 244 307 356 432
#
# _framework density 22.649782999999999
#
# number of rings (size 3 to 8) (size 9 to 14) (size 15 to 20)
#    0.000    0.857    5.714    2.143    4.000    0.571 
#    2.571    4.286    3.143    0.000    0.000    0.000 
#    0.000    0.000    0.000    0.000    0.000    0.000 
#
# Total GULP energy -156190.605527 kJ/mol
# GULP energy per Si atom -5578.235912 kJ/mol
# Density = 2.259823 g / cm^3
# Si number density = 22.649783 Si / 1000 Ang^3
#
#
#
# Elastic Constant Matrix: (Units=GPa)
#
#
# Indices 1 2 3 4 5 6 
#
# 1 156.3772 49.9022 69.3751 0.0000 -30.4399 0.0000
# 2 49.9022 85.6148 45.8792 0.0000 -12.6280 0.0000
# 3 69.3751 45.8792 134.5521 0.0000 -16.7524 0.0000
# 4 0.0000 0.0000 0.0000 27.3942 0.0000 -14.5319
# 5 -30.4399 -12.6280 -16.7524 0.0000 30.8068 0.0000
# 6 0.0000 0.0000 0.0000 -14.5319 0.0000 212.8196
#
#
#
# Elastic Compliance Matrix: (Units=1/GPa)
#
#
# Indices 1 2 3 4 5 6 
#
# 1 0.010246 -0.003149 -0.003335 0.000000 0.007019 0.000000
# 2 -0.003149 0.015608 -0.003528 0.000000 0.001368 0.000000
# 3 -0.003335 -0.003528 0.010473 0.000000 0.000954 0.000000
# 4 0.000000 0.000000 0.000000 0.037876 0.000000 0.002586
# 5 0.007019 0.001368 0.000954 0.000000 0.040475 0.000000
# 6 0.000000 0.000000 0.000000 0.002586 0.000000 0.004875
#
#
# Mechanical properties :
#
#
# Convention : Reuss Voigt Hill
#
# Bulk Modulus (GPa) = 61.33984 78.53968 69.93976
# Shear Modulus (GPa) = 34.47982 68.29664 51.38823
#
# Velocity S-wave (km/s) = 3.90590 5.49716 4.76838
# Velocity P-wave (km/s) = 6.89072 8.66272 7.82703
#
# Compressibility (1/GPa) = 0.01630262
#
# Stress axis : x y z
#
# Youngs Moduli (GPa) = 97.60267 64.06897 95.48172
#
# Poissons Ratio (x) = 0.20178 0.31842
# Poissons Ratio (y) = 0.30740 0.33685
# Poissons Ratio (z) = 0.32549 0.22603
#
# Static dielectric constant tensor:
#      x y z
#    x 1.902430 0.000000 -0.031970 
#    y 0.000000 1.930220 0.000000 
#    z -0.031970 0.000000 1.961840 
# 
# From -- ./inp_files/117204.got.cif
#   From: 2010.05.17/outbox.cif.g08.bks.cpg/sg15_59_cif.got.tgz:117204.got - 2010.06.03 18:47:42.
