data_PCOD9303530
_publ_section_title
;
Structure prediction by ZEFSAII (Michael W. Deem and Ramdas Pophale) SiO2 
 PCOD9303530
Probable space group: C 2/C
;
_chemical_formula_sum "Si O2"
_cell_formula_units_Z 40
_cell_length_a 26.628691
_cell_length_b 7.795336
_cell_length_c 19.580907
_cell_angle_alpha 90.000000
_cell_angle_beta 27.635772
_cell_angle_gamma 90.000000
_cell_volume 1885.360084
_symmetry_space_group_name_H-M "C 2/C"
_symmetry_group_IT_number 15
_symmetry_cell_setting 'monoclinic'
loop_
_space_group_symop_operation_xyz
x,y,z
-x,y,1/2-z
-x,-y,-z
x,-y,1/2+z
1/2+x,1/2+y,z
1/2-x,1/2+y,1/2-z
1/2-x,1/2-y,-z
1/2+x,1/2-y,1/2+z
loop_
_atom_site_type_symbol
_atom_site_label
_atom_site_fract_x
_atom_site_fract_y
_atom_site_fract_z
Si Si1 0.615952 0.596674 0.867958
Si Si2 0.652419 0.322090 0.168201
Si Si3 0.496556 0.990873 0.675168
Si Si4 0.698056 0.133293 0.369913
Si Si5 0.331996 0.282519 0.840700
O O1 0.658718 0.676550 0.744126
O O2 0.624220 0.744765 0.913466
O O3 0.705182 0.459789 0.785734
O O4 0.500000 0.500000 0.000000
O O5 0.555088 0.195290 0.268633
O O6 0.627707 0.524713 0.190112
O O7 0.750000 0.250000 0.000000
O O8 0.500000 0.041566 0.750000
O O9 0.615757 0.997014 0.501318
O O10 0.420364 0.133650 0.732287
O O11 0.762618 0.218641 0.354846
O O12 0.250000 0.250000 0.000000
#
# Coordination Sequence:
#
# PCOD9303530 Si02
#       5
#     8   8   8   8   8
#     4  11  27  49  70 108 147 189 245 297 369 441
#     4  11  24  44  71 104 142 183 243 303 353 435
#     4  12  24  44  72 108 142 186 243 299 363 429
#     4  11  25  44  73 102 143 191 236 298 366 433
#     4  11  22  45  69 104 145 181 239 297 359 434
#
# _framework density 21.216107000000001
#
# number of rings (size 3 to 8) (size 9 to 14) (size 15 to 20)
#    0.000    0.800    4.000    3.600    5.600    1.600 
#    3.600    0.000    0.000    0.000    0.000    0.000 
#    0.000    0.000    0.000    0.000    0.000    0.000 
#
# Total GULP energy -111513.214628 kJ/mol
# GULP energy per Si atom -5575.660731 kJ/mol
# Density = 2.116782 g / cm^3
# Si number density = 21.216107 Si / 1000 Ang^3
#
#
#
# Elastic Constant Matrix: (Units=GPa)
#
#
# Indices 1 2 3 4 5 6 
#
# 1 71.4305 39.7776 38.3428 0.0024 -5.9534 -0.0004
# 2 39.7776 79.7076 40.4510 -0.0011 -8.7949 0.0005
# 3 38.3428 40.4510 122.3894 -0.0003 -19.7995 0.0000
# 4 0.0024 -0.0011 -0.0003 46.6437 0.0016 -5.9687
# 5 -5.9534 -8.7949 -19.7995 0.0016 35.8392 0.0000
# 6 -0.0004 0.0005 0.0000 -5.9687 0.0000 56.6508
#
#
#
# Elastic Compliance Matrix: (Units=1/GPa)
#
#
# Indices 1 2 3 4 5 6 
#
# 1 0.020703 -0.008484 -0.003802 -0.000001 -0.000743 0.000000
# 2 -0.008484 0.018587 -0.003267 0.000001 0.001347 0.000000
# 3 -0.003802 -0.003267 0.011212 0.000000 0.004761 0.000000
# 4 -0.000001 0.000001 0.000000 0.021732 -0.000001 0.002290
# 5 -0.000743 0.001347 0.004761 -0.000001 0.030739 0.000000
# 6 0.000000 0.000000 0.000000 0.002290 0.000000 0.017893
#
#
# Mechanical properties :
#
#
# Convention : Reuss Voigt Hill
#
# Bulk Modulus (GPa) = 51.56138 56.74116 54.15127
# Shear Modulus (GPa) = 31.55799 38.15715 34.85757
#
# Velocity S-wave (km/s) = 3.86094 4.24547 4.05776
# Velocity P-wave (km/s) = 6.65068 7.12983 6.89442
#
# Compressibility (1/GPa) = 0.01939436
#
# Stress axis : x y z
#
# Youngs Moduli (GPa) = 48.30154 53.80229 89.19196
#
# Poissons Ratio (x) = 0.45648 0.33912
# Poissons Ratio (y) = 0.40981 0.29141
# Poissons Ratio (z) = 0.18365 0.17578
#
# Static dielectric constant tensor:
#      x y z
#    x 1.641200 -0.000020 0.075130 
#    y -0.000020 1.757670 0.000010 
#    z 0.075130 0.000010 1.677450 
# 
# From -- ./inp_files/109563.got.cif
#   From: 2010.05.17/outbox.cif.g08.bks.cpg/sg15_55_cif.got.tgz:109563.got - 2010.06.03 18:47:42.
