data_PCOD9303332
_publ_section_title
;
Structure prediction by ZEFSAII (Michael W. Deem and Ramdas Pophale) SiO2 
 PCOD9303332
Probable space group: C 2/C
;
_chemical_formula_sum "Si O2"
_cell_formula_units_Z 24
_cell_length_a 9.260246
_cell_length_b 17.684247
_cell_length_c 9.630351
_cell_angle_alpha 90.000000
_cell_angle_beta 44.230975
_cell_angle_gamma 90.000000
_cell_volume 1100.089851
_symmetry_space_group_name_H-M "C 2/C"
_symmetry_group_IT_number 15
_symmetry_cell_setting 'monoclinic'
loop_
_space_group_symop_operation_xyz
x,y,z
-x,y,1/2-z
-x,-y,-z
x,-y,1/2+z
1/2+x,1/2+y,z
1/2-x,1/2+y,1/2-z
1/2-x,1/2-y,-z
1/2+x,1/2-y,1/2+z
loop_
_atom_site_type_symbol
_atom_site_label
_atom_site_fract_x
_atom_site_fract_y
_atom_site_fract_z
Si Si1 0.213694 0.542069 0.813060
Si Si2 0.267052 0.161589 0.457376
Si Si3 0.982917 0.099221 0.410889
O O1 0.258051 0.577317 0.628805
O O2 0.386767 0.477369 0.702374
O O3 0.259375 0.608091 0.891326
O O4 0.000000 0.500000 0.000000
O O5 0.500000 0.144974 0.250000
O O6 0.250000 0.250000 0.500000
O O7 0.107400 0.142152 0.445319
O O8 0.000000 0.139523 0.250000
#
# Coordination Sequence:
#
# PCOD9303332 Si02
#       3
#     8   8   8
#     4  11  22  43  71 104 139 187 234 286 350 431
#     4  12  25  47  71 101 145 192 235 295 367 425
#     4  11  24  41  71 105 140 178 241 295 348 423
#
# _framework density 21.816399000000001
#
# number of rings (size 3 to 8) (size 9 to 14) (size 15 to 20)
#    0.000    0.667    3.333    7.000    0.000    0.000 
#    0.000    6.667    0.000    0.000    0.000    0.000 
#    0.000    0.000    0.000    0.000    0.000    0.000 
#
# Total GULP energy -67057.249325 kJ/mol
# GULP energy per Si atom -5588.104110 kJ/mol
# Density = 2.176674 g / cm^3
# Si number density = 21.816399 Si / 1000 Ang^3
#
#
#
# Elastic Constant Matrix: (Units=GPa)
#
#
# Indices 1 2 3 4 5 6 
#
# 1 93.8797 46.1773 86.4065 0.0000 14.0024 0.0000
# 2 46.1773 146.4058 46.4277 0.0000 23.9072 0.0000
# 3 86.4065 46.4277 217.1696 0.0000 2.8608 0.0000
# 4 0.0000 0.0000 0.0000 36.2561 0.0000 5.3431
# 5 14.0024 23.9072 2.8608 0.0000 45.8372 0.0000
# 6 0.0000 0.0000 0.0000 5.3431 0.0000 26.5286
#
#
#
# Elastic Compliance Matrix: (Units=1/GPa)
#
#
# Indices 1 2 3 4 5 6 
#
# 1 0.019123 -0.003247 -0.006865 0.000000 -0.003720 0.000000
# 2 -0.003247 0.008575 -0.000496 0.000000 -0.003450 0.000000
# 3 -0.006865 -0.000496 0.007417 0.000000 0.001893 0.000000
# 4 0.000000 0.000000 0.000000 0.028425 0.000000 -0.005725
# 5 -0.003720 -0.003450 0.001893 0.000000 0.024634 0.000000
# 6 0.000000 0.000000 0.000000 -0.005725 0.000000 0.038848
#
#
# Mechanical properties :
#
#
# Convention : Reuss Voigt Hill
#
# Bulk Modulus (GPa) = 71.94906 90.60868 81.27887
# Shear Modulus (GPa) = 32.70729 40.28728 36.49729
#
# Velocity S-wave (km/s) = 3.87616 4.30193 4.09458
# Velocity P-wave (km/s) = 7.28586 8.14236 7.72599
#
# Compressibility (1/GPa) = 0.01389872
#
# Stress axis : x y z
#
# Youngs Moduli (GPa) = 52.29424 116.61825 134.81999
#
# Poissons Ratio (x) = 0.37865 0.92557
# Poissons Ratio (y) = 0.16979 0.06686
# Poissons Ratio (z) = 0.35901 0.05783
#
# Static dielectric constant tensor:
#      x y z
#    x 1.902580 0.000000 0.082190 
#    y 0.000000 1.773810 0.000000 
#    z 0.082190 0.000000 1.947900 
# 
# From -- ./inp_files/22024.got.cif
#   From: 2010.05.17/outbox.cif.g08.bks.cpg/sg15_12_cif.got.tgz:22024.got - 2010.06.03 18:47:42.
