data_PCOD9303683
_publ_section_title
;
Structure prediction by ZEFSAII (Michael W. Deem and Ramdas Pophale) SiO2 
 PCOD9303683
Probable space group: C 2/C
;
_chemical_formula_sum "Si O2"
_cell_formula_units_Z 32
_cell_length_a 11.685180
_cell_length_b 8.081751
_cell_length_c 20.806835
_cell_angle_alpha 90.000000
_cell_angle_beta 121.169441
_cell_angle_gamma 90.000000
_cell_volume 1681.272825
_symmetry_space_group_name_H-M "C 2/C"
_symmetry_group_IT_number 15
_symmetry_cell_setting 'monoclinic'
loop_
_space_group_symop_operation_xyz
x,y,z
-x,y,1/2-z
-x,-y,-z
x,-y,1/2+z
1/2+x,1/2+y,z
1/2-x,1/2+y,1/2-z
1/2-x,1/2-y,-z
1/2+x,1/2-y,1/2+z
loop_
_atom_site_type_symbol
_atom_site_label
_atom_site_fract_x
_atom_site_fract_y
_atom_site_fract_z
Si Si1 0.568951 0.219677 0.575497
Si Si2 0.569267 0.854009 0.337836
Si Si3 0.206172 0.604857 0.067590
Si Si4 0.258087 0.417457 0.960857
O O1 0.528909 0.227135 0.638048
O O2 0.436815 0.177930 0.495364
O O3 0.635691 0.380679 0.563613
O O4 0.669860 0.063531 0.594759
O O5 0.500000 0.879929 0.250000
O O6 0.698987 0.734875 0.369777
O O7 0.622991 0.022570 0.386675
O O8 0.280183 0.554237 0.022296
O O9 0.250000 0.250000 0.000000
#
# Coordination Sequence:
#
# PCOD9303683 Si02
#       4
#     8   8   8   8
#     4   9  18  36  57  77 105 138 179 225 258 308
#     4  11  23  35  51  82 116 141 173 221 277 327
#     4   9  19  35  56  81 104 135 183 224 260 317
#     4   9  18  36  60  79 100 141 187 221 259 313
#
# _framework density 19.033199
#
# number of rings (size 3 to 8) (size 9 to 14) (size 15 to 20)
#    0.000    2.500    0.000    4.500    0.000    6.000 
#    0.000    5.000    0.000    0.000    0.000    0.000 
#    0.000    0.000    0.000    0.000    0.000    0.000 
#
# Total GULP energy -89180.631371 kJ/mol
# GULP energy per Si atom -5573.789461 kJ/mol
# Density = 1.898988 g / cm^3
# Si number density = 19.033199 Si / 1000 Ang^3
#
#
#
# Elastic Constant Matrix: (Units=GPa)
#
#
# Indices 1 2 3 4 5 6 
#
# 1 90.2758 20.4044 22.4177 0.0000 -10.2626 0.0000
# 2 20.4044 66.1939 39.0254 0.0000 9.9698 0.0000
# 3 22.4177 39.0254 132.3580 0.0000 -9.3223 0.0000
# 4 0.0000 0.0000 0.0000 18.2737 0.0000 0.2381
# 5 -10.2626 9.9698 -9.3223 0.0000 13.1530 0.0000
# 6 0.0000 0.0000 0.0000 0.2381 0.0000 46.6423
#
#
#
# Elastic Compliance Matrix: (Units=1/GPa)
#
#
# Indices 1 2 3 4 5 6 
#
# 1 0.014668 -0.007953 0.001149 0.000000 0.018288 0.000000
# 2 -0.007953 0.028268 -0.009403 0.000000 -0.034297 0.000000
# 3 0.001149 -0.009403 0.011261 0.000000 0.016005 0.000000
# 4 0.000000 0.000000 0.000000 0.054727 0.000000 -0.000279
# 5 0.018288 -0.034297 0.016005 0.000000 0.127638 0.000000
# 6 0.000000 0.000000 0.000000 -0.000279 0.000000 0.021441
#
#
# Mechanical properties :
#
#
# Convention : Reuss Voigt Hill
#
# Bulk Modulus (GPa) = 45.91082 50.28032 48.09557
# Shear Modulus (GPa) = 16.79657 29.41247 23.10452
#
# Velocity S-wave (km/s) = 2.97389 3.93533 3.48790
# Velocity P-wave (km/s) = 5.99715 6.86466 6.44552
#
# Compressibility (1/GPa) = 0.02178136
#
# Stress axis : x y z
#
# Youngs Moduli (GPa) = 68.17341 35.37537 88.80543
#
# Poissons Ratio (x) = 0.28134 -0.10200
# Poissons Ratio (y) = 0.54219 0.83508
# Poissons Ratio (z) = -0.07830 0.33265
#
# Static dielectric constant tensor:
#      x y z
#    x 1.722390 0.000000 -0.004050 
#    y 0.000000 1.713860 0.000000 
#    z -0.004050 0.000000 1.614490 
# 
# From -- ./inp_files/140530.got.cif
#   From: 2010.05.17/outbox.cif.g08.bks.cpg/sg15_71_cif.got.tgz:140530.got - 2010.06.03 18:47:42.
