data_PCOD9303131
_publ_section_title
;
Structure prediction by ZEFSAII (Michael W. Deem and Ramdas Pophale) SiO2 
 PCOD9303131
Probable space group: C 2/C
;
_chemical_formula_sum "Si O2"
_cell_formula_units_Z 48
_cell_length_a 12.232896
_cell_length_b 25.089908
_cell_length_c 10.833822
_cell_angle_alpha 90.000000
_cell_angle_beta 143.918210
_cell_angle_gamma 90.000000
_cell_volume 1958.306893
_symmetry_space_group_name_H-M "C 2/C"
_symmetry_group_IT_number 15
_symmetry_cell_setting 'monoclinic'
loop_
_space_group_symop_operation_xyz
x,y,z
-x,y,1/2-z
-x,-y,-z
x,-y,1/2+z
1/2+x,1/2+y,z
1/2-x,1/2+y,1/2-z
1/2-x,1/2-y,-z
1/2+x,1/2-y,1/2+z
loop_
_atom_site_type_symbol
_atom_site_label
_atom_site_fract_x
_atom_site_fract_y
_atom_site_fract_z
Si Si1 0.209307 0.169261 0.946863
Si Si2 0.283341 0.016092 0.797539
Si Si3 0.859262 0.362383 0.325117
Si Si4 0.412181 0.707140 0.036795
Si Si5 0.294429 0.813544 0.787219
Si Si6 0.227839 0.454610 0.949989
O O1 0.296750 0.170172 0.891107
O O2 0.000000 0.189007 0.750000
O O3 0.313421 0.194746 0.158002
O O4 0.209996 0.106322 0.982737
O O5 0.281817 0.078355 0.759404
O O6 0.205188 0.980444 0.616035
O O7 0.210830 0.013731 0.871289
O O8 0.500000 0.000000 0.000000
O O9 0.080271 0.361058 0.543938
O O10 0.769121 0.330089 0.130682
O O11 0.500000 0.717038 0.250000
O O12 0.577020 0.678256 0.112755
O O13 0.360857 0.761761 0.922410
O O14 0.000000 0.453491 0.750000
#
# Coordination Sequence:
#
# PCOD9303131 Si02
#       6
#     8   8   8   8   8   8
#     4  11  22  42  67 100 136 172 222 284 336 393
#     4   9  18  38  64  95 130 174 223 270 328 402
#     4  11  24  45  70 100 137 176 222 280 335 399
#     4  12  27  47  64 100 135 176 228 277 332 398
#     4  12  24  45  72  92 133 180 219 276 339 395
#     4   9  18  37  62  91 132 168 225 270 331 400
#
# _framework density 24.51097
#
# number of rings (size 3 to 8) (size 9 to 14) (size 15 to 20)
#    0.000    1.333    3.333    4.000    0.000    0.667 
#   15.000    4.167    0.000    0.000    0.000    0.000 
#    0.000    0.000    0.000    0.000    0.000    0.000 
#
# Total GULP energy -134353.617191 kJ/mol
# GULP energy per Si atom -5598.067383 kJ/mol
# Density = 2.445518 g / cm^3
# Si number density = 24.510970 Si / 1000 Ang^3
#
#
#
# Elastic Constant Matrix: (Units=GPa)
#
#
# Indices 1 2 3 4 5 6 
#
# 1 69.3277 14.8104 24.3425 0.0000 -19.5878 0.0000
# 2 14.8104 51.7554 27.8748 0.0000 -26.5092 0.0000
# 3 24.3425 27.8748 144.5617 0.0000 -23.0211 0.0000
# 4 0.0000 0.0000 0.0000 23.3870 0.0000 -13.1723
# 5 -19.5878 -26.5092 -23.0211 0.0000 55.1518 0.0000
# 6 0.0000 0.0000 0.0000 -13.1723 0.0000 25.9967
#
#
#
# Elastic Compliance Matrix: (Units=1/GPa)
#
#
# Indices 1 2 3 4 5 6 
#
# 1 0.016632 -0.001523 -0.001803 0.000000 0.004422 0.000000
# 2 -0.001523 0.027225 -0.003209 0.000000 0.011206 0.000000
# 3 -0.001803 -0.003209 0.008026 0.000000 0.001168 0.000000
# 4 0.000000 0.000000 0.000000 0.059835 0.000000 0.030318
# 5 0.004422 0.011206 0.001168 0.000000 0.025576 0.000000
# 6 0.000000 0.000000 0.000000 0.030318 0.000000 0.053828
#
#
# Mechanical properties :
#
#
# Convention : Reuss Voigt Hill
#
# Bulk Modulus (GPa) = 25.76414 44.41115 35.08764
# Shear Modulus (GPa) = 23.02778 34.14824 28.58801
#
# Velocity S-wave (km/s) = 3.06843 3.73658 3.41887
# Velocity P-wave (km/s) = 4.80498 6.06418 5.47093
#
# Compressibility (1/GPa) = 0.03881363
#
# Stress axis : x y z
#
# Youngs Moduli (GPa) = 60.12455 36.73046 124.60078
#
# Poissons Ratio (x) = 0.05596 0.22461
# Poissons Ratio (y) = 0.09160 0.39980
# Poissons Ratio (z) = 0.10838 0.11786
#
# Static dielectric constant tensor:
#      x y z
#    x 2.003360 0.000000 0.025200 
#    y 0.000000 1.904090 0.000000 
#    z 0.025200 0.000000 1.985660 
# 
# From -- ./inp_files/101390.got.cif
#   From: 2010.05.17/outbox.cif.g08.bks.cpg/sg15_51_cif.got.tgz:101390.got - 2010.06.03 18:47:42.
