data_PCOD9303147
_publ_section_title
;
Structure prediction by ZEFSAII (Michael W. Deem and Ramdas Pophale) SiO2 
 PCOD9303147
Probable space group: C 2/C
;
_chemical_formula_sum "Si O2"
_cell_formula_units_Z 56
_cell_length_a 15.063371
_cell_length_b 26.827520
_cell_length_c 8.992838
_cell_angle_alpha 90.000000
_cell_angle_beta 54.524926
_cell_angle_gamma 90.000000
_cell_volume 2959.512698
_symmetry_space_group_name_H-M "C 2/C"
_symmetry_group_IT_number 15
_symmetry_cell_setting 'monoclinic'
loop_
_space_group_symop_operation_xyz
x,y,z
-x,y,1/2-z
-x,-y,-z
x,-y,1/2+z
1/2+x,1/2+y,z
1/2-x,1/2+y,1/2-z
1/2-x,1/2-y,-z
1/2+x,1/2-y,1/2+z
loop_
_atom_site_type_symbol
_atom_site_label
_atom_site_fract_x
_atom_site_fract_y
_atom_site_fract_z
Si Si1 0.000000 0.786754 0.750000
Si Si2 0.888047 0.744058 0.146959
Si Si3 0.500000 0.837240 0.750000
Si Si4 0.293408 0.678904 0.277899
Si Si5 0.873191 0.390730 0.387375
Si Si6 0.415990 0.003158 0.448526
Si Si7 0.186572 0.602065 0.893869
Si Si8 0.377419 0.341873 0.364789
O O1 0.893318 0.816522 0.796169
O O2 0.035830 0.756499 0.568015
O O3 0.770615 0.730508 0.191531
O O4 0.880031 0.789810 0.270296
O O5 0.935495 0.698088 0.196299
O O6 0.587304 0.869941 0.574520
O O7 0.201044 0.641786 0.431086
O O8 0.337398 0.664134 0.072769
O O9 0.877683 0.448434 0.436889
O O10 0.824382 0.387906 0.270082
O O11 0.000000 0.374359 0.250000
O O12 0.500000 0.025675 0.250000
O O13 0.500000 0.000000 0.500000
O O14 0.323816 0.042952 0.570638
O O15 0.296278 0.622923 0.855606
O O16 0.500000 0.361203 0.250000
#
# Coordination Sequence:
#
# PCOD9303147 Si02
#       8
#     4   8   4   8   8   8   8   8
#     4  12  26  44  68  91 141 180 226 282 336 390
#     4  12  25  43  64  99 133 180 228 279 329 397
#     4  12  24  38  68  97 135 174 228 270 342 396
#     4  12  26  44  68  96 132 183 226 280 334 400
#     4  11  25  43  68 106 139 169 216 276 345 410
#     4  11  22  42  68 103 141 168 209 275 349 406
#     4  12  25  40  70  99 137 178 218 278 335 404
#     4  12  26  47  67  91 135 187 239 270 324 394
#
# _framework density 18.922034
#
# number of rings (size 3 to 8) (size 9 to 14) (size 15 to 20)
#    0.000    0.286    7.143    2.571    7.000    0.000 
#    0.000    0.000    1.571    1.714    0.000    0.000 
#    0.000    0.000    0.000    0.000    0.000    0.000 
#
# Total GULP energy -156459.436602 kJ/mol
# GULP energy per Si atom -5587.837022 kJ/mol
# Density = 1.887897 g / cm^3
# Si number density = 18.922034 Si / 1000 Ang^3
#
#
#
# Elastic Constant Matrix: (Units=GPa)
#
#
# Indices 1 2 3 4 5 6 
#
# 1 147.8347 55.8979 48.1256 0.0000 -3.0637 0.0000
# 2 55.8979 69.9074 44.6690 0.0000 4.9987 0.0000
# 3 48.1256 44.6690 146.9135 0.0000 13.2587 0.0000
# 4 0.0000 0.0000 0.0000 24.2627 0.0000 7.7080
# 5 -3.0637 4.9987 13.2587 0.0000 39.3588 0.0000
# 6 0.0000 0.0000 0.0000 7.7080 0.0000 14.6607
#
#
#
# Elastic Compliance Matrix: (Units=1/GPa)
#
#
# Indices 1 2 3 4 5 6 
#
# 1 0.009989 -0.007355 -0.001228 0.000000 0.002125 0.000000
# 2 -0.007355 0.023177 -0.004456 0.000000 -0.002015 0.000000
# 3 -0.001228 -0.004456 0.008788 0.000000 -0.002490 0.000000
# 4 0.000000 0.000000 0.000000 0.049480 0.000000 -0.026015
# 5 0.002125 -0.002015 -0.002490 0.000000 0.026667 0.000000
# 6 0.000000 0.000000 0.000000 -0.026015 0.000000 0.081887
#
#
# Mechanical properties :
#
#
# Convention : Reuss Voigt Hill
#
# Bulk Modulus (GPa) = 62.98166 73.56005 68.27086
# Shear Modulus (GPa) = 21.61161 30.05400 25.83281
#
# Velocity S-wave (km/s) = 3.38322 3.98968 3.69890
# Velocity P-wave (km/s) = 6.97271 7.75778 7.37570
#
# Compressibility (1/GPa) = 0.01587764
#
# Stress axis : x y z
#
# Youngs Moduli (GPa) = 100.11149 43.14709 113.78587
#
# Poissons Ratio (x) = 0.31733 0.13970
# Poissons Ratio (y) = 0.73627 0.50701
# Poissons Ratio (z) = 0.12292 0.19225
#
# Static dielectric constant tensor:
#      x y z
#    x 1.644670 0.000000 -0.004530 
#    y 0.000000 1.663120 0.000000 
#    z -0.004530 0.000000 1.662810 
# 
# From -- ./inp_files/44525.got.cif
#   From: 2010.05.17/outbox.cif.g08.bks.cpg/sg15_23_cif.got.tgz:44525.got - 2010.06.03 18:47:42.
