data_PCOD9303625
_publ_section_title
;
Structure prediction by ZEFSAII (Michael W. Deem and Ramdas Pophale) SiO2 
 PCOD9303625
Probable space group: C 2/C
;
_chemical_formula_sum "Si O2"
_cell_formula_units_Z 44
_cell_length_a 19.752820
_cell_length_b 6.758480
_cell_length_c 13.939089
_cell_angle_alpha 90.000000
_cell_angle_beta 95.942156
_cell_angle_gamma 90.000000
_cell_volume 1850.856457
_symmetry_space_group_name_H-M "C 2/C"
_symmetry_group_IT_number 15
_symmetry_cell_setting 'monoclinic'
loop_
_space_group_symop_operation_xyz
x,y,z
-x,y,1/2-z
-x,-y,-z
x,-y,1/2+z
1/2+x,1/2+y,z
1/2-x,1/2+y,1/2-z
1/2-x,1/2-y,-z
1/2+x,1/2-y,1/2+z
loop_
_atom_site_type_symbol
_atom_site_label
_atom_site_fract_x
_atom_site_fract_y
_atom_site_fract_z
Si Si1 0.841145 0.284868 0.834659
Si Si2 0.200159 0.957776 0.820659
Si Si3 0.168418 0.749692 0.475047
Si Si4 0.882401 0.567367 0.675996
Si Si5 0.500000 0.679397 0.250000
Si Si6 0.433525 0.513767 0.423848
O O1 0.778829 0.420743 0.859598
O O2 0.882466 0.411373 0.763065
O O3 0.807361 0.097705 0.773054
O O4 0.889857 0.187998 0.919715
O O5 0.168521 0.743271 0.803895
O O6 0.159563 0.071508 0.897305
O O7 0.250000 0.750000 0.500000
O O8 0.144042 0.550890 0.419734
O O9 0.118429 0.811472 0.553233
O O10 0.953846 0.676847 0.678696
O O11 0.456898 0.549132 0.317658
O O12 0.500000 0.500000 0.500000
#
# Coordination Sequence:
#
# PCOD9303625 Si02
#       6
#     8   8   8   8   4   8
#     4  11  24  42  79 106 148 190 251 309 381 450
#     4  11  22  46  73 113 145 196 249 318 376 447
#     4  11  28  47  74 114 153 194 258 318 387 453
#     4  11  25  45  75 104 146 203 247 309 376 451
#     4  12  28  48  76 104 154 202 260 300 386 460
#     4  12  29  50  73 112 158 200 250 319 383 470
#
# _framework density 23.772777000000001
#
# number of rings (size 3 to 8) (size 9 to 14) (size 15 to 20)
#    0.000    0.727    3.636    2.182   10.182    5.091 
#    0.000    0.000    0.000    0.000    0.000    0.000 
#    0.000    0.000    0.000    0.000    0.000    0.000 
#
# Total GULP energy -123152.643925 kJ/mol
# GULP energy per Si atom -5597.847451 kJ/mol
# Density = 2.371867 g / cm^3
# Si number density = 23.772777 Si / 1000 Ang^3
#
#
#
# Elastic Constant Matrix: (Units=GPa)
#
#
# Indices 1 2 3 4 5 6 
#
# 1 106.4781 21.4989 24.4066 0.0000 6.8531 0.0000
# 2 21.4989 107.9466 23.1646 0.0000 -0.4168 0.0000
# 3 24.4066 23.1646 72.1780 0.0000 3.5912 0.0000
# 4 0.0000 0.0000 0.0000 39.6782 0.0000 8.9263
# 5 6.8531 -0.4168 3.5912 0.0000 44.1856 0.0000
# 6 0.0000 0.0000 0.0000 8.9263 0.0000 37.9142
#
#
#
# Elastic Compliance Matrix: (Units=1/GPa)
#
#
# Indices 1 2 3 4 5 6 
#
# 1 0.010462 -0.001444 -0.003005 0.000000 -0.001392 0.000000
# 2 -0.001444 0.010154 -0.002798 0.000000 0.000547 0.000000
# 3 -0.003005 -0.002798 0.015811 0.000000 -0.000845 0.000000
# 4 0.000000 0.000000 0.000000 0.026612 0.000000 -0.006265
# 5 -0.001392 0.000547 -0.000845 0.000000 0.022922 0.000000
# 6 0.000000 0.000000 0.000000 -0.006265 0.000000 0.027850
#
#
# Mechanical properties :
#
#
# Convention : Reuss Voigt Hill
#
# Bulk Modulus (GPa) = 45.59355 47.19368 46.39362
# Shear Modulus (GPa) = 36.86921 38.85776 37.86349
#
# Velocity S-wave (km/s) = 3.94242 4.04734 3.99522
# Velocity P-wave (km/s) = 6.32013 6.46037 6.39064
#
# Compressibility (1/GPa) = 0.02193293
#
# Stress axis : x y z
#
# Youngs Moduli (GPa) = 95.58838 98.48404 63.24858
#
# Poissons Ratio (x) = 0.14222 0.19005
# Poissons Ratio (y) = 0.13804 0.17695
# Poissons Ratio (z) = 0.28722 0.27553
#
# Static dielectric constant tensor:
#      x y z
#    x 1.959360 0.000000 0.021440 
#    y 0.000000 1.853910 0.000000 
#    z 0.021440 0.000000 1.933740 
# 
# From -- ./inp_files/212978.got.cif
#   From: 2010.05.17/outbox.cif.g08.bks.cpg/sg15_107_cif.got.tgz:212978.got - 2010.06.03 18:47:42.
