data_PCOD9303116
_publ_section_title
;
Structure prediction by ZEFSAII (Michael W. Deem and Ramdas Pophale) SiO2 
 PCOD9303116
Probable space group: C 2/C
;
_chemical_formula_sum "Si O2"
_cell_formula_units_Z 48
_cell_length_a 6.698892
_cell_length_b 25.292701
_cell_length_c 18.402231
_cell_angle_alpha 90.000000
_cell_angle_beta 51.430702
_cell_angle_gamma 90.000000
_cell_volume 2437.781051
_symmetry_space_group_name_H-M "C 2/C"
_symmetry_group_IT_number 15
_symmetry_cell_setting 'monoclinic'
loop_
_space_group_symop_operation_xyz
x,y,z
-x,y,1/2-z
-x,-y,-z
x,-y,1/2+z
1/2+x,1/2+y,z
1/2-x,1/2+y,1/2-z
1/2-x,1/2-y,-z
1/2+x,1/2-y,1/2+z
loop_
_atom_site_type_symbol
_atom_site_label
_atom_site_fract_x
_atom_site_fract_y
_atom_site_fract_z
Si Si1 0.751418 0.332402 0.472683
Si Si2 0.791253 0.517777 0.156421
Si Si3 0.871315 0.870501 0.152583
Si Si4 0.151839 0.246469 0.439899
Si Si5 0.500000 0.966898 0.250000
Si Si6 0.578206 0.082517 0.972969
Si Si7 0.000000 0.197668 0.750000
O O1 0.745064 0.336398 0.386576
O O2 0.468080 0.310408 0.552261
O O3 0.934902 0.289895 0.469866
O O4 0.858420 0.387747 0.477094
O O5 0.500000 0.527863 0.250000
O O6 0.949260 0.502078 0.191622
O O7 0.938298 0.562990 0.077778
O O8 0.810559 0.466892 0.098300
O O9 0.736350 0.927126 0.184820
O O10 0.832719 0.841974 0.238690
O O11 0.175031 0.879799 0.072324
O O12 0.250000 0.250000 0.500000
O O13 0.371722 0.264545 0.336849
#
# Coordination Sequence:
#
# PCOD9303116 Si02
#       7
#     8   8   8   8   4   8   4
#     4  11  22  42  65  94 131 174 214 273 337 390
#     4  11  24  41  63  96 134 171 224 273 336 399
#     4  12  22  39  68 100 127 167 229 278 333 388
#     4  11  23  42  64  98 135 166 219 280 331 395
#     4  12  22  36  66 103 124 168 227 286 326 398
#     4  11  23  42  65  93 135 176 216 282 331 400
#     4  12  22  40  68  99 128 170 219 286 322 402
#
# _framework density 19.690038999999999
#
# number of rings (size 3 to 8) (size 9 to 14) (size 15 to 20)
#    0.000    0.667    6.667    2.000    0.000    2.000 
#    0.000    3.333    0.000    0.000    0.000    0.000 
#    0.000    0.000    0.000    0.000    0.000    0.000 
#
# Total GULP energy -133870.447725 kJ/mol
# GULP energy per Si atom -5577.935322 kJ/mol
# Density = 1.964522 g / cm^3
# Si number density = 19.690039 Si / 1000 Ang^3
#
#
#
# Elastic Constant Matrix: (Units=GPa)
#
#
# Indices 1 2 3 4 5 6 
#
# 1 125.0145 31.1708 66.8744 0.0000 20.3750 0.0000
# 2 31.1708 33.9070 30.5161 0.0000 1.1793 0.0000
# 3 66.8744 30.5161 130.7074 0.0000 13.8299 0.0000
# 4 0.0000 0.0000 0.0000 30.7592 0.0000 12.1553
# 5 20.3750 1.1793 13.8299 0.0000 40.5511 0.0000
# 6 0.0000 0.0000 0.0000 12.1553 0.0000 26.7560
#
#
#
# Elastic Compliance Matrix: (Units=1/GPa)
#
#
# Indices 1 2 3 4 5 6 
#
# 1 0.013094 -0.007979 -0.004321 0.000000 -0.004874 0.000000
# 2 -0.007979 0.042351 -0.006327 0.000000 0.004935 0.000000
# 3 -0.004321 -0.006327 0.011505 0.000000 -0.001569 0.000000
# 4 0.000000 0.000000 0.000000 0.039624 0.000000 -0.018001
# 5 -0.004874 0.004935 -0.001569 0.000000 0.027500 0.000000
# 6 0.000000 0.000000 0.000000 -0.018001 0.000000 0.045553
#
#
# Mechanical properties :
#
#
# Convention : Reuss Voigt Hill
#
# Bulk Modulus (GPa) = 33.67620 60.75015 47.21317
# Shear Modulus (GPa) = 22.04775 30.35111 26.19943
#
# Velocity S-wave (km/s) = 3.34988 3.93038 3.65169
# Velocity P-wave (km/s) = 5.66591 7.17756 6.46607
#
# Compressibility (1/GPa) = 0.02969456
#
# Stress axis : x y z
#
# Youngs Moduli (GPa) = 76.36899 23.61235 86.92177
#
# Poissons Ratio (x) = 0.18841 0.37558
# Poissons Ratio (y) = 0.60937 0.54998
# Poissons Ratio (z) = 0.32998 0.14940
#
# Static dielectric constant tensor:
#      x y z
#    x 1.724830 0.000000 -0.037400 
#    y 0.000000 1.732300 0.000000 
#    z -0.037400 0.000000 1.693760 
# 
# From -- ./inp_files/130633.got.cif
#   From: 2010.05.17/outbox.cif.g08.bks.cpg/sg15_66_cif.got.tgz:130633.got - 2010.06.03 18:47:42.
