data_PCOD9303439
_publ_section_title
;
Structure prediction by ZEFSAII (Michael W. Deem and Ramdas Pophale) SiO2 
 PCOD9303439
Probable space group: C 2/C
;
_chemical_formula_sum "Si O2"
_cell_formula_units_Z 44
_cell_length_a 16.169982
_cell_length_b 7.645694
_cell_length_c 18.424435
_cell_angle_alpha 90.000000
_cell_angle_beta 121.101101
_cell_angle_gamma 90.000000
_cell_volume 1950.405186
_symmetry_space_group_name_H-M "C 2/C"
_symmetry_group_IT_number 15
_symmetry_cell_setting 'monoclinic'
loop_
_space_group_symop_operation_xyz
x,y,z
-x,y,1/2-z
-x,-y,-z
x,-y,1/2+z
1/2+x,1/2+y,z
1/2-x,1/2+y,1/2-z
1/2-x,1/2-y,-z
1/2+x,1/2-y,1/2+z
loop_
_atom_site_type_symbol
_atom_site_label
_atom_site_fract_x
_atom_site_fract_y
_atom_site_fract_z
Si Si1 0.617715 0.919657 0.223954
Si Si2 0.411508 0.976750 0.586051
Si Si3 0.676396 0.028494 0.095543
Si Si4 0.757345 0.091521 0.904068
Si Si5 0.000000 0.879093 0.750000
Si Si6 0.858618 0.079497 0.582367
O O1 0.699753 0.002802 0.312644
O O2 0.580945 0.739505 0.245014
O O3 0.515232 0.015994 0.169744
O O4 0.659013 0.925716 0.161642
O O5 0.370804 0.785433 0.580994
O O6 0.411001 0.009651 0.500645
O O7 0.335066 0.118473 0.583430
O O8 0.697825 0.235628 0.111555
O O9 0.767982 0.955853 0.093358
O O10 0.834004 0.997197 0.991079
O O11 0.948769 0.992228 0.664212
#
# Coordination Sequence:
#
# PCOD9303439 Si02
#       6
#     8   8   8   8   4   8
#     4  12  24  43  70  98 135 176 228 279 328 398
#     4  11  23  45  70  99 137 177 225 270 338 407
#     4  11  23  43  71  99 133 178 225 275 336 396
#     4  11  22  44  70  96 136 179 218 271 344 396
#     4  12  24  48  68  94 136 186 228 272 342 404
#     4  11  25  45  70  98 134 181 222 274 336 411
#
# _framework density 22.559415000000001
#
# number of rings (size 3 to 8) (size 9 to 14) (size 15 to 20)
#    0.000    0.727    3.636    6.000    2.545    2.909 
#    0.000    1.818    0.000    0.000    0.000    0.000 
#    0.000    0.000    0.000    0.000    0.000    0.000 
#
# Total GULP energy -122835.241603 kJ/mol
# GULP energy per Si atom -5583.420073 kJ/mol
# Density = 2.250807 g / cm^3
# Si number density = 22.559415 Si / 1000 Ang^3
#
#
#
# Elastic Constant Matrix: (Units=GPa)
#
#
# Indices 1 2 3 4 5 6 
#
# 1 47.7259 19.8283 27.3486 0.0000 -9.8196 0.0000
# 2 19.8283 72.3026 35.7142 0.0000 16.0137 0.0000
# 3 27.3486 35.7142 211.7436 0.0000 5.8751 0.0000
# 4 0.0000 0.0000 0.0000 28.3632 0.0000 4.4684
# 5 -9.8196 16.0137 5.8751 0.0000 38.1774 0.0000
# 6 0.0000 0.0000 0.0000 4.4684 0.0000 -0.7703
#
#
#
# Elastic Compliance Matrix: (Units=1/GPa)
#
#
# Indices 1 2 3 4 5 6 
#
# 1 0.028559 -0.009180 -0.002461 0.000000 0.011575 0.000000
# 2 -0.009180 0.019523 -0.001822 0.000000 -0.010270 0.000000
# 3 -0.002461 -0.001822 0.005367 0.000000 -0.000695 0.000000
# 4 0.000000 0.000000 0.000000 0.018421 0.000000 0.106865
# 5 0.011575 -0.010270 -0.000695 0.000000 0.033585 0.000000
# 6 0.000000 0.000000 0.000000 0.106865 0.000000 -0.678327
#
#
# Mechanical properties :
#
#
# Convention : Reuss Voigt Hill
#
# Bulk Modulus (GPa) = 37.70461 55.28381 46.49421
# Shear Modulus (GPa) = -9.30918 29.74615 10.21848
#
# Velocity S-wave (km/s) = -2.03359 3.63515 2.13059
# Velocity P-wave (km/s) = 3.35198 6.49447 5.16788
#
# Compressibility (1/GPa) = 0.02652195
#
# Stress axis : x y z
#
# Youngs Moduli (GPa) = 35.01542 51.22196 186.31525
#
# Poissons Ratio (x) = 0.47021 0.45861
# Poissons Ratio (y) = 0.32143 0.33952
# Poissons Ratio (z) = 0.08619 0.09334
#
# Static dielectric constant tensor:
#      x y z
#    x 1.846250 0.000000 0.025480 
#    y 0.000000 1.856020 0.000000 
#    z 0.025480 0.000000 1.928660 
# 
# From -- ./inp_files/203065.got.cif
#   From: 2010.05.17/outbox.cif.g08.bks.cpg/sg15_102_cif.got.tgz:203065.got - 2010.06.03 18:47:42.
