data_PCOD9303956
_publ_section_title
;
Structure prediction by ZEFSAII (Michael W. Deem and Ramdas Pophale) SiO2 
 PCOD9303956
Probable space group: C 2/C
;
_chemical_formula_sum "Si O2"
_cell_formula_units_Z 44
_cell_length_a 19.472658
_cell_length_b 21.320371
_cell_length_c 4.905922
_cell_angle_alpha 90.000000
_cell_angle_beta 67.253833
_cell_angle_gamma 90.000000
_cell_volume 1878.358094
_symmetry_space_group_name_H-M "C 2/C"
_symmetry_group_IT_number 15
_symmetry_cell_setting 'monoclinic'
loop_
_space_group_symop_operation_xyz
x,y,z
-x,y,1/2-z
-x,-y,-z
x,-y,1/2+z
1/2+x,1/2+y,z
1/2-x,1/2+y,1/2-z
1/2-x,1/2-y,-z
1/2+x,1/2-y,1/2+z
loop_
_atom_site_type_symbol
_atom_site_label
_atom_site_fract_x
_atom_site_fract_y
_atom_site_fract_z
Si Si1 0.000000 0.951424 0.250000
Si Si2 0.162454 0.636673 0.925362
Si Si3 0.116749 0.133256 0.261762
Si Si4 0.295881 0.456347 0.270670
Si Si5 0.500000 0.170888 0.250000
Si Si6 0.000000 0.764337 0.750000
Si Si7 0.232582 0.693174 0.320042
O O1 0.935911 0.904508 0.452127
O O2 0.000000 0.000000 0.500000
O O3 0.215449 0.576967 0.888099
O O4 0.174609 0.654294 0.592505
O O5 0.196608 0.691368 0.074657
O O6 0.075292 0.631285 0.108363
O O7 0.188699 0.157768 0.312196
O O8 0.069552 0.190696 0.210837
O O9 0.146861 0.091726 0.961943
O O10 0.304121 0.483455 0.559991
O O11 0.511959 0.218393 0.480735
O O12 0.250000 0.750000 0.500000
#
# Coordination Sequence:
#
# PCOD9303956 Si02
#       7
#     4   8   8   8   4   4   8
#     4  12  26  42  64  96 134 182 224 266 322 378
#     4  11  24  42  67  97 127 171 220 271 335 393
#     4  11  25  43  65  98 136 176 223 269 319 398
#     4  11  24  44  68  95 130 175 224 278 326 379
#     4  12  25  46  68  98 138 170 213 280 336 400
#     4  12  27  42  66 100 138 180 215 262 336 398
#     4  11  23  41  66  95 129 171 219 269 326 392
#
# _framework density 23.424712
#
# number of rings (size 3 to 8) (size 9 to 14) (size 15 to 20)
#    0.000    0.727    0.000    8.182    0.000   13.091 
#    0.000    0.909    0.000    0.000    0.000    0.000 
#    0.000    0.000    0.000    0.000    0.000    0.000 
#
# Total GULP energy -123108.476117 kJ/mol
# GULP energy per Si atom -5595.839824 kJ/mol
# Density = 2.337140 g / cm^3
# Si number density = 23.424712 Si / 1000 Ang^3
#
#
#
# Elastic Constant Matrix: (Units=GPa)
#
#
# Indices 1 2 3 4 5 6 
#
# 1 103.2092 14.0535 79.0140 0.0000 -22.5776 0.0000
# 2 14.0535 60.3644 43.1626 0.0000 -18.6378 0.0000
# 3 79.0140 43.1626 164.9160 0.0000 -10.4162 0.0000
# 4 0.0000 0.0000 0.0000 34.5206 0.0000 -10.8280
# 5 -22.5776 -18.6378 -10.4162 0.0000 63.1875 0.0000
# 6 0.0000 0.0000 0.0000 -10.8280 0.0000 31.0238
#
#
#
# Elastic Compliance Matrix: (Units=1/GPa)
#
#
# Indices 1 2 3 4 5 6 
#
# 1 0.017341 0.004276 -0.009051 0.000000 0.005965 0.000000
# 2 0.004276 0.023268 -0.007689 0.000000 0.007123 0.000000
# 3 -0.009051 -0.007689 0.012192 0.000000 -0.003492 0.000000
# 4 0.000000 0.000000 0.000000 0.032529 0.000000 0.011354
# 5 0.005965 0.007123 -0.003492 0.000000 0.019483 0.000000
# 6 0.000000 0.000000 0.000000 0.011354 0.000000 0.036196
#
#
# Mechanical properties :
#
#
# Convention : Reuss Voigt Hill
#
# Bulk Modulus (GPa) = 35.87576 66.77219 51.32398
# Shear Modulus (GPa) = 28.53467 38.56367 33.54917
#
# Velocity S-wave (km/s) = 3.49398 4.06184 3.78856
# Velocity P-wave (km/s) = 5.62368 7.11091 6.41057
#
# Compressibility (1/GPa) = 0.02787398
#
# Stress axis : x y z
#
# Youngs Moduli (GPa) = 57.66805 42.97839 82.02290
#
# Poissons Ratio (x) = -0.18379 0.74236
# Poissons Ratio (y) = -0.24660 0.63064
# Poissons Ratio (z) = 0.52193 0.33044
#
# Static dielectric constant tensor:
#      x y z
#    x 1.895420 0.000000 0.012280 
#    y 0.000000 1.921520 0.000000 
#    z 0.012280 0.000000 1.823920 
# 
# From -- ./inp_files/15595.got.cif
#   From: 2010.05.17/outbox.cif.g08.bks.cpg/sg15_8_cif.got.tgz:15595.got - 2010.06.03 18:47:42.
