data_PCOD9303602
_publ_section_title
;
Structure prediction by ZEFSAII (Michael W. Deem and Ramdas Pophale) SiO2 
 PCOD9303602
Probable space group: C 2/C
;
_chemical_formula_sum "Si O2"
_cell_formula_units_Z 56
_cell_length_a 12.520598
_cell_length_b 9.269863
_cell_length_c 25.551560
_cell_angle_alpha 90.000000
_cell_angle_beta 135.173276
_cell_angle_gamma 90.000000
_cell_volume 2090.660051
_symmetry_space_group_name_H-M "C 2/C"
_symmetry_group_IT_number 15
_symmetry_cell_setting 'monoclinic'
loop_
_space_group_symop_operation_xyz
x,y,z
-x,y,1/2-z
-x,-y,-z
x,-y,1/2+z
1/2+x,1/2+y,z
1/2-x,1/2+y,1/2-z
1/2-x,1/2-y,-z
1/2+x,1/2-y,1/2+z
loop_
_atom_site_type_symbol
_atom_site_label
_atom_site_fract_x
_atom_site_fract_y
_atom_site_fract_z
Si Si1 0.269769 0.556853 0.723064
Si Si2 0.220047 0.750004 0.064605
Si Si3 0.289534 0.570014 0.553098
Si Si4 0.666784 0.241907 0.784823
Si Si5 0.664490 0.786082 0.837355
Si Si6 0.061158 0.485986 0.886646
Si Si7 0.525592 0.565591 0.066037
O O1 0.348851 0.401068 0.747082
O O2 0.229355 0.632648 0.763591
O O3 0.355493 0.674705 0.717574
O O4 0.099738 0.520822 0.644475
O O5 0.257187 0.586360 0.065906
O O6 0.216263 0.758943 0.126076
O O7 0.347438 0.868159 0.094268
O O8 0.079318 0.793289 0.978993
O O9 0.284667 0.682949 0.597553
O O10 0.166091 0.596705 0.465021
O O11 0.451304 0.542048 0.581747
O O12 0.500000 0.207350 0.750000
O O13 0.550123 0.893937 0.828627
O O14 0.803375 0.887050 0.867653
O O15 0.500000 0.500000 0.000000
#
# Coordination Sequence:
#
# PCOD9303602 Si02
#       7
#     8   8   8   8   8   8   8
#     4  12  29  48  74 102 135 192 243 293 356 411
#     4  11  22  46  68  99 146 183 227 294 344 412
#     4  11  23  43  69 108 148 177 228 284 353 435
#     4  12  29  51  72  98 137 187 247 299 343 408
#     4  12  25  45  73 111 146 180 232 288 354 437
#     4  11  24  45  73 107 147 183 225 291 356 427
#     4  11  23  38  70 108 144 186 220 275 363 424
#
# _framework density 26.785796999999999
#
# number of rings (size 3 to 8) (size 9 to 14) (size 15 to 20)
#    0.000    0.571    5.714    3.857    4.000    2.286 
#    0.000    0.000    0.000    0.000    0.000    0.000 
#    0.000    0.000    0.000    0.000    0.000    0.000 
#
# Total GULP energy -156985.489996 kJ/mol
# GULP energy per Si atom -5606.624643 kJ/mol
# Density = 2.672483 g / cm^3
# Si number density = 26.785797 Si / 1000 Ang^3
#
#
#
# Elastic Constant Matrix: (Units=GPa)
#
#
# Indices 1 2 3 4 5 6 
#
# 1 155.5882 49.1830 52.4014 0.0000 -12.0347 0.0000
# 2 49.1830 122.3682 31.7896 0.0000 -17.2301 0.0000
# 3 52.4014 31.7896 79.4098 0.0000 -14.6986 0.0000
# 4 0.0000 0.0000 0.0000 38.8167 0.0000 -23.5092
# 5 -12.0347 -17.2301 -14.6986 0.0000 53.9667 0.0000
# 6 0.0000 0.0000 0.0000 -23.5092 0.0000 58.6529
#
#
#
# Elastic Compliance Matrix: (Units=1/GPa)
#
#
# Indices 1 2 3 4 5 6 
#
# 1 0.008791 -0.002272 -0.004911 0.000000 -0.000102 0.000000
# 2 -0.002272 0.009922 -0.002085 0.000000 0.002093 0.000000
# 3 -0.004911 -0.002085 0.017210 0.000000 0.002927 0.000000
# 4 0.000000 0.000000 0.000000 0.034021 0.000000 0.013636
# 5 -0.000102 0.002093 0.002927 0.000000 0.019972 0.000000
# 6 0.000000 0.000000 0.000000 0.013636 0.000000 0.022515
#
#
# Mechanical properties :
#
#
# Convention : Reuss Voigt Hill
#
# Bulk Modulus (GPa) = 57.51410 69.34602 63.43006
# Shear Modulus (GPa) = 36.55959 45.22007 40.88983
#
# Velocity S-wave (km/s) = 3.69845 4.11324 3.91135
# Velocity P-wave (km/s) = 6.30527 6.96446 6.64305
#
# Compressibility (1/GPa) = 0.01738704
#
# Stress axis : x y z
#
# Youngs Moduli (GPa) = 113.74650 100.78899 58.10640
#
# Poissons Ratio (x) = 0.22901 0.28534
# Poissons Ratio (y) = 0.25846 0.12115
# Poissons Ratio (z) = 0.55858 0.21015
#
# Static dielectric constant tensor:
#      x y z
#    x 2.107170 0.000000 0.031390 
#    y 0.000000 2.112050 0.000000 
#    z 0.031390 0.000000 2.178300 
# 
# From -- ./inp_files/310366.got.cif
#   From: 2010.05.17/outbox.cif.g08.bks.cpg/sg15_156_cif.got.tgz:310366.got - 2010.06.03 18:47:42.
