data_PCOD9303100
_publ_section_title
;
Structure prediction by ZEFSAII (Michael W. Deem and Ramdas Pophale) SiO2 
 PCOD9303100
Probable space group: C 2/C
;
_chemical_formula_sum "Si O2"
_cell_formula_units_Z 48
_cell_length_a 19.183595
_cell_length_b 17.800149
_cell_length_c 14.822920
_cell_angle_alpha 90.000000
_cell_angle_beta 151.855962
_cell_angle_gamma 90.000000
_cell_volume 2387.502528
_symmetry_space_group_name_H-M "C 2/C"
_symmetry_group_IT_number 15
_symmetry_cell_setting 'monoclinic'
loop_
_space_group_symop_operation_xyz
x,y,z
-x,y,1/2-z
-x,-y,-z
x,-y,1/2+z
1/2+x,1/2+y,z
1/2-x,1/2+y,1/2-z
1/2-x,1/2-y,-z
1/2+x,1/2-y,1/2+z
loop_
_atom_site_type_symbol
_atom_site_label
_atom_site_fract_x
_atom_site_fract_y
_atom_site_fract_z
Si Si1 0.830778 0.501988 0.333112
Si Si2 0.320853 0.414275 0.190565
Si Si3 0.314722 0.173911 0.308209
Si Si4 0.152648 0.676820 0.367224
Si Si5 0.956889 0.047595 0.096475
Si Si6 0.002060 0.808640 0.982472
O O1 0.802435 0.447916 0.384932
O O2 0.803379 0.588476 0.328014
O O3 0.000000 0.500000 0.500000
O O4 0.712223 0.473911 0.122694
O O5 0.447504 0.476844 0.329351
O O6 0.388871 0.340925 0.315710
O O7 0.249559 0.392571 0.014911
O O8 0.358563 0.169648 0.252806
O O9 0.153245 0.206173 0.146249
O O10 0.432579 0.231975 0.483296
O O11 0.250000 0.750000 0.500000
O O12 0.000000 0.680164 0.250000
O O13 0.000000 0.056318 0.250000
O O14 0.999293 0.123525 0.091176
#
# Coordination Sequence:
#
# PCOD9303100 Si02
#       6
#     8   8   8   8   8   8
#     4  11  23  41  69  97 128 178 221 273 338 395
#     4  11  22  42  63  93 135 170 223 262 327 414
#     4  12  23  41  64  92 133 170 217 270 334 393
#     4  12  25  37  60 102 136 170 214 274 336 396
#     4  11  23  45  69  93 130 178 226 272 328 403
#     4  11  24  40  65  95 123 178 220 267 333 400
#
# _framework density 20.104690999999999
#
# number of rings (size 3 to 8) (size 9 to 14) (size 15 to 20)
#    0.000    0.667    5.000    4.000    4.667    0.000 
#    0.000    0.833    0.000    0.000    0.000    0.000 
#    0.000    0.000    0.000    0.000    0.000    0.000 
#
# Total GULP energy -134083.233704 kJ/mol
# GULP energy per Si atom -5586.801404 kJ/mol
# Density = 2.005893 g / cm^3
# Si number density = 20.104691 Si / 1000 Ang^3
#
#
#
# Elastic Constant Matrix: (Units=GPa)
#
#
# Indices 1 2 3 4 5 6 
#
# 1 72.0356 20.0341 44.5405 0.0000 18.2898 0.0000
# 2 20.0341 66.2182 37.8333 0.0000 -5.5377 0.0000
# 3 44.5405 37.8333 81.4409 0.0000 24.0595 0.0000
# 4 0.0000 0.0000 0.0000 38.5568 0.0000 4.2597
# 5 18.2898 -5.5377 24.0595 0.0000 41.9669 0.0000
# 6 0.0000 0.0000 0.0000 4.2597 0.0000 30.0485
#
#
#
# Elastic Compliance Matrix: (Units=1/GPa)
#
#
# Indices 1 2 3 4 5 6 
#
# 1 0.021349 -0.000948 -0.010173 0.000000 -0.003597 0.000000
# 2 -0.000948 0.024655 -0.014469 0.000000 0.011962 0.000000
# 3 -0.010173 -0.014469 0.028675 0.000000 -0.013915 0.000000
# 4 0.000000 0.000000 0.000000 0.026348 0.000000 -0.003735
# 5 -0.003597 0.011962 -0.013915 0.000000 0.034952 0.000000
# 6 0.000000 0.000000 0.000000 -0.003735 0.000000 0.033809
#
#
# Mechanical properties :
#
#
# Convention : Reuss Voigt Hill
#
# Bulk Modulus (GPa) = 42.55337 47.16784 44.86061
# Shear Modulus (GPa) = 21.85302 29.93356 25.89329
#
# Velocity S-wave (km/s) = 3.30049 3.86279 3.59266
# Velocity P-wave (km/s) = 5.97797 6.58839 6.29059
#
# Compressibility (1/GPa) = 0.02349990
#
# Stress axis : x y z
#
# Youngs Moduli (GPa) = 46.84077 40.55895 34.87365
#
# Poissons Ratio (x) = 0.03843 0.35477
# Poissons Ratio (y) = 0.04439 0.50459
# Poissons Ratio (z) = 0.47651 0.58685
#
# Static dielectric constant tensor:
#      x y z
#    x 1.706200 0.000000 0.009690 
#    y 0.000000 1.744370 0.000000 
#    z 0.009690 0.000000 1.727710 
# 
# From -- ./inp_files/48339.got.cif
#   From: 2010.05.17/outbox.cif.g08.bks.cpg/sg15_25_cif.got.tgz:48339.got - 2010.06.03 18:47:42.
