data_PCOD9303053
_publ_section_title
;
Structure prediction by ZEFSAII (Michael W. Deem and Ramdas Pophale) SiO2 
 PCOD9303053
Probable space group: C 2/C
;
_chemical_formula_sum "Si O2"
_cell_formula_units_Z 64
_cell_length_a 19.503059
_cell_length_b 14.355384
_cell_length_c 17.718328
_cell_angle_alpha 90.000000
_cell_angle_beta 138.718500
_cell_angle_gamma 90.000000
_cell_volume 3272.846593
_symmetry_space_group_name_H-M "C 2/C"
_symmetry_group_IT_number 15
_symmetry_cell_setting 'monoclinic'
loop_
_space_group_symop_operation_xyz
x,y,z
-x,y,1/2-z
-x,-y,-z
x,-y,1/2+z
1/2+x,1/2+y,z
1/2-x,1/2+y,1/2-z
1/2-x,1/2-y,-z
1/2+x,1/2-y,1/2+z
loop_
_atom_site_type_symbol
_atom_site_label
_atom_site_fract_x
_atom_site_fract_y
_atom_site_fract_z
Si Si1 0.123118 0.501827 0.613171
Si Si2 0.208457 0.996711 0.874148
Si Si3 0.685965 0.817231 0.261673
Si Si4 0.047910 0.857853 0.659576
Si Si5 0.600384 0.599127 0.032156
Si Si6 0.303406 0.187107 0.246536
Si Si7 0.678399 0.578823 0.512554
Si Si8 0.062458 0.170009 0.725437
O O1 0.186302 0.497381 0.586903
O O2 0.154780 0.595210 0.684218
O O3 0.159616 0.411178 0.690037
O O4 0.000000 0.500000 0.500000
O O5 0.129019 0.921402 0.772430
O O6 0.153060 0.096123 0.817963
O O7 0.218069 0.970243 0.969550
O O8 0.590003 0.747350 0.194768
O O9 0.772353 0.756350 0.288849
O O10 0.736956 0.854244 0.380484
O O11 0.054985 0.894673 0.578917
O O12 0.931398 0.869827 0.592952
O O13 0.696956 0.670527 0.112586
O O14 0.648543 0.500228 0.049135
O O15 0.513686 0.625167 0.899760
O O16 0.389456 0.236503 0.267939
O O17 0.000000 0.185877 0.750000
#
# Coordination Sequence:
#
# PCOD9303053 Si02
#       8
#     8   8   8   8   8   8   8   8
#     4  12  27  48  68  97 138 183 230 285 346 415
#     4  12  23  45  69 103 141 170 228 300 335 401
#     4  11  24  44  71  97 138 183 233 277 332 421
#     4  11  23  39  70 104 132 180 235 275 335 408
#     4  11  22  41  69  99 134 184 225 281 334 399
#     4  11  25  44  68 101 137 184 239 274 335 417
#     4  12  23  42  71 101 142 179 223 291 352 392
#     4  12  24  41  71 109 139 172 227 290 351 397
#
# _framework density 19.554843000000002
#
# number of rings (size 3 to 8) (size 9 to 14) (size 15 to 20)
#    0.000    0.500    7.500    1.500    5.250    1.000 
#    2.250    1.875    0.000    0.000    0.000    0.000 
#    0.000    0.000    0.000    0.000    0.000    0.000 
#
# Total GULP energy -179006.158235 kJ/mol
# GULP energy per Si atom -5593.942445 kJ/mol
# Density = 1.951034 g / cm^3
# Si number density = 19.554843 Si / 1000 Ang^3
#
#
#
# Elastic Constant Matrix: (Units=GPa)
#
#
# Indices 1 2 3 4 5 6 
#
# 1 113.9012 40.0878 32.6932 0.0000 13.7982 0.0000
# 2 40.0878 101.5771 5.4803 0.0000 1.7109 0.0000
# 3 32.6932 5.4803 59.8992 0.0000 8.3250 0.0000
# 4 0.0000 0.0000 0.0000 21.8798 0.0000 6.5717
# 5 13.7982 1.7109 8.3250 0.0000 18.0056 0.0000
# 6 0.0000 0.0000 0.0000 6.5717 0.0000 23.1251
#
#
#
# Elastic Compliance Matrix: (Units=1/GPa)
#
#
# Indices 1 2 3 4 5 6 
#
# 1 0.012865 -0.004658 -0.005650 0.000000 -0.006804 0.000000
# 2 -0.004658 0.011585 0.001217 0.000000 0.001906 0.000000
# 3 -0.005650 0.001217 0.020392 0.000000 -0.005214 0.000000
# 4 0.000000 0.000000 0.000000 0.049969 0.000000 -0.014200
# 5 -0.006804 0.001906 -0.005214 0.000000 0.062982 0.000000
# 6 0.000000 0.000000 0.000000 -0.014200 0.000000 0.047279
#
#
# Mechanical properties :
#
#
# Convention : Reuss Voigt Hill
#
# Bulk Modulus (GPa) = 37.50760 47.98892 42.74826
# Shear Modulus (GPa) = 21.53882 25.74318 23.64100
#
# Velocity S-wave (km/s) = 3.32242 3.63224 3.48078
# Velocity P-wave (km/s) = 5.82583 6.49499 6.16949
#
# Compressibility (1/GPa) = 0.02666126
#
# Stress axis : x y z
#
# Youngs Moduli (GPa) = 77.73194 86.31749 49.03945
#
# Poissons Ratio (x) = 0.40204 0.27707
# Poissons Ratio (y) = 0.36205 -0.05970
# Poissons Ratio (z) = 0.43917 -0.10508
#
# Static dielectric constant tensor:
#      x y z
#    x 1.666020 0.000000 0.001820 
#    y 0.000000 1.683850 0.000000 
#    z 0.001820 0.000000 1.682390 
# 
# From -- ./inp_files/162578.got.cif
#   From: 2010.05.17/outbox.cif.g08.bks.cpg/sg15_82_cif.got.tgz:162578.got - 2010.06.03 18:47:42.
