data_PCOD9303814
_publ_section_title
;
Structure prediction by ZEFSAII (Michael W. Deem and Ramdas Pophale) SiO2 
 PCOD9303814
Probable space group: C 2/C
;
_chemical_formula_sum "Si O2"
_cell_formula_units_Z 48
_cell_length_a 24.634452
_cell_length_b 9.467327
_cell_length_c 18.670610
_cell_angle_alpha 90.000000
_cell_angle_beta 146.805347
_cell_angle_gamma 90.000000
_cell_volume 2383.971836
_symmetry_space_group_name_H-M "C 2/C"
_symmetry_group_IT_number 15
_symmetry_cell_setting 'monoclinic'
loop_
_space_group_symop_operation_xyz
x,y,z
-x,y,1/2-z
-x,-y,-z
x,-y,1/2+z
1/2+x,1/2+y,z
1/2-x,1/2+y,1/2-z
1/2-x,1/2-y,-z
1/2+x,1/2-y,1/2+z
loop_
_atom_site_type_symbol
_atom_site_label
_atom_site_fract_x
_atom_site_fract_y
_atom_site_fract_z
Si Si1 0.062006 0.686048 0.634619
Si Si2 0.447670 0.102633 0.030597
Si Si3 0.910153 0.192474 0.726970
Si Si4 0.532695 0.400001 0.860991
Si Si5 0.309290 0.877209 0.504890
Si Si6 0.257369 0.882181 0.062213
O O1 0.083580 0.692820 0.573662
O O2 0.161578 0.655851 0.788931
O O3 0.993114 0.548618 0.563355
O O4 0.003717 0.811877 0.610519
O O5 0.530600 0.193459 0.162692
O O6 0.361222 0.070597 0.991240
O O7 0.800321 0.171319 0.637042
O O8 0.880257 0.255430 0.616122
O O9 0.970810 0.046506 0.793211
O O10 0.500000 0.324703 0.750000
O O11 0.651100 0.415210 0.981803
O O12 0.293600 0.989348 0.551593
O O13 0.250000 0.750000 0.000000
#
# Coordination Sequence:
#
# PCOD9303814 Si02
#       6
#     8   8   8   8   8   8
#     4  11  26  44  63 101 134 182 220 274 346 404
#     4  11  25  43  66  92 142 181 218 268 347 416
#     4  11  24  41  67 103 127 177 230 276 336 398
#     4  12  23  41  69 101 134 166 232 288 330 401
#     4  11  23  39  70  97 133 175 227 281 330 402
#     4  12  23  41  72 103 132 176 232 282 334 397
#
# _framework density 20.134467000000001
#
# number of rings (size 3 to 8) (size 9 to 14) (size 15 to 20)
#    0.000    0.667    5.000    2.500    2.333    2.000 
#    0.000    5.000    0.000    0.000    0.000    0.000 
#    0.000    0.000    0.000    0.000    0.000    0.000 
#
# Total GULP energy -134032.467942 kJ/mol
# GULP energy per Si atom -5584.686164 kJ/mol
# Density = 2.008864 g / cm^3
# Si number density = 20.134467 Si / 1000 Ang^3
#
#
#
# Elastic Constant Matrix: (Units=GPa)
#
#
# Indices 1 2 3 4 5 6 
#
# 1 113.9815 35.3955 79.1070 0.0000 14.8028 0.0000
# 2 35.3955 98.5888 4.6049 0.0000 9.0407 0.0000
# 3 79.1070 4.6049 -92.7617 0.0000 10.3050 0.0000
# 4 0.0000 0.0000 0.0000 19.1971 0.0000 7.0092
# 5 14.8028 9.0407 10.3050 0.0000 16.6277 0.0000
# 6 0.0000 0.0000 0.0000 7.0092 0.0000 28.2434
#
#
#
# Elastic Compliance Matrix: (Units=1/GPa)
#
#
# Indices 1 2 3 4 5 6 
#
# 1 0.007015 -0.001995 0.004968 0.000000 -0.008239 0.000000
# 2 -0.001995 0.011242 -0.001520 0.000000 -0.003394 0.000000
# 3 0.004968 -0.001520 -0.006566 0.000000 0.000473 0.000000
# 4 0.000000 0.000000 0.000000 0.057281 0.000000 -0.014216
# 5 -0.008239 -0.003394 0.000473 0.000000 0.069028 0.000000
# 6 0.000000 0.000000 0.000000 -0.014216 0.000000 0.038934
#
#
# Mechanical properties :
#
#
# Convention : Reuss Voigt Hill
#
# Bulk Modulus (GPa) = 68.51468 39.78038 54.14753
# Shear Modulus (GPa) = 27.94963 12.86039 20.40501
#
# Velocity S-wave (km/s) = 3.72983 2.53004 3.18691
# Velocity P-wave (km/s) = 7.25612 5.32307 6.36342
#
# Compressibility (1/GPa) = 0.01459541
#
# Stress axis : x y z
#
# Youngs Moduli (GPa) = 142.55269 88.95504 -152.28841
#
# Poissons Ratio (x) = 0.17747 0.75657
# Poissons Ratio (y) = 0.28439 -0.23153
# Poissons Ratio (z) = -0.70820 0.13524
#
# Static dielectric constant tensor:
#      x y z
#    x 1.771400 0.000000 0.001130 
#    y 0.000000 1.738390 0.000000 
#    z 0.001130 0.000000 1.699160 
# 
# From -- ./inp_files/257241.got.cif
#   From: 2010.05.17/outbox.cif.g08.bks.cpg/sg15_129_cif.got.tgz:257241.got - 2010.06.03 18:47:42.
