data_PCOD9303329
_publ_section_title
;
Structure prediction by ZEFSAII (Michael W. Deem and Ramdas Pophale) SiO2 
 PCOD9303329
Probable space group: C 2/C
;
_chemical_formula_sum "Si O2"
_cell_formula_units_Z 40
_cell_length_a 8.549344
_cell_length_b 14.206975
_cell_length_c 15.576276
_cell_angle_alpha 90.000000
_cell_angle_beta 112.752656
_cell_angle_gamma 90.000000
_cell_volume 1744.677560
_symmetry_space_group_name_H-M "C 2/C"
_symmetry_group_IT_number 15
_symmetry_cell_setting 'monoclinic'
loop_
_space_group_symop_operation_xyz
x,y,z
-x,y,1/2-z
-x,-y,-z
x,-y,1/2+z
1/2+x,1/2+y,z
1/2-x,1/2+y,1/2-z
1/2-x,1/2-y,-z
1/2+x,1/2-y,1/2+z
loop_
_atom_site_type_symbol
_atom_site_label
_atom_site_fract_x
_atom_site_fract_y
_atom_site_fract_z
Si Si1 0.317387 0.218713 0.257863
Si Si2 0.890171 0.219894 0.461153
Si Si3 0.156695 0.107294 0.608627
Si Si4 0.022936 0.588558 0.943781
Si Si5 0.325339 0.989458 0.769166
O O1 0.500000 0.232028 0.250000
O O2 0.187040 0.210900 0.150268
O O3 0.296725 0.301010 0.323094
O O4 0.308544 0.115847 0.300103
O O5 0.750000 0.250000 0.500000
O O6 0.986954 0.130746 0.521116
O O7 0.013051 0.309745 0.483475
O O8 0.304303 0.086089 0.572403
O O9 0.167704 0.021294 0.677731
O O10 0.864573 0.570642 0.845847
O O11 0.000000 0.500000 0.000000
O O12 0.500000 0.986246 0.750000
#
# Coordination Sequence:
#
# PCOD9303329 Si02
#       5
#     8   8   8   8   8
#     4  11  22  43  70  99 141 189 227 293 367 418
#     4  12  25  40  69 101 139 184 236 295 356 418
#     4  11  23  44  70 100 141 187 241 290 353 429
#     4  11  24  45  70  99 136 188 240 289 352 426
#     4   9  21  40  66  92 135 184 228 283 352 417
#
# _framework density 22.926873000000001
#
# number of rings (size 3 to 8) (size 9 to 14) (size 15 to 20)
#    0.000    1.200    4.000    1.800    5.600    0.800 
#    0.000    0.000    4.400    0.000    0.000    0.000 
#    0.000    0.000    0.000    0.000    0.000    0.000 
#
# Total GULP energy -111740.898279 kJ/mol
# GULP energy per Si atom -5587.044914 kJ/mol
# Density = 2.287469 g / cm^3
# Si number density = 22.926873 Si / 1000 Ang^3
#
#
#
# Elastic Constant Matrix: (Units=GPa)
#
#
# Indices 1 2 3 4 5 6 
#
# 1 54.5668 9.6174 23.9397 0.0000 2.2019 0.0000
# 2 9.6174 79.7393 12.2850 0.0000 -0.5518 0.0000
# 3 23.9397 12.2850 107.4756 0.0000 24.8627 0.0000
# 4 0.0000 0.0000 0.0000 47.9556 0.0000 -5.4722
# 5 2.2019 -0.5518 24.8627 0.0000 31.9247 0.0000
# 6 0.0000 0.0000 0.0000 -5.4722 0.0000 33.0344
#
#
#
# Elastic Compliance Matrix: (Units=1/GPa)
#
#
# Indices 1 2 3 4 5 6 
#
# 1 0.020715 -0.001715 -0.004977 0.000000 0.002418 0.000000
# 2 -0.001715 0.012980 -0.001440 0.000000 0.001464 0.000000
# 3 -0.004977 -0.001440 0.012812 0.000000 -0.009660 0.000000
# 4 0.000000 0.000000 0.000000 0.021254 0.000000 0.003521
# 5 0.002418 0.001464 -0.009660 0.000000 0.038705 0.000000
# 6 0.000000 0.000000 0.000000 0.003521 0.000000 0.030855
#
#
# Mechanical properties :
#
#
# Convention : Reuss Voigt Hill
#
# Bulk Modulus (GPa) = 33.06737 37.05178 35.05958
# Shear Modulus (GPa) = 30.54987 35.64558 33.09773
#
# Velocity S-wave (km/s) = 3.65429 3.94731 3.80362
# Velocity P-wave (km/s) = 5.67974 6.08037 5.88347
#
# Compressibility (1/GPa) = 0.03024129
#
# Stress axis : x y z
#
# Youngs Moduli (GPa) = 48.27528 77.04308 78.04926
#
# Poissons Ratio (x) = 0.13212 0.38849
# Poissons Ratio (y) = 0.08278 0.11243
# Poissons Ratio (z) = 0.24029 0.11098
#
# Static dielectric constant tensor:
#      x y z
#    x 1.738470 0.000000 0.086600 
#    y 0.000000 1.831040 0.000000 
#    z 0.086600 0.000000 1.917120 
# 
# From -- ./inp_files/133255.got.cif
#   From: 2010.05.17/outbox.cif.g08.bks.cpg/sg15_67_cif.got.tgz:133255.got - 2010.06.03 18:47:42.
