data_PCOD9303626
_publ_section_title
;
Structure prediction by ZEFSAII (Michael W. Deem and Ramdas Pophale) SiO2 
 PCOD9303626
Probable space group: C 2/C
;
_chemical_formula_sum "Si O2"
_cell_formula_units_Z 56
_cell_length_a 15.667667
_cell_length_b 11.701380
_cell_length_c 30.060194
_cell_angle_alpha 90.000000
_cell_angle_beta 31.951880
_cell_angle_gamma 90.000000
_cell_volume 2916.477601
_symmetry_space_group_name_H-M "C 2/C"
_symmetry_group_IT_number 15
_symmetry_cell_setting 'monoclinic'
loop_
_space_group_symop_operation_xyz
x,y,z
-x,y,1/2-z
-x,-y,-z
x,-y,1/2+z
1/2+x,1/2+y,z
1/2-x,1/2+y,1/2-z
1/2-x,1/2-y,-z
1/2+x,1/2-y,1/2+z
loop_
_atom_site_type_symbol
_atom_site_label
_atom_site_fract_x
_atom_site_fract_y
_atom_site_fract_z
Si Si1 0.097399 0.235813 0.369881
Si Si2 0.304952 0.688447 0.931249
Si Si3 0.047262 0.405848 0.133367
Si Si4 0.047589 0.364152 0.779144
Si Si5 0.143006 0.939624 0.565376
Si Si6 0.499764 0.862566 0.995988
Si Si7 0.848759 0.788200 0.849177
O O1 0.276690 0.190973 0.296592
O O2 0.039084 0.302341 0.439655
O O3 0.074967 0.321502 0.338114
O O4 0.984307 0.127370 0.408789
O O5 0.422352 0.770485 0.852274
O O6 0.389353 0.570050 0.907901
O O7 0.145107 0.664693 0.973294
O O8 0.250000 0.750000 0.000000
O O9 0.125335 0.336735 0.140324
O O10 0.966889 0.521998 0.185043
O O11 0.188360 0.432159 0.035539
O O12 0.000000 0.394223 0.750000
O O13 0.151421 0.871583 0.608010
O O14 0.674671 0.812800 0.904114
O O15 0.500000 0.000000 0.000000
O O16 0.000000 0.810640 0.750000
#
# Coordination Sequence:
#
# PCOD9303626 Si02
#       7
#     8   8   8   8   8   8   8
#     4  11  24  45  74 100 134 191 235 287 357 417
#     4  12  26  44  67 104 143 182 227 292 354 420
#     4  11  22  47  70  96 141 184 232 287 353 423
#     4  12  27  45  67 105 147 180 231 298 347 416
#     4  11  22  46  73  95 136 188 233 286 353 417
#     4  12  23  45  74 101 138 186 235 287 357 412
#     4  11  23  42  71 106 136 178 244 291 340 419
#
# _framework density 19.201243999999999
#
# number of rings (size 3 to 8) (size 9 to 14) (size 15 to 20)
#    0.000    0.571    7.143    1.286    2.000    4.000 
#    2.571    2.143    0.000    0.000    0.000    0.000 
#    0.000    0.000    0.000    0.000    0.000    0.000 
#
# Total GULP energy -156522.949786 kJ/mol
# GULP energy per Si atom -5590.105349 kJ/mol
# Density = 1.915754 g / cm^3
# Si number density = 19.201244 Si / 1000 Ang^3
#
#
#
# Elastic Constant Matrix: (Units=GPa)
#
#
# Indices 1 2 3 4 5 6 
#
# 1 107.6440 47.2385 42.6473 0.0000 -11.6903 0.0000
# 2 47.2385 131.1112 46.7860 0.0000 -4.9219 0.0000
# 3 42.6473 46.7860 131.4788 0.0001 -1.2151 0.0000
# 4 0.0000 0.0000 0.0001 23.7139 0.0000 5.4882
# 5 -11.6903 -4.9219 -1.2151 0.0000 33.9815 0.0000
# 6 0.0000 0.0000 0.0000 5.4882 0.0000 30.5300
#
#
#
# Elastic Compliance Matrix: (Units=1/GPa)
#
#
# Indices 1 2 3 4 5 6 
#
# 1 0.012218 -0.003280 -0.002762 0.000000 0.003629 0.000000
# 2 -0.003280 0.009663 -0.002373 0.000000 0.000186 0.000000
# 3 -0.002762 -0.002373 0.009337 0.000000 -0.000960 0.000000
# 4 0.000000 0.000000 0.000000 0.044000 0.000000 -0.007910
# 5 0.003629 0.000186 -0.000960 0.000000 0.030669 0.000000
# 6 0.000000 0.000000 0.000000 -0.007910 0.000000 0.034176
#
#
# Mechanical properties :
#
#
# Convention : Reuss Voigt Hill
#
# Bulk Modulus (GPa) = 69.50492 71.50863 70.50677
# Shear Modulus (GPa) = 30.92353 33.21590 32.06972
#
# Velocity S-wave (km/s) = 4.01745 4.16370 4.09123
# Velocity P-wave (km/s) = 7.60241 7.77417 7.68877
#
# Compressibility (1/GPa) = 0.01438747
#
# Stress axis : x y z
#
# Youngs Moduli (GPa) = 81.84742 103.49218 107.09809
#
# Poissons Ratio (x) = 0.33946 0.29584
# Poissons Ratio (y) = 0.26846 0.25411
# Poissons Ratio (z) = 0.22609 0.24556
#
# Static dielectric constant tensor:
#      x y z
#    x 1.659660 0.000000 -0.015150 
#    y 0.000000 1.701910 0.000000 
#    z -0.015150 0.000000 1.631680 
# 
# From -- ./inp_files/313704.got.cif
#   From: 2010.05.17/outbox.cif.g08.bks.cpg/sg15_157_cif.got.tgz:313704.got - 2010.06.03 18:47:42.
