data_PCOD9303762
_publ_section_title
;
Structure prediction by ZEFSAII (Michael W. Deem and Ramdas Pophale) SiO2 
 PCOD9303762
Probable space group: C 2/C
;
_chemical_formula_sum "Si O2"
_cell_formula_units_Z 48
_cell_length_a 12.213094
_cell_length_b 6.659706
_cell_length_c 23.940642
_cell_angle_alpha 90.000000
_cell_angle_beta 97.010240
_cell_angle_gamma 90.000000
_cell_volume 1932.670073
_symmetry_space_group_name_H-M "C 2/C"
_symmetry_group_IT_number 15
_symmetry_cell_setting 'monoclinic'
loop_
_space_group_symop_operation_xyz
x,y,z
-x,y,1/2-z
-x,-y,-z
x,-y,1/2+z
1/2+x,1/2+y,z
1/2-x,1/2+y,1/2-z
1/2-x,1/2-y,-z
1/2+x,1/2-y,1/2+z
loop_
_atom_site_type_symbol
_atom_site_label
_atom_site_fract_x
_atom_site_fract_y
_atom_site_fract_z
Si Si1 0.971256 0.184992 0.394213
Si Si2 0.111384 0.702299 0.266859
Si Si3 0.717504 0.399351 0.901773
Si Si4 0.324543 0.866385 0.304763
Si Si5 0.864830 0.469736 0.609413
Si Si6 0.884517 0.378935 0.490152
O O1 0.084741 0.061648 0.399038
O O2 0.018834 0.412312 0.388677
O O3 0.886063 0.178610 0.337902
O O4 0.910086 0.193569 0.450011
O O5 0.225692 0.804102 0.257797
O O6 0.098969 0.508323 0.227061
O O7 0.131393 0.645377 0.332549
O O8 0.000000 0.825881 0.250000
O O9 0.769143 0.503937 0.850892
O O10 0.792404 0.477391 0.957026
O O11 0.720033 0.157047 0.896597
O O12 0.850680 0.342610 0.552103
O O13 0.000000 0.500000 0.500000
#
# Coordination Sequence:
#
# PCOD9303762 Si02
#       6
#     8   8   8   8   8   8
#     4   8  18  35  60  81 119 151 190 241 291 339
#     4  12  24  41  59  87 114 157 197 246 289 349
#     4   9  18  35  58  88 118 153 189 243 290 348
#     4  11  23  39  60  83 118 150 200 240 296 345
#     4   9  18  35  59  82 120 151 192 241 290 337
#     4   9  16  29  58  94 112 155 197 233 286 358
#
# _framework density 24.836106000000001
#
# number of rings (size 3 to 8) (size 9 to 14) (size 15 to 20)
#    1.000    1.333    1.667    1.500    0.000    1.333 
#    0.000    3.333    0.000    2.000    0.000    0.000 
#    0.000    0.000    0.000    0.000    0.000    0.000 
#
# Total GULP energy -133960.939687 kJ/mol
# GULP energy per Si atom -5581.705820 kJ/mol
# Density = 2.477958 g / cm^3
# Si number density = 24.836106 Si / 1000 Ang^3
#
#
#
# Elastic Constant Matrix: (Units=GPa)
#
#
# Indices 1 2 3 4 5 6 
#
# 1 155.3877 30.1114 47.1140 0.0000 24.3842 0.0000
# 2 30.1114 56.3288 33.5331 0.0000 1.3541 0.0000
# 3 47.1140 33.5331 151.6417 0.0000 -3.2132 0.0000
# 4 0.0000 0.0000 0.0000 13.8047 0.0000 1.6750
# 5 24.3842 1.3541 -3.2132 0.0000 42.0207 0.0000
# 6 0.0000 0.0000 0.0000 1.6750 0.0000 37.4879
#
#
#
# Elastic Compliance Matrix: (Units=1/GPa)
#
#
# Indices 1 2 3 4 5 6 
#
# 1 0.008444 -0.003191 -0.002023 0.000000 -0.004952 0.000000
# 2 -0.003191 0.021692 -0.003787 0.000000 0.000863 0.000000
# 3 -0.002023 -0.003787 0.008101 0.000000 0.001915 0.000000
# 4 0.000000 0.000000 0.000000 0.072834 0.000000 -0.003254
# 5 -0.004952 0.000863 0.001915 0.000000 0.026790 0.000000
# 6 0.000000 0.000000 0.000000 -0.003254 0.000000 0.026821
#
#
# Mechanical properties :
#
#
# Convention : Reuss Voigt Hill
#
# Bulk Modulus (GPa) = 49.41714 64.98612 57.20163
# Shear Modulus (GPa) = 26.39505 35.50264 30.94885
#
# Velocity S-wave (km/s) = 3.26355 3.78494 3.53388
# Velocity P-wave (km/s) = 5.84307 6.73230 6.30339
#
# Compressibility (1/GPa) = 0.02023590
#
# Stress axis : x y z
#
# Youngs Moduli (GPa) = 118.42352 46.09902 123.44013
#
# Poissons Ratio (x) = 0.14709 0.24971
# Poissons Ratio (y) = 0.37785 0.46751
# Poissons Ratio (z) = 0.23956 0.17459
#
# Static dielectric constant tensor:
#      x y z
#    x 2.030340 0.000000 0.046420 
#    y 0.000000 1.966260 0.000000 
#    z 0.046420 0.000000 1.979770 
# 
# From -- ./inp_files/290871.got.cif
#   From: 2010.05.17/outbox.cif.g08.bks.cpg/sg15_146_cif.got.tgz:290871.got - 2010.06.03 18:47:42.
