data_PCOD9303798
_publ_section_title
;
Structure prediction by ZEFSAII (Michael W. Deem and Ramdas Pophale) SiO2 
 PCOD9303798
Probable space group: C 2/C
;
_chemical_formula_sum "Si O2"
_cell_formula_units_Z 64
_cell_length_a 30.782698
_cell_length_b 16.635865
_cell_length_c 9.033721
_cell_angle_alpha 90.000000
_cell_angle_beta 38.137661
_cell_angle_gamma 90.000000
_cell_volume 2856.886448
_symmetry_space_group_name_H-M "C 2/C"
_symmetry_group_IT_number 15
_symmetry_cell_setting 'monoclinic'
loop_
_space_group_symop_operation_xyz
x,y,z
-x,y,1/2-z
-x,-y,-z
x,-y,1/2+z
1/2+x,1/2+y,z
1/2-x,1/2+y,1/2-z
1/2-x,1/2-y,-z
1/2+x,1/2-y,1/2+z
loop_
_atom_site_type_symbol
_atom_site_label
_atom_site_fract_x
_atom_site_fract_y
_atom_site_fract_z
Si Si1 0.925724 0.332694 0.036745
Si Si2 0.924677 0.898089 0.290700
Si Si3 0.460233 0.060202 0.717078
Si Si4 0.342902 0.055783 0.569714
Si Si5 0.109978 0.063224 0.955299
Si Si6 0.917926 0.842263 0.692321
Si Si7 0.798210 0.829280 0.811975
Si Si8 0.761134 0.496105 0.541745
O O1 0.925513 0.383565 0.188324
O O2 0.866482 0.360536 0.077777
O O3 0.914170 0.246451 0.137261
O O4 0.000000 0.337510 0.750000
O O5 0.907905 0.921233 0.166483
O O6 0.865087 0.834166 0.512022
O O7 0.920143 0.979911 0.398058
O O8 0.006060 0.870949 0.069982
O O9 0.500000 0.100471 0.750000
O O10 0.500000 0.000000 0.500000
O O11 0.407103 0.000898 0.939778
O O12 0.324905 0.043799 0.448126
O O13 0.277358 0.016171 0.826570
O O14 0.192800 0.048799 0.747196
O O15 0.084271 0.135144 0.129921
O O16 0.842155 0.870358 0.830426
O O17 0.748788 0.902132 0.883534
O O18 0.750000 0.750000 0.000000
#
# Coordination Sequence:
#
# PCOD9303798 Si02
#       8
#     8   8   8   8   8   8   8   8
#     4  12  25  42  68 104 140 186 238 307 373 446
#     4  11  24  46  78 110 141 193 249 304 366 443
#     4  12  21  40  64  95 133 176 242 304 361 423
#     4  12  21  39  68  98 133 180 244 292 353 443
#     4  11  24  46  75 109 147 185 250 311 363 436
#     4  12  26  45  72 106 148 191 243 305 384 435
#     4  11  24  45  69 102 148 192 236 300 370 437
#     4  11  23  39  67 101 133 184 242 286 354 440
#
# _framework density 22.402011000000002
#
# number of rings (size 3 to 8) (size 9 to 14) (size 15 to 20)
#    0.000    0.500    3.750    6.375    0.000    3.000 
#    0.000    0.625    2.750    0.000    0.000    0.000 
#    0.000    0.000    0.000    0.000    0.000    0.000 
#
# Total GULP energy -178138.925990 kJ/mol
# GULP energy per Si atom -5566.841437 kJ/mol
# Density = 2.235102 g / cm^3
# Si number density = 22.402011 Si / 1000 Ang^3
#
#
#
# Elastic Constant Matrix: (Units=GPa)
#
#
# Indices 1 2 3 4 5 6 
#
# 1 133.2078 58.6474 37.2466 0.0000 11.6670 0.0000
# 2 58.6474 110.5090 42.6008 0.0000 10.3744 0.0000
# 3 37.2466 42.6008 135.0656 0.0000 7.7360 0.0000
# 4 0.0000 0.0000 0.0000 37.1928 0.0000 5.3274
# 5 11.6670 10.3744 7.7360 0.0000 41.1371 0.0000
# 6 0.0000 0.0000 0.0000 5.3274 0.0000 31.8737
#
#
#
# Elastic Compliance Matrix: (Units=1/GPa)
#
#
# Indices 1 2 3 4 5 6 
#
# 1 0.010054 -0.004740 -0.001195 0.000000 -0.001431 0.000000
# 2 -0.004740 0.012704 -0.002621 0.000000 -0.001366 0.000000
# 3 -0.001195 -0.002621 0.008596 0.000000 -0.000616 0.000000
# 4 0.000000 0.000000 0.000000 0.027546 0.000000 -0.004604
# 5 -0.001431 -0.001366 -0.000616 0.000000 0.025175 0.000000
# 6 0.000000 0.000000 0.000000 -0.004604 0.000000 0.032143
#
#
# Mechanical properties :
#
#
# Convention : Reuss Voigt Hill
#
# Bulk Modulus (GPa) = 70.23112 72.86355 71.54733
# Shear Modulus (GPa) = 36.21136 38.05988 37.13562
#
# Velocity S-wave (km/s) = 4.02485 4.12630 4.07589
# Velocity P-wave (km/s) = 7.28132 7.43626 7.35920
#
# Compressibility (1/GPa) = 0.01423870
#
# Stress axis : x y z
#
# Youngs Moduli (GPa) = 99.46603 78.71826 116.33957
#
# Poissons Ratio (x) = 0.37315 0.13907
# Poissons Ratio (y) = 0.47151 0.30496
# Poissons Ratio (z) = 0.11890 0.20634
#
# Static dielectric constant tensor:
#      x y z
#    x 1.919600 0.000000 -0.061250 
#    y 0.000000 1.852150 0.000000 
#    z -0.061250 0.000000 1.861180 
# 
# From -- ./inp_files/70592.got.cif
#   From: 2010.05.17/outbox.cif.g08.bks.cpg/sg15_36_cif.got.tgz:70592.got - 2010.06.03 18:47:42.
