data_PCOD9304206
_publ_section_title
;
Structure prediction by ZEFSAII (Michael W. Deem and Ramdas Pophale) SiO2 
 PCOD9304206
Probable space group: C 2/C
;
_chemical_formula_sum "Si O2"
_cell_formula_units_Z 44
_cell_length_a 9.022891
_cell_length_b 17.403106
_cell_length_c 10.130684
_cell_angle_alpha 90.000000
_cell_angle_beta 111.569803
_cell_angle_gamma 90.000000
_cell_volume 1479.382094
_symmetry_space_group_name_H-M "C 2/C"
_symmetry_group_IT_number 15
_symmetry_cell_setting 'monoclinic'
loop_
_space_group_symop_operation_xyz
x,y,z
-x,y,1/2-z
-x,-y,-z
x,-y,1/2+z
1/2+x,1/2+y,z
1/2-x,1/2+y,1/2-z
1/2-x,1/2-y,-z
1/2+x,1/2-y,1/2+z
loop_
_atom_site_type_symbol
_atom_site_label
_atom_site_fract_x
_atom_site_fract_y
_atom_site_fract_z
Si Si1 0.281147 0.438291 0.413974
Si Si2 0.391302 0.778920 0.090986
Si Si3 0.395044 0.025969 0.342777
Si Si4 0.071446 0.709141 0.153557
Si Si5 0.898026 0.912897 0.084741
Si Si6 0.750000 0.250000 0.500000
O O1 0.158884 0.369694 0.402454
O O2 0.255466 0.478494 0.263138
O O3 0.459342 0.403929 0.475647
O O4 0.000000 0.506530 0.250000
O O5 0.500000 0.754388 0.250000
O O6 0.216095 0.740241 0.094982
O O7 0.538408 0.771135 0.018218
O O8 0.389024 0.117996 0.337536
O O9 0.500000 0.000000 0.500000
O O10 0.194602 0.992041 0.475599
O O11 0.877614 0.730985 0.176772
O O12 0.000000 0.901325 0.250000
O O13 0.783437 0.843025 0.026712
#
# Coordination Sequence:
#
# PCOD9304206 Si02
#       6
#     8   8   8   8   8   4
#     4  11  26  50  75 117 156 202 272 331 410 481
#     4  12  29  51  80 117 159 214 269 339 410 489
#     4  11  23  42  75 111 145 201 256 321 393 476
#     4  11  26  44  75 107 151 206 259 328 391 484
#     4  11  27  46  78 112 158 209 262 339 402 490
#     4  12  26  46  72 110 160 204 266 316 406 476
#
# _framework density 29.742149000000001
#
# number of rings (size 3 to 8) (size 9 to 14) (size 15 to 20)
#    0.000    0.727    0.000    6.545   12.727    0.727 
#    3.273    0.000    0.000    0.000    0.000    0.000 
#    0.000    0.000    0.000    0.000    0.000    0.000 
#
# Total GULP energy -122698.195403 kJ/mol
# GULP energy per Si atom -5577.190700 kJ/mol
# Density = 2.967445 g / cm^3
# Si number density = 29.742149 Si / 1000 Ang^3
#
#
#
# Elastic Constant Matrix: (Units=GPa)
#
#
# Indices 1 2 3 4 5 6 
#
# 1 154.9130 31.1547 109.9180 0.0000 -5.4579 0.0000
# 2 31.1547 239.0614 62.4035 0.0000 0.2207 0.0000
# 3 109.9180 62.4035 318.5465 0.0000 -36.1973 0.0000
# 4 0.0000 0.0000 0.0000 37.8021 0.0000 62.8932
# 5 -5.4579 0.2207 -36.1973 0.0000 102.3478 0.0000
# 6 0.0000 0.0000 0.0000 62.8932 0.0000 15.1089
#
#
#
# Elastic Compliance Matrix: (Units=1/GPa)
#
#
# Indices 1 2 3 4 5 6 
#
# 1 0.008612 -0.000346 -0.002971 0.000000 -0.000591 0.000000
# 2 -0.000346 0.004433 -0.000784 0.000000 -0.000305 0.000000
# 3 -0.002971 -0.000784 0.004480 0.000000 0.001428 0.000000
# 4 0.000000 0.000000 0.000000 -0.004464 0.000000 0.018583
# 5 -0.000591 -0.000305 0.001428 0.000000 0.010245 0.000000
# 6 0.000000 0.000000 0.000000 0.018583 0.000000 -0.011169
#
#
# Mechanical properties :
#
#
# Convention : Reuss Voigt Hill
#
# Bulk Modulus (GPa) = 107.25549 124.38591 115.82070
# Shear Modulus (GPa) = 213.25721 64.98808 139.12264
#
# Velocity S-wave (km/s) = 8.47689 4.67952 6.84674
# Velocity P-wave (km/s) = 11.48696 8.43264 10.07620
#
# Compressibility (1/GPa) = 0.00932353
#
# Stress axis : x y z
#
# Youngs Moduli (GPa) = 116.11536 225.58164 223.20487
#
# Poissons Ratio (x) = 0.07811 0.66314
# Poissons Ratio (y) = 0.04021 0.17491
# Poissons Ratio (z) = 0.34498 0.17677
#
# Static dielectric constant tensor:
#      x y z
#    x -1.504940 0.000000 -0.923120 
#    y 0.000000 2.091970 0.000000 
#    z -0.923120 0.000000 2.081360 
# 
# From -- ./inp_files/134945.got.cif
#   From: 2010.05.17/outbox.cif.g08.bks.cpg/sg15_68_cif.got.tgz:134945.got - 2010.06.03 18:47:42.
