data_PCOD9304512
_publ_section_title
;
Structure prediction by ZEFSAII (Michael W. Deem and Ramdas Pophale) SiO2 
 PCOD9304512
Probable space group: C 2/C
;
_chemical_formula_sum "Si O2"
_cell_formula_units_Z 40
_cell_length_a 9.355992
_cell_length_b 17.412691
_cell_length_c 11.914872
_cell_angle_alpha 90.000000
_cell_angle_beta 75.529400
_cell_angle_gamma 90.000000
_cell_volume 1879.508434
_symmetry_space_group_name_H-M "C 2/C"
_symmetry_group_IT_number 15
_symmetry_cell_setting 'monoclinic'
loop_
_space_group_symop_operation_xyz
x,y,z
-x,y,1/2-z
-x,-y,-z
x,-y,1/2+z
1/2+x,1/2+y,z
1/2-x,1/2+y,1/2-z
1/2-x,1/2-y,-z
1/2+x,1/2-y,1/2+z
loop_
_atom_site_type_symbol
_atom_site_label
_atom_site_fract_x
_atom_site_fract_y
_atom_site_fract_z
Si Si1 0.847154 0.707946 0.826381
Si Si2 0.621211 0.842351 0.931363
Si Si3 0.335383 0.574937 0.240928
Si Si4 0.332948 0.598913 0.792439
Si Si5 0.721060 0.839678 0.541632
O O1 0.718071 0.768772 0.875020
O O2 0.783377 0.651530 0.747129
O O3 0.000000 0.741522 0.750000
O O4 0.881880 0.663278 0.934202
O O5 0.717128 0.910651 0.862383
O O6 0.455993 0.844874 0.917750
O O7 0.500000 0.592794 0.250000
O O8 0.333576 0.482877 0.228860
O O9 0.290585 0.628230 0.143941
O O10 0.500000 0.629808 0.750000
O O11 0.286355 0.605095 0.931562
O O12 0.750000 0.750000 0.500000
#
# Coordination Sequence:
#
# PCOD9304512 Si02
#       5
#     8   8   8   8   8
#     4  11  23  44  71 105 138 182 236 286 354 415
#     4  11  25  43  71 102 139 184 230 297 343 420
#     4  11  28  45  71 103 143 186 235 286 356 419
#     4  11  26  45  70 102 144 187 230 293 351 419
#     4  12  26  47  74 105 138 187 241 291 351 421
#
# _framework density 21.282160999999999
#
# number of rings (size 3 to 8) (size 9 to 14) (size 15 to 20)
#    0.000    0.800    2.000    3.600   11.200    4.000 
#    0.000    0.000    0.000    0.000    0.000    0.000 
#    0.000    0.000    0.000    0.000    0.000    0.000 
#
# Total GULP energy -111746.762766 kJ/mol
# GULP energy per Si atom -5587.338138 kJ/mol
# Density = 2.123372 g / cm^3
# Si number density = 21.282161 Si / 1000 Ang^3
#
#
#
# Elastic Constant Matrix: (Units=GPa)
#
#
# Indices 1 2 3 4 5 6 
#
# 1 179.7959 19.3187 36.9562 0.0000 -17.9172 0.0000
# 2 19.3187 47.0064 0.8868 0.0000 6.1305 0.0000
# 3 36.9562 0.8868 106.9143 0.0000 -1.4210 0.0000
# 4 0.0000 0.0000 0.0000 31.5258 0.0000 -16.7105
# 5 -17.9172 6.1305 -1.4210 0.0000 41.4510 0.0000
# 6 0.0000 0.0000 0.0000 -16.7105 0.0000 51.2082
#
#
#
# Elastic Compliance Matrix: (Units=1/GPa)
#
#
# Indices 1 2 3 4 5 6 
#
# 1 0.006686 -0.003133 -0.002241 0.000000 0.003276 0.000000
# 2 -0.003133 0.023165 0.000828 0.000000 -0.004752 0.000000
# 3 -0.002241 0.000828 0.010111 0.000000 -0.000745 0.000000
# 4 0.000000 0.000000 0.000000 0.038354 0.000000 0.012516
# 5 0.003276 -0.004752 -0.000745 0.000000 0.026218 0.000000
# 6 0.000000 0.000000 0.000000 0.012516 0.000000 0.023612
#
#
# Mechanical properties :
#
#
# Convention : Reuss Voigt Hill
#
# Bulk Modulus (GPa) = 32.39487 49.78223 41.08855
# Shear Modulus (GPa) = 33.89141 43.27401 38.58271
#
# Velocity S-wave (km/s) = 3.99492 4.51416 4.26245
# Velocity P-wave (km/s) = 6.04432 7.11424 6.60099
#
# Compressibility (1/GPa) = 0.03086909
#
# Stress axis : x y z
#
# Youngs Moduli (GPa) = 149.57325 43.16805 98.89909
#
# Poissons Ratio (x) = 0.13523 0.22168
# Poissons Ratio (y) = 0.46857 -0.08185
# Poissons Ratio (z) = 0.33526 -0.03572
#
# Static dielectric constant tensor:
#      x y z
#    x 1.391220 0.000000 0.587940 
#    y 0.000000 1.801020 0.000000 
#    z 0.587940 0.000000 0.728590 
# 
# From -- ./inp_files/76685.got.cif
#   From: 2010.05.17/outbox.cif.g08.bks.cpg/sg15_39_cif.got.tgz:76685.got - 2010.06.03 18:47:42.
