data_PCOD9304478
_publ_section_title
;
Structure prediction by ZEFSAII (Michael W. Deem and Ramdas Pophale) SiO2 
 PCOD9304478
Probable space group: C 2/C
;
_chemical_formula_sum "Si O2"
_cell_formula_units_Z 48
_cell_length_a 29.522102
_cell_length_b 14.217776
_cell_length_c 13.655519
_cell_angle_alpha 90.000000
_cell_angle_beta 158.122057
_cell_angle_gamma 90.000000
_cell_volume 2135.824844
_symmetry_space_group_name_H-M "C 2/C"
_symmetry_group_IT_number 15
_symmetry_cell_setting 'monoclinic'
loop_
_space_group_symop_operation_xyz
x,y,z
-x,y,1/2-z
-x,-y,-z
x,-y,1/2+z
1/2+x,1/2+y,z
1/2-x,1/2+y,1/2-z
1/2-x,1/2-y,-z
1/2+x,1/2-y,1/2+z
loop_
_atom_site_type_symbol
_atom_site_label
_atom_site_fract_x
_atom_site_fract_y
_atom_site_fract_z
Si Si1 0.969921 0.090506 0.873767
Si Si2 0.798661 0.138879 0.700327
Si Si3 0.643947 0.804801 0.556999
Si Si4 0.356844 0.990194 0.217652
Si Si5 0.773213 0.181415 0.134328
Si Si6 0.227548 0.000311 0.659874
O O1 0.901593 0.146422 0.822425
O O2 0.891090 0.051298 0.624860
O O3 0.089680 0.145009 0.080488
O O4 0.000000 0.000000 0.000000
O O5 0.800475 0.244501 0.743426
O O6 0.694611 0.088299 0.428176
O O7 0.805186 0.069431 0.813068
O O8 0.720408 0.765283 0.620448
O O9 0.680953 0.913883 0.633727
O O10 0.500000 0.791824 0.250000
O O11 0.500000 0.000000 0.500000
O O12 0.296996 0.960680 0.202050
O O13 0.308980 0.909577 0.050581
O O14 0.750000 0.250000 0.000000
#
# Coordination Sequence:
#
# PCOD9304478 Si02
#       6
#     8   8   8   8   8   8
#     4  11  23  44  70 101 136 180 233 295 347 414
#     4  11  25  44  71 104 138 187 234 286 359 410
#     4  12  26  42  70 104 139 187 235 290 352 428
#     4  11  24  44  69  97 143 184 224 291 353 419
#     4  12  24  44  66 103 136 179 234 286 352 410
#     4  11  24  44  70 101 139 182 237 288 354 417
#
# _framework density 22.473754
#
# number of rings (size 3 to 8) (size 9 to 14) (size 15 to 20)
#    0.000    0.667    5.000    3.000    2.333    6.000 
#    0.000    1.667    0.000    0.000    0.000    0.000 
#    0.000    0.000    0.000    0.000    0.000    0.000 
#
# Total GULP energy -133755.242606 kJ/mol
# GULP energy per Si atom -5573.135109 kJ/mol
# Density = 2.242260 g / cm^3
# Si number density = 22.473754 Si / 1000 Ang^3
#
#
#
# Elastic Constant Matrix: (Units=GPa)
#
#
# Indices 1 2 3 4 5 6 
#
# 1 129.0536 18.5400 48.2802 0.0000 6.8805 0.0000
# 2 18.5400 68.8809 19.9458 0.0000 0.7633 0.0000
# 3 48.2802 19.9458 128.3467 0.0000 33.9930 0.0000
# 4 0.0000 0.0000 0.0000 -4.6680 0.0000 -17.4926
# 5 6.8805 0.7633 33.9930 0.0000 25.7981 0.0000
# 6 0.0000 0.0000 0.0000 -17.4926 0.0000 50.7470
#
#
#
# Elastic Compliance Matrix: (Units=1/GPa)
#
#
# Indices 1 2 3 4 5 6 
#
# 1 0.009308 -0.001362 -0.004060 0.000000 0.002907 0.000000
# 2 -0.001362 0.015688 -0.002917 0.000000 0.003742 0.000000
# 3 -0.004060 -0.002917 0.014535 0.000000 -0.017982 0.000000
# 4 0.000000 0.000000 0.000000 -0.093478 0.000000 -0.032222
# 5 0.002907 0.003742 -0.017982 0.000000 0.061571 0.000000
# 6 0.000000 0.000000 0.000000 -0.032222 0.000000 0.008599
#
#
# Mechanical properties :
#
#
# Convention : Reuss Voigt Hill
#
# Bulk Modulus (GPa) = 43.75758 55.53480 49.64619
# Shear Modulus (GPa) = 123.40512 30.34310 76.87411
#
# Velocity S-wave (km/s) = 7.41822 3.67843 5.85495
# Velocity P-wave (km/s) = 9.63774 6.54261 8.23686
#
# Compressibility (1/GPa) = 0.02285318
#
# Stress axis : x y z
#
# Youngs Moduli (GPa) = 107.43226 63.74475 68.80153
#
# Poissons Ratio (x) = 0.08682 0.27932
# Poissons Ratio (y) = 0.14632 0.20068
# Poissons Ratio (z) = 0.43615 0.18593
#
# Static dielectric constant tensor:
#      x y z
#    x 1.915670 0.000000 -0.068990 
#    y 0.000000 1.896910 0.000000 
#    z -0.068990 0.000000 1.836750 
# 
# From -- ./inp_files/182531.got.cif
#   From: 2010.05.17/outbox.cif.g08.bks.cpg/sg15_92_cif.got.tgz:182531.got - 2010.06.03 18:47:42.
