data_PCOD9304505
_publ_section_title
;
Structure prediction by ZEFSAII (Michael W. Deem and Ramdas Pophale) SiO2 
 PCOD9304505
Probable space group: C 2/C
;
_chemical_formula_sum "Si O2"
_cell_formula_units_Z 56
_cell_length_a 30.290379
_cell_length_b 8.723526
_cell_length_c 11.148704
_cell_angle_alpha 90.000000
_cell_angle_beta 113.388866
_cell_angle_gamma 90.000000
_cell_volume 2703.860275
_symmetry_space_group_name_H-M "C 2/C"
_symmetry_group_IT_number 15
_symmetry_cell_setting 'monoclinic'
loop_
_space_group_symop_operation_xyz
x,y,z
-x,y,1/2-z
-x,-y,-z
x,-y,1/2+z
1/2+x,1/2+y,z
1/2-x,1/2+y,1/2-z
1/2-x,1/2-y,-z
1/2+x,1/2-y,1/2+z
loop_
_atom_site_type_symbol
_atom_site_label
_atom_site_fract_x
_atom_site_fract_y
_atom_site_fract_z
Si Si1 0.627624 0.583787 0.574041
Si Si2 0.859296 0.406046 0.296032
Si Si3 0.197571 0.701744 0.304130
Si Si4 0.073185 0.708974 0.827040
Si Si5 0.545046 0.051904 0.469658
Si Si6 0.808560 0.811786 0.929857
Si Si7 0.957572 0.878644 0.935386
O O1 0.661249 0.694725 0.688095
O O2 0.590950 0.678609 0.450659
O O3 0.665596 0.476488 0.544880
O O4 0.592322 0.472349 0.611337
O O5 0.819534 0.528718 0.224922
O O6 0.878697 0.330385 0.196076
O O7 0.906672 0.483579 0.403582
O O8 0.839732 0.292059 0.374837
O O9 0.192151 0.752990 0.435458
O O10 0.253390 0.701938 0.327293
O O11 0.051176 0.551771 0.857709
O O12 0.040375 0.793514 0.691638
O O13 0.542426 0.238806 0.466801
O O14 0.500000 0.000000 0.500000
O O15 0.000000 0.000000 0.000000
#
# Coordination Sequence:
#
# PCOD9304505 Si02
#       7
#     8   8   8   8   8   8   8
#     4  12  23  45  69 104 140 185 236 299 361 421
#     4  11  23  45  68 101 139 184 233 289 357 432
#     4  11  25  42  71  95 140 186 237 296 353 424
#     4  11  24  46  72 103 147 184 234 293 359 436
#     4  11  23  44  71 101 140 181 231 280 351 429
#     4  11  24  45  64 104 136 184 242 292 354 420
#     4  11  26  46  72 107 146 185 239 294 358 425
#
# _framework density 20.711129
#
# number of rings (size 3 to 8) (size 9 to 14) (size 15 to 20)
#    0.000    0.857    4.286    3.429    0.000    5.143 
#    0.000    4.286    0.000    0.000    0.000    0.000 
#    0.000    0.000    0.000    0.000    0.000    0.000 
#
# Total GULP energy -156409.044503 kJ/mol
# GULP energy per Si atom -5586.037304 kJ/mol
# Density = 2.066399 g / cm^3
# Si number density = 20.711129 Si / 1000 Ang^3
#
#
#
# Elastic Constant Matrix: (Units=GPa)
#
#
# Indices 1 2 3 4 5 6 
#
# 1 121.9970 33.3898 32.9348 0.0000 2.6769 0.0000
# 2 33.3898 110.1957 47.9126 0.0000 3.0505 0.0000
# 3 32.9348 47.9126 77.3955 0.0000 5.8831 0.0000
# 4 0.0000 0.0000 0.0000 38.4118 0.0000 -10.0300
# 5 2.6769 3.0505 5.8831 0.0000 34.9543 0.0000
# 6 0.0000 0.0000 0.0000 -10.0300 0.0000 42.3647
#
#
#
# Elastic Compliance Matrix: (Units=1/GPa)
#
#
# Indices 1 2 3 4 5 6 
#
# 1 0.009445 -0.001525 -0.003069 0.000000 -0.000074 0.000000
# 2 -0.001525 0.012665 -0.007208 0.000000 0.000225 0.000000
# 3 -0.003069 -0.007208 0.018865 0.000000 -0.002311 0.000000
# 4 0.000000 0.000000 0.000000 0.027749 0.000000 0.006570
# 5 -0.000074 0.000225 -0.002311 0.000000 0.028984 0.000000
# 6 0.000000 0.000000 0.000000 0.006570 0.000000 0.025160
#
#
# Mechanical properties :
#
#
# Convention : Reuss Voigt Hill
#
# Bulk Modulus (GPa) = 57.57518 59.78472 58.67995
# Shear Modulus (GPa) = 32.83807 36.16956 34.50382
#
# Velocity S-wave (km/s) = 3.98619 4.18351 4.08604
# Velocity P-wave (km/s) = 7.00327 7.22941 7.11724
#
# Compressibility (1/GPa) = 0.01736859
#
# Stress axis : x y z
#
# Youngs Moduli (GPa) = 105.88102 78.95858 53.00874
#
# Poissons Ratio (x) = 0.12043 0.16270
# Poissons Ratio (y) = 0.16149 0.38211
# Poissons Ratio (z) = 0.32497 0.56916
#
# Static dielectric constant tensor:
#      x y z
#    x 1.734340 0.000000 -0.017490 
#    y 0.000000 1.759800 0.000000 
#    z -0.017490 0.000000 1.758180 
# 
# From -- ./inp_files/125633.got.cif
#   From: 2010.05.17/outbox.cif.g08.bks.cpg/sg15_63_cif.got.tgz:125633.got - 2010.06.03 18:47:42.
