data_PCOD9304899
_publ_section_title
;
Structure prediction by ZEFSAII (Michael W. Deem and Ramdas Pophale) SiO2 
 PCOD9304899
Probable space group: C 2/C
;
_chemical_formula_sum "Si O2"
_cell_formula_units_Z 40
_cell_length_a 9.971627
_cell_length_b 10.303037
_cell_length_c 17.080304
_cell_angle_alpha 90.000000
_cell_angle_beta 90.055976
_cell_angle_gamma 90.000000
_cell_volume 1754.796151
_symmetry_space_group_name_H-M "C 2/C"
_symmetry_group_IT_number 15
_symmetry_cell_setting 'monoclinic'
loop_
_space_group_symop_operation_xyz
x,y,z
-x,y,1/2-z
-x,-y,-z
x,-y,1/2+z
1/2+x,1/2+y,z
1/2-x,1/2+y,1/2-z
1/2-x,1/2-y,-z
1/2+x,1/2-y,1/2+z
loop_
_atom_site_type_symbol
_atom_site_label
_atom_site_fract_x
_atom_site_fract_y
_atom_site_fract_z
Si Si1 0.700735 0.627166 0.822960
Si Si2 0.975324 0.120874 0.942189
Si Si3 0.817821 0.454338 0.081720
Si Si4 0.411083 0.151243 0.952015
Si Si5 0.659947 0.892722 0.761114
O O1 0.555260 0.605116 0.861165
O O2 0.795509 0.683795 0.891489
O O3 0.696040 0.740317 0.757994
O O4 0.764029 0.491142 0.796284
O O5 0.816366 0.128365 0.928907
O O6 0.040229 0.243076 0.985816
O O7 0.000000 0.000000 0.000000
O O8 0.802730 0.553848 0.152825
O O9 0.954861 0.377891 0.096847
O O10 0.852015 0.530879 0.001567
O O11 0.500000 0.903655 0.750000
#
# Coordination Sequence:
#
# PCOD9304899 Si02
#       5
#     8   8   8   8   8
#     4  12  27  50  76 105 153 197 246 305 371 440
#     4  12  24  42  75 112 137 182 251 308 358 430
#     4  11  24  45  77 106 143 191 238 305 369 430
#     4  11  23  48  74 107 145 188 244 303 366 432
#     4  12  28  51  71 107 155 198 242 302 374 448
#
# _framework density 22.794673
#
# number of rings (size 3 to 8) (size 9 to 14) (size 15 to 20)
#    0.000    0.400    6.000    2.400    2.800    1.600 
#    3.600    0.000    0.000    0.000    0.000    0.000 
#    0.000    0.000    0.000    0.000    0.000    0.000 
#
# Total GULP energy -111917.237402 kJ/mol
# GULP energy per Si atom -5595.861870 kJ/mol
# Density = 2.274279 g / cm^3
# Si number density = 22.794673 Si / 1000 Ang^3
#
#
#
# Elastic Constant Matrix: (Units=GPa)
#
#
# Indices 1 2 3 4 5 6 
#
# 1 168.9213 41.5613 27.9236 0.0000 -7.5778 0.0000
# 2 41.5613 78.1199 7.0629 0.0000 -7.9862 0.0000
# 3 27.9236 7.0629 46.2329 0.0000 6.4910 0.0000
# 4 0.0000 0.0000 0.0000 41.2509 0.0000 1.4743
# 5 -7.5778 -7.9862 6.4910 0.0000 23.1794 0.0000
# 6 0.0000 0.0000 0.0000 1.4743 0.0000 32.0676
#
#
#
# Elastic Compliance Matrix: (Units=1/GPa)
#
#
# Indices 1 2 3 4 5 6 
#
# 1 0.007599 -0.003380 -0.004433 0.000000 0.002561 0.000000
# 2 -0.003380 0.015124 -0.000880 0.000000 0.004352 0.000000
# 3 -0.004433 -0.000880 0.025698 0.000000 -0.008948 0.000000
# 4 0.000000 0.000000 0.000000 0.024282 0.000000 -0.001116
# 5 0.002561 0.004352 -0.008948 0.000000 0.047984 0.000000
# 6 0.000000 0.000000 0.000000 -0.001116 0.000000 0.031235
#
#
# Mechanical properties :
#
#
# Convention : Reuss Voigt Hill
#
# Bulk Modulus (GPa) = 32.22212 49.59664 40.90938
# Shear Modulus (GPa) = 27.83141 33.74802 30.78971
#
# Velocity S-wave (km/s) = 3.49802 3.85193 3.67923
# Velocity P-wave (km/s) = 5.52099 6.44891 6.00290
#
# Compressibility (1/GPa) = 0.03103459
#
# Stress axis : x y z
#
# Youngs Moduli (GPa) = 131.59109 66.12145 38.91393
#
# Poissons Ratio (x) = 0.22351 0.17250
# Poissons Ratio (y) = 0.44483 0.03423
# Poissons Ratio (z) = 0.58334 0.05817
#
# Static dielectric constant tensor:
#      x y z
#    x 1.822980 0.000000 -0.005400 
#    y 0.000000 1.893210 0.000000 
#    z -0.005400 0.000000 1.849330 
# 
# From -- ./inp_files/187873.got.cif
#   From: 2010.05.17/outbox.cif.g08.bks.cpg/sg15_94_cif.got.tgz:187873.got - 2010.06.03 18:47:42.
