data_PCOD9304755
_publ_section_title
;
Structure prediction by ZEFSAII (Michael W. Deem and Ramdas Pophale) SiO2 
 PCOD9304755
Probable space group: C 2/C
;
_chemical_formula_sum "Si O2"
_cell_formula_units_Z 36
_cell_length_a 13.877925
_cell_length_b 11.337693
_cell_length_c 9.616527
_cell_angle_alpha 90.000000
_cell_angle_beta 116.446665
_cell_angle_gamma 90.000000
_cell_volume 1354.752608
_symmetry_space_group_name_H-M "C 2/C"
_symmetry_group_IT_number 15
_symmetry_cell_setting 'monoclinic'
loop_
_space_group_symop_operation_xyz
x,y,z
-x,y,1/2-z
-x,-y,-z
x,-y,1/2+z
1/2+x,1/2+y,z
1/2-x,1/2+y,1/2-z
1/2-x,1/2-y,-z
1/2+x,1/2-y,1/2+z
loop_
_atom_site_type_symbol
_atom_site_label
_atom_site_fract_x
_atom_site_fract_y
_atom_site_fract_z
Si Si1 0.583880 0.273185 0.174167
Si Si2 0.392714 0.242410 0.857570
Si Si3 0.127616 0.985891 0.798405
Si Si4 0.180294 0.602211 0.434593
Si Si5 0.000000 0.444676 0.250000
O O1 0.500000 0.281622 0.250000
O O2 0.639190 0.400776 0.204197
O O3 0.652302 0.160330 0.267012
O O4 0.514188 0.262628 0.991920
O O5 0.351867 0.358602 0.754157
O O6 0.409822 0.134153 0.766038
O O7 0.327398 0.204365 0.952766
O O8 0.000000 0.980652 0.750000
O O9 0.211624 0.026887 0.972073
O O10 0.073323 0.524772 0.396722
#
# Coordination Sequence:
#
# PCOD9304755 Si02
#       5
#     8   8   8   8   4
#     4   9  20  43  71 100 143 187 241 291 369 435
#     4  11  23  46  71 109 143 191 241 308 362 438
#     4  11  24  46  73 111 150 182 243 311 370 428
#     4  11  24  45  75 104 144 200 242 298 366 449
#     4  12  24  46  72 104 146 190 258 296 364 440
#
# _framework density 26.573117
#
# number of rings (size 3 to 8) (size 9 to 14) (size 15 to 20)
#    0.000    1.333    4.444    2.000    0.000    2.667 
#   16.000    0.000    0.000    0.000    0.000    0.000 
#    0.000    0.000    0.000    0.000    0.000    0.000 
#
# Total GULP energy -100622.794499 kJ/mol
# GULP energy per Si atom -5590.155250 kJ/mol
# Density = 2.651264 g / cm^3
# Si number density = 26.573117 Si / 1000 Ang^3
#
#
#
# Elastic Constant Matrix: (Units=GPa)
#
#
# Indices 1 2 3 4 5 6 
#
# 1 107.4375 31.2114 28.6062 0.0000 24.7392 0.0000
# 2 31.2114 160.5547 62.8010 0.0000 11.2203 0.0000
# 3 28.6062 62.8010 101.4434 0.0000 28.9951 0.0000
# 4 0.0000 0.0000 0.0000 32.6499 0.0000 -56.8652
# 5 24.7392 11.2203 28.9951 0.0000 41.0785 0.0000
# 6 0.0000 0.0000 0.0000 -56.8652 0.0000 -175.9737
#
#
#
# Elastic Compliance Matrix: (Units=1/GPa)
#
#
# Indices 1 2 3 4 5 6 
#
# 1 0.011283 -0.001585 -0.000478 0.000000 -0.006024 0.000000
# 2 -0.001585 0.008536 -0.005567 0.000000 0.002553 0.000000
# 3 -0.000478 -0.005567 0.016188 0.000000 -0.009617 0.000000
# 4 0.000000 0.000000 0.000000 0.019598 0.000000 -0.006333
# 5 -0.006024 0.002553 -0.009617 0.000000 0.034063 0.000000
# 6 0.000000 0.000000 0.000000 -0.006333 0.000000 -0.003636
#
#
# Mechanical properties :
#
#
# Convention : Reuss Voigt Hill
#
# Bulk Modulus (GPa) = 48.20314 68.29699 58.25006
# Shear Modulus (GPa) = 46.20778 -3.99461 21.10658
#
# Velocity S-wave (km/s) = 4.17453 -1.22740 2.82136
# Velocity P-wave (km/s) = 6.43543 4.87326 5.70804
#
# Compressibility (1/GPa) = 0.02074554
#
# Stress axis : x y z
#
# Youngs Moduli (GPa) = 88.63019 117.15619 61.77512
#
# Poissons Ratio (x) = 0.18572 0.02955
# Poissons Ratio (y) = 0.14050 0.34389
# Poissons Ratio (z) = 0.04240 0.65218
#
# Static dielectric constant tensor:
#      x y z
#    x 2.138480 0.000000 0.075840 
#    y 0.000000 2.110450 0.000000 
#    z 0.075840 0.000000 2.082750 
# 
# From -- ./inp_files/103992.got.cif
#   From: 2010.05.17/outbox.cif.g08.bks.cpg/sg15_52_cif.got.tgz:103992.got - 2010.06.03 18:47:42.
