data_PCOD9304874
_publ_section_title
;
Structure prediction by ZEFSAII (Michael W. Deem and Ramdas Pophale) SiO2 
 PCOD9304874
Probable space group: C 2/C
;
_chemical_formula_sum "Si O2"
_cell_formula_units_Z 32
_cell_length_a 15.532932
_cell_length_b 6.561502
_cell_length_c 12.691368
_cell_angle_alpha 90.000000
_cell_angle_beta 104.150147
_cell_angle_gamma 90.000000
_cell_volume 1254.249448
_symmetry_space_group_name_H-M "C 2/C"
_symmetry_group_IT_number 15
_symmetry_cell_setting 'monoclinic'
loop_
_space_group_symop_operation_xyz
x,y,z
-x,y,1/2-z
-x,-y,-z
x,-y,1/2+z
1/2+x,1/2+y,z
1/2-x,1/2+y,1/2-z
1/2-x,1/2-y,-z
1/2+x,1/2-y,1/2+z
loop_
_atom_site_type_symbol
_atom_site_label
_atom_site_fract_x
_atom_site_fract_y
_atom_site_fract_z
Si Si1 0.294571 0.745950 0.681415
Si Si2 0.314007 0.555651 0.002059
Si Si3 0.973760 0.303998 0.062397
Si Si4 0.373939 0.121408 0.750055
O O1 0.326568 0.561329 0.617839
O O2 0.371962 0.875476 0.759400
O O3 0.225709 0.679397 0.749509
O O4 0.238872 0.894936 0.586306
O O5 0.410428 0.634222 0.991644
O O6 0.250000 0.750000 0.000000
O O7 0.912171 0.356771 0.145048
O O8 0.065522 0.257875 0.149276
O O9 0.000000 0.500000 0.000000
#
# Coordination Sequence:
#
# PCOD9304874 Si02
#       4
#     8   8   8   8
#     4  11  25  45  79 109 144 204 256 311 382 454
#     4  11  23  47  79 107 148 199 253 315 384 456
#     4  11  25  46  71 106 154 190 244 316 377 455
#     4  11  25  45  70 111 148 191 255 307 376 454
#
# _framework density 25.513269000000001
#
# number of rings (size 3 to 8) (size 9 to 14) (size 15 to 20)
#    0.000    1.000    2.500    3.000    7.000    1.000 
#    0.000    2.500    0.000    0.000    0.000    0.000 
#    0.000    0.000    0.000    0.000    0.000    0.000 
#
# Total GULP energy -89365.973145 kJ/mol
# GULP energy per Si atom -5585.373322 kJ/mol
# Density = 2.545520 g / cm^3
# Si number density = 25.513269 Si / 1000 Ang^3
#
#
#
# Elastic Constant Matrix: (Units=GPa)
#
#
# Indices 1 2 3 4 5 6 
#
# 1 92.2359 53.5199 19.8995 0.0000 6.9795 0.0000
# 2 53.5199 134.3810 41.9712 0.0000 -9.9301 0.0000
# 3 19.8995 41.9712 83.2896 0.0000 -10.7553 0.0000
# 4 0.0000 0.0000 0.0000 59.0021 0.0000 -11.0075
# 5 6.9795 -9.9301 -10.7553 0.0000 43.9595 0.0000
# 6 0.0000 0.0000 0.0000 -11.0075 0.0000 51.1389
#
#
#
# Elastic Compliance Matrix: (Units=1/GPa)
#
#
# Indices 1 2 3 4 5 6 
#
# 1 0.014755 -0.005824 -0.001098 0.000000 -0.003927 0.000000
# 2 -0.005824 0.011168 -0.003915 0.000000 0.002490 0.000000
# 3 -0.001098 -0.003915 0.014611 0.000000 0.002865 0.000000
# 4 0.000000 0.000000 0.000000 0.017658 0.000000 0.003801
# 5 -0.003927 0.002490 0.002865 0.000000 0.024635 0.000000
# 6 0.000000 0.000000 0.000000 0.003801 0.000000 0.020373
#
#
# Mechanical properties :
#
#
# Convention : Reuss Voigt Hill
#
# Bulk Modulus (GPa) = 53.01782 60.07642 56.54712
# Shear Modulus (GPa) = 38.12185 43.78783 40.95484
#
# Velocity S-wave (km/s) = 3.86968 4.14729 4.01089
# Velocity P-wave (km/s) = 6.38682 6.82141 6.60769
#
# Compressibility (1/GPa) = 0.01886158
#
# Stress axis : x y z
#
# Youngs Moduli (GPa) = 67.77377 89.54460 68.44086
#
# Poissons Ratio (x) = 0.52149 0.07512
# Poissons Ratio (y) = 0.39470 0.26792
# Poissons Ratio (z) = 0.07439 0.35054
#
# Static dielectric constant tensor:
#      x y z
#    x 2.000770 0.000000 0.091650 
#    y 0.000000 2.119590 0.000000 
#    z 0.091650 0.000000 2.161210 
# 
# From -- ./inp_files/158262.got.cif
#   From: 2010.05.17/outbox.cif.g08.bks.cpg/sg15_80_cif.got.tgz:158262.got - 2010.06.03 18:47:42.
