data_PCOD9304473
_publ_section_title
;
Structure prediction by ZEFSAII (Michael W. Deem and Ramdas Pophale) SiO2 
 PCOD9304473
Probable space group: C 2/C
;
_chemical_formula_sum "Si O2"
_cell_formula_units_Z 48
_cell_length_a 13.324326
_cell_length_b 21.616603
_cell_length_c 12.436916
_cell_angle_alpha 90.000000
_cell_angle_beta 40.541251
_cell_angle_gamma 90.000000
_cell_volume 2328.389567
_symmetry_space_group_name_H-M "C 2/C"
_symmetry_group_IT_number 15
_symmetry_cell_setting 'monoclinic'
loop_
_space_group_symop_operation_xyz
x,y,z
-x,y,1/2-z
-x,-y,-z
x,-y,1/2+z
1/2+x,1/2+y,z
1/2-x,1/2+y,1/2-z
1/2-x,1/2-y,-z
1/2+x,1/2-y,1/2+z
loop_
_atom_site_type_symbol
_atom_site_label
_atom_site_fract_x
_atom_site_fract_y
_atom_site_fract_z
Si Si1 0.930984 0.494865 0.683003
Si Si2 0.307111 0.234321 0.183555
Si Si3 0.145132 0.847815 0.208345
Si Si4 0.516945 0.320429 0.612998
Si Si5 0.103744 0.059830 0.935494
Si Si6 0.513749 0.858161 0.623051
O O1 0.776927 0.535200 0.805948
O O2 0.000000 0.510365 0.750000
O O3 0.000000 0.500000 0.500000
O O4 0.914988 0.420885 0.704729
O O5 0.310468 0.281101 0.280695
O O6 0.145665 0.198767 0.308508
O O7 0.444772 0.185306 0.087641
O O8 0.348959 0.279090 0.050253
O O9 0.093368 0.894316 0.343244
O O10 0.000000 0.841835 0.250000
O O11 0.306512 0.874390 0.034015
O O12 0.500000 0.304097 0.750000
O O13 0.552082 0.393364 0.571559
O O14 0.000000 0.000000 0.000000
O O15 0.500000 0.826339 0.750000
#
# Coordination Sequence:
#
# PCOD9304473 Si02
#       6
#     8   8   8   8   8   8
#     4  11  25  46  71 104 141 189 244 296 363 428
#     4  11  23  44  69  97 138 173 230 290 354 434
#     4  11  25  42  66 101 136 174 228 285 353 420
#     4  11  25  45  68 102 133 188 235 293 360 430
#     4  11  26  45  67  99 141 185 234 296 354 429
#     4  11  24  41  69 100 134 181 228 288 356 421
#
# _framework density 20.615107999999999
#
# number of rings (size 3 to 8) (size 9 to 14) (size 15 to 20)
#    0.000    1.000    3.333    2.000    9.333    4.667 
#    0.000    2.500    0.000    0.000    0.000    0.000 
#    0.000    0.000    0.000    0.000    0.000    0.000 
#
# Total GULP energy -133728.795203 kJ/mol
# GULP energy per Si atom -5572.033133 kJ/mol
# Density = 2.056819 g / cm^3
# Si number density = 20.615108 Si / 1000 Ang^3
#
#
#
# Elastic Constant Matrix: (Units=GPa)
#
#
# Indices 1 2 3 4 5 6 
#
# 1 112.1242 45.8127 22.7060 0.0002 -5.4041 -0.0001
# 2 45.8127 103.1201 11.1106 0.0002 -12.1825 0.0000
# 3 22.7060 11.1106 55.9749 0.0002 -1.0057 -0.0002
# 4 0.0002 0.0002 0.0002 36.2415 -0.0001 -5.3126
# 5 -5.4041 -12.1825 -1.0057 -0.0001 35.5116 0.0001
# 6 -0.0001 0.0000 -0.0002 -5.3126 0.0001 25.3160
#
#
#
# Elastic Compliance Matrix: (Units=1/GPa)
#
#
# Indices 1 2 3 4 5 6 
#
# 1 0.011627 -0.004755 -0.003772 0.000000 0.000031 0.000000
# 2 -0.004755 0.012268 -0.000444 0.000000 0.003472 0.000000
# 3 -0.003772 -0.000444 0.019480 0.000000 -0.000175 0.000000
# 4 0.000000 0.000000 0.000000 0.028468 0.000000 0.005974
# 5 0.000031 0.003472 -0.000175 0.000000 0.029351 0.000000
# 6 0.000000 0.000000 0.000000 0.005974 0.000000 0.040754
#
#
# Mechanical properties :
#
#
# Convention : Reuss Voigt Hill
#
# Bulk Modulus (GPa) = 39.31881 47.83085 43.57483
# Shear Modulus (GPa) = 29.69667 32.18647 30.94157
#
# Velocity S-wave (km/s) = 3.79955 3.95562 3.87837
# Velocity P-wave (km/s) = 6.19379 6.64190 6.42175
#
# Compressibility (1/GPa) = 0.02543312
#
# Stress axis : x y z
#
# Youngs Moduli (GPa) = 86.00636 81.51202 51.33422
#
# Poissons Ratio (x) = 0.38762 0.19363
# Poissons Ratio (y) = 0.40899 0.02278
# Poissons Ratio (z) = 0.32442 0.03617
#
# Static dielectric constant tensor:
#      x y z
#    x 1.762000 0.000000 0.043810 
#    y 0.000000 1.720540 0.000000 
#    z 0.043810 0.000000 1.825040 
# 
# From -- ./inp_files/89378.got.cif
#   From: 2010.05.17/outbox.cif.g08.bks.cpg/sg15_45_cif.got.tgz:89378.got - 2010.06.03 18:47:42.
