data_PCOD9304698
_publ_section_title
;
Structure prediction by ZEFSAII (Michael W. Deem and Ramdas Pophale) SiO2 
 PCOD9304698
Probable space group: C 2/C
;
_chemical_formula_sum "Si O2"
_cell_formula_units_Z 48
_cell_length_a 15.937788
_cell_length_b 12.386254
_cell_length_c 29.059046
_cell_angle_alpha 90.000000
_cell_angle_beta 160.073751
_cell_angle_gamma 90.000000
_cell_volume 1955.068951
_symmetry_space_group_name_H-M "C 2/C"
_symmetry_group_IT_number 15
_symmetry_cell_setting 'monoclinic'
loop_
_space_group_symop_operation_xyz
x,y,z
-x,y,1/2-z
-x,-y,-z
x,-y,1/2+z
1/2+x,1/2+y,z
1/2-x,1/2+y,1/2-z
1/2-x,1/2-y,-z
1/2+x,1/2-y,1/2+z
loop_
_atom_site_type_symbol
_atom_site_label
_atom_site_fract_x
_atom_site_fract_y
_atom_site_fract_z
Si Si1 0.756916 0.485080 0.406887
Si Si2 0.174778 0.426020 0.806408
Si Si3 0.004005 0.096281 0.561481
Si Si4 0.196020 0.921434 0.975207
Si Si5 0.067985 0.781386 0.363617
Si Si6 0.647730 0.226586 0.711936
O O1 0.500000 0.518871 0.250000
O O2 0.772364 0.550374 0.462588
O O3 0.695257 0.364202 0.394431
O O4 0.000000 0.500000 0.500000
O O5 0.278958 0.508463 0.824430
O O6 0.977457 0.325322 0.790440
O O7 0.000000 0.492684 0.750000
O O8 0.395984 0.394024 0.954671
O O9 0.139523 0.208860 0.640997
O O10 0.829938 0.031479 0.508405
O O11 0.949103 0.847107 0.846918
O O12 0.408407 0.841294 0.101988
O O13 0.250000 0.750000 0.500000
O O14 0.806564 0.820538 0.250499
#
# Coordination Sequence:
#
# PCOD9304698 Si02
#       6
#     8   8   8   8   8   8
#     4  12  29  51  78 115 161 209 267 342 412 496
#     4  11  24  42  69 112 148 191 269 318 386 476
#     4  11  23  45  76 104 152 203 253 331 393 477
#     4  11  25  47  76 107 151 204 259 319 411 480
#     4  12  26  46  81 110 152 207 261 320 400 486
#     4  11  24  45  74 110 144 203 258 321 390 482
#
# _framework density 24.551563999999999
#
# number of rings (size 3 to 8) (size 9 to 14) (size 15 to 20)
#    0.000    0.667    3.333    3.500    4.667    0.000 
#    3.000    0.000    0.000    0.000    0.000    0.000 
#    0.000    0.000    0.000    0.000    0.000    0.000 
#
# Total GULP energy -133799.618998 kJ/mol
# GULP energy per Si atom -5574.984125 kJ/mol
# Density = 2.449568 g / cm^3
# Si number density = 24.551564 Si / 1000 Ang^3
#
#
#
# Elastic Constant Matrix: (Units=GPa)
#
#
# Indices 1 2 3 4 5 6 
#
# 1 73.6796 16.4607 36.3191 0.0020 16.1377 0.0026
# 2 16.4607 98.5435 56.8668 0.0017 -4.7647 0.0040
# 3 36.3191 56.8668 106.7791 -0.0042 6.4416 -0.0009
# 4 0.0020 0.0017 -0.0042 51.3419 0.0107 7.9610
# 5 16.1377 -4.7647 6.4416 0.0107 59.6262 0.0041
# 6 0.0026 0.0040 -0.0009 7.9610 0.0041 30.7392
#
#
#
# Elastic Compliance Matrix: (Units=1/GPa)
#
#
# Indices 1 2 3 4 5 6 
#
# 1 0.017233 0.000244 -0.005749 0.000000 -0.004023 -0.000001
# 2 0.000244 0.014901 -0.008140 -0.000001 0.002004 -0.000002
# 3 -0.005749 -0.008140 0.015703 0.000002 -0.000791 0.000002
# 4 0.000000 -0.000001 0.000002 0.020292 -0.000004 -0.005255
# 5 -0.004023 0.002004 -0.000791 -0.000004 0.018106 -0.000001
# 6 -0.000001 -0.000002 0.000002 -0.005255 -0.000001 0.033893
#
#
# Mechanical properties :
#
#
# Convention : Reuss Voigt Hill
#
# Bulk Modulus (GPa) = 48.66537 55.36614 52.01576
# Shear Modulus (GPa) = 32.41159 39.63184 36.02172
#
# Velocity S-wave (km/s) = 3.63732 4.02211 3.83454
# Velocity P-wave (km/s) = 6.12412 6.64603 6.39041
#
# Compressibility (1/GPa) = 0.02054849
#
# Stress axis : x y z
#
# Youngs Moduli (GPa) = 58.02923 67.10890 63.68113
#
# Poissons Ratio (x) = -0.01640 0.36610
# Poissons Ratio (y) = -0.01419 0.51836
# Poissons Ratio (z) = 0.33360 0.54626
#
# Static dielectric constant tensor:
#      x y z
#    x 2.136050 -0.000010 0.028800 
#    y -0.000010 2.064950 0.000000 
#    z 0.028800 0.000000 2.034330 
# 
# From -- ./inp_files/314120.got.cif
#   From: 2010.05.17/outbox.cif.g08.bks.cpg/sg15_158_cif.got.tgz:314120.got - 2010.06.03 18:47:42.
