data_PCOD9304328
_publ_section_title
;
Structure prediction by ZEFSAII (Michael W. Deem and Ramdas Pophale) SiO2 
 PCOD9304328
Probable space group: C 2/C
;
_chemical_formula_sum "Si O2"
_cell_formula_units_Z 52
_cell_length_a 12.212835
_cell_length_b 22.836973
_cell_length_c 9.017754
_cell_angle_alpha 90.000000
_cell_angle_beta 76.483533
_cell_angle_gamma 90.000000
_cell_volume 2445.428349
_symmetry_space_group_name_H-M "C 2/C"
_symmetry_group_IT_number 15
_symmetry_cell_setting 'monoclinic'
loop_
_space_group_symop_operation_xyz
x,y,z
-x,y,1/2-z
-x,-y,-z
x,-y,1/2+z
1/2+x,1/2+y,z
1/2-x,1/2+y,1/2-z
1/2-x,1/2-y,-z
1/2+x,1/2-y,1/2+z
loop_
_atom_site_type_symbol
_atom_site_label
_atom_site_fract_x
_atom_site_fract_y
_atom_site_fract_z
Si Si1 0.631568 0.699057 0.220217
Si Si2 0.779770 0.973091 0.652973
Si Si3 0.409051 0.632365 0.003082
Si Si4 0.125609 0.484457 0.418028
Si Si5 0.152582 0.891876 0.315922
Si Si6 0.500000 0.901033 0.250000
Si Si7 0.831564 0.324202 0.441784
O O1 0.500000 0.676492 0.250000
O O2 0.641166 0.688469 0.394815
O O3 0.631588 0.760814 0.132323
O O4 0.748266 0.674285 0.110162
O O5 0.874049 0.924052 0.611415
O O6 0.698212 0.966335 0.536510
O O7 0.700060 0.965143 0.820255
O O8 0.831399 0.038762 0.653598
O O9 0.361944 0.619561 0.853783
O O10 0.542151 0.631871 0.934384
O O11 0.000000 0.500000 0.500000
O O12 0.098262 0.439561 0.293349
O O13 0.252577 0.852252 0.342089
O O14 0.444240 0.863101 0.399054
#
# Coordination Sequence:
#
# PCOD9304328 Si02
#       7
#     8   8   8   8   8   4   8
#     4  11  24  43  68  99 123 169 222 282 327 394
#     4  12  23  41  61  95 135 175 218 265 330 396
#     4  11  25  40  66  95 133 170 222 273 331 392
#     4  12  23  38  60  91 133 174 213 266 318 390
#     4  11  23  44  63  96 133 176 216 273 333 392
#     4  12  22  40  68  94 130 182 216 264 330 398
#     4  11  23  43  70  94 131 167 224 269 335 393
#
# _framework density 21.264167
#
# number of rings (size 3 to 8) (size 9 to 14) (size 15 to 20)
#    0.000    0.615    6.923    0.462    4.308    0.615 
#    2.769    0.000    0.000    0.000    0.000    0.000 
#    0.000    0.000    0.000    0.000    0.000    0.000 
#
# Total GULP energy -144756.272063 kJ/mol
# GULP energy per Si atom -5567.548925 kJ/mol
# Density = 2.121577 g / cm^3
# Si number density = 21.264167 Si / 1000 Ang^3
#
#
#
# Elastic Constant Matrix: (Units=GPa)
#
#
# Indices 1 2 3 4 5 6 
#
# 1 54.2214 0.0673 21.6973 0.0000 -16.0131 0.0000
# 2 0.0673 37.6041 28.7735 0.0000 -5.4930 0.0000
# 3 21.6973 28.7735 118.3698 0.0000 -48.6446 0.0000
# 4 0.0000 0.0000 0.0000 28.8437 0.0000 -12.2208
# 5 -16.0131 -5.4930 -48.6446 0.0000 35.0539 0.0000
# 6 0.0000 0.0000 0.0000 -12.2208 0.0000 18.1902
#
#
#
# Elastic Compliance Matrix: (Units=1/GPa)
#
#
# Indices 1 2 3 4 5 6 
#
# 1 0.021402 0.001703 -0.000488 0.000000 0.009367 0.000000
# 2 0.001703 0.035916 -0.014917 0.000000 -0.014294 0.000000
# 3 -0.000488 -0.014917 0.025857 0.000000 0.033322 0.000000
# 4 0.000000 0.000000 0.000000 0.048465 0.000000 0.032561
# 5 0.009367 -0.014294 0.033322 0.000000 0.076808 0.000000
# 6 0.000000 0.000000 0.000000 0.032561 0.000000 0.076850
#
#
# Mechanical properties :
#
#
# Convention : Reuss Voigt Hill
#
# Bulk Modulus (GPa) = 17.92993 34.58570 26.25782
# Shear Modulus (GPa) = 15.09237 27.06136 21.07687
#
# Velocity S-wave (km/s) = 2.66701 3.57126 3.15174
# Velocity P-wave (km/s) = 4.23489 5.77107 5.06160
#
# Compressibility (1/GPa) = 0.05577266
#
# Stress axis : x y z
#
# Youngs Moduli (GPa) = 46.72400 27.84293 38.67357
#
# Poissons Ratio (x) = -0.04742 0.01886
# Poissons Ratio (y) = -0.07957 0.57689
# Poissons Ratio (z) = 0.02278 0.41533
#
# Static dielectric constant tensor:
#      x y z
#    x 1.802640 0.000000 -0.004880 
#    y 0.000000 1.849340 0.000000 
#    z -0.004880 0.000000 1.846850 
# 
# From -- ./inp_files/42061.got.cif
#   From: 2010.05.17/outbox.cif.g08.bks.cpg/sg15_22_cif.got.tgz:42061.got - 2010.06.03 18:47:42.
