data_PCOD9304308
_publ_section_title
;
Structure prediction by ZEFSAII (Michael W. Deem and Ramdas Pophale) SiO2 
 PCOD9304308
Probable space group: C 2/C
;
_chemical_formula_sum "Si O2"
_cell_formula_units_Z 56
_cell_length_a 17.592756
_cell_length_b 8.152574
_cell_length_c 26.564702
_cell_angle_alpha 90.000000
_cell_angle_beta 145.890375
_cell_angle_gamma 90.000000
_cell_volume 2136.606843
_symmetry_space_group_name_H-M "C 2/C"
_symmetry_group_IT_number 15
_symmetry_cell_setting 'monoclinic'
loop_
_space_group_symop_operation_xyz
x,y,z
-x,y,1/2-z
-x,-y,-z
x,-y,1/2+z
1/2+x,1/2+y,z
1/2-x,1/2+y,1/2-z
1/2-x,1/2-y,-z
1/2+x,1/2-y,1/2+z
loop_
_atom_site_type_symbol
_atom_site_label
_atom_site_fract_x
_atom_site_fract_y
_atom_site_fract_z
Si Si1 0.260157 0.347780 0.147875
Si Si2 0.345147 0.544365 0.805348
Si Si3 0.101368 0.854640 0.944756
Si Si4 0.250355 0.812833 0.881007
Si Si5 0.373017 0.989588 0.727992
Si Si6 0.005815 0.671458 0.056495
Si Si7 0.632273 0.990529 0.426104
O O1 0.303067 0.378629 0.229325
O O2 0.311954 0.506325 0.143577
O O3 0.317312 0.167137 0.168042
O O4 0.102518 0.320012 0.047539
O O5 0.217354 0.505479 0.770287
O O6 0.450281 0.662678 0.892098
O O7 0.442673 0.389103 0.853285
O O8 0.150749 0.774443 0.024392
O O9 0.205432 0.005588 0.990519
O O10 0.121733 0.707021 0.916900
O O11 0.151767 0.666854 0.810672
O O12 0.350219 0.868878 0.890007
O O13 0.526317 0.951571 0.826898
O O14 0.932702 0.557140 0.057723
#
# Coordination Sequence:
#
# PCOD9304308 Si02
#       7
#     8   8   8   8   8   8   8
#     4  12  23  40  72 104 140 196 251 309 380 462
#     4  11  25  42  70 107 145 191 251 326 382 456
#     4  11  25  45  70  99 149 200 242 313 390 465
#     4  11  24  42  73 107 142 191 250 314 374 468
#     4  11  25  43  69 109 144 186 254 321 379 454
#     4  11  23  43  69 106 144 190 252 312 381 458
#     4  11  24  45  69  99 147 197 238 310 397 452
#
# _framework density 26.209783000000002
#
# number of rings (size 3 to 8) (size 9 to 14) (size 15 to 20)
#    0.000    0.857    2.857    3.857    8.000    3.429 
#    0.000    0.714    0.000    0.000    0.000    0.000 
#    0.000    0.000    0.000    0.000    0.000    0.000 
#
# Total GULP energy -156494.288222 kJ/mol
# GULP energy per Si atom -5589.081722 kJ/mol
# Density = 2.615013 g / cm^3
# Si number density = 26.209783 Si / 1000 Ang^3
#
#
#
# Elastic Constant Matrix: (Units=GPa)
#
#
# Indices 1 2 3 4 5 6 
#
# 1 113.7445 36.6737 28.9167 0.0000 23.9997 0.0000
# 2 36.6737 96.9263 30.1938 0.0000 3.5328 0.0000
# 3 28.9167 30.1938 50.3925 0.0000 6.0445 0.0000
# 4 0.0000 0.0000 0.0000 41.1759 0.0000 -12.6751
# 5 23.9997 3.5328 6.0445 0.0000 32.4295 0.0000
# 6 0.0000 0.0000 0.0000 -12.6751 0.0000 27.3142
#
#
#
# Elastic Compliance Matrix: (Units=1/GPa)
#
#
# Indices 1 2 3 4 5 6 
#
# 1 0.012646 -0.003113 -0.004408 0.000000 -0.008198 0.000000
# 2 -0.003113 0.013451 -0.006520 0.000000 0.002053 0.000000
# 3 -0.004408 -0.006520 0.026394 0.000000 -0.000947 0.000000
# 4 0.000000 0.000000 0.000000 0.028333 0.000000 0.013148
# 5 -0.008198 0.002053 -0.000947 0.000000 0.036856 0.000000
# 6 0.000000 0.000000 0.000000 0.013148 0.000000 0.042712
#
#
# Mechanical properties :
#
#
# Convention : Reuss Voigt Hill
#
# Bulk Modulus (GPa) = 40.96768 50.29242 45.63005
# Shear Modulus (GPa) = 25.43118 31.20251 28.31684
#
# Velocity S-wave (km/s) = 3.11833 3.45409 3.29050
# Velocity P-wave (km/s) = 5.35070 5.92771 5.64658
#
# Compressibility (1/GPa) = 0.02440949
#
# Stress axis : x y z
#
# Youngs Moduli (GPa) = 79.07908 74.34408 37.88787
#
# Poissons Ratio (x) = 0.23141 0.16701
# Poissons Ratio (y) = 0.24615 0.24701
# Poissons Ratio (z) = 0.34858 0.48469
#
# Static dielectric constant tensor:
#      x y z
#    x 2.191980 0.000000 0.015450 
#    y 0.000000 2.233960 0.000000 
#    z 0.015450 0.000000 2.083820 
# 
# From -- ./inp_files/317570.got.cif
#   From: 2010.05.17/outbox.cif.g08.bks.cpg/sg15_159_cif.got.tgz:317570.got - 2010.06.03 18:47:42.
