data_PCOD9304930
_publ_section_title
;
Structure prediction by ZEFSAII (Michael W. Deem and Ramdas Pophale) SiO2 
 PCOD9304930
Probable space group: C 2/C
;
_chemical_formula_sum "Si O2"
_cell_formula_units_Z 40
_cell_length_a 13.184418
_cell_length_b 18.763952
_cell_length_c 11.330656
_cell_angle_alpha 90.000000
_cell_angle_beta 145.424163
_cell_angle_gamma 90.000000
_cell_volume 1590.755976
_symmetry_space_group_name_H-M "C 2/C"
_symmetry_group_IT_number 15
_symmetry_cell_setting 'monoclinic'
loop_
_space_group_symop_operation_xyz
x,y,z
-x,y,1/2-z
-x,-y,-z
x,-y,1/2+z
1/2+x,1/2+y,z
1/2-x,1/2+y,1/2-z
1/2-x,1/2-y,-z
1/2+x,1/2-y,1/2+z
loop_
_atom_site_type_symbol
_atom_site_label
_atom_site_fract_x
_atom_site_fract_y
_atom_site_fract_z
Si Si1 0.435514 0.805194 0.988862
Si Si2 0.647160 0.598385 0.242753
Si Si3 0.891547 0.471418 0.516986
Si Si4 0.151200 0.310529 0.981711
Si Si5 0.210529 0.842949 0.060797
O O1 0.582995 0.847648 0.206031
O O2 0.352925 0.736995 0.972305
O O3 0.288026 0.859623 0.794944
O O4 0.557507 0.772641 0.002023
O O5 0.718068 0.521538 0.343040
O O6 0.438199 0.606946 0.019464
O O7 0.687122 0.641815 0.401319
O O8 0.807523 0.390640 0.431362
O O9 0.000000 0.482451 0.750000
O O10 0.000000 0.500000 0.500000
O O11 0.000000 0.333699 0.750000
O O12 0.250000 0.250000 0.000000
#
# Coordination Sequence:
#
# PCOD9304930 Si02
#       5
#     8   8   8   8   8
#     4  12  21  41  70 101 146 197 248 310 381 450
#     4  11  24  41  67 106 147 188 249 306 383 449
#     4  11  24  48  79 107 149 210 256 312 399 468
#     4  11  26  47  72 102 143 199 257 310 384 464
#     4  11  24  36  68 107 148 186 244 312 380 450
#
# _framework density 25.145277
#
# number of rings (size 3 to 8) (size 9 to 14) (size 15 to 20)
#    0.000    0.800    4.000    3.600    2.800    0.000 
#    3.600    1.000    0.000    0.000    0.000    0.000 
#    0.000    0.000    0.000    0.000    0.000    0.000 
#
# Total GULP energy -111351.998830 kJ/mol
# GULP energy per Si atom -5567.599941 kJ/mol
# Density = 2.508805 g / cm^3
# Si number density = 25.145277 Si / 1000 Ang^3
#
#
#
# Elastic Constant Matrix: (Units=GPa)
#
#
# Indices 1 2 3 4 5 6 
#
# 1 129.4866 50.4094 5.2048 0.0000 -4.3687 0.0000
# 2 50.4094 194.8605 9.2208 0.0000 19.3430 0.0000
# 3 5.2048 9.2208 101.7598 0.0000 2.5659 0.0000
# 4 0.0000 0.0000 0.0000 16.1250 0.0000 -12.0158
# 5 -4.3687 19.3430 2.5659 0.0000 44.0740 0.0000
# 6 0.0000 0.0000 0.0000 -12.0158 0.0000 9.0616
#
#
#
# Elastic Compliance Matrix: (Units=1/GPa)
#
#
# Indices 1 2 3 4 5 6 
#
# 1 0.008752 -0.002445 -0.000275 0.000000 0.001957 0.000000
# 2 -0.002445 0.006067 -0.000352 0.000000 -0.002885 0.000000
# 3 -0.000275 -0.000352 0.009884 0.000000 -0.000448 0.000000
# 4 0.000000 0.000000 0.000000 5.214089 0.000000 6.913988
# 5 0.001957 -0.002885 -0.000448 0.000000 0.024175 0.000000
# 6 0.000000 0.000000 0.000000 6.913988 0.000000 9.278444
#
#
# Mechanical properties :
#
#
# Convention : Reuss Voigt Hill
#
# Bulk Modulus (GPa) = 53.88406 61.75298 57.81852
# Shear Modulus (GPa) = 0.34355 37.93692 19.14024
#
# Velocity S-wave (km/s) = 0.37003 3.88843 2.76195
# Velocity P-wave (km/s) = 4.65384 6.69116 5.76324
#
# Compressibility (1/GPa) = 0.01855836
#
# Stress axis : x y z
#
# Youngs Moduli (GPa) = 114.26179 164.81346 101.17005
#
# Poissons Ratio (x) = 0.40301 0.02786
# Poissons Ratio (y) = 0.27940 0.03561
# Poissons Ratio (z) = 0.03147 0.05801
#
# Static dielectric constant tensor:
#      x y z
#    x 2.185800 0.000000 0.093360 
#    y 0.000000 2.174150 0.000000 
#    z 0.093360 0.000000 2.081150 
# 
# From -- ./inp_files/89860.got.cif
#   From: 2010.05.17/outbox.cif.g08.bks.cpg/sg15_45_cif.got.tgz:89860.got - 2010.06.03 18:47:42.
