data_PCOD9304373
_publ_section_title
;
Structure prediction by ZEFSAII (Michael W. Deem and Ramdas Pophale) SiO2 
 PCOD9304373
Probable space group: C 2/C
;
_chemical_formula_sum "Si O2"
_cell_formula_units_Z 48
_cell_length_a 11.385104
_cell_length_b 10.754031
_cell_length_c 22.473351
_cell_angle_alpha 90.000000
_cell_angle_beta 48.997753
_cell_angle_gamma 90.000000
_cell_volume 2076.544191
_symmetry_space_group_name_H-M "C 2/C"
_symmetry_group_IT_number 15
_symmetry_cell_setting 'monoclinic'
loop_
_space_group_symop_operation_xyz
x,y,z
-x,y,1/2-z
-x,-y,-z
x,-y,1/2+z
1/2+x,1/2+y,z
1/2-x,1/2+y,1/2-z
1/2-x,1/2-y,-z
1/2+x,1/2-y,1/2+z
loop_
_atom_site_type_symbol
_atom_site_label
_atom_site_fract_x
_atom_site_fract_y
_atom_site_fract_z
Si Si1 0.891743 0.939528 0.087588
Si Si2 0.847159 0.852924 0.702650
Si Si3 0.341744 0.947800 0.621979
Si Si4 0.588368 0.780425 0.583993
Si Si5 0.303645 0.252665 0.914186
Si Si6 0.164258 0.180844 0.682710
O O1 0.746237 0.873133 0.103472
O O2 0.977463 0.829775 0.096037
O O3 0.855136 0.044767 0.147932
O O4 0.000000 0.000000 0.000000
O O5 0.777155 0.911208 0.785383
O O6 0.725986 0.750390 0.719878
O O7 0.016142 0.790102 0.653057
O O8 0.510467 0.909471 0.589757
O O9 0.297362 0.861734 0.581978
O O10 0.301942 0.088220 0.618799
O O11 0.750000 0.750000 0.500000
O O12 0.621832 0.772257 0.642948
O O13 0.250000 0.250000 0.000000
O O14 0.000000 0.113881 0.750000
#
# Coordination Sequence:
#
# PCOD9304373 Si02
#       6
#     8   8   8   8   8   8
#     4  11  23  43  73 100 144 185 230 303 358 426
#     4  12  25  46  71 104 142 190 241 296 367 433
#     4  11  26  47  72 101 142 193 238 299 371 426
#     4  11  25  45  70 107 140 181 245 294 363 437
#     4  11  24  44  72 104 138 188 245 292 363 440
#     4  12  25  46  72 101 146 185 236 304 358 441
#
# _framework density 23.115328999999999
#
# number of rings (size 3 to 8) (size 9 to 14) (size 15 to 20)
#    0.000    0.667    3.333    4.500    4.667    3.333 
#    0.000    0.000    0.000    0.000    0.000    0.000 
#    0.000    0.000    0.000    0.000    0.000    0.000 
#
# Total GULP energy -134379.115205 kJ/mol
# GULP energy per Si atom -5599.129800 kJ/mol
# Density = 2.306272 g / cm^3
# Si number density = 23.115329 Si / 1000 Ang^3
#
#
#
# Elastic Constant Matrix: (Units=GPa)
#
#
# Indices 1 2 3 4 5 6 
#
# 1 146.4270 40.4505 24.6072 0.0000 -6.5331 0.0000
# 2 40.4505 67.8267 -12.6528 0.0000 -4.7204 0.0000
# 3 24.6072 -12.6528 86.6180 0.0000 5.3485 0.0000
# 4 0.0000 0.0000 0.0000 24.4835 0.0000 -1.4339
# 5 -6.5331 -4.7204 5.3485 0.0000 49.4021 0.0000
# 6 0.0000 0.0000 0.0000 -1.4339 0.0000 38.2497
#
#
#
# Elastic Compliance Matrix: (Units=1/GPa)
#
#
# Indices 1 2 3 4 5 6 
#
# 1 0.009138 -0.006040 -0.003541 0.000000 0.001015 0.000000
# 2 -0.006040 0.019221 0.004490 0.000000 0.000552 0.000000
# 3 -0.003541 0.004490 0.013298 0.000000 -0.001479 0.000000
# 4 0.000000 0.000000 0.000000 0.040934 0.000000 0.001534
# 5 0.001015 0.000552 -0.001479 0.000000 0.020589 0.000000
# 6 0.000000 0.000000 0.000000 0.001534 0.000000 0.026202
#
#
# Mechanical properties :
#
#
# Convention : Reuss Voigt Hill
#
# Bulk Modulus (GPa) = 31.77106 45.07570 38.42338
# Shear Modulus (GPa) = 33.32090 38.99152 36.15621
#
# Velocity S-wave (km/s) = 3.80084 4.11155 3.95924
# Velocity P-wave (km/s) = 5.74772 6.48710 6.12857
#
# Compressibility (1/GPa) = 0.03147518
#
# Stress axis : x y z
#
# Youngs Moduli (GPa) = 109.43120 52.02546 75.19908
#
# Poissons Ratio (x) = 0.31422 0.26628
# Poissons Ratio (y) = 0.66094 -0.33761
# Poissons Ratio (z) = 0.38749 -0.23357
#
# Static dielectric constant tensor:
#      x y z
#    x 1.870510 0.000000 -0.025020 
#    y 0.000000 1.883200 0.000000 
#    z -0.025020 0.000000 1.887070 
# 
# From -- ./inp_files/237413.got.cif
#   From: 2010.05.17/outbox.cif.g08.bks.cpg/sg15_119_cif.got.tgz:237413.got - 2010.06.03 18:47:42.
