data_PCOD9304732
_publ_section_title
;
Structure prediction by ZEFSAII (Michael W. Deem and Ramdas Pophale) SiO2 
 PCOD9304732
Probable space group: C 2/C
;
_chemical_formula_sum "Si O2"
_cell_formula_units_Z 60
_cell_length_a 16.193012
_cell_length_b 17.322294
_cell_length_c 12.616304
_cell_angle_alpha 90.000000
_cell_angle_beta 59.297559
_cell_angle_gamma 90.000000
_cell_volume 3042.832489
_symmetry_space_group_name_H-M "C 2/C"
_symmetry_group_IT_number 15
_symmetry_cell_setting 'monoclinic'
loop_
_space_group_symop_operation_xyz
x,y,z
-x,y,1/2-z
-x,-y,-z
x,-y,1/2+z
1/2+x,1/2+y,z
1/2-x,1/2+y,1/2-z
1/2-x,1/2-y,-z
1/2+x,1/2-y,1/2+z
loop_
_atom_site_type_symbol
_atom_site_label
_atom_site_fract_x
_atom_site_fract_y
_atom_site_fract_z
Si Si1 0.288084 0.747045 0.358215
Si Si2 0.313156 0.454635 0.585918
Si Si3 0.670990 0.101770 0.352849
Si Si4 0.176964 0.884049 0.321867
Si Si5 0.975280 0.674515 0.392374
Si Si6 0.000000 0.792546 0.750000
Si Si7 0.196016 0.446418 0.453516
Si Si8 0.979411 0.829788 0.515317
O O1 0.250000 0.750000 0.500000
O O2 0.247143 0.666876 0.339327
O O3 0.242254 0.818155 0.328816
O O4 0.402040 0.752008 0.292579
O O5 0.221415 0.435349 0.718327
O O6 0.342869 0.541177 0.593639
O O7 0.273149 0.452498 0.495385
O O8 0.397269 0.393729 0.553885
O O9 0.571527 0.140969 0.384577
O O10 0.659374 0.031871 0.444044
O O11 0.239229 0.912498 0.183003
O O12 0.071461 0.848288 0.381350
O O13 0.890880 0.610538 0.457467
O O14 0.945710 0.748041 0.485847
O O15 0.000000 0.690070 0.250000
O O16 0.009633 0.829738 0.622472
#
# Coordination Sequence:
#
# PCOD9304732 Si02
#       8
#     8   8   8   8   8   4   8   8
#     4  12  22  42  71  97 136 175 231 285 345 409
#     4  11  25  44  66 101 137 181 228 286 350 405
#     4  11  23  46  68  98 137 178 231 285 348 415
#     4  11  25  44  67 102 134 181 236 282 346 416
#     4  12  25  45  73 103 142 183 233 287 346 424
#     4  12  24  42  70 104 136 184 232 296 340 414
#     4  11  26  43  71  99 139 181 229 293 347 413
#     4  12  26  42  70 103 140 184 236 283 349 412
#
# _framework density 19.718468999999999
#
# number of rings (size 3 to 8) (size 9 to 14) (size 15 to 20)
#    0.000    0.533    5.333    2.400    1.867    0.533 
#    0.000    2.667    0.000    0.000    0.000    0.000 
#    0.000    0.000    0.000    0.000    0.000    0.000 
#
# Total GULP energy -167290.382964 kJ/mol
# GULP energy per Si atom -5576.346099 kJ/mol
# Density = 1.967359 g / cm^3
# Si number density = 19.718469 Si / 1000 Ang^3
#
#
#
# Elastic Constant Matrix: (Units=GPa)
#
#
# Indices 1 2 3 4 5 6 
#
# 1 77.1145 25.2287 27.0301 0.0000 -2.8280 0.0000
# 2 25.2287 119.5370 34.1477 0.0000 13.6933 0.0000
# 3 27.0301 34.1477 83.0785 0.0000 15.1279 0.0000
# 4 0.0000 0.0000 0.0000 20.3754 0.0000 -15.8875
# 5 -2.8280 13.6933 15.1279 0.0000 47.4914 0.0000
# 6 0.0000 0.0000 0.0000 -15.8875 0.0000 141.1515
#
#
#
# Elastic Compliance Matrix: (Units=1/GPa)
#
#
# Indices 1 2 3 4 5 6 
#
# 1 0.015456 -0.002285 -0.004647 0.000000 0.003059 0.000000
# 2 -0.002285 0.009930 -0.002964 0.000000 -0.002055 0.000000
# 3 -0.004647 -0.002964 0.015564 0.000000 -0.004380 0.000000
# 4 0.000000 0.000000 0.000000 0.053801 0.000000 0.006056
# 5 0.003059 -0.002055 -0.004380 0.000000 0.023226 0.000000
# 6 0.000000 0.000000 0.000000 0.006056 0.000000 0.007766
#
#
# Mechanical properties :
#
#
# Convention : Reuss Voigt Hill
#
# Bulk Modulus (GPa) = 47.26018 50.28256 48.77137
# Shear Modulus (GPa) = 32.76792 54.69188 43.72990
#
# Velocity S-wave (km/s) = 4.08093 5.27225 4.71437
# Velocity P-wave (km/s) = 6.79888 7.91314 7.37708
#
# Compressibility (1/GPa) = 0.02115946
#
# Stress axis : x y z
#
# Youngs Moduli (GPa) = 64.69862 100.70510 64.24926
#
# Poissons Ratio (x) = 0.23013 0.29854
# Poissons Ratio (y) = 0.14785 0.19042
# Poissons Ratio (z) = 0.30063 0.29847
#
# Static dielectric constant tensor:
#      x y z
#    x 1.645400 0.000000 0.009310 
#    y 0.000000 1.620890 0.000000 
#    z 0.009310 0.000000 1.718580 
# 
# From -- ./inp_files/98757.got.cif
#   From: 2010.05.17/outbox.cif.g08.bks.cpg/sg15_50_cif.got.tgz:98757.got - 2010.06.03 18:47:42.
