data_PCOD9304068
_publ_section_title
;
Structure prediction by ZEFSAII (Michael W. Deem and Ramdas Pophale) SiO2 
 PCOD9304068
Probable space group: C 2/C
;
_chemical_formula_sum "Si O2"
_cell_formula_units_Z 32
_cell_length_a 22.645348
_cell_length_b 8.048225
_cell_length_c 10.409950
_cell_angle_alpha 90.000000
_cell_angle_beta 135.109052
_cell_angle_gamma 90.000000
_cell_volume 1339.012338
_symmetry_space_group_name_H-M "C 2/C"
_symmetry_group_IT_number 15
_symmetry_cell_setting 'monoclinic'
loop_
_space_group_symop_operation_xyz
x,y,z
-x,y,1/2-z
-x,-y,-z
x,-y,1/2+z
1/2+x,1/2+y,z
1/2-x,1/2+y,1/2-z
1/2-x,1/2-y,-z
1/2+x,1/2-y,1/2+z
loop_
_atom_site_type_symbol
_atom_site_label
_atom_site_fract_x
_atom_site_fract_y
_atom_site_fract_z
Si Si1 0.624163 0.467967 0.654239
Si Si2 0.911506 0.845615 0.152379
Si Si3 0.588458 0.911927 0.161402
Si Si4 0.680508 0.026092 0.550923
O O1 0.599344 0.494235 0.467398
O O2 0.588517 0.594546 0.702877
O O3 0.591814 0.284274 0.639245
O O4 0.724199 0.474805 0.819360
O O5 0.000000 0.763432 0.250000
O O6 0.836244 0.719514 0.009522
O O7 0.651068 0.993346 0.152350
O O8 0.621999 0.936927 0.356687
O O9 0.500000 0.000000 0.000000
#
# Coordination Sequence:
#
# PCOD9304068 Si02
#       4
#     8   8   8   8
#     4  11  24  42  67  99 131 175 223 273 333 396
#     4  11  24  43  66  99 136 176 223 275 329 394
#     4  11  24  43  66  98 134 175 222 275 333 396
#     4  11  23  42  65  96 134 174 221 275 330 394
#
# _framework density 23.898211
#
# number of rings (size 3 to 8) (size 9 to 14) (size 15 to 20)
#    0.000    1.000    0.000    7.500    0.000    8.000 
#    0.000    0.000    0.000    0.000    0.000    0.000 
#    0.000    0.000    0.000    0.000    0.000    0.000 
#
# Total GULP energy -89585.227408 kJ/mol
# GULP energy per Si atom -5599.076713 kJ/mol
# Density = 2.384382 g / cm^3
# Si number density = 23.898211 Si / 1000 Ang^3
#
#
#
# Elastic Constant Matrix: (Units=GPa)
#
#
# Indices 1 2 3 4 5 6 
#
# 1 66.0878 42.1307 11.9518 0.0000 22.7669 0.0000
# 2 42.1307 65.2963 25.0045 0.0000 14.8378 0.0000
# 3 11.9518 25.0045 97.6451 0.0000 16.7860 0.0000
# 4 0.0000 0.0000 0.0000 42.3573 0.0000 -3.3870
# 5 22.7669 14.8378 16.7860 0.0000 60.6489 0.0000
# 6 0.0000 0.0000 0.0000 -3.3870 0.0000 41.8587
#
#
#
# Elastic Compliance Matrix: (Units=1/GPa)
#
#
# Indices 1 2 3 4 5 6 
#
# 1 0.028299 -0.017530 0.002220 0.000000 -0.006949 0.000000
# 2 -0.017530 0.028413 -0.005319 0.000000 0.001102 0.000000
# 3 0.002220 -0.005319 0.011813 0.000000 -0.002801 0.000000
# 4 0.000000 0.000000 0.000000 0.023762 0.000000 0.001923
# 5 -0.006949 0.001102 -0.002801 0.000000 0.019603 0.000000
# 6 0.000000 0.000000 0.000000 0.001923 0.000000 0.024045
#
#
# Mechanical properties :
#
#
# Convention : Reuss Voigt Hill
#
# Bulk Modulus (GPa) = 36.67709 43.02257 39.84983
# Shear Modulus (GPa) = 26.84072 38.96911 32.90492
#
# Velocity S-wave (km/s) = 3.35494 4.04249 3.71466
# Velocity P-wave (km/s) = 5.51254 6.31113 5.92531
#
# Compressibility (1/GPa) = 0.02726498
#
# Stress axis : x y z
#
# Youngs Moduli (GPa) = 35.33650 35.19575 84.65084
#
# Poissons Ratio (x) = 0.61700 -0.18791
# Poissons Ratio (y) = 0.61947 0.45029
# Poissons Ratio (z) = -0.07844 0.18722
#
# Static dielectric constant tensor:
#      x y z
#    x 1.924580 0.000000 -0.043270 
#    y 0.000000 1.945030 0.000000 
#    z -0.043270 0.000000 1.919440 
# 
# From -- ./inp_files/93435.got.cif
#   From: 2010.05.17/outbox.cif.g08.bks.cpg/sg15_47_cif.got.tgz:93435.got - 2010.06.03 18:47:42.
