data_PCOD9304572
_publ_section_title
;
Structure prediction by ZEFSAII (Michael W. Deem and Ramdas Pophale) SiO2 
 PCOD9304572
Probable space group: C 2/C
;
_chemical_formula_sum "Si O2"
_cell_formula_units_Z 40
_cell_length_a 6.219573
_cell_length_b 17.174707
_cell_length_c 15.406646
_cell_angle_alpha 90.000000
_cell_angle_beta 81.394073
_cell_angle_gamma 90.000000
_cell_volume 1627.198415
_symmetry_space_group_name_H-M "C 2/C"
_symmetry_group_IT_number 15
_symmetry_cell_setting 'monoclinic'
loop_
_space_group_symop_operation_xyz
x,y,z
-x,y,1/2-z
-x,-y,-z
x,-y,1/2+z
1/2+x,1/2+y,z
1/2-x,1/2+y,1/2-z
1/2-x,1/2-y,-z
1/2+x,1/2-y,1/2+z
loop_
_atom_site_type_symbol
_atom_site_label
_atom_site_fract_x
_atom_site_fract_y
_atom_site_fract_z
Si Si1 0.128784 0.865722 0.651060
Si Si2 0.416314 0.221710 0.567519
Si Si3 0.470229 0.019756 0.150857
Si Si4 0.229042 0.914617 0.469796
Si Si5 0.384796 0.607766 0.845540
O O1 0.378097 0.892291 0.654870
O O2 0.094141 0.919129 0.567057
O O3 0.000000 0.878523 0.750000
O O4 0.059619 0.784605 0.611352
O O5 0.250000 0.250000 0.500000
O O6 0.581556 0.151698 0.530061
O O7 0.255178 0.185603 0.648471
O O8 0.500000 0.000096 0.250000
O O9 0.283197 0.961374 0.130892
O O10 0.664559 0.993015 0.076433
O O11 0.063242 0.884572 0.408326
O O12 0.500000 0.590476 0.750000
#
# Coordination Sequence:
#
# PCOD9304572 Si02
#       5
#     8   8   8   8   8
#     4  12  28  46  71 112 153 187 241 313 382 429
#     4  11  26  46  71 107 146 193 248 304 376 450
#     4  11  25  48  74 109 144 195 253 309 370 445
#     4  11  25  49  77 101 144 206 250 297 368 457
#     4  11  23  44  79 102 141 193 259 300 360 455
#
# _framework density 24.582125999999999
#
# number of rings (size 3 to 8) (size 9 to 14) (size 15 to 20)
#    0.000    0.800    4.000    1.800    2.800    2.400 
#    0.000    0.000    0.000    0.000    0.000    0.000 
#    0.000    0.000    0.000    0.000    0.000    0.000 
#
# Total GULP energy -111517.993859 kJ/mol
# GULP energy per Si atom -5575.899693 kJ/mol
# Density = 2.452618 g / cm^3
# Si number density = 24.582126 Si / 1000 Ang^3
#
#
#
# Elastic Constant Matrix: (Units=GPa)
#
#
# Indices 1 2 3 4 5 6 
#
# 1 109.2950 63.8491 33.3286 0.0000 5.7073 0.0000
# 2 63.8491 112.4120 29.2527 0.0000 3.6289 0.0000
# 3 33.3286 29.2527 168.8454 0.0000 -9.0416 0.0000
# 4 0.0000 0.0000 0.0000 7.4680 0.0000 4.0004
# 5 5.7073 3.6289 -9.0416 0.0000 44.8437 0.0000
# 6 0.0000 0.0000 0.0000 4.0004 0.0000 55.6807
#
#
#
# Elastic Compliance Matrix: (Units=1/GPa)
#
#
# Indices 1 2 3 4 5 6 
#
# 1 0.014124 -0.007569 -0.001557 0.000000 -0.001499 0.000000
# 2 -0.007569 0.013425 -0.000848 0.000000 -0.000294 0.000000
# 3 -0.001557 -0.000848 0.006461 0.000000 0.001569 0.000000
# 4 0.000000 0.000000 0.000000 0.139264 0.000000 -0.010006
# 5 -0.001499 -0.000294 0.001569 0.000000 0.022831 0.000000
# 6 0.000000 0.000000 0.000000 -0.010006 0.000000 0.018678
#
#
# Mechanical properties :
#
#
# Convention : Reuss Voigt Hill
#
# Bulk Modulus (GPa) = 71.10800 71.49035 71.29918
# Shear Modulus (GPa) = 20.88395 39.20662 30.04529
#
# Velocity S-wave (km/s) = 2.91788 3.99798 3.49985
# Velocity P-wave (km/s) = 6.35150 7.10332 6.73791
#
# Compressibility (1/GPa) = 0.01406311
#
# Stress axis : x y z
#
# Youngs Moduli (GPa) = 70.79989 74.48790 154.77964
#
# Poissons Ratio (x) = 0.56379 0.24098
# Poissons Ratio (y) = 0.53588 0.13119
# Poissons Ratio (z) = 0.11023 0.06314
#
# Static dielectric constant tensor:
#      x y z
#    x 2.077180 0.000000 0.012300 
#    y 0.000000 2.055540 0.000000 
#    z 0.012300 0.000000 1.957720 
# 
# From -- ./inp_files/184319.got.cif
#   From: 2010.05.17/outbox.cif.g08.bks.cpg/sg15_93_cif.got.tgz:184319.got - 2010.06.03 18:47:42.
