data_PCOD9304146
_publ_section_title
;
Structure prediction by ZEFSAII (Michael W. Deem and Ramdas Pophale) SiO2 
 PCOD9304146
Probable space group: C 2/C
;
_chemical_formula_sum "Si O2"
_cell_formula_units_Z 40
_cell_length_a 5.192405
_cell_length_b 26.840701
_cell_length_c 12.867065
_cell_angle_alpha 90.000000
_cell_angle_beta 106.558397
_cell_angle_gamma 90.000000
_cell_volume 1718.887728
_symmetry_space_group_name_H-M "C 2/C"
_symmetry_group_IT_number 15
_symmetry_cell_setting 'monoclinic'
loop_
_space_group_symop_operation_xyz
x,y,z
-x,y,1/2-z
-x,-y,-z
x,-y,1/2+z
1/2+x,1/2+y,z
1/2-x,1/2+y,1/2-z
1/2-x,1/2-y,-z
1/2+x,1/2-y,1/2+z
loop_
_atom_site_type_symbol
_atom_site_label
_atom_site_fract_x
_atom_site_fract_y
_atom_site_fract_z
Si Si1 0.814560 0.872562 0.923794
Si Si2 0.000000 0.296332 0.750000
Si Si3 0.469413 0.977892 0.609958
Si Si4 0.000000 0.921392 0.750000
Si Si5 0.746270 0.651131 0.849171
Si Si6 0.000000 0.271307 0.250000
Si Si7 0.500000 0.063322 0.750000
O O1 0.615152 0.832412 0.851751
O O2 0.701469 0.928319 0.919788
O O3 0.015823 0.884037 0.851526
O O4 0.858684 0.854666 0.046149
O O5 0.759817 0.263584 0.770364
O O6 0.742800 0.957000 0.696922
O O7 0.500000 0.000000 0.500000
O O8 0.343428 0.024528 0.658517
O O9 0.500000 0.667411 0.750000
O O10 0.976808 0.691615 0.847818
O O11 0.841768 0.598796 0.810699
#
# Coordination Sequence:
#
# PCOD9304146 Si02
#       7
#     8   4   8   4   8   4   4
#     4  12  26  45  77 110 152 196 257 318 384 465
#     4  12  25  52  80 116 143 207 249 334 390 464
#     4  12  25  44  67 111 150 204 252 309 377 459
#     4  12  25  44  70 110 156 200 262 309 376 462
#     4  11  27  49  72 112 148 204 255 320 389 468
#     4  11  27  54  79 110 157 188 270 316 408 464
#     4  11  23  42  69  98 154 195 255 303 370 458
#
# _framework density 23.270865000000001
#
# number of rings (size 3 to 8) (size 9 to 14) (size 15 to 20)
#    0.000    0.400    7.000    0.600    4.200    2.400 
#    0.000    0.000    0.000    0.000    0.000    0.000 
#    0.000    0.000    0.000    0.000    0.000    0.000 
#
# Total GULP energy -111514.491543 kJ/mol
# GULP energy per Si atom -5575.724577 kJ/mol
# Density = 2.321790 g / cm^3
# Si number density = 23.270865 Si / 1000 Ang^3
#
#
#
# Elastic Constant Matrix: (Units=GPa)
#
#
# Indices 1 2 3 4 5 6 
#
# 1 76.3156 43.3713 19.9603 0.0000 -15.9272 0.0000
# 2 43.3713 158.1404 42.5213 0.0000 -16.1304 0.0000
# 3 19.9603 42.5213 165.5096 0.0000 -31.9436 0.0000
# 4 0.0000 0.0000 0.0000 -109.5276 0.0000 -97.9862
# 5 -15.9272 -16.1304 -31.9436 0.0000 32.0724 0.0000
# 6 0.0000 0.0000 0.0000 -97.9862 0.0000 -29.6803
#
#
#
# Elastic Compliance Matrix: (Units=1/GPa)
#
#
# Indices 1 2 3 4 5 6 
#
# 1 0.016657 -0.003975 0.000276 0.000000 0.006548 0.000000
# 2 -0.003975 0.007855 -0.001433 0.000000 0.000550 0.000000
# 3 0.000276 -0.001433 0.007755 0.000000 0.007140 0.000000
# 4 0.000000 0.000000 0.000000 0.004674 0.000000 -0.015430
# 5 0.006548 0.000550 0.007140 0.000000 0.041819 0.000000
# 6 0.000000 0.000000 0.000000 -0.015430 0.000000 0.017247
#
#
# Mechanical properties :
#
#
# Convention : Reuss Voigt Hill
#
# Bulk Modulus (GPa) = 45.44607 67.96351 56.70479
# Shear Modulus (GPa) = 44.01289 -1.81960 21.09664
#
# Velocity S-wave (km/s) = 4.35366 -0.88522 3.01419
# Velocity P-wave (km/s) = 6.69657 5.31263 6.04434
#
# Compressibility (1/GPa) = 0.02200410
#
# Stress axis : x y z
#
# Youngs Moduli (GPa) = 60.03630 127.31020 128.95290
#
# Poissons Ratio (x) = 0.50600 -0.03560
# Poissons Ratio (y) = 0.23862 0.18473
# Poissons Ratio (z) = -0.01657 0.18238
#
# Static dielectric constant tensor:
#      x y z
#    x 2.624730 0.000000 -1.981070 
#    y 0.000000 1.887490 0.000000 
#    z -1.981070 0.000000 8.138470 
# 
# From -- ./inp_files/73167.got.cif
#   From: 2010.05.17/outbox.cif.g08.bks.cpg/sg15_37_cif.got.tgz:73167.got - 2010.06.03 18:47:42.
