data_PCOD9304363
_publ_section_title
;
Structure prediction by ZEFSAII (Michael W. Deem and Ramdas Pophale) SiO2 
 PCOD9304363
Probable space group: C 2/C
;
_chemical_formula_sum "Si O2"
_cell_formula_units_Z 64
_cell_length_a 31.119632
_cell_length_b 22.286942
_cell_length_c 9.563084
_cell_angle_alpha 90.000000
_cell_angle_beta 154.502105
_cell_angle_gamma 90.000000
_cell_volume 2855.182040
_symmetry_space_group_name_H-M "C 2/C"
_symmetry_group_IT_number 15
_symmetry_cell_setting 'monoclinic'
loop_
_space_group_symop_operation_xyz
x,y,z
-x,y,1/2-z
-x,-y,-z
x,-y,1/2+z
1/2+x,1/2+y,z
1/2-x,1/2+y,1/2-z
1/2-x,1/2-y,-z
1/2+x,1/2-y,1/2+z
loop_
_atom_site_type_symbol
_atom_site_label
_atom_site_fract_x
_atom_site_fract_y
_atom_site_fract_z
Si Si1 0.775377 0.955668 0.640126
Si Si2 0.628970 0.877311 0.350702
Si Si3 0.598657 0.853753 0.751011
Si Si4 0.840295 0.713053 0.334286
Si Si5 0.094873 0.157689 0.934449
Si Si6 0.207904 0.928249 0.141689
Si Si7 0.119109 0.280300 0.084676
Si Si8 0.455757 0.325872 0.773371
O O1 0.669552 0.938699 0.402728
O O2 0.779788 0.949973 0.484194
O O3 0.815085 0.017126 0.821293
O O4 0.841123 0.901085 0.890987
O O5 0.683602 0.845974 0.643463
O O6 0.643422 0.827388 0.274169
O O7 0.511140 0.879406 0.040184
O O8 0.596847 0.812837 0.609415
O O9 0.685507 0.902565 0.995077
O O10 0.635434 0.812215 0.986024
O O11 0.899550 0.761946 0.599962
O O12 0.750000 0.750000 0.000000
O O13 0.000000 0.141734 0.750000
O O14 0.047842 0.178428 0.650382
O O15 0.155308 0.211930 0.186222
O O16 0.123323 0.876623 0.909184
O O17 0.000000 0.270957 0.750000
O O18 0.500000 0.339195 0.750000
#
# Coordination Sequence:
#
# PCOD9304363 Si02
#       8
#     8   8   8   8   8   8   8   8
#     4  12  30  48  72 104 138 192 254 299 357 415
#     4  11  25  44  73 106 142 186 234 290 365 428
#     4  11  23  47  72 104 147 185 231 293 358 431
#     4  12  25  42  72 112 152 188 226 290 365 435
#     4  11  23  43  72 104 144 181 231 294 364 434
#     4  12  29  50  72 101 140 190 255 303 348 426
#     4   9  19  38  70 102 136 171 220 285 350 433
#     4  12  26  46  72 108 147 189 230 291 366 436
#
# _framework density 22.415382999999999
#
# number of rings (size 3 to 8) (size 9 to 14) (size 15 to 20)
#    0.000    0.750    3.750    4.125    7.000    2.000 
#    0.000    0.000    0.000    0.000    0.000    0.000 
#    0.000    0.000    0.000    0.000    0.000    0.000 
#
# Total GULP energy -179006.355319 kJ/mol
# GULP energy per Si atom -5593.948604 kJ/mol
# Density = 2.236436 g / cm^3
# Si number density = 22.415383 Si / 1000 Ang^3
#
#
#
# Elastic Constant Matrix: (Units=GPa)
#
#
# Indices 1 2 3 4 5 6 
#
# 1 98.3233 11.2760 -0.3422 0.0000 -21.8352 0.0000
# 2 11.2760 79.9209 -3.7586 0.0000 -8.1256 0.0000
# 3 -0.3422 -3.7586 52.4129 0.0000 -14.8499 0.0000
# 4 0.0000 0.0000 0.0000 23.3782 0.0000 -3.4098
# 5 -21.8352 -8.1256 -14.8499 0.0000 35.9511 0.0000
# 6 0.0000 0.0000 0.0000 -3.4098 0.0000 37.1159
#
#
#
# Elastic Compliance Matrix: (Units=1/GPa)
#
#
# Indices 1 2 3 4 5 6 
#
# 1 0.012069 -0.000768 0.002323 0.000000 0.008116 0.000000
# 2 -0.000768 0.013038 0.001849 0.000000 0.003244 0.000000
# 3 0.002323 0.001849 0.022362 0.000000 0.011066 0.000000
# 4 0.000000 0.000000 0.000000 0.043356 0.000000 0.003983
# 5 0.008116 0.003244 0.011066 0.000000 0.038049 0.000000
# 6 0.000000 0.000000 0.000000 0.003983 0.000000 0.027309
#
#
# Mechanical properties :
#
#
# Convention : Reuss Voigt Hill
#
# Bulk Modulus (GPa) = 18.42412 27.22303 22.82358
# Shear Modulus (GPa) = 29.85662 34.18783 32.02223
#
# Velocity S-wave (km/s) = 3.65358 3.90961 3.78376
# Velocity P-wave (km/s) = 5.10249 5.70537 5.41233
#
# Compressibility (1/GPa) = 0.05427668
#
# Stress axis : x y z
#
# Youngs Moduli (GPa) = 82.85577 76.70157 44.71811
#
# Poissons Ratio (x) = 0.05894 -0.10389
# Poissons Ratio (y) = 0.06367 -0.08268
# Poissons Ratio (z) = -0.19249 -0.14182
#
# Static dielectric constant tensor:
#      x y z
#    x 1.884100 0.000000 0.018720 
#    y 0.000000 1.836430 0.000000 
#    z 0.018720 0.000000 1.939430 
# 
# From -- ./inp_files/70982.got.cif
#   From: 2010.05.17/outbox.cif.g08.bks.cpg/sg15_36_cif.got.tgz:70982.got - 2010.06.03 18:47:42.
