data_PCOD9304863
_publ_section_title
;
Structure prediction by ZEFSAII (Michael W. Deem and Ramdas Pophale) SiO2 
 PCOD9304863
Probable space group: C 2/C
;
_chemical_formula_sum "Si O2"
_cell_formula_units_Z 40
_cell_length_a 16.101754
_cell_length_b 8.808475
_cell_length_c 15.163015
_cell_angle_alpha 90.000000
_cell_angle_beta 124.100589
_cell_angle_gamma 90.000000
_cell_volume 1780.813490
_symmetry_space_group_name_H-M "C 2/C"
_symmetry_group_IT_number 15
_symmetry_cell_setting 'monoclinic'
loop_
_space_group_symop_operation_xyz
x,y,z
-x,y,1/2-z
-x,-y,-z
x,-y,1/2+z
1/2+x,1/2+y,z
1/2-x,1/2+y,1/2-z
1/2-x,1/2-y,-z
1/2+x,1/2-y,1/2+z
loop_
_atom_site_type_symbol
_atom_site_label
_atom_site_fract_x
_atom_site_fract_y
_atom_site_fract_z
Si Si1 0.236747 0.204190 0.391180
Si Si2 0.991736 0.617240 0.348714
Si Si3 0.055667 0.840282 0.042686
Si Si4 0.891900 0.678817 0.835709
Si Si5 0.791170 0.363926 0.448443
O O1 0.250000 0.250000 0.500000
O O2 0.328115 0.301496 0.401845
O O3 0.141303 0.255236 0.277278
O O4 0.235309 0.020393 0.392959
O O5 0.968169 0.781140 0.373602
O O6 0.908496 0.500881 0.334392
O O7 0.000000 0.611370 0.250000
O O8 0.100282 0.579670 0.453077
O O9 0.997058 0.739372 0.935327
O O10 0.000000 0.000000 0.000000
O O11 0.813381 0.716341 0.867609
O O12 0.750000 0.250000 0.500000
#
# Coordination Sequence:
#
# PCOD9304863 Si02
#       5
#     8   8   8   8   8
#     4  12  27  43  72 106 146 188 254 302 372 450
#     4  11  23  47  75  99 144 200 238 301 387 443
#     4  11  26  46  67 107 149 188 248 311 367 446
#     4  11  25  47  74  97 147 195 233 309 378 430
#     4  11  25  45  73 107 139 191 251 302 374 455
#
# _framework density 22.461645999999998
#
# number of rings (size 3 to 8) (size 9 to 14) (size 15 to 20)
#    0.000    0.800    4.000    2.400   11.200    0.000 
#    0.000    0.000    0.000    0.000    0.000    0.000 
#    0.000    0.000    0.000    0.000    0.000    0.000 
#
# Total GULP energy -111634.602567 kJ/mol
# GULP energy per Si atom -5581.730128 kJ/mol
# Density = 2.241052 g / cm^3
# Si number density = 22.461646 Si / 1000 Ang^3
#
#
#
# Elastic Constant Matrix: (Units=GPa)
#
#
# Indices 1 2 3 4 5 6 
#
# 1 59.1166 17.8976 13.4500 0.0000 -14.6663 0.0000
# 2 17.8976 103.0380 -9.6980 0.0000 -10.8479 0.0000
# 3 13.4500 -9.6980 108.1027 0.0000 -21.4603 0.0000
# 4 0.0000 0.0000 0.0000 37.0057 0.0000 2.1466
# 5 -14.6663 -10.8479 -21.4603 0.0000 32.4520 0.0000
# 6 0.0000 0.0000 0.0000 2.1466 0.0000 22.6290
#
#
#
# Elastic Compliance Matrix: (Units=1/GPa)
#
#
# Indices 1 2 3 4 5 6 
#
# 1 0.019841 -0.002814 -0.001298 0.000000 0.007168 0.000000
# 2 -0.002814 0.010775 0.002048 0.000000 0.003684 0.000000
# 3 -0.001298 0.002048 0.011068 0.000000 0.007417 0.000000
# 4 0.000000 0.000000 0.000000 0.027172 0.000000 -0.002578
# 5 0.007168 0.003684 0.007417 0.000000 0.040191 0.000000
# 6 0.000000 0.000000 0.000000 -0.002578 0.000000 0.044436
#
#
# Mechanical properties :
#
#
# Convention : Reuss Voigt Hill
#
# Bulk Modulus (GPa) = 26.62678 34.83962 30.73320
# Shear Modulus (GPa) = 29.38941 34.99120 32.19030
#
# Velocity S-wave (km/s) = 3.62114 3.95120 3.78977
# Velocity P-wave (km/s) = 5.41882 6.02996 5.73254
#
# Compressibility (1/GPa) = 0.03755618
#
# Stress axis : x y z
#
# Youngs Moduli (GPa) = 50.39994 92.81089 90.34919
#
# Poissons Ratio (x) = 0.26117 0.11728
# Poissons Ratio (y) = 0.14182 -0.18505
# Poissons Ratio (z) = 0.06542 -0.19009
#
# Static dielectric constant tensor:
#      x y z
#    x 1.895000 0.000000 -0.013180 
#    y 0.000000 1.922770 0.000000 
#    z -0.013180 0.000000 1.794750 
# 
# From -- ./inp_files/159496.got.cif
#   From: 2010.05.17/outbox.cif.g08.bks.cpg/sg15_80_cif.got.tgz:159496.got - 2010.06.03 18:47:42.
