data_PCOD9304652
_publ_section_title
;
Structure prediction by ZEFSAII (Michael W. Deem and Ramdas Pophale) SiO2 
 PCOD9304652
Probable space group: C 2/C
;
_chemical_formula_sum "Si O2"
_cell_formula_units_Z 32
_cell_length_a 8.233005
_cell_length_b 15.151693
_cell_length_c 11.206098
_cell_angle_alpha 90.000000
_cell_angle_beta 90.039859
_cell_angle_gamma 90.000000
_cell_volume 1397.892750
_symmetry_space_group_name_H-M "C 2/C"
_symmetry_group_IT_number 15
_symmetry_cell_setting 'monoclinic'
loop_
_space_group_symop_operation_xyz
x,y,z
-x,y,1/2-z
-x,-y,-z
x,-y,1/2+z
1/2+x,1/2+y,z
1/2-x,1/2+y,1/2-z
1/2-x,1/2-y,-z
1/2+x,1/2-y,1/2+z
loop_
_atom_site_type_symbol
_atom_site_label
_atom_site_fract_x
_atom_site_fract_y
_atom_site_fract_z
Si Si1 0.310893 0.519952 0.988493
Si Si2 0.627466 0.148559 0.142951
Si Si3 0.654639 0.160860 0.530737
Si Si4 0.805714 0.161897 0.782379
O O1 0.240626 0.567329 0.106890
O O2 0.500000 0.500000 0.000000
O O3 0.223854 0.426978 0.968571
O O4 0.283262 0.588101 0.881643
O O5 0.500000 0.130548 0.250000
O O6 0.522211 0.170992 0.024787
O O7 0.722680 0.237496 0.176208
O O8 0.750000 0.250000 0.500000
O O9 0.690131 0.145581 0.669619
O O10 0.000000 0.159498 0.750000
#
# Coordination Sequence:
#
# PCOD9304652 Si02
#       4
#     8   8   8   8
#     4  12  26  45  73 105 145 190 250 304 370 436
#     4  11  25  47  73 103 149 191 248 301 370 441
#     4  12  24  45  71 103 148 194 242 306 364 432
#     4  11  23  45  72 104 148 190 241 302 369 438
#
# _framework density 22.891598999999999
#
# number of rings (size 3 to 8) (size 9 to 14) (size 15 to 20)
#    0.000    0.500    7.500    1.500    3.500    1.000 
#    0.000    0.000    0.000    0.000    0.000    0.000 
#    0.000    0.000    0.000    0.000    0.000    0.000 
#
# Total GULP energy -89571.160316 kJ/mol
# GULP energy per Si atom -5598.197520 kJ/mol
# Density = 2.283950 g / cm^3
# Si number density = 22.891599 Si / 1000 Ang^3
#
#
#
# Elastic Constant Matrix: (Units=GPa)
#
#
# Indices 1 2 3 4 5 6 
#
# 1 60.7127 20.7853 48.8262 0.0000 2.1124 0.0000
# 2 20.7853 171.4561 50.4775 0.0000 -32.6352 0.0000
# 3 48.8262 50.4775 135.4581 0.0000 7.6520 0.0000
# 4 0.0000 0.0000 0.0000 45.9799 0.0000 -8.4158
# 5 2.1124 -32.6352 7.6520 0.0000 40.8946 0.0000
# 6 0.0000 0.0000 0.0000 -8.4158 0.0000 30.1465
#
#
#
# Elastic Compliance Matrix: (Units=1/GPa)
#
#
# Indices 1 2 3 4 5 6 
#
# 1 0.023218 -0.000387 -0.008227 0.000000 0.000031 0.000000
# 2 -0.000387 0.008235 -0.003337 0.000000 0.007216 0.000000
# 3 -0.008227 -0.003337 0.011843 0.000000 -0.004454 0.000000
# 4 0.000000 0.000000 0.000000 0.022920 0.000000 0.006398
# 5 0.000031 0.007216 -0.004454 0.000000 0.031044 0.000000
# 6 0.000000 0.000000 0.000000 0.006398 0.000000 0.034957
#
#
# Mechanical properties :
#
#
# Convention : Reuss Voigt Hill
#
# Bulk Modulus (GPa) = 51.55860 67.53387 59.54624
# Shear Modulus (GPa) = 30.75330 39.90674 35.33002
#
# Velocity S-wave (km/s) = 3.66926 4.17980 3.93283
# Velocity P-wave (km/s) = 6.36578 7.27049 6.83312
#
# Compressibility (1/GPa) = 0.01939541
#
# Stress axis : x y z
#
# Youngs Moduli (GPa) = 43.06917 121.42812 84.43885
#
# Poissons Ratio (x) = 0.04696 0.69466
# Poissons Ratio (y) = 0.01666 0.28178
# Poissons Ratio (z) = 0.35432 0.40522
#
# Static dielectric constant tensor:
#      x y z
#    x 1.904160 0.000000 -0.026020 
#    y 0.000000 1.571480 0.000000 
#    z -0.026020 0.000000 1.921170 
# 
# From -- ./inp_files/75341.got.cif
#   From: 2010.05.17/outbox.cif.g08.bks.cpg/sg15_38_cif.got.tgz:75341.got - 2010.06.03 18:47:42.
