data_PCOD9304344
_publ_section_title
;
Structure prediction by ZEFSAII (Michael W. Deem and Ramdas Pophale) SiO2 
 PCOD9304344
Probable space group: C 2/C
;
_chemical_formula_sum "Si O2"
_cell_formula_units_Z 28
_cell_length_a 7.466953
_cell_length_b 18.630851
_cell_length_c 8.114224
_cell_angle_alpha 90.000000
_cell_angle_beta 81.661493
_cell_angle_gamma 90.000000
_cell_volume 1116.882637
_symmetry_space_group_name_H-M "C 2/C"
_symmetry_group_IT_number 15
_symmetry_cell_setting 'monoclinic'
loop_
_space_group_symop_operation_xyz
x,y,z
-x,y,1/2-z
-x,-y,-z
x,-y,1/2+z
1/2+x,1/2+y,z
1/2-x,1/2+y,1/2-z
1/2-x,1/2-y,-z
1/2+x,1/2-y,1/2+z
loop_
_atom_site_type_symbol
_atom_site_label
_atom_site_fract_x
_atom_site_fract_y
_atom_site_fract_z
Si Si1 0.992157 0.696576 0.059889
Si Si2 0.500000 0.436906 0.250000
Si Si3 0.574813 0.654637 0.068240
Si Si4 0.884448 0.440649 0.106551
O O1 0.789471 0.667838 0.054215
O O2 0.000000 0.716522 0.250000
O O3 0.018100 0.767455 0.948280
O O4 0.127642 0.631725 0.999312
O O5 0.542219 0.391307 0.408845
O O6 0.690827 0.472937 0.181463
O O7 0.500000 0.624474 0.250000
O O8 0.000000 0.418914 0.250000
O O9 0.000000 0.500000 0.000000
#
# Coordination Sequence:
#
# PCOD9304344 Si02
#       4
#     8   4   8   8
#     4  11  23  43  71 107 151 191 241 303 365 431
#     4  12  26  50  78 106 148 192 248 306 374 440
#     4  11  24  41  74 112 146 193 240 301 373 437
#     4  12  27  49  73 105 144 196 248 303 365 441
#
# _framework density 25.069779
#
# number of rings (size 3 to 8) (size 9 to 14) (size 15 to 20)
#    0.000    0.571    4.286    3.429    4.000    3.429 
#    2.571    0.000    0.000    0.000    0.000    0.000 
#    0.000    0.000    0.000    0.000    0.000    0.000 
#
# Total GULP energy -78530.098636 kJ/mol
# GULP energy per Si atom -5609.292760 kJ/mol
# Density = 2.501272 g / cm^3
# Si number density = 25.069779 Si / 1000 Ang^3
#
#
#
# Elastic Constant Matrix: (Units=GPa)
#
#
# Indices 1 2 3 4 5 6 
#
# 1 141.9759 32.2451 40.7394 0.0000 -27.9730 0.0000
# 2 32.2451 74.0970 38.5958 0.0000 -27.8359 0.0000
# 3 40.7394 38.5958 172.9192 0.0000 -1.6686 0.0000
# 4 0.0000 0.0000 0.0000 16.5356 0.0000 -19.5061
# 5 -27.9730 -27.8359 -1.6686 0.0000 55.9883 0.0000
# 6 0.0000 0.0000 0.0000 -19.5061 0.0000 23.7503
#
#
#
# Elastic Compliance Matrix: (Units=1/GPa)
#
#
# Indices 1 2 3 4 5 6 
#
# 1 0.008546 -0.001581 -0.001628 0.000000 0.003436 0.000000
# 2 -0.001581 0.019521 -0.003900 0.000000 0.008799 0.000000
# 3 -0.001628 -0.003900 0.007012 0.000000 -0.002543 0.000000
# 4 0.000000 0.000000 0.000000 1.940511 0.000000 1.593735
# 5 0.003436 0.008799 -0.002543 0.000000 0.023876 0.000000
# 6 0.000000 0.000000 0.000000 1.593735 0.000000 1.351033
#
#
# Mechanical properties :
#
#
# Convention : Reuss Voigt Hill
#
# Bulk Modulus (GPa) = 47.93102 68.01697 57.97400
# Shear Modulus (GPa) = 1.48294 37.74896 19.61595
#
# Velocity S-wave (km/s) = 0.76994 3.88462 2.80027
# Velocity P-wave (km/s) = 4.46665 6.87825 5.79919
#
# Compressibility (1/GPa) = 0.02086331
#
# Stress axis : x y z
#
# Youngs Moduli (GPa) = 117.00869 51.22806 142.60522
#
# Poissons Ratio (x) = 0.08098 0.23209
# Poissons Ratio (y) = 0.18497 0.55611
# Poissons Ratio (z) = 0.19043 0.19977
#
# Static dielectric constant tensor:
#      x y z
#    x 2.014900 0.000000 0.118910 
#    y 0.000000 2.064030 0.000000 
#    z 0.118910 0.000000 2.347980 
# 
# From -- ./inp_files/21502.got.cif
#   From: 2010.05.17/outbox.cif.g08.bks.cpg/sg15_11_cif.got.tgz:21502.got - 2010.06.03 18:47:42.
