data_PCOD9304414
_publ_section_title
;
Structure prediction by ZEFSAII (Michael W. Deem and Ramdas Pophale) SiO2 
 PCOD9304414
Probable space group: C 2/C
;
_chemical_formula_sum "Si O2"
_cell_formula_units_Z 44
_cell_length_a 8.486607
_cell_length_b 16.201121
_cell_length_c 16.478333
_cell_angle_alpha 90.000000
_cell_angle_beta 42.690187
_cell_angle_gamma 90.000000
_cell_volume 1536.185886
_symmetry_space_group_name_H-M "C 2/C"
_symmetry_group_IT_number 15
_symmetry_cell_setting 'monoclinic'
loop_
_space_group_symop_operation_xyz
x,y,z
-x,y,1/2-z
-x,-y,-z
x,-y,1/2+z
1/2+x,1/2+y,z
1/2-x,1/2+y,1/2-z
1/2-x,1/2-y,-z
1/2+x,1/2-y,1/2+z
loop_
_atom_site_type_symbol
_atom_site_label
_atom_site_fract_x
_atom_site_fract_y
_atom_site_fract_z
Si Si1 0.000000 0.669478 0.250000
Si Si2 0.830618 0.946194 0.011545
Si Si3 0.067914 0.564516 0.387029
Si Si4 0.537321 0.707055 0.137874
Si Si5 0.000000 0.349412 0.250000
Si Si6 0.722704 0.194588 0.930780
Si Si7 0.500000 0.444865 0.250000
O O1 0.960896 0.613101 0.187072
O O2 0.219882 0.731816 0.154866
O O3 0.963224 0.880705 0.906294
O O4 0.212298 0.996098 0.694204
O O5 0.648757 0.000612 0.029558
O O6 0.000000 0.000000 0.000000
O O7 0.014014 0.640418 0.471168
O O8 0.809135 0.401373 0.365105
O O9 0.500000 0.676538 0.250000
O O10 0.405618 0.792435 0.213260
O O11 0.750000 0.750000 0.000000
O O12 0.911205 0.122141 0.849903
O O13 0.750000 0.250000 0.000000
#
# Coordination Sequence:
#
# PCOD9304414 Si02
#       7
#     4   8   8   8   4   8   4
#     4   9  21  48  83 111 158 216 266 339 419 516
#     4  11  23  43  78 124 166 221 286 364 447 517
#     4  11  24  45  79 120 161 213 278 343 430 504
#     4   8  17  41  80 121 174 223 287 357 435 528
#     4   8  19  44  75 118 168 214 280 342 426 528
#     4   9  21  48  82 112 159 212 267 330 419 506
#     4  11  24  48  82 119 164 208 270 351 415 498
#
# _framework density 28.642368000000001
#
# number of rings (size 3 to 8) (size 9 to 14) (size 15 to 20)
#    0.545    1.818    0.000    1.091    0.000    2.909 
#    3.273   23.636   12.000   30.545    0.000    0.000 
#    0.000    0.000    0.000    0.000    0.000    0.000 
#
# Total GULP energy -122759.265758 kJ/mol
# GULP energy per Si atom -5579.966625 kJ/mol
# Density = 2.857718 g / cm^3
# Si number density = 28.642368 Si / 1000 Ang^3
#
#
#
# Elastic Constant Matrix: (Units=GPa)
#
#
# Indices 1 2 3 4 5 6 
#
# 1 105.8945 96.5776 31.3870 0.0043 -12.8876 -0.0044
# 2 96.5776 278.1325 121.5727 0.0029 -10.0622 -0.0032
# 3 31.3870 121.5727 196.1918 0.0038 -1.2599 -0.0039
# 4 0.0043 0.0029 0.0038 122.3152 -0.0031 -8.4540
# 5 -12.8876 -10.0622 -1.2599 -0.0031 35.7249 0.0030
# 6 -0.0044 -0.0032 -0.0039 -8.4540 0.0030 75.6810
#
#
#
# Elastic Compliance Matrix: (Units=1/GPa)
#
#
# Indices 1 2 3 4 5 6 
#
# 1 0.014458 -0.005327 0.001012 0.000000 0.003751 0.000000
# 2 -0.005327 0.006953 -0.003457 0.000000 -0.000085 0.000000
# 3 0.001012 -0.003457 0.007075 0.000000 -0.000359 0.000000
# 4 0.000000 0.000000 0.000000 0.008239 0.000001 0.000920
# 5 0.003751 -0.000085 -0.000359 0.000001 0.029308 -0.000001
# 6 0.000000 0.000000 0.000000 0.000920 -0.000001 0.013316
#
#
# Mechanical properties :
#
#
# Convention : Reuss Voigt Hill
#
# Bulk Modulus (GPa) = 77.26514 119.92148 98.59331
# Shear Modulus (GPa) = 50.39918 68.78966 59.59442
#
# Velocity S-wave (km/s) = 4.19931 4.90601 4.56635
# Velocity P-wave (km/s) = 7.10962 8.60531 7.89297
#
# Compressibility (1/GPa) = 0.01294245
#
# Stress axis : x y z
#
# Youngs Moduli (GPa) = 69.16437 143.82065 141.34384
#
# Poissons Ratio (x) = 0.76615 -0.14305
# Poissons Ratio (y) = 0.36845 0.48861
# Poissons Ratio (z) = -0.07000 0.49717
#
# Static dielectric constant tensor:
#      x y z
#    x 1.834950 0.000320 -0.165100 
#    y 0.000320 5.496360 0.000040 
#    z -0.165100 0.000040 2.261950 
# 
# From -- ./inp_files/210929.got.cif
#   From: 2010.05.17/outbox.cif.g08.bks.cpg/sg15_106_cif.got.tgz:210929.got - 2010.06.03 18:47:42.
