data_PCOD9304606
_publ_section_title
;
Structure prediction by ZEFSAII (Michael W. Deem and Ramdas Pophale) SiO2 
 PCOD9304606
Probable space group: C 2/C
;
_chemical_formula_sum "Si O2"
_cell_formula_units_Z 48
_cell_length_a 22.042294
_cell_length_b 5.191802
_cell_length_c 21.119535
_cell_angle_alpha 90.000000
_cell_angle_beta 127.467929
_cell_angle_gamma 90.000000
_cell_volume 1918.281520
_symmetry_space_group_name_H-M "C 2/C"
_symmetry_group_IT_number 15
_symmetry_cell_setting 'monoclinic'
loop_
_space_group_symop_operation_xyz
x,y,z
-x,y,1/2-z
-x,-y,-z
x,-y,1/2+z
1/2+x,1/2+y,z
1/2-x,1/2+y,1/2-z
1/2-x,1/2-y,-z
1/2+x,1/2-y,1/2+z
loop_
_atom_site_type_symbol
_atom_site_label
_atom_site_fract_x
_atom_site_fract_y
_atom_site_fract_z
Si Si1 0.168998 0.802891 0.917591
Si Si2 0.422240 0.054520 0.219316
Si Si3 0.693683 0.560221 0.797515
Si Si4 0.933344 0.234886 0.345148
Si Si5 0.914301 0.973542 0.019761
Si Si6 0.629266 0.023961 0.085051
O O1 0.118120 0.554633 0.868919
O O2 0.125191 0.987596 0.937538
O O3 0.184169 0.917908 0.858579
O O4 0.250000 0.750000 0.000000
O O5 0.500000 0.206250 0.250000
O O6 0.452493 0.833973 0.286751
O O7 0.354336 0.183324 0.217083
O O8 0.645892 0.417535 0.713178
O O9 0.783357 0.548123 0.842258
O O10 0.921665 0.470823 0.385609
O O11 0.998000 0.051418 0.414375
O O12 0.879084 0.194915 0.951045
O O13 0.898449 0.692928 0.982377
#
# Coordination Sequence:
#
# PCOD9304606 Si02
#       6
#     8   8   8   8   8   8
#     4  11  23  45  69 103 142 186 245 299 364 426
#     4  11  25  44  72 105 142 190 247 306 368 427
#     4  11  28  43  75 108 146 198 240 312 365 436
#     4  11  28  47  74 105 151 192 251 299 368 440
#     4  12  27  48  77 109 148 197 244 306 361 440
#     4  12  29  49  75 110 151 195 247 295 373 438
#
# _framework density 25.022396000000001
#
# number of rings (size 3 to 8) (size 9 to 14) (size 15 to 20)
#    0.000    0.667    3.333    2.000   14.000    1.333 
#    0.000    0.000    0.000    0.000    0.000    0.000 
#    0.000    0.000    0.000    0.000    0.000    0.000 
#
# Total GULP energy -134439.676127 kJ/mol
# GULP energy per Si atom -5601.653172 kJ/mol
# Density = 2.496544 g / cm^3
# Si number density = 25.022396 Si / 1000 Ang^3
#
#
#
# Elastic Constant Matrix: (Units=GPa)
#
#
# Indices 1 2 3 4 5 6 
#
# 1 94.6964 2.1130 34.3461 0.0023 20.7035 0.0018
# 2 2.1130 63.7382 24.8711 0.0029 -1.6863 0.0094
# 3 34.3461 24.8711 103.8257 0.0008 24.9273 0.0010
# 4 0.0023 0.0029 0.0008 31.0902 -0.0001 -0.2114
# 5 20.7035 -1.6863 24.9273 -0.0001 49.0524 0.0012
# 6 0.0018 0.0094 0.0010 -0.2114 0.0012 31.0254
#
#
#
# Elastic Compliance Matrix: (Units=1/GPa)
#
#
# Indices 1 2 3 4 5 6 
#
# 1 0.012585 0.000870 -0.003535 -0.000001 -0.003486 -0.000001
# 2 0.000870 0.017785 -0.005247 -0.000002 0.002911 -0.000005
# 3 -0.003535 -0.005247 0.013375 0.000000 -0.005485 0.000002
# 4 -0.000001 -0.000002 0.000000 0.032166 0.000000 0.000219
# 5 -0.003486 0.002911 -0.005485 0.000000 0.024745 -0.000001
# 6 -0.000001 -0.000005 0.000002 0.000219 -0.000001 0.032233
#
#
# Mechanical properties :
#
#
# Convention : Reuss Voigt Hill
#
# Bulk Modulus (GPa) = 35.81564 42.76896 39.29230
# Shear Modulus (GPa) = 31.64194 35.62894 33.63544
#
# Velocity S-wave (km/s) = 3.55990 3.77753 3.67033
# Velocity P-wave (km/s) = 5.58943 6.01296 5.80506
#
# Compressibility (1/GPa) = 0.02792077
#
# Stress axis : x y z
#
# Youngs Moduli (GPa) = 79.46167 56.22824 74.76879
#
# Poissons Ratio (x) = -0.04891 0.26428
# Poissons Ratio (y) = -0.06912 0.39230
# Poissons Ratio (z) = 0.28087 0.29502
#
# Static dielectric constant tensor:
#      x y z
#    x 1.955740 -0.000010 -0.019270 
#    y -0.000010 2.131410 0.000000 
#    z -0.019270 0.000000 1.877830 
# 
# From -- ./inp_files/254435.got.cif
#   From: 2010.05.17/outbox.cif.g08.bks.cpg/sg15_128_cif.got.tgz:254435.got - 2010.06.03 18:47:42.
