data_PCOD9304348
_publ_section_title
;
Structure prediction by ZEFSAII (Michael W. Deem and Ramdas Pophale) SiO2 
 PCOD9304348
Probable space group: C 2/C
;
_chemical_formula_sum "Si O2"
_cell_formula_units_Z 60
_cell_length_a 15.693541
_cell_length_b 11.923004
_cell_length_c 17.200514
_cell_angle_alpha 90.000000
_cell_angle_beta 63.299197
_cell_angle_gamma 90.000000
_cell_volume 2875.259447
_symmetry_space_group_name_H-M "C 2/C"
_symmetry_group_IT_number 15
_symmetry_cell_setting 'monoclinic'
loop_
_space_group_symop_operation_xyz
x,y,z
-x,y,1/2-z
-x,-y,-z
x,-y,1/2+z
1/2+x,1/2+y,z
1/2-x,1/2+y,1/2-z
1/2-x,1/2-y,-z
1/2+x,1/2-y,1/2+z
loop_
_atom_site_type_symbol
_atom_site_label
_atom_site_fract_x
_atom_site_fract_y
_atom_site_fract_z
Si Si1 0.005975 0.171557 0.927583
Si Si2 0.500000 0.300178 0.750000
Si Si3 0.258080 0.943080 0.865113
Si Si4 0.905186 0.471094 0.090473
Si Si5 0.848918 0.660189 0.761114
Si Si6 0.961743 0.914457 0.601909
Si Si7 0.668611 0.839582 0.518254
Si Si8 0.325946 0.192302 0.204402
O O1 0.100016 0.210970 0.845293
O O2 0.927140 0.263903 0.935841
O O3 0.992273 0.039203 0.915887
O O4 0.013609 0.167137 0.018499
O O5 0.413026 0.215893 0.800620
O O6 0.471412 0.368900 0.685150
O O7 0.146468 0.921354 0.890204
O O8 0.299561 0.935272 0.934417
O O9 0.323546 0.852960 0.792728
O O10 0.283382 0.061920 0.819316
O O11 0.912476 0.394747 0.165599
O O12 0.855745 0.586719 0.138333
O O13 0.837940 0.397627 0.062406
O O14 0.000000 0.500000 0.000000
O O15 0.778696 0.758237 0.763409
O O16 0.750000 0.750000 0.500000
#
# Coordination Sequence:
#
# PCOD9304348 Si02
#       8
#     8   4   8   8   8   8   8   8
#     4  11  24  44  70  98 137 176 225 286 341 407
#     4  12  26  42  74  96 134 186 226 280 352 406
#     4  11  24  43  67  98 134 173 226 278 339 409
#     4  11  25  45  72 100 139 183 240 279 344 426
#     4  11  25  44  68  99 140 176 223 293 343 402
#     4  11  24  46  67  98 135 179 227 276 344 418
#     4  12  24  42  70 101 132 180 225 285 341 407
#     4  11  23  43  71  97 136 182 222 285 348 405
#
# _framework density 20.867681000000001
#
# number of rings (size 3 to 8) (size 9 to 14) (size 15 to 20)
#    0.000    0.800    5.333    1.600    1.867    2.667 
#    0.000    1.333    0.000    0.000    0.000    0.000 
#    0.000    0.000    0.000    0.000    0.000    0.000 
#
# Total GULP energy -167211.651307 kJ/mol
# GULP energy per Si atom -5573.721710 kJ/mol
# Density = 2.082019 g / cm^3
# Si number density = 20.867681 Si / 1000 Ang^3
#
#
#
# Elastic Constant Matrix: (Units=GPa)
#
#
# Indices 1 2 3 4 5 6 
#
# 1 55.7173 14.7617 12.6209 0.0000 15.9658 0.0000
# 2 14.7617 61.9051 17.4524 0.0000 3.1837 0.0000
# 3 12.6209 17.4524 59.3075 0.0000 7.4462 0.0000
# 4 0.0000 0.0000 0.0000 32.8834 0.0000 -8.4596
# 5 15.9658 3.1837 7.4462 0.0000 31.4954 0.0000
# 6 0.0000 0.0000 0.0000 -8.4596 0.0000 27.0023
#
#
#
# Elastic Compliance Matrix: (Units=1/GPa)
#
#
# Indices 1 2 3 4 5 6 
#
# 1 0.022578 -0.004211 -0.002249 0.000000 -0.010488 0.000000
# 2 -0.004211 0.018410 -0.004695 0.000000 0.001383 0.000000
# 3 -0.002249 -0.004695 0.019085 0.000000 -0.002898 0.000000
# 4 0.000000 0.000000 0.000000 0.033076 0.000000 0.010362
# 5 -0.010488 0.001383 -0.002898 0.000000 0.037613 0.000000
# 6 0.000000 0.000000 0.000000 0.010362 0.000000 0.040280
#
#
# Mechanical properties :
#
#
# Convention : Reuss Voigt Hill
#
# Bulk Modulus (GPa) = 26.47998 29.62220 28.05109
# Shear Modulus (GPa) = 24.27889 27.08257 25.68073
#
# Velocity S-wave (km/s) = 3.41467 3.60644 3.51186
# Velocity P-wave (km/s) = 5.31635 5.61854 5.46953
#
# Compressibility (1/GPa) = 0.03776438
#
# Stress axis : x y z
#
# Youngs Moduli (GPa) = 44.29079 54.31734 52.39631
#
# Poissons Ratio (x) = 0.22870 0.11783
# Poissons Ratio (y) = 0.18649 0.24602
# Poissons Ratio (z) = 0.09960 0.25503
#
# Static dielectric constant tensor:
#      x y z
#    x 2.149340 0.000000 0.259480 
#    y 0.000000 1.751450 0.000000 
#    z 0.259480 0.000000 1.973790 
# 
# From -- ./inp_files/204432.got.cif
#   From: 2010.05.17/outbox.cif.g08.bks.cpg/sg15_103_cif.got.tgz:204432.got - 2010.06.03 18:47:42.
