data_PCOD9304079
_publ_section_title
;
Structure prediction by ZEFSAII (Michael W. Deem and Ramdas Pophale) SiO2 
 PCOD9304079
Probable space group: C 2/C
;
_chemical_formula_sum "Si O2"
_cell_formula_units_Z 64
_cell_length_a 25.059568
_cell_length_b 14.892939
_cell_length_c 18.985629
_cell_angle_alpha 90.000000
_cell_angle_beta 21.312257
_cell_angle_gamma 90.000000
_cell_volume 2575.279034
_symmetry_space_group_name_H-M "C 2/C"
_symmetry_group_IT_number 15
_symmetry_cell_setting 'monoclinic'
loop_
_space_group_symop_operation_xyz
x,y,z
-x,y,1/2-z
-x,-y,-z
x,-y,1/2+z
1/2+x,1/2+y,z
1/2-x,1/2+y,1/2-z
1/2-x,1/2-y,-z
1/2+x,1/2-y,1/2+z
loop_
_atom_site_type_symbol
_atom_site_label
_atom_site_fract_x
_atom_site_fract_y
_atom_site_fract_z
Si Si1 0.650530 0.983012 0.455530
Si Si2 0.183486 0.470328 0.656363
Si Si3 0.586326 0.281576 0.978357
Si Si4 0.754717 0.730651 0.410875
Si Si5 0.976709 0.333809 0.358105
Si Si6 0.845027 0.050169 0.331393
Si Si7 0.666775 0.508607 0.394944
Si Si8 0.301379 0.746987 0.314518
O O1 0.609158 0.088962 0.494478
O O2 0.739850 0.980476 0.417928
O O3 0.772830 0.958528 0.248119
O O4 0.484122 0.947590 0.659155
O O5 0.266174 0.376297 0.560295
O O6 0.276082 0.535788 0.492589
O O7 0.198227 0.504525 0.717481
O O8 0.649479 0.240969 0.974709
O O9 0.630947 0.386952 0.922102
O O10 0.642480 0.243969 0.834239
O O11 0.413896 0.264081 0.191363
O O12 0.750000 0.750000 0.500000
O O13 0.874184 0.247197 0.474078
O O14 0.000000 0.369245 0.250000
O O15 0.116415 0.309168 0.231501
O O16 0.825817 0.147475 0.318852
O O17 0.014988 0.026772 0.113716
#
# Coordination Sequence:
#
# PCOD9304079 Si02
#       8
#     8   8   8   8   8   8   8   8
#     4  11  23  43  65  95 134 173 220 275 338 396
#     4  11  25  43  68  99 133 174 221 281 333 399
#     4  11  23  43  67  94 137 176 220 273 339 398
#     4  11  25  44  68 101 134 175 228 277 333 398
#     4  11  23  42  66  94 133 174 222 275 335 401
#     4  11  23  42  68  96 131 175 222 270 338 399
#     4  11  23  43  65  97 134 174 223 274 336 397
#     4  11  24  42  67  98 132 176 220 276 334 399
#
# _framework density 24.851676000000001
#
# number of rings (size 3 to 8) (size 9 to 14) (size 15 to 20)
#    0.000    1.000    2.500    5.250    1.750    7.000 
#    2.250    0.000    0.000    0.000    0.000    0.000 
#    0.000    0.000    0.000    0.000    0.000    0.000 
#
# Total GULP energy -178737.715672 kJ/mol
# GULP energy per Si atom -5585.553615 kJ/mol
# Density = 2.479511 g / cm^3
# Si number density = 24.851676 Si / 1000 Ang^3
#
#
#
# Elastic Constant Matrix: (Units=GPa)
#
#
# Indices 1 2 3 4 5 6 
#
# 1 115.2692 28.4055 25.3962 0.0004 -4.4935 -0.0002
# 2 28.4055 37.5895 16.3288 0.0001 7.8549 -0.0001
# 3 25.3962 16.3288 107.4935 0.0001 -0.4855 -0.0001
# 4 0.0004 0.0001 0.0001 25.0117 -0.0001 -6.5231
# 5 -4.4935 7.8549 -0.4855 -0.0001 45.1504 0.0001
# 6 -0.0002 -0.0001 -0.0001 -6.5231 0.0001 24.5928
#
#
#
# Elastic Compliance Matrix: (Units=1/GPa)
#
#
# Indices 1 2 3 4 5 6 
#
# 1 0.011132 -0.008358 -0.001349 0.000000 0.002547 0.000000
# 2 -0.008358 0.035935 -0.003516 0.000000 -0.007121 0.000000
# 3 -0.001349 -0.003516 0.010158 0.000000 0.000587 0.000000
# 4 0.000000 0.000000 0.000000 0.042953 0.000000 0.011393
# 5 0.002547 -0.007121 0.000587 0.000000 0.023647 0.000000
# 6 0.000000 0.000000 0.000000 0.011393 0.000000 0.043684
#
#
# Mechanical properties :
#
#
# Convention : Reuss Voigt Hill
#
# Bulk Modulus (GPa) = 32.49039 44.51258 38.50148
# Shear Modulus (GPa) = 24.48415 31.63244 28.05829
#
# Velocity S-wave (km/s) = 3.14221 3.57157 3.36375
# Velocity P-wave (km/s) = 5.12511 5.91256 5.53286
#
# Compressibility (1/GPa) = 0.03077834
#
# Stress axis : x y z
#
# Youngs Moduli (GPa) = 89.83515 27.82822 98.44159
#
# Poissons Ratio (x) = 0.23259 0.13277
# Poissons Ratio (y) = 0.75086 0.34614
# Poissons Ratio (z) = 0.12116 0.09785
#
# Static dielectric constant tensor:
#      x y z
#    x 2.039450 0.000000 -0.033180 
#    y 0.000000 2.060870 0.000000 
#    z -0.033180 0.000000 1.879520 
# 
# From -- ./inp_files/220270.got.cif
#   From: 2010.05.17/outbox.cif.g08.bks.cpg/sg15_111_cif.got.tgz:220270.got - 2010.06.03 18:47:42.
