data_PCOD9304743
_publ_section_title
;
Structure prediction by ZEFSAII (Michael W. Deem and Ramdas Pophale) SiO2 
 PCOD9304743
Probable space group: C 2/C
;
_chemical_formula_sum "Si O2"
_cell_formula_units_Z 32
_cell_length_a 22.298453
_cell_length_b 6.358057
_cell_length_c 16.915498
_cell_angle_alpha 90.000000
_cell_angle_beta 142.664070
_cell_angle_gamma 90.000000
_cell_volume 1454.472523
_symmetry_space_group_name_H-M "C 2/C"
_symmetry_group_IT_number 15
_symmetry_cell_setting 'monoclinic'
loop_
_space_group_symop_operation_xyz
x,y,z
-x,y,1/2-z
-x,-y,-z
x,-y,1/2+z
1/2+x,1/2+y,z
1/2-x,1/2+y,1/2-z
1/2-x,1/2-y,-z
1/2+x,1/2-y,1/2+z
loop_
_atom_site_type_symbol
_atom_site_label
_atom_site_fract_x
_atom_site_fract_y
_atom_site_fract_z
Si Si1 0.835991 0.805738 0.903062
Si Si2 0.299646 0.832392 0.190079
Si Si3 0.796542 0.909232 0.114543
Si Si4 0.529341 0.142669 0.194154
O O1 0.833697 0.777307 0.807183
O O2 0.749550 0.667875 0.851522
O O3 0.800682 0.036543 0.895365
O O4 0.935510 0.705897 0.043418
O O5 0.280981 0.656636 0.104313
O O6 0.389883 0.985537 0.259063
O O7 0.911523 0.859378 0.230289
O O8 0.750000 0.750000 0.000000
O O9 0.500000 0.060056 0.250000
#
# Coordination Sequence:
#
# PCOD9304743 Si02
#       4
#     8   8   8   8
#     4  11  23  46  70 104 147 185 249 295 362 431
#     4  11  25  44  77 101 144 198 232 309 360 417
#     4  11  24  46  69 103 143 187 244 297 359 432
#     4  11  25  44  68 108 145 187 249 297 357 434
#
# _framework density 22.001103000000001
#
# number of rings (size 3 to 8) (size 9 to 14) (size 15 to 20)
#    0.000    1.000    5.000    0.750    0.000    8.000 
#    0.000    0.000    0.000    0.000    0.000    0.000 
#    0.000    0.000    0.000    0.000    0.000    0.000 
#
# Total GULP energy -89222.628526 kJ/mol
# GULP energy per Si atom -5576.414283 kJ/mol
# Density = 2.195103 g / cm^3
# Si number density = 22.001103 Si / 1000 Ang^3
#
#
#
# Elastic Constant Matrix: (Units=GPa)
#
#
# Indices 1 2 3 4 5 6 
#
# 1 125.3905 57.5685 51.2990 0.0000 -12.6517 0.0000
# 2 57.5685 148.8159 53.5550 0.0000 -12.7200 0.0000
# 3 51.2990 53.5550 89.6952 0.0000 -18.8649 0.0000
# 4 0.0000 0.0000 0.0000 18.7972 0.0000 -8.7070
# 5 -12.6517 -12.7200 -18.8649 0.0000 35.5857 0.0000
# 6 0.0000 0.0000 0.0000 -8.7070 0.0000 30.3777
#
#
#
# Elastic Compliance Matrix: (Units=1/GPa)
#
#
# Indices 1 2 3 4 5 6 
#
# 1 0.011140 -0.002562 -0.004728 0.000000 0.000538 0.000000
# 2 -0.002562 0.009153 -0.003943 0.000000 0.000271 0.000000
# 3 -0.004728 -0.003943 0.017510 0.000000 0.006192 0.000000
# 4 0.000000 0.000000 0.000000 0.061344 0.000000 0.017583
# 5 0.000538 0.000271 0.006192 0.000000 0.031672 0.000000
# 6 0.000000 0.000000 0.000000 0.017583 0.000000 0.037959
#
#
# Mechanical properties :
#
#
# Convention : Reuss Voigt Hill
#
# Bulk Modulus (GPa) = 65.20502 76.52740 70.86621
# Shear Modulus (GPa) = 25.46411 30.38408 27.92409
#
# Velocity S-wave (km/s) = 3.40575 3.72025 3.56647
# Velocity P-wave (km/s) = 6.72064 7.30155 7.01711
#
# Compressibility (1/GPa) = 0.01533624
#
# Stress axis : x y z
#
# Youngs Moduli (GPa) = 89.76644 109.25629 57.11129
#
# Poissons Ratio (x) = 0.27989 0.27005
# Poissons Ratio (y) = 0.22996 0.22518
# Poissons Ratio (z) = 0.42446 0.43078
#
# Static dielectric constant tensor:
#      x y z
#    x 1.784310 0.000000 -0.026520 
#    y 0.000000 1.942920 0.000000 
#    z -0.026520 0.000000 1.835040 
# 
# From -- ./inp_files/217375.got.cif
#   From: 2010.05.17/outbox.cif.g08.bks.cpg/sg15_109_cif.got.tgz:217375.got - 2010.06.03 18:47:42.
