data_PCOD9304808
_publ_section_title
;
Structure prediction by ZEFSAII (Michael W. Deem and Ramdas Pophale) SiO2 
 PCOD9304808
Probable space group: C 2/C
;
_chemical_formula_sum "Si O2"
_cell_formula_units_Z 40
_cell_length_a 11.193856
_cell_length_b 10.074936
_cell_length_c 14.985200
_cell_angle_alpha 90.000000
_cell_angle_beta 91.831812
_cell_angle_gamma 90.000000
_cell_volume 1689.127994
_symmetry_space_group_name_H-M "C 2/C"
_symmetry_group_IT_number 15
_symmetry_cell_setting 'monoclinic'
loop_
_space_group_symop_operation_xyz
x,y,z
-x,y,1/2-z
-x,-y,-z
x,-y,1/2+z
1/2+x,1/2+y,z
1/2-x,1/2+y,1/2-z
1/2-x,1/2-y,-z
1/2+x,1/2-y,1/2+z
loop_
_atom_site_type_symbol
_atom_site_label
_atom_site_fract_x
_atom_site_fract_y
_atom_site_fract_z
Si Si1 0.846355 0.864912 0.985726
Si Si2 0.808522 0.606140 0.499147
Si Si3 0.379175 0.501190 0.799374
Si Si4 0.115762 0.495943 0.805996
Si Si5 0.979170 0.734642 0.379815
O O1 0.790118 0.997259 0.025638
O O2 0.870660 0.904216 0.884552
O O3 0.750000 0.750000 0.000000
O O4 0.962793 0.817849 0.038895
O O5 0.750000 0.750000 0.500000
O O6 0.861033 0.566986 0.597757
O O7 0.905913 0.616743 0.424296
O O8 0.500000 0.464611 0.750000
O O9 0.243549 0.498467 0.758423
O O10 0.402084 0.654680 0.828074
O O11 0.000000 0.549224 0.750000
O O12 0.080875 0.342888 0.827583
#
# Coordination Sequence:
#
# PCOD9304808 Si02
#       5
#     8   8   8   8   8
#     4  11  23  46  80 113 149 204 271 321 385 477
#     4  11  23  46  80 113 149 204 271 321 385 477
#     4  11  25  48  76 114 159 208 259 329 405 464
#     4  11  25  48  76 114 159 208 259 329 405 464
#     4  12  23  48  79 108 152 206 266 324 383 482
#
# _framework density 23.680857
#
# number of rings (size 3 to 8) (size 9 to 14) (size 15 to 20)
#    0.000    0.800    8.000    1.800    0.000    1.600 
#    0.000    1.000    0.000    0.000    0.000    0.000 
#    0.000    0.000    0.000    0.000    0.000    0.000 
#
# Total GULP energy -111828.397752 kJ/mol
# GULP energy per Si atom -5591.419888 kJ/mol
# Density = 2.362696 g / cm^3
# Si number density = 23.680857 Si / 1000 Ang^3
#
#
#
# Elastic Constant Matrix: (Units=GPa)
#
#
# Indices 1 2 3 4 5 6 
#
# 1 178.8375 29.7307 57.1926 0.0000 -21.5426 0.0000
# 2 29.7307 111.1574 29.3457 0.0000 -13.0266 0.0000
# 3 57.1926 29.3457 80.8444 0.0000 -10.1191 0.0000
# 4 0.0000 0.0000 0.0000 31.1276 0.0000 3.1091
# 5 -21.5426 -13.0266 -10.1191 0.0000 51.8929 0.0000
# 6 0.0000 0.0000 0.0000 3.1091 0.0000 53.0840
#
#
#
# Elastic Compliance Matrix: (Units=1/GPa)
#
#
# Indices 1 2 3 4 5 6 
#
# 1 0.007469 -0.000477 -0.004856 0.000000 0.002034 0.000000
# 2 -0.000477 0.010154 -0.003130 0.000000 0.001740 0.000000
# 3 -0.004856 -0.003130 0.017005 0.000000 0.000514 0.000000
# 4 0.000000 0.000000 0.000000 0.032315 0.000000 -0.001893
# 5 0.002034 0.001740 0.000514 0.000000 0.020652 0.000000
# 6 0.000000 0.000000 0.000000 -0.001893 0.000000 0.018949
#
#
# Mechanical properties :
#
#
# Convention : Reuss Voigt Hill
#
# Bulk Modulus (GPa) = 56.49304 67.04193 61.76748
# Shear Modulus (GPa) = 38.64810 44.19225 41.42018
#
# Velocity S-wave (km/s) = 4.04423 4.32459 4.18676
# Velocity P-wave (km/s) = 6.76133 7.30125 7.03647
#
# Compressibility (1/GPa) = 0.01770130
#
# Stress axis : x y z
#
# Youngs Moduli (GPa) = 133.88690 98.48030 58.80460
#
# Poissons Ratio (x) = 0.04701 0.28556
# Poissons Ratio (y) = 0.06391 0.18408
# Poissons Ratio (z) = 0.65016 0.30828
#
# Static dielectric constant tensor:
#      x y z
#    x 2.045210 0.000000 0.164670 
#    y 0.000000 1.834760 0.000000 
#    z 0.164670 0.000000 2.515020 
# 
# From -- ./inp_files/195189.got.cif
#   From: 2010.05.17/outbox.cif.g08.bks.cpg/sg15_98_cif.got.tgz:195189.got - 2010.06.03 18:47:42.
