data_PCOD9304484
_publ_section_title
;
Structure prediction by ZEFSAII (Michael W. Deem and Ramdas Pophale) SiO2 
 PCOD9304484
Probable space group: C 2/C
;
_chemical_formula_sum "Si O2"
_cell_formula_units_Z 56
_cell_length_a 19.465952
_cell_length_b 15.160096
_cell_length_c 16.642813
_cell_angle_alpha 90.000000
_cell_angle_beta 29.023019
_cell_angle_gamma 90.000000
_cell_volume 2382.814231
_symmetry_space_group_name_H-M "C 2/C"
_symmetry_group_IT_number 15
_symmetry_cell_setting 'monoclinic'
loop_
_space_group_symop_operation_xyz
x,y,z
-x,y,1/2-z
-x,-y,-z
x,-y,1/2+z
1/2+x,1/2+y,z
1/2-x,1/2+y,1/2-z
1/2-x,1/2-y,-z
1/2+x,1/2-y,1/2+z
loop_
_atom_site_type_symbol
_atom_site_label
_atom_site_fract_x
_atom_site_fract_y
_atom_site_fract_z
Si Si1 0.167719 0.988086 0.088498
Si Si2 0.435477 0.008992 0.227973
Si Si3 0.032681 0.680505 0.053972
Si Si4 0.867020 0.338296 0.218484
Si Si5 0.340957 0.682743 0.793232
Si Si6 0.431895 0.593459 0.543189
Si Si7 0.108639 0.832425 0.712447
O O1 0.181535 0.899321 0.125667
O O2 0.000000 0.996568 0.250000
O O3 0.206710 0.084773 0.084799
O O4 0.266580 0.975268 0.910555
O O5 0.500000 0.022937 0.250000
O O6 0.507984 0.077000 0.094028
O O7 0.452077 0.909662 0.182321
O O8 0.925298 0.728640 0.225002
O O9 0.033255 0.692491 0.957148
O O10 0.187421 0.710315 0.921476
O O11 0.731499 0.389320 0.318168
O O12 0.823410 0.256655 0.320529
O O13 0.434349 0.646790 0.623808
O O14 0.500000 0.500000 0.500000
O O15 0.521415 0.628265 0.376830
O O16 0.000000 0.811732 0.750000
#
# Coordination Sequence:
#
# PCOD9304484 Si02
#       7
#     8   8   8   8   8   8   8
#     4  11  25  44  73 105 144 193 242 297 366 435
#     4  12  26  47  68 103 148 186 238 303 363 430
#     4  11  26  46  70 106 140 188 244 296 368 433
#     4  11  25  45  72 108 145 192 238 299 372 436
#     4  11  24  46  72 104 140 189 244 298 365 430
#     4  11  23  44  70 104 148 190 241 296 358 437
#     4  11  23  44  72 110 144 187 247 299 366 436
#
# _framework density 23.501624
#
# number of rings (size 3 to 8) (size 9 to 14) (size 15 to 20)
#    0.000    0.857    4.286    2.571    2.000    4.571 
#    0.000    0.000    0.000    0.000    0.000    0.000 
#    0.000    0.000    0.000    0.000    0.000    0.000 
#
# Total GULP energy -156306.438199 kJ/mol
# GULP energy per Si atom -5582.372793 kJ/mol
# Density = 2.344813 g / cm^3
# Si number density = 23.501624 Si / 1000 Ang^3
#
#
#
# Elastic Constant Matrix: (Units=GPa)
#
#
# Indices 1 2 3 4 5 6 
#
# 1 53.7005 25.9070 0.1859 0.0000 8.2576 0.0002
# 2 25.9070 102.0825 14.7695 0.0000 2.4176 0.0006
# 3 0.1859 14.7695 76.1909 0.0000 -6.1195 0.0005
# 4 0.0000 0.0000 0.0000 27.3091 0.0000 1.8429
# 5 8.2576 2.4176 -6.1195 0.0000 24.6180 -0.0003
# 6 0.0002 0.0006 0.0005 1.8429 -0.0003 9.5160
#
#
#
# Elastic Compliance Matrix: (Units=1/GPa)
#
#
# Indices 1 2 3 4 5 6 
#
# 1 0.022365 -0.005583 0.000479 0.000000 -0.006834 0.000000
# 2 -0.005583 0.011527 -0.002206 0.000000 0.000192 -0.000001
# 3 0.000479 -0.002206 0.013832 0.000000 0.003494 0.000000
# 4 0.000000 0.000000 0.000000 0.037103 0.000000 -0.007186
# 5 -0.006834 0.000192 0.003494 0.000000 0.043763 0.000002
# 6 0.000000 -0.000001 0.000000 -0.007186 0.000002 0.106478
#
#
# Mechanical properties :
#
#
# Convention : Reuss Voigt Hill
#
# Bulk Modulus (GPa) = 30.20763 34.85542 32.53152
# Shear Modulus (GPa) = 19.17751 25.02937 22.10344
#
# Velocity S-wave (km/s) = 2.85968 3.26698 3.07010
# Velocity P-wave (km/s) = 4.87699 5.39390 5.14195
#
# Compressibility (1/GPa) = 0.03310422
#
# Stress axis : x y z
#
# Youngs Moduli (GPa) = 44.71344 86.74926 72.29640
#
# Poissons Ratio (x) = 0.48434 -0.03462
# Poissons Ratio (y) = 0.24965 0.15945
# Poissons Ratio (z) = -0.02141 0.19133
#
# Static dielectric constant tensor:
#      x y z
#    x 1.934280 0.000000 -0.043350 
#    y 0.000000 2.040490 0.000000 
#    z -0.043350 0.000000 1.893600 
# 
# From -- ./inp_files/215703.got.cif
#   From: 2010.05.17/outbox.cif.g08.bks.cpg/sg15_108_cif.got.tgz:215703.got - 2010.06.03 18:47:42.
