data_PCOD9304265
_publ_section_title
;
Structure prediction by ZEFSAII (Michael W. Deem and Ramdas Pophale) SiO2 
 PCOD9304265
Probable space group: C 2/C
;
_chemical_formula_sum "Si O2"
_cell_formula_units_Z 56
_cell_length_a 19.723857
_cell_length_b 14.755865
_cell_length_c 16.571883
_cell_angle_alpha 90.000000
_cell_angle_beta 148.885387
_cell_angle_gamma 90.000000
_cell_volume 2492.357229
_symmetry_space_group_name_H-M "C 2/C"
_symmetry_group_IT_number 15
_symmetry_cell_setting 'monoclinic'
loop_
_space_group_symop_operation_xyz
x,y,z
-x,y,1/2-z
-x,-y,-z
x,-y,1/2+z
1/2+x,1/2+y,z
1/2-x,1/2+y,1/2-z
1/2-x,1/2-y,-z
1/2+x,1/2-y,1/2+z
loop_
_atom_site_type_symbol
_atom_site_label
_atom_site_fract_x
_atom_site_fract_y
_atom_site_fract_z
Si Si1 0.821906 0.255246 0.775634
Si Si2 0.613028 0.521897 0.179052
Si Si3 0.877761 0.129016 0.682154
Si Si4 0.078878 0.229653 0.132046
Si Si5 0.645784 0.979823 0.869022
Si Si6 0.360550 0.030142 0.325022
Si Si7 0.138868 0.316478 0.356902
O O1 0.845980 0.206811 0.714951
O O2 0.672199 0.244975 0.651895
O O3 0.849580 0.361741 0.805987
O O4 0.928956 0.221197 0.950024
O O5 0.586356 0.459751 0.228537
O O6 0.616583 0.628864 0.200084
O O7 0.749370 0.496960 0.273711
O O8 0.500000 0.500000 0.000000
O O9 0.000000 0.153577 0.750000
O O10 0.750713 0.094617 0.503552
O O11 0.114256 0.302296 0.236405
O O12 0.500000 0.953273 0.750000
O O13 0.666994 0.083107 0.920763
O O14 0.656146 0.996967 0.784378
O O15 0.500000 0.000000 0.500000
O O16 0.250000 0.250000 0.500000
O O17 0.000000 0.286375 0.250000
#
# Coordination Sequence:
#
# PCOD9304265 Si02
#       7
#     8   8   8   8   8   8   8
#     4  11  27  43  70 105 138 185 240 289 354 424
#     4  11  23  43  68 100 137 182 236 285 348 422
#     4  12  27  46  70 105 148 189 237 293 361 432
#     4  11  24  44  70 104 141 184 242 295 354 428
#     4  11  26  44  67 102 142 186 232 289 357 426
#     4  11  25  45  72  98 132 184 238 287 345 419
#     4  11  24  42  69 105 142 180 237 301 363 423
#
# _framework density 22.468689999999999
#
# number of rings (size 3 to 8) (size 9 to 14) (size 15 to 20)
#    0.000    0.857    1.429    4.286    8.000   10.286 
#    0.000    0.000    0.000    0.000    0.000    0.000 
#    0.000    0.000    0.000    0.000    0.000    0.000 
#
# Total GULP energy -156648.144734 kJ/mol
# GULP energy per Si atom -5594.576598 kJ/mol
# Density = 2.241755 g / cm^3
# Si number density = 22.468690 Si / 1000 Ang^3
#
#
#
# Elastic Constant Matrix: (Units=GPa)
#
#
# Indices 1 2 3 4 5 6 
#
# 1 71.3490 21.3703 -8.1844 0.0000 3.1054 0.0000
# 2 21.3703 58.1124 8.2012 0.0000 5.9208 0.0000
# 3 -8.1844 8.2012 86.8341 0.0000 2.7580 0.0000
# 4 0.0000 0.0000 0.0000 -77.1204 0.0000 2.1846
# 5 3.1054 5.9208 2.7580 0.0000 38.8656 0.0000
# 6 0.0000 0.0000 0.0000 2.1846 0.0000 42.3633
#
#
#
# Elastic Compliance Matrix: (Units=1/GPa)
#
#
# Indices 1 2 3 4 5 6 
#
# 1 0.016132 -0.006181 0.002120 0.000000 -0.000498 0.000000
# 2 -0.006181 0.020064 -0.002402 0.000000 -0.002392 0.000000
# 3 0.002120 -0.002402 0.011964 0.000000 -0.000652 0.000000
# 4 0.000000 0.000000 0.000000 -0.012948 0.000000 0.000668
# 5 -0.000498 -0.002392 -0.000652 0.000000 0.026180 0.000000
# 6 0.000000 0.000000 0.000000 0.000668 0.000000 0.023571
#
#
# Mechanical properties :
#
#
# Convention : Reuss Voigt Hill
#
# Bulk Modulus (GPa) = 28.38135 28.78551 28.58343
# Shear Modulus (GPa) = 45.60735 13.81559 29.71147
#
# Velocity S-wave (km/s) = 4.51024 2.48237 3.64036
# Velocity P-wave (km/s) = 6.30729 4.58862 5.51531
#
# Compressibility (1/GPa) = 0.03523440
#
# Stress axis : x y z
#
# Youngs Moduli (GPa) = 61.98975 49.84151 83.58708
#
# Poissons Ratio (x) = 0.30806 -0.17721
# Poissons Ratio (y) = 0.38314 0.20074
# Poissons Ratio (z) = -0.13142 0.11970
#
# Static dielectric constant tensor:
#      x y z
#    x 1.771660 0.000000 -0.007540 
#    y 0.000000 1.890790 0.000000 
#    z -0.007540 0.000000 1.821850 
# 
# From -- ./inp_files/215781.got.cif
#   From: 2010.05.17/outbox.cif.g08.bks.cpg/sg15_108_cif.got.tgz:215781.got - 2010.06.03 18:47:42.
