data_PCOD9304391
_publ_section_title
;
Structure prediction by ZEFSAII (Michael W. Deem and Ramdas Pophale) SiO2 
 PCOD9304391
Probable space group: C 2/C
;
_chemical_formula_sum "Si O2"
_cell_formula_units_Z 44
_cell_length_a 5.298751
_cell_length_b 23.792562
_cell_length_c 16.521003
_cell_angle_alpha 90.000000
_cell_angle_beta 99.342328
_cell_angle_gamma 90.000000
_cell_volume 2055.190724
_symmetry_space_group_name_H-M "C 2/C"
_symmetry_group_IT_number 15
_symmetry_cell_setting 'monoclinic'
loop_
_space_group_symop_operation_xyz
x,y,z
-x,y,1/2-z
-x,-y,-z
x,-y,1/2+z
1/2+x,1/2+y,z
1/2-x,1/2+y,1/2-z
1/2-x,1/2-y,-z
1/2+x,1/2-y,1/2+z
loop_
_atom_site_type_symbol
_atom_site_label
_atom_site_fract_x
_atom_site_fract_y
_atom_site_fract_z
Si Si1 0.831313 0.343772 0.541967
Si Si2 0.702637 0.065796 0.334958
Si Si3 0.592735 0.238599 0.171578
Si Si4 0.222483 0.060626 0.693916
Si Si5 0.000000 0.851777 0.750000
Si Si6 0.276146 0.338768 0.433533
O O1 0.891059 0.403150 0.589527
O O2 0.878633 0.293070 0.607811
O O3 0.273376 0.311480 0.711201
O O4 0.542161 0.339774 0.496284
O O5 0.500000 0.068230 0.250000
O O6 0.928887 0.106746 0.318572
O O7 0.790483 0.001781 0.345533
O O8 0.500000 0.267016 0.250000
O O9 0.729471 0.283228 0.122079
O O10 0.533246 0.161606 0.979736
O O11 0.500000 0.065004 0.750000
O O12 0.211765 0.107933 0.625244
O O13 0.000000 0.065996 0.750000
#
# Coordination Sequence:
#
# PCOD9304391 Si02
#       6
#     8   8   8   8   4   8
#     4  12  25  46  67 103 146 176 223 282 348 404
#     4  11  23  43  73  99 132 179 241 283 325 397
#     4  12  26  42  73  99 133 186 235 281 328 408
#     4  11  25  46  73  99 136 182 234 282 329 407
#     4  12  20  42  72 100 126 170 240 290 318 384
#     4  12  29  44  67 104 147 179 216 280 361 411
#
# _framework density 21.409206000000001
#
# number of rings (size 3 to 8) (size 9 to 14) (size 15 to 20)
#    0.000    0.364    4.545    3.818    3.818    1.455 
#    0.000    0.000    0.000    0.000    0.000    0.000 
#    0.000    0.000    0.000    0.000    0.000    0.000 
#
# Total GULP energy -123153.660778 kJ/mol
# GULP energy per Si atom -5597.893672 kJ/mol
# Density = 2.136048 g / cm^3
# Si number density = 21.409206 Si / 1000 Ang^3
#
#
#
# Elastic Constant Matrix: (Units=GPa)
#
#
# Indices 1 2 3 4 5 6 
#
# 1 74.4333 -3.8618 16.0645 0.0000 -10.1572 0.0000
# 2 -3.8618 105.0750 38.9213 0.0000 -9.6238 0.0000
# 3 16.0645 38.9213 87.7736 0.0000 -22.1032 0.0000
# 4 0.0000 0.0000 0.0000 23.3528 0.0000 -13.1153
# 5 -10.1572 -9.6238 -22.1032 0.0000 28.0692 0.0000
# 6 0.0000 0.0000 0.0000 -13.1153 0.0000 21.2351
#
#
#
# Elastic Compliance Matrix: (Units=1/GPa)
#
#
# Indices 1 2 3 4 5 6 
#
# 1 0.014605 0.001819 -0.002484 0.000000 0.003952 0.000000
# 2 0.001819 0.011614 -0.005382 0.000000 0.000403 0.000000
# 3 -0.002484 -0.005382 0.016893 0.000000 0.010558 0.000000
# 4 0.000000 0.000000 0.000000 0.065563 0.000000 0.040493
# 5 0.003952 0.000403 0.010558 0.000000 0.045508 0.000000
# 6 0.000000 0.000000 0.000000 0.040493 0.000000 0.072101
#
#
# Mechanical properties :
#
#
# Convention : Reuss Voigt Hill
#
# Bulk Modulus (GPa) = 32.23961 41.05887 36.64924
# Shear Modulus (GPa) = 20.10315 28.94195 24.52255
#
# Velocity S-wave (km/s) = 3.06763 3.68073 3.38808
# Velocity P-wave (km/s) = 5.25724 6.10602 5.69746
#
# Compressibility (1/GPa) = 0.03101775
#
# Stress axis : x y z
#
# Youngs Moduli (GPa) = 68.47105 86.10183 59.19706
#
# Poissons Ratio (x) = -0.15662 0.14706
# Poissons Ratio (y) = -0.12455 0.31857
# Poissons Ratio (z) = 0.17010 0.46337
#
# Static dielectric constant tensor:
#      x y z
#    x 1.807110 0.000000 -0.020770 
#    y 0.000000 1.746360 0.000000 
#    z -0.020770 0.000000 1.812210 
# 
# From -- ./inp_files/129468.got.cif
#   From: 2010.05.17/outbox.cif.g08.bks.cpg/sg15_65_cif.got.tgz:129468.got - 2010.06.03 18:47:42.
