data_PCOD9304037
_publ_section_title
;
Structure prediction by ZEFSAII (Michael W. Deem and Ramdas Pophale) SiO2 
 PCOD9304037
Probable space group: C 2/C
;
_chemical_formula_sum "Si O2"
_cell_formula_units_Z 52
_cell_length_a 23.806257
_cell_length_b 8.708344
_cell_length_c 20.210225
_cell_angle_alpha 90.000000
_cell_angle_beta 36.089562
_cell_angle_gamma 90.000000
_cell_volume 2468.023987
_symmetry_space_group_name_H-M "C 2/C"
_symmetry_group_IT_number 15
_symmetry_cell_setting 'monoclinic'
loop_
_space_group_symop_operation_xyz
x,y,z
-x,y,1/2-z
-x,-y,-z
x,-y,1/2+z
1/2+x,1/2+y,z
1/2-x,1/2+y,1/2-z
1/2-x,1/2-y,-z
1/2+x,1/2-y,1/2+z
loop_
_atom_site_type_symbol
_atom_site_label
_atom_site_fract_x
_atom_site_fract_y
_atom_site_fract_z
Si Si1 0.366189 0.094314 0.844530
Si Si2 0.496184 0.736075 0.119812
Si Si3 0.016962 0.116717 0.859737
Si Si4 0.631239 0.296331 0.886392
Si Si5 0.000000 0.673639 0.250000
Si Si6 0.780151 0.955854 0.288943
Si Si7 0.200762 0.722921 0.452658
O O1 0.453099 0.156859 0.717582
O O2 0.271184 0.130972 0.891546
O O3 0.404704 0.929465 0.830588
O O4 0.342207 0.188517 0.933862
O O5 0.487889 0.562477 0.153450
O O6 0.431346 0.755404 0.117074
O O7 0.606806 0.759621 0.997909
O O8 0.991949 0.222741 0.822310
O O9 0.124982 0.138436 0.782321
O O10 0.942425 0.145432 0.988979
O O11 0.695248 0.159387 0.853482
O O12 0.694726 0.435845 0.797444
O O13 0.756394 0.075701 0.370895
#
# Coordination Sequence:
#
# PCOD9304037 Si02
#       7
#     8   8   8   8   4   8   8
#     4  11  23  43  68 104 135 178 238 284 342 422
#     4  11  23  44  73  97 141 189 231 284 358 413
#     4  11  27  46  68 101 149 182 223 301 356 406
#     4  11  26  45  71 103 144 183 236 286 353 416
#     4  12  26  44  70 104 140 178 236 288 348 422
#     4  11  25  47  69 107 137 189 234 290 350 417
#     4  11  23  41  74  98 136 181 241 286 343 421
#
# _framework density 21.069488
#
# number of rings (size 3 to 8) (size 9 to 14) (size 15 to 20)
#    0.000    0.923    4.615    2.769    6.462    3.077 
#    0.000    2.308    0.000    0.000    0.000    0.000 
#    0.000    0.000    0.000    0.000    0.000    0.000 
#
# Total GULP energy -145285.533441 kJ/mol
# GULP energy per Si atom -5587.905132 kJ/mol
# Density = 2.102153 g / cm^3
# Si number density = 21.069488 Si / 1000 Ang^3
#
#
#
# Elastic Constant Matrix: (Units=GPa)
#
#
# Indices 1 2 3 4 5 6 
#
# 1 35.6462 47.0363 14.4623 0.0000 -4.6976 0.0004
# 2 47.0363 42.8517 10.3130 0.0019 -6.3634 0.0002
# 3 14.4623 10.3130 67.6031 0.0007 -19.0332 0.0000
# 4 0.0000 0.0019 0.0007 13.3904 -0.0004 -15.3956
# 5 -4.6976 -6.3634 -19.0332 -0.0004 37.9016 0.0001
# 6 0.0004 0.0002 0.0000 -15.3956 0.0001 43.7576
#
#
#
# Elastic Compliance Matrix: (Units=1/GPa)
#
#
# Indices 1 2 3 4 5 6 
#
# 1 -0.060830 0.066559 0.004523 -0.000015 0.005907 -0.000005
# 2 0.066559 -0.048384 -0.007946 0.000011 -0.003864 0.000004
# 3 0.004523 -0.007946 0.017259 0.000001 0.007894 0.000000
# 4 -0.000015 0.000011 0.000001 0.125414 0.000002 0.044126
# 5 0.005907 -0.003864 0.007894 0.000002 0.030431 0.000001
# 6 -0.000005 0.000004 0.000000 0.044126 0.000001 0.038378
#
#
# Mechanical properties :
#
#
# Convention : Reuss Voigt Hill
#
# Bulk Modulus (GPa) = 29.14020 32.19159 30.66590
# Shear Modulus (GPa) = -397.92956 23.96253 -186.98351
#
# Velocity S-wave (km/s) = -13.75774 3.37606 -9.43074
# Velocity P-wave (km/s) = 15.44366 5.52349 10.19798
#
# Compressibility (1/GPa) = 0.03431685
#
# Stress axis : x y z
#
# Youngs Moduli (GPa) = -16.43917 -20.66785 57.93996
#
# Poissons Ratio (x) = 1.37564 -0.26204
# Poissons Ratio (y) = 1.09418 0.46038
# Poissons Ratio (z) = 0.07435 -0.16422
#
# Static dielectric constant tensor:
#      x y z
#    x 1.806790 0.000000 -0.033340 
#    y 0.000000 1.739040 0.000000 
#    z -0.033340 0.000000 1.749690 
# 
# From -- ./inp_files/283293.got.cif
#   From: 2010.05.17/outbox.cif.g08.bks.cpg/sg15_142_cif.got.tgz:283293.got - 2010.06.03 18:47:42.
