data_PCOD9304754
_publ_section_title
;
Structure prediction by ZEFSAII (Michael W. Deem and Ramdas Pophale) SiO2 
 PCOD9304754
Probable space group: C 2/C
;
_chemical_formula_sum "Si O2"
_cell_formula_units_Z 44
_cell_length_a 9.408349
_cell_length_b 28.086468
_cell_length_c 7.831045
_cell_angle_alpha 90.000000
_cell_angle_beta 109.281574
_cell_angle_gamma 90.000000
_cell_volume 1953.257781
_symmetry_space_group_name_H-M "C 2/C"
_symmetry_group_IT_number 15
_symmetry_cell_setting 'monoclinic'
loop_
_space_group_symop_operation_xyz
x,y,z
-x,y,1/2-z
-x,-y,-z
x,-y,1/2+z
1/2+x,1/2+y,z
1/2-x,1/2+y,1/2-z
1/2-x,1/2-y,-z
1/2+x,1/2-y,1/2+z
loop_
_atom_site_type_symbol
_atom_site_label
_atom_site_fract_x
_atom_site_fract_y
_atom_site_fract_z
Si Si1 0.169448 0.058798 0.768543
Si Si2 0.729441 0.614508 0.237772
Si Si3 0.572075 0.749366 0.466562
Si Si4 0.916342 0.141833 0.970684
Si Si5 0.000000 0.680910 0.250000
Si Si6 0.827538 0.480507 0.654017
O O1 0.163272 0.114061 0.713757
O O2 0.000000 0.044573 0.750000
O O3 0.222049 0.025962 0.633502
O O4 0.287756 0.045579 0.961817
O O5 0.688836 0.636661 0.404740
O O6 0.787764 0.560786 0.274380
O O7 0.853570 0.647062 0.195472
O O8 0.571534 0.614411 0.074125
O O9 0.500000 0.755099 0.250000
O O10 0.750000 0.750000 0.500000
O O11 0.541206 0.696707 0.529416
O O12 0.515526 0.786856 0.585498
O O13 0.000000 0.493628 0.750000
#
# Coordination Sequence:
#
# PCOD9304754 Si02
#       6
#     8   8   8   8   4   8
#     4  12  26  44  73 106 137 198 248 297 369 456
#     4  11  23  46  71 103 148 191 238 312 365 444
#     4  12  26  49  76 113 154 199 252 314 375 450
#     4  11  24  46  69 103 148 188 248 304 364 442
#     4  12  26  46  78 114 154 200 252 310 390 438
#     4  12  26  46  70 104 147 186 244 309 379 435
#
# _framework density 22.526468999999999
#
# number of rings (size 3 to 8) (size 9 to 14) (size 15 to 20)
#    0.000    0.364    6.364    2.182    3.818    4.364 
#    0.000    0.909    0.000    0.000    0.000    0.000 
#    0.000    0.000    0.000    0.000    0.000    0.000 
#
# Total GULP energy -123099.794385 kJ/mol
# GULP energy per Si atom -5595.445199 kJ/mol
# Density = 2.247520 g / cm^3
# Si number density = 22.526469 Si / 1000 Ang^3
#
#
#
# Elastic Constant Matrix: (Units=GPa)
#
#
# Indices 1 2 3 4 5 6 
#
# 1 141.6569 31.2361 37.1248 0.0000 1.3078 0.0000
# 2 31.2361 82.5472 20.5412 0.0000 -13.8504 0.0000
# 3 37.1248 20.5412 130.3981 0.0000 -4.6692 0.0000
# 4 0.0000 0.0000 0.0000 27.3238 0.0000 -6.0005
# 5 1.3078 -13.8504 -4.6692 0.0000 30.6463 0.0000
# 6 0.0000 0.0000 0.0000 -6.0005 0.0000 35.8013
#
#
#
# Elastic Compliance Matrix: (Units=1/GPa)
#
#
# Indices 1 2 3 4 5 6 
#
# 1 0.008243 -0.002968 -0.001951 0.000000 -0.001990 0.000000
# 2 -0.002968 0.014643 -0.001227 0.000000 0.006557 0.000000
# 3 -0.001951 -0.001227 0.008447 0.000000 0.000816 0.000000
# 4 0.000000 0.000000 0.000000 0.037997 0.000000 0.006368
# 5 -0.001990 0.006557 0.000816 0.000000 0.035803 0.000000
# 6 0.000000 0.000000 0.000000 0.006368 0.000000 0.028999
#
#
# Mechanical properties :
#
#
# Convention : Reuss Voigt Hill
#
# Bulk Modulus (GPa) = 52.51521 59.15627 55.83574
# Shear Modulus (GPa) = 32.72890 36.46763 34.59827
#
# Velocity S-wave (km/s) = 3.81584 4.02789 3.92330
# Velocity P-wave (km/s) = 6.54045 6.92457 6.73525
#
# Compressibility (1/GPa) = 0.01904210
#
# Stress axis : x y z
#
# Youngs Moduli (GPa) = 121.31021 68.29257 118.39001
#
# Poissons Ratio (x) = 0.20268 0.23094
# Poissons Ratio (y) = 0.36003 0.14525
# Poissons Ratio (z) = 0.23663 0.08379
#
# Static dielectric constant tensor:
#      x y z
#    x 1.912340 0.000000 -0.221640 
#    y 0.000000 1.881790 0.000000 
#    z -0.221640 0.000000 2.193550 
# 
# From -- ./inp_files/25715.got.cif
#   From: 2010.05.17/outbox.cif.g08.bks.cpg/sg15_13_cif.got.tgz:25715.got - 2010.06.03 18:47:42.
