data_PCOD9304561
_publ_section_title
;
Structure prediction by ZEFSAII (Michael W. Deem and Ramdas Pophale) SiO2 
 PCOD9304561
Probable space group: C 2/C
;
_chemical_formula_sum "Si O2"
_cell_formula_units_Z 56
_cell_length_a 5.982510
_cell_length_b 16.112933
_cell_length_c 26.500513
_cell_angle_alpha 90.000000
_cell_angle_beta 104.508068
_cell_angle_gamma 90.000000
_cell_volume 2473.079553
_symmetry_space_group_name_H-M "C 2/C"
_symmetry_group_IT_number 15
_symmetry_cell_setting 'monoclinic'
loop_
_space_group_symop_operation_xyz
x,y,z
-x,y,1/2-z
-x,-y,-z
x,-y,1/2+z
1/2+x,1/2+y,z
1/2-x,1/2+y,1/2-z
1/2-x,1/2-y,-z
1/2+x,1/2-y,1/2+z
loop_
_atom_site_type_symbol
_atom_site_label
_atom_site_fract_x
_atom_site_fract_y
_atom_site_fract_z
Si Si1 0.033455 0.368645 0.848223
Si Si2 0.197995 0.009579 0.364300
Si Si3 0.559676 0.118682 0.922640
Si Si4 0.853864 0.934983 0.523882
Si Si5 0.500000 0.161632 0.750000
Si Si6 0.239515 0.448551 0.344997
Si Si7 0.679179 0.720223 0.051568
Si Si8 0.000000 0.748511 0.250000
O O1 0.778850 0.408243 0.840128
O O2 0.181681 0.453497 0.850401
O O3 0.119298 0.321832 0.903564
O O4 0.049694 0.308749 0.801747
O O5 0.160722 0.035863 0.420040
O O6 0.401214 0.943579 0.382340
O O7 0.984147 0.959623 0.330851
O O8 0.780098 0.107968 0.898040
O O9 0.438521 0.205577 0.923643
O O10 0.617871 0.081429 0.980501
O O11 0.985615 0.848440 0.531747
O O12 0.000000 0.000000 0.500000
O O13 0.429351 0.102079 0.700132
O O14 0.253326 0.207716 0.751190
O O15 0.750000 0.750000 0.000000
#
# Coordination Sequence:
#
# PCOD9304561 Si02
#       8
#     8   8   8   8   4   8   8   4
#     4  11  26  49  74 108 147 198 261 311 401 467
#     4  11  23  44  75 102 143 197 248 312 369 470
#     4  11  24  40  68 102 146 191 248 307 380 448
#     4  12  21  42  66 102 147 198 254 300 381 461
#     4  12  31  50  81 114 152 194 260 324 415 452
#     4  11  25  49  75 105 145 199 252 317 378 480
#     4  12  25  41  67 107 150 197 246 320 386 460
#     4  12  31  54  83 118 152 202 252 346 397 482
#
# _framework density 22.643832
#
# number of rings (size 3 to 8) (size 9 to 14) (size 15 to 20)
#    0.000    0.571    2.857    4.714    8.000    1.143 
#    0.000    0.000    0.000    0.000    0.000    0.000 
#    0.000    0.000    0.000    0.000    0.000    0.000 
#
# Total GULP energy -156265.741373 kJ/mol
# GULP energy per Si atom -5580.919335 kJ/mol
# Density = 2.259229 g / cm^3
# Si number density = 22.643832 Si / 1000 Ang^3
#
#
#
# Elastic Constant Matrix: (Units=GPa)
#
#
# Indices 1 2 3 4 5 6 
#
# 1 72.7711 45.6491 30.9066 0.0000 -4.7226 0.0000
# 2 45.6491 132.2984 54.7996 0.0000 -4.5862 0.0000
# 3 30.9066 54.7996 121.3724 0.0000 -8.8562 0.0000
# 4 0.0000 0.0000 0.0000 42.8630 0.0000 -7.0443
# 5 -4.7226 -4.5862 -8.8562 0.0000 34.9942 0.0000
# 6 0.0000 0.0000 0.0000 -7.0443 0.0000 43.4193
#
#
#
# Elastic Compliance Matrix: (Units=1/GPa)
#
#
# Indices 1 2 3 4 5 6 
#
# 1 0.018048 -0.005312 -0.002110 0.000000 0.001206 0.000000
# 2 -0.005312 0.010862 -0.003566 0.000000 -0.000196 0.000000
# 3 -0.002110 -0.003566 0.010526 0.000000 0.001912 0.000000
# 4 0.000000 0.000000 0.000000 0.023969 0.000000 0.003889
# 5 0.001206 -0.000196 0.001912 0.000000 0.029197 0.000000
# 6 0.000000 0.000000 0.000000 0.003889 0.000000 0.023662
#
#
# Mechanical properties :
#
#
# Convention : Reuss Voigt Hill
#
# Bulk Modulus (GPa) = 57.26970 65.46138 61.36554
# Shear Modulus (GPa) = 34.70816 37.26106 35.98461
#
# Velocity S-wave (km/s) = 3.91933 4.06091 3.99075
# Velocity P-wave (km/s) = 6.76963 7.13862 6.95657
#
# Compressibility (1/GPa) = 0.01746124
#
# Stress axis : x y z
#
# Youngs Moduli (GPa) = 55.40791 92.06695 95.00555
#
# Poissons Ratio (x) = 0.48904 0.20042
# Poissons Ratio (y) = 0.29432 0.33876
# Poissons Ratio (z) = 0.11688 0.32828
#
# Static dielectric constant tensor:
#      x y z
#    x 2.178000 0.000000 -0.132430 
#    y 0.000000 1.788890 0.000000 
#    z -0.132430 0.000000 1.878440 
# 
# From -- ./inp_files/286135.got.cif
#   From: 2010.05.17/outbox.cif.g08.bks.cpg/sg15_144_cif.got.tgz:286135.got - 2010.06.03 18:47:42.
