data_PCOD9304157
_publ_section_title
;
Structure prediction by ZEFSAII (Michael W. Deem and Ramdas Pophale) SiO2 
 PCOD9304157
Probable space group: C 2/C
;
_chemical_formula_sum "Si O2"
_cell_formula_units_Z 44
_cell_length_a 20.139550
_cell_length_b 8.035165
_cell_length_c 12.433926
_cell_angle_alpha 90.000000
_cell_angle_beta 78.979154
_cell_angle_gamma 90.000000
_cell_volume 1975.007152
_symmetry_space_group_name_H-M "C 2/C"
_symmetry_group_IT_number 15
_symmetry_cell_setting 'monoclinic'
loop_
_space_group_symop_operation_xyz
x,y,z
-x,y,1/2-z
-x,-y,-z
x,-y,1/2+z
1/2+x,1/2+y,z
1/2-x,1/2+y,1/2-z
1/2-x,1/2-y,-z
1/2+x,1/2-y,1/2+z
loop_
_atom_site_type_symbol
_atom_site_label
_atom_site_fract_x
_atom_site_fract_y
_atom_site_fract_z
Si Si1 0.290922 0.074664 0.268352
Si Si2 0.000000 0.286459 0.750000
Si Si3 0.675660 0.244737 0.465691
Si Si4 0.562778 0.539065 0.902896
Si Si5 0.848910 0.232714 0.163826
Si Si6 0.618349 0.088963 0.070579
O O1 0.309353 0.176410 0.157418
O O2 0.211790 0.098878 0.310957
O O3 0.325350 0.148415 0.362756
O O4 0.321108 0.890239 0.239395
O O5 0.956635 0.175805 0.680075
O O6 0.951425 0.389071 0.844417
O O7 0.750000 0.250000 0.500000
O O8 0.624440 0.398300 0.461735
O O9 0.632895 0.101876 0.538033
O O10 0.585807 0.376075 0.828853
O O11 0.500000 0.500000 0.000000
O O12 0.869403 0.306993 0.041299
#
# Coordination Sequence:
#
# PCOD9304157 Si02
#       6
#     8   4   8   8   8   8
#     4  11  23  42  70 105 144 185 238 299 359 424
#     4  12  26  46  74 100 142 196 234 298 360 432
#     4  11  25  46  74 107 143 185 247 303 359 438
#     4  12  26  47  71 104 148 190 245 297 366 436
#     4  11  24  43  71 105 144 189 239 298 356 432
#     4  11  24  44  72 103 143 193 238 294 359 429
#
# _framework density 22.278400999999999
#
# number of rings (size 3 to 8) (size 9 to 14) (size 15 to 20)
#    0.000    0.727    3.636    3.818    0.000    6.545 
#    0.000    0.000    0.000    0.000    0.000    0.000 
#    0.000    0.000    0.000    0.000    0.000    0.000 
#
# Total GULP energy -122818.908357 kJ/mol
# GULP energy per Si atom -5582.677653 kJ/mol
# Density = 2.222769 g / cm^3
# Si number density = 22.278401 Si / 1000 Ang^3
#
#
#
# Elastic Constant Matrix: (Units=GPa)
#
#
# Indices 1 2 3 4 5 6 
#
# 1 87.9737 43.5290 24.0260 0.0000 -30.9517 0.0000
# 2 43.5290 89.6411 26.9210 0.0000 -27.6967 0.0000
# 3 24.0260 26.9210 101.4627 0.0000 -30.3495 0.0000
# 4 0.0000 0.0000 0.0000 5.5581 0.0000 -7.8992
# 5 -30.9517 -27.6967 -30.3495 0.0000 55.1531 0.0000
# 6 0.0000 0.0000 0.0000 -7.8992 0.0000 41.1843
#
#
#
# Elastic Compliance Matrix: (Units=1/GPa)
#
#
# Indices 1 2 3 4 5 6 
#
# 1 0.016618 -0.006058 -0.000536 0.000000 0.005989 0.000000
# 2 -0.006058 0.015700 -0.001664 0.000000 0.003569 0.000000
# 3 -0.000536 -0.001664 0.012071 0.000000 0.005506 0.000000
# 4 0.000000 0.000000 0.000000 0.247343 0.000000 0.047441
# 5 0.005989 0.003569 0.005506 0.000000 0.026314 0.000000
# 6 0.000000 0.000000 0.000000 0.047441 0.000000 0.033380
#
#
# Mechanical properties :
#
#
# Convention : Reuss Voigt Hill
#
# Bulk Modulus (GPa) = 35.87743 52.00329 43.94036
# Shear Modulus (GPa) = 13.25438 32.68586 22.97012
#
# Velocity S-wave (km/s) = 2.44179 3.83450 3.21448
# Velocity P-wave (km/s) = 4.90804 6.55726 5.79166
#
# Compressibility (1/GPa) = 0.02787268
#
# Stress axis : x y z
#
# Youngs Moduli (GPa) = 60.17565 63.69569 82.84164
#
# Poissons Ratio (x) = 0.38588 0.04444
# Poissons Ratio (y) = 0.36456 0.13781
# Poissons Ratio (z) = 0.03228 0.10596
#
# Static dielectric constant tensor:
#      x y z
#    x 1.843100 0.000000 0.009980 
#    y 0.000000 1.877240 0.000000 
#    z 0.009980 0.000000 1.776600 
# 
# From -- ./inp_files/110047.got.cif
#   From: 2010.05.17/outbox.cif.g08.bks.cpg/sg15_56_cif.got.tgz:110047.got - 2010.06.03 18:47:42.
