data_PCOD9304137
_publ_section_title
;
Structure prediction by ZEFSAII (Michael W. Deem and Ramdas Pophale) SiO2 
 PCOD9304137
Probable space group: C 2/C
;
_chemical_formula_sum "Si O2"
_cell_formula_units_Z 44
_cell_length_a 7.637193
_cell_length_b 11.745735
_cell_length_c 23.640189
_cell_angle_alpha 90.000000
_cell_angle_beta 64.225768
_cell_angle_gamma 90.000000
_cell_volume 1909.657927
_symmetry_space_group_name_H-M "C 2/C"
_symmetry_group_IT_number 15
_symmetry_cell_setting 'monoclinic'
loop_
_space_group_symop_operation_xyz
x,y,z
-x,y,1/2-z
-x,-y,-z
x,-y,1/2+z
1/2+x,1/2+y,z
1/2-x,1/2+y,1/2-z
1/2-x,1/2-y,-z
1/2+x,1/2-y,1/2+z
loop_
_atom_site_type_symbol
_atom_site_label
_atom_site_fract_x
_atom_site_fract_y
_atom_site_fract_z
Si Si1 0.688578 0.620077 0.498683
Si Si2 0.220610 0.037754 0.097884
Si Si3 0.273005 0.399157 0.638410
Si Si4 0.353537 0.847357 0.163616
Si Si5 0.000000 0.558753 0.750000
Si Si6 0.720420 0.282032 0.438712
O O1 0.750000 0.750000 0.500000
O O2 0.768636 0.532996 0.533951
O O3 0.739279 0.592275 0.427357
O O4 0.455355 0.630022 0.539747
O O5 0.323721 0.160774 0.084957
O O6 0.991937 0.067515 0.126390
O O7 0.269435 0.956360 0.143044
O O8 0.245342 0.267224 0.659798
O O9 0.123593 0.479247 0.691313
O O10 0.361157 0.866262 0.229622
O O11 0.577300 0.829125 0.112775
O O12 0.750000 0.250000 0.500000
#
# Coordination Sequence:
#
# PCOD9304137 Si02
#       6
#     8   8   8   8   4   8
#     4  12  23  42  71 108 142 171 220 291 353 413
#     4  11  24  42  75 100 140 176 222 287 360 392
#     4  11  26  47  66 104 136 181 234 279 335 418
#     4  11  26  48  69 101 135 185 232 281 343 412
#     4  12  30  46  70  90 144 188 234 276 330 412
#     4  11  23  42  69 107 139 168 223 286 344 419
#
# _framework density 23.040776000000001
#
# number of rings (size 3 to 8) (size 9 to 14) (size 15 to 20)
#    0.000    0.727    5.455    1.636    5.091    6.545 
#    0.000    0.000    0.000    0.000    0.000    0.000 
#    0.000    0.000    0.000    0.000    0.000    0.000 
#
# Total GULP energy -123321.642839 kJ/mol
# GULP energy per Si atom -5605.529220 kJ/mol
# Density = 2.298833 g / cm^3
# Si number density = 23.040776 Si / 1000 Ang^3
#
#
#
# Elastic Constant Matrix: (Units=GPa)
#
#
# Indices 1 2 3 4 5 6 
#
# 1 47.5615 7.7553 0.4492 0.0000 12.9207 0.0000
# 2 7.7553 115.2551 23.4047 0.0000 16.6000 0.0000
# 3 0.4492 23.4047 42.6815 0.0000 13.8762 0.0000
# 4 0.0000 0.0000 0.0000 39.9140 0.0000 1.9876
# 5 12.9207 16.6000 13.8762 0.0000 46.1871 0.0000
# 6 0.0000 0.0000 0.0000 1.9876 0.0000 47.8821
#
#
#
# Elastic Compliance Matrix: (Units=1/GPa)
#
#
# Indices 1 2 3 4 5 6 
#
# 1 0.023033 -0.001090 0.002574 0.000000 -0.006825 0.000000
# 2 -0.001090 0.010004 -0.004881 0.000000 -0.001824 0.000000
# 3 0.002574 -0.004881 0.028529 0.000000 -0.007537 0.000000
# 4 0.000000 0.000000 0.000000 0.025106 0.000000 -0.001042
# 5 -0.006825 -0.001824 -0.007537 0.000000 0.026480 0.000000
# 6 0.000000 0.000000 0.000000 -0.001042 0.000000 0.020928
#
#
# Mechanical properties :
#
#
# Convention : Reuss Voigt Hill
#
# Bulk Modulus (GPa) = 18.25738 29.85739 24.05739
# Shear Modulus (GPa) = 31.42080 38.38923 34.90501
#
# Velocity S-wave (km/s) = 3.69684 4.08627 3.89642
# Velocity P-wave (km/s) = 5.11501 5.93718 5.54136
#
# Compressibility (1/GPa) = 0.05477236
#
# Stress axis : x y z
#
# Youngs Moduli (GPa) = 43.41619 99.96371 35.05196
#
# Poissons Ratio (x) = 0.10891 -0.09022
# Poissons Ratio (y) = 0.04730 0.17109
# Poissons Ratio (z) = -0.11175 0.48793
#
# Static dielectric constant tensor:
#      x y z
#    x 1.924300 0.000000 -0.011900 
#    y 0.000000 1.895420 0.000000 
#    z -0.011900 0.000000 1.827840 
# 
# From -- ./inp_files/230254.got.cif
#   From: 2010.05.17/outbox.cif.g08.bks.cpg/sg15_116_cif.got.tgz:230254.got - 2010.06.03 18:47:42.
