data_PCOD9304233
_publ_section_title
;
Structure prediction by ZEFSAII (Michael W. Deem and Ramdas Pophale) SiO2 
 PCOD9304233
Probable space group: C 2/C
;
_chemical_formula_sum "Si O2"
_cell_formula_units_Z 60
_cell_length_a 11.350815
_cell_length_b 15.427719
_cell_length_c 20.019502
_cell_angle_alpha 90.000000
_cell_angle_beta 120.962486
_cell_angle_gamma 90.000000
_cell_volume 3006.203384
_symmetry_space_group_name_H-M "C 2/C"
_symmetry_group_IT_number 15
_symmetry_cell_setting 'monoclinic'
loop_
_space_group_symop_operation_xyz
x,y,z
-x,y,1/2-z
-x,-y,-z
x,-y,1/2+z
1/2+x,1/2+y,z
1/2-x,1/2+y,1/2-z
1/2-x,1/2-y,-z
1/2+x,1/2-y,1/2+z
loop_
_atom_site_type_symbol
_atom_site_label
_atom_site_fract_x
_atom_site_fract_y
_atom_site_fract_z
Si Si1 0.329747 0.091358 0.342536
Si Si2 0.500000 0.357125 0.250000
Si Si3 0.158560 0.019253 0.887987
Si Si4 0.822156 0.779605 0.912828
Si Si5 0.220408 0.775211 0.238125
Si Si6 0.865920 0.363317 0.531663
Si Si7 0.339899 0.043666 0.723673
Si Si8 0.578727 0.535692 0.086384
O O1 0.280233 0.185533 0.302463
O O2 0.489302 0.095125 0.408832
O O3 0.241154 0.059076 0.379177
O O4 0.318389 0.020682 0.280183
O O5 0.382511 0.416147 0.183706
O O6 0.563360 0.302332 0.208079
O O7 0.015079 0.989977 0.878187
O O8 0.253622 0.070007 0.968839
O O9 0.778143 0.741517 0.829139
O O10 0.697465 0.817614 0.921343
O O11 0.913234 0.861956 0.921181
O O12 0.888209 0.708312 0.980303
O O13 0.295809 0.857417 0.227153
O O14 0.500000 0.039771 0.750000
O O15 0.230427 0.005386 0.638486
O O16 0.500000 0.500000 0.000000
#
# Coordination Sequence:
#
# PCOD9304233 Si02
#       8
#     8   4   8   8   8   8   8   8
#     4  12  26  44  71 105 139 185 235 288 353 414
#     4  12  22  44  70  98 134 186 234 284 336 418
#     4  12  24  45  70  99 139 182 230 285 350 421
#     4  11  23  43  66 104 133 181 234 289 338 415
#     4  12  25  43  70 103 139 180 238 287 347 418
#     4  11  24  42  70 102 142 177 235 291 345 408
#     4  12  27  47  70 102 143 186 232 293 353 417
#     4  12  25  45  71 100 139 184 232 281 353 419
#
# _framework density 19.958729000000002
#
# number of rings (size 3 to 8) (size 9 to 14) (size 15 to 20)
#    0.000    0.267    6.667    2.000    4.667    1.067 
#    0.000    0.667    0.000    0.000    0.000    0.000 
#    0.000    0.000    0.000    0.000    0.000    0.000 
#
# Total GULP energy -167732.574137 kJ/mol
# GULP energy per Si atom -5591.085805 kJ/mol
# Density = 1.991330 g / cm^3
# Si number density = 19.958729 Si / 1000 Ang^3
#
#
#
# Elastic Constant Matrix: (Units=GPa)
#
#
# Indices 1 2 3 4 5 6 
#
# 1 70.5411 28.0407 15.3798 0.0000 7.8265 0.0000
# 2 28.0407 118.4696 23.9709 0.0000 2.1578 0.0000
# 3 15.3798 23.9709 92.0894 0.0000 17.2451 0.0000
# 4 0.0000 0.0000 0.0000 0.9623 0.0000 -1.0762
# 5 7.8265 2.1578 17.2451 0.0000 28.0527 0.0000
# 6 0.0000 0.0000 0.0000 -1.0762 0.0000 43.0531
#
#
#
# Elastic Compliance Matrix: (Units=1/GPa)
#
#
# Indices 1 2 3 4 5 6 
#
# 1 0.016227 -0.003549 -0.001118 0.000000 -0.003567 0.000000
# 2 -0.003549 0.009704 -0.002236 0.000000 0.001619 0.000000
# 3 -0.001118 -0.002236 0.013038 0.000000 -0.007531 0.000000
# 4 0.000000 0.000000 0.000000 1.069063 0.000000 0.026725
# 5 -0.003567 0.001619 -0.007531 0.000000 0.041147 0.000000
# 6 0.000000 0.000000 0.000000 0.026725 0.000000 0.023895
#
#
# Mechanical properties :
#
#
# Convention : Reuss Voigt Hill
#
# Bulk Modulus (GPa) = 39.74397 46.20922 42.97660
# Shear Modulus (GPa) = 4.18316 28.66087 16.42201
#
# Velocity S-wave (km/s) = 1.44929 3.79358 2.87156
# Velocity P-wave (km/s) = 4.77042 6.51083 5.70736
#
# Compressibility (1/GPa) = 0.02516105
#
# Stress axis : x y z
#
# Youngs Moduli (GPa) = 61.62728 103.04901 76.69782
#
# Poissons Ratio (x) = 0.36577 0.08576
# Poissons Ratio (y) = 0.21874 0.17152
# Poissons Ratio (z) = 0.06891 0.23045
#
# Static dielectric constant tensor:
#      x y z
#    x 1.743510 0.000000 0.040030 
#    y 0.000000 1.739770 0.000000 
#    z 0.040030 0.000000 1.742160 
# 
# From -- ./inp_files/197905.got.cif
#   From: 2010.05.17/outbox.cif.g08.bks.cpg/sg15_99_cif.got.tgz:197905.got - 2010.06.03 18:47:42.
