data_PCOD9304562
_publ_section_title
;
Structure prediction by ZEFSAII (Michael W. Deem and Ramdas Pophale) SiO2 
 PCOD9304562
Probable space group: C 2/C
;
_chemical_formula_sum "Si O2"
_cell_formula_units_Z 48
_cell_length_a 14.297103
_cell_length_b 7.999607
_cell_length_c 27.470523
_cell_angle_alpha 90.000000
_cell_angle_beta 37.899710
_cell_angle_gamma 90.000000
_cell_volume 1929.971314
_symmetry_space_group_name_H-M "C 2/C"
_symmetry_group_IT_number 15
_symmetry_cell_setting 'monoclinic'
loop_
_space_group_symop_operation_xyz
x,y,z
-x,y,1/2-z
-x,-y,-z
x,-y,1/2+z
1/2+x,1/2+y,z
1/2-x,1/2+y,1/2-z
1/2-x,1/2-y,-z
1/2+x,1/2-y,1/2+z
loop_
_atom_site_type_symbol
_atom_site_label
_atom_site_fract_x
_atom_site_fract_y
_atom_site_fract_z
Si Si1 0.484726 0.537006 0.950172
Si Si2 0.835027 0.417998 0.428992
Si Si3 0.550779 0.746546 0.284818
Si Si4 0.111641 0.585365 0.992938
Si Si5 0.684552 0.552257 0.780967
Si Si6 0.429197 0.247570 0.333369
O O1 0.623091 0.490795 0.858528
O O2 0.500000 0.500000 0.000000
O O3 0.344079 0.426914 0.991541
O O4 0.448654 0.734230 0.963453
O O5 0.894065 0.469614 0.457252
O O6 0.871823 0.566847 0.374829
O O7 0.895529 0.251468 0.378952
O O8 0.500000 0.768713 0.250000
O O9 0.655120 0.585036 0.251482
O O10 0.649102 0.885323 0.273709
O O11 0.281892 0.630047 0.901977
O O12 0.000000 0.500000 0.000000
O O13 0.567929 0.695554 0.811187
O O14 0.500000 0.247028 0.250000
#
# Coordination Sequence:
#
# PCOD9304562 Si02
#       6
#     8   8   8   8   8   8
#     4  11  24  44  71 102 143 191 244 301 375 439
#     4  11  23  49  69 103 146 186 243 310 366 440
#     4  12  29  48  74 111 150 195 258 309 378 450
#     4  11  25  44  72 107 146 193 248 305 368 445
#     4  12  26  48  73 107 149 193 243 315 372 443
#     4  11  23  44  75 103 142 195 244 304 375 442
#
# _framework density 24.870836000000001
#
# number of rings (size 3 to 8) (size 9 to 14) (size 15 to 20)
#    0.000    0.667    3.333    4.000    4.667    6.000 
#    0.000    0.833    0.000    0.000    0.000    0.000 
#    0.000    0.000    0.000    0.000    0.000    0.000 
#
# Total GULP energy -134285.838864 kJ/mol
# GULP energy per Si atom -5595.243286 kJ/mol
# Density = 2.481423 g / cm^3
# Si number density = 24.870836 Si / 1000 Ang^3
#
#
#
# Elastic Constant Matrix: (Units=GPa)
#
#
# Indices 1 2 3 4 5 6 
#
# 1 150.8350 34.5381 38.8164 0.0000 34.9517 -0.0001
# 2 34.5381 71.7591 29.6113 0.0001 -4.6777 -0.0004
# 3 38.8164 29.6113 114.4551 0.0000 34.5347 0.0001
# 4 0.0000 0.0001 0.0000 30.9773 0.0000 -0.7511
# 5 34.9517 -4.6777 34.5347 0.0000 49.8559 0.0001
# 6 -0.0001 -0.0004 0.0001 -0.7511 0.0001 33.5700
#
#
#
# Elastic Compliance Matrix: (Units=1/GPa)
#
#
# Indices 1 2 3 4 5 6 
#
# 1 0.009418 -0.005156 0.000351 0.000000 -0.007330 0.000000
# 2 -0.005156 0.019658 -0.006301 0.000000 0.009824 0.000000
# 3 0.000351 -0.006301 0.013276 0.000000 -0.010033 0.000000
# 4 0.000000 0.000000 0.000000 0.032299 0.000000 0.000723
# 5 -0.007330 0.009824 -0.010033 0.000000 0.033068 0.000000
# 6 0.000000 0.000000 0.000000 0.000723 0.000000 0.029805
#
#
# Mechanical properties :
#
#
# Convention : Reuss Voigt Hill
#
# Bulk Modulus (GPa) = 49.65247 60.33119 54.99183
# Shear Modulus (GPa) = 30.03921 38.48620 34.26270
#
# Velocity S-wave (km/s) = 3.47912 3.93802 3.71566
# Velocity P-wave (km/s) = 6.01220 6.70730 6.36924
#
# Compressibility (1/GPa) = 0.02013999
#
# Stress axis : x y z
#
# Youngs Moduli (GPa) = 106.17439 50.87048 75.32669
#
# Poissons Ratio (x) = 0.26229 -0.02648
# Poissons Ratio (y) = 0.54744 0.47466
# Poissons Ratio (z) = -0.03732 0.32055
#
# Static dielectric constant tensor:
#      x y z
#    x 1.937150 0.000000 0.035490 
#    y 0.000000 2.101940 0.000000 
#    z 0.035490 0.000000 2.023680 
# 
# From -- ./inp_files/295383.got.cif
#   From: 2010.05.17/outbox.cif.g08.bks.cpg/sg15_148_cif.got.tgz:295383.got - 2010.06.03 18:47:42.
