data_PCOD9304038
_publ_section_title
;
Structure prediction by ZEFSAII (Michael W. Deem and Ramdas Pophale) SiO2 
 PCOD9304038
Probable space group: C 2/C
;
_chemical_formula_sum "Si O2"
_cell_formula_units_Z 48
_cell_length_a 12.985212
_cell_length_b 14.488746
_cell_length_c 10.820297
_cell_angle_alpha 90.000000
_cell_angle_beta 102.188618
_cell_angle_gamma 90.000000
_cell_volume 1989.835003
_symmetry_space_group_name_H-M "C 2/C"
_symmetry_group_IT_number 15
_symmetry_cell_setting 'monoclinic'
loop_
_space_group_symop_operation_xyz
x,y,z
-x,y,1/2-z
-x,-y,-z
x,-y,1/2+z
1/2+x,1/2+y,z
1/2-x,1/2+y,1/2-z
1/2-x,1/2-y,-z
1/2+x,1/2-y,1/2+z
loop_
_atom_site_type_symbol
_atom_site_label
_atom_site_fract_x
_atom_site_fract_y
_atom_site_fract_z
Si Si1 0.103035 0.560246 0.330776
Si Si2 0.988064 0.154643 0.444787
Si Si3 0.664451 0.003604 0.107111
Si Si4 0.232068 0.216208 0.136610
Si Si5 0.829946 0.274459 0.910168
Si Si6 0.591650 0.480395 0.367080
O O1 0.115421 0.481477 0.228957
O O2 0.101880 0.536033 0.473899
O O3 0.209976 0.617771 0.347749
O O4 0.000000 0.612034 0.250000
O O5 0.059141 0.227481 0.533479
O O6 0.064719 0.087892 0.387061
O O7 0.890297 0.207623 0.359903
O O8 0.928700 0.082361 0.519239
O O9 0.661946 0.114554 0.089831
O O10 0.786685 0.973529 0.138381
O O11 0.289150 0.263800 0.267299
O O12 0.250000 0.250000 0.000000
O O13 0.750000 0.250000 0.000000
O O14 0.500000 0.450447 0.250000
#
# Coordination Sequence:
#
# PCOD9304038 Si02
#       6
#     8   8   8   8   8   8
#     4  11  25  47  70  98 140 185 236 293 352 427
#     4  11  25  44  69 104 139 187 233 293 353 418
#     4  11  24  46  70 104 140 184 238 290 353 425
#     4  11  27  44  68 101 138 183 237 288 352 423
#     4  11  25  44  69 103 144 181 229 292 354 421
#     4  11  23  41  75 101 138 186 235 290 352 421
#
# _framework density 24.122603999999999
#
# number of rings (size 3 to 8) (size 9 to 14) (size 15 to 20)
#    0.000    1.000    3.333    2.500    9.333    1.333 
#    3.000    0.000    0.000    0.000    0.000    0.000 
#    0.000    0.000    0.000    0.000    0.000    0.000 
#
# Total GULP energy -134087.990540 kJ/mol
# GULP energy per Si atom -5586.999606 kJ/mol
# Density = 2.406770 g / cm^3
# Si number density = 24.122604 Si / 1000 Ang^3
#
#
#
# Elastic Constant Matrix: (Units=GPa)
#
#
# Indices 1 2 3 4 5 6 
#
# 1 121.5770 0.8401 41.6485 0.0000 26.0758 0.0000
# 2 0.8401 44.7159 6.6857 0.0000 14.1298 0.0000
# 3 41.6485 6.6857 156.7019 0.0000 23.1000 0.0000
# 4 0.0000 0.0000 0.0000 31.7744 0.0000 -0.2325
# 5 26.0758 14.1298 23.1000 0.0000 58.2927 0.0000
# 6 0.0000 0.0000 0.0000 -0.2325 0.0000 23.7889
#
#
#
# Elastic Compliance Matrix: (Units=1/GPa)
#
#
# Indices 1 2 3 4 5 6 
#
# 1 0.009758 0.001350 -0.002081 0.000000 -0.003868 0.000000
# 2 0.001350 0.024410 -0.000466 0.000000 -0.006336 0.000000
# 3 -0.002081 -0.000466 0.007223 0.000000 -0.001818 0.000000
# 4 0.000000 0.000000 0.000000 0.031474 0.000000 0.000308
# 5 -0.003868 -0.006336 -0.001818 0.000000 0.021141 0.000000
# 6 0.000000 0.000000 0.000000 0.000308 0.000000 0.042039
#
#
# Mechanical properties :
#
#
# Convention : Reuss Voigt Hill
#
# Bulk Modulus (GPa) = 25.64358 46.81596 36.22977
# Shear Modulus (GPa) = 33.01664 41.02591 37.02128
#
# Velocity S-wave (km/s) = 3.70361 4.12846 3.92179
# Velocity P-wave (km/s) = 5.37983 6.49424 5.96313
#
# Compressibility (1/GPa) = 0.03899612
#
# Stress axis : x y z
#
# Youngs Moduli (GPa) = 102.47627 40.96711 138.45493
#
# Poissons Ratio (x) = -0.05530 0.28813
# Poissons Ratio (y) = -0.13834 0.06455
# Poissons Ratio (z) = 0.21326 0.01910
#
# Static dielectric constant tensor:
#      x y z
#    x 1.981860 0.000000 -0.051780 
#    y 0.000000 1.945450 0.000000 
#    z -0.051780 0.000000 2.039350 
# 
# From -- ./inp_files/97205.got.cif
#   From: 2010.05.17/outbox.cif.g08.bks.cpg/sg15_49_cif.got.tgz:97205.got - 2010.06.03 18:47:42.
