data_PCOD9304027
_publ_section_title
;
Structure prediction by ZEFSAII (Michael W. Deem and Ramdas Pophale) SiO2 
 PCOD9304027
Probable space group: C 2/C
;
_chemical_formula_sum "Si O2"
_cell_formula_units_Z 36
_cell_length_a 23.041917
_cell_length_b 14.277970
_cell_length_c 18.711092
_cell_angle_alpha 90.000000
_cell_angle_beta 15.478775
_cell_angle_gamma 90.000000
_cell_volume 1642.867314
_symmetry_space_group_name_H-M "C 2/C"
_symmetry_group_IT_number 15
_symmetry_cell_setting 'monoclinic'
loop_
_space_group_symop_operation_xyz
x,y,z
-x,y,1/2-z
-x,-y,-z
x,-y,1/2+z
1/2+x,1/2+y,z
1/2-x,1/2+y,1/2-z
1/2-x,1/2-y,-z
1/2+x,1/2-y,1/2+z
loop_
_atom_site_type_symbol
_atom_site_label
_atom_site_fract_x
_atom_site_fract_y
_atom_site_fract_z
Si Si1 0.500000 0.485717 0.250000
Si Si2 0.536441 0.534713 0.362544
Si Si3 0.620880 0.843660 0.677655
Si Si4 0.634106 0.166432 0.874947
Si Si5 0.236351 0.879662 0.748037
O O1 0.547386 0.543517 0.265101
O O2 0.293039 0.417841 0.503182
O O3 0.346381 0.603403 0.615622
O O4 0.451512 0.430771 0.482563
O O5 0.741797 0.561930 0.167622
O O6 0.500000 0.878920 0.750000
O O7 0.750000 0.750000 0.500000
O O8 0.452795 0.825442 0.940977
O O9 0.681283 0.272655 0.796254
O O10 0.451908 0.121829 0.039810
#
# Coordination Sequence:
#
# PCOD9304027 Si02
#       5
#     4   8   8   8   8
#     4  12  26  44  60 100 134 172 222 278 324 382
#     4  11  26  43  68  96 134 174 225 273 325 395
#     4  12  25  38  66 101 136 166 207 276 344 402
#     4  12  23  44  70 100 130 180 220 264 340 399
#     4  11  23  41  71  97 128 173 222 272 325 398
#
# _framework density 21.912907000000001
#
# number of rings (size 3 to 8) (size 9 to 14) (size 15 to 20)
#    0.000    0.444    5.556    3.333    6.222    0.000 
#    0.000    1.111    0.000    0.000    0.000    0.000 
#    0.000    0.000    0.000    0.000    0.000    0.000 
#
# Total GULP energy -100756.449471 kJ/mol
# GULP energy per Si atom -5597.580526 kJ/mol
# Density = 2.186303 g / cm^3
# Si number density = 21.912907 Si / 1000 Ang^3
#
#
#
# Elastic Constant Matrix: (Units=GPa)
#
#
# Indices 1 2 3 4 5 6 
#
# 1 167.6913 10.2125 1.9407 -0.0157 -5.5269 0.0086
# 2 10.2125 78.3593 12.4014 -0.0156 0.6481 0.0142
# 3 1.9407 12.4014 23.2152 -0.0043 0.7252 0.0027
# 4 -0.0157 -0.0156 -0.0043 15.1239 0.0001 -9.3661
# 5 -5.5269 0.6481 0.7252 0.0001 44.3769 -0.0061
# 6 0.0086 0.0142 0.0027 -9.3661 -0.0061 38.1705
#
#
#
# Elastic Compliance Matrix: (Units=1/GPa)
#
#
# Indices 1 2 3 4 5 6 
#
# 1 0.006037 -0.000775 -0.000115 0.000006 0.000765 0.000000
# 2 -0.000775 0.014040 -0.007430 0.000010 -0.000180 -0.000002
# 3 -0.000115 -0.007430 0.047075 0.000006 -0.000675 0.000001
# 4 0.000006 0.000010 0.000006 0.077968 0.000003 0.019131
# 5 0.000765 -0.000180 -0.000675 0.000003 0.022643 0.000004
# 6 0.000000 -0.000002 0.000001 0.019131 0.000004 0.030893
#
#
# Mechanical properties :
#
#
# Convention : Reuss Voigt Hill
#
# Bulk Modulus (GPa) = 19.79674 35.37498 27.58586
# Shear Modulus (GPa) = 21.53942 35.84833 28.69388
#
# Velocity S-wave (km/s) = 3.13861 4.04907 3.62256
# Velocity P-wave (km/s) = 4.71046 6.16753 5.48757
#
# Compressibility (1/GPa) = 0.05051338
#
# Stress axis : x y z
#
# Youngs Moduli (GPa) = 165.64301 71.22468 21.24283
#
# Poissons Ratio (x) = 0.05520 0.00243
# Poissons Ratio (y) = 0.12837 0.15783
# Poissons Ratio (z) = 0.01898 0.52918
#
# Static dielectric constant tensor:
#      x y z
#    x 1.831600 0.000000 -0.024060 
#    y 0.000000 1.790090 0.000040 
#    z -0.024060 0.000040 1.836210 
# 
# From -- ./inp_files/37529.got.cif
#   From: 2010.05.17/outbox.cif.g08.bks.cpg/sg15_19_cif.got.tgz:37529.got - 2010.06.03 18:47:42.
