data_PCOD9304882
_publ_section_title
;
Structure prediction by ZEFSAII (Michael W. Deem and Ramdas Pophale) SiO2 
 PCOD9304882
Probable space group: C 2/C
;
_chemical_formula_sum "Si O2"
_cell_formula_units_Z 40
_cell_length_a 12.149326
_cell_length_b 18.972340
_cell_length_c 13.386194
_cell_angle_alpha 90.000000
_cell_angle_beta 33.459759
_cell_angle_gamma 90.000000
_cell_volume 1701.212274
_symmetry_space_group_name_H-M "C 2/C"
_symmetry_group_IT_number 15
_symmetry_cell_setting 'monoclinic'
loop_
_space_group_symop_operation_xyz
x,y,z
-x,y,1/2-z
-x,-y,-z
x,-y,1/2+z
1/2+x,1/2+y,z
1/2-x,1/2+y,1/2-z
1/2-x,1/2-y,-z
1/2+x,1/2-y,1/2+z
loop_
_atom_site_type_symbol
_atom_site_label
_atom_site_fract_x
_atom_site_fract_y
_atom_site_fract_z
Si Si1 0.015157 0.686207 0.358364
Si Si2 0.183054 0.829871 0.537970
Si Si3 0.064972 0.540266 0.596506
Si Si4 0.462568 0.339478 0.498624
Si Si5 0.257924 0.429406 0.327551
O O1 0.987589 0.763995 0.425086
O O2 0.000000 0.689787 0.250000
O O3 0.854605 0.634981 0.531046
O O4 0.237558 0.656784 0.209120
O O5 0.250000 0.750000 0.500000
O O6 0.355374 0.882589 0.439381
O O7 0.111844 0.841702 0.478992
O O8 0.000000 0.842617 0.750000
O O9 0.241287 0.495400 0.413162
O O10 0.000000 0.505621 0.750000
O O11 0.879135 0.547242 0.662628
O O12 0.531563 0.400816 0.371077
#
# Coordination Sequence:
#
# PCOD9304882 Si02
#       5
#     8   8   8   8   8
#     4  12  26  46  71 107 143 190 244 304 364 427
#     4  12  25  43  74 110 143 184 237 303 367 431
#     4  11  23  48  69 104 151 189 235 295 366 428
#     4  12  24  44  74 107 143 186 247 302 361 433
#     4  11  25  45  73 104 148 195 237 294 358 446
#
# _framework density 23.512644000000002
#
# number of rings (size 3 to 8) (size 9 to 14) (size 15 to 20)
#    0.000    0.400    4.000    5.400    0.000    0.000 
#    7.200    3.000    0.000    0.000    0.000    0.000 
#    0.000    0.000    0.000    0.000    0.000    0.000 
#
# Total GULP energy -112154.178034 kJ/mol
# GULP energy per Si atom -5607.708902 kJ/mol
# Density = 2.345913 g / cm^3
# Si number density = 23.512644 Si / 1000 Ang^3
#
#
#
# Elastic Constant Matrix: (Units=GPa)
#
#
# Indices 1 2 3 4 5 6 
#
# 1 60.1106 7.6909 0.3817 -0.0319 21.5299 -0.0045
# 2 7.6909 94.5017 9.2696 -0.0548 6.8475 0.0125
# 3 0.3817 9.2696 82.3506 -0.0647 3.9438 0.0333
# 4 -0.0319 -0.0548 -0.0647 33.4143 0.0221 -6.3207
# 5 21.5299 6.8475 3.9438 0.0221 47.3493 -0.0053
# 6 -0.0045 0.0125 0.0333 -6.3207 -0.0053 25.8456
#
#
#
# Elastic Compliance Matrix: (Units=1/GPa)
#
#
# Indices 1 2 3 4 5 6 
#
# 1 0.019978 -0.001020 0.000452 0.000026 -0.008974 0.000008
# 2 -0.001020 0.010853 -0.001169 0.000015 -0.001008 0.000000
# 3 0.000452 -0.001169 0.012324 0.000021 -0.001063 -0.000010
# 4 0.000026 0.000015 0.000021 0.031379 -0.000029 0.007674
# 5 -0.008974 -0.001008 -0.001063 -0.000029 0.025435 -0.000002
# 6 0.000008 0.000000 -0.000010 0.007674 -0.000002 0.040568
#
#
# Mechanical properties :
#
#
# Convention : Reuss Voigt Hill
#
# Bulk Modulus (GPa) = 25.20094 30.18302 27.69198
# Shear Modulus (GPa) = 31.79941 35.96323 33.88132
#
# Velocity S-wave (km/s) = 3.68154 3.91516 3.80015
# Velocity P-wave (km/s) = 5.36777 5.77086 5.57296
#
# Compressibility (1/GPa) = 0.03968106
#
# Stress axis : x y z
#
# Youngs Moduli (GPa) = 50.05523 92.14447 81.14533
#
# Poissons Ratio (x) = 0.09398 -0.03668
# Poissons Ratio (y) = 0.05105 0.09482
# Poissons Ratio (z) = -0.02263 0.10768
#
# Static dielectric constant tensor:
#      x y z
#    x 1.901420 0.000080 -0.000370 
#    y 0.000080 1.904840 -0.000290 
#    z -0.000370 -0.000290 1.906090 
# 
# From -- ./inp_files/89331.got.cif
#   From: 2010.05.17/outbox.cif.g08.bks.cpg/sg15_45_cif.got.tgz:89331.got - 2010.06.03 18:47:42.
