data_PCOD9304775
_publ_section_title
;
Structure prediction by ZEFSAII (Michael W. Deem and Ramdas Pophale) SiO2 
 PCOD9304775
Probable space group: C 2/C
;
_chemical_formula_sum "Si O2"
_cell_formula_units_Z 40
_cell_length_a 7.978709
_cell_length_b 22.849978
_cell_length_c 15.030951
_cell_angle_alpha 90.000000
_cell_angle_beta 143.327593
_cell_angle_gamma 90.000000
_cell_volume 1636.639375
_symmetry_space_group_name_H-M "C 2/C"
_symmetry_group_IT_number 15
_symmetry_cell_setting 'monoclinic'
loop_
_space_group_symop_operation_xyz
x,y,z
-x,y,1/2-z
-x,-y,-z
x,-y,1/2+z
1/2+x,1/2+y,z
1/2-x,1/2+y,1/2-z
1/2-x,1/2-y,-z
1/2+x,1/2-y,1/2+z
loop_
_atom_site_type_symbol
_atom_site_label
_atom_site_fract_x
_atom_site_fract_y
_atom_site_fract_z
Si Si1 0.691350 0.084194 0.419875
Si Si2 0.155478 0.129471 0.231069
Si Si3 0.943219 0.253324 0.329748
Si Si4 0.175282 0.124236 0.737142
Si Si5 0.159159 0.463584 0.485892
O O1 0.500000 0.093656 0.250000
O O2 0.458044 0.107202 0.389834
O O3 0.978677 0.116091 0.566318
O O4 0.735807 0.016087 0.452526
O O5 0.191389 0.191196 0.196366
O O6 0.000000 0.154243 0.250000
O O7 0.948520 0.074819 0.120024
O O8 0.772243 0.309378 0.290010
O O9 0.000000 0.266567 0.250000
O O10 0.250000 0.250000 0.500000
O O11 0.437612 0.080610 0.848396
O O12 0.000000 0.106072 0.750000
O O13 0.000000 0.500000 0.500000
#
# Coordination Sequence:
#
# PCOD9304775 Si02
#       5
#     8   8   8   8   8
#     4  12  29  43  69 116 150 185 240 317 371 427
#     4  11  23  46  74 100 149 196 244 300 368 439
#     4  11  27  49  74 106 142 197 250 301 363 440
#     4  12  26  48  78 106 144 199 248 300 371 442
#     4  12  23  45  76 107 146 196 248 297 366 449
#
# _framework density 24.440325000000001
#
# number of rings (size 3 to 8) (size 9 to 14) (size 15 to 20)
#    0.000    0.400    6.000    1.200    5.600    5.600 
#    0.000    0.000    0.000    0.000    0.000    0.000 
#    0.000    0.000    0.000    0.000    0.000    0.000 
#
# Total GULP energy -111534.433943 kJ/mol
# GULP energy per Si atom -5576.721697 kJ/mol
# Density = 2.438470 g / cm^3
# Si number density = 24.440325 Si / 1000 Ang^3
#
#
#
# Elastic Constant Matrix: (Units=GPa)
#
#
# Indices 1 2 3 4 5 6 
#
# 1 29.1475 -6.4217 5.2258 0.0000 1.1344 0.0000
# 2 -6.4217 198.0877 75.3327 0.0000 25.9222 0.0000
# 3 5.2258 75.3327 178.8295 -0.0001 10.9967 0.0000
# 4 0.0000 0.0000 -0.0001 78.1175 0.0000 10.1483
# 5 1.1344 25.9222 10.9967 0.0000 40.0816 0.0000
# 6 0.0000 0.0000 0.0000 10.1483 0.0000 28.8392
#
#
#
# Elastic Compliance Matrix: (Units=1/GPa)
#
#
# Indices 1 2 3 4 5 6 
#
# 1 0.035152 0.002057 -0.001781 0.000000 -0.001837 0.000000
# 2 0.002057 0.006578 -0.002610 0.000000 -0.003597 0.000000
# 3 -0.001781 -0.002610 0.006750 0.000000 -0.000114 0.000000
# 4 0.000000 0.000000 0.000000 0.013414 0.000000 -0.004720
# 5 -0.001837 -0.003597 -0.000114 0.000000 0.027358 0.000000
# 6 0.000000 0.000000 0.000000 -0.004720 0.000000 0.036336
#
#
# Mechanical properties :
#
#
# Convention : Reuss Voigt Hill
#
# Bulk Modulus (GPa) = 22.82402 61.59313 42.20858
# Shear Modulus (GPa) = 34.51568 51.53618 43.02593
#
# Velocity S-wave (km/s) = 3.76206 4.59699 4.20032
# Velocity P-wave (km/s) = 5.31317 7.30976 6.38993
#
# Compressibility (1/GPa) = 0.04381349
#
# Stress axis : x y z
#
# Youngs Moduli (GPa) = 28.44765 152.01700 148.13837
#
# Poissons Ratio (x) = -0.31273 0.26382
# Poissons Ratio (y) = -0.05852 0.38665
# Poissons Ratio (z) = 0.05066 0.39677
#
# Static dielectric constant tensor:
#      x y z
#    x 0.943040 0.000000 0.344530 
#    y 0.000000 1.995140 0.000000 
#    z 0.344530 0.000000 1.582130 
# 
# From -- ./inp_files/193444.got.cif
#   From: 2010.05.17/outbox.cif.g08.bks.cpg/sg15_97_cif.got.tgz:193444.got - 2010.06.03 18:47:42.
