data_PCOD9304783
_publ_section_title
;
Structure prediction by ZEFSAII (Michael W. Deem and Ramdas Pophale) SiO2 
 PCOD9304783
Probable space group: C 2/C
;
_chemical_formula_sum "Si O2"
_cell_formula_units_Z 48
_cell_length_a 28.448776
_cell_length_b 12.600105
_cell_length_c 9.219199
_cell_angle_alpha 90.000000
_cell_angle_beta 143.597205
_cell_angle_gamma 90.000000
_cell_volume 1961.196177
_symmetry_space_group_name_H-M "C 2/C"
_symmetry_group_IT_number 15
_symmetry_cell_setting 'monoclinic'
loop_
_space_group_symop_operation_xyz
x,y,z
-x,y,1/2-z
-x,-y,-z
x,-y,1/2+z
1/2+x,1/2+y,z
1/2-x,1/2+y,1/2-z
1/2-x,1/2-y,-z
1/2+x,1/2-y,1/2+z
loop_
_atom_site_type_symbol
_atom_site_label
_atom_site_fract_x
_atom_site_fract_y
_atom_site_fract_z
Si Si1 0.281493 0.256897 0.914114
Si Si2 0.356884 0.024803 0.733162
Si Si3 0.196321 0.947830 0.711593
Si Si4 0.453792 0.423496 0.775591
Si Si5 0.153593 0.224197 0.354117
Si Si6 0.423057 0.891854 0.666574
O O1 0.283750 0.381300 0.881648
O O2 0.217243 0.211308 0.640465
O O3 0.250000 0.250000 0.000000
O O4 0.366882 0.207195 0.076315
O O5 0.271205 0.989248 0.461490
O O6 0.354965 0.151997 0.699621
O O7 0.424038 0.956788 0.819939
O O8 0.372796 0.025283 0.942692
O O9 0.177394 0.855964 0.784186
O O10 0.121913 0.016796 0.480689
O O11 0.500000 0.389942 0.750000
O O12 0.429742 0.319631 0.802054
O O13 0.500000 0.500000 0.000000
O O14 0.500000 0.869495 0.750000
#
# Coordination Sequence:
#
# PCOD9304783 Si02
#       6
#     8   8   8   8   8   8
#     4  11  25  44  75 110 135 194 256 302 359 450
#     4  11  25  46  72 100 140 199 248 303 367 450
#     4  11  23  46  74  94 142 194 240 302 377 445
#     4  12  27  43  70 110 145 185 242 308 390 454
#     4  11  23  49  70  98 147 191 247 308 371 450
#     4  12  26  45  71 105 147 190 245 312 380 437
#
# _framework density 24.47486
#
# number of rings (size 3 to 8) (size 9 to 14) (size 15 to 20)
#    0.000    0.667    5.000    2.500    7.000    2.667 
#    0.000    0.000    0.000    0.000    0.000    0.000 
#    0.000    0.000    0.000    0.000    0.000    0.000 
#
# Total GULP energy -134076.234406 kJ/mol
# GULP energy per Si atom -5586.509767 kJ/mol
# Density = 2.441915 g / cm^3
# Si number density = 24.474860 Si / 1000 Ang^3
#
#
#
# Elastic Constant Matrix: (Units=GPa)
#
#
# Indices 1 2 3 4 5 6 
#
# 1 159.7893 13.5180 -0.4817 0.0000 -5.2061 0.0000
# 2 13.5180 47.7529 -12.2347 0.0000 7.0007 0.0000
# 3 -0.4817 -12.2347 60.9236 0.0000 11.3199 0.0000
# 4 0.0000 0.0000 0.0000 19.8312 0.0000 -1.9939
# 5 -5.2061 7.0007 11.3199 0.0000 42.5027 0.0000
# 6 0.0000 0.0000 0.0000 -1.9939 0.0000 44.1212
#
#
#
# Elastic Compliance Matrix: (Units=1/GPa)
#
#
# Indices 1 2 3 4 5 6 
#
# 1 0.006485 -0.002193 -0.000635 0.000000 0.001325 0.000000
# 2 -0.002193 0.023907 0.005855 0.000000 -0.005766 0.000000
# 3 -0.000635 0.005855 0.018704 0.000000 -0.006024 0.000000
# 4 0.000000 0.000000 0.000000 0.050656 0.000000 0.002289
# 5 0.001325 -0.005766 -0.006024 0.000000 0.026244 0.000000
# 6 0.000000 0.000000 0.000000 0.002289 0.000000 0.022768
#
#
# Mechanical properties :
#
#
# Convention : Reuss Voigt Hill
#
# Bulk Modulus (GPa) = 18.13220 30.00768 24.06994
# Shear Modulus (GPa) = 31.03782 39.13530 35.08656
#
# Velocity S-wave (km/s) = 3.56497 4.00309 3.79037
# Velocity P-wave (km/s) = 4.93660 5.80116 5.38625
#
# Compressibility (1/GPa) = 0.05515051
#
# Stress axis : x y z
#
# Youngs Moduli (GPa) = 154.20223 41.82825 53.46440
#
# Poissons Ratio (x) = 0.09172 0.03396
# Poissons Ratio (y) = 0.33813 -0.31304
# Poissons Ratio (z) = 0.09795 -0.24491
#
# Static dielectric constant tensor:
#      x y z
#    x 2.033970 0.000000 0.112080 
#    y 0.000000 1.931820 0.000000 
#    z 0.112080 0.000000 2.068760 
# 
# From -- ./inp_files/66414.got.cif
#   From: 2010.05.17/outbox.cif.g08.bks.cpg/sg15_34_cif.got.tgz:66414.got - 2010.06.03 18:47:42.
