data_PCOD9304555
_publ_section_title
;
Structure prediction by ZEFSAII (Michael W. Deem and Ramdas Pophale) SiO2 
 PCOD9304555
Probable space group: C 2/C
;
_chemical_formula_sum "Si O2"
_cell_formula_units_Z 44
_cell_length_a 11.944724
_cell_length_b 20.886868
_cell_length_c 8.852837
_cell_angle_alpha 90.000000
_cell_angle_beta 109.090366
_cell_angle_gamma 90.000000
_cell_volume 2087.206982
_symmetry_space_group_name_H-M "C 2/C"
_symmetry_group_IT_number 15
_symmetry_cell_setting 'monoclinic'
loop_
_space_group_symop_operation_xyz
x,y,z
-x,y,1/2-z
-x,-y,-z
x,-y,1/2+z
1/2+x,1/2+y,z
1/2-x,1/2+y,1/2-z
1/2-x,1/2-y,-z
1/2+x,1/2-y,1/2+z
loop_
_atom_site_type_symbol
_atom_site_label
_atom_site_fract_x
_atom_site_fract_y
_atom_site_fract_z
Si Si1 0.678688 0.198345 0.373509
Si Si2 0.680431 0.571053 0.002307
Si Si3 0.449461 0.221495 0.468324
Si Si4 0.500000 0.876616 0.250000
Si Si5 0.539914 0.630817 0.439683
Si Si6 0.248503 0.062487 0.683334
O O1 0.750000 0.250000 0.500000
O O2 0.741519 0.130582 0.407003
O O3 0.556277 0.197166 0.410265
O O4 0.661805 0.220617 0.193814
O O5 0.696640 0.565789 0.829748
O O6 0.547428 0.589414 0.992465
O O7 0.725663 0.507180 0.103089
O O8 0.446843 0.171052 0.600950
O O9 0.473296 0.293651 0.532750
O O10 0.612841 0.918636 0.248726
O O11 0.500000 0.618276 0.250000
O O12 0.672344 0.609818 0.542355
#
# Coordination Sequence:
#
# PCOD9304555 Si02
#       6
#     8   8   8   4   8   8
#     4  11  23  44  74 106 141 191 241 301 364 427
#     4  12  26  49  74 104 145 190 243 298 367 429
#     4  11  25  42  73 108 146 187 242 301 363 430
#     4  12  28  48  70 110 150 194 238 296 362 438
#     4  12  26  46  76 109 144 187 243 308 365 426
#     4  12  29  47  73 103 148 193 243 294 365 444
#
# _framework density 21.080804000000001
#
# number of rings (size 3 to 8) (size 9 to 14) (size 15 to 20)
#    0.000    0.364    4.545    3.273    7.636    2.909 
#    0.000    0.000    0.000    0.000    0.000    0.000 
#    0.000    0.000    0.000    0.000    0.000    0.000 
#
# Total GULP energy -123073.807144 kJ/mol
# GULP energy per Si atom -5594.263961 kJ/mol
# Density = 2.103282 g / cm^3
# Si number density = 21.080804 Si / 1000 Ang^3
#
#
#
# Elastic Constant Matrix: (Units=GPa)
#
#
# Indices 1 2 3 4 5 6 
#
# 1 91.9811 38.5158 42.0877 0.0000 7.8777 0.0000
# 2 38.5158 104.8809 28.9776 0.0000 7.0721 0.0000
# 3 42.0877 28.9776 163.8963 0.0000 -1.8026 0.0000
# 4 0.0000 0.0000 0.0000 24.4209 0.0000 -19.1298
# 5 7.8777 7.0721 -1.8026 0.0000 29.5390 0.0000
# 6 0.0000 0.0000 0.0000 -19.1298 0.0000 -7.2666
#
#
#
# Elastic Compliance Matrix: (Units=1/GPa)
#
#
# Indices 1 2 3 4 5 6 
#
# 1 0.014238 -0.004215 -0.002944 0.000000 -0.002968 0.000000
# 2 -0.004215 0.011462 -0.000962 0.000000 -0.001679 0.000000
# 3 -0.002944 -0.000962 0.007043 0.000000 0.001445 0.000000
# 4 0.000000 0.000000 0.000000 0.013372 0.000000 -0.035203
# 5 -0.002968 -0.001679 0.001445 0.000000 0.035135 0.000000
# 6 0.000000 0.000000 0.000000 -0.035203 0.000000 -0.044940
#
#
# Mechanical properties :
#
#
# Convention : Reuss Voigt Hill
#
# Bulk Modulus (GPa) = 60.60473 64.43562 62.52017
# Shear Modulus (GPa) = 86.12833 26.08380 56.10607
#
# Velocity S-wave (km/s) = 6.39883 3.52138 5.16455
# Velocity P-wave (km/s) = 9.13261 6.86774 8.07992
#
# Compressibility (1/GPa) = 0.01650036
#
# Stress axis : x y z
#
# Youngs Moduli (GPa) = 70.23492 87.24691 141.97715
#
# Poissons Ratio (x) = 0.36777 0.41792
# Poissons Ratio (y) = 0.29606 0.13665
# Poissons Ratio (z) = 0.20674 0.08397
#
# Static dielectric constant tensor:
#      x y z
#    x 1.711190 0.000000 0.023050 
#    y 0.000000 1.722820 0.000000 
#    z 0.023050 0.000000 1.780720 
# 
# From -- ./inp_files/30977.got.cif
#   From: 2010.05.17/outbox.cif.g08.bks.cpg/sg15_16_cif.got.tgz:30977.got - 2010.06.03 18:47:42.
