data_PCOD9304252
_publ_section_title
;
Structure prediction by ZEFSAII (Michael W. Deem and Ramdas Pophale) SiO2 
 PCOD9304252
Probable space group: C 2/C
;
_chemical_formula_sum "Si O2"
_cell_formula_units_Z 48
_cell_length_a 11.168221
_cell_length_b 25.387508
_cell_length_c 13.688716
_cell_angle_alpha 90.000000
_cell_angle_beta 149.338737
_cell_angle_gamma 90.000000
_cell_volume 1979.265917
_symmetry_space_group_name_H-M "C 2/C"
_symmetry_group_IT_number 15
_symmetry_cell_setting 'monoclinic'
loop_
_space_group_symop_operation_xyz
x,y,z
-x,y,1/2-z
-x,-y,-z
x,-y,1/2+z
1/2+x,1/2+y,z
1/2-x,1/2+y,1/2-z
1/2-x,1/2-y,-z
1/2+x,1/2-y,1/2+z
loop_
_atom_site_type_symbol
_atom_site_label
_atom_site_fract_x
_atom_site_fract_y
_atom_site_fract_z
Si Si1 0.315426 0.643879 0.703712
Si Si2 0.206772 0.669352 0.197110
Si Si3 0.500000 0.963387 0.750000
Si Si4 0.623293 0.719990 0.593806
Si Si5 0.547270 0.579669 0.036290
Si Si6 0.288477 0.450386 0.526933
Si Si7 0.500000 0.145760 0.750000
O O1 0.500000 0.631754 0.750000
O O2 0.359449 0.701168 0.782255
O O3 0.053775 0.646358 0.477691
O O4 0.370720 0.604643 0.832592
O O5 0.359318 0.701855 0.383288
O O6 0.173139 0.719158 0.100343
O O7 0.372288 0.618354 0.316720
O O8 0.713753 0.931041 0.853711
O O9 0.393022 0.001583 0.591113
O O10 0.811876 0.683980 0.668830
O O11 0.398470 0.539289 0.995868
O O12 0.500000 0.453655 0.750000
O O13 0.143293 0.395214 0.420478
#
# Coordination Sequence:
#
# PCOD9304252 Si02
#       7
#     8   8   4   8   8   8   4
#     4  11  24  43  70  97 143 195 241 291 358 415
#     4  11  23  43  67 105 144 195 244 284 358 421
#     4  11  26  48  76 104 146 180 246 311 368 434
#     4  11  24  42  65 106 145 197 244 293 346 430
#     4  11  25  49  69 108 148 183 242 306 356 441
#     4  11  26  45  77 110 139 193 236 300 378 431
#     4  11  24  48  68 104 160 186 240 301 348 434
#
# _framework density 24.251415000000001
#
# number of rings (size 3 to 8) (size 9 to 14) (size 15 to 20)
#    0.000    1.000    5.000    1.500    2.333    6.000 
#    3.000    0.000    0.000    0.000    0.000    0.000 
#    0.000    0.000    0.000    0.000    0.000    0.000 
#
# Total GULP energy -133665.515120 kJ/mol
# GULP energy per Si atom -5569.396463 kJ/mol
# Density = 2.419622 g / cm^3
# Si number density = 24.251415 Si / 1000 Ang^3
#
#
#
# Elastic Constant Matrix: (Units=GPa)
#
#
# Indices 1 2 3 4 5 6 
#
# 1 88.2567 4.8011 31.6544 0.0000 9.4588 0.0001
# 2 4.8011 35.2896 25.7804 0.0000 -2.2736 0.0000
# 3 31.6544 25.7804 209.9635 0.0002 11.3910 0.0003
# 4 0.0000 0.0000 0.0002 13.8221 0.0001 16.7101
# 5 9.4588 -2.2736 11.3910 0.0001 24.9128 0.0001
# 6 0.0001 0.0000 0.0003 16.7101 0.0001 13.0960
#
#
#
# Elastic Compliance Matrix: (Units=1/GPa)
#
#
# Indices 1 2 3 4 5 6 
#
# 1 0.012364 -0.000816 -0.001543 0.000000 -0.004063 0.000000
# 2 -0.000816 0.031731 -0.004047 0.000000 0.005056 0.000000
# 3 -0.001543 -0.004047 0.005620 0.000000 -0.002353 0.000000
# 4 0.000000 0.000000 0.000000 -0.133343 0.000000 0.170141
# 5 -0.004063 0.005056 -0.002353 0.000000 0.043220 0.000000
# 6 0.000000 0.000000 0.000000 0.170141 0.000000 -0.140736
#
#
# Mechanical properties :
#
#
# Convention : Reuss Voigt Hill
#
# Bulk Modulus (GPa) = 27.09993 50.88684 38.99339
# Shear Modulus (GPa) = -32.04514 28.45112 -1.79701
#
# Velocity S-wave (km/s) = -3.63901 3.42888 -0.86174
# Velocity P-wave (km/s) = 2.54120 6.05845 3.88890
#
# Compressibility (1/GPa) = 0.03690046
#
# Stress axis : x y z
#
# Youngs Moduli (GPa) = 80.87997 31.51541 177.93557
#
# Poissons Ratio (x) = 0.02573 0.27461
# Poissons Ratio (y) = 0.06603 0.72015
# Poissons Ratio (z) = 0.12482 0.12755
#
# Static dielectric constant tensor:
#      x y z
#    x 1.932490 0.000000 -0.035290 
#    y 0.000000 2.119030 0.000000 
#    z -0.035290 0.000000 2.040670 
# 
# From -- ./inp_files/149229.got.cif
#   From: 2010.05.17/outbox.cif.g08.bks.cpg/sg15_75_cif.got.tgz:149229.got - 2010.06.03 18:47:42.
