data_PCOD9304108
_publ_section_title
;
Structure prediction by ZEFSAII (Michael W. Deem and Ramdas Pophale) SiO2 
 PCOD9304108
Probable space group: C 2/C
;
_chemical_formula_sum "Si O2"
_cell_formula_units_Z 40
_cell_length_a 23.615918
_cell_length_b 6.595500
_cell_length_c 11.617494
_cell_angle_alpha 90.000000
_cell_angle_beta 70.259626
_cell_angle_gamma 90.000000
_cell_volume 1703.185906
_symmetry_space_group_name_H-M "C 2/C"
_symmetry_group_IT_number 15
_symmetry_cell_setting 'monoclinic'
loop_
_space_group_symop_operation_xyz
x,y,z
-x,y,1/2-z
-x,-y,-z
x,-y,1/2+z
1/2+x,1/2+y,z
1/2-x,1/2+y,1/2-z
1/2-x,1/2-y,-z
1/2+x,1/2-y,1/2+z
loop_
_atom_site_type_symbol
_atom_site_label
_atom_site_fract_x
_atom_site_fract_y
_atom_site_fract_z
Si Si1 0.812519 0.943880 0.289551
Si Si2 0.600206 0.423817 0.587218
Si Si3 0.616919 0.252088 0.893821
Si Si4 0.504908 0.094193 0.866987
Si Si5 0.188032 0.375515 0.910045
O O1 0.872970 0.945791 0.325052
O O2 0.825814 0.131191 0.194912
O O3 0.750423 0.009065 0.393099
O O4 0.807870 0.741181 0.215992
O O5 0.586355 0.590270 0.499605
O O6 0.543995 0.271864 0.616902
O O7 0.659517 0.289883 0.514176
O O8 0.571621 0.188196 0.825542
O O9 0.638719 0.050952 0.939726
O O10 0.500000 0.967794 0.750000
O O11 0.500000 0.000000 0.000000
#
# Coordination Sequence:
#
# PCOD9304108 Si02
#       5
#     8   8   8   8   8
#     4  11  23  42  68 100 143 192 234 302 370 438
#     4  11  25  43  70 101 139 193 241 303 366 440
#     4  11  24  45  67 102 142 187 244 295 368 438
#     4  12  25  48  76 108 148 193 245 304 367 437
#     4  11  23  42  68 102 143 186 244 299 367 440
#
# _framework density 23.485398
#
# number of rings (size 3 to 8) (size 9 to 14) (size 15 to 20)
#    0.000    0.800    6.000    1.200    0.000    4.000 
#    0.000    0.000    0.000    0.000    0.000    0.000 
#    0.000    0.000    0.000    0.000    0.000    0.000 
#
# Total GULP energy -111509.700851 kJ/mol
# GULP energy per Si atom -5575.485043 kJ/mol
# Density = 2.343194 g / cm^3
# Si number density = 23.485398 Si / 1000 Ang^3
#
#
#
# Elastic Constant Matrix: (Units=GPa)
#
#
# Indices 1 2 3 4 5 6 
#
# 1 87.0983 11.2976 8.9090 0.0000 4.0826 0.0000
# 2 11.2976 63.6417 16.2213 0.0000 6.0512 0.0000
# 3 8.9090 16.2213 59.4313 0.0000 19.4715 0.0000
# 4 0.0000 0.0000 0.0000 13.0644 0.0000 -6.9486
# 5 4.0826 6.0512 19.4715 0.0000 36.3934 0.0000
# 6 0.0000 0.0000 0.0000 -6.9486 0.0000 -18.9397
#
#
#
# Elastic Compliance Matrix: (Units=1/GPa)
#
#
# Indices 1 2 3 4 5 6 
#
# 1 0.011849 -0.001769 -0.001157 0.000000 -0.000416 0.000000
# 2 -0.001769 0.017157 -0.004302 0.000000 -0.000352 0.000000
# 3 -0.001157 -0.004302 0.021701 0.000000 -0.010765 0.000000
# 4 0.000000 0.000000 0.000000 0.064046 0.000000 -0.023497
# 5 -0.000416 -0.000352 -0.010765 0.000000 0.033343 0.000000
# 6 0.000000 0.000000 0.000000 -0.023497 0.000000 -0.044178
#
#
# Mechanical properties :
#
#
# Convention : Reuss Voigt Hill
#
# Bulk Modulus (GPa) = 27.58600 31.44745 29.51672
# Shear Modulus (GPa) = 38.32692 17.68653 28.00672
#
# Velocity S-wave (km/s) = 4.04412 2.74722 3.45703
# Velocity P-wave (km/s) = 5.79466 4.84585 5.34136
#
# Compressibility (1/GPa) = 0.03625027
#
# Stress axis : x y z
#
# Youngs Moduli (GPa) = 84.39832 58.28506 46.08095
#
# Poissons Ratio (x) = 0.10310 0.05332
# Poissons Ratio (y) = 0.14929 0.19825
# Poissons Ratio (z) = 0.09765 0.25076
#
# Static dielectric constant tensor:
#      x y z
#    x 1.893600 0.000000 -0.031020 
#    y 0.000000 1.863040 0.000000 
#    z -0.031020 0.000000 2.035880 
# 
# From -- ./inp_files/120702.got.cif
#   From: 2010.05.17/outbox.cif.g08.bks.cpg/sg15_61_cif.got.tgz:120702.got - 2010.06.03 18:47:42.
