data_PCOD9304554
_publ_section_title
;
Structure prediction by ZEFSAII (Michael W. Deem and Ramdas Pophale) SiO2 
 PCOD9304554
Probable space group: C 2/C
;
_chemical_formula_sum "Si O2"
_cell_formula_units_Z 40
_cell_length_a 9.620025
_cell_length_b 16.412502
_cell_length_c 11.109941
_cell_angle_alpha 90.000000
_cell_angle_beta 96.475532
_cell_angle_gamma 90.000000
_cell_volume 1742.942730
_symmetry_space_group_name_H-M "C 2/C"
_symmetry_group_IT_number 15
_symmetry_cell_setting 'monoclinic'
loop_
_space_group_symop_operation_xyz
x,y,z
-x,y,1/2-z
-x,-y,-z
x,-y,1/2+z
1/2+x,1/2+y,z
1/2-x,1/2+y,1/2-z
1/2-x,1/2-y,-z
1/2+x,1/2-y,1/2+z
loop_
_atom_site_type_symbol
_atom_site_label
_atom_site_fract_x
_atom_site_fract_y
_atom_site_fract_z
Si Si1 0.726493 0.085199 0.815568
Si Si2 0.504079 0.363784 0.382458
Si Si3 0.874725 0.310019 0.649461
Si Si4 0.386890 0.414265 0.848236
Si Si5 0.948352 0.582702 0.931974
O O1 0.838147 0.152367 0.869800
O O2 0.584910 0.106015 0.870503
O O3 0.680940 0.075922 0.672285
O O4 0.794015 0.996743 0.850972
O O5 0.500000 0.408678 0.250000
O O6 0.599949 0.285286 0.370968
O O7 0.544924 0.403576 0.512442
O O8 0.724502 0.340489 0.680435
O O9 0.903594 0.354079 0.527288
O O10 0.000000 0.337011 0.750000
O O11 0.500000 0.414320 0.750000
O O12 0.000000 0.500000 0.000000
#
# Coordination Sequence:
#
# PCOD9304554 Si02
#       5
#     8   8   8   8   8
#     4  11  25  43  74 110 143 193 244 316 359 444
#     4  11  26  47  71 104 151 192 246 303 373 440
#     4  11  25  48  74 100 151 198 243 304 372 446
#     4  12  26  45  75 110 149 193 250 309 374 439
#     4  11  23  44  74 105 146 190 252 295 374 436
#
# _framework density 22.949693
#
# number of rings (size 3 to 8) (size 9 to 14) (size 15 to 20)
#    0.000    0.800    2.000    4.200    5.600    2.400 
#    7.200    0.000    0.000    0.000    0.000    0.000 
#    0.000    0.000    0.000    0.000    0.000    0.000 
#
# Total GULP energy -111695.835405 kJ/mol
# GULP energy per Si atom -5584.791770 kJ/mol
# Density = 2.289746 g / cm^3
# Si number density = 22.949693 Si / 1000 Ang^3
#
#
#
# Elastic Constant Matrix: (Units=GPa)
#
#
# Indices 1 2 3 4 5 6 
#
# 1 149.9010 55.0992 70.1881 0.0000 8.8895 0.0000
# 2 55.0992 92.1474 31.7505 0.0000 -1.2588 0.0000
# 3 70.1881 31.7505 190.4608 0.0000 14.4370 0.0000
# 4 0.0000 0.0000 0.0000 19.1015 0.0000 3.1014
# 5 8.8895 -1.2588 14.4370 0.0000 44.3758 0.0000
# 6 0.0000 0.0000 0.0000 3.1014 0.0000 40.4574
#
#
#
# Elastic Compliance Matrix: (Units=1/GPa)
#
#
# Indices 1 2 3 4 5 6 
#
# 1 0.009835 -0.004966 -0.002703 0.000000 -0.001232 0.000000
# 2 -0.004966 0.014063 -0.000635 0.000000 0.001601 0.000000
# 3 -0.002703 -0.000635 0.006472 0.000000 -0.001582 0.000000
# 4 0.000000 0.000000 0.000000 0.053012 0.000000 -0.004064
# 5 -0.001232 0.001601 -0.001582 0.000000 0.023342 0.000000
# 6 0.000000 0.000000 0.000000 -0.004064 0.000000 0.025029
#
#
# Mechanical properties :
#
#
# Convention : Reuss Voigt Hill
#
# Bulk Modulus (GPa) = 72.67242 82.95387 77.81315
# Shear Modulus (GPa) = 32.69049 39.15170 35.92109
#
# Velocity S-wave (km/s) = 3.77827 4.13483 3.96057
# Velocity P-wave (km/s) = 7.12520 7.68246 7.40907
#
# Compressibility (1/GPa) = 0.01376038
#
# Stress axis : x y z
#
# Youngs Moduli (GPa) = 101.67418 71.11048 154.50070
#
# Poissons Ratio (x) = 0.35316 0.41765
# Poissons Ratio (y) = 0.50496 0.09817
# Poissons Ratio (z) = 0.27485 0.04518
#
# Static dielectric constant tensor:
#      x y z
#    x 2.115870 0.000000 -0.038140 
#    y 0.000000 1.905120 0.000000 
#    z -0.038140 0.000000 1.909510 
# 
# From -- ./inp_files/76916.got.cif
#   From: 2010.05.17/outbox.cif.g08.bks.cpg/sg15_39_cif.got.tgz:76916.got - 2010.06.03 18:47:42.
