data_PCOD9304518
_publ_section_title
;
Structure prediction by ZEFSAII (Michael W. Deem and Ramdas Pophale) SiO2 
 PCOD9304518
Probable space group: C 2/C
;
_chemical_formula_sum "Si O2"
_cell_formula_units_Z 40
_cell_length_a 10.860653
_cell_length_b 14.290667
_cell_length_c 12.714477
_cell_angle_alpha 90.000000
_cell_angle_beta 105.105052
_cell_angle_gamma 90.000000
_cell_volume 1905.182444
_symmetry_space_group_name_H-M "C 2/C"
_symmetry_group_IT_number 15
_symmetry_cell_setting 'monoclinic'
loop_
_space_group_symop_operation_xyz
x,y,z
-x,y,1/2-z
-x,-y,-z
x,-y,1/2+z
1/2+x,1/2+y,z
1/2-x,1/2+y,1/2-z
1/2-x,1/2-y,-z
1/2+x,1/2-y,1/2+z
loop_
_atom_site_type_symbol
_atom_site_label
_atom_site_fract_x
_atom_site_fract_y
_atom_site_fract_z
Si Si1 0.797232 0.014629 0.225992
Si Si2 0.472050 0.573258 0.084058
Si Si3 0.710600 0.180140 0.782896
Si Si4 0.585978 0.845510 0.668038
Si Si5 0.024688 0.708018 0.927483
O O1 0.899397 0.071799 0.317546
O O2 0.656112 0.055898 0.200010
O O3 0.854219 0.030697 0.123198
O O4 0.792417 0.909473 0.266885
O O5 0.449023 0.681020 0.049907
O O6 0.500000 0.500000 0.000000
O O7 0.801115 0.269460 0.811385
O O8 0.637061 0.168634 0.877522
O O9 0.603324 0.196280 0.669571
O O10 0.500000 0.825446 0.750000
O O11 0.517451 0.839459 0.539907
#
# Coordination Sequence:
#
# PCOD9304518 Si02
#       5
#     8   8   8   8   8
#     4  11  25  43  65 103 135 171 228 280 329 405
#     4  11  23  44  71  97 129 180 233 276 333 389
#     4  11  24  46  69  98 137 176 230 276 340 401
#     4  12  27  43  66 101 140 176 228 276 338 408
#     4  11  24  47  71  93 137 188 216 283 344 396
#
# _framework density 20.995363000000001
#
# number of rings (size 3 to 8) (size 9 to 14) (size 15 to 20)
#    0.000    0.800    4.000    3.000   11.200    3.200 
#    0.000    0.000    0.000    0.000    0.000    0.000 
#    0.000    0.000    0.000    0.000    0.000    0.000 
#
# Total GULP energy -111846.041499 kJ/mol
# GULP energy per Si atom -5592.302075 kJ/mol
# Density = 2.094758 g / cm^3
# Si number density = 20.995363 Si / 1000 Ang^3
#
#
#
# Elastic Constant Matrix: (Units=GPa)
#
#
# Indices 1 2 3 4 5 6 
#
# 1 58.0533 -21.7369 32.2994 0.0000 -7.2840 0.0000
# 2 -21.7369 52.7517 -11.1408 0.0000 0.2510 0.0000
# 3 32.2994 -11.1408 121.4939 0.0000 -13.3393 0.0000
# 4 0.0000 0.0000 0.0000 23.1941 0.0000 4.9287
# 5 -7.2840 0.2510 -13.3393 0.0000 28.3667 0.0000
# 6 0.0000 0.0000 0.0000 4.9287 0.0000 35.7998
#
#
#
# Elastic Compliance Matrix: (Units=1/GPa)
#
#
# Indices 1 2 3 4 5 6 
#
# 1 0.023793 0.008703 -0.005130 0.000000 0.003620 0.000000
# 2 0.008703 0.022528 -0.000026 0.000000 0.002023 0.000000
# 3 -0.005130 -0.000026 0.009962 0.000000 0.003368 0.000000
# 4 0.000000 0.000000 0.000000 0.044414 0.000000 -0.006115
# 5 0.003620 0.002023 0.003368 0.000000 0.037748 0.000000
# 6 0.000000 0.000000 0.000000 -0.006115 0.000000 0.028775
#
#
# Mechanical properties :
#
#
# Convention : Reuss Voigt Hill
#
# Bulk Modulus (GPa) = 15.77832 25.68249 20.73040
# Shear Modulus (GPa) = 27.58624 32.99725 30.29174
#
# Velocity S-wave (km/s) = 3.62874 3.96870 3.80252
# Velocity P-wave (km/s) = 5.00884 5.76713 5.40131
#
# Compressibility (1/GPa) = 0.06337812
#
# Stress axis : x y z
#
# Youngs Moduli (GPa) = 42.02977 44.38925 100.38145
#
# Poissons Ratio (x) = -0.38634 0.51493
# Poissons Ratio (y) = -0.36580 0.00260
# Poissons Ratio (z) = 0.21560 0.00115
#
# Static dielectric constant tensor:
#      x y z
#    x 1.740860 0.000000 0.019150 
#    y 0.000000 1.715820 0.000000 
#    z 0.019150 0.000000 1.803310 
# 
# From -- ./inp_files/85649.got.cif
#   From: 2010.05.17/outbox.cif.g08.bks.cpg/sg15_43_cif.got.tgz:85649.got - 2010.06.03 18:47:42.
