data_PCOD9304234
_publ_section_title
;
Structure prediction by ZEFSAII (Michael W. Deem and Ramdas Pophale) SiO2 
 PCOD9304234
Probable space group: C 2/C
;
_chemical_formula_sum "Si O2"
_cell_formula_units_Z 48
_cell_length_a 12.251953
_cell_length_b 22.099135
_cell_length_c 8.097896
_cell_angle_alpha 90.000000
_cell_angle_beta 90.252748
_cell_angle_gamma 90.000000
_cell_volume 2192.545256
_symmetry_space_group_name_H-M "C 2/C"
_symmetry_group_IT_number 15
_symmetry_cell_setting 'monoclinic'
loop_
_space_group_symop_operation_xyz
x,y,z
-x,y,1/2-z
-x,-y,-z
x,-y,1/2+z
1/2+x,1/2+y,z
1/2-x,1/2+y,1/2-z
1/2-x,1/2-y,-z
1/2+x,1/2-y,1/2+z
loop_
_atom_site_type_symbol
_atom_site_label
_atom_site_fract_x
_atom_site_fract_y
_atom_site_fract_z
Si Si1 0.790580 0.684421 0.941333
Si Si2 0.144538 0.907940 0.578992
Si Si3 0.526371 0.179614 0.061270
Si Si4 0.628997 0.526915 0.749842
Si Si5 0.748231 0.634633 0.579523
Si Si6 0.957420 0.189725 0.069394
O O1 0.741354 0.639198 0.076951
O O2 0.746659 0.669614 0.757592
O O3 0.750000 0.750000 0.000000
O O4 0.918896 0.672511 0.948448
O O5 0.167027 0.952878 0.428624
O O6 0.039445 0.866277 0.538070
O O7 0.134131 0.954875 0.726212
O O8 0.500000 0.163350 0.250000
O O9 0.630704 0.143935 0.991578
O O10 0.541935 0.252510 0.049375
O O11 0.500000 0.542171 0.750000
O O12 0.699965 0.568553 0.626410
O O13 0.664008 0.664551 0.450214
O O14 0.000000 0.210274 0.250000
#
# Coordination Sequence:
#
# PCOD9304234 Si02
#       6
#     8   8   8   8   8   8
#     4  11  23  45  73 101 146 190 238 296 361 433
#     4  11  25  40  72 102 145 181 236 295 360 425
#     4  12  27  44  70 101 144 189 240 296 359 432
#     4  11  23  43  66 104 140 182 230 297 354 424
#     4  11  26  45  67 102 145 188 237 297 356 432
#     4  12  25  41  68 103 140 183 237 294 361 424
#
# _framework density 21.892365999999999
#
# number of rings (size 3 to 8) (size 9 to 14) (size 15 to 20)
#    0.000    0.667    3.333    4.000    7.000    0.000 
#    0.000    0.833    0.000    0.000    0.000    0.000 
#    0.000    0.000    0.000    0.000    0.000    0.000 
#
# Total GULP energy -134044.678231 kJ/mol
# GULP energy per Si atom -5585.194926 kJ/mol
# Density = 2.184254 g / cm^3
# Si number density = 21.892366 Si / 1000 Ang^3
#
#
#
# Elastic Constant Matrix: (Units=GPa)
#
#
# Indices 1 2 3 4 5 6 
#
# 1 168.5961 57.3003 19.8654 0.0000 -10.0605 0.0000
# 2 57.3003 130.5966 26.8809 0.0000 -21.4022 0.0000
# 3 19.8654 26.8809 82.3713 0.0000 -15.2218 0.0000
# 4 0.0000 0.0000 0.0000 23.8719 0.0000 -30.7590
# 5 -10.0605 -21.4022 -15.2218 0.0000 33.5562 0.0000
# 6 0.0000 0.0000 0.0000 -30.7590 0.0000 -177.1104
#
#
#
# Elastic Compliance Matrix: (Units=1/GPa)
#
#
# Indices 1 2 3 4 5 6 
#
# 1 0.007013 -0.002941 -0.000753 0.000000 -0.000115 0.000000
# 2 -0.002941 0.010080 -0.001697 0.000000 0.004777 0.000000
# 3 -0.000753 -0.001697 0.013790 0.000000 0.004947 0.000000
# 4 0.000000 0.000000 0.000000 0.034230 0.000000 -0.005945
# 5 -0.000115 0.004777 0.004947 0.000000 0.035057 0.000000
# 6 0.000000 0.000000 0.000000 -0.005945 0.000000 -0.004614
#
#
# Mechanical properties :
#
#
# Convention : Reuss Voigt Hill
#
# Bulk Modulus (GPa) = 49.75002 65.51747 57.63374
# Shear Modulus (GPa) = 44.23299 -5.43528 19.39885
#
# Velocity S-wave (km/s) = 4.49985 -1.57738 2.97997
# Velocity P-wave (km/s) = 7.05495 5.16474 6.18251
#
# Compressibility (1/GPa) = 0.02010050
#
# Stress axis : x y z
#
# Youngs Moduli (GPa) = 142.59969 99.20941 72.51744
#
# Poissons Ratio (x) = 0.29174 0.05459
# Poissons Ratio (y) = 0.41934 0.12309
# Poissons Ratio (z) = 0.10734 0.16840
#
# Static dielectric constant tensor:
#      x y z
#    x 1.857780 0.000000 -0.030270 
#    y 0.000000 1.818030 0.000000 
#    z -0.030270 0.000000 1.867870 
# 
# From -- ./inp_files/32026.got.cif
#   From: 2010.05.17/outbox.cif.g08.bks.cpg/sg15_17_cif.got.tgz:32026.got - 2010.06.03 18:47:42.
