data_PCOD9304877
_publ_section_title
;
Structure prediction by ZEFSAII (Michael W. Deem and Ramdas Pophale) SiO2 
 PCOD9304877
Probable space group: C 2/C
;
_chemical_formula_sum "Si O2"
_cell_formula_units_Z 60
_cell_length_a 10.434729
_cell_length_b 9.738504
_cell_length_c 27.574735
_cell_angle_alpha 90.000000
_cell_angle_beta 110.089476
_cell_angle_gamma 90.000000
_cell_volume 2631.619737
_symmetry_space_group_name_H-M "C 2/C"
_symmetry_group_IT_number 15
_symmetry_cell_setting 'monoclinic'
loop_
_space_group_symop_operation_xyz
x,y,z
-x,y,1/2-z
-x,-y,-z
x,-y,1/2+z
1/2+x,1/2+y,z
1/2-x,1/2+y,1/2-z
1/2-x,1/2-y,-z
1/2+x,1/2-y,1/2+z
loop_
_atom_site_type_symbol
_atom_site_label
_atom_site_fract_x
_atom_site_fract_y
_atom_site_fract_z
Si Si1 0.066003 0.637175 0.358103
Si Si2 0.633788 0.680225 0.131650
Si Si3 0.023485 0.582191 0.933418
Si Si4 0.942810 0.056851 0.625283
Si Si5 0.238659 0.293941 0.247738
Si Si6 0.642912 0.542349 0.283396
Si Si7 0.500000 0.010058 0.750000
Si Si8 0.717385 0.903839 0.017689
O O1 0.231363 0.662427 0.383831
O O2 0.003524 0.531954 0.388840
O O3 0.012214 0.788773 0.359113
O O4 0.039093 0.581043 0.301172
O O5 0.506643 0.771778 0.095949
O O6 0.575194 0.532615 0.134884
O O7 0.683377 0.746359 0.188150
O O8 0.909337 0.594337 0.960761
O O9 0.165817 0.524324 0.974246
O O10 0.848968 0.054131 0.565543
O O11 0.858941 0.998173 0.660632
O O12 0.353381 0.403310 0.247820
O O13 0.252960 0.155668 0.281170
O O14 0.127718 0.392176 0.257438
O O15 0.500000 0.610253 0.250000
O O16 0.750000 0.750000 0.000000
#
# Coordination Sequence:
#
# PCOD9304877 Si02
#       8
#     8   8   8   8   8   8   4   8
#     4  12  26  48  70 109 145 193 241 299 366 438
#     4  12  24  49  68 106 150 184 244 299 355 439
#     4  11  23  47  81 103 146 191 245 307 367 437
#     4  12  26  46  73 103 148 188 240 308 363 435
#     4  12  24  47  69 100 149 191 240 298 350 433
#     4  12  26  46  68 104 144 194 242 293 363 434
#     4  12  26  42  76 104 146 196 240 294 368 432
#     4  11  23  49  79 108 144 191 244 312 375 431
#
# _framework density 22.799648000000001
#
# number of rings (size 3 to 8) (size 9 to 14) (size 15 to 20)
#    0.000    0.267    7.333    0.800    0.933    0.533 
#    2.400    2.667    0.000    0.000    0.000    0.000 
#    0.000    0.000    0.000    0.000    0.000    0.000 
#
# Total GULP energy -167638.184339 kJ/mol
# GULP energy per Si atom -5587.939478 kJ/mol
# Density = 2.274775 g / cm^3
# Si number density = 22.799648 Si / 1000 Ang^3
#
#
#
# Elastic Constant Matrix: (Units=GPa)
#
#
# Indices 1 2 3 4 5 6 
#
# 1 79.8950 61.2391 17.9606 0.0000 0.3476 0.0000
# 2 61.2391 166.8642 40.4419 0.0000 -9.3328 0.0000
# 3 17.9606 40.4419 104.1086 0.0000 -0.1073 0.0000
# 4 0.0000 0.0000 0.0000 38.4411 0.0000 0.2178
# 5 0.3476 -9.3328 -0.1073 0.0000 27.1030 0.0000
# 6 0.0000 0.0000 0.0000 0.2178 0.0000 36.8456
#
#
#
# Elastic Compliance Matrix: (Units=1/GPa)
#
#
# Indices 1 2 3 4 5 6 
#
# 1 0.017605 -0.006471 -0.000526 0.000000 -0.002456 0.000000
# 2 -0.006471 0.009137 -0.002430 0.000000 0.003220 0.000000
# 3 -0.000526 -0.002430 0.010639 0.000000 -0.000788 0.000000
# 4 0.000000 0.000000 0.000000 0.026015 0.000000 -0.000154
# 5 -0.002456 0.003220 -0.000788 0.000000 0.038033 0.000000
# 6 0.000000 0.000000 0.000000 -0.000154 0.000000 0.027141
#
#
# Mechanical properties :
#
#
# Convention : Reuss Voigt Hill
#
# Bulk Modulus (GPa) = 53.97269 65.57233 59.77251
# Shear Modulus (GPa) = 32.55219 35.89303 34.22261
#
# Velocity S-wave (km/s) = 3.78266 3.97202 3.87850
# Velocity P-wave (km/s) = 6.54232 7.06107 6.80664
#
# Compressibility (1/GPa) = 0.01852789
#
# Stress axis : x y z
#
# Youngs Moduli (GPa) = 56.80079 109.44905 93.99320
#
# Poissons Ratio (x) = 0.70825 0.04944
# Poissons Ratio (y) = 0.36756 0.22836
# Poissons Ratio (z) = 0.02988 0.26591
#
# Static dielectric constant tensor:
#      x y z
#    x 1.873160 0.000000 0.004220 
#    y 0.000000 1.825540 0.000000 
#    z 0.004220 0.000000 1.895010 
# 
# From -- ./inp_files/310343.got.cif
#   From: 2010.05.17/outbox.cif.g08.bks.cpg/sg15_156_cif.got.tgz:310343.got - 2010.06.03 18:47:42.
