data_PCOD9304392
_publ_section_title
;
Structure prediction by ZEFSAII (Michael W. Deem and Ramdas Pophale) SiO2 
 PCOD9304392
Probable space group: C 2/C
;
_chemical_formula_sum "Si O2"
_cell_formula_units_Z 40
_cell_length_a 19.346967
_cell_length_b 12.227692
_cell_length_c 10.484020
_cell_angle_alpha 90.000000
_cell_angle_beta 134.029439
_cell_angle_gamma 90.000000
_cell_volume 1783.215023
_symmetry_space_group_name_H-M "C 2/C"
_symmetry_group_IT_number 15
_symmetry_cell_setting 'monoclinic'
loop_
_space_group_symop_operation_xyz
x,y,z
-x,y,1/2-z
-x,-y,-z
x,-y,1/2+z
1/2+x,1/2+y,z
1/2-x,1/2+y,1/2-z
1/2-x,1/2-y,-z
1/2+x,1/2-y,1/2+z
loop_
_atom_site_type_symbol
_atom_site_label
_atom_site_fract_x
_atom_site_fract_y
_atom_site_fract_z
Si Si1 0.678141 0.307233 0.807906
Si Si2 0.279059 0.028110 0.944518
Si Si3 0.310601 0.274405 0.264245
Si Si4 0.608125 0.036214 0.161909
Si Si5 0.485862 0.406072 0.588629
O O1 0.699207 0.435581 0.847367
O O2 0.718158 0.266085 0.724660
O O3 0.563672 0.306497 0.674751
O O4 0.750000 0.250000 0.000000
O O5 0.229634 0.145751 0.896482
O O6 0.328970 0.016526 0.870872
O O7 0.354326 0.000888 0.151632
O O8 0.380536 0.353339 0.436299
O O9 0.372180 0.166510 0.314694
O O10 0.500000 0.000000 0.000000
O O11 0.500000 0.450282 0.750000
O O12 0.500000 0.500000 0.500000
#
# Coordination Sequence:
#
# PCOD9304392 Si02
#       5
#     8   8   8   8   8
#     4  11  23  43  73  99 144 189 235 293 365 438
#     4  11  24  45  69  98 143 181 233 297 360 430
#     4  11  25  43  70 105 142 191 235 300 368 432
#     4  11  26  44  70 101 139 185 241 293 359 434
#     4  12  26  46  74 106 144 187 249 299 363 438
#
# _framework density 22.431394000000001
#
# number of rings (size 3 to 8) (size 9 to 14) (size 15 to 20)
#    0.000    0.800    4.000    2.400    5.600    0.000 
#    3.600    0.000    0.000    0.000    0.000    0.000 
#    0.000    0.000    0.000    0.000    0.000    0.000 
#
# Total GULP energy -111775.859044 kJ/mol
# GULP energy per Si atom -5588.792952 kJ/mol
# Density = 2.238034 g / cm^3
# Si number density = 22.431394 Si / 1000 Ang^3
#
#
#
# Elastic Constant Matrix: (Units=GPa)
#
#
# Indices 1 2 3 4 5 6 
#
# 1 71.7369 30.7652 32.9310 0.0000 12.8571 0.0000
# 2 30.7652 99.6942 30.8997 0.0000 -8.0206 0.0000
# 3 32.9310 30.8997 137.8312 0.0000 8.5743 0.0000
# 4 0.0000 0.0000 0.0000 42.7045 0.0000 2.3085
# 5 12.8571 -8.0206 8.5743 0.0000 31.1325 0.0000
# 6 0.0000 0.0000 0.0000 2.3085 0.0000 15.4344
#
#
#
# Elastic Compliance Matrix: (Units=1/GPa)
#
#
# Indices 1 2 3 4 5 6 
#
# 1 0.019241 -0.005780 -0.002762 0.000000 -0.008674 0.000000
# 2 -0.005780 0.012905 -0.001900 0.000000 0.006235 0.000000
# 3 -0.002762 -0.001900 0.008445 0.000000 -0.001675 0.000000
# 4 0.000000 0.000000 0.000000 0.023608 0.000000 -0.003531
# 5 -0.008674 0.006235 -0.001675 0.000000 0.037771 0.000000
# 6 0.000000 0.000000 0.000000 -0.003531 0.000000 0.065318
#
#
# Mechanical properties :
#
#
# Convention : Reuss Voigt Hill
#
# Bulk Modulus (GPa) = 50.74033 55.38379 53.06206
# Shear Modulus (GPa) = 25.67528 32.16536 28.92032
#
# Velocity S-wave (km/s) = 3.38688 3.79085 3.59455
# Velocity P-wave (km/s) = 6.16149 6.62606 6.39799
#
# Compressibility (1/GPa) = 0.01970819
#
# Stress axis : x y z
#
# Youngs Moduli (GPa) = 51.97252 77.49104 118.40966
#
# Poissons Ratio (x) = 0.44786 0.32702
# Poissons Ratio (y) = 0.30038 0.22498
# Poissons Ratio (z) = 0.14354 0.14724
#
# Static dielectric constant tensor:
#      x y z
#    x 1.867530 0.000000 0.013080 
#    y 0.000000 1.855550 0.000000 
#    z 0.013080 0.000000 1.917720 
# 
# From -- ./inp_files/111862.got.cif
#   From: 2010.05.17/outbox.cif.g08.bks.cpg/sg15_56_cif.got.tgz:111862.got - 2010.06.03 18:47:42.
