data_PCOD9304096
_publ_section_title
;
Structure prediction by ZEFSAII (Michael W. Deem and Ramdas Pophale) SiO2 
 PCOD9304096
Probable space group: C 2/C
;
_chemical_formula_sum "Si O2"
_cell_formula_units_Z 36
_cell_length_a 6.026239
_cell_length_b 18.978164
_cell_length_c 18.113903
_cell_angle_alpha 90.000000
_cell_angle_beta 69.899132
_cell_angle_gamma 90.000000
_cell_volume 1945.446801
_symmetry_space_group_name_H-M "C 2/C"
_symmetry_group_IT_number 15
_symmetry_cell_setting 'monoclinic'
loop_
_space_group_symop_operation_xyz
x,y,z
-x,y,1/2-z
-x,-y,-z
x,-y,1/2+z
1/2+x,1/2+y,z
1/2-x,1/2+y,1/2-z
1/2-x,1/2-y,-z
1/2+x,1/2-y,1/2+z
loop_
_atom_site_type_symbol
_atom_site_label
_atom_site_fract_x
_atom_site_fract_y
_atom_site_fract_z
Si Si1 0.297530 0.208419 0.707606
Si Si2 0.255407 0.539185 0.039785
Si Si3 0.871837 0.430758 0.114272
Si Si4 0.000000 0.980503 0.750000
Si Si5 0.253279 0.131348 0.322100
O O1 0.500000 0.198531 0.750000
O O2 0.372385 0.149488 0.640065
O O3 0.332296 0.288834 0.677717
O O4 0.000000 0.201145 0.750000
O O5 0.239198 0.606811 0.094324
O O6 0.102239 0.478645 0.097212
O O7 0.500000 0.500000 0.000000
O O8 0.176053 0.561772 0.967254
O O9 0.683467 0.469522 0.187859
O O10 0.904202 0.927583 0.699108
O O11 0.500000 0.127584 0.250000
#
# Coordination Sequence:
#
# PCOD9304096 Si02
#       5
#     8   8   8   4   8
#     4  11  26  44  69 102 134 175 228 281 334 399
#     4  11  24  41  64  98 134 175 224 275 333 402
#     4  11  25  40  67 100 130 173 229 278 333 396
#     4  12  20  40  68  96 122 180 220 284 326 398
#     4  11  23  42  67  92 134 175 224 272 341 394
#
# _framework density 18.504745
#
# number of rings (size 3 to 8) (size 9 to 14) (size 15 to 20)
#    0.000    0.889    6.667    0.000    6.222    0.889 
#    0.000    1.111    0.000    0.000    0.000    0.000 
#    0.000    0.000    0.000    0.000    0.000    0.000 
#
# Total GULP energy -100202.080642 kJ/mol
# GULP energy per Si atom -5566.782258 kJ/mol
# Density = 1.846263 g / cm^3
# Si number density = 18.504745 Si / 1000 Ang^3
#
#
#
# Elastic Constant Matrix: (Units=GPa)
#
#
# Indices 1 2 3 4 5 6 
#
# 1 69.2583 25.3313 34.5175 0.0000 -7.6999 0.0000
# 2 25.3313 111.1367 55.6481 0.0000 0.3451 0.0000
# 3 34.5175 55.6481 101.4600 0.0000 -17.4495 0.0000
# 4 0.0000 0.0000 0.0000 11.5151 0.0000 31.4991
# 5 -7.6999 0.3451 -17.4495 0.0000 26.2631 0.0000
# 6 0.0000 0.0000 0.0000 31.4991 0.0000 5.1160
#
#
#
# Elastic Compliance Matrix: (Units=1/GPa)
#
#
# Indices 1 2 3 4 5 6 
#
# 1 0.017633 -0.001651 -0.004743 0.000000 0.002040 0.000000
# 2 -0.001651 0.013246 -0.007696 0.000000 -0.005771 0.000000
# 3 -0.004743 -0.007696 0.017464 0.000000 0.010314 0.000000
# 4 0.000000 0.000000 0.000000 -0.005482 0.000000 0.033751
# 5 0.002040 -0.005771 0.010314 0.000000 0.045603 0.000000
# 6 0.000000 0.000000 0.000000 0.033751 0.000000 -0.012338
#
#
# Mechanical properties :
#
#
# Convention : Reuss Voigt Hill
#
# Bulk Modulus (GPa) = 49.59166 56.98321 53.28744
# Shear Modulus (GPa) = 45.03462 19.66937 32.35200
#
# Velocity S-wave (km/s) = 4.93859 3.26381 4.18581
# Velocity P-wave (km/s) = 7.70565 6.71297 7.22638
#
# Compressibility (1/GPa) = 0.02016468
#
# Stress axis : x y z
#
# Youngs Moduli (GPa) = 56.71197 75.49725 57.25936
#
# Poissons Ratio (x) = 0.12462 0.27156
# Poissons Ratio (y) = 0.09361 0.44066
# Poissons Ratio (z) = 0.26896 0.58101
#
# Static dielectric constant tensor:
#      x y z
#    x 1.754860 0.000000 0.032100 
#    y 0.000000 1.601280 0.000000 
#    z 0.032100 0.000000 1.587010 
# 
# From -- ./inp_files/128685.got.cif
#   From: 2010.05.17/outbox.cif.g08.bks.cpg/sg15_65_cif.got.tgz:128685.got - 2010.06.03 18:47:42.
