data_PCOD9304200
_publ_section_title
;
Structure prediction by ZEFSAII (Michael W. Deem and Ramdas Pophale) SiO2 
 PCOD9304200
Probable space group: C 2/C
;
_chemical_formula_sum "Si O2"
_cell_formula_units_Z 40
_cell_length_a 10.734422
_cell_length_b 9.761032
_cell_length_c 19.520422
_cell_angle_alpha 90.000000
_cell_angle_beta 119.704632
_cell_angle_gamma 90.000000
_cell_volume 1776.557044
_symmetry_space_group_name_H-M "C 2/C"
_symmetry_group_IT_number 15
_symmetry_cell_setting 'monoclinic'
loop_
_space_group_symop_operation_xyz
x,y,z
-x,y,1/2-z
-x,-y,-z
x,-y,1/2+z
1/2+x,1/2+y,z
1/2-x,1/2+y,1/2-z
1/2-x,1/2-y,-z
1/2+x,1/2-y,1/2+z
loop_
_atom_site_type_symbol
_atom_site_label
_atom_site_fract_x
_atom_site_fract_y
_atom_site_fract_z
Si Si1 0.137806 0.163221 0.048791
Si Si2 0.155068 0.330719 0.272590
Si Si3 0.114119 0.961153 0.688559
Si Si4 0.676326 0.785245 0.552397
Si Si5 0.304614 0.430019 0.086955
O O1 0.121929 0.066403 0.109235
O O2 0.251492 0.282367 0.096301
O O3 0.181874 0.085391 0.991871
O O4 0.986942 0.237573 0.993686
O O5 0.255984 0.436227 0.259196
O O6 0.238104 0.290606 0.364343
O O7 0.000000 0.391126 0.250000
O O8 0.872245 0.187658 0.273761
O O9 0.958440 0.026535 0.658790
O O10 0.750000 0.750000 0.500000
O O11 0.695262 0.946886 0.570883
#
# Coordination Sequence:
#
# PCOD9304200 Si02
#       5
#     8   8   8   8   8
#     4  11  24  44  71 105 132 173 234 288 336 406
#     4  12  27  45  68  99 141 184 227 276 347 408
#     4  12  26  46  68  99 141 183 225 285 344 407
#     4  12  22  44  73  99 133 179 229 281 338 406
#     4  11  23  42  73  99 134 174 227 287 341 400
#
# _framework density 22.515460999999998
#
# number of rings (size 3 to 8) (size 9 to 14) (size 15 to 20)
#    0.000    0.400    6.000    2.400    2.800    1.600 
#    3.600    0.000    0.000    0.000    0.000    0.000 
#    0.000    0.000    0.000    0.000    0.000    0.000 
#
# Total GULP energy -112096.906833 kJ/mol
# GULP energy per Si atom -5604.845342 kJ/mol
# Density = 2.246421 g / cm^3
# Si number density = 22.515461 Si / 1000 Ang^3
#
#
#
# Elastic Constant Matrix: (Units=GPa)
#
#
# Indices 1 2 3 4 5 6 
#
# 1 67.9629 30.0456 20.0559 0.0000 27.7649 0.0000
# 2 30.0456 99.2645 17.2004 0.0000 30.2359 0.0000
# 3 20.0559 17.2004 60.7199 0.0000 14.2786 0.0000
# 4 0.0000 0.0000 0.0000 38.4110 0.0000 10.5565
# 5 27.7649 30.2359 14.2786 0.0000 39.2559 0.0000
# 6 0.0000 0.0000 0.0000 10.5565 0.0000 48.2803
#
#
#
# Elastic Compliance Matrix: (Units=1/GPa)
#
#
# Indices 1 2 3 4 5 6 
#
# 1 0.021842 -0.002190 -0.003672 0.000000 -0.012426 0.000000
# 2 -0.002190 0.013503 -0.001116 0.000000 -0.008445 0.000000
# 3 -0.003672 -0.001116 0.018793 0.000000 -0.003379 0.000000
# 4 0.000000 0.000000 0.000000 0.027699 0.000000 -0.006056
# 5 -0.012426 -0.008445 -0.003379 0.000000 0.041997 0.000000
# 6 0.000000 0.000000 0.000000 -0.006056 0.000000 0.022037
#
#
# Mechanical properties :
#
#
# Convention : Reuss Voigt Hill
#
# Bulk Modulus (GPa) = 24.88671 40.28345 32.58508
# Shear Modulus (GPa) = 28.86523 35.89912 32.38217
#
# Velocity S-wave (km/s) = 3.58441 3.99735 3.79650
# Velocity P-wave (km/s) = 5.31111 6.26382 5.80703
#
# Compressibility (1/GPa) = 0.04018208
#
# Stress axis : x y z
#
# Youngs Moduli (GPa) = 45.78303 74.05893 53.21251
#
# Poissons Ratio (x) = 0.16219 0.19540
# Poissons Ratio (y) = 0.10026 0.05937
# Poissons Ratio (z) = 0.16812 0.08262
#
# Static dielectric constant tensor:
#      x y z
#    x 1.831120 0.000000 -0.025020 
#    y 0.000000 1.844810 0.000000 
#    z -0.025020 0.000000 1.819740 
# 
# From -- ./inp_files/267890.got.cif
#   From: 2010.05.17/outbox.cif.g08.bks.cpg/sg15_134_cif.got.tgz:267890.got - 2010.06.03 18:47:42.
