data_PCOD9304189
_publ_section_title
;
Structure prediction by ZEFSAII (Michael W. Deem and Ramdas Pophale) SiO2 
 PCOD9304189
Probable space group: C 2/C
;
_chemical_formula_sum "Si O2"
_cell_formula_units_Z 48
_cell_length_a 22.240401
_cell_length_b 5.606357
_cell_length_c 23.013557
_cell_angle_alpha 90.000000
_cell_angle_beta 128.565363
_cell_angle_gamma 90.000000
_cell_volume 2243.659387
_symmetry_space_group_name_H-M "C 2/C"
_symmetry_group_IT_number 15
_symmetry_cell_setting 'monoclinic'
loop_
_space_group_symop_operation_xyz
x,y,z
-x,y,1/2-z
-x,-y,-z
x,-y,1/2+z
1/2+x,1/2+y,z
1/2-x,1/2+y,1/2-z
1/2-x,1/2-y,-z
1/2+x,1/2-y,1/2+z
loop_
_atom_site_type_symbol
_atom_site_label
_atom_site_fract_x
_atom_site_fract_y
_atom_site_fract_z
Si Si1 0.702010 0.683860 0.853186
Si Si2 0.263658 0.426071 0.321428
Si Si3 0.130146 0.909445 0.709005
Si Si4 0.953893 0.164030 0.110451
Si Si5 0.793900 0.692305 0.465686
Si Si6 0.564565 0.160361 0.335534
O O1 0.642017 0.517252 0.781243
O O2 0.763109 0.572424 0.933961
O O3 0.647641 0.860396 0.855848
O O4 0.749580 0.803193 0.830865
O O5 0.186680 0.318169 0.246711
O O6 0.334020 0.420157 0.319157
O O7 0.274137 0.306198 0.390813
O O8 0.041699 0.859031 0.642160
O O9 0.955680 0.398718 0.152661
O O10 0.933176 0.899562 0.123041
O O11 0.883008 0.242953 0.027235
O O12 0.750000 0.750000 0.500000
O O13 0.500000 0.217867 0.250000
#
# Coordination Sequence:
#
# PCOD9304189 Si02
#       6
#     8   8   8   8   8   8
#     4  11  23  42  72  97 140 190 238 297 359 434
#     4  11  24  44  73  98 141 189 249 295 364 433
#     4  11  24  45  70 105 136 191 248 301 355 434
#     4  12  27  43  70 108 146 183 240 304 363 434
#     4  11  25  44  68 107 145 189 237 295 373 441
#     4  12  24  42  70 106 141 185 243 303 362 414
#
# _framework density 21.393619999999999
#
# number of rings (size 3 to 8) (size 9 to 14) (size 15 to 20)
#    0.000    0.667    5.000    2.500    4.667    2.000 
#    0.000    0.833    0.000    0.000    0.000    0.000 
#    0.000    0.000    0.000    0.000    0.000    0.000 
#
# Total GULP energy -133662.589461 kJ/mol
# GULP energy per Si atom -5569.274561 kJ/mol
# Density = 2.134493 g / cm^3
# Si number density = 21.393620 Si / 1000 Ang^3
#
#
#
# Elastic Constant Matrix: (Units=GPa)
#
#
# Indices 1 2 3 4 5 6 
#
# 1 121.6795 19.4454 40.2395 0.0001 8.0097 0.0009
# 2 19.4454 44.0223 -4.2772 -0.0002 -10.1765 0.0014
# 3 40.2395 -4.2772 102.7290 0.0001 15.8850 0.0007
# 4 0.0001 -0.0002 0.0001 22.5335 0.0004 4.1902
# 5 8.0097 -10.1765 15.8850 0.0004 33.0892 0.0007
# 6 0.0009 0.0014 0.0007 4.1902 0.0007 33.8442
#
#
#
# Elastic Compliance Matrix: (Units=1/GPa)
#
#
# Indices 1 2 3 4 5 6 
#
# 1 0.010602 -0.005620 -0.004021 0.000000 -0.002364 0.000000
# 2 -0.005620 0.027436 0.001975 0.000000 0.008850 -0.000001
# 3 -0.004021 0.001975 0.012041 0.000000 -0.004200 0.000000
# 4 0.000000 0.000000 0.000000 0.045424 0.000000 -0.005624
# 5 -0.002364 0.008850 -0.004200 0.000000 0.035532 -0.000001
# 6 0.000000 -0.000001 0.000000 -0.005624 -0.000001 0.030243
#
#
# Mechanical properties :
#
#
# Convention : Reuss Voigt Hill
#
# Bulk Modulus (GPa) = 28.77968 42.13846 35.45907
# Shear Modulus (GPa) = 26.56845 32.09492 29.33168
#
# Velocity S-wave (km/s) = 3.52786 3.87746 3.70678
# Velocity P-wave (km/s) = 5.48417 6.30759 5.91024
#
# Compressibility (1/GPa) = 0.03474674
#
# Stress axis : x y z
#
# Youngs Moduli (GPa) = 94.32216 36.44831 83.04869
#
# Poissons Ratio (x) = 0.20485 0.33396
# Poissons Ratio (y) = 0.53012 -0.16405
# Poissons Ratio (z) = 0.37929 -0.07200
#
# Static dielectric constant tensor:
#      x y z
#    x 1.764910 0.000000 -0.024960 
#    y 0.000000 1.940640 0.000000 
#    z -0.024960 0.000000 1.786980 
# 
# From -- ./inp_files/278831.got.cif
#   From: 2010.05.17/outbox.cif.g08.bks.cpg/sg15_140_cif.got.tgz:278831.got - 2010.06.03 18:47:42.
