data_PCOD9304310
_publ_section_title
;
Structure prediction by ZEFSAII (Michael W. Deem and Ramdas Pophale) SiO2 
 PCOD9304310
Probable space group: C 2/C
;
_chemical_formula_sum "Si O2"
_cell_formula_units_Z 40
_cell_length_a 27.629426
_cell_length_b 4.920588
_cell_length_c 11.018201
_cell_angle_alpha 90.000000
_cell_angle_beta 91.030849
_cell_angle_gamma 90.000000
_cell_volume 1497.715284
_symmetry_space_group_name_H-M "C 2/C"
_symmetry_group_IT_number 15
_symmetry_cell_setting 'monoclinic'
loop_
_space_group_symop_operation_xyz
x,y,z
-x,y,1/2-z
-x,-y,-z
x,-y,1/2+z
1/2+x,1/2+y,z
1/2-x,1/2+y,1/2-z
1/2-x,1/2-y,-z
1/2+x,1/2-y,1/2+z
loop_
_atom_site_type_symbol
_atom_site_label
_atom_site_fract_x
_atom_site_fract_y
_atom_site_fract_z
Si Si1 0.447322 0.677210 0.808879
Si Si2 0.160624 0.729217 0.213523
Si Si3 0.045944 0.334301 0.045841
Si Si4 0.647264 0.116326 0.465724
Si Si5 0.719374 0.502359 0.548067
O O1 0.500000 0.628541 0.750000
O O2 0.391266 0.618226 0.769760
O O3 0.453799 0.482668 0.926682
O O4 0.443707 0.001260 0.829846
O O5 0.168115 0.549839 0.334216
O O6 0.159115 0.549330 0.089569
O O7 0.204633 0.935134 0.186444
O O8 0.089547 0.392262 0.957285
O O9 0.000000 0.500000 0.000000
O O10 0.666853 0.421743 0.489974
O O11 0.750000 0.250000 0.500000
O O12 0.750000 0.750000 0.500000
#
# Coordination Sequence:
#
# PCOD9304310 Si02
#       5
#     8   8   8   8   8
#     4  11  23  43  70 110 155 206 257 321 392 475
#     4  11  26  50  80 118 164 208 270 337 405 490
#     4  11  23  43  69 111 154 206 259 319 387 472
#     4  11  26  50  80 120 161 212 268 336 406 488
#     4  12  26  52  76 112 151 208 265 336 405 476
#
# _framework density 26.707346000000001
#
# number of rings (size 3 to 8) (size 9 to 14) (size 15 to 20)
#    0.000    0.800    4.000    2.400    0.000    4.800 
#    0.000    0.000    0.000    0.000    0.000    0.000 
#    0.000    0.000    0.000    0.000    0.000    0.000 
#
# Total GULP energy -111510.011625 kJ/mol
# GULP energy per Si atom -5575.500581 kJ/mol
# Density = 2.664656 g / cm^3
# Si number density = 26.707346 Si / 1000 Ang^3
#
#
#
# Elastic Constant Matrix: (Units=GPa)
#
#
# Indices 1 2 3 4 5 6 
#
# 1 122.0560 26.5013 43.7213 0.0000 -38.1389 0.0000
# 2 26.5013 134.2760 42.1829 0.0000 -4.4415 0.0000
# 3 43.7213 42.1829 185.6931 0.0000 -29.5720 0.0000
# 4 0.0000 0.0000 0.0000 37.1153 0.0000 -6.3812
# 5 -38.1389 -4.4415 -29.5720 0.0000 51.9823 0.0000
# 6 0.0000 0.0000 0.0000 -6.3812 0.0000 45.9906
#
#
#
# Elastic Compliance Matrix: (Units=1/GPa)
#
#
# Indices 1 2 3 4 5 6 
#
# 1 0.011289 -0.001637 -0.001088 0.000000 0.007524 0.000000
# 2 -0.001637 0.008264 -0.001727 0.000000 -0.001478 0.000000
# 3 -0.001088 -0.001727 0.006469 0.000000 0.002735 0.000000
# 4 0.000000 0.000000 0.000000 0.027602 0.000000 0.003830
# 5 0.007524 -0.001478 0.002735 0.000000 0.026187 0.000000
# 6 0.000000 0.000000 0.000000 0.003830 0.000000 0.022275
#
#
# Mechanical properties :
#
#
# Convention : Reuss Voigt Hill
#
# Bulk Modulus (GPa) = 58.41910 74.09293 66.25602
# Shear Modulus (GPa) = 42.84605 48.99227 45.91916
#
# Velocity S-wave (km/s) = 4.00969 4.28765 4.15100
# Velocity P-wave (km/s) = 6.58469 7.23289 6.91639
#
# Compressibility (1/GPa) = 0.01711769
#
# Stress axis : x y z
#
# Youngs Moduli (GPa) = 88.58026 121.00340 154.57895
#
# Poissons Ratio (x) = 0.19814 0.16816
# Poissons Ratio (y) = 0.14505 0.26698
# Poissons Ratio (z) = 0.09636 0.20899
#
# Static dielectric constant tensor:
#      x y z
#    x 2.320820 0.000000 0.118230 
#    y 0.000000 2.154220 0.000000 
#    z 0.118230 0.000000 2.159810 
# 
# From -- ./inp_files/124914.got.cif
#   From: 2010.05.17/outbox.cif.g08.bks.cpg/sg15_63_cif.got.tgz:124914.got - 2010.06.03 18:47:42.
