data_PCOD9304852
_publ_section_title
;
Structure prediction by ZEFSAII (Michael W. Deem and Ramdas Pophale) SiO2 
 PCOD9304852
Probable space group: C 2/C
;
_chemical_formula_sum "Si O2"
_cell_formula_units_Z 48
_cell_length_a 13.183848
_cell_length_b 8.302466
_cell_length_c 27.915775
_cell_angle_alpha 90.000000
_cell_angle_beta 44.946270
_cell_angle_gamma 90.000000
_cell_volume 2158.620693
_symmetry_space_group_name_H-M "C 2/C"
_symmetry_group_IT_number 15
_symmetry_cell_setting 'monoclinic'
loop_
_space_group_symop_operation_xyz
x,y,z
-x,y,1/2-z
-x,-y,-z
x,-y,1/2+z
1/2+x,1/2+y,z
1/2-x,1/2+y,1/2-z
1/2-x,1/2-y,-z
1/2+x,1/2-y,1/2+z
loop_
_atom_site_type_symbol
_atom_site_label
_atom_site_fract_x
_atom_site_fract_y
_atom_site_fract_z
Si Si1 0.791073 0.808470 0.934294
Si Si2 0.852459 0.081493 0.281542
Si Si3 0.847445 0.731261 0.320838
Si Si4 0.109374 0.784137 0.409482
Si Si5 0.794694 0.315736 0.036753
Si Si6 0.098969 0.922978 0.842687
O O1 0.717995 0.698647 0.918065
O O2 0.962676 0.812192 0.877179
O O3 0.740298 0.994677 0.945986
O O4 0.750000 0.750000 0.000000
O O5 0.707407 0.177554 0.341002
O O6 0.856526 0.023664 0.225339
O O7 0.000000 0.169591 0.250000
O O8 0.853321 0.923176 0.313370
O O9 0.791755 0.714240 0.393888
O O10 0.726891 0.668740 0.325475
O O11 0.000000 0.667419 0.250000
O O12 0.966380 0.708846 0.480320
O O13 0.063152 0.936126 0.392612
O O14 0.750000 0.250000 0.000000
#
# Coordination Sequence:
#
# PCOD9304852 Si02
#       6
#     8   8   8   8   8   8
#     4  12  26  46  71 105 139 182 239 303 362 436
#     4  11  23  47  74 101 144 193 243 297 366 433
#     4  11  26  48  72 102 147 189 239 298 361 442
#     4  12  26  46  75 103 145 188 243 300 363 438
#     4  12  26  47  75 104 142 194 240 298 376 431
#     4  12  26  46  70 110 143 189 243 301 364 433
#
# _framework density 22.236421
#
# number of rings (size 3 to 8) (size 9 to 14) (size 15 to 20)
#    0.000    0.333    5.000    3.500    7.000    2.000 
#    3.000    0.000    0.000    0.000    0.000    0.000 
#    0.000    0.000    0.000    0.000    0.000    0.000 
#
# Total GULP energy -134061.287976 kJ/mol
# GULP energy per Si atom -5585.886999 kJ/mol
# Density = 2.218581 g / cm^3
# Si number density = 22.236421 Si / 1000 Ang^3
#
#
#
# Elastic Constant Matrix: (Units=GPa)
#
#
# Indices 1 2 3 4 5 6 
#
# 1 151.9850 14.1946 77.0664 0.0000 11.0264 0.0000
# 2 14.1946 17.3084 17.5197 0.0000 2.2624 0.0000
# 3 77.0664 17.5197 154.7385 0.0000 11.4609 0.0000
# 4 0.0000 0.0000 0.0000 25.4923 0.0000 1.1634
# 5 11.0264 2.2624 11.4609 0.0000 66.5287 0.0000
# 6 0.0000 0.0000 0.0000 1.1634 0.0000 32.4967
#
#
#
# Elastic Compliance Matrix: (Units=1/GPa)
#
#
# Indices 1 2 3 4 5 6 
#
# 1 0.008987 -0.003164 -0.004067 0.000000 -0.000681 0.000000
# 2 -0.003164 0.066428 -0.005892 0.000000 -0.000720 0.000000
# 3 -0.004067 -0.005892 0.009208 0.000000 -0.000712 0.000000
# 4 0.000000 0.000000 0.000000 0.039292 0.000000 -0.001407
# 5 -0.000681 -0.000720 -0.000712 0.000000 0.015291 0.000000
# 6 0.000000 0.000000 0.000000 -0.001407 0.000000 0.030823
#
#
# Mechanical properties :
#
#
# Convention : Reuss Voigt Hill
#
# Bulk Modulus (GPa) = 17.13017 60.17703 38.65360
# Shear Modulus (GPa) = 23.17670 39.25362 31.21516
#
# Velocity S-wave (km/s) = 3.23195 4.20609 3.75078
# Velocity P-wave (km/s) = 4.65271 7.12105 6.01486
#
# Compressibility (1/GPa) = 0.05837653
#
# Stress axis : x y z
#
# Youngs Moduli (GPa) = 111.27380 15.05383 108.60229
#
# Poissons Ratio (x) = 0.04763 0.44170
# Poissons Ratio (y) = 0.35210 0.63987
# Poissons Ratio (z) = 0.45256 0.08869
#
# Static dielectric constant tensor:
#      x y z
#    x 1.838170 0.000000 -0.092740 
#    y 0.000000 1.834280 0.000000 
#    z -0.092740 0.000000 1.873190 
# 
# From -- ./inp_files/312809.got.cif
#   From: 2010.05.17/outbox.cif.g08.bks.cpg/sg15_157_cif.got.tgz:312809.got - 2010.06.03 18:47:42.
