data_PCOD9304684
_publ_section_title
;
Structure prediction by ZEFSAII (Michael W. Deem and Ramdas Pophale) SiO2 
 PCOD9304684
Probable space group: C 2/C
;
_chemical_formula_sum "Si O2"
_cell_formula_units_Z 56
_cell_length_a 18.343174
_cell_length_b 14.441322
_cell_length_c 19.687800
_cell_angle_alpha 90.000000
_cell_angle_beta 151.804202
_cell_angle_gamma 90.000000
_cell_volume 2464.153116
_symmetry_space_group_name_H-M "C 2/C"
_symmetry_group_IT_number 15
_symmetry_cell_setting 'monoclinic'
loop_
_space_group_symop_operation_xyz
x,y,z
-x,y,1/2-z
-x,-y,-z
x,-y,1/2+z
1/2+x,1/2+y,z
1/2-x,1/2+y,1/2-z
1/2-x,1/2-y,-z
1/2+x,1/2-y,1/2+z
loop_
_atom_site_type_symbol
_atom_site_label
_atom_site_fract_x
_atom_site_fract_y
_atom_site_fract_z
Si Si1 0.000000 0.537071 0.750000
Si Si2 0.070921 0.762765 0.038645
Si Si3 0.671177 0.476687 0.444854
Si Si4 0.500000 0.350507 0.750000
Si Si5 0.747178 0.809372 0.067300
Si Si6 0.604680 0.191971 0.734334
Si Si7 0.596505 0.568550 0.031736
Si Si8 0.615066 0.168375 0.207670
O O1 0.850926 0.477145 0.612115
O O2 0.966936 0.605470 0.785664
O O3 0.211348 0.818279 0.119750
O O4 0.146848 0.695609 0.155960
O O5 0.973316 0.709143 0.902363
O O6 0.968626 0.832025 0.999179
O O7 0.624871 0.579348 0.383733
O O8 0.662421 0.403205 0.376764
O O9 0.579028 0.450892 0.437577
O O10 0.570612 0.283510 0.751165
O O11 0.824891 0.747026 0.189929
O O12 0.750000 0.750000 0.000000
O O13 0.569711 0.836028 0.937476
O O14 0.780496 0.577501 0.194913
O O15 0.500000 0.500000 0.000000
#
# Coordination Sequence:
#
# PCOD9304684 Si02
#       8
#     4   8   8   4   8   8   8   8
#     4  11  24  46  69 102 132 178 229 298 346 413
#     4  12  23  43  69  99 134 183 226 278 344 431
#     4  12  26  43  70 101 141 175 231 294 348 408
#     4  11  26  44  69 106 134 176 231 294 348 423
#     4  12  25  43  72 101 140 188 236 290 351 420
#     4  11  23  45  74  97 136 180 231 282 359 422
#     4  12  25  43  68 101 141 185 231 286 349 420
#     4  12  24  45  68 106 141 187 237 284 358 428
#
# _framework density 22.725860000000001
#
# number of rings (size 3 to 8) (size 9 to 14) (size 15 to 20)
#    0.000    0.286    4.286    4.714    4.000    2.286 
#    0.000    0.000    0.000    5.143    0.000    0.000 
#    0.000    0.000    0.000    0.000    0.000    0.000 
#
# Total GULP energy -156740.803151 kJ/mol
# GULP energy per Si atom -5597.885827 kJ/mol
# Density = 2.267413 g / cm^3
# Si number density = 22.725860 Si / 1000 Ang^3
#
#
#
# Elastic Constant Matrix: (Units=GPa)
#
#
# Indices 1 2 3 4 5 6 
#
# 1 111.6968 40.0902 40.3296 0.0001 -0.5254 0.0003
# 2 40.0902 74.5143 8.3519 -0.0002 -4.9538 0.0008
# 3 40.3296 8.3519 114.3344 -0.0013 4.7791 0.0003
# 4 0.0001 -0.0002 -0.0013 25.0312 -0.0005 10.9181
# 5 -0.5254 -4.9538 4.7791 -0.0005 51.1386 0.0001
# 6 0.0003 0.0008 0.0003 10.9181 0.0001 40.5893
#
#
#
# Elastic Compliance Matrix: (Units=1/GPa)
#
#
# Indices 1 2 3 4 5 6 
#
# 1 0.012691 -0.006386 -0.004005 0.000000 -0.000114 0.000000
# 2 -0.006386 0.016847 0.000960 0.000000 0.001477 0.000000
# 3 -0.004005 0.000960 0.010126 0.000001 -0.000894 0.000000
# 4 0.000000 0.000000 0.000001 0.045260 0.000000 -0.012175
# 5 -0.000114 0.001477 -0.000894 0.000000 0.019780 0.000000
# 6 0.000000 0.000000 0.000000 -0.012175 0.000000 0.027912
#
#
# Mechanical properties :
#
#
# Convention : Reuss Voigt Hill
#
# Bulk Modulus (GPa) = 48.07405 53.12099 50.59752
# Shear Modulus (GPa) = 31.56322 37.47009 34.51665
#
# Velocity S-wave (km/s) = 3.73080 4.06493 3.90144
# Velocity P-wave (km/s) = 6.30542 6.74218 6.52745
#
# Compressibility (1/GPa) = 0.02080124
#
# Stress axis : x y z
#
# Youngs Moduli (GPa) = 78.79847 59.35844 98.75323
#
# Poissons Ratio (x) = 0.37909 0.39552
# Poissons Ratio (y) = 0.50324 -0.09484
# Poissons Ratio (z) = 0.31560 -0.05701
#
# Static dielectric constant tensor:
#      x y z
#    x 1.806210 0.000000 0.052760 
#    y 0.000000 1.859650 0.000000 
#    z 0.052760 0.000000 1.854600 
# 
# From -- ./inp_files/249308.got.cif
#   From: 2010.05.17/outbox.cif.g08.bks.cpg/sg15_125_cif.got.tgz:249308.got - 2010.06.03 18:47:42.
