data_PCOD9304517
_publ_section_title
;
Structure prediction by ZEFSAII (Michael W. Deem and Ramdas Pophale) SiO2 
 PCOD9304517
Probable space group: C 2/C
;
_chemical_formula_sum "Si O2"
_cell_formula_units_Z 32
_cell_length_a 7.846697
_cell_length_b 17.261766
_cell_length_c 19.735475
_cell_angle_alpha 90.000000
_cell_angle_beta 33.206917
_cell_angle_gamma 90.000000
_cell_volume 1463.976393
_symmetry_space_group_name_H-M "C 2/C"
_symmetry_group_IT_number 15
_symmetry_cell_setting 'monoclinic'
loop_
_space_group_symop_operation_xyz
x,y,z
-x,y,1/2-z
-x,-y,-z
x,-y,1/2+z
1/2+x,1/2+y,z
1/2-x,1/2+y,1/2-z
1/2-x,1/2-y,-z
1/2+x,1/2-y,1/2+z
loop_
_atom_site_type_symbol
_atom_site_label
_atom_site_fract_x
_atom_site_fract_y
_atom_site_fract_z
Si Si1 0.288126 0.367656 0.955004
Si Si2 0.560489 0.212608 0.811398
Si Si3 0.695536 0.671968 0.562649
Si Si4 0.122865 0.018264 0.884744
O O1 0.155522 0.346290 0.074059
O O2 0.999766 0.358099 0.999545
O O3 0.504323 0.297037 0.860514
O O4 0.471100 0.448230 0.891383
O O5 0.500000 0.212357 0.750000
O O6 0.917099 0.193680 0.704867
O O7 0.750000 0.750000 0.500000
O O8 0.542609 0.599179 0.576204
O O9 0.500000 0.020682 0.750000
O O10 0.000000 0.000000 0.000000
#
# Coordination Sequence:
#
# PCOD9304517 Si02
#       4
#     8   8   8   8
#     4  11  26  44  77 105 149 198 249 299 385 436
#     4  11  23  44  71 109 147 192 246 307 367 447
#     4  12  25  46  75 106 151 190 250 304 375 442
#     4  12  29  48  74 110 153 197 250 312 373 443
#
# _framework density 21.858274999999999
#
# number of rings (size 3 to 8) (size 9 to 14) (size 15 to 20)
#    0.000    0.500    2.500    5.250    7.000    0.000 
#    0.000    2.500    0.000    0.000    0.000    0.000 
#    0.000    0.000    0.000    0.000    0.000    0.000 
#
# Total GULP energy -89415.529999 kJ/mol
# GULP energy per Si atom -5588.470625 kJ/mol
# Density = 2.180852 g / cm^3
# Si number density = 21.858275 Si / 1000 Ang^3
#
#
#
# Elastic Constant Matrix: (Units=GPa)
#
#
# Indices 1 2 3 4 5 6 
#
# 1 133.0164 85.3936 64.9137 0.0028 -7.5012 -0.0279
# 2 85.3936 203.2970 87.9392 -0.0803 -28.0125 0.0256
# 3 64.9137 87.9392 106.0546 -0.3309 4.4729 -0.1120
# 4 0.0028 -0.0803 -0.3309 21.5841 0.1394 -29.1681
# 5 -7.5012 -28.0125 4.4729 0.1394 37.3599 0.0441
# 6 -0.0279 0.0256 -0.1120 -29.1681 0.0441 19.4583
#
#
#
# Elastic Compliance Matrix: (Units=1/GPa)
#
#
# Indices 1 2 3 4 5 6 
#
# 1 0.011707 -0.002588 -0.005062 0.000108 0.001016 0.000150
# 2 -0.002588 0.010251 -0.007254 0.000223 0.008034 0.000257
# 3 -0.005062 -0.007254 0.018908 -0.000484 -0.008716 -0.000595
# 4 0.000108 0.000223 -0.000484 -0.045154 0.000495 -0.067690
# 5 0.001016 0.008034 -0.008716 0.000495 0.034035 0.000606
# 6 0.000150 0.000257 -0.000595 -0.067690 0.000606 -0.050081
#
#
# Mechanical properties :
#
#
# Convention : Reuss Voigt Hill
#
# Bulk Modulus (GPa) = 90.43160 102.09565 96.26363
# Shear Modulus (GPa) = 379.99124 29.28855 204.63990
#
# Velocity S-wave (km/s) = 13.19927 3.66448 9.68630
# Velocity P-wave (km/s) = 16.54557 8.04450 13.00903
#
# Compressibility (1/GPa) = 0.01105808
#
# Stress axis : x y z
#
# Youngs Moduli (GPa) = 85.42041 97.55597 52.88866
#
# Poissons Ratio (x) = 0.25244 0.26773
# Poissons Ratio (y) = 0.22104 0.38363
# Poissons Ratio (z) = 0.43241 0.70763
#
# Static dielectric constant tensor:
#      x y z
#    x 1.975020 0.002350 0.042520 
#    y 0.002350 2.435780 0.000830 
#    z 0.042520 0.000830 1.820170 
# 
# From -- ./inp_files/232419.got.cif
#   From: 2010.05.17/outbox.cif.g08.bks.cpg/sg15_117_cif.got.tgz:232419.got - 2010.06.03 18:47:42.
