data_PCOD9304926
_publ_section_title
;
Structure prediction by ZEFSAII (Michael W. Deem and Ramdas Pophale) SiO2 
 PCOD9304926
Probable space group: C 2/C
;
_chemical_formula_sum "Si O2"
_cell_formula_units_Z 40
_cell_length_a 10.857525
_cell_length_b 8.605220
_cell_length_c 20.018216
_cell_angle_alpha 90.000000
_cell_angle_beta 52.822020
_cell_angle_gamma 90.000000
_cell_volume 1490.208100
_symmetry_space_group_name_H-M "C 2/C"
_symmetry_group_IT_number 15
_symmetry_cell_setting 'monoclinic'
loop_
_space_group_symop_operation_xyz
x,y,z
-x,y,1/2-z
-x,-y,-z
x,-y,1/2+z
1/2+x,1/2+y,z
1/2-x,1/2+y,1/2-z
1/2-x,1/2-y,-z
1/2+x,1/2-y,1/2+z
loop_
_atom_site_type_symbol
_atom_site_label
_atom_site_fract_x
_atom_site_fract_y
_atom_site_fract_z
Si Si1 0.908614 0.645977 0.397340
Si Si2 0.942589 0.945194 0.089829
Si Si3 0.781020 0.092262 0.449098
Si Si4 0.125297 0.599652 0.754644
Si Si5 0.184999 0.886747 0.175912
O O1 0.028800 0.545307 0.315129
O O2 0.810606 0.532909 0.476040
O O3 0.804948 0.749148 0.381412
O O4 0.996836 0.773940 0.412605
O O5 0.761810 0.945356 0.159710
O O6 0.035383 0.060838 0.107792
O O7 0.000000 0.000000 0.000000
O O8 0.750000 0.250000 0.500000
O O9 0.747428 0.041229 0.383451
O O10 0.219507 0.655868 0.789091
O O11 0.000000 0.690852 0.750000
O O12 0.000000 0.899860 0.250000
#
# Coordination Sequence:
#
# PCOD9304926 Si02
#       5
#     8   8   8   8   8
#     4  11  26  51  85 122 167 232 275 359 439 501
#     4  11  25  50  81 118 171 220 285 351 429 507
#     4  11  26  51  83 128 169 227 292 354 427 530
#     4  12  27  48  84 127 165 223 292 351 433 516
#     4  11  23  53  86 118 168 230 286 353 438 506
#
# _framework density 26.841888000000001
#
# number of rings (size 3 to 8) (size 9 to 14) (size 15 to 20)
#    0.000    0.800    4.000    4.200    2.800    4.000 
#    3.600    1.000    0.000    0.000    0.000    0.000 
#    0.000    0.000    0.000    0.000    0.000    0.000 
#
# Total GULP energy -112061.901603 kJ/mol
# GULP energy per Si atom -5603.095080 kJ/mol
# Density = 2.678079 g / cm^3
# Si number density = 26.841888 Si / 1000 Ang^3
#
#
#
# Elastic Constant Matrix: (Units=GPa)
#
#
# Indices 1 2 3 4 5 6 
#
# 1 194.7023 54.6830 76.8749 0.0000 3.8193 0.0000
# 2 54.6830 139.6658 52.5165 0.0000 -4.5588 0.0000
# 3 76.8749 52.5165 181.7476 0.0000 1.2513 0.0000
# 4 0.0000 0.0000 0.0000 48.9233 0.0000 -6.6696
# 5 3.8193 -4.5588 1.2513 0.0000 61.6271 0.0000
# 6 0.0000 0.0000 0.0000 -6.6696 0.0000 40.2890
#
#
#
# Elastic Compliance Matrix: (Units=1/GPa)
#
#
# Indices 1 2 3 4 5 6 
#
# 1 0.006520 -0.001720 -0.002258 0.000000 -0.000485 0.000000
# 2 -0.001720 0.008512 -0.001737 0.000000 0.000771 0.000000
# 3 -0.002258 -0.001737 0.006960 0.000000 -0.000130 0.000000
# 4 0.000000 0.000000 0.000000 0.020912 0.000000 0.003462
# 5 -0.000485 0.000771 -0.000130 0.000000 0.016316 0.000000
# 6 0.000000 0.000000 0.000000 0.003462 0.000000 0.025394
#
#
# Mechanical properties :
#
#
# Convention : Reuss Voigt Hill
#
# Bulk Modulus (GPa) = 94.67613 98.25161 96.46387
# Shear Modulus (GPa) = 50.21902 52.30396 51.26149
#
# Velocity S-wave (km/s) = 4.33011 4.41908 4.37482
# Velocity P-wave (km/s) = 7.76840 7.91966 7.84440
#
# Compressibility (1/GPa) = 0.01056232
#
# Stress axis : x y z
#
# Youngs Moduli (GPa) = 153.37679 117.48483 143.67960
#
# Poissons Ratio (x) = 0.20204 0.32436
# Poissons Ratio (y) = 0.26376 0.24963
# Poissons Ratio (z) = 0.34625 0.20412
#
# Static dielectric constant tensor:
#      x y z
#    x 2.202650 0.000000 0.088860 
#    y 0.000000 2.127530 0.000000 
#    z 0.088860 0.000000 2.089390 
# 
# From -- ./inp_files/229780.got.cif
#   From: 2010.05.17/outbox.cif.g08.bks.cpg/sg15_115_cif.got.tgz:229780.got - 2010.06.03 18:47:42.
