data_PCOD9304435
_publ_section_title
;
Structure prediction by ZEFSAII (Michael W. Deem and Ramdas Pophale) SiO2 
 PCOD9304435
Probable space group: C 2/C
;
_chemical_formula_sum "Si O2"
_cell_formula_units_Z 52
_cell_length_a 21.181032
_cell_length_b 9.745978
_cell_length_c 17.315888
_cell_angle_alpha 90.000000
_cell_angle_beta 136.477109
_cell_angle_gamma 90.000000
_cell_volume 2461.570530
_symmetry_space_group_name_H-M "C 2/C"
_symmetry_group_IT_number 15
_symmetry_cell_setting 'monoclinic'
loop_
_space_group_symop_operation_xyz
x,y,z
-x,y,1/2-z
-x,-y,-z
x,-y,1/2+z
1/2+x,1/2+y,z
1/2-x,1/2+y,1/2-z
1/2-x,1/2-y,-z
1/2+x,1/2-y,1/2+z
loop_
_atom_site_type_symbol
_atom_site_label
_atom_site_fract_x
_atom_site_fract_y
_atom_site_fract_z
Si Si1 0.786881 0.101839 0.760814
Si Si2 0.257275 0.888453 0.458693
Si Si3 0.954958 0.515403 0.081436
Si Si4 0.000000 0.332997 0.250000
Si Si5 0.541172 0.216543 0.039727
Si Si6 0.334463 0.659447 0.101503
Si Si7 0.145831 0.192764 0.197740
O O1 0.775323 0.126338 0.658856
O O2 0.874922 0.184279 0.868896
O O3 0.698389 0.168623 0.721730
O O4 0.801931 0.940701 0.789321
O O5 0.250000 0.750000 0.500000
O O6 0.362082 0.942767 0.543818
O O7 0.192301 0.003900 0.439345
O O8 0.022484 0.435531 0.199692
O O9 0.002264 0.644391 0.082596
O O10 0.929876 0.407746 0.991452
O O11 0.923767 0.232257 0.147423
O O12 0.456538 0.295948 0.925272
O O13 0.350222 0.672452 0.207156
O O14 0.250000 0.750000 0.000000
#
# Coordination Sequence:
#
# PCOD9304435 Si02
#       7
#     8   8   8   4   8   8   8
#     4  11  25  42  69  96 134 175 220 278 341 397
#     4  11  25  47  63  99 138 174 223 277 339 402
#     4  11  24  44  70  97 135 175 225 278 338 403
#     4  12  24  42  70 100 132 180 222 272 334 402
#     4  11  23  44  68 100 133 173 226 281 337 404
#     4  11  24  43  68  94 132 178 225 269 331 403
#     4  11  24  44  66  98 133 172 225 277 335 402
#
# _framework density 21.124725000000002
#
# number of rings (size 3 to 8) (size 9 to 14) (size 15 to 20)
#    0.000    0.923    4.615    2.308    4.308    1.231 
#    5.538    0.000    0.000    0.000    0.000    0.000 
#    0.000    0.000    0.000    0.000    0.000    0.000 
#
# Total GULP energy -145385.523461 kJ/mol
# GULP energy per Si atom -5591.750902 kJ/mol
# Density = 2.107664 g / cm^3
# Si number density = 21.124725 Si / 1000 Ang^3
#
#
#
# Elastic Constant Matrix: (Units=GPa)
#
#
# Indices 1 2 3 4 5 6 
#
# 1 41.0454 16.5253 4.4911 0.0000 3.3125 0.0000
# 2 16.5253 95.1349 20.9669 0.0000 -6.3572 0.0000
# 3 4.4911 20.9669 80.2664 0.0000 19.3284 0.0000
# 4 0.0000 0.0000 0.0000 35.8657 0.0000 -0.5247
# 5 3.3125 -6.3572 19.3284 0.0000 27.7645 0.0000
# 6 0.0000 0.0000 0.0000 -0.5247 0.0000 38.0772
#
#
#
# Elastic Compliance Matrix: (Units=1/GPa)
#
#
# Indices 1 2 3 4 5 6 
#
# 1 0.026769 -0.005241 0.001117 0.000000 -0.005171 0.000000
# 2 -0.005241 0.012927 -0.004742 0.000000 0.006886 0.000000
# 3 0.001117 -0.004742 0.016733 0.000000 -0.012868 0.000000
# 4 0.000000 0.000000 0.000000 0.027887 0.000000 0.000384
# 5 -0.005171 0.006886 -0.012868 0.000000 0.047169 0.000000
# 6 0.000000 0.000000 0.000000 0.000384 0.000000 0.026268
#
#
# Mechanical properties :
#
#
# Convention : Reuss Voigt Hill
#
# Bulk Modulus (GPa) = 25.84254 33.37925 29.61089
# Shear Modulus (GPa) = 26.54140 31.97236 29.25688
#
# Velocity S-wave (km/s) = 3.54844 3.89460 3.72554
# Velocity P-wave (km/s) = 5.38966 6.00493 5.70559
#
# Compressibility (1/GPa) = 0.03869589
#
# Stress axis : x y z
#
# Youngs Moduli (GPa) = 37.35707 77.35726 59.76119
#
# Poissons Ratio (x) = 0.40546 -0.06673
# Poissons Ratio (y) = 0.19581 0.28337
# Poissons Ratio (z) = -0.04171 0.36680
#
# Static dielectric constant tensor:
#      x y z
#    x 1.782070 0.000000 0.015340 
#    y 0.000000 1.761340 0.000000 
#    z 0.015340 0.000000 1.746890 
# 
# From -- ./inp_files/255078.got.cif
#   From: 2010.05.17/outbox.cif.g08.bks.cpg/sg15_128_cif.got.tgz:255078.got - 2010.06.03 18:47:42.
