data_PCOD9304763
_publ_section_title
;
Structure prediction by ZEFSAII (Michael W. Deem and Ramdas Pophale) SiO2 
 PCOD9304763
Probable space group: C 2/C
;
_chemical_formula_sum "Si O2"
_cell_formula_units_Z 44
_cell_length_a 12.407777
_cell_length_b 10.617819
_cell_length_c 16.239629
_cell_angle_alpha 90.000000
_cell_angle_beta 55.275860
_cell_angle_gamma 90.000000
_cell_volume 1758.435962
_symmetry_space_group_name_H-M "C 2/C"
_symmetry_group_IT_number 15
_symmetry_cell_setting 'monoclinic'
loop_
_space_group_symop_operation_xyz
x,y,z
-x,y,1/2-z
-x,-y,-z
x,-y,1/2+z
1/2+x,1/2+y,z
1/2-x,1/2+y,1/2-z
1/2-x,1/2-y,-z
1/2+x,1/2-y,1/2+z
loop_
_atom_site_type_symbol
_atom_site_label
_atom_site_fract_x
_atom_site_fract_y
_atom_site_fract_z
Si Si1 0.323405 0.290090 0.550980
Si Si2 0.560777 0.880158 0.919617
Si Si3 0.646627 0.408191 0.195988
Si Si4 0.314561 0.348086 0.910320
Si Si5 0.500000 0.806475 0.250000
Si Si6 0.210178 0.495216 0.711096
O O1 0.250000 0.250000 0.500000
O O2 0.469380 0.240566 0.472630
O O3 0.257557 0.196699 0.645731
O O4 0.281603 0.424276 0.604950
O O5 0.703854 0.842856 0.888007
O O6 0.591918 0.923366 0.812837
O O7 0.500000 0.000000 0.000000
O O8 0.500000 0.358387 0.250000
O O9 0.663227 0.501608 0.109268
O O10 0.679099 0.474094 0.268827
O O11 0.458843 0.289375 0.838950
O O12 0.250000 0.250000 0.000000
O O13 0.372041 0.887465 0.287947
#
# Coordination Sequence:
#
# PCOD9304763 Si02
#       6
#     8   8   8   8   4   8
#     4  12  28  47  74 109 155 195 247 309 383 451
#     4  11  23  46  72 106 144 191 245 306 374 443
#     4  11  27  46  71 107 147 191 251 306 373 448
#     4  11  25  40  74 101 141 183 240 305 354 439
#     4  12  26  46  70 104 140 192 260 282 380 432
#     4  11  27  46  75 102 151 202 240 318 373 448
#
# _framework density 25.022237000000001
#
# number of rings (size 3 to 8) (size 9 to 14) (size 15 to 20)
#    0.000    0.727    4.545    2.182   14.000    0.000 
#    0.000    1.818    0.000    0.000    0.000    0.000 
#    0.000    0.000    0.000    0.000    0.000    0.000 
#
# Total GULP energy -122633.098513 kJ/mol
# GULP energy per Si atom -5574.231751 kJ/mol
# Density = 2.496529 g / cm^3
# Si number density = 25.022237 Si / 1000 Ang^3
#
#
#
# Elastic Constant Matrix: (Units=GPa)
#
#
# Indices 1 2 3 4 5 6 
#
# 1 78.6914 18.3059 7.4469 0.0000 -10.1865 0.0000
# 2 18.3059 71.2981 0.2203 0.0000 -4.1936 0.0000
# 3 7.4469 0.2203 66.5247 0.0000 1.8436 0.0000
# 4 0.0000 0.0000 0.0000 42.7378 0.0000 -20.2079
# 5 -10.1865 -4.1936 1.8436 0.0000 48.4591 0.0000
# 6 0.0000 0.0000 0.0000 -20.2079 0.0000 34.0953
#
#
#
# Elastic Compliance Matrix: (Units=1/GPa)
#
#
# Indices 1 2 3 4 5 6 
#
# 1 0.014012 -0.003433 -0.001632 0.000000 0.002710 0.000000
# 2 -0.003433 0.014939 0.000319 0.000000 0.000559 0.000000
# 3 -0.001632 0.000319 0.015238 0.000000 -0.000895 0.000000
# 4 0.000000 0.000000 0.000000 0.032509 0.000000 0.019268
# 5 0.002710 0.000559 -0.000895 0.000000 0.021288 0.000000
# 6 0.000000 0.000000 0.000000 0.019268 0.000000 0.040749
#
#
# Mechanical properties :
#
#
# Convention : Reuss Voigt Hill
#
# Bulk Modulus (GPa) = 28.82071 29.82893 29.32482
# Shear Modulus (GPa) = 31.29041 37.76117 34.52579
#
# Velocity S-wave (km/s) = 3.54008 3.88893 3.71860
# Velocity P-wave (km/s) = 5.31532 5.66674 5.49384
#
# Compressibility (1/GPa) = 0.03469727
#
# Stress axis : x y z
#
# Youngs Moduli (GPa) = 71.36822 66.93908 65.62331
#
# Poissons Ratio (x) = 0.22981 0.10711
# Poissons Ratio (y) = 0.24501 -0.02096
# Poissons Ratio (z) = 0.11649 -0.02138
#
# Static dielectric constant tensor:
#      x y z
#    x 2.419870 0.000000 0.094720 
#    y 0.000000 2.275210 0.000000 
#    z 0.094720 0.000000 2.062020 
# 
# From -- ./inp_files/196446.got.cif
#   From: 2010.05.17/outbox.cif.g08.bks.cpg/sg15_99_cif.got.tgz:196446.got - 2010.06.03 18:47:42.
