data_PCOD9304858
_publ_section_title
;
Structure prediction by ZEFSAII (Michael W. Deem and Ramdas Pophale) SiO2 
 PCOD9304858
Probable space group: C 2/C
;
_chemical_formula_sum "Si O2"
_cell_formula_units_Z 44
_cell_length_a 28.320402
_cell_length_b 8.116341
_cell_length_c 9.253544
_cell_angle_alpha 90.000000
_cell_angle_beta 127.526111
_cell_angle_gamma 90.000000
_cell_volume 1686.873472
_symmetry_space_group_name_H-M "C 2/C"
_symmetry_group_IT_number 15
_symmetry_cell_setting 'monoclinic'
loop_
_space_group_symop_operation_xyz
x,y,z
-x,y,1/2-z
-x,-y,-z
x,-y,1/2+z
1/2+x,1/2+y,z
1/2-x,1/2+y,1/2-z
1/2-x,1/2-y,-z
1/2+x,1/2-y,1/2+z
loop_
_atom_site_type_symbol
_atom_site_label
_atom_site_fract_x
_atom_site_fract_y
_atom_site_fract_z
Si Si1 0.680933 0.457215 0.976528
Si Si2 0.388135 0.373373 0.931821
Si Si3 0.456052 0.140258 0.864821
Si Si4 0.356136 0.889999 0.955361
Si Si5 0.791963 0.591236 0.060293
Si Si6 0.500000 0.422074 0.750000
O O1 0.638212 0.463316 0.758002
O O2 0.665590 0.290803 0.033245
O O3 0.664240 0.610693 0.048336
O O4 0.747839 0.454667 0.045376
O O5 0.412468 0.202503 0.912348
O O6 0.443153 0.467171 0.107969
O O7 0.418501 0.087780 0.653332
O O8 0.489025 0.304649 0.868007
O O9 0.500000 0.000000 0.000000
O O10 0.312588 0.023941 0.945977
O O11 0.348819 0.889568 0.770507
O O12 0.750000 0.750000 0.000000
#
# Coordination Sequence:
#
# PCOD9304858 Si02
#       6
#     8   8   8   8   8   4
#     4  11  24  46  73 104 140 187 247 299 369 439
#     4  11  23  47  75 103 141 193 247 304 361 460
#     4  11  28  46  74 109 154 194 246 316 377 438
#     4  11  25  48  69 106 146 189 247 304 370 449
#     4  12  26  44  74 105 147 191 242 303 379 443
#     4  12  24  50  70 106 144 190 264 290 376 448
#
# _framework density 26.083756000000001
#
# number of rings (size 3 to 8) (size 9 to 14) (size 15 to 20)
#    0.000    0.727    3.636    4.364    2.545    5.091 
#    3.273    0.000    0.000    0.000    0.000    0.000 
#    0.000    0.000    0.000    0.000    0.000    0.000 
#
# Total GULP energy -123347.429462 kJ/mol
# GULP energy per Si atom -5606.701339 kJ/mol
# Density = 2.602439 g / cm^3
# Si number density = 26.083756 Si / 1000 Ang^3
#
#
#
# Elastic Constant Matrix: (Units=GPa)
#
#
# Indices 1 2 3 4 5 6 
#
# 1 50.0870 4.0899 -7.6739 0.0000 -8.1577 0.0000
# 2 4.0899 103.8424 30.8628 0.0000 2.1072 0.0000
# 3 -7.6739 30.8628 120.0248 0.0000 10.2401 0.0000
# 4 0.0000 0.0000 0.0000 45.5998 0.0000 3.8459
# 5 -8.1577 2.1072 10.2401 0.0000 39.9138 0.0000
# 6 0.0000 0.0000 0.0000 3.8459 0.0000 49.3709
#
#
#
# Elastic Compliance Matrix: (Units=1/GPa)
#
#
# Indices 1 2 3 4 5 6 
#
# 1 0.020928 -0.001301 0.001331 0.000000 0.004004 0.000000
# 2 -0.001301 0.010508 -0.002776 0.000000 -0.000109 0.000000
# 3 0.001331 -0.002776 0.009298 0.000000 -0.001967 0.000000
# 4 0.000000 0.000000 0.000000 0.022075 0.000000 -0.001720
# 5 0.004004 -0.000109 -0.001967 0.000000 0.026383 0.000000
# 6 0.000000 0.000000 0.000000 -0.001720 0.000000 0.020389
#
#
# Mechanical properties :
#
#
# Convention : Reuss Voigt Hill
#
# Bulk Modulus (GPa) = 28.37516 36.50132 32.43824
# Shear Modulus (GPa) = 39.42574 43.42194 41.42384
#
# Velocity S-wave (km/s) = 3.89203 4.08451 3.98943
# Velocity P-wave (km/s) = 5.57667 6.02234 5.80379
#
# Compressibility (1/GPa) = 0.03524209
#
# Stress axis : x y z
#
# Youngs Moduli (GPa) = 47.78373 95.16119 107.54604
#
# Poissons Ratio (x) = 0.12381 -0.14314
# Poissons Ratio (y) = 0.06217 0.29855
# Poissons Ratio (z) = -0.06360 0.26417
#
# Static dielectric constant tensor:
#      x y z
#    x 2.167900 0.000000 -0.010260 
#    y 0.000000 2.104040 0.000000 
#    z -0.010260 0.000000 1.971970 
# 
# From -- ./inp_files/68668.got.cif
#   From: 2010.05.17/outbox.cif.g08.bks.cpg/sg15_35_cif.got.tgz:68668.got - 2010.06.03 18:47:42.
