data_PCOD9304829
_publ_section_title
;
Structure prediction by ZEFSAII (Michael W. Deem and Ramdas Pophale) SiO2 
 PCOD9304829
Probable space group: C 2/C
;
_chemical_formula_sum "Si O2"
_cell_formula_units_Z 44
_cell_length_a 14.158141
_cell_length_b 12.545120
_cell_length_c 19.801836
_cell_angle_alpha 90.000000
_cell_angle_beta 28.052467
_cell_angle_gamma 90.000000
_cell_volume 1654.028277
_symmetry_space_group_name_H-M "C 2/C"
_symmetry_group_IT_number 15
_symmetry_cell_setting 'monoclinic'
loop_
_space_group_symop_operation_xyz
x,y,z
-x,y,1/2-z
-x,-y,-z
x,-y,1/2+z
1/2+x,1/2+y,z
1/2-x,1/2+y,1/2-z
1/2-x,1/2-y,-z
1/2+x,1/2-y,1/2+z
loop_
_atom_site_type_symbol
_atom_site_label
_atom_site_fract_x
_atom_site_fract_y
_atom_site_fract_z
Si Si1 0.982279 0.241271 0.879404
Si Si2 0.913272 0.447883 0.989765
Si Si3 0.108713 0.577565 0.752714
Si Si4 0.641876 0.636803 0.415906
Si Si5 0.000000 0.973165 0.750000
Si Si6 0.529885 0.704492 0.117579
O O1 0.009480 0.336004 0.916408
O O2 0.963159 0.142492 0.943650
O O3 0.750000 0.250000 0.000000
O O4 0.162700 0.280217 0.714860
O O5 0.679476 0.445527 0.143781
O O6 0.000000 0.500000 0.000000
O O7 0.953037 0.524802 0.902619
O O8 0.274355 0.483686 0.645278
O O9 0.000000 0.584318 0.750000
O O10 0.124073 0.698647 0.769455
O O11 0.501350 0.669686 0.440666
O O12 0.005932 0.895230 0.810618
O O13 0.750000 0.750000 0.000000
#
# Coordination Sequence:
#
# PCOD9304829 Si02
#       6
#     8   8   8   8   4   8
#     4  11  24  46  72 107 145 186 238 306 364 434
#     4  11  24  44  71 102 142 188 242 290 358 441
#     4  11  23  47  71 101 145 188 236 307 360 427
#     4  11  26  45  74 105 148 190 243 299 369 432
#     4  12  24  42  76 100 138 196 242 290 364 434
#     4  12  26  46  74 106 149 193 244 301 363 435
#
# _framework density 26.601721000000001
#
# number of rings (size 3 to 8) (size 9 to 14) (size 15 to 20)
#    0.000    0.727    2.727    6.000    5.091    0.000 
#    0.000    1.818    0.000    0.000    0.000    0.000 
#    0.000    0.000    0.000    0.000    0.000    0.000 
#
# Total GULP energy -123074.312575 kJ/mol
# GULP energy per Si atom -5594.286935 kJ/mol
# Density = 2.654117 g / cm^3
# Si number density = 26.601721 Si / 1000 Ang^3
#
#
#
# Elastic Constant Matrix: (Units=GPa)
#
#
# Indices 1 2 3 4 5 6 
#
# 1 111.1646 14.4878 19.8607 -0.0011 -9.6624 0.0005
# 2 14.4878 154.9063 14.0336 -0.0011 -2.0559 0.0009
# 3 19.8607 14.0336 100.7311 0.0025 -23.9920 0.0019
# 4 -0.0011 -0.0011 0.0025 51.3755 -0.0003 2.6658
# 5 -9.6624 -2.0559 -23.9920 -0.0003 36.4952 -0.0008
# 6 0.0005 0.0009 0.0019 2.6658 -0.0008 43.9996
#
#
#
# Elastic Compliance Matrix: (Units=1/GPa)
#
#
# Indices 1 2 3 4 5 6 
#
# 1 0.009476 -0.000739 -0.001396 0.000000 0.001549 0.000000
# 2 -0.000739 0.006598 -0.000867 0.000000 -0.000394 0.000000
# 3 -0.001396 -0.000867 0.012122 -0.000001 0.007550 0.000000
# 4 0.000000 0.000000 -0.000001 0.019526 0.000000 -0.001183
# 5 0.001549 -0.000394 0.007550 0.000000 0.032753 0.000000
# 6 0.000000 0.000000 0.000000 -0.001183 0.000000 0.022799
#
#
# Mechanical properties :
#
#
# Convention : Reuss Voigt Hill
#
# Bulk Modulus (GPa) = 45.06502 51.50737 48.28620
# Shear Modulus (GPa) = 42.85360 47.60204 45.22782
#
# Velocity S-wave (km/s) = 4.01800 4.23476 4.12780
# Velocity P-wave (km/s) = 6.20509 6.58144 6.39604
#
# Compressibility (1/GPa) = 0.02219016
#
# Stress axis : x y z
#
# Youngs Moduli (GPa) = 105.52809 151.56120 82.49514
#
# Poissons Ratio (x) = 0.11203 0.11519
# Poissons Ratio (y) = 0.07801 0.07155
# Poissons Ratio (z) = 0.14736 0.13146
#
# Static dielectric constant tensor:
#      x y z
#    x 1.867820 0.000000 -0.109880 
#    y 0.000000 2.016910 0.000000 
#    z -0.109880 0.000000 2.240890 
# 
# From -- ./inp_files/244490.got.cif
#   From: 2010.05.17/outbox.cif.g08.bks.cpg/sg15_123_cif.got.tgz:244490.got - 2010.06.03 18:47:42.
