data_PCOD9304834
_publ_section_title
;
Structure prediction by ZEFSAII (Michael W. Deem and Ramdas Pophale) SiO2 
 PCOD9304834
Probable space group: C 2/C
;
_chemical_formula_sum "Si O2"
_cell_formula_units_Z 44
_cell_length_a 13.660921
_cell_length_b 23.428482
_cell_length_c 5.335509
_cell_angle_alpha 90.000000
_cell_angle_beta 83.183392
_cell_angle_gamma 90.000000
_cell_volume 1695.583261
_symmetry_space_group_name_H-M "C 2/C"
_symmetry_group_IT_number 15
_symmetry_cell_setting 'monoclinic'
loop_
_space_group_symop_operation_xyz
x,y,z
-x,y,1/2-z
-x,-y,-z
x,-y,1/2+z
1/2+x,1/2+y,z
1/2-x,1/2+y,1/2-z
1/2-x,1/2-y,-z
1/2+x,1/2-y,1/2+z
loop_
_atom_site_type_symbol
_atom_site_label
_atom_site_fract_x
_atom_site_fract_y
_atom_site_fract_z
Si Si1 0.500000 0.870563 0.750000
Si Si2 0.662002 0.625634 0.036991
Si Si3 0.781514 0.527431 0.777416
Si Si4 0.000000 0.442912 0.250000
Si Si5 0.500000 0.321049 0.250000
Si Si6 0.588522 0.781808 0.416910
Si Si7 0.500000 0.459739 0.750000
Si Si8 0.750000 0.250000 0.500000
O O1 0.481740 0.906825 0.508613
O O2 0.587216 0.827071 0.644492
O O3 0.595332 0.582890 0.227072
O O4 0.701469 0.687354 0.108211
O O5 0.748487 0.588322 0.889915
O O6 0.582138 0.641788 0.851969
O O7 0.746314 0.514990 0.507902
O O8 0.899630 0.523914 0.731030
O O9 0.445684 0.277886 0.455943
O O10 0.500000 0.796301 0.250000
O O11 0.689400 0.781618 0.240412
O O12 0.500000 0.500000 0.500000
#
# Coordination Sequence:
#
# PCOD9304834 Si02
#       8
#     4   8   8   4   4   8   4   4
#     4  11  24  43  77 110 155 208 264 328 390 492
#     4  12  27  48  81 120 165 213 286 348 446 511
#     4  12  28  51  79 117 160 211 281 353 418 510
#     4  12  24  49  81 113 153 211 264 337 420 494
#     4  11  25  48  76 111 166 227 275 353 414 526
#     4  11  23  47  71 111 171 213 277 317 409 515
#     4  12  27  54  86 114 158 224 289 362 420 496
#     4  12  26  46  78 124 164 222 262 360 428 536
#
# _framework density 25.949774000000001
#
# number of rings (size 3 to 8) (size 9 to 14) (size 15 to 20)
#    0.000    0.364    2.727    5.455    0.000    3.636 
#    3.273    0.000    0.000    0.000    0.000    0.000 
#    0.000    0.000    0.000    0.000    0.000    0.000 
#
# Total GULP energy -122737.584265 kJ/mol
# GULP energy per Si atom -5578.981103 kJ/mol
# Density = 2.589071 g / cm^3
# Si number density = 25.949774 Si / 1000 Ang^3
#
#
#
# Elastic Constant Matrix: (Units=GPa)
#
#
# Indices 1 2 3 4 5 6 
#
# 1 77.4928 33.5231 45.6041 0.0000 -14.5972 0.0000
# 2 33.5231 158.6380 60.1842 0.0000 -11.6994 0.0000
# 3 45.6041 60.1842 188.9161 0.0000 -27.9116 0.0000
# 4 0.0000 0.0000 0.0000 62.0048 0.0000 10.4384
# 5 -14.5972 -11.6994 -27.9116 0.0000 55.0090 0.0000
# 6 0.0000 0.0000 0.0000 10.4384 0.0000 -32.9961
#
#
#
# Elastic Compliance Matrix: (Units=1/GPa)
#
#
# Indices 1 2 3 4 5 6 
#
# 1 0.015924 -0.002122 -0.002822 0.000000 0.002343 0.000000
# 2 -0.002122 0.007461 -0.001852 0.000000 0.000084 0.000000
# 3 -0.002822 -0.001852 0.006914 0.000000 0.002365 0.000000
# 4 0.000000 0.000000 0.000000 0.015312 0.000000 0.004844
# 5 0.002343 0.000084 0.002365 0.000000 0.020019 0.000000
# 6 0.000000 0.000000 0.000000 0.004844 0.000000 -0.028774
#
#
# Mechanical properties :
#
#
# Convention : Reuss Voigt Hill
#
# Bulk Modulus (GPa) = 59.85425 78.18552 69.01988
# Shear Modulus (GPa) = 89.25809 35.85257 62.55533
#
# Velocity S-wave (km/s) = 5.87121 3.72104 4.91514
# Velocity P-wave (km/s) = 8.31126 6.97542 7.67247
#
# Compressibility (1/GPa) = 0.01670725
#
# Stress axis : x y z
#
# Youngs Moduli (GPa) = 62.79714 134.03156 144.63013
#
# Poissons Ratio (x) = 0.28437 0.40816
# Poissons Ratio (y) = 0.13324 0.26790
# Poissons Ratio (z) = 0.17722 0.24827
#
# Static dielectric constant tensor:
#      x y z
#    x 2.077280 0.000000 -0.024080 
#    y 0.000000 1.936700 0.000000 
#    z -0.024080 0.000000 2.020650 
# 
# From -- ./inp_files/7600.got.cif
#   From: 2010.05.17/outbox.cif.g08.bks.cpg/sg15_4_cif.got.tgz:7600.got - 2010.06.03 18:47:42.
