data_PCOD9304600
_publ_section_title
;
Structure prediction by ZEFSAII (Michael W. Deem and Ramdas Pophale) SiO2 
 PCOD9304600
Probable space group: C 2/C
;
_chemical_formula_sum "Si O2"
_cell_formula_units_Z 60
_cell_length_a 27.094303
_cell_length_b 15.542422
_cell_length_c 13.076809
_cell_angle_alpha 90.000000
_cell_angle_beta 28.810310
_cell_angle_gamma 90.000000
_cell_volume 2653.784279
_symmetry_space_group_name_H-M "C 2/C"
_symmetry_group_IT_number 15
_symmetry_cell_setting 'monoclinic'
loop_
_space_group_symop_operation_xyz
x,y,z
-x,y,1/2-z
-x,-y,-z
x,-y,1/2+z
1/2+x,1/2+y,z
1/2-x,1/2+y,1/2-z
1/2-x,1/2-y,-z
1/2+x,1/2-y,1/2+z
loop_
_atom_site_type_symbol
_atom_site_label
_atom_site_fract_x
_atom_site_fract_y
_atom_site_fract_z
Si Si1 0.828453 0.112528 0.629948
Si Si2 0.508821 0.265723 0.122934
Si Si3 0.785085 0.251554 0.050066
Si Si4 0.663321 0.426655 0.812763
Si Si5 0.328023 0.905151 0.674995
Si Si6 0.500000 0.266435 0.750000
Si Si7 0.542626 0.848942 0.357041
Si Si8 0.753903 0.559156 0.935604
O O1 0.736364 0.153317 0.865563
O O2 0.925028 0.174615 0.451516
O O3 0.783054 0.108405 0.598191
O O4 0.872644 0.019773 0.582874
O O5 0.500000 0.215701 0.250000
O O6 0.392945 0.297750 0.342181
O O7 0.593183 0.342716 0.966752
O O8 0.517052 0.207274 0.006261
O O9 0.709040 0.191876 0.250153
O O10 0.750000 0.250000 0.000000
O O11 0.777367 0.429292 0.658502
O O12 0.674538 0.430705 0.671058
O O13 0.446880 0.905811 0.489701
O O14 0.272359 0.963105 0.861282
O O15 0.439241 0.210614 0.775535
O O16 0.639865 0.903258 0.215037
#
# Coordination Sequence:
#
# PCOD9304600 Si02
#       8
#     8   8   8   8   8   4   8   8
#     4  11  26  46  71 104 144 185 241 294 367 424
#     4  12  25  41  71 104 139 183 237 292 354 433
#     4  12  22  44  72  97 139 188 233 284 357 432
#     4  11  26  45  69 105 140 190 233 303 361 419
#     4  11  23  45  68  99 137 183 236 286 357 426
#     4  12  24  44  74 106 134 186 236 296 348 442
#     4  12  25  43  71 104 139 186 238 292 361 427
#     4  11  26  44  70 101 144 183 236 300 354 432
#
# _framework density 22.609223
#
# number of rings (size 3 to 8) (size 9 to 14) (size 15 to 20)
#    0.000    0.533    4.000    3.600    0.933    1.067 
#    0.000    4.000    0.000    0.000    0.000    0.000 
#    0.000    0.000    0.000    0.000    0.000    0.000 
#
# Total GULP energy -167123.284761 kJ/mol
# GULP energy per Si atom -5570.776159 kJ/mol
# Density = 2.255776 g / cm^3
# Si number density = 22.609223 Si / 1000 Ang^3
#
#
#
# Elastic Constant Matrix: (Units=GPa)
#
#
# Indices 1 2 3 4 5 6 
#
# 1 117.9142 14.3965 27.1767 0.0000 20.8307 0.0000
# 2 14.3965 54.8974 15.8238 0.0000 7.2080 0.0000
# 3 27.1767 15.8238 76.1988 0.0000 11.8980 0.0000
# 4 0.0000 0.0000 0.0000 29.2141 0.0000 8.6006
# 5 20.8307 7.2080 11.8980 0.0000 53.9886 0.0000
# 6 0.0000 0.0000 0.0000 8.6006 0.0000 24.4934
#
#
#
# Elastic Compliance Matrix: (Units=1/GPa)
#
#
# Indices 1 2 3 4 5 6 
#
# 1 0.009812 -0.001389 -0.002743 0.000000 -0.002996 0.000000
# 2 -0.001389 0.019735 -0.003392 0.000000 -0.001351 0.000000
# 3 -0.002743 -0.003392 0.015090 0.000000 -0.001814 0.000000
# 4 0.000000 0.000000 0.000000 0.038177 0.000000 -0.013405
# 5 -0.002996 -0.001351 -0.001814 0.000000 0.020259 0.000000
# 6 0.000000 0.000000 0.000000 -0.013405 0.000000 0.045535
#
#
# Mechanical properties :
#
#
# Convention : Reuss Voigt Hill
#
# Bulk Modulus (GPa) = 33.79709 40.42271 37.10990
# Shear Modulus (GPa) = 28.81558 34.31344 31.56451
#
# Velocity S-wave (km/s) = 3.57389 3.89996 3.74048
# Velocity P-wave (km/s) = 5.65784 6.18039 5.92488
#
# Compressibility (1/GPa) = 0.02958835
#
# Stress axis : x y z
#
# Youngs Moduli (GPa) = 101.91797 50.67095 66.27084
#
# Poissons Ratio (x) = 0.07038 0.18180
# Poissons Ratio (y) = 0.14157 0.22478
# Poissons Ratio (z) = 0.27958 0.17187
#
# Static dielectric constant tensor:
#      x y z
#    x 2.147720 0.000000 -0.148150 
#    y 0.000000 1.864440 0.000000 
#    z -0.148150 0.000000 1.908590 
# 
# From -- ./inp_files/123990.got.cif
#   From: 2010.05.17/outbox.cif.g08.bks.cpg/sg15_62_cif.got.tgz:123990.got - 2010.06.03 18:47:42.
