data_PCOD9304057
_publ_section_title
;
Structure prediction by ZEFSAII (Michael W. Deem and Ramdas Pophale) SiO2 
 PCOD9304057
Probable space group: C 2/C
;
_chemical_formula_sum "Si O2"
_cell_formula_units_Z 40
_cell_length_a 18.875660
_cell_length_b 6.957759
_cell_length_c 22.728126
_cell_angle_alpha 90.000000
_cell_angle_beta 138.859979
_cell_angle_gamma 90.000000
_cell_volume 1963.794315
_symmetry_space_group_name_H-M "C 2/C"
_symmetry_group_IT_number 15
_symmetry_cell_setting 'monoclinic'
loop_
_space_group_symop_operation_xyz
x,y,z
-x,y,1/2-z
-x,-y,-z
x,-y,1/2+z
1/2+x,1/2+y,z
1/2-x,1/2+y,1/2-z
1/2-x,1/2-y,-z
1/2+x,1/2-y,1/2+z
loop_
_atom_site_type_symbol
_atom_site_label
_atom_site_fract_x
_atom_site_fract_y
_atom_site_fract_z
Si Si1 0.878755 0.783492 0.528259
Si Si2 0.259169 0.555595 0.542323
Si Si3 0.764409 0.598536 0.673151
Si Si4 0.386701 0.571110 0.320998
Si Si5 0.103640 0.770023 0.272972
O O1 0.852130 0.561446 0.524635
O O2 0.801208 0.841016 0.425820
O O3 0.001739 0.828228 0.591560
O O4 0.841151 0.910705 0.560660
O O5 0.250000 0.750000 0.500000
O O6 0.303566 0.616534 0.633241
O O7 0.682958 0.495362 0.667216
O O8 0.818250 0.778773 0.739384
O O9 0.855334 0.444347 0.712868
O O10 0.414290 0.386116 0.298215
O O11 0.000000 0.771464 0.250000
#
# Coordination Sequence:
#
# PCOD9304057 Si02
#       5
#     8   8   8   8   8
#     4  11  25  42  71 100 138 181 228 284 346 413
#     4  11  23  42  65 103 139 173 228 288 339 409
#     4  12  26  47  69  99 140 182 232 287 347 413
#     4  12  26  46  68 103 138 182 232 286 347 412
#     4  12  25  43  72  99 141 184 227 283 346 412
#
# _framework density 20.368731
#
# number of rings (size 3 to 8) (size 9 to 14) (size 15 to 20)
#    0.000    0.400    8.000    0.600    2.800    0.800 
#    0.000    2.000    0.000    0.000    0.000    0.000 
#    0.000    0.000    0.000    0.000    0.000    0.000 
#
# Total GULP energy -111922.039489 kJ/mol
# GULP energy per Si atom -5596.101974 kJ/mol
# Density = 2.032237 g / cm^3
# Si number density = 20.368731 Si / 1000 Ang^3
#
#
#
# Elastic Constant Matrix: (Units=GPa)
#
#
# Indices 1 2 3 4 5 6 
#
# 1 61.0239 19.8353 -6.1463 0.0000 6.2219 0.0001
# 2 19.8353 104.1739 20.8237 0.0000 -1.9042 0.0001
# 3 -6.1463 20.8237 51.9920 0.0000 3.8642 0.0000
# 4 0.0000 0.0000 0.0000 21.1995 0.0000 -2.2842
# 5 6.2219 -1.9042 3.8642 0.0000 34.3167 0.0000
# 6 0.0001 0.0001 0.0000 -2.2842 0.0000 30.7820
#
#
#
# Elastic Compliance Matrix: (Units=1/GPa)
#
#
# Indices 1 2 3 4 5 6 
#
# 1 0.018706 -0.004501 0.004321 0.000000 -0.004128 0.000000
# 2 -0.004501 0.011556 -0.005313 0.000000 0.002056 0.000000
# 3 0.004321 -0.005313 0.022138 0.000000 -0.003571 0.000000
# 4 0.000000 0.000000 0.000000 0.047551 0.000000 0.003529
# 5 -0.004128 0.002056 -0.003571 0.000000 0.030405 0.000000
# 6 0.000000 0.000000 0.000000 0.003529 0.000000 0.032748
#
#
# Mechanical properties :
#
#
# Convention : Reuss Voigt Hill
#
# Bulk Modulus (GPa) = 24.14675 31.80170 27.97422
# Shear Modulus (GPa) = 26.61055 29.43812 28.02433
#
# Velocity S-wave (km/s) = 3.61839 3.80578 3.71327
# Velocity P-wave (km/s) = 5.41642 5.91260 5.66994
#
# Compressibility (1/GPa) = 0.04141344
#
# Stress axis : x y z
#
# Youngs Moduli (GPa) = 53.45854 86.53525 45.17128
#
# Poissons Ratio (x) = 0.38949 -0.19518
# Poissons Ratio (y) = 0.24061 0.24001
# Poissons Ratio (z) = -0.23099 0.45978
#
# Static dielectric constant tensor:
#      x y z
#    x 1.697840 0.000000 -0.004130 
#    y 0.000000 1.715840 0.000000 
#    z -0.004130 0.000000 1.711990 
# 
# From -- ./inp_files/208095.got.cif
#   From: 2010.05.17/outbox.cif.g08.bks.cpg/sg15_105_cif.got.tgz:208095.got - 2010.06.03 18:47:42.
