data_PCOD9304156
_publ_section_title
;
Structure prediction by ZEFSAII (Michael W. Deem and Ramdas Pophale) SiO2 
 PCOD9304156
Probable space group: C 2/C
;
_chemical_formula_sum "Si O2"
_cell_formula_units_Z 56
_cell_length_a 12.530677
_cell_length_b 14.097882
_cell_length_c 29.015573
_cell_angle_alpha 90.000000
_cell_angle_beta 29.020907
_cell_angle_gamma 90.000000
_cell_volume 2486.660844
_symmetry_space_group_name_H-M "C 2/C"
_symmetry_group_IT_number 15
_symmetry_cell_setting 'monoclinic'
loop_
_space_group_symop_operation_xyz
x,y,z
-x,y,1/2-z
-x,-y,-z
x,-y,1/2+z
1/2+x,1/2+y,z
1/2-x,1/2+y,1/2-z
1/2-x,1/2-y,-z
1/2+x,1/2-y,1/2+z
loop_
_atom_site_type_symbol
_atom_site_label
_atom_site_fract_x
_atom_site_fract_y
_atom_site_fract_z
Si Si1 0.913114 0.475076 0.389471
Si Si2 0.587170 0.523557 0.592457
Si Si3 0.239239 0.794331 0.665732
Si Si4 0.741507 0.077605 0.644326
Si Si5 0.772130 0.865136 0.732699
Si Si6 0.089084 0.607049 0.970308
Si Si7 0.495810 0.210558 0.594253
O O1 0.796031 0.502298 0.481248
O O2 0.734385 0.459535 0.416646
O O3 0.078196 0.557273 0.310462
O O4 0.022057 0.373229 0.360482
O O5 0.407436 0.552826 0.622366
O O6 0.492084 0.430000 0.652802
O O7 0.665725 0.597842 0.601200
O O8 0.230353 0.690808 0.647217
O O9 0.269389 0.795784 0.708858
O O10 0.434650 0.845595 0.566526
O O11 0.000000 0.841200 0.750000
O O12 0.500000 0.042798 0.750000
O O13 0.829574 0.797089 0.668184
O O14 0.061564 0.663849 0.933214
O O15 0.000000 0.500000 0.000000
O O16 0.750000 0.250000 0.500000
#
# Coordination Sequence:
#
# PCOD9304156 Si02
#       7
#     8   8   8   8   8   8   8
#     4  12  24  48  74 106 155 199 258 319 392 469
#     4  12  25  46  74 109 150 197 251 328 392 454
#     4  11  23  42  70 104 146 199 257 304 378 471
#     4  11  24  45  72 101 144 201 253 307 387 468
#     4  12  25  44  76 111 152 202 261 319 391 466
#     4  12  23  45  73 110 148 192 251 326 389 451
#     4  12  23  45  79 114 152 204 267 317 391 478
#
# _framework density 22.520160000000001
#
# number of rings (size 3 to 8) (size 9 to 14) (size 15 to 20)
#    0.000    0.286    5.714    4.714    0.000    0.571 
#    0.000    1.429    0.000    0.000    0.000    0.000 
#    0.000    0.000    0.000    0.000    0.000    0.000 
#
# Total GULP energy -156390.493213 kJ/mol
# GULP energy per Si atom -5585.374758 kJ/mol
# Density = 2.246890 g / cm^3
# Si number density = 22.520160 Si / 1000 Ang^3
#
#
#
# Elastic Constant Matrix: (Units=GPa)
#
#
# Indices 1 2 3 4 5 6 
#
# 1 160.4185 51.4964 43.4609 -0.0010 5.9114 0.0002
# 2 51.4964 81.9860 56.8597 0.0020 2.9963 -0.0035
# 3 43.4609 56.8597 84.2065 0.0294 7.1463 -0.0203
# 4 -0.0010 0.0020 0.0294 39.4977 -0.0118 7.5066
# 5 5.9114 2.9963 7.1463 -0.0118 34.0005 0.0022
# 6 0.0002 -0.0035 -0.0203 7.5066 0.0022 41.4356
#
#
#
# Elastic Compliance Matrix: (Units=1/GPa)
#
#
# Indices 1 2 3 4 5 6 
#
# 1 0.007909 -0.004050 -0.001284 0.000001 -0.000748 -0.000001
# 2 -0.004050 0.025067 -0.014975 0.000012 0.001643 -0.000007
# 3 -0.001284 -0.014975 0.022928 -0.000020 -0.003276 0.000014
# 4 0.000001 0.000012 -0.000020 0.026221 0.000012 -0.004750
# 5 -0.000748 0.001643 -0.003276 0.000012 0.030085 -0.000005
# 6 -0.000001 -0.000007 0.000014 -0.004750 -0.000005 0.024994
#
#
# Mechanical properties :
#
#
# Convention : Reuss Voigt Hill
#
# Bulk Modulus (GPa) = 65.41997 70.02720 67.72358
# Shear Modulus (GPa) = 27.33461 34.63971 30.98716
#
# Velocity S-wave (km/s) = 3.48772 3.92620 3.71344
# Velocity P-wave (km/s) = 6.73287 7.19140 6.96591
#
# Compressibility (1/GPa) = 0.01528585
#
# Stress axis : x y z
#
# Youngs Moduli (GPa) = 126.43434 39.89322 43.61468
#
# Poissons Ratio (x) = 0.16158 0.05599
# Poissons Ratio (y) = 0.51209 0.65314
# Poissons Ratio (z) = 0.16231 0.59741
#
# Static dielectric constant tensor:
#      x y z
#    x 1.890590 -0.000020 -0.030920 
#    y -0.000020 1.849100 0.000010 
#    z -0.030920 0.000010 1.869180 
# 
# From -- ./inp_files/311297.got.cif
#   From: 2010.05.17/outbox.cif.g08.bks.cpg/sg15_156_cif.got.tgz:311297.got - 2010.06.03 18:47:42.
