data_PCOD9304945
_publ_section_title
;
Structure prediction by ZEFSAII (Michael W. Deem and Ramdas Pophale) SiO2 
 PCOD9304945
Probable space group: C 2/C
;
_chemical_formula_sum "Si O2"
_cell_formula_units_Z 32
_cell_length_a 12.010102
_cell_length_b 29.733979
_cell_length_c 10.213832
_cell_angle_alpha 90.000000
_cell_angle_beta 154.561842
_cell_angle_gamma 90.000000
_cell_volume 1566.710146
_symmetry_space_group_name_H-M "C 2/C"
_symmetry_group_IT_number 15
_symmetry_cell_setting 'monoclinic'
loop_
_space_group_symop_operation_xyz
x,y,z
-x,y,1/2-z
-x,-y,-z
x,-y,1/2+z
1/2+x,1/2+y,z
1/2-x,1/2+y,1/2-z
1/2-x,1/2-y,-z
1/2+x,1/2-y,1/2+z
loop_
_atom_site_type_symbol
_atom_site_label
_atom_site_fract_x
_atom_site_fract_y
_atom_site_fract_z
Si Si1 0.734844 0.989745 0.650195
Si Si2 0.500000 0.936947 0.750000
Si Si3 0.233890 0.885830 0.897966
Si Si4 0.000000 0.718099 0.250000
Si Si5 0.235401 0.142165 0.109433
O O1 0.717348 0.028399 0.523266
O O2 0.500000 0.000000 0.500000
O O3 0.729484 0.939159 0.592207
O O4 0.000000 0.000000 0.000000
O O5 0.611376 0.903665 0.759775
O O6 0.163488 0.861865 0.685095
O O7 0.000000 0.880375 0.750000
O O8 0.500000 0.869931 0.250000
O O9 0.250000 0.750000 0.500000
O O10 0.059889 0.682561 0.197074
O O11 0.000000 0.146161 0.750000
#
# Coordination Sequence:
#
# PCOD9304945 Si02
#       5
#     8   4   8   4   8
#     4  12  24  40  59  87 136 189 243 284 328 384
#     4  11  24  38  64  98 132 188 248 290 328 387
#     4  12  27  43  65 100 144 191 232 283 349 408
#     4  11  24  46  80 112 134 166 226 290 352 425
#     4  11  25  45  75 104 139 178 233 291 348 413
#
# _framework density 20.424966000000001
#
# number of rings (size 3 to 8) (size 9 to 14) (size 15 to 20)
#    0.000    0.500    5.000    3.000    7.000    0.000 
#    0.000    0.000    0.000    4.500    0.000    0.000 
#    0.000    0.000    0.000    0.000    0.000    0.000 
#
# Total GULP energy -89307.181573 kJ/mol
# GULP energy per Si atom -5581.698848 kJ/mol
# Density = 2.037848 g / cm^3
# Si number density = 20.424966 Si / 1000 Ang^3
#
#
#
# Elastic Constant Matrix: (Units=GPa)
#
#
# Indices 1 2 3 4 5 6 
#
# 1 198.4898 47.6986 58.6506 0.0000 3.6465 0.0000
# 2 47.6986 112.7419 30.7760 0.0000 -4.2502 0.0000
# 3 58.6506 30.7760 150.8819 0.0000 6.7770 0.0000
# 4 0.0000 0.0000 0.0000 5.3796 0.0000 -5.2712
# 5 3.6465 -4.2502 6.7770 0.0000 39.4680 0.0000
# 6 0.0000 0.0000 0.0000 -5.2712 0.0000 -3.9245
#
#
#
# Elastic Compliance Matrix: (Units=1/GPa)
#
#
# Indices 1 2 3 4 5 6 
#
# 1 0.006117 -0.002077 -0.001934 0.000000 -0.000457 0.000000
# 2 -0.002077 0.010170 -0.001335 0.000000 0.001516 0.000000
# 3 -0.001934 -0.001335 0.007710 0.000000 -0.001289 0.000000
# 4 0.000000 0.000000 0.000000 0.080260 0.000000 -0.107801
# 5 -0.000457 0.001516 -0.001289 0.000000 0.025764 0.000000
# 6 0.000000 0.000000 0.000000 -0.107801 0.000000 -0.110017
#
#
# Mechanical properties :
#
#
# Convention : Reuss Voigt Hill
#
# Bulk Modulus (GPa) = 75.16061 81.81824 78.48943
# Shear Modulus (GPa) = 142.32521 29.85050 86.08785
#
# Velocity S-wave (km/s) = 8.35663 3.82707 6.49922
# Velocity P-wave (km/s) = 11.40128 7.72486 9.73814
#
# Compressibility (1/GPa) = 0.01330484
#
# Stress axis : x y z
#
# Youngs Moduli (GPa) = 163.47969 98.32534 129.70988
#
# Poissons Ratio (x) = 0.20426 0.25080
# Poissons Ratio (y) = 0.33961 0.17317
# Poissons Ratio (z) = 0.31609 0.13127
#
# Static dielectric constant tensor:
#      x y z
#    x 1.776970 0.000000 -0.041060 
#    y 0.000000 1.719150 0.000000 
#    z -0.041060 0.000000 1.794970 
# 
# From -- ./inp_files/35836.got.cif
#   From: 2010.05.17/outbox.cif.g08.bks.cpg/sg15_18_cif.got.tgz:35836.got - 2010.06.03 18:47:42.
