data_PCOD9304327
_publ_section_title
;
Structure prediction by ZEFSAII (Michael W. Deem and Ramdas Pophale) SiO2 
 PCOD9304327
Probable space group: C 2/C
;
_chemical_formula_sum "Si O2"
_cell_formula_units_Z 36
_cell_length_a 9.738214
_cell_length_b 26.373582
_cell_length_c 5.793208
_cell_angle_alpha 90.000000
_cell_angle_beta 101.828271
_cell_angle_gamma 90.000000
_cell_volume 1456.285723
_symmetry_space_group_name_H-M "C 2/C"
_symmetry_group_IT_number 15
_symmetry_cell_setting 'monoclinic'
loop_
_space_group_symop_operation_xyz
x,y,z
-x,y,1/2-z
-x,-y,-z
x,-y,1/2+z
1/2+x,1/2+y,z
1/2-x,1/2+y,1/2-z
1/2-x,1/2-y,-z
1/2+x,1/2-y,1/2+z
loop_
_atom_site_type_symbol
_atom_site_label
_atom_site_fract_x
_atom_site_fract_y
_atom_site_fract_z
Si Si1 0.105596 0.665954 0.585896
Si Si2 0.000000 0.889159 0.750000
Si Si3 0.331650 0.303822 0.491515
Si Si4 0.000000 0.576578 0.250000
Si Si5 0.308119 0.472193 0.861519
Si Si6 0.500000 0.755709 0.750000
O O1 0.253711 0.667362 0.756239
O O2 0.116010 0.704477 0.373925
O O3 0.000000 0.685214 0.750000
O O4 0.034918 0.614623 0.473903
O O5 0.870528 0.850605 0.663061
O O6 0.924613 0.927458 0.902497
O O7 0.250000 0.250000 0.500000
O O8 0.476773 0.280834 0.453153
O O9 0.855151 0.545948 0.217423
O O10 0.325846 0.500378 0.617135
#
# Coordination Sequence:
#
# PCOD9304327 Si02
#       6
#     8   4   8   4   8   4
#     4  11  23  43  70 107 156 201 265 321 397 482
#     4  12  30  50  83 117 163 219 264 340 412 482
#     4  12  25  45  72 111 162 209 264 318 400 488
#     4  11  28  46  84 115 153 206 262 348 421 488
#     4  12  30  57  86 121 161 212 281 349 420 490
#     4  11  24  40  69 104 154 211 258 322 381 478
#
# _framework density 24.720424999999999
#
# number of rings (size 3 to 8) (size 9 to 14) (size 15 to 20)
#    0.000    0.444    2.222    4.667   12.444    0.000 
#    0.000    0.000    0.000    0.000    0.000    0.000 
#    0.000    0.000    0.000    0.000    0.000    0.000 
#
# Total GULP energy -100208.889919 kJ/mol
# GULP energy per Si atom -5567.160551 kJ/mol
# Density = 2.466416 g / cm^3
# Si number density = 24.720425 Si / 1000 Ang^3
#
#
#
# Elastic Constant Matrix: (Units=GPa)
#
#
# Indices 1 2 3 4 5 6 
#
# 1 78.3107 41.8642 14.7161 0.0000 5.9171 0.0000
# 2 41.8642 103.8531 73.1073 0.0000 -11.2114 0.0000
# 3 14.7161 73.1073 127.7723 0.0000 8.0601 0.0000
# 4 0.0000 0.0000 0.0000 34.2173 0.0000 -0.6810
# 5 5.9171 -11.2114 8.0601 0.0000 46.8504 0.0000
# 6 0.0000 0.0000 0.0000 -0.6810 0.0000 34.0547
#
#
#
# Elastic Compliance Matrix: (Units=1/GPa)
#
#
# Indices 1 2 3 4 5 6 
#
# 1 0.018430 -0.011440 0.004795 0.000000 -0.005890 0.000000
# 2 -0.011440 0.024763 -0.013462 0.000000 0.009687 0.000000
# 3 0.004795 -0.013462 0.015385 0.000000 -0.006474 0.000000
# 4 0.000000 0.000000 0.000000 0.029237 0.000000 0.000585
# 5 -0.005890 0.009687 -0.006474 0.000000 0.025520 0.000000
# 6 0.000000 0.000000 0.000000 0.000585 0.000000 0.029376
#
#
# Mechanical properties :
#
#
# Convention : Reuss Voigt Hill
#
# Bulk Modulus (GPa) = 54.45879 63.25681 58.85780
# Shear Modulus (GPa) = 26.44852 35.04105 30.74478
#
# Velocity S-wave (km/s) = 3.27449 3.76905 3.53044
# Velocity P-wave (km/s) = 6.03109 6.67723 6.36237
#
# Compressibility (1/GPa) = 0.01836251
#
# Stress axis : x y z
#
# Youngs Moduli (GPa) = 54.26081 40.38299 64.99789
#
# Poissons Ratio (x) = 0.46199 -0.31164
# Poissons Ratio (y) = 0.62075 0.87500
# Poissons Ratio (z) = -0.26016 0.54364
#
# Static dielectric constant tensor:
#      x y z
#    x 2.161790 0.000000 -0.034360 
#    y 0.000000 1.948910 0.000000 
#    z -0.034360 0.000000 1.994420 
# 
# From -- ./inp_files/4319.got.cif
#   From: 2010.05.17/outbox.cif.g08.bks.cpg/sg15_3_cif.got.tgz:4319.got - 2010.06.03 18:47:42.
