data_PCOD9304075
_publ_section_title
;
Structure prediction by ZEFSAII (Michael W. Deem and Ramdas Pophale) SiO2 
 PCOD9304075
Probable space group: C 2/C
;
_chemical_formula_sum "Si O2"
_cell_formula_units_Z 60
_cell_length_a 9.300831
_cell_length_b 17.646085
_cell_length_c 19.174625
_cell_angle_alpha 90.000000
_cell_angle_beta 118.000432
_cell_angle_gamma 90.000000
_cell_volume 2778.626575
_symmetry_space_group_name_H-M "C 2/C"
_symmetry_group_IT_number 15
_symmetry_cell_setting 'monoclinic'
loop_
_space_group_symop_operation_xyz
x,y,z
-x,y,1/2-z
-x,-y,-z
x,-y,1/2+z
1/2+x,1/2+y,z
1/2-x,1/2+y,1/2-z
1/2-x,1/2-y,-z
1/2+x,1/2-y,1/2+z
loop_
_atom_site_type_symbol
_atom_site_label
_atom_site_fract_x
_atom_site_fract_y
_atom_site_fract_z
Si Si1 0.569614 0.867179 0.030924
Si Si2 0.117957 0.216570 0.125402
Si Si3 0.500000 0.980590 0.750000
Si Si4 0.786405 0.847481 0.581292
Si Si5 0.716439 0.254578 0.197278
Si Si6 0.825274 0.983972 0.137844
Si Si7 0.427645 0.147668 0.133689
Si Si8 0.826020 0.932748 0.299366
O O1 0.639150 0.795976 0.089871
O O2 0.665788 0.943287 0.070798
O O3 0.375656 0.864928 0.999695
O O4 0.588390 0.855029 0.952670
O O5 0.151395 0.230499 0.214803
O O6 0.254099 0.159366 0.129193
O O7 0.940978 0.180957 0.073590
O O8 0.489252 0.926444 0.815025
O O9 0.333291 0.027143 0.705388
O O10 0.753367 0.782216 0.630898
O O11 0.821896 0.925592 0.630173
O O12 0.544478 0.217424 0.179364
O O13 0.698197 0.344070 0.194040
O O14 0.826137 0.955657 0.217714
O O15 0.991287 0.956797 0.137081
#
# Coordination Sequence:
#
# PCOD9304075 Si02
#       8
#     8   8   4   8   8   8   8   8
#     4  11  24  45  65 100 138 180 220 275 336 402
#     4  12  22  41  68 100 135 177 224 280 334 393
#     4  12  24  44  64 104 134 172 222 288 332 386
#     4  11  26  41  69 100 138 177 224 277 339 394
#     4  11  23  42  66 101 131 177 225 278 328 396
#     4  11  24  45  69  97 134 178 228 267 335 403
#     4  11  24  43  72  96 136 177 229 270 334 401
#     4  11  25  40  68  99 133 174 225 277 330 397
#
# _framework density 21.593401
#
# number of rings (size 3 to 8) (size 9 to 14) (size 15 to 20)
#    0.000    0.800    2.667    4.800    7.467    1.067 
#    0.000    6.667    0.000    0.000    0.000    0.000 
#    0.000    0.000    0.000    0.000    0.000    0.000 
#
# Total GULP energy -167805.039822 kJ/mol
# GULP energy per Si atom -5593.501327 kJ/mol
# Density = 2.154425 g / cm^3
# Si number density = 21.593401 Si / 1000 Ang^3
#
#
#
# Elastic Constant Matrix: (Units=GPa)
#
#
# Indices 1 2 3 4 5 6 
#
# 1 95.6871 27.1606 0.5327 0.0000 26.8160 0.0000
# 2 27.1606 132.6212 3.0138 0.0000 1.5457 0.0000
# 3 0.5327 3.0138 53.2780 0.0000 7.4987 0.0000
# 4 0.0000 0.0000 0.0000 17.1174 0.0000 7.2288
# 5 26.8160 1.5457 7.4987 0.0000 28.6350 0.0000
# 6 0.0000 0.0000 0.0000 7.2288 0.0000 30.6123
#
#
#
# Elastic Compliance Matrix: (Units=1/GPa)
#
#
# Indices 1 2 3 4 5 6 
#
# 1 0.015472 -0.003043 0.002112 0.000000 -0.014878 0.000000
# 2 -0.003043 0.008151 -0.000799 0.000000 0.002619 0.000000
# 3 0.002112 -0.000799 0.019795 0.000000 -0.007118 0.000000
# 4 0.000000 0.000000 0.000000 0.064891 0.000000 -0.015323
# 5 -0.014878 0.002619 -0.007118 0.000000 0.050578 0.000000
# 6 0.000000 0.000000 0.000000 -0.015323 0.000000 0.036285
#
#
# Mechanical properties :
#
#
# Convention : Reuss Voigt Hill
#
# Bulk Modulus (GPa) = 25.02704 38.11116 31.56910
# Shear Modulus (GPa) = 23.58997 31.99822 27.79410
#
# Velocity S-wave (km/s) = 3.30883 3.85366 3.59159
# Velocity P-wave (km/s) = 5.11987 6.12280 5.64366
#
# Compressibility (1/GPa) = 0.03995678
#
# Stress axis : x y z
#
# Youngs Moduli (GPa) = 64.63141 122.68177 50.51668
#
# Poissons Ratio (x) = 0.37336 -0.10667
# Poissons Ratio (y) = 0.19669 0.04038
# Poissons Ratio (z) = -0.13647 0.09806
#
# Static dielectric constant tensor:
#      x y z
#    x 1.809240 0.000000 0.035030 
#    y 0.000000 1.748280 0.000000 
#    z 0.035030 0.000000 1.811630 
# 
# From -- ./inp_files/233092.got.cif
#   From: 2010.05.17/outbox.cif.g08.bks.cpg/sg15_117_cif.got.tgz:233092.got - 2010.06.03 18:47:42.
