data_PCOD9304711
_publ_section_title
;
Structure prediction by ZEFSAII (Michael W. Deem and Ramdas Pophale) SiO2 
 PCOD9304711
Probable space group: C 2/C
;
_chemical_formula_sum "Si O2"
_cell_formula_units_Z 44
_cell_length_a 8.575152
_cell_length_b 33.159611
_cell_length_c 8.407008
_cell_angle_alpha 90.000000
_cell_angle_beta 107.115817
_cell_angle_gamma 90.000000
_cell_volume 2284.649939
_symmetry_space_group_name_H-M "C 2/C"
_symmetry_group_IT_number 15
_symmetry_cell_setting 'monoclinic'
loop_
_space_group_symop_operation_xyz
x,y,z
-x,y,1/2-z
-x,-y,-z
x,-y,1/2+z
1/2+x,1/2+y,z
1/2-x,1/2+y,1/2-z
1/2-x,1/2-y,-z
1/2+x,1/2-y,1/2+z
loop_
_atom_site_type_symbol
_atom_site_label
_atom_site_fract_x
_atom_site_fract_y
_atom_site_fract_z
Si Si1 0.807757 0.252216 0.202330
Si Si2 0.000000 0.800398 0.250000
Si Si3 0.618808 0.519530 0.163630
Si Si4 0.603418 0.333467 0.622941
Si Si5 0.333317 0.907333 0.608461
Si Si6 0.396840 0.965506 0.374673
O O1 0.669814 0.276010 0.263648
O O2 0.818575 0.208221 0.288414
O O3 0.000000 0.266675 0.250000
O O4 0.750000 0.250000 0.000000
O O5 0.019916 0.823454 0.426292
O O6 0.500000 0.541378 0.250000
O O7 0.744363 0.551855 0.138038
O O8 0.722518 0.484845 0.280652
O O9 0.500000 0.500000 0.000000
O O10 0.500000 0.346377 0.750000
O O11 0.725861 0.368882 0.612504
O O12 0.500000 0.902487 0.750000
O O13 0.376005 0.921546 0.444608
O O14 0.500000 0.959962 0.250000
O O15 0.500000 0.000000 0.500000
#
# Coordination Sequence:
#
# PCOD9304711 Si02
#       6
#     8   4   8   8   8   8
#     4  11  23  45  80 113 144 198 248 296 356 448
#     4  12  24  48  80 110 150 196 250 300 360 452
#     4  12  22  37  66  94 123 170 230 287 345 419
#     4  11  26  48  70 108 151 185 239 301 371 434
#     4  12  26  44  67  97 138 184 228 303 369 418
#     4  12  21  43  66  93 128 176 243 287 343 432
#
# _framework density 19.258967999999999
#
# number of rings (size 3 to 8) (size 9 to 14) (size 15 to 20)
#    0.000    0.364    9.091    1.091    1.273    1.455 
#    3.273    0.000    0.000    0.000    0.000    0.000 
#    0.000    0.000    0.000    0.000    0.000    0.000 
#
# Total GULP energy -122523.210859 kJ/mol
# GULP energy per Si atom -5569.236857 kJ/mol
# Density = 1.921513 g / cm^3
# Si number density = 19.258968 Si / 1000 Ang^3
#
#
#
# Elastic Constant Matrix: (Units=GPa)
#
#
# Indices 1 2 3 4 5 6 
#
# 1 144.3538 54.1346 61.3091 0.0000 -5.9948 0.0000
# 2 54.1346 91.1782 50.3969 0.0000 6.7346 0.0000
# 3 61.3091 50.3969 144.4486 0.0000 0.1260 0.0000
# 4 0.0000 0.0000 0.0000 26.9865 0.0000 7.0021
# 5 -5.9948 6.7346 0.1260 0.0000 53.3656 0.0000
# 6 0.0000 0.0000 0.0000 7.0021 0.0000 59.5389
#
#
#
# Elastic Compliance Matrix: (Units=1/GPa)
#
#
# Indices 1 2 3 4 5 6 
#
# 1 0.009783 -0.004505 -0.002582 0.000000 0.001674 0.000000
# 2 -0.004505 0.015819 -0.003605 0.000000 -0.002494 0.000000
# 3 -0.002582 -0.003605 0.009276 0.000000 0.000143 0.000000
# 4 0.000000 0.000000 0.000000 0.038222 0.000000 -0.004495
# 5 0.001674 -0.002494 0.000143 0.000000 0.019241 0.000000
# 6 0.000000 0.000000 0.000000 -0.004495 0.000000 0.017324
#
#
# Mechanical properties :
#
#
# Convention : Reuss Voigt Hill
#
# Bulk Modulus (GPa) = 74.10283 79.07353 76.58818
# Shear Modulus (GPa) = 36.88758 42.25421 39.57089
#
# Velocity S-wave (km/s) = 4.38121 4.68910 4.53777
# Velocity P-wave (km/s) = 8.00962 8.39429 8.20421
#
# Compressibility (1/GPa) = 0.01349476
#
# Stress axis : x y z
#
# Youngs Moduli (GPa) = 102.21934 63.21565 107.80098
#
# Poissons Ratio (x) = 0.28477 0.27834
# Poissons Ratio (y) = 0.46048 0.38861
# Poissons Ratio (z) = 0.26393 0.22789
#
# Static dielectric constant tensor:
#      x y z
#    x 1.390180 0.000000 0.005330 
#    y 0.000000 1.454610 0.000000 
#    z 0.005330 0.000000 1.544460 
# 
# From -- ./inp_files/25705.got.cif
#   From: 2010.05.17/outbox.cif.g08.bks.cpg/sg15_13_cif.got.tgz:25705.got - 2010.06.03 18:47:42.
