data_PCOD9304240
_publ_section_title
;
Structure prediction by ZEFSAII (Michael W. Deem and Ramdas Pophale) SiO2 
 PCOD9304240
Probable space group: C 2/C
;
_chemical_formula_sum "Si O2"
_cell_formula_units_Z 32
_cell_length_a 29.026001
_cell_length_b 9.921276
_cell_length_c 12.306277
_cell_angle_alpha 90.000000
_cell_angle_beta 24.874504
_cell_angle_gamma 90.000000
_cell_volume 1490.678145
_symmetry_space_group_name_H-M "C 2/C"
_symmetry_group_IT_number 15
_symmetry_cell_setting 'monoclinic'
loop_
_space_group_symop_operation_xyz
x,y,z
-x,y,1/2-z
-x,-y,-z
x,-y,1/2+z
1/2+x,1/2+y,z
1/2-x,1/2+y,1/2-z
1/2-x,1/2-y,-z
1/2+x,1/2-y,1/2+z
loop_
_atom_site_type_symbol
_atom_site_label
_atom_site_fract_x
_atom_site_fract_y
_atom_site_fract_z
Si Si1 0.127361 0.672480 0.205597
Si Si2 0.706119 0.435112 0.973485
Si Si3 0.045139 0.831542 0.774647
Si Si4 0.391532 0.943093 0.410881
O O1 0.223759 0.599326 0.067998
O O2 0.077417 0.550277 0.246222
O O3 0.051717 0.761465 0.447874
O O4 0.164991 0.783841 0.037531
O O5 0.789535 0.485336 0.702949
O O6 0.607078 0.540641 0.193002
O O7 0.130415 0.707460 0.584580
O O8 0.000000 0.866318 0.750000
O O9 0.500000 0.927473 0.250000
#
# Coordination Sequence:
#
# PCOD9304240 Si02
#       4
#     8   8   8   8
#     4  11  24  45  65  99 137 177 229 278 341 401
#     4  11  24  42  69  96 133 184 222 284 337 401
#     4  11  23  44  68 100 138 178 225 279 338 403
#     4  11  23  43  66  96 138 178 225 283 335 402
#
# _framework density 21.466740000000001
#
# number of rings (size 3 to 8) (size 9 to 14) (size 15 to 20)
#    0.000    1.000    5.000    3.000    3.500    2.000 
#    4.500    0.000    0.000    0.000    0.000    0.000 
#    0.000    0.000    0.000    0.000    0.000    0.000 
#
# Total GULP energy -89203.990420 kJ/mol
# GULP energy per Si atom -5575.249401 kJ/mol
# Density = 2.141788 g / cm^3
# Si number density = 21.466740 Si / 1000 Ang^3
#
#
#
# Elastic Constant Matrix: (Units=GPa)
#
#
# Indices 1 2 3 4 5 6 
#
# 1 59.0594 76.8771 31.9586 0.0000 -2.8404 0.0000
# 2 76.8771 157.6485 35.6138 0.0000 -4.2714 0.0000
# 3 31.9586 35.6138 118.7803 0.0000 8.5557 0.0000
# 4 0.0000 0.0000 0.0000 35.4343 0.0000 -6.8779
# 5 -2.8404 -4.2714 8.5557 0.0000 19.4628 0.0000
# 6 0.0000 0.0000 0.0000 -6.8779 0.0000 34.8941
#
#
#
# Elastic Compliance Matrix: (Units=1/GPa)
#
#
# Indices 1 2 3 4 5 6 
#
# 1 0.051469 -0.023307 -0.007263 0.000000 0.005589 0.000000
# 2 -0.023307 0.017475 0.001033 0.000000 -0.000020 0.000000
# 3 -0.007263 0.001033 0.010454 0.000000 -0.005429 0.000000
# 4 0.000000 0.000000 0.000000 0.029344 0.000000 0.005784
# 5 0.005589 -0.000020 -0.005429 0.000000 0.054578 0.000000
# 6 0.000000 0.000000 0.000000 0.005784 0.000000 0.029798
#
#
# Mechanical properties :
#
#
# Convention : Reuss Voigt Hill
#
# Bulk Modulus (GPa) = 49.20004 69.37634 59.28819
# Shear Modulus (GPa) = 19.30754 30.69414 25.00084
#
# Velocity S-wave (km/s) = 3.00228 3.78543 3.41637
# Velocity P-wave (km/s) = 5.91500 7.17595 6.57577
#
# Compressibility (1/GPa) = 0.02032519
#
# Stress axis : x y z
#
# Youngs Moduli (GPa) = 19.42917 57.22514 95.65415
#
# Poissons Ratio (x) = 1.33373 0.69470
# Poissons Ratio (y) = 0.45283 -0.09879
# Poissons Ratio (z) = 0.14111 -0.05910
#
# Static dielectric constant tensor:
#      x y z
#    x 1.772800 0.000000 -0.003000 
#    y 0.000000 1.808510 0.000000 
#    z -0.003000 0.000000 1.892240 
# 
# From -- ./inp_files/83945.got.cif
#   From: 2010.05.17/outbox.cif.g08.bks.cpg/sg15_42_cif.got.tgz:83945.got - 2010.06.03 18:47:42.
