data_PCOD9304788
_publ_section_title
;
Structure prediction by ZEFSAII (Michael W. Deem and Ramdas Pophale) SiO2 
 PCOD9304788
Probable space group: C 2/C
;
_chemical_formula_sum "Si O2"
_cell_formula_units_Z 32
_cell_length_a 10.001501
_cell_length_b 18.937761
_cell_length_c 7.239224
_cell_angle_alpha 90.000000
_cell_angle_beta 69.111482
_cell_angle_gamma 90.000000
_cell_volume 1281.035002
_symmetry_space_group_name_H-M "C 2/C"
_symmetry_group_IT_number 15
_symmetry_cell_setting 'monoclinic'
loop_
_space_group_symop_operation_xyz
x,y,z
-x,y,1/2-z
-x,-y,-z
x,-y,1/2+z
1/2+x,1/2+y,z
1/2-x,1/2+y,1/2-z
1/2-x,1/2-y,-z
1/2+x,1/2-y,1/2+z
loop_
_atom_site_type_symbol
_atom_site_label
_atom_site_fract_x
_atom_site_fract_y
_atom_site_fract_z
Si Si1 0.901554 0.059879 0.631350
Si Si2 0.642847 0.714888 0.912687
Si Si3 0.901734 0.560586 0.632541
Si Si4 0.128884 0.708323 0.039980
O O1 0.861108 0.131607 0.547581
O O2 0.748705 0.024427 0.742807
O O3 0.000000 0.088188 0.750000
O O4 0.000000 0.000000 0.500000
O O5 0.481853 0.741726 0.020249
O O6 0.704573 0.736365 0.668396
O O7 0.750000 0.750000 0.000000
O O8 0.000000 0.589887 0.750000
O O9 0.000000 0.500000 0.500000
O O10 0.847514 0.628012 0.545159
O O11 0.000000 0.684552 0.250000
#
# Coordination Sequence:
#
# PCOD9304788 Si02
#       4
#     8   8   8   8
#     4  12  25  52  73 111 156 201 257 323 398 476
#     4  11  24  46  77 108 145 206 259 320 392 467
#     4  12  27  48  76 117 158 208 262 327 403 474
#     4  11  23  46  75 103 151 196 265 321 378 467
#
# _framework density 24.979797999999999
#
# number of rings (size 3 to 8) (size 9 to 14) (size 15 to 20)
#    0.000    0.500    5.000    3.000    3.500    0.000 
#    9.000    0.000    0.000    0.000    0.000    0.000 
#    0.000    0.000    0.000    0.000    0.000    0.000 
#
# Total GULP energy -89205.861399 kJ/mol
# GULP energy per Si atom -5575.366337 kJ/mol
# Density = 2.492294 g / cm^3
# Si number density = 24.979798 Si / 1000 Ang^3
#
#
#
# Elastic Constant Matrix: (Units=GPa)
#
#
# Indices 1 2 3 4 5 6 
#
# 1 200.1648 71.8318 67.1834 0.0000 -42.9322 0.0000
# 2 71.8318 191.5302 75.0047 0.0000 -22.5785 0.0000
# 3 67.1834 75.0047 99.9038 0.0000 -42.7071 0.0000
# 4 0.0000 0.0000 0.0000 7.2147 0.0000 -3.9704
# 5 -42.9322 -22.5785 -42.7071 0.0000 70.1630 0.0000
# 6 0.0000 0.0000 0.0000 -3.9704 0.0000 20.4386
#
#
#
# Elastic Compliance Matrix: (Units=1/GPa)
#
#
# Indices 1 2 3 4 5 6 
#
# 1 0.006813 -0.001224 -0.002769 0.000000 0.002089 0.000000
# 2 -0.001224 0.007711 -0.005712 0.000000 -0.001744 0.000000
# 3 -0.002769 -0.005712 0.019803 0.000000 0.008521 0.000000
# 4 0.000000 0.000000 0.000000 0.155197 0.000000 0.030148
# 5 0.002089 -0.001744 0.008521 0.000000 0.020156 0.000000
# 6 0.000000 0.000000 0.000000 0.030148 0.000000 0.054784
#
#
# Mechanical properties :
#
#
# Convention : Reuss Voigt Hill
#
# Bulk Modulus (GPa) = 67.04118 102.18207 84.61162
# Shear Modulus (GPa) = 17.31021 38.06853 27.68937
#
# Velocity S-wave (km/s) = 2.63529 3.90804 3.33298
# Velocity P-wave (km/s) = 6.01299 7.83316 6.98264
#
# Compressibility (1/GPa) = 0.01491621
#
# Stress axis : x y z
#
# Youngs Moduli (GPa) = 146.78245 129.67704 50.49807
#
# Poissons Ratio (x) = 0.15877 0.13984
# Poissons Ratio (y) = 0.17972 0.28844
# Poissons Ratio (z) = 0.40647 0.74069
#
# Static dielectric constant tensor:
#      x y z
#    x 1.735880 0.000000 -0.288530 
#    y 0.000000 2.218410 0.000000 
#    z -0.288530 0.000000 2.270190 
# 
# From -- ./inp_files/23006.got.cif
#   From: 2010.05.17/outbox.cif.g08.bks.cpg/sg15_12_cif.got.tgz:23006.got - 2010.06.03 18:47:42.
