data_PCOD9304171
_publ_section_title
;
Structure prediction by ZEFSAII (Michael W. Deem and Ramdas Pophale) SiO2 
 PCOD9304171
Probable space group: C 2/C
;
_chemical_formula_sum "Si O2"
_cell_formula_units_Z 60
_cell_length_a 29.199230
_cell_length_b 11.396029
_cell_length_c 9.303193
_cell_angle_alpha 90.000000
_cell_angle_beta 117.195636
_cell_angle_gamma 90.000000
_cell_volume 2753.462043
_symmetry_space_group_name_H-M "C 2/C"
_symmetry_group_IT_number 15
_symmetry_cell_setting 'monoclinic'
loop_
_space_group_symop_operation_xyz
x,y,z
-x,y,1/2-z
-x,-y,-z
x,-y,1/2+z
1/2+x,1/2+y,z
1/2-x,1/2+y,1/2-z
1/2-x,1/2-y,-z
1/2+x,1/2-y,1/2+z
loop_
_atom_site_type_symbol
_atom_site_label
_atom_site_fract_x
_atom_site_fract_y
_atom_site_fract_z
Si Si1 0.676515 0.101246 0.995089
Si Si2 0.000000 0.425321 0.750000
Si Si3 0.170561 0.203598 0.978170
Si Si4 0.617835 0.244359 0.704568
Si Si5 0.089095 0.495780 0.536477
Si Si6 0.725546 0.912276 0.879033
Si Si7 0.925010 0.269611 0.817755
Si Si8 0.489028 0.620505 0.401806
O O1 0.651932 0.220442 0.895943
O O2 0.708216 0.038611 0.913291
O O3 0.708390 0.110010 0.189082
O O4 0.629501 0.012373 0.965369
O O5 0.044339 0.338716 0.761472
O O6 0.970027 0.507118 0.596865
O O7 0.199329 0.317088 0.949463
O O8 0.118429 0.187316 0.811428
O O9 0.152203 0.220175 0.116249
O O10 0.213129 0.103361 0.026192
O O11 0.596840 0.113812 0.635936
O O12 0.568407 0.327750 0.655390
O O13 0.100874 0.375182 0.633223
O O14 0.968145 0.208559 0.974368
O O15 0.500000 0.604500 0.250000
O O16 0.500000 0.500000 0.500000
#
# Coordination Sequence:
#
# PCOD9304171 Si02
#       8
#     8   4   8   8   8   8   8   8
#     4  12  22  43  69 110 145 185 234 314 368 425
#     4  12  22  34  68 108 152 182 214 290 372 438
#     4  11  23  44  69  99 138 204 234 290 362 431
#     4  12  24  46  75 108 150 186 236 298 371 433
#     4  12  22  36  69 111 146 180 224 292 369 431
#     4  11  23  42  71 101 149 184 240 300 372 436
#     4  12  23  43  68 104 146 186 237 296 359 436
#     4  12  31  51  73 101 144 200 246 294 351 440
#
# _framework density 21.790749000000002
#
# number of rings (size 3 to 8) (size 9 to 14) (size 15 to 20)
#    0.000    0.267    6.667    2.000    5.600    0.533 
#    2.400    0.000    0.000    0.000    0.000    0.000 
#    0.000    0.000    0.000    0.000    0.000    0.000 
#
# Total GULP energy -167678.667623 kJ/mol
# GULP energy per Si atom -5589.288921 kJ/mol
# Density = 2.174115 g / cm^3
# Si number density = 21.790749 Si / 1000 Ang^3
#
#
#
# Elastic Constant Matrix: (Units=GPa)
#
#
# Indices 1 2 3 4 5 6 
#
# 1 137.3924 39.9045 72.5680 0.0000 11.6735 0.0000
# 2 39.9045 74.9231 28.3897 0.0000 -3.4404 0.0000
# 3 72.5680 28.3897 124.7529 0.0000 -6.7247 0.0000
# 4 0.0000 0.0000 0.0000 23.0359 0.0000 8.5054
# 5 11.6735 -3.4404 -6.7247 0.0000 33.7466 0.0000
# 6 0.0000 0.0000 0.0000 8.5054 0.0000 31.4250
#
#
#
# Elastic Compliance Matrix: (Units=1/GPa)
#
#
# Indices 1 2 3 4 5 6 
#
# 1 0.012614 -0.004481 -0.006649 0.000000 -0.006145 0.000000
# 2 -0.004481 0.016222 -0.000922 0.000000 0.003020 0.000000
# 3 -0.006649 -0.000922 0.012345 0.000000 0.004666 0.000000
# 4 0.000000 0.000000 0.000000 0.048230 0.000000 -0.013054
# 5 -0.006145 0.003020 0.004666 0.000000 0.032996 0.000000
# 6 0.000000 0.000000 0.000000 -0.013054 0.000000 0.035355
#
#
# Mechanical properties :
#
#
# Convention : Reuss Voigt Hill
#
# Bulk Modulus (GPa) = 58.56084 68.75474 63.65779
# Shear Modulus (GPa) = 26.65845 30.72191 28.69018
#
# Velocity S-wave (km/s) = 3.50148 3.75888 3.63247
# Velocity P-wave (km/s) = 6.57873 7.10350 6.84615
#
# Compressibility (1/GPa) = 0.01707626
#
# Stress axis : x y z
#
# Youngs Moduli (GPa) = 79.27805 61.64568 81.00554
#
# Poissons Ratio (x) = 0.27623 0.53860
# Poissons Ratio (y) = 0.35524 0.07470
# Poissons Ratio (z) = 0.52711 0.05685
#
# Static dielectric constant tensor:
#      x y z
#    x 1.833250 0.000000 -0.005050 
#    y 0.000000 1.637930 0.000000 
#    z -0.005050 0.000000 1.889840 
# 
# From -- ./inp_files/69426.got.cif
#   From: 2010.05.17/outbox.cif.g08.bks.cpg/sg15_35_cif.got.tgz:69426.got - 2010.06.03 18:47:42.
