data_PCOD9304238
_publ_section_title
;
Structure prediction by ZEFSAII (Michael W. Deem and Ramdas Pophale) SiO2 
 PCOD9304238
Probable space group: C 2/C
;
_chemical_formula_sum "Si O2"
_cell_formula_units_Z 56
_cell_length_a 30.536852
_cell_length_b 6.428322
_cell_length_c 30.588767
_cell_angle_alpha 90.000000
_cell_angle_beta 25.620448
_cell_angle_gamma 90.000000
_cell_volume 2596.433169
_symmetry_space_group_name_H-M "C 2/C"
_symmetry_group_IT_number 15
_symmetry_cell_setting 'monoclinic'
loop_
_space_group_symop_operation_xyz
x,y,z
-x,y,1/2-z
-x,-y,-z
x,-y,1/2+z
1/2+x,1/2+y,z
1/2-x,1/2+y,1/2-z
1/2-x,1/2-y,-z
1/2+x,1/2-y,1/2+z
loop_
_atom_site_type_symbol
_atom_site_label
_atom_site_fract_x
_atom_site_fract_y
_atom_site_fract_z
Si Si1 0.176639 0.640321 0.277945
Si Si2 0.396957 0.225690 0.601225
Si Si3 0.560737 0.626790 0.736544
Si Si4 0.451903 0.309163 0.894948
Si Si5 0.760243 0.188559 0.440227
Si Si6 0.003277 0.059951 0.563810
Si Si7 0.863237 0.487740 0.277091
O O1 0.281229 0.694096 0.207202
O O2 0.111830 0.500401 0.369884
O O3 0.105737 0.834976 0.329339
O O4 0.198136 0.529198 0.212175
O O5 0.475244 0.362957 0.558748
O O6 0.430537 0.270585 0.521519
O O7 0.500000 0.718887 0.750000
O O8 0.485808 0.450350 0.823369
O O9 0.665219 0.508000 0.630848
O O10 0.589152 0.803326 0.745600
O O11 0.441235 0.471076 0.944005
O O12 0.546159 0.161416 0.819797
O O13 0.354148 0.169950 0.974082
O O14 0.750000 0.250000 0.500000
O O15 0.806573 0.369338 0.367467
#
# Coordination Sequence:
#
# PCOD9304238 Si02
#       7
#     8   8   8   8   8   8   8
#     4  12  22  45  65  99 134 174 224 274 336 394
#     4  11  24  40  68  96 130 178 219 277 329 400
#     4  11  24  43  70  96 132 176 221 274 342 394
#     4  11  23  46  65  96 137 174 221 283 328 398
#     4  11  25  44  67  99 133 174 227 275 331 402
#     4  11  23  43  66  96 134 172 227 271 331 392
#     4  11  26  41  68  98 133 177 222 277 341 394
#
# _framework density 21.568051000000001
#
# number of rings (size 3 to 8) (size 9 to 14) (size 15 to 20)
#    0.000    0.857    5.714    1.286    2.000    1.714 
#    2.571    0.000    0.000    0.000    0.000    0.000 
#    0.000    0.000    0.000    0.000    0.000    0.000 
#
# Total GULP energy -156402.269755 kJ/mol
# GULP energy per Si atom -5585.795348 kJ/mol
# Density = 2.151896 g / cm^3
# Si number density = 21.568051 Si / 1000 Ang^3
#
#
#
# Elastic Constant Matrix: (Units=GPa)
#
#
# Indices 1 2 3 4 5 6 
#
# 1 76.6002 -1.1379 1.8110 0.0062 8.8592 -0.0945
# 2 -1.1379 44.1269 -0.3822 -0.0060 6.9158 -0.0447
# 3 1.8110 -0.3822 62.7343 0.0229 7.9044 -0.1172
# 4 0.0062 -0.0060 0.0229 9.9580 -0.0071 1.8648
# 5 8.8592 6.9158 7.9044 -0.0071 31.3458 0.0661
# 6 -0.0945 -0.0447 -0.1172 1.8648 0.0661 30.4504
#
#
#
# Elastic Compliance Matrix: (Units=1/GPa)
#
#
# Indices 1 2 3 4 5 6 
#
# 1 0.013538 0.000989 0.000129 -0.000021 -0.004077 0.000054
# 2 0.000989 0.023587 0.000833 -0.000002 -0.005694 0.000053
# 3 0.000129 0.000833 0.016494 -0.000055 -0.004380 0.000078
# 4 -0.000021 -0.000002 -0.000055 0.101587 0.000057 -0.006222
# 5 -0.004077 -0.005694 -0.004380 0.000057 0.035415 -0.000118
# 6 0.000054 0.000053 0.000078 -0.006222 -0.000118 0.033222
#
#
# Mechanical properties :
#
#
# Convention : Reuss Voigt Hill
#
# Bulk Modulus (GPa) = 17.38510 20.44924 18.91717
# Shear Modulus (GPa) = 20.91047 26.56221 23.73634
#
# Velocity S-wave (km/s) = 3.11708 3.51316 3.32103
# Velocity P-wave (km/s) = 4.58617 5.09492 4.84722
#
# Compressibility (1/GPa) = 0.05752051
#
# Stress axis : x y z
#
# Youngs Moduli (GPa) = 73.86587 42.39619 60.62967
#
# Poissons Ratio (x) = -0.04194 -0.00782
# Poissons Ratio (y) = -0.07307 -0.05048
# Poissons Ratio (z) = -0.00953 -0.03530
#
# Static dielectric constant tensor:
#      x y z
#    x 1.762440 -0.000110 0.031050 
#    y -0.000110 1.764200 0.000070 
#    z 0.031050 0.000070 1.806990 
# 
# From -- ./inp_files/320047.got.cif
#   From: 2010.05.17/outbox.cif.g08.bks.cpg/sg15_161_cif.got.tgz:320047.got - 2010.06.03 18:47:42.
