data_PCOD9304618
_publ_section_title
;
Structure prediction by ZEFSAII (Michael W. Deem and Ramdas Pophale) SiO2 
 PCOD9304618
Probable space group: C 2/C
;
_chemical_formula_sum "Si O2"
_cell_formula_units_Z 48
_cell_length_a 19.960248
_cell_length_b 12.268799
_cell_length_c 25.751391
_cell_angle_alpha 90.000000
_cell_angle_beta 19.112060
_cell_angle_gamma 90.000000
_cell_volume 2064.760223
_symmetry_space_group_name_H-M "C 2/C"
_symmetry_group_IT_number 15
_symmetry_cell_setting 'monoclinic'
loop_
_space_group_symop_operation_xyz
x,y,z
-x,y,1/2-z
-x,-y,-z
x,-y,1/2+z
1/2+x,1/2+y,z
1/2-x,1/2+y,1/2-z
1/2-x,1/2-y,-z
1/2+x,1/2-y,1/2+z
loop_
_atom_site_type_symbol
_atom_site_label
_atom_site_fract_x
_atom_site_fract_y
_atom_site_fract_z
Si Si1 0.904452 0.751868 0.434996
Si Si2 0.124849 0.947150 0.861630
Si Si3 0.565152 0.002937 0.558284
Si Si4 0.350522 0.239035 0.587572
Si Si5 0.955619 0.318487 0.342213
Si Si6 0.235328 0.130348 0.179037
O O1 0.750000 0.750000 0.500000
O O2 0.910981 0.623600 0.446012
O O3 0.859407 0.800574 0.525220
O O4 0.118754 0.803960 0.259890
O O5 0.147679 0.824340 0.866561
O O6 0.081554 0.926583 0.832727
O O7 0.334567 0.015069 0.706317
O O8 0.000000 0.000000 0.000000
O O9 0.572920 0.072155 0.604736
O O10 0.717030 0.053667 0.404769
O O11 0.545453 0.160848 0.454357
O O12 0.750000 0.250000 0.500000
O O13 0.000000 0.339935 0.250000
O O14 0.137287 0.243595 0.232133
#
# Coordination Sequence:
#
# PCOD9304618 Si02
#       6
#     8   8   8   8   8   8
#     4  11  26  47  70 107 147 188 242 291 363 441
#     4  11  25  40  71 110 135 186 245 307 352 424
#     4  11  25  46  73 104 145 194 244 298 369 435
#     4  11  23  45  70 101 143 191 230 302 353 416
#     4  12  27  48  72 105 150 190 241 305 372 438
#     4  12  24  48  72 103 146 189 250 298 365 442
#
# _framework density 23.247250999999999
#
# number of rings (size 3 to 8) (size 9 to 14) (size 15 to 20)
#    0.000    0.667    5.000    3.000    4.667    2.667 
#    6.000    0.000    0.000    0.000    0.000    0.000 
#    0.000    0.000    0.000    0.000    0.000    0.000 
#
# Total GULP energy -134064.310686 kJ/mol
# GULP energy per Si atom -5586.012945 kJ/mol
# Density = 2.319434 g / cm^3
# Si number density = 23.247251 Si / 1000 Ang^3
#
#
#
# Elastic Constant Matrix: (Units=GPa)
#
#
# Indices 1 2 3 4 5 6 
#
# 1 147.4097 25.8883 48.9269 0.0053 34.7170 -0.0042
# 2 25.8883 66.2118 7.1246 0.0369 10.6777 -0.0135
# 3 48.9269 7.1246 101.2797 0.0232 28.8755 -0.0040
# 4 0.0053 0.0369 0.0232 30.1089 0.0025 1.1488
# 5 34.7170 10.6777 28.8755 0.0025 58.0717 -0.0006
# 6 -0.0042 -0.0135 -0.0040 1.1488 -0.0006 27.6374
#
#
#
# Elastic Compliance Matrix: (Units=1/GPa)
#
#
# Indices 1 2 3 4 5 6 
#
# 1 0.009125 -0.002678 -0.003268 0.000004 -0.003338 -0.000001
# 2 -0.002678 0.016360 0.000634 -0.000020 -0.001722 0.000008
# 3 -0.003268 0.000634 0.012682 -0.000010 -0.004469 0.000002
# 4 0.000004 -0.000020 -0.000010 0.033266 0.000004 -0.001383
# 5 -0.003338 -0.001722 -0.004469 0.000004 0.021754 -0.000002
# 6 -0.000001 0.000008 0.000002 -0.001383 -0.000002 0.036240
#
#
# Mechanical properties :
#
#
# Convention : Reuss Voigt Hill
#
# Bulk Modulus (GPa) = 36.30793 53.19787 44.75290
# Shear Modulus (GPa) = 33.50497 38.69435 36.09966
#
# Velocity S-wave (km/s) = 3.80049 4.08422 3.94491
# Velocity P-wave (km/s) = 5.90850 6.72118 6.32790
#
# Compressibility (1/GPa) = 0.02754219
#
# Stress axis : x y z
#
# Youngs Moduli (GPa) = 109.59005 61.12603 78.85242
#
# Poissons Ratio (x) = 0.16369 0.25770
# Poissons Ratio (y) = 0.29347 -0.04998
# Poissons Ratio (z) = 0.35816 -0.03875
#
# Static dielectric constant tensor:
#      x y z
#    x 1.970570 0.000030 0.006090 
#    y 0.000030 1.945970 0.000040 
#    z 0.006090 0.000040 1.928780 
# 
# From -- ./inp_files/300930.got.cif
#   From: 2010.05.17/outbox.cif.g08.bks.cpg/sg15_151_cif.got.tgz:300930.got - 2010.06.03 18:47:42.
