data_PCOD9304378
_publ_section_title
;
Structure prediction by ZEFSAII (Michael W. Deem and Ramdas Pophale) SiO2 
 PCOD9304378
Probable space group: C 2/C
;
_chemical_formula_sum "Si O2"
_cell_formula_units_Z 44
_cell_length_a 7.919703
_cell_length_b 15.326857
_cell_length_c 17.630502
_cell_angle_alpha 90.000000
_cell_angle_beta 104.389579
_cell_angle_gamma 90.000000
_cell_volume 2072.926326
_symmetry_space_group_name_H-M "C 2/C"
_symmetry_group_IT_number 15
_symmetry_cell_setting 'monoclinic'
loop_
_space_group_symop_operation_xyz
x,y,z
-x,y,1/2-z
-x,-y,-z
x,-y,1/2+z
1/2+x,1/2+y,z
1/2-x,1/2+y,1/2-z
1/2-x,1/2-y,-z
1/2+x,1/2-y,1/2+z
loop_
_atom_site_type_symbol
_atom_site_label
_atom_site_fract_x
_atom_site_fract_y
_atom_site_fract_z
Si Si1 0.763126 0.002564 0.399129
Si Si2 0.317302 0.612245 0.694987
Si Si3 0.698747 0.847956 0.016354
Si Si4 0.500000 0.924197 0.250000
Si Si5 0.287416 0.850595 0.990937
Si Si6 0.922835 0.926068 0.668752
O O1 0.738455 0.081866 0.455359
O O2 0.926095 0.030043 0.365636
O O3 0.600591 0.981011 0.325380
O O4 0.787615 0.915530 0.452930
O O5 0.500000 0.643537 0.750000
O O6 0.298805 0.636221 0.605811
O O7 0.321396 0.506924 0.694796
O O8 0.148520 0.633901 0.725862
O O9 0.750000 0.750000 0.000000
O O10 0.494891 0.861020 0.011375
O O11 0.201549 0.875571 0.901497
O O12 0.250000 0.750000 0.000000
O O13 0.000000 0.875551 0.750000
#
# Coordination Sequence:
#
# PCOD9304378 Si02
#       6
#     8   8   8   4   8   8
#     4  12  24  44  74  99 145 181 236 287 353 415
#     4  11  23  44  73 103 139 181 237 288 353 413
#     4  12  27  46  70 104 139 188 239 284 351 422
#     4  12  22  42  74 108 134 194 224 298 354 408
#     4  12  26  45  70 103 140 184 233 287 351 422
#     4  11  23  43  73 103 137 183 234 290 352 412
#
# _framework density 21.226032
#
# number of rings (size 3 to 8) (size 9 to 14) (size 15 to 20)
#    0.000    0.364    7.273    3.273    2.545    0.000 
#    3.273    1.818    0.000    0.000    0.000    0.000 
#    0.000    0.000    0.000    0.000    0.000    0.000 
#
# Total GULP energy -123021.617865 kJ/mol
# GULP energy per Si atom -5591.891721 kJ/mol
# Density = 2.117772 g / cm^3
# Si number density = 21.226032 Si / 1000 Ang^3
#
#
#
# Elastic Constant Matrix: (Units=GPa)
#
#
# Indices 1 2 3 4 5 6 
#
# 1 99.4195 4.1086 39.8167 0.0000 1.3926 0.0000
# 2 4.1086 88.8967 47.3258 0.0000 -1.7159 0.0000
# 3 39.8167 47.3258 195.6311 0.0000 30.3932 0.0000
# 4 0.0000 0.0000 0.0000 7.9803 0.0000 1.0116
# 5 1.3926 -1.7159 30.3932 0.0000 51.8610 0.0000
# 6 0.0000 0.0000 0.0000 1.0116 0.0000 13.2815
#
#
#
# Elastic Compliance Matrix: (Units=1/GPa)
#
#
# Indices 1 2 3 4 5 6 
#
# 1 0.011077 0.000943 -0.002686 0.000000 0.001308 0.000000
# 2 0.000943 0.013290 -0.003819 0.000000 0.002653 0.000000
# 3 -0.002686 -0.003819 0.007251 0.000000 -0.004304 0.000000
# 4 0.000000 0.000000 0.000000 0.126530 0.000000 -0.009637
# 5 0.001308 0.002653 -0.004304 0.000000 0.021857 0.000000
# 6 0.000000 0.000000 0.000000 -0.009637 0.000000 0.076027
#
#
# Mechanical properties :
#
#
# Convention : Reuss Voigt Hill
#
# Bulk Modulus (GPa) = 48.79500 62.93884 55.86692
# Shear Modulus (GPa) = 18.24913 34.13765 26.19339
#
# Velocity S-wave (km/s) = 2.93533 4.01470 3.51668
# Velocity P-wave (km/s) = 5.87592 7.15587 6.54725
#
# Compressibility (1/GPa) = 0.02049390
#
# Stress axis : x y z
#
# Youngs Moduli (GPa) = 90.27946 75.24598 137.91653
#
# Poissons Ratio (x) = -0.07097 0.37041
# Poissons Ratio (y) = -0.08514 0.52671
# Poissons Ratio (z) = 0.24247 0.28737
#
# Static dielectric constant tensor:
#      x y z
#    x 1.792220 0.000000 -0.003510 
#    y 0.000000 2.405060 0.000000 
#    z -0.003510 0.000000 1.867210 
# 
# From -- ./inp_files/188972.got.cif
#   From: 2010.05.17/outbox.cif.g08.bks.cpg/sg15_95_cif.got.tgz:188972.got - 2010.06.03 18:47:42.
