data_PCOD9304972
_publ_section_title
;
Structure prediction by ZEFSAII (Michael W. Deem and Ramdas Pophale) SiO2 
 PCOD9304972
Probable space group: C 2/C
;
_chemical_formula_sum "Si O2"
_cell_formula_units_Z 48
_cell_length_a 29.625505
_cell_length_b 8.683580
_cell_length_c 9.999338
_cell_angle_alpha 90.000000
_cell_angle_beta 81.623917
_cell_angle_gamma 90.000000
_cell_volume 2544.945085
_symmetry_space_group_name_H-M "C 2/C"
_symmetry_group_IT_number 15
_symmetry_cell_setting 'monoclinic'
loop_
_space_group_symop_operation_xyz
x,y,z
-x,y,1/2-z
-x,-y,-z
x,-y,1/2+z
1/2+x,1/2+y,z
1/2-x,1/2+y,1/2-z
1/2-x,1/2-y,-z
1/2+x,1/2-y,1/2+z
loop_
_atom_site_type_symbol
_atom_site_label
_atom_site_fract_x
_atom_site_fract_y
_atom_site_fract_z
Si Si1 0.142245 0.153268 0.833834
Si Si2 0.783724 0.314649 0.098528
Si Si3 0.868682 0.862760 0.472839
Si Si4 0.235515 0.323536 0.865402
Si Si5 0.056682 0.626080 0.366027
Si Si6 0.453198 0.162125 0.439961
O O1 0.139403 0.103970 0.679978
O O2 0.188397 0.247482 0.837388
O O3 0.098593 0.262114 0.879663
O O4 0.142075 0.008693 0.932029
O O5 0.772570 0.494096 0.121580
O O6 0.772906 0.222755 0.239044
O O7 0.750000 0.250000 0.000000
O O8 0.834760 0.276035 0.029173
O O9 0.920340 0.807011 0.471443
O O10 0.250000 0.250000 0.000000
O O11 0.056413 0.599888 0.206147
O O12 0.058846 0.467960 0.446986
O O13 0.007072 0.696735 0.423199
#
# Coordination Sequence:
#
# PCOD9304972 Si02
#       6
#     8   8   8   8   8   8
#     4  11  24  41  60  90 122 163 204 253 307 365
#     4  12  24  44  63  91 124 161 205 254 308 365
#     4  11  24  40  61  88 126 160 205 253 306 366
#     4  12  26  42  67  91 122 164 205 255 308 365
#     4   9  19  38  63  88 122 157 203 250 310 364
#     4   9  19  38  62  90 120 159 200 255 304 367
#
# _framework density 18.860917000000001
#
# number of rings (size 3 to 8) (size 9 to 14) (size 15 to 20)
#    0.000    1.333    1.667    4.000    2.333    2.000 
#    0.000    0.000    0.000    0.000    0.000    0.000 
#    0.000    0.000    0.000    0.000    0.000    0.000 
#
# Total GULP energy -134146.873020 kJ/mol
# GULP energy per Si atom -5589.453042 kJ/mol
# Density = 1.881799 g / cm^3
# Si number density = 18.860917 Si / 1000 Ang^3
#
#
#
# Elastic Constant Matrix: (Units=GPa)
#
#
# Indices 1 2 3 4 5 6 
#
# 1 75.6304 12.1357 16.6950 0.0000 3.6572 0.0000
# 2 12.1357 76.9197 28.8392 0.0000 -5.1761 0.0000
# 3 16.6950 28.8392 81.9388 0.0000 -10.8515 0.0000
# 4 0.0000 0.0000 0.0000 28.4560 0.0000 -4.0313
# 5 3.6572 -5.1761 -10.8515 0.0000 26.6350 0.0000
# 6 0.0000 0.0000 0.0000 -4.0313 0.0000 26.6991
#
#
#
# Elastic Compliance Matrix: (Units=1/GPa)
#
#
# Indices 1 2 3 4 5 6 
#
# 1 0.014242 -0.001404 -0.002857 0.000000 -0.003392 0.000000
# 2 -0.001404 0.015132 -0.004888 0.000000 0.001142 0.000000
# 3 -0.002857 -0.004888 0.015256 0.000000 0.005658 0.000000
# 4 0.000000 0.000000 0.000000 0.035910 0.000000 0.005422
# 5 -0.003392 0.001142 0.005658 0.000000 0.040537 0.000000
# 6 0.000000 0.000000 0.000000 0.005422 0.000000 0.038273
#
#
# Mechanical properties :
#
#
# Convention : Reuss Voigt Hill
#
# Bulk Modulus (GPa) = 37.97795 38.86983 38.42389
# Shear Modulus (GPa) = 26.82017 28.14595 27.48306
#
# Velocity S-wave (km/s) = 3.77503 3.86721 3.82140
# Velocity P-wave (km/s) = 6.25944 6.37133 6.31563
#
# Compressibility (1/GPa) = 0.02633107
#
# Stress axis : x y z
#
# Youngs Moduli (GPa) = 70.21386 66.08619 65.54728
#
# Poissons Ratio (x) = 0.09280 0.18726
# Poissons Ratio (y) = 0.09859 0.32043
# Poissons Ratio (z) = 0.20059 0.32306
#
# Static dielectric constant tensor:
#      x y z
#    x 1.659530 0.000000 -0.013380 
#    y 0.000000 1.610930 0.000000 
#    z -0.013380 0.000000 1.647210 
# 
# From -- ./inp_files/68590.got.cif
#   From: 2010.05.17/outbox.cif.g08.bks.cpg/sg15_35_cif.got.tgz:68590.got - 2010.06.03 18:47:42.
