data_PCOD9304138
_publ_section_title
;
Structure prediction by ZEFSAII (Michael W. Deem and Ramdas Pophale) SiO2 
 PCOD9304138
Probable space group: C 2/C
;
_chemical_formula_sum "Si O2"
_cell_formula_units_Z 40
_cell_length_a 22.448138
_cell_length_b 7.150478
_cell_length_c 9.521952
_cell_angle_alpha 90.000000
_cell_angle_beta 97.877406
_cell_angle_gamma 90.000000
_cell_volume 1513.992574
_symmetry_space_group_name_H-M "C 2/C"
_symmetry_group_IT_number 15
_symmetry_cell_setting 'monoclinic'
loop_
_space_group_symop_operation_xyz
x,y,z
-x,y,1/2-z
-x,-y,-z
x,-y,1/2+z
1/2+x,1/2+y,z
1/2-x,1/2+y,1/2-z
1/2-x,1/2-y,-z
1/2+x,1/2-y,1/2+z
loop_
_atom_site_type_symbol
_atom_site_label
_atom_site_fract_x
_atom_site_fract_y
_atom_site_fract_z
Si Si1 0.703058 0.383654 0.904729
Si Si2 0.328182 0.711900 0.409668
Si Si3 0.564229 0.157243 0.209061
Si Si4 0.957220 0.929928 0.859473
Si Si5 0.374091 0.060294 0.535176
O O1 0.694093 0.587293 0.967562
O O2 0.750000 0.250000 0.000000
O O3 0.706929 0.362088 0.738611
O O4 0.642825 0.267962 0.925993
O O5 0.399901 0.680165 0.402123
O O6 0.324345 0.933545 0.438229
O O7 0.500000 0.113073 0.250000
O O8 0.570936 0.380212 0.214276
O O9 0.611892 0.057515 0.323093
O O10 0.571587 0.085809 0.054454
O O11 0.000000 0.845533 0.750000
O O12 0.000000 0.000000 0.000000
#
# Coordination Sequence:
#
# PCOD9304138 Si02
#       5
#     8   8   8   8   8
#     4  12  30  50  76 106 142 194 251 309 373 430
#     4  12  26  49  76 105 151 188 244 308 363 443
#     4  11  23  42  69 107 151 192 238 290 359 440
#     4  11  23  42  72 107 146 193 233 286 366 440
#     4  12  25  47  72 107 150 190 246 301 363 437
#
# _framework density 26.420209
#
# number of rings (size 3 to 8) (size 9 to 14) (size 15 to 20)
#    0.000    0.400    4.000    5.400    2.800    1.600 
#    0.000    0.000    0.000    0.000    0.000    0.000 
#    0.000    0.000    0.000    0.000    0.000    0.000 
#
# Total GULP energy -112143.850253 kJ/mol
# GULP energy per Si atom -5607.192513 kJ/mol
# Density = 2.636008 g / cm^3
# Si number density = 26.420209 Si / 1000 Ang^3
#
#
#
# Elastic Constant Matrix: (Units=GPa)
#
#
# Indices 1 2 3 4 5 6 
#
# 1 57.5527 -11.9331 -5.1399 0.0000 -9.7885 0.0000
# 2 -11.9331 118.1968 -1.2101 0.0000 -19.1507 0.0000
# 3 -5.1399 -1.2101 116.5678 0.0000 -2.3861 0.0000
# 4 0.0000 0.0000 0.0000 32.5823 0.0000 -11.1139
# 5 -9.7885 -19.1507 -2.3861 0.0000 37.2342 0.0000
# 6 0.0000 0.0000 0.0000 -11.1139 0.0000 22.9649
#
#
#
# Elastic Compliance Matrix: (Units=1/GPa)
#
#
# Indices 1 2 3 4 5 6 
#
# 1 0.019232 0.003035 0.001016 0.000000 0.006682 0.000000
# 2 0.003035 0.009713 0.000354 0.000000 0.005816 0.000000
# 3 0.001016 0.000354 0.008648 0.000000 0.001003 0.000000
# 4 0.000000 0.000000 0.000000 0.036760 0.000000 0.017790
# 5 0.006682 0.005816 0.001003 0.000000 0.031669 0.000000
# 6 0.000000 0.000000 0.000000 0.017790 0.000000 0.052154
#
#
# Mechanical properties :
#
#
# Convention : Reuss Voigt Hill
#
# Bulk Modulus (GPa) = 21.55102 28.41679 24.98391
# Shear Modulus (GPa) = 30.33364 39.26295 34.79829
#
# Velocity S-wave (km/s) = 3.39207 3.85917 3.63314
# Velocity P-wave (km/s) = 4.84936 5.53504 5.20351
#
# Compressibility (1/GPa) = 0.04640151
#
# Stress axis : x y z
#
# Youngs Moduli (GPa) = 51.99724 102.95689 115.63744
#
# Poissons Ratio (x) = -0.31244 -0.11752
# Poissons Ratio (y) = -0.15779 -0.04090
# Poissons Ratio (z) = -0.05284 -0.03641
#
# Static dielectric constant tensor:
#      x y z
#    x 2.149420 0.000000 0.070810 
#    y 0.000000 2.028230 0.000000 
#    z 0.070810 0.000000 2.058700 
# 
# From -- ./inp_files/60084.got.cif
#   From: 2010.05.17/outbox.cif.g08.bks.cpg/sg15_31_cif.got.tgz:60084.got - 2010.06.03 18:47:42.
