data_PCOD9304976
_publ_section_title
;
Structure prediction by ZEFSAII (Michael W. Deem and Ramdas Pophale) SiO2 
 PCOD9304976
Probable space group: C 2/C
;
_chemical_formula_sum "Si O2"
_cell_formula_units_Z 64
_cell_length_a 32.694990
_cell_length_b 13.992805
_cell_length_c 9.370736
_cell_angle_alpha 90.000000
_cell_angle_beta 56.193257
_cell_angle_gamma 90.000000
_cell_volume 3562.200666
_symmetry_space_group_name_H-M "C 2/C"
_symmetry_group_IT_number 15
_symmetry_cell_setting 'monoclinic'
loop_
_space_group_symop_operation_xyz
x,y,z
-x,y,1/2-z
-x,-y,-z
x,-y,1/2+z
1/2+x,1/2+y,z
1/2-x,1/2+y,1/2-z
1/2-x,1/2-y,-z
1/2+x,1/2-y,1/2+z
loop_
_atom_site_type_symbol
_atom_site_label
_atom_site_fract_x
_atom_site_fract_y
_atom_site_fract_z
Si Si1 0.306487 0.215709 0.916039
Si Si2 0.790384 0.996179 0.724872
Si Si3 0.948389 0.107286 0.779017
Si Si4 0.449656 0.597697 0.427666
Si Si5 0.150584 0.806397 0.398030
Si Si6 0.277399 0.011014 0.893835
Si Si7 0.150473 0.193319 0.424101
Si Si8 0.698003 0.199771 0.064866
O O1 0.344417 0.279454 0.750916
O O2 0.308154 0.104424 0.872595
O O3 0.250000 0.250000 0.000000
O O4 0.322023 0.236100 0.046866
O O5 0.820823 0.092910 0.654566
O O6 0.739811 0.006394 0.735588
O O7 0.820242 0.905706 0.610371
O O8 0.773988 0.979315 0.918912
O O9 0.952474 0.093664 0.597477
O O10 0.000000 0.139408 0.750000
O O11 0.937948 0.006300 0.880749
O O12 0.903817 0.176878 0.909871
O O13 0.500000 0.625834 0.250000
O O14 0.406074 0.669140 0.470006
O O15 0.157891 0.757958 0.231796
O O16 0.299852 0.910226 0.897021
O O17 0.182471 0.277066 0.434954
O O18 0.750000 0.250000 0.000000
#
# Coordination Sequence:
#
# PCOD9304976 Si02
#       8
#     8   8   8   8   8   8   8   8
#     4  12  24  38  55  89 119 165 205 247 292 355
#     4  12  20  34  57  82 120 164 191 244 284 358
#     4  11  24  40  63  92 122 157 198 251 305 365
#     4  11  24  40  63  92 122 157 198 251 305 365
#     4  12  23  37  60  87 122 162 204 234 303 365
#     4  12  24  36  56  80 122 160 208 244 288 332
#     4  12  23  37  60  87 122 162 204 234 303 365
#     4  12  22  38  57  83 117 163 203 247 288 359
#
# _framework density 17.966422000000001
#
# number of rings (size 3 to 8) (size 9 to 14) (size 15 to 20)
#    0.000    0.250    7.500    3.750    3.500    0.000 
#    0.000    0.000    0.000    0.000    0.000    5.250 
#    0.000    0.000    0.000    0.000    0.000    0.000 
#
# Total GULP energy -178698.196498 kJ/mol
# GULP energy per Si atom -5584.318641 kJ/mol
# Density = 1.792553 g / cm^3
# Si number density = 17.966422 Si / 1000 Ang^3
#
#
#
# Elastic Constant Matrix: (Units=GPa)
#
#
# Indices 1 2 3 4 5 6 
#
# 1 64.2234 23.7718 16.2896 0.0000 -7.0366 0.0000
# 2 23.7718 110.0928 14.2662 0.0000 -10.0055 0.0000
# 3 16.2896 14.2662 71.3841 0.0000 -7.4742 0.0000
# 4 0.0000 0.0000 0.0000 29.0216 0.0000 2.1795
# 5 -7.0366 -10.0055 -7.4742 0.0000 35.2540 0.0000
# 6 0.0000 0.0000 0.0000 2.1795 0.0000 24.2218
#
#
#
# Elastic Compliance Matrix: (Units=1/GPa)
#
#
# Indices 1 2 3 4 5 6 
#
# 1 0.017801 -0.003251 -0.003208 0.000000 0.001950 0.000000
# 2 -0.003251 0.010105 -0.001069 0.000000 0.001992 0.000000
# 3 -0.003208 -0.001069 0.015193 0.000000 0.002277 0.000000
# 4 0.000000 0.000000 0.000000 0.034692 0.000000 -0.003122
# 5 0.001950 0.001992 0.002277 0.000000 0.029803 0.000000
# 6 0.000000 0.000000 0.000000 -0.003122 0.000000 0.041566
#
#
# Mechanical properties :
#
#
# Convention : Reuss Voigt Hill
#
# Bulk Modulus (GPa) = 35.65977 39.37283 37.51630
# Shear Modulus (GPa) = 28.80791 30.45767 29.63279
#
# Velocity S-wave (km/s) = 4.00863 4.12181 4.06562
# Velocity P-wave (km/s) = 6.42780 6.67943 6.55482
#
# Compressibility (1/GPa) = 0.02804281
#
# Stress axis : x y z
#
# Youngs Moduli (GPa) = 56.17556 98.96319 65.82004
#
# Poissons Ratio (x) = 0.32170 0.21117
# Poissons Ratio (y) = 0.18261 0.07036
# Poissons Ratio (z) = 0.18023 0.10580
#
# Static dielectric constant tensor:
#      x y z
#    x 1.606690 0.000000 -0.001620 
#    y 0.000000 1.606530 0.000000 
#    z -0.001620 0.000000 1.659660 
# 
# From -- ./inp_files/69942.got.cif
#   From: 2010.05.17/outbox.cif.g08.bks.cpg/sg15_35_cif.got.tgz:69942.got - 2010.06.03 18:47:42.
