data_PCOD9304259
_publ_section_title
;
Structure prediction by ZEFSAII (Michael W. Deem and Ramdas Pophale) SiO2 
 PCOD9304259
Probable space group: C 2/C
;
_chemical_formula_sum "Si O2"
_cell_formula_units_Z 64
_cell_length_a 12.465284
_cell_length_b 18.079530
_cell_length_c 14.818195
_cell_angle_alpha 90.000000
_cell_angle_beta 88.315896
_cell_angle_gamma 90.000000
_cell_volume 3338.081888
_symmetry_space_group_name_H-M "C 2/C"
_symmetry_group_IT_number 15
_symmetry_cell_setting 'monoclinic'
loop_
_space_group_symop_operation_xyz
x,y,z
-x,y,1/2-z
-x,-y,-z
x,-y,1/2+z
1/2+x,1/2+y,z
1/2-x,1/2+y,1/2-z
1/2-x,1/2-y,-z
1/2+x,1/2-y,1/2+z
loop_
_atom_site_type_symbol
_atom_site_label
_atom_site_fract_x
_atom_site_fract_y
_atom_site_fract_z
Si Si1 0.793584 0.612277 0.628798
Si Si2 0.079469 0.238194 0.331144
Si Si3 0.575417 0.305254 0.170750
Si Si4 0.627366 0.000910 0.014200
Si Si5 0.209605 0.671540 0.252591
Si Si6 0.567101 0.281130 0.500510
Si Si7 0.715676 0.847448 0.960999
Si Si8 0.626914 0.994537 0.726632
O O1 0.868549 0.683949 0.640644
O O2 0.672140 0.641467 0.638746
O O3 0.822824 0.573601 0.533286
O O4 0.817722 0.553609 0.708177
O O5 0.176604 0.185800 0.297649
O O6 0.000000 0.251011 0.250000
O O7 0.011137 0.204841 0.414331
O O8 0.500000 0.339162 0.250000
O O9 0.628460 0.231391 0.212256
O O10 0.501956 0.284208 0.088042
O O11 0.645857 0.991230 0.120170
O O12 0.500000 0.000000 0.000000
O O13 0.679925 0.931450 0.962773
O O14 0.222655 0.683878 0.359277
O O15 0.167147 0.588759 0.242239
O O16 0.624004 0.201270 0.511184
O O17 0.668941 0.335745 0.496472
O O18 0.500000 0.998109 0.750000
#
# Coordination Sequence:
#
# PCOD9304259 Si02
#       8
#     8   8   8   8   8   8   8   8
#     4  11  26  42  63  98 131 167 214 263 326 386
#     4  11  24  41  66  95 133 168 212 266 320 381
#     4  11  25  43  67  95 133 170 215 267 322 379
#     4  12  25  42  65  96 131 166 211 269 326 380
#     4  11  23  43  67  96 129 170 219 265 317 383
#     4  11  25  41  68  97 128 171 217 265 321 380
#     4  11  23  43  68  95 127 172 221 263 313 394
#     4  12  25  42  67  94 130 169 210 267 327 379
#
# _framework density 19.172688000000001
#
# number of rings (size 3 to 8) (size 9 to 14) (size 15 to 20)
#    0.000    0.750    5.000    1.500    8.750    1.000 
#    0.000    2.500    0.000    0.000    0.000    0.000 
#    0.000    0.000    0.000    0.000    0.000    0.000 
#
# Total GULP energy -178930.155630 kJ/mol
# GULP energy per Si atom -5591.567363 kJ/mol
# Density = 1.912905 g / cm^3
# Si number density = 19.172688 Si / 1000 Ang^3
#
#
#
# Elastic Constant Matrix: (Units=GPa)
#
#
# Indices 1 2 3 4 5 6 
#
# 1 134.0549 34.4437 33.8803 0.0000 -0.1413 0.0000
# 2 34.4437 71.2611 -1.1973 0.0000 2.9598 0.0000
# 3 33.8803 -1.1973 98.9268 0.0000 -2.9244 0.0000
# 4 0.0000 0.0000 0.0000 28.9579 0.0000 -2.4276
# 5 -0.1413 2.9598 -2.9244 0.0000 32.9507 0.0000
# 6 0.0000 0.0000 0.0000 -2.4276 0.0000 10.5917
#
#
#
# Elastic Compliance Matrix: (Units=1/GPa)
#
#
# Indices 1 2 3 4 5 6 
#
# 1 0.009488 -0.004649 -0.003301 0.000000 0.000165 0.000000
# 2 -0.004649 0.016365 0.001751 0.000000 -0.001335 0.000000
# 3 -0.003301 0.001751 0.011285 0.000000 0.000830 0.000000
# 4 0.000000 0.000000 0.000000 0.035209 0.000000 0.008070
# 5 0.000165 -0.001335 0.000830 0.000000 0.030543 0.000000
# 6 0.000000 0.000000 0.000000 0.008070 0.000000 0.096264
#
#
# Mechanical properties :
#
#
# Convention : Reuss Voigt Hill
#
# Bulk Modulus (GPa) = 40.42030 48.72179 44.57104
# Shear Modulus (GPa) = 22.74819 30.30780 26.52800
#
# Velocity S-wave (km/s) = 3.44828 3.98022 3.72376
# Velocity P-wave (km/s) = 6.08130 6.82569 6.46422
#
# Compressibility (1/GPa) = 0.02474005
#
# Stress axis : x y z
#
# Youngs Moduli (GPa) = 105.39126 61.10755 88.61536
#
# Poissons Ratio (x) = 0.28406 0.29252
# Poissons Ratio (y) = 0.48991 -0.15513
# Poissons Ratio (z) = 0.34789 -0.10698
#
# Static dielectric constant tensor:
#      x y z
#    x 1.642410 0.000000 -0.002640 
#    y 0.000000 1.641290 0.000000 
#    z -0.002640 0.000000 1.691380 
# 
# From -- ./inp_files/146061.got.cif
#   From: 2010.05.17/outbox.cif.g08.bks.cpg/sg15_74_cif.got.tgz:146061.got - 2010.06.03 18:47:42.
