data_PCOD9304169
_publ_section_title
;
Structure prediction by ZEFSAII (Michael W. Deem and Ramdas Pophale) SiO2 
 PCOD9304169
Probable space group: C 2/C
;
_chemical_formula_sum "Si O2"
_cell_formula_units_Z 44
_cell_length_a 8.811513
_cell_length_b 18.461905
_cell_length_c 14.518177
_cell_angle_alpha 90.000000
_cell_angle_beta 64.134862
_cell_angle_gamma 90.000000
_cell_volume 2125.183140
_symmetry_space_group_name_H-M "C 2/C"
_symmetry_group_IT_number 15
_symmetry_cell_setting 'monoclinic'
loop_
_space_group_symop_operation_xyz
x,y,z
-x,y,1/2-z
-x,-y,-z
x,-y,1/2+z
1/2+x,1/2+y,z
1/2-x,1/2+y,1/2-z
1/2-x,1/2-y,-z
1/2+x,1/2-y,1/2+z
loop_
_atom_site_type_symbol
_atom_site_label
_atom_site_fract_x
_atom_site_fract_y
_atom_site_fract_z
Si Si1 0.769291 0.775769 0.720300
Si Si2 0.000000 0.382486 0.750000
Si Si3 0.829949 0.111039 0.745929
Si Si4 0.520182 0.993213 0.385194
Si Si5 0.341451 0.693712 0.409351
Si Si6 0.853508 0.061030 0.538680
O O1 0.658247 0.830470 0.689517
O O2 0.708126 0.694258 0.721069
O O3 0.757938 0.799006 0.830913
O O4 0.965642 0.781378 0.647594
O O5 0.949460 0.432817 0.677835
O O6 0.668307 0.062743 0.818120
O O7 0.870304 0.107457 0.626904
O O8 0.000000 0.084413 0.750000
O O9 0.333658 0.970978 0.401998
O O10 0.500000 0.000000 0.500000
O O11 0.250000 0.750000 0.500000
O O12 0.347827 0.613318 0.451330
O O13 0.000000 0.000000 0.500000
#
# Coordination Sequence:
#
# PCOD9304169 Si02
#       6
#     8   4   8   8   8   8
#     4  11  25  43  70 104 144 183 236 300 353 427
#     4  12  24  48  68 110 142 182 236 296 348 428
#     4  12  25  46  71 101 144 189 239 295 357 421
#     4  12  26  47  74 102 145 189 237 293 363 426
#     4  11  23  42  71 101 139 189 236 287 364 424
#     4  12  24  45  72 105 139 186 238 295 355 431
#
# _framework density 20.704097999999998
#
# number of rings (size 3 to 8) (size 9 to 14) (size 15 to 20)
#    0.000    0.364    4.545    4.364    2.545    0.000 
#    0.000    2.727    0.000    0.000    0.000    0.000 
#    0.000    0.000    0.000    0.000    0.000    0.000 
#
# Total GULP energy -122975.258158 kJ/mol
# GULP energy per Si atom -5589.784462 kJ/mol
# Density = 2.065697 g / cm^3
# Si number density = 20.704098 Si / 1000 Ang^3
#
#
#
# Elastic Constant Matrix: (Units=GPa)
#
#
# Indices 1 2 3 4 5 6 
#
# 1 103.3852 43.7635 13.9106 0.0000 -19.8553 0.0000
# 2 43.7635 142.6103 41.9734 0.0000 -17.2622 0.0000
# 3 13.9106 41.9734 89.1696 0.0000 -2.9158 0.0000
# 4 0.0000 0.0000 0.0000 22.7890 0.0000 -9.4650
# 5 -19.8553 -17.2622 -2.9158 0.0000 34.5261 0.0000
# 6 0.0000 0.0000 0.0000 -9.4650 0.0000 41.7904
#
#
#
# Elastic Compliance Matrix: (Units=1/GPa)
#
#
# Indices 1 2 3 4 5 6 
#
# 1 0.011995 -0.002935 -0.000313 0.000000 0.005404 0.000000
# 2 -0.002935 0.009374 -0.003868 0.000000 0.002673 0.000000
# 3 -0.000313 -0.003868 0.013051 0.000000 -0.001012 0.000000
# 4 0.000000 0.000000 0.000000 0.048437 0.000000 0.010970
# 5 0.005404 0.002673 -0.001012 0.000000 0.033322 0.000000
# 6 0.000000 0.000000 0.000000 0.010970 0.000000 0.026414
#
#
# Mechanical properties :
#
#
# Convention : Reuss Voigt Hill
#
# Bulk Modulus (GPa) = 49.53020 59.38447 54.45733
# Shear Modulus (GPa) = 30.57102 35.52228 33.04665
#
# Velocity S-wave (km/s) = 3.84678 4.14661 3.99951
# Velocity P-wave (km/s) = 6.61099 7.18822 6.90564
#
# Compressibility (1/GPa) = 0.02018970
#
# Stress axis : x y z
#
# Youngs Moduli (GPa) = 83.36921 106.67254 76.62336
#
# Poissons Ratio (x) = 0.31304 0.02399
# Poissons Ratio (y) = 0.24465 0.29634
# Poissons Ratio (z) = 0.02611 0.41256
#
# Static dielectric constant tensor:
#      x y z
#    x 1.315470 0.000000 -0.405740 
#    y 0.000000 1.748440 0.000000 
#    z -0.405740 0.000000 1.323270 
# 
# From -- ./inp_files/134263.got.cif
#   From: 2010.05.17/outbox.cif.g08.bks.cpg/sg15_68_cif.got.tgz:134263.got - 2010.06.03 18:47:42.
