data_PCOD9304470
_publ_section_title
;
Structure prediction by ZEFSAII (Michael W. Deem and Ramdas Pophale) SiO2 
 PCOD9304470
Probable space group: C 2/C
;
_chemical_formula_sum "Si O2"
_cell_formula_units_Z 44
_cell_length_a 5.323854
_cell_length_b 30.215077
_cell_length_c 12.396528
_cell_angle_alpha 90.000000
_cell_angle_beta 94.635472
_cell_angle_gamma 90.000000
_cell_volume 1987.590984
_symmetry_space_group_name_H-M "C 2/C"
_symmetry_group_IT_number 15
_symmetry_cell_setting 'monoclinic'
loop_
_space_group_symop_operation_xyz
x,y,z
-x,y,1/2-z
-x,-y,-z
x,-y,1/2+z
1/2+x,1/2+y,z
1/2-x,1/2+y,1/2-z
1/2-x,1/2-y,-z
1/2+x,1/2-y,1/2+z
loop_
_atom_site_type_symbol
_atom_site_label
_atom_site_fract_x
_atom_site_fract_y
_atom_site_fract_z
Si Si1 0.496142 0.870000 0.621420
Si Si2 0.459043 0.949404 0.467355
Si Si3 0.078461 0.912788 0.129254
Si Si4 0.160522 0.785547 0.859933
Si Si5 0.500000 0.284350 0.250000
Si Si6 0.426760 0.675846 0.536450
O O1 0.500000 0.876110 0.750000
O O2 0.546380 0.916677 0.566770
O O3 0.681701 0.829164 0.609542
O O4 0.250852 0.850719 0.552328
O O5 0.166816 0.937296 0.431758
O O6 0.659276 0.937902 0.380196
O O7 0.500000 0.000000 0.500000
O O8 0.114658 0.863306 0.082140
O O9 0.000000 0.908327 0.250000
O O10 0.322134 0.745232 0.819687
O O11 0.000000 0.797675 0.750000
O O12 0.007160 0.781971 0.965843
O O13 0.666356 0.309034 0.347531
#
# Coordination Sequence:
#
# PCOD9304470 Si02
#       6
#     8   8   8   8   4   8
#     4  11  23  44  69  95 141 188 229 294 367 432
#     4  11  25  45  74 110 141 184 245 296 358 437
#     4  11  23  45  72 103 148 187 229 295 366 431
#     4  12  23  43  66  96 137 180 239 293 361 425
#     4  12  26  42  66 104 134 182 242 298 362 418
#     4  11  24  43  67  99 138 186 238 292 364 431
#
# _framework density 22.137350999999999
#
# number of rings (size 3 to 8) (size 9 to 14) (size 15 to 20)
#    0.000    0.727    5.455    1.636    0.000    5.818 
#    0.000    0.909    0.000    0.000    0.000    0.000 
#    0.000    0.000    0.000    0.000    0.000    0.000 
#
# Total GULP energy -122611.688746 kJ/mol
# GULP energy per Si atom -5573.258579 kJ/mol
# Density = 2.208697 g / cm^3
# Si number density = 22.137351 Si / 1000 Ang^3
#
#
#
# Elastic Constant Matrix: (Units=GPa)
#
#
# Indices 1 2 3 4 5 6 
#
# 1 38.1184 3.2600 8.1431 0.0000 -11.7035 0.0000
# 2 3.2600 72.7021 42.1732 0.0000 -8.1200 0.0000
# 3 8.1431 42.1732 176.9331 0.0000 -21.6096 0.0000
# 4 0.0000 0.0000 0.0000 24.3132 0.0000 -13.4479
# 5 -11.7035 -8.1200 -21.6096 0.0000 31.6161 0.0000
# 6 0.0000 0.0000 0.0000 -13.4479 0.0000 18.9818
#
#
#
# Elastic Compliance Matrix: (Units=1/GPa)
#
#
# Indices 1 2 3 4 5 6 
#
# 1 0.029599 -0.000105 -0.000002 0.000000 0.010928 0.000000
# 2 -0.000105 0.016040 -0.003622 0.000000 0.001605 0.000000
# 3 -0.000002 -0.003622 0.006985 0.000000 0.003843 0.000000
# 4 0.000000 0.000000 0.000000 0.067632 0.000000 0.047915
# 5 0.010928 0.001605 0.003843 0.000000 0.038713 0.000000
# 6 0.000000 0.000000 0.000000 0.047915 0.000000 0.086628
#
#
# Mechanical properties :
#
#
# Convention : Reuss Voigt Hill
#
# Bulk Modulus (GPa) = 22.14185 43.87845 33.01015
# Shear Modulus (GPa) = 18.64890 30.59405 24.62147
#
# Velocity S-wave (km/s) = 2.90559 3.72157 3.33861
# Velocity P-wave (km/s) = 4.61307 6.19119 5.45945
#
# Compressibility (1/GPa) = 0.04516334
#
# Stress axis : x y z
#
# Youngs Moduli (GPa) = 33.78510 62.34411 143.16941
#
# Poissons Ratio (x) = 0.00656 0.00035
# Poissons Ratio (y) = 0.00356 0.51862
# Poissons Ratio (z) = 0.00008 0.22584
#
# Static dielectric constant tensor:
#      x y z
#    x 1.789080 0.000000 -0.479560 
#    y 0.000000 1.854190 0.000000 
#    z -0.479560 0.000000 1.239350 
# 
# From -- ./inp_files/73854.got.cif
#   From: 2010.05.17/outbox.cif.g08.bks.cpg/sg15_37_cif.got.tgz:73854.got - 2010.06.03 18:47:42.
