data_PCOD9304938
_publ_section_title
;
Structure prediction by ZEFSAII (Michael W. Deem and Ramdas Pophale) SiO2 
 PCOD9304938
Probable space group: C 2/C
;
_chemical_formula_sum "Si O2"
_cell_formula_units_Z 60
_cell_length_a 22.554424
_cell_length_b 27.824205
_cell_length_c 5.236087
_cell_angle_alpha 90.000000
_cell_angle_beta 63.567050
_cell_angle_gamma 90.000000
_cell_volume 2942.426108
_symmetry_space_group_name_H-M "C 2/C"
_symmetry_group_IT_number 15
_symmetry_cell_setting 'monoclinic'
loop_
_space_group_symop_operation_xyz
x,y,z
-x,y,1/2-z
-x,-y,-z
x,-y,1/2+z
1/2+x,1/2+y,z
1/2-x,1/2+y,1/2-z
1/2-x,1/2-y,-z
1/2+x,1/2-y,1/2+z
loop_
_atom_site_type_symbol
_atom_site_label
_atom_site_fract_x
_atom_site_fract_y
_atom_site_fract_z
Si Si1 0.684991 0.024906 0.969304
Si Si2 0.676542 0.730792 0.673357
Si Si3 0.000000 0.282623 0.250000
Si Si4 0.372463 0.174818 0.140151
Si Si5 0.845664 0.972176 0.161115
Si Si6 0.316394 0.872073 0.255670
Si Si7 0.662853 0.365076 0.495482
Si Si8 0.433333 0.703845 0.014104
O O1 0.765349 0.024686 0.823323
O O2 0.666230 0.076058 0.891217
O O3 0.663143 0.986255 0.798466
O O4 0.750000 0.750000 0.500000
O O5 0.652030 0.772593 0.907892
O O6 0.621396 0.729181 0.559443
O O7 0.676589 0.676054 0.761123
O O8 0.036718 0.245487 0.366384
O O9 0.950649 0.316917 0.501411
O O10 0.338558 0.162435 0.476965
O O11 0.352058 0.139426 0.952516
O O12 0.869020 0.993444 0.385851
O O13 0.859667 0.916354 0.072370
O O14 0.237026 0.871417 0.468562
O O15 0.606993 0.339511 0.774542
O O16 0.500000 0.684442 0.750000
#
# Coordination Sequence:
#
# PCOD9304938 Si02
#       8
#     8   8   4   8   8   8   8   8
#     4   9  17  34  58  88 125 163 206 264 329 395
#     4  12  24  38  63  96 134 170 219 276 336 387
#     4  12  26  42  62  88 128 190 224 268 314 396
#     4  12  24  40  60  91 132 174 218 266 321 396
#     4   9  20  37  60  89 127 164 209 271 336 388
#     4  11  24  38  63  98 132 168 215 273 336 387
#     4  11  24  37  65  97 127 173 220 271 334 396
#     4  12  24  43  63  89 130 180 233 266 322 402
#
# _framework density 20.391337
#
# number of rings (size 3 to 8) (size 9 to 14) (size 15 to 20)
#    0.000    1.067    4.000    2.400    1.867    3.200 
#    0.000    0.000    0.000    0.800    0.000    9.333 
#    0.000    0.000    0.000    0.000    0.000    0.000 
#
# Total GULP energy -167182.127860 kJ/mol
# GULP energy per Si atom -5572.737595 kJ/mol
# Density = 2.034493 g / cm^3
# Si number density = 20.391337 Si / 1000 Ang^3
#
#
#
# Elastic Constant Matrix: (Units=GPa)
#
#
# Indices 1 2 3 4 5 6 
#
# 1 133.8594 -5.6146 20.3252 0.0000 17.0755 0.0000
# 2 -5.6146 86.3801 6.3433 0.0000 -15.5028 0.0000
# 3 20.3252 6.3433 85.1962 0.0000 -23.9451 0.0000
# 4 0.0000 0.0000 0.0000 23.8532 0.0000 14.0010
# 5 17.0755 -15.5028 -23.9451 0.0000 43.6993 0.0000
# 6 0.0000 0.0000 0.0000 14.0010 0.0000 -25.7012
#
#
#
# Elastic Compliance Matrix: (Units=1/GPa)
#
#
# Indices 1 2 3 4 5 6 
#
# 1 0.008700 -0.000143 -0.003587 0.000000 -0.005416 0.000000
# 2 -0.000143 0.012376 0.000428 0.000000 0.004681 0.000000
# 3 -0.003587 0.000428 0.015364 0.000000 0.009973 0.000000
# 4 0.000000 0.000000 0.000000 0.031766 0.000000 0.017305
# 5 -0.005416 0.004681 0.009973 0.000000 0.032125 0.000000
# 6 0.000000 0.000000 0.000000 0.017305 0.000000 -0.029482
#
#
# Mechanical properties :
#
#
# Convention : Reuss Voigt Hill
#
# Bulk Modulus (GPa) = 33.51554 38.61594 36.06574
# Shear Modulus (GPa) = 57.20896 27.32905 42.26901
#
# Velocity S-wave (km/s) = 5.30249 3.66489 4.55784
# Velocity P-wave (km/s) = 7.34578 6.07347 6.73971
#
# Compressibility (1/GPa) = 0.02983691
#
# Stress axis : x y z
#
# Youngs Moduli (GPa) = 114.94191 80.80070 65.08578
#
# Poissons Ratio (x) = 0.01156 0.23347
# Poissons Ratio (y) = 0.01645 -0.02788
# Poissons Ratio (z) = 0.41231 -0.03461
#
# Static dielectric constant tensor:
#      x y z
#    x 1.774630 0.000000 -0.011430 
#    y 0.000000 1.762660 0.000000 
#    z -0.011430 0.000000 1.796770 
# 
# From -- ./inp_files/14401.got.cif
#   From: 2010.05.17/outbox.cif.g08.bks.cpg/sg15_8_cif.got.tgz:14401.got - 2010.06.03 18:47:42.
