data_PCOD9304557
_publ_section_title
;
Structure prediction by ZEFSAII (Michael W. Deem and Ramdas Pophale) SiO2 
 PCOD9304557
Probable space group: C 2/C
;
_chemical_formula_sum "Si O2"
_cell_formula_units_Z 20
_cell_length_a 18.061913
_cell_length_b 6.981660
_cell_length_c 8.651605
_cell_angle_alpha 90.000000
_cell_angle_beta 139.838986
_cell_angle_gamma 90.000000
_cell_volume 703.618052
_symmetry_space_group_name_H-M "C 2/C"
_symmetry_group_IT_number 15
_symmetry_cell_setting 'monoclinic'
loop_
_space_group_symop_operation_xyz
x,y,z
-x,y,1/2-z
-x,-y,-z
x,-y,1/2+z
1/2+x,1/2+y,z
1/2-x,1/2+y,1/2-z
1/2-x,1/2-y,-z
1/2+x,1/2-y,1/2+z
loop_
_atom_site_type_symbol
_atom_site_label
_atom_site_fract_x
_atom_site_fract_y
_atom_site_fract_z
Si Si1 0.303146 0.458219 0.759926
Si Si2 0.250000 0.750000 0.500000
Si Si3 0.576529 0.875740 0.233742
O O1 0.352057 0.658640 0.781295
O O2 0.358307 0.283502 0.758570
O O3 0.176667 0.510221 0.475373
O O4 0.293349 0.398614 0.919724
O O5 0.500000 0.800905 0.250000
O O6 0.500000 0.000000 0.000000
#
# Coordination Sequence:
#
# PCOD9304557 Si02
#       3
#     8   4   8
#     4  11  25  45  73 111 156 206 267 333 400 488
#     4  12  24  48  78 110 162 214 262 340 414 476
#     4  11  23  44  74 110 154 207 263 330 411 485
#
# _framework density 28.424513000000001
#
# number of rings (size 3 to 8) (size 9 to 14) (size 15 to 20)
#    0.000    0.800    0.000    9.600    0.000    0.000 
#    0.000   20.000    0.000    0.000    0.000    2.800 
#    0.000    0.000    0.000    0.000    0.000    0.000 
#
# Total GULP energy -55736.670301 kJ/mol
# GULP energy per Si atom -5573.667030 kJ/mol
# Density = 2.835982 g / cm^3
# Si number density = 28.424513 Si / 1000 Ang^3
#
#
#
# Elastic Constant Matrix: (Units=GPa)
#
#
# Indices 1 2 3 4 5 6 
#
# 1 200.2145 60.4405 89.1722 0.0000 -71.9282 0.0000
# 2 60.4405 190.2742 84.4874 0.0000 -31.4569 0.0000
# 3 89.1722 84.4874 217.3792 0.0000 -34.5800 0.0000
# 4 0.0000 0.0000 0.0000 56.1081 0.0000 -2.7720
# 5 -71.9282 -31.4569 -34.5800 0.0000 56.6891 0.0000
# 6 0.0000 0.0000 0.0000 -2.7720 0.0000 61.3240
#
#
#
# Elastic Compliance Matrix: (Units=1/GPa)
#
#
# Indices 1 2 3 4 5 6 
#
# 1 0.010173 -0.000368 -0.002225 0.000000 0.011346 0.000000
# 2 -0.000368 0.006632 -0.002121 0.000000 0.001920 0.000000
# 3 -0.002225 -0.002121 0.006314 0.000000 -0.000149 0.000000
# 4 0.000000 0.000000 0.000000 0.017863 0.000000 0.000807
# 5 0.011346 0.001920 -0.000149 0.000000 0.033010 0.000000
# 6 0.000000 0.000000 0.000000 0.000807 0.000000 0.016343
#
#
# Mechanical properties :
#
#
# Convention : Reuss Voigt Hill
#
# Bulk Modulus (GPa) = 73.04595 119.56313 96.30454
# Shear Modulus (GPa) = 47.92648 59.74209 53.83428
#
# Velocity S-wave (km/s) = 4.11067 4.58949 4.35666
# Velocity P-wave (km/s) = 6.94868 8.38089 7.69816
#
# Compressibility (1/GPa) = 0.01369001
#
# Stress axis : x y z
#
# Youngs Moduli (GPa) = 98.30056 150.79300 158.38166
#
# Poissons Ratio (x) = 0.05542 0.35245
# Poissons Ratio (y) = 0.03613 0.33598
# Poissons Ratio (z) = 0.21875 0.31988
#
# Static dielectric constant tensor:
#      x y z
#    x -8.859030 0.000000 -1.085780 
#    y 0.000000 -4.671480 0.000000 
#    z -1.085780 0.000000 2.148060 
# 
# From -- ./inp_files/45365.got.cif
#   From: 2010.05.17/outbox.cif.g08.bks.cpg/sg15_23_cif.got.tgz:45365.got - 2010.06.03 18:47:42.
