data_PCOD9304744
_publ_section_title
;
Structure prediction by ZEFSAII (Michael W. Deem and Ramdas Pophale) SiO2 
 PCOD9304744
Probable space group: C 2/C
;
_chemical_formula_sum "Si O2"
_cell_formula_units_Z 40
_cell_length_a 16.513036
_cell_length_b 6.806536
_cell_length_c 27.068827
_cell_angle_alpha 90.000000
_cell_angle_beta 33.247350
_cell_angle_gamma 90.000000
_cell_volume 1668.033446
_symmetry_space_group_name_H-M "C 2/C"
_symmetry_group_IT_number 15
_symmetry_cell_setting 'monoclinic'
loop_
_space_group_symop_operation_xyz
x,y,z
-x,y,1/2-z
-x,-y,-z
x,-y,1/2+z
1/2+x,1/2+y,z
1/2-x,1/2+y,1/2-z
1/2-x,1/2-y,-z
1/2+x,1/2-y,1/2+z
loop_
_atom_site_type_symbol
_atom_site_label
_atom_site_fract_x
_atom_site_fract_y
_atom_site_fract_z
Si Si1 0.838276 0.408817 0.539218
Si Si2 0.950145 0.671784 0.831327
Si Si3 0.581834 0.180790 0.088811
Si Si4 0.357210 0.540069 0.198994
Si Si5 0.656206 0.174404 0.877133
O O1 0.714082 0.263713 0.582960
O O2 0.916177 0.521828 0.455227
O O3 0.773495 0.569874 0.610353
O O4 0.986096 0.302539 0.483482
O O5 0.000000 0.699622 0.750000
O O6 0.054501 0.792960 0.815454
O O7 0.031116 0.142865 0.861082
O O8 0.551648 0.056404 0.153361
O O9 0.750000 0.250000 0.000000
O O10 0.314321 0.620944 0.166662
O O11 0.219278 0.473183 0.302389
#
# Coordination Sequence:
#
# PCOD9304744 Si02
#       5
#     8   8   8   8   8
#     4  11  23  46  70 108 141 190 245 300 366 446
#     4  12  25  47  77 104 146 195 249 308 362 443
#     4  12  25  43  74 103 141 190 246 301 363 431
#     4  12  25  48  70 105 149 193 244 306 371 447
#     4  11  25  43  73 101 150 189 237 306 371 437
#
# _framework density 23.980336000000001
#
# number of rings (size 3 to 8) (size 9 to 14) (size 15 to 20)
#    0.000    0.400    6.000    3.000    0.000    3.200 
#    0.000    0.000    0.000    0.000    0.000    0.000 
#    0.000    0.000    0.000    0.000    0.000    0.000 
#
# Total GULP energy -111682.566790 kJ/mol
# GULP energy per Si atom -5584.128339 kJ/mol
# Density = 2.392576 g / cm^3
# Si number density = 23.980336 Si / 1000 Ang^3
#
#
#
# Elastic Constant Matrix: (Units=GPa)
#
#
# Indices 1 2 3 4 5 6 
#
# 1 43.5842 22.7970 20.7931 -0.0019 -5.1063 0.0101
# 2 22.7970 103.2321 33.3113 0.0064 -10.0623 0.0068
# 3 20.7931 33.3113 114.0014 -0.0004 -9.4448 0.0020
# 4 -0.0019 0.0064 -0.0004 34.6145 -0.0003 -3.4974
# 5 -5.1063 -10.0623 -9.4448 -0.0003 43.9633 -0.0023
# 6 0.0101 0.0068 0.0020 -3.4974 -0.0023 35.1453
#
#
#
# Elastic Compliance Matrix: (Units=1/GPa)
#
#
# Indices 1 2 3 4 5 6 
#
# 1 0.027248 -0.004769 -0.003466 0.000002 0.001329 -0.000006
# 2 -0.004769 0.011673 -0.002408 -0.000003 0.001600 -0.000001
# 3 -0.003466 -0.002408 0.010211 0.000000 0.001240 0.000001
# 4 0.000002 -0.000003 0.000000 0.029183 0.000000 0.002904
# 5 0.001329 0.001600 0.001240 0.000000 0.023533 0.000001
# 6 -0.000006 -0.000001 0.000001 0.002904 0.000001 0.028742
#
#
# Mechanical properties :
#
#
# Convention : Reuss Voigt Hill
#
# Bulk Modulus (GPa) = 35.91450 46.06896 40.99173
# Shear Modulus (GPa) = 31.02518 35.00571 33.01545
#
# Velocity S-wave (km/s) = 3.60081 3.82484 3.71451
# Velocity P-wave (km/s) = 5.68304 6.22565 5.96052
#
# Compressibility (1/GPa) = 0.02784390
#
# Stress axis : x y z
#
# Youngs Moduli (GPa) = 36.69999 85.66572 97.93834
#
# Poissons Ratio (x) = 0.40856 0.33947
# Poissons Ratio (y) = 0.17503 0.23588
# Poissons Ratio (z) = 0.12721 0.20632
#
# Static dielectric constant tensor:
#      x y z
#    x 2.407850 0.000040 -0.150150 
#    y 0.000040 -0.157450 -0.000020 
#    z -0.150150 -0.000020 1.942490 
# 
# From -- ./inp_files/208335.got.cif
#   From: 2010.05.17/outbox.cif.g08.bks.cpg/sg15_105_cif.got.tgz:208335.got - 2010.06.03 18:47:42.
