data_PCOD9304007
_publ_section_title
;
Structure prediction by ZEFSAII (Michael W. Deem and Ramdas Pophale) SiO2 
 PCOD9304007
Probable space group: C 2/C
;
_chemical_formula_sum "Si O2"
_cell_formula_units_Z 40
_cell_length_a 9.268330
_cell_length_b 18.347838
_cell_length_c 12.437848
_cell_angle_alpha 90.000000
_cell_angle_beta 53.987186
_cell_angle_gamma 90.000000
_cell_volume 1710.876616
_symmetry_space_group_name_H-M "C 2/C"
_symmetry_group_IT_number 15
_symmetry_cell_setting 'monoclinic'
loop_
_space_group_symop_operation_xyz
x,y,z
-x,y,1/2-z
-x,-y,-z
x,-y,1/2+z
1/2+x,1/2+y,z
1/2-x,1/2+y,1/2-z
1/2-x,1/2-y,-z
1/2+x,1/2-y,1/2+z
loop_
_atom_site_type_symbol
_atom_site_label
_atom_site_fract_x
_atom_site_fract_y
_atom_site_fract_z
Si Si1 0.591903 0.079936 0.984614
Si Si2 0.593745 0.309384 0.554551
Si Si3 0.264981 0.361627 0.795563
Si Si4 0.702012 0.524214 0.406855
Si Si5 0.815260 0.627340 0.789601
O O1 0.445096 0.139172 0.088522
O O2 0.730554 0.067117 0.019247
O O3 0.677310 0.111457 0.839021
O O4 0.500000 0.000000 0.000000
O O5 0.750000 0.250000 0.500000
O O6 0.386310 0.300613 0.679905
O O7 0.653098 0.367978 0.620392
O O8 0.637307 0.335547 0.415443
O O9 0.279272 0.429361 0.709447
O O10 0.500000 0.500000 0.500000
O O11 0.814399 0.450953 0.348013
O O12 0.000000 0.663692 0.750000
#
# Coordination Sequence:
#
# PCOD9304007 Si02
#       5
#     8   8   8   8   8
#     4  12  23  38  67 101 147 184 226 289 365 450
#     4  11  26  44  69 101 136 191 255 300 335 430
#     4  11  23  41  69  99 140 180 237 296 366 408
#     4  12  24  41  67 109 149 186 227 296 378 452
#     4  12  22  40  66 101 141 180 235 289 368 428
#
# _framework density 23.379828
#
# number of rings (size 3 to 8) (size 9 to 14) (size 15 to 20)
#    0.000    0.400    8.000    0.600    5.600    0.800 
#    0.000    0.000    0.000   10.800    0.000    0.000 
#    0.000    0.000    0.000    0.000    0.000    0.000 
#
# Total GULP energy -111586.870111 kJ/mol
# GULP energy per Si atom -5579.343506 kJ/mol
# Density = 2.332661 g / cm^3
# Si number density = 23.379828 Si / 1000 Ang^3
#
#
#
# Elastic Constant Matrix: (Units=GPa)
#
#
# Indices 1 2 3 4 5 6 
#
# 1 105.7723 6.6813 59.5005 0.0000 -9.2686 0.0000
# 2 6.6813 51.1242 36.4499 0.0000 -4.4675 0.0000
# 3 59.5005 36.4499 242.2301 0.0000 -8.6562 0.0000
# 4 0.0000 0.0000 0.0000 25.3507 0.0000 -6.5403
# 5 -9.2686 -4.4675 -8.6562 0.0000 40.5441 0.0000
# 6 0.0000 0.0000 0.0000 -6.5403 0.0000 35.5765
#
#
#
# Elastic Compliance Matrix: (Units=1/GPa)
#
#
# Indices 1 2 3 4 5 6 
#
# 1 0.011147 0.000696 -0.002770 0.000000 0.002033 0.000000
# 2 0.000696 0.022075 -0.003426 0.000000 0.001860 0.000000
# 3 -0.002770 -0.003426 0.005329 0.000000 0.000127 0.000000
# 4 0.000000 0.000000 0.000000 0.041411 0.000000 0.007613
# 5 0.002033 0.001860 0.000127 0.000000 0.025361 0.000000
# 6 0.000000 0.000000 0.000000 0.007613 0.000000 0.029508
#
#
# Mechanical properties :
#
#
# Convention : Reuss Voigt Hill
#
# Bulk Modulus (GPa) = 36.29831 67.15445 51.72638
# Shear Modulus (GPa) = 32.25516 40.06060 36.15788
#
# Velocity S-wave (km/s) = 3.71835 4.14390 3.93688
# Velocity P-wave (km/s) = 5.83044 7.18898 6.54505
#
# Compressibility (1/GPa) = 0.02754950
#
# Stress axis : x y z
#
# Youngs Moduli (GPa) = 89.71198 45.30107 187.65812
#
# Poissons Ratio (x) = -0.03153 0.51983
# Poissons Ratio (y) = -0.06244 0.64295
# Poissons Ratio (z) = 0.24851 0.15521
#
# Static dielectric constant tensor:
#      x y z
#    x 1.878090 0.000000 -0.118720 
#    y 0.000000 1.996760 0.000000 
#    z -0.118720 0.000000 2.042360 
# 
# From -- ./inp_files/88266.got.cif
#   From: 2010.05.17/outbox.cif.g08.bks.cpg/sg15_45_cif.got.tgz:88266.got - 2010.06.03 18:47:42.
