data_PCOD9304401
_publ_section_title
;
Structure prediction by ZEFSAII (Michael W. Deem and Ramdas Pophale) SiO2 
 PCOD9304401
Probable space group: C 2/C
;
_chemical_formula_sum "Si O2"
_cell_formula_units_Z 40
_cell_length_a 5.117631
_cell_length_b 17.658120
_cell_length_c 19.015651
_cell_angle_alpha 90.000000
_cell_angle_beta 81.320483
_cell_angle_gamma 90.000000
_cell_volume 1698.722142
_symmetry_space_group_name_H-M "C 2/C"
_symmetry_group_IT_number 15
_symmetry_cell_setting 'monoclinic'
loop_
_space_group_symop_operation_xyz
x,y,z
-x,y,1/2-z
-x,-y,-z
x,-y,1/2+z
1/2+x,1/2+y,z
1/2-x,1/2+y,1/2-z
1/2-x,1/2-y,-z
1/2+x,1/2-y,1/2+z
loop_
_atom_site_type_symbol
_atom_site_label
_atom_site_fract_x
_atom_site_fract_y
_atom_site_fract_z
Si Si1 0.566420 0.802375 0.620620
Si Si2 0.182907 0.563488 0.025594
Si Si3 0.500000 0.518211 0.750000
Si Si4 0.000000 0.588352 0.250000
Si Si5 0.871671 0.930554 0.103865
Si Si6 0.385470 0.781441 0.422241
O O1 0.538234 0.863598 0.559476
O O2 0.603828 0.854450 0.686625
O O3 0.299875 0.754569 0.631142
O O4 0.820074 0.750511 0.595401
O O5 0.309242 0.517704 0.085915
O O6 0.399383 0.588757 0.960834
O O7 0.000000 0.500000 0.000000
O O8 0.238638 0.465286 0.767532
O O9 0.543847 0.567673 0.818578
O O10 0.643482 0.870954 0.092643
O O11 0.250000 0.750000 0.500000
#
# Coordination Sequence:
#
# PCOD9304401 Si02
#       6
#     8   8   4   4   8   8
#     4  12  26  46  75 102 143 197 242 299 373 442
#     4  11  23  43  75 107 140 196 249 304 355 447
#     4  12  26  47  72 111 146 194 248 322 374 447
#     4  12  26  49  74 105 146 198 252 306 370 457
#     4  11  26  43  73 108 148 189 250 305 378 435
#     4  12  26  46  72 110 148 190 243 311 372 443
#
# _framework density 23.547114000000001
#
# number of rings (size 3 to 8) (size 9 to 14) (size 15 to 20)
#    0.000    0.400    4.000    4.200    5.600    0.800 
#    0.000    0.000    0.000    0.000    0.000    0.000 
#    0.000    0.000    0.000    0.000    0.000    0.000 
#
# Total GULP energy -111959.661232 kJ/mol
# GULP energy per Si atom -5597.983062 kJ/mol
# Density = 2.349352 g / cm^3
# Si number density = 23.547114 Si / 1000 Ang^3
#
#
#
# Elastic Constant Matrix: (Units=GPa)
#
#
# Indices 1 2 3 4 5 6 
#
# 1 85.2804 41.4237 -1.2768 0.0000 16.3022 0.0000
# 2 41.4237 128.8643 48.4096 0.0000 0.9662 0.0000
# 3 -1.2768 48.4096 113.0946 0.0000 19.6736 0.0000
# 4 0.0000 0.0000 0.0000 25.3602 0.0000 17.0893
# 5 16.3022 0.9662 19.6736 0.0000 27.5850 0.0000
# 6 0.0000 0.0000 0.0000 17.0893 0.0000 61.8108
#
#
#
# Elastic Compliance Matrix: (Units=1/GPa)
#
#
# Indices 1 2 3 4 5 6 
#
# 1 0.018856 -0.008385 0.006495 0.000000 -0.015482 0.000000
# 2 -0.008385 0.013177 -0.007440 0.000000 0.009800 0.000000
# 3 0.006495 -0.007440 0.014524 0.000000 -0.013937 0.000000
# 4 0.000000 0.000000 0.000000 0.048461 0.000000 -0.013398
# 5 -0.015482 0.009800 -0.013937 0.000000 0.054998 0.000000
# 6 0.000000 0.000000 0.000000 -0.013398 0.000000 0.019883
#
#
# Mechanical properties :
#
#
# Convention : Reuss Voigt Hill
#
# Bulk Modulus (GPa) = 35.84485 56.03914 45.94200
# Shear Modulus (GPa) = 25.27077 38.86338 32.06707
#
# Velocity S-wave (km/s) = 3.27953 4.06698 3.69430
# Velocity P-wave (km/s) = 5.44023 6.77526 6.14411
#
# Compressibility (1/GPa) = 0.02789801
#
# Stress axis : x y z
#
# Youngs Moduli (GPa) = 53.03388 75.89015 68.84922
#
# Poissons Ratio (x) = 0.63636 -0.44720
# Poissons Ratio (y) = 0.44470 0.51222
# Poissons Ratio (z) = -0.34448 0.56461
#
# Static dielectric constant tensor:
#      x y z
#    x 1.936690 0.000000 0.073530 
#    y 0.000000 1.911950 0.000000 
#    z 0.073530 0.000000 2.000580 
# 
# From -- ./inp_files/184367.got.cif
#   From: 2010.05.17/outbox.cif.g08.bks.cpg/sg15_93_cif.got.tgz:184367.got - 2010.06.03 18:47:42.
