data_PCOD9304202
_publ_section_title
;
Structure prediction by ZEFSAII (Michael W. Deem and Ramdas Pophale) SiO2 
 PCOD9304202
Probable space group: C 2/C
;
_chemical_formula_sum "Si O2"
_cell_formula_units_Z 40
_cell_length_a 19.059549
_cell_length_b 5.866500
_cell_length_c 20.517867
_cell_angle_alpha 90.000000
_cell_angle_beta 127.613249
_cell_angle_gamma 90.000000
_cell_volume 1817.316323
_symmetry_space_group_name_H-M "C 2/C"
_symmetry_group_IT_number 15
_symmetry_cell_setting 'monoclinic'
loop_
_space_group_symop_operation_xyz
x,y,z
-x,y,1/2-z
-x,-y,-z
x,-y,1/2+z
1/2+x,1/2+y,z
1/2-x,1/2+y,1/2-z
1/2-x,1/2-y,-z
1/2+x,1/2-y,1/2+z
loop_
_atom_site_type_symbol
_atom_site_label
_atom_site_fract_x
_atom_site_fract_y
_atom_site_fract_z
Si Si1 0.044565 0.414469 0.090588
Si Si2 0.018523 0.866997 0.832566
Si Si3 0.702834 0.500510 0.485307
Si Si4 0.700212 0.589004 0.132899
Si Si5 0.354588 0.684048 0.779944
O O1 0.114910 0.231200 0.105502
O O2 0.095552 0.608926 0.157927
O O3 0.978580 0.312051 0.106686
O O4 0.000000 0.500000 0.000000
O O5 0.000000 0.769613 0.750000
O O6 0.111317 0.998063 0.892292
O O7 0.931535 0.018301 0.798400
O O8 0.750000 0.250000 0.500000
O O9 0.685309 0.506274 0.553055
O O10 0.750000 0.750000 0.500000
O O11 0.706932 0.412714 0.196524
O O12 0.788871 0.738434 0.185998
#
# Coordination Sequence:
#
# PCOD9304202 Si02
#       5
#     8   8   8   8   8
#     4  11  24  43  75 103 145 187 247 311 368 448
#     4  11  27  47  70 106 146 196 247 308 383 447
#     4  12  30  48  75 107 152 199 247 312 375 448
#     4  11  24  44  73 108 142 189 252 301 378 440
#     4  11  23  42  74 104 141 192 241 312 362 451
#
# _framework density 22.010477000000002
#
# number of rings (size 3 to 8) (size 9 to 14) (size 15 to 20)
#    0.000    0.800    2.000    3.600   11.200    4.000 
#    0.000    0.000    0.000    0.000    0.000    0.000 
#    0.000    0.000    0.000    0.000    0.000    0.000 
#
# Total GULP energy -111688.725706 kJ/mol
# GULP energy per Si atom -5584.436285 kJ/mol
# Density = 2.196038 g / cm^3
# Si number density = 22.010477 Si / 1000 Ang^3
#
#
#
# Elastic Constant Matrix: (Units=GPa)
#
#
# Indices 1 2 3 4 5 6 
#
# 1 85.2460 37.7401 43.7239 0.0000 -10.2838 0.0000
# 2 37.7401 70.9731 16.9883 0.0001 -13.5665 0.0000
# 3 43.7239 16.9883 152.4614 0.0000 -13.7826 0.0000
# 4 0.0000 0.0001 0.0000 39.8863 0.0000 -4.5529
# 5 -10.2838 -13.5665 -13.7826 0.0000 43.0426 0.0000
# 6 0.0000 0.0000 0.0000 -4.5529 0.0000 35.3951
#
#
#
# Elastic Compliance Matrix: (Units=1/GPa)
#
#
# Indices 1 2 3 4 5 6 
#
# 1 0.017526 -0.008292 -0.004078 0.000000 0.000268 0.000000
# 2 -0.008292 0.019163 0.000628 0.000000 0.004260 0.000000
# 3 -0.004078 0.000628 0.007815 0.000000 0.001726 0.000000
# 4 0.000000 0.000000 0.000000 0.025445 0.000000 0.003273
# 5 0.000268 0.004260 0.001726 0.000000 0.025192 0.000000
# 6 0.000000 0.000000 0.000000 0.003273 0.000000 0.028674
#
#
# Mechanical properties :
#
#
# Convention : Reuss Voigt Hill
#
# Bulk Modulus (GPa) = 47.57555 56.17612 51.87583
# Shear Modulus (GPa) = 32.40340 37.68001 35.04171
#
# Velocity S-wave (km/s) = 3.84106 4.14202 3.99437
# Velocity P-wave (km/s) = 6.42912 6.96081 6.70024
#
# Compressibility (1/GPa) = 0.02101920
#
# Stress axis : x y z
#
# Youngs Moduli (GPa) = 57.05880 52.18349 127.96549
#
# Poissons Ratio (x) = 0.43271 0.52184
# Poissons Ratio (y) = 0.47313 -0.08034
# Poissons Ratio (z) = 0.23269 -0.03276
#
# Static dielectric constant tensor:
#      x y z
#    x 1.795870 0.000000 0.037920 
#    y 0.000000 1.915920 0.000000 
#    z 0.037920 0.000000 1.766550 
# 
# From -- ./inp_files/251135.got.cif
#   From: 2010.05.17/outbox.cif.g08.bks.cpg/sg15_126_cif.got.tgz:251135.got - 2010.06.03 18:47:42.
