data_PCOD9304417
_publ_section_title
;
Structure prediction by ZEFSAII (Michael W. Deem and Ramdas Pophale) SiO2 
 PCOD9304417
Probable space group: C 2/C
;
_chemical_formula_sum "Si O2"
_cell_formula_units_Z 40
_cell_length_a 13.816128
_cell_length_b 15.867328
_cell_length_c 14.249916
_cell_angle_alpha 90.000000
_cell_angle_beta 151.290511
_cell_angle_gamma 90.000000
_cell_volume 1500.642378
_symmetry_space_group_name_H-M "C 2/C"
_symmetry_group_IT_number 15
_symmetry_cell_setting 'monoclinic'
loop_
_space_group_symop_operation_xyz
x,y,z
-x,y,1/2-z
-x,-y,-z
x,-y,1/2+z
1/2+x,1/2+y,z
1/2-x,1/2+y,1/2-z
1/2-x,1/2-y,-z
1/2+x,1/2-y,1/2+z
loop_
_atom_site_type_symbol
_atom_site_label
_atom_site_fract_x
_atom_site_fract_y
_atom_site_fract_z
Si Si1 0.036919 0.713319 0.989413
Si Si2 0.409144 0.277090 0.087079
Si Si3 0.209026 0.648705 0.874602
Si Si4 0.605626 0.470639 0.458564
Si Si5 0.782915 0.456977 0.817575
O O1 0.115544 0.781926 0.980868
O O2 0.202613 0.640475 0.142464
O O3 0.981986 0.749447 0.044401
O O4 0.854626 0.659722 0.788972
O O5 0.653130 0.255288 0.351152
O O6 0.367320 0.377704 0.056537
O O7 0.282895 0.557806 0.972006
O O8 0.000000 0.662795 0.750000
O O9 0.682600 0.459826 0.630613
O O10 0.370304 0.491921 0.248356
O O11 0.000000 0.500000 0.000000
#
# Coordination Sequence:
#
# PCOD9304417 Si02
#       5
#     8   8   8   8   8
#     4  12  25  48  76 110 158 204 265 330 395 484
#     4  12  28  48  77 113 158 206 263 325 400 472
#     4  12  26  46  77 112 158 206 265 332 401 483
#     4  11  25  47  71 117 156 200 272 328 392 486
#     4  11  23  43  79 108 152 211 258 321 403 464
#
# _framework density 26.655251
#
# number of rings (size 3 to 8) (size 9 to 14) (size 15 to 20)
#    0.000    0.400    2.000    7.800    2.800    4.000 
#    0.000    1.000    0.000    0.000    0.000    0.000 
#    0.000    0.000    0.000    0.000    0.000    0.000 
#
# Total GULP energy -111671.023849 kJ/mol
# GULP energy per Si atom -5583.551192 kJ/mol
# Density = 2.659458 g / cm^3
# Si number density = 26.655251 Si / 1000 Ang^3
#
#
#
# Elastic Constant Matrix: (Units=GPa)
#
#
# Indices 1 2 3 4 5 6 
#
# 1 117.0966 95.4159 60.3882 -0.0007 9.4475 -0.0004
# 2 95.4159 250.8480 85.5364 -0.0006 26.9678 0.0002
# 3 60.3882 85.5364 166.1045 -0.0013 17.0004 0.0000
# 4 -0.0007 -0.0006 -0.0013 54.0388 0.0001 -4.5062
# 5 9.4475 26.9678 17.0004 0.0001 65.9647 0.0004
# 6 -0.0004 0.0002 0.0000 -4.5062 0.0004 29.6199
#
#
#
# Elastic Compliance Matrix: (Units=1/GPa)
#
#
# Indices 1 2 3 4 5 6 
#
# 1 0.013325 -0.004189 -0.002739 0.000000 0.000510 0.000000
# 2 -0.004189 0.006277 -0.001549 0.000000 -0.001567 0.000000
# 3 -0.002739 -0.001549 0.007918 0.000000 -0.001015 0.000000
# 4 0.000000 0.000000 0.000000 0.018743 0.000000 0.002851
# 5 0.000510 -0.001567 -0.001015 0.000000 0.015989 0.000000
# 6 0.000000 0.000000 0.000000 0.002851 0.000000 0.034195
#
#
# Mechanical properties :
#
#
# Convention : Reuss Voigt Hill
#
# Bulk Modulus (GPa) = 94.65620 112.97004 103.81312
# Shear Modulus (GPa) = 42.76348 49.43858 46.10103
#
# Velocity S-wave (km/s) = 4.00974 4.31134 4.16327
# Velocity P-wave (km/s) = 7.55154 8.20107 7.88299
#
# Compressibility (1/GPa) = 0.01056455
#
# Stress axis : x y z
#
# Youngs Moduli (GPa) = 75.04607 159.32400 126.30057
#
# Poissons Ratio (x) = 0.66746 0.34598
# Poissons Ratio (y) = 0.31439 0.19560
# Poissons Ratio (z) = 0.20558 0.24675
#
# Static dielectric constant tensor:
#      x y z
#    x 1.670590 -0.000020 -0.021670 
#    y -0.000020 2.042680 0.000000 
#    z -0.021670 0.000000 2.567790 
# 
# From -- ./inp_files/215820.got.cif
#   From: 2010.05.17/outbox.cif.g08.bks.cpg/sg15_108_cif.got.tgz:215820.got - 2010.06.03 18:47:42.
