data_PCOD9304061
_publ_section_title
;
Structure prediction by ZEFSAII (Michael W. Deem and Ramdas Pophale) SiO2 
 PCOD9304061
Probable space group: C 2/C
;
_chemical_formula_sum "Si O2"
_cell_formula_units_Z 48
_cell_length_a 25.847660
_cell_length_b 6.665045
_cell_length_c 13.710118
_cell_angle_alpha 90.000000
_cell_angle_beta 104.192121
_cell_angle_gamma 90.000000
_cell_volume 2289.833740
_symmetry_space_group_name_H-M "C 2/C"
_symmetry_group_IT_number 15
_symmetry_cell_setting 'monoclinic'
loop_
_space_group_symop_operation_xyz
x,y,z
-x,y,1/2-z
-x,-y,-z
x,-y,1/2+z
1/2+x,1/2+y,z
1/2-x,1/2+y,1/2-z
1/2-x,1/2-y,-z
1/2+x,1/2-y,1/2+z
loop_
_atom_site_type_symbol
_atom_site_label
_atom_site_fract_x
_atom_site_fract_y
_atom_site_fract_z
Si Si1 0.941878 0.760641 0.201430
Si Si2 0.946074 0.060122 0.031458
Si Si3 0.127931 0.045271 0.669682
Si Si4 0.300870 0.917923 0.839292
Si Si5 0.120210 0.556574 0.958054
Si Si6 0.309312 0.238900 0.675445
O O1 0.914885 0.824569 0.289654
O O2 0.904870 0.613056 0.121864
O O3 0.000000 0.671128 0.250000
O O4 0.948943 0.957731 0.137874
O O5 0.927737 0.292094 0.033098
O O6 0.898445 0.973760 0.942541
O O7 0.000000 0.000000 0.000000
O O8 0.175863 0.197698 0.671822
O O9 0.147432 0.866475 0.745273
O O10 0.243013 0.877629 0.859098
O O11 0.296436 0.048413 0.738936
O O12 0.344910 0.011329 0.932825
O O13 0.163368 0.675726 0.912264
#
# Coordination Sequence:
#
# PCOD9304061 Si02
#       6
#     8   8   8   8   8   8
#     4  12  24  43  67  98 131 169 219 267 324 386
#     4  11  24  43  65  93 131 173 218 265 324 386
#     4  11  23  42  65  93 132 169 216 267 317 390
#     4  11  24  43  65  99 129 171 218 266 326 386
#     4  11  26  42  66 101 133 168 218 275 320 386
#     4  12  22  43  69  94 132 174 217 264 328 387
#
# _framework density 20.962219000000001
#
# number of rings (size 3 to 8) (size 9 to 14) (size 15 to 20)
#    0.000    0.667    6.667    1.500    0.000    2.667 
#    0.000    1.667    0.000    0.000    0.000    0.000 
#    0.000    0.000    0.000    0.000    0.000    0.000 
#
# Total GULP energy -134070.391266 kJ/mol
# GULP energy per Si atom -5586.266303 kJ/mol
# Density = 2.091451 g / cm^3
# Si number density = 20.962219 Si / 1000 Ang^3
#
#
#
# Elastic Constant Matrix: (Units=GPa)
#
#
# Indices 1 2 3 4 5 6 
#
# 1 90.9793 12.3085 3.2014 0.0000 0.8136 0.0000
# 2 12.3085 27.1533 4.8827 0.0000 6.9331 0.0000
# 3 3.2014 4.8827 76.1800 0.0000 5.2814 0.0000
# 4 0.0000 0.0000 0.0000 32.8162 0.0000 0.6265
# 5 0.8136 6.9331 5.2814 0.0000 28.4148 0.0000
# 6 0.0000 0.0000 0.0000 0.6265 0.0000 22.7317
#
#
#
# Elastic Compliance Matrix: (Units=1/GPa)
#
#
# Indices 1 2 3 4 5 6 
#
# 1 0.011741 -0.005554 -0.000211 0.000000 0.001058 0.000000
# 2 -0.005554 0.042169 -0.001790 0.000000 -0.009797 0.000000
# 3 -0.000211 -0.001790 0.013392 0.000000 -0.002046 0.000000
# 4 0.000000 0.000000 0.000000 0.030489 0.000000 -0.000840
# 5 0.001058 -0.009797 -0.002046 0.000000 0.037934 0.000000
# 6 0.000000 0.000000 0.000000 -0.000840 0.000000 0.044015
#
#
# Mechanical properties :
#
#
# Convention : Reuss Voigt Hill
#
# Bulk Modulus (GPa) = 19.16011 26.12197 22.64104
# Shear Modulus (GPa) = 23.55742 28.38721 25.97232
#
# Velocity S-wave (km/s) = 3.35596 3.68395 3.52377
# Velocity P-wave (km/s) = 4.91698 5.53026 5.23262
#
# Compressibility (1/GPa) = 0.05219176
#
# Stress axis : x y z
#
# Youngs Moduli (GPa) = 85.17219 23.71395 74.66995
#
# Poissons Ratio (x) = 0.13172 0.01574
# Poissons Ratio (y) = 0.47308 0.13367
# Poissons Ratio (z) = 0.01795 0.04245
#
# Static dielectric constant tensor:
#      x y z
#    x 1.763330 0.000000 0.013380 
#    y 0.000000 1.733240 0.000000 
#    z 0.013380 0.000000 1.746090 
# 
# From -- ./inp_files/180226.got.cif
#   From: 2010.05.17/outbox.cif.g08.bks.cpg/sg15_91_cif.got.tgz:180226.got - 2010.06.03 18:47:42.
