data_PCOD9304030
_publ_section_title
;
Structure prediction by ZEFSAII (Michael W. Deem and Ramdas Pophale) SiO2 
 PCOD9304030
Probable space group: C 2/C
;
_chemical_formula_sum "Si O2"
_cell_formula_units_Z 56
_cell_length_a 30.208278
_cell_length_b 8.715430
_cell_length_c 21.273578
_cell_angle_alpha 90.000000
_cell_angle_beta 27.919707
_cell_angle_gamma 90.000000
_cell_volume 2622.515426
_symmetry_space_group_name_H-M "C 2/C"
_symmetry_group_IT_number 15
_symmetry_cell_setting 'monoclinic'
loop_
_space_group_symop_operation_xyz
x,y,z
-x,y,1/2-z
-x,-y,-z
x,-y,1/2+z
1/2+x,1/2+y,z
1/2-x,1/2+y,1/2-z
1/2-x,1/2-y,-z
1/2+x,1/2-y,1/2+z
loop_
_atom_site_type_symbol
_atom_site_label
_atom_site_fract_x
_atom_site_fract_y
_atom_site_fract_z
Si Si1 0.880514 0.854481 0.671225
Si Si2 0.062337 0.574952 0.313304
Si Si3 0.814428 0.205923 0.750957
Si Si4 0.554579 0.214826 0.515140
Si Si5 0.079414 0.088696 0.097851
Si Si6 0.777769 0.650425 0.905393
Si Si7 0.897051 0.217984 0.004120
O O1 0.818585 0.752318 0.796847
O O2 0.885236 0.788414 0.594676
O O3 0.985765 0.837381 0.567595
O O4 0.842203 0.027633 0.720234
O O5 0.121876 0.690773 0.282420
O O6 0.141457 0.473302 0.179410
O O7 0.996776 0.447511 0.430052
O O8 0.984291 0.674055 0.375535
O O9 0.844855 0.270578 0.644346
O O10 0.702944 0.229071 0.898768
O O11 0.564354 0.257657 0.575736
O O12 0.000000 0.076844 0.250000
O O13 0.181410 0.078479 0.001545
O O14 0.077016 0.950280 0.051898
O O15 0.750000 0.750000 0.000000
#
# Coordination Sequence:
#
# PCOD9304030 Si02
#       7
#     8   8   8   8   8   8   8
#     4  11  24  42  71 101 144 188 235 298 365 430
#     4  11  25  44  70 106 143 184 236 301 353 429
#     4  12  23  41  67 104 146 177 237 302 358 423
#     4  11  23  41  72 101 141 184 238 291 358 434
#     4  12  25  47  69 101 141 191 237 298 360 442
#     4  11  26  51  72 101 144 197 245 290 366 439
#     4  12  26  42  71 110 143 185 243 301 369 422
#
# _framework density 21.353546000000001
#
# number of rings (size 3 to 8) (size 9 to 14) (size 15 to 20)
#    0.000    0.571    4.286    4.286    6.000    0.000 
#    2.571    2.143    0.000    0.000    0.000    0.000 
#    0.000    0.000    0.000    0.000    0.000    0.000 
#
# Total GULP energy -156562.047034 kJ/mol
# GULP energy per Si atom -5591.501680 kJ/mol
# Density = 2.130494 g / cm^3
# Si number density = 21.353546 Si / 1000 Ang^3
#
#
#
# Elastic Constant Matrix: (Units=GPa)
#
#
# Indices 1 2 3 4 5 6 
#
# 1 47.2208 11.6322 27.8726 -0.0008 -24.6298 -0.0001
# 2 11.6322 86.4166 22.9691 0.0000 -23.8041 0.0013
# 3 27.8726 22.9691 126.9926 0.0032 -22.0229 -0.0003
# 4 -0.0008 0.0000 0.0032 23.6697 -0.0003 1.7884
# 5 -24.6298 -23.8041 -22.0229 -0.0003 41.9882 -0.0016
# 6 -0.0001 0.0013 -0.0003 1.7884 -0.0016 22.2144
#
#
#
# Elastic Compliance Matrix: (Units=1/GPa)
#
#
# Indices 1 2 3 4 5 6 
#
# 1 0.032630 0.001673 -0.004379 0.000002 0.017792 0.000001
# 2 0.001673 0.013981 -0.001486 0.000000 0.008127 0.000000
# 3 -0.004379 -0.001486 0.009365 -0.000001 0.001501 0.000000
# 4 0.000002 0.000000 -0.000001 0.042507 0.000001 -0.003422
# 5 0.017792 0.008127 0.001501 0.000001 0.039647 0.000002
# 6 0.000001 0.000000 0.000000 -0.003422 0.000002 0.045291
#
#
# Mechanical properties :
#
#
# Convention : Reuss Voigt Hill
#
# Bulk Modulus (GPa) = 21.01290 42.84197 31.92744
# Shear Modulus (GPa) = 24.07687 30.78487 27.43087
#
# Velocity S-wave (km/s) = 3.36152 3.80106 3.58803
# Velocity P-wave (km/s) = 4.99282 6.27461 5.67006
#
# Compressibility (1/GPa) = 0.04758981
#
# Stress axis : x y z
#
# Youngs Moduli (GPa) = 30.64701 71.52815 106.78523
#
# Poissons Ratio (x) = -0.11964 0.46758
# Poissons Ratio (y) = -0.05126 0.15871
# Poissons Ratio (z) = 0.13419 0.10631
#
# Static dielectric constant tensor:
#      x y z
#    x 1.752090 0.000000 -0.023870 
#    y 0.000000 1.797730 0.000000 
#    z -0.023870 0.000000 1.751470 
# 
# From -- ./inp_files/258945.got.cif
#   From: 2010.05.17/outbox.cif.g08.bks.cpg/sg15_130_cif.got.tgz:258945.got - 2010.06.03 18:47:42.
