data_PCOD9304284
_publ_section_title
;
Structure prediction by ZEFSAII (Michael W. Deem and Ramdas Pophale) SiO2 
 PCOD9304284
Probable space group: C 2/C
;
_chemical_formula_sum "Si O2"
_cell_formula_units_Z 56
_cell_length_a 13.448479
_cell_length_b 14.041276
_cell_length_c 35.182880
_cell_angle_alpha 90.000000
_cell_angle_beta 25.514154
_cell_angle_gamma 90.000000
_cell_volume 2861.675199
_symmetry_space_group_name_H-M "C 2/C"
_symmetry_group_IT_number 15
_symmetry_cell_setting 'monoclinic'
loop_
_space_group_symop_operation_xyz
x,y,z
-x,y,1/2-z
-x,-y,-z
x,-y,1/2+z
1/2+x,1/2+y,z
1/2-x,1/2+y,1/2-z
1/2-x,1/2-y,-z
1/2+x,1/2-y,1/2+z
loop_
_atom_site_type_symbol
_atom_site_label
_atom_site_fract_x
_atom_site_fract_y
_atom_site_fract_z
Si Si1 0.368143 0.926414 0.072054
Si Si2 0.876357 0.495132 0.154080
Si Si3 0.718016 0.341918 0.761176
Si Si4 0.765145 0.511569 0.309750
Si Si5 0.734482 0.762539 0.959712
Si Si6 0.890434 0.134851 0.699323
Si Si7 0.382440 0.548684 0.504473
O O1 0.135728 0.895051 0.131439
O O2 0.331980 0.976309 0.125307
O O3 0.526000 0.834376 0.024182
O O4 0.500000 0.000000 0.000000
O O5 0.738555 0.584975 0.218943
O O6 0.789628 0.402398 0.206922
O O7 0.148490 0.502214 0.070233
O O8 0.815224 0.403045 0.762985
O O9 0.461834 0.308768 0.862132
O O10 0.861425 0.246806 0.704056
O O11 0.667946 0.424360 0.318375
O O12 0.570141 0.545960 0.406124
O O13 0.000000 0.485197 0.250000
O O14 0.683363 0.656889 0.962360
O O15 0.750000 0.750000 0.000000
O O16 0.500000 0.500000 0.500000
#
# Coordination Sequence:
#
# PCOD9304284 Si02
#       7
#     8   8   8   8   8   8   8
#     4  12  25  44  67  97 138 179 223 285 344 412
#     4  11  23  43  68  97 135 178 224 284 338 405
#     4  11  23  43  69 101 135 173 235 282 343 409
#     4  11  25  44  69  98 139 178 227 287 339 415
#     4  12  23  44  71 100 135 183 232 282 340 416
#     4  11  24  43  66 101 134 174 226 278 346 404
#     4  12  24  43  69 100 137 181 231 278 345 409
#
# _framework density 19.568957999999999
#
# number of rings (size 3 to 8) (size 9 to 14) (size 15 to 20)
#    0.000    0.571    4.286    4.714    4.000    0.000 
#    2.571    4.286    0.000    0.000    0.000    0.000 
#    0.000    0.000    0.000    0.000    0.000    0.000 
#
# Total GULP energy -156599.823369 kJ/mol
# GULP energy per Si atom -5592.850835 kJ/mol
# Density = 1.952442 g / cm^3
# Si number density = 19.568958 Si / 1000 Ang^3
#
#
#
# Elastic Constant Matrix: (Units=GPa)
#
#
# Indices 1 2 3 4 5 6 
#
# 1 140.8956 77.0890 52.7306 0.0148 -20.7060 0.0074
# 2 77.0890 150.2819 40.4433 -0.0444 3.1315 -0.0609
# 3 52.7306 40.4433 99.3580 -0.0912 -13.8801 -0.2052
# 4 0.0148 -0.0444 -0.0912 31.9642 0.0265 -9.1554
# 5 -20.7060 3.1315 -13.8801 0.0265 41.2357 0.0772
# 6 0.0074 -0.0609 -0.2052 -9.1554 0.0772 28.1202
#
#
#
# Elastic Compliance Matrix: (Units=1/GPa)
#
#
# Indices 1 2 3 4 5 6 
#
# 1 0.012146 -0.005398 -0.003504 -0.000048 0.005329 -0.000071
# 2 -0.005398 0.009983 -0.001766 0.000023 -0.004063 0.000029
# 3 -0.003504 -0.001766 0.013029 0.000064 0.002760 0.000106
# 4 -0.000048 0.000023 0.000064 0.034503 -0.000047 0.011234
# 5 0.005329 -0.004063 0.002760 -0.000047 0.028165 -0.000083
# 6 -0.000071 0.000029 0.000106 0.011234 -0.000083 0.039220
#
#
# Mechanical properties :
#
#
# Convention : Reuss Voigt Hill
#
# Bulk Modulus (GPa) = 72.35610 81.22904 76.79257
# Shear Modulus (GPa) = 30.67657 34.94887 32.81272
#
# Velocity S-wave (km/s) = 3.96361 4.23062 4.09929
# Velocity P-wave (km/s) = 7.61591 8.09095 7.85702
#
# Compressibility (1/GPa) = 0.01382054
#
# Stress axis : x y z
#
# Youngs Moduli (GPa) = 82.33303 100.16673 76.75106
#
# Poissons Ratio (x) = 0.54074 0.26895
# Poissons Ratio (y) = 0.44447 0.13556
# Poissons Ratio (z) = 0.28851 0.17692
#
# Static dielectric constant tensor:
#      x y z
#    x 1.677950 -0.000910 -0.014010 
#    y -0.000910 1.321080 0.005270 
#    z -0.014010 0.005270 1.707680 
# 
# From -- ./inp_files/311313.got.cif
#   From: 2010.05.17/outbox.cif.g08.bks.cpg/sg15_156_cif.got.tgz:311313.got - 2010.06.03 18:47:42.
