data_PCOD9304840
_publ_section_title
;
Structure prediction by ZEFSAII (Michael W. Deem and Ramdas Pophale) SiO2 
 PCOD9304840
Probable space group: C 2/C
;
_chemical_formula_sum "Si O2"
_cell_formula_units_Z 32
_cell_length_a 10.937748
_cell_length_b 9.259406
_cell_length_c 28.667694
_cell_angle_alpha 90.000000
_cell_angle_beta 150.765240
_cell_angle_gamma 90.000000
_cell_volume 1417.979030
_symmetry_space_group_name_H-M "C 2/C"
_symmetry_group_IT_number 15
_symmetry_cell_setting 'monoclinic'
loop_
_space_group_symop_operation_xyz
x,y,z
-x,y,1/2-z
-x,-y,-z
x,-y,1/2+z
1/2+x,1/2+y,z
1/2-x,1/2+y,1/2-z
1/2-x,1/2-y,-z
1/2+x,1/2-y,1/2+z
loop_
_atom_site_type_symbol
_atom_site_label
_atom_site_fract_x
_atom_site_fract_y
_atom_site_fract_z
Si Si1 0.317017 0.678185 0.571117
Si Si2 0.874595 0.874706 0.571767
Si Si3 0.417303 0.187096 0.774970
Si Si4 0.691289 0.108716 0.351655
O O1 0.250000 0.750000 0.500000
O O2 0.222768 0.514084 0.537676
O O3 0.618007 0.677342 0.678904
O O4 0.219411 0.778455 0.580310
O O5 0.750000 0.750000 0.500000
O O6 0.992022 0.798850 0.656028
O O7 0.078488 0.939704 0.603480
O O8 0.500000 0.230253 0.750000
O O9 0.549935 0.030200 0.826106
O O10 0.500000 0.176702 0.250000
#
# Coordination Sequence:
#
# PCOD9304840 Si02
#       4
#     8   8   8   8
#     4  12  25  43  71 103 137 178 229 282 339 402
#     4  12  27  45  70 104 137 179 229 282 343 405
#     4  11  23  47  72  96 136 186 226 277 341 405
#     4  11  23  48  72  94 138 184 225 279 339 405
#
# _framework density 22.567329999999998
#
# number of rings (size 3 to 8) (size 9 to 14) (size 15 to 20)
#    0.000    0.500    7.500    1.500    3.500    4.000 
#    4.500    0.000    0.000    0.000    0.000    0.000 
#    0.000    0.000    0.000    0.000    0.000    0.000 
#
# Total GULP energy -89496.383629 kJ/mol
# GULP energy per Si atom -5593.523977 kJ/mol
# Density = 2.251597 g / cm^3
# Si number density = 22.567330 Si / 1000 Ang^3
#
#
#
# Elastic Constant Matrix: (Units=GPa)
#
#
# Indices 1 2 3 4 5 6 
#
# 1 97.6486 42.7033 4.4549 0.0000 -16.8743 0.0000
# 2 42.7033 159.9717 53.8533 -0.0001 -42.5041 0.0000
# 3 4.4549 53.8533 51.5585 -0.0006 -26.6782 -0.0002
# 4 0.0000 -0.0001 -0.0006 42.2510 0.0000 -10.2961
# 5 -16.8743 -42.5041 -26.6782 0.0000 46.4456 0.0000
# 6 0.0000 0.0000 -0.0002 -10.2961 0.0000 29.2477
#
#
#
# Elastic Compliance Matrix: (Units=1/GPa)
#
#
# Indices 1 2 3 4 5 6 
#
# 1 0.012417 -0.004028 0.005067 0.000000 0.003736 0.000000
# 2 -0.004028 0.011599 -0.010006 0.000000 0.003404 0.000000
# 3 0.005067 -0.010006 0.036460 0.000001 0.013626 0.000000
# 4 0.000000 0.000000 0.000001 0.025889 0.000000 0.009114
# 5 0.003736 0.003404 0.013626 0.000000 0.033830 0.000000
# 6 0.000000 0.000000 0.000000 0.009114 0.000000 0.037399
#
#
# Mechanical properties :
#
#
# Convention : Reuss Voigt Hill
#
# Bulk Modulus (GPa) = 23.50598 56.80022 40.15310
# Shear Modulus (GPa) = 26.35630 37.46667 31.91149
#
# Velocity S-wave (km/s) = 3.42116 4.07900 3.76447
# Velocity P-wave (km/s) = 5.10336 6.88536 6.06022
#
# Compressibility (1/GPa) = 0.04254237
#
# Stress axis : x y z
#
# Youngs Moduli (GPa) = 80.53737 86.21258 27.42737
#
# Poissons Ratio (x) = 0.34725 -0.13898
# Poissons Ratio (y) = 0.32439 0.27444
# Poissons Ratio (z) = -0.40810 0.86265
#
# Static dielectric constant tensor:
#      x y z
#    x 1.827860 0.000000 0.053560 
#    y 0.000000 1.830860 0.000000 
#    z 0.053560 0.000000 1.853340 
# 
# From -- ./inp_files/140505.got.cif
#   From: 2010.05.17/outbox.cif.g08.bks.cpg/sg15_71_cif.got.tgz:140505.got - 2010.06.03 18:47:42.
