data_PCOD9304403
_publ_section_title
;
Structure prediction by ZEFSAII (Michael W. Deem and Ramdas Pophale) SiO2 
 PCOD9304403
Probable space group: C 2/C
;
_chemical_formula_sum "Si O2"
_cell_formula_units_Z 40
_cell_length_a 17.363129
_cell_length_b 5.035374
_cell_length_c 18.912880
_cell_angle_alpha 90.000000
_cell_angle_beta 93.651957
_cell_angle_gamma 90.000000
_cell_volume 1650.192495
_symmetry_space_group_name_H-M "C 2/C"
_symmetry_group_IT_number 15
_symmetry_cell_setting 'monoclinic'
loop_
_space_group_symop_operation_xyz
x,y,z
-x,y,1/2-z
-x,-y,-z
x,-y,1/2+z
1/2+x,1/2+y,z
1/2-x,1/2+y,1/2-z
1/2-x,1/2-y,-z
1/2+x,1/2-y,1/2+z
loop_
_atom_site_type_symbol
_atom_site_label
_atom_site_fract_x
_atom_site_fract_y
_atom_site_fract_z
Si Si1 0.432477 0.106236 0.866417
Si Si2 0.689199 0.944561 0.031156
Si Si3 0.804573 0.532834 0.742565
Si Si4 0.979436 0.081381 0.580369
Si Si5 0.832712 0.796108 0.597455
O O1 0.372148 0.192983 0.923537
O O2 0.378328 0.022543 0.798461
O O3 0.485553 0.362486 0.863418
O O4 0.482792 0.861498 0.898265
O O5 0.742600 0.132904 0.082487
O O6 0.750000 0.750000 0.000000
O O7 0.648092 0.116419 0.969135
O O8 0.757688 0.256298 0.735339
O O9 0.836596 0.636353 0.669781
O O10 0.888480 0.048389 0.591519
O O11 0.000000 0.000000 0.500000
#
# Coordination Sequence:
#
# PCOD9304403 Si02
#       5
#     8   8   8   8   8
#     4  12  26  46  74 105 149 190 243 300 372 444
#     4  11  23  43  75 109 136 190 256 297 354 436
#     4  12  26  48  73 108 148 196 246 310 372 438
#     4  12  26  47  73 108 147 190 241 308 375 429
#     4  11  26  43  74 107 142 192 245 303 364 436
#
# _framework density 24.239595000000001
#
# number of rings (size 3 to 8) (size 9 to 14) (size 15 to 20)
#    0.000    0.400    4.000    4.200    5.600    0.800 
#    0.000    2.000    0.000    0.000    0.000    0.000 
#    0.000    0.000    0.000    0.000    0.000    0.000 
#
# Total GULP energy -112057.831801 kJ/mol
# GULP energy per Si atom -5602.891590 kJ/mol
# Density = 2.418443 g / cm^3
# Si number density = 24.239595 Si / 1000 Ang^3
#
#
#
# Elastic Constant Matrix: (Units=GPa)
#
#
# Indices 1 2 3 4 5 6 
#
# 1 93.2059 19.5478 48.0536 0.0000 18.3011 0.0000
# 2 19.5478 93.2299 1.2673 0.0000 20.7703 0.0000
# 3 48.0536 1.2673 94.8164 0.0000 20.7182 0.0000
# 4 0.0000 0.0000 0.0000 27.3052 0.0000 6.2833
# 5 18.3011 20.7703 20.7182 0.0000 40.6202 0.0000
# 6 0.0000 0.0000 0.0000 6.2833 0.0000 58.0317
#
#
#
# Elastic Compliance Matrix: (Units=1/GPa)
#
#
# Indices 1 2 3 4 5 6 
#
# 1 0.015481 -0.002747 -0.007419 0.000000 -0.001786 0.000000
# 2 -0.002747 0.012746 0.002673 0.000000 -0.006643 0.000000
# 3 -0.007419 0.002673 0.015575 0.000000 -0.005969 0.000000
# 4 0.000000 0.000000 0.000000 0.037559 0.000000 -0.004067
# 5 -0.001786 -0.006643 -0.005969 0.000000 0.031864 0.000000
# 6 0.000000 0.000000 0.000000 -0.004067 0.000000 0.017672
#
#
# Mechanical properties :
#
#
# Convention : Reuss Voigt Hill
#
# Bulk Modulus (GPa) = 34.70186 46.55439 40.62812
# Shear Modulus (GPa) = 32.15706 39.35032 35.75369
#
# Velocity S-wave (km/s) = 3.64625 4.03350 3.84475
# Velocity P-wave (km/s) = 5.66340 6.39842 6.04210
#
# Compressibility (1/GPa) = 0.02881690
#
# Stress axis : x y z
#
# Youngs Moduli (GPa) = 64.59715 78.45694 64.20554
#
# Poissons Ratio (x) = 0.21553 0.47632
# Poissons Ratio (y) = 0.17745 -0.17165
# Poissons Ratio (z) = 0.47922 -0.20975
#
# Static dielectric constant tensor:
#      x y z
#    x 1.994580 0.000000 0.029870 
#    y 0.000000 1.976510 0.000000 
#    z 0.029870 0.000000 1.954590 
# 
# From -- ./inp_files/208099.got.cif
#   From: 2010.05.17/outbox.cif.g08.bks.cpg/sg15_105_cif.got.tgz:208099.got - 2010.06.03 18:47:42.
