data_PCOD9304888
_publ_section_title
;
Structure prediction by ZEFSAII (Michael W. Deem and Ramdas Pophale) SiO2 
 PCOD9304888
Probable space group: C 2/C
;
_chemical_formula_sum "Si O2"
_cell_formula_units_Z 48
_cell_length_a 23.639195
_cell_length_b 11.493730
_cell_length_c 8.404892
_cell_angle_alpha 90.000000
_cell_angle_beta 76.504733
_cell_angle_gamma 90.000000
_cell_volume 2220.577518
_symmetry_space_group_name_H-M "C 2/C"
_symmetry_group_IT_number 15
_symmetry_cell_setting 'monoclinic'
loop_
_space_group_symop_operation_xyz
x,y,z
-x,y,1/2-z
-x,-y,-z
x,-y,1/2+z
1/2+x,1/2+y,z
1/2-x,1/2+y,1/2-z
1/2-x,1/2-y,-z
1/2+x,1/2-y,1/2+z
loop_
_atom_site_type_symbol
_atom_site_label
_atom_site_fract_x
_atom_site_fract_y
_atom_site_fract_z
Si Si1 0.411536 0.826321 0.134897
Si Si2 0.866400 0.146510 0.738089
Si Si3 0.969122 0.682323 0.106475
Si Si4 0.775639 0.320557 0.633306
Si Si5 0.158536 0.106919 0.375350
Si Si6 0.380448 0.030307 0.967242
O O1 0.379475 0.705578 0.187365
O O2 0.398079 0.912099 0.289339
O O3 0.478623 0.801986 0.052915
O O4 0.385686 0.893039 0.995668
O O5 0.929469 0.205242 0.668349
O O6 0.818540 0.233765 0.697599
O O7 0.860436 0.022298 0.657637
O O8 0.852811 0.126834 0.931634
O O9 0.000000 0.643992 0.250000
O O10 0.926337 0.587936 0.059107
O O11 0.750000 0.250000 0.500000
O O12 0.724340 0.368585 0.777496
O O13 0.815758 0.426559 0.547756
#
# Coordination Sequence:
#
# PCOD9304888 Si02
#       6
#     8   8   8   8   8   8
#     4  12  25  45  73 106 142 191 238 297 363 421
#     4  11  27  47  72 106 145 194 244 293 360 428
#     4  11  23  48  71 101 143 187 240 301 356 422
#     4  11  24  47  74 106 146 188 239 296 361 428
#     4  12  26  46  74 104 149 192 239 295 357 428
#     4  11  26  43  74 106 144 186 240 296 363 426
#
# _framework density 21.615998000000001
#
# number of rings (size 3 to 8) (size 9 to 14) (size 15 to 20)
#    0.000    0.667    3.333    3.500    7.000    2.000 
#    0.000    0.000    0.000    0.000    0.000    0.000 
#    0.000    0.000    0.000    0.000    0.000    0.000 
#
# Total GULP energy -134361.530433 kJ/mol
# GULP energy per Si atom -5598.397101 kJ/mol
# Density = 2.156680 g / cm^3
# Si number density = 21.615998 Si / 1000 Ang^3
#
#
#
# Elastic Constant Matrix: (Units=GPa)
#
#
# Indices 1 2 3 4 5 6 
#
# 1 81.9448 13.2104 25.3627 0.0000 -37.4529 0.0000
# 2 13.2104 73.2031 31.1855 0.0000 -25.9580 0.0000
# 3 25.3627 31.1855 111.1265 0.0000 -30.2316 0.0000
# 4 0.0000 0.0000 0.0000 29.0457 0.0000 -0.5445
# 5 -37.4529 -25.9580 -30.2316 0.0000 53.8973 0.0000
# 6 0.0000 0.0000 0.0000 -0.5445 0.0000 14.4736
#
#
#
# Elastic Compliance Matrix: (Units=1/GPa)
#
#
# Indices 1 2 3 4 5 6 
#
# 1 0.018124 0.001756 -0.001148 0.000000 0.012796 0.000000
# 2 0.001756 0.017481 -0.003167 0.000000 0.007863 0.000000
# 3 -0.001148 -0.003167 0.011231 0.000000 0.003977 0.000000
# 4 0.000000 0.000000 0.000000 0.034453 0.000000 0.001296
# 5 0.012796 0.007863 0.003977 0.000000 0.033463 0.000000
# 6 0.000000 0.000000 0.000000 0.001296 0.000000 0.069140
#
#
# Mechanical properties :
#
#
# Convention : Reuss Voigt Hill
#
# Bulk Modulus (GPa) = 23.97084 45.08797 34.52940
# Shear Modulus (GPa) = 24.64051 32.58437 28.61244
#
# Velocity S-wave (km/s) = 3.37993 3.88676 3.64217
# Velocity P-wave (km/s) = 5.13278 6.40675 5.80482
#
# Compressibility (1/GPa) = 0.04171735
#
# Stress axis : x y z
#
# Youngs Moduli (GPa) = 55.17535 57.20395 89.03536
#
# Poissons Ratio (x) = -0.10044 0.10223
# Poissons Ratio (y) = -0.09688 0.28202
# Poissons Ratio (z) = 0.06335 0.18119
#
# Static dielectric constant tensor:
#      x y z
#    x 1.766470 0.000000 0.015390 
#    y 0.000000 1.768210 0.000000 
#    z 0.015390 0.000000 1.861710 
# 
# From -- ./inp_files/60851.got.cif
#   From: 2010.05.17/outbox.cif.g08.bks.cpg/sg15_31_cif.got.tgz:60851.got - 2010.06.03 18:47:42.
