data_PCOD9304042
_publ_section_title
;
Structure prediction by ZEFSAII (Michael W. Deem and Ramdas Pophale) SiO2 
 PCOD9304042
Probable space group: C 2/C
;
_chemical_formula_sum "Si O2"
_cell_formula_units_Z 48
_cell_length_a 5.672725
_cell_length_b 20.502617
_cell_length_c 18.166325
_cell_angle_alpha 90.000000
_cell_angle_beta 78.490695
_cell_angle_gamma 90.000000
_cell_volume 2070.362821
_symmetry_space_group_name_H-M "C 2/C"
_symmetry_group_IT_number 15
_symmetry_cell_setting 'monoclinic'
loop_
_space_group_symop_operation_xyz
x,y,z
-x,y,1/2-z
-x,-y,-z
x,-y,1/2+z
1/2+x,1/2+y,z
1/2-x,1/2+y,1/2-z
1/2-x,1/2-y,-z
1/2+x,1/2-y,1/2+z
loop_
_atom_site_type_symbol
_atom_site_label
_atom_site_fract_x
_atom_site_fract_y
_atom_site_fract_z
Si Si1 0.769661 0.677268 0.032227
Si Si2 0.391953 0.356205 0.178003
Si Si3 0.779080 0.705225 0.204373
Si Si4 0.854142 0.403053 0.067692
Si Si5 0.405743 0.017371 0.831871
Si Si6 0.106205 0.061284 0.448549
O O1 0.832404 0.680393 0.116726
O O2 0.547649 0.626359 0.046826
O O3 0.750000 0.750000 0.000000
O O4 0.932664 0.647166 0.956387
O O5 0.500000 0.374297 0.250000
O O6 0.292712 0.283670 0.192349
O O7 0.612567 0.366544 0.108019
O O8 0.195734 0.410345 0.174461
O O9 0.500000 0.689746 0.250000
O O10 0.000000 0.689696 0.250000
O O11 0.903429 0.465511 0.115989
O O12 0.833954 0.423569 0.984414
O O13 0.500000 0.991494 0.750000
O O14 0.195087 0.969423 0.868368
O O15 0.000000 0.000000 0.500000
#
# Coordination Sequence:
#
# PCOD9304042 Si02
#       6
#     8   8   8   8   8   8
#     4  12  29  50  81 111 152 213 277 328 412 485
#     4  11  23  41  77 110 148 196 263 329 398 475
#     4  11  28  51  77 115 167 212 271 341 411 486
#     4  12  24  45  77 107 151 198 261 328 396 474
#     4  12  24  44  72 111 149 198 256 325 410 482
#     4  12  26  47  74 111 152 198 257 330 398 481
#
# _framework density 23.184339999999999
#
# number of rings (size 3 to 8) (size 9 to 14) (size 15 to 20)
#    0.000    0.333    5.000    3.000    9.333    1.333 
#    3.000    0.000    0.000    0.000    0.000    0.000 
#    0.000    0.000    0.000    0.000    0.000    0.000 
#
# Total GULP energy -133807.489113 kJ/mol
# GULP energy per Si atom -5575.312046 kJ/mol
# Density = 2.313157 g / cm^3
# Si number density = 23.184340 Si / 1000 Ang^3
#
#
#
# Elastic Constant Matrix: (Units=GPa)
#
#
# Indices 1 2 3 4 5 6 
#
# 1 67.6273 26.3476 39.4934 0.0000 -2.3191 0.0000
# 2 26.3476 95.5147 34.6979 0.0000 0.1789 0.0000
# 3 39.4934 34.6979 166.0846 0.0000 -13.7462 0.0000
# 4 0.0000 0.0000 0.0000 361.1116 0.0000 -29.4074
# 5 -2.3191 0.1789 -13.7462 0.0000 51.1331 0.0000
# 6 0.0000 0.0000 0.0000 -29.4074 0.0000 16.5972
#
#
#
# Elastic Compliance Matrix: (Units=1/GPa)
#
#
# Indices 1 2 3 4 5 6 
#
# 1 0.018341 -0.003756 -0.003586 0.000000 -0.000119 0.000000
# 2 -0.003756 0.012123 -0.001695 0.000000 -0.000668 0.000000
# 3 -0.003586 -0.001695 0.007379 0.000000 0.001827 0.000000
# 4 0.000000 0.000000 0.000000 0.003236 0.000000 0.005734
# 5 -0.000119 -0.000668 0.001827 0.000000 0.020045 0.000000
# 6 0.000000 0.000000 0.000000 0.005734 0.000000 0.070410
#
#
# Mechanical properties :
#
#
# Convention : Reuss Voigt Hill
#
# Bulk Modulus (GPa) = 50.58740 58.92272 54.75506
# Shear Modulus (GPa) = 32.01069 101.01422 66.51245
#
# Velocity S-wave (km/s) = 3.71981 6.60792 5.36198
# Velocity P-wave (km/s) = 6.34952 9.14820 7.87419
#
# Compressibility (1/GPa) = 0.01976777
#
# Stress axis : x y z
#
# Youngs Moduli (GPa) = 54.52372 82.49025 135.51767
#
# Poissons Ratio (x) = 0.30985 0.48602
# Poissons Ratio (y) = 0.20480 0.22967
# Poissons Ratio (z) = 0.19554 0.13980
#
# Static dielectric constant tensor:
#      x y z
#    x 1.846480 0.000000 -0.020700 
#    y 0.000000 2.057310 0.000000 
#    z -0.020700 0.000000 1.908000 
# 
# From -- ./inp_files/185473.got.cif
#   From: 2010.05.17/outbox.cif.g08.bks.cpg/sg15_93_cif.got.tgz:185473.got - 2010.06.03 18:47:42.
