data_PCOD9304364
_publ_section_title
;
Structure prediction by ZEFSAII (Michael W. Deem and Ramdas Pophale) SiO2 
 PCOD9304364
Probable space group: C 2/C
;
_chemical_formula_sum "Si O2"
_cell_formula_units_Z 32
_cell_length_a 12.778580
_cell_length_b 11.092576
_cell_length_c 12.856727
_cell_angle_alpha 90.000000
_cell_angle_beta 37.741934
_cell_angle_gamma 90.000000
_cell_volume 1115.506335
_symmetry_space_group_name_H-M "C 2/C"
_symmetry_group_IT_number 15
_symmetry_cell_setting 'monoclinic'
loop_
_space_group_symop_operation_xyz
x,y,z
-x,y,1/2-z
-x,-y,-z
x,-y,1/2+z
1/2+x,1/2+y,z
1/2-x,1/2+y,1/2-z
1/2-x,1/2-y,-z
1/2+x,1/2-y,1/2+z
loop_
_atom_site_type_symbol
_atom_site_label
_atom_site_fract_x
_atom_site_fract_y
_atom_site_fract_z
Si Si1 0.484595 0.660041 0.873346
Si Si2 0.983873 0.718948 0.599557
Si Si3 0.287106 0.432914 0.810857
Si Si4 0.667795 0.002913 0.185110
O O1 0.500000 0.725203 0.750000
O O2 0.646169 0.568990 0.739819
O O3 0.469260 0.741933 0.988549
O O4 0.326188 0.566049 0.003108
O O5 0.953836 0.849011 0.673330
O O6 0.838447 0.636443 0.770039
O O7 0.151343 0.637348 0.488819
O O8 0.181003 0.431942 0.786291
O O9 0.500000 0.022654 0.250000
#
# Coordination Sequence:
#
# PCOD9304364 Si02
#       4
#     8   8   8   8
#     4  11  25  47  73 107 146 188 240 301 360 428
#     4  11  23  43  72 104 144 189 237 294 359 426
#     4  11  23  44  69 103 144 189 237 297 355 428
#     4  11  24  44  72 106 143 190 241 296 360 432
#
# _framework density 28.686526000000001
#
# number of rings (size 3 to 8) (size 9 to 14) (size 15 to 20)
#    0.000    1.000    0.000    8.250    0.000    4.000 
#    0.000   20.000    0.000    3.000    0.000    0.000 
#    0.000    0.000    0.000    0.000    0.000    0.000 
#
# Total GULP energy -89336.025055 kJ/mol
# GULP energy per Si atom -5583.501566 kJ/mol
# Density = 2.862123 g / cm^3
# Si number density = 28.686526 Si / 1000 Ang^3
#
#
#
# Elastic Constant Matrix: (Units=GPa)
#
#
# Indices 1 2 3 4 5 6 
#
# 1 154.6106 66.0869 68.2339 0.0000 11.7179 0.0000
# 2 66.0869 155.4013 66.7963 0.0000 9.1011 0.0000
# 3 68.2339 66.7963 136.8762 0.0001 24.6418 0.0000
# 4 0.0000 0.0000 0.0001 25.1130 0.0000 -16.5348
# 5 11.7179 9.1011 24.6418 0.0000 53.3059 0.0000
# 6 0.0000 0.0000 0.0000 -16.5348 0.0000 4.2774
#
#
#
# Elastic Compliance Matrix: (Units=1/GPa)
#
#
# Indices 1 2 3 4 5 6 
#
# 1 0.008941 -0.002388 -0.003285 0.000000 -0.000039 0.000000
# 2 -0.002388 0.008793 -0.003190 0.000000 0.000498 0.000000
# 3 -0.003285 -0.003190 0.011205 0.000000 -0.003913 0.000000
# 4 0.000000 0.000000 0.000000 -0.025771 0.000000 -0.099619
# 5 -0.000039 0.000498 -0.003913 0.000000 0.020492 0.000000
# 6 0.000000 0.000000 0.000000 -0.099619 0.000000 -0.151301
#
#
# Mechanical properties :
#
#
# Convention : Reuss Voigt Hill
#
# Bulk Modulus (GPa) = 89.18708 94.34691 91.76699
# Shear Modulus (GPa) = -47.09077 32.92399 -7.08339
#
# Velocity S-wave (km/s) = -4.05602 3.39147 -1.57309
# Velocity P-wave (km/s) = 3.03689 6.94956 5.36279
#
# Compressibility (1/GPa) = 0.01121239
#
# Stress axis : x y z
#
# Youngs Moduli (GPa) = 111.84011 113.73256 89.24969
#
# Poissons Ratio (x) = 0.27162 0.29317
# Poissons Ratio (y) = 0.26710 0.28471
# Poissons Ratio (z) = 0.36737 0.36281
#
# Static dielectric constant tensor:
#      x y z
#    x 2.281070 0.000000 0.018290 
#    y 0.000000 2.199290 0.000000 
#    z 0.018290 0.000000 2.312250 
# 
# From -- ./inp_files/151640.got.cif
#   From: 2010.05.17/outbox.cif.g08.bks.cpg/sg15_76_cif.got.tgz:151640.got - 2010.06.03 18:47:42.
