data_PCOD9304289
_publ_section_title
;
Structure prediction by ZEFSAII (Michael W. Deem and Ramdas Pophale) SiO2 
 PCOD9304289
Probable space group: C 2/C
;
_chemical_formula_sum "Si O2"
_cell_formula_units_Z 32
_cell_length_a 13.173564
_cell_length_b 7.388698
_cell_length_c 13.625707
_cell_angle_alpha 90.000000
_cell_angle_beta 101.063158
_cell_angle_gamma 90.000000
_cell_volume 1301.617846
_symmetry_space_group_name_H-M "C 2/C"
_symmetry_group_IT_number 15
_symmetry_cell_setting 'monoclinic'
loop_
_space_group_symop_operation_xyz
x,y,z
-x,y,1/2-z
-x,-y,-z
x,-y,1/2+z
1/2+x,1/2+y,z
1/2-x,1/2+y,1/2-z
1/2-x,1/2-y,-z
1/2+x,1/2-y,1/2+z
loop_
_atom_site_type_symbol
_atom_site_label
_atom_site_fract_x
_atom_site_fract_y
_atom_site_fract_z
Si Si1 0.550318 0.601128 0.856464
Si Si2 0.042510 0.391278 0.101530
Si Si3 0.639351 0.990282 0.809517
Si Si4 0.137035 0.004088 0.061202
O O1 0.500000 0.514469 0.750000
O O2 0.630841 0.498183 0.941948
O O3 0.601805 0.788881 0.832984
O O4 0.376497 0.011910 0.809595
O O5 0.940128 0.376975 0.149821
O O6 0.098067 0.206575 0.081104
O O7 0.949713 0.123677 0.907509
O O8 0.000000 0.500000 0.000000
O O9 0.753035 0.024942 0.870174
#
# Coordination Sequence:
#
# PCOD9304289 Si02
#       4
#     8   8   8   8
#     4  11  23  45  66  96 133 167 218 271 317 392
#     4  11  23  43  68  99 130 169 226 268 318 396
#     4  11  24  42  68  93 131 173 208 274 325 374
#     4  11  26  43  68  97 130 175 216 264 332 389
#
# _framework density 24.584789000000001
#
# number of rings (size 3 to 8) (size 9 to 14) (size 15 to 20)
#    0.000    1.000    5.000    0.750    7.000    0.000 
#    0.000    7.500    0.000    0.000    0.000    0.000 
#    0.000    0.000    0.000    0.000    0.000    0.000 
#
# Total GULP energy -89503.959557 kJ/mol
# GULP energy per Si atom -5593.997472 kJ/mol
# Density = 2.452883 g / cm^3
# Si number density = 24.584789 Si / 1000 Ang^3
#
#
#
# Elastic Constant Matrix: (Units=GPa)
#
#
# Indices 1 2 3 4 5 6 
#
# 1 69.5781 4.4227 59.0814 0.0000 42.8520 0.0000
# 2 4.4227 76.0083 44.9746 0.0000 -0.0522 0.0000
# 3 59.0814 44.9746 263.7094 0.0000 34.5418 0.0000
# 4 0.0000 0.0000 0.0000 26.4049 0.0000 -19.9418
# 5 42.8520 -0.0522 34.5418 0.0000 60.4112 0.0000
# 6 0.0000 0.0000 0.0000 -19.9418 0.0000 30.4974
#
#
#
# Elastic Compliance Matrix: (Units=1/GPa)
#
#
# Indices 1 2 3 4 5 6 
#
# 1 0.029218 0.000828 -0.004294 0.000000 -0.018269 0.000000
# 2 0.000828 0.014793 -0.002846 0.000000 0.001053 0.000000
# 3 -0.004294 -0.002846 0.005233 0.000000 0.000052 0.000000
# 4 0.000000 0.000000 0.000000 0.074821 0.000000 0.048924
# 5 -0.018269 0.001053 0.000052 0.000000 0.029484 0.000000
# 6 0.000000 0.000000 0.000000 0.048924 0.000000 0.064780
#
#
# Mechanical properties :
#
#
# Convention : Reuss Voigt Hill
#
# Bulk Modulus (GPa) = 27.30809 69.58369 48.44589
# Shear Modulus (GPa) = 20.56264 43.51718 32.03991
#
# Velocity S-wave (km/s) = 2.89519 4.21180 3.61396
# Velocity P-wave (km/s) = 4.72313 7.21231 6.09612
#
# Compressibility (1/GPa) = 0.03661919
#
# Stress axis : x y z
#
# Youngs Moduli (GPa) = 34.22568 67.59860 191.10185
#
# Poissons Ratio (x) = -0.05599 0.82064
# Poissons Ratio (y) = -0.02835 0.54395
# Poissons Ratio (z) = 0.14697 0.19241
#
# Static dielectric constant tensor:
#      x y z
#    x 1.915860 0.000000 -0.036720 
#    y 0.000000 2.005200 0.000000 
#    z -0.036720 0.000000 2.031880 
# 
# From -- ./inp_files/158941.got.cif
#   From: 2010.05.17/outbox.cif.g08.bks.cpg/sg15_80_cif.got.tgz:158941.got - 2010.06.03 18:47:42.
