data_PCOD9304081
_publ_section_title
;
Structure prediction by ZEFSAII (Michael W. Deem and Ramdas Pophale) SiO2 
 PCOD9304081
Probable space group: C 2/C
;
_chemical_formula_sum "Si O2"
_cell_formula_units_Z 32
_cell_length_a 4.664520
_cell_length_b 31.755092
_cell_length_c 9.674653
_cell_angle_alpha 90.000000
_cell_angle_beta 67.839544
_cell_angle_gamma 90.000000
_cell_volume 1327.175082
_symmetry_space_group_name_H-M "C 2/C"
_symmetry_group_IT_number 15
_symmetry_cell_setting 'monoclinic'
loop_
_space_group_symop_operation_xyz
x,y,z
-x,y,1/2-z
-x,-y,-z
x,-y,1/2+z
1/2+x,1/2+y,z
1/2-x,1/2+y,1/2-z
1/2-x,1/2-y,-z
1/2+x,1/2-y,1/2+z
loop_
_atom_site_type_symbol
_atom_site_label
_atom_site_fract_x
_atom_site_fract_y
_atom_site_fract_z
Si Si1 0.157396 0.733914 0.862156
Si Si2 0.274698 0.849090 0.415305
Si Si3 0.871950 0.380345 0.915803
Si Si4 0.184097 0.972819 0.856756
O O1 0.500000 0.719520 0.750000
O O2 0.000000 0.756277 0.750000
O O3 0.901310 0.697275 0.928955
O O4 0.250000 0.750000 0.000000
O O5 0.500000 0.862409 0.250000
O O6 0.347619 0.879078 0.529914
O O7 0.909648 0.854313 0.465540
O O8 0.772295 0.427972 0.906305
O O9 0.000000 0.361190 0.750000
O O10 0.500000 0.994978 0.750000
O O11 0.000000 0.965335 0.750000
O O12 0.000000 0.000000 0.000000
#
# Coordination Sequence:
#
# PCOD9304081 Si02
#       4
#     8   8   8   8
#     4  11  24  45  70 100 136 175 222 277 334 403
#     4  11  23  42  67  98 130 171 220 273 327 392
#     4  11  23  42  66  96 132 171 219 274 328 389
#     4  11  24  43  64  94 132 173 218 270 323 386
#
# _framework density 24.111360999999999
#
# number of rings (size 3 to 8) (size 9 to 14) (size 15 to 20)
#    0.000    1.000    0.000    9.000    0.000    4.000 
#    0.000    6.250    0.000    0.000    0.000    0.000 
#    0.000    0.000    0.000    0.000    0.000    0.000 
#
# Total GULP energy -89346.915112 kJ/mol
# GULP energy per Si atom -5584.182195 kJ/mol
# Density = 2.405648 g / cm^3
# Si number density = 24.111361 Si / 1000 Ang^3
#
#
#
# Elastic Constant Matrix: (Units=GPa)
#
#
# Indices 1 2 3 4 5 6 
#
# 1 98.4269 9.8842 17.0595 0.0000 -0.4347 0.0000
# 2 9.8842 46.0148 39.6403 0.0000 -1.1118 0.0000
# 3 17.0595 39.6403 156.7890 0.0000 -3.3277 0.0000
# 4 0.0000 0.0000 0.0000 29.9476 0.0000 -23.3051
# 5 -0.4347 -1.1118 -3.3277 0.0000 77.8589 0.0000
# 6 0.0000 0.0000 0.0000 -23.3051 0.0000 -2.7274
#
#
#
# Elastic Compliance Matrix: (Units=1/GPa)
#
#
# Indices 1 2 3 4 5 6 
#
# 1 0.010448 -0.001617 -0.000728 0.000000 0.000004 0.000000
# 2 -0.001617 0.028034 -0.006910 0.000000 0.000096 0.000000
# 3 -0.000728 -0.006910 0.008209 0.000000 0.000248 0.000000
# 4 0.000000 0.000000 0.000000 0.004365 0.000000 -0.037300
# 5 0.000004 0.000096 0.000248 0.000000 0.012856 0.000000
# 6 0.000000 0.000000 0.000000 -0.037300 0.000000 -0.047931
#
#
# Mechanical properties :
#
#
# Convention : Reuss Voigt Hill
#
# Bulk Modulus (GPa) = 35.48309 48.26651 41.87480
# Shear Modulus (GPa) = 113.93162 36.65895 75.29529
#
# Velocity S-wave (km/s) = 6.88149 3.90346 5.59428
# Velocity P-wave (km/s) = 8.82542 6.35434 7.68979
#
# Compressibility (1/GPa) = 0.02818244
#
# Stress axis : x y z
#
# Youngs Moduli (GPa) = 95.70843 35.67039 121.81096
#
# Poissons Ratio (x) = 0.05769 0.08866
# Poissons Ratio (y) = 0.15478 0.84169
# Poissons Ratio (z) = 0.06966 0.24648
#
# Static dielectric constant tensor:
#      x y z
#    x 1.930170 0.000000 0.039350 
#    y 0.000000 1.951640 0.000000 
#    z 0.039350 0.000000 1.962610 
# 
# From -- ./inp_files/20131.got.cif
#   From: 2010.05.17/outbox.cif.g08.bks.cpg/sg15_11_cif.got.tgz:20131.got - 2010.06.03 18:47:42.
