data_PCOD9304340
_publ_section_title
;
Structure prediction by ZEFSAII (Michael W. Deem and Ramdas Pophale) SiO2 
 PCOD9304340
Probable space group: C 2/C
;
_chemical_formula_sum "Si O2"
_cell_formula_units_Z 60
_cell_length_a 16.430120
_cell_length_b 13.842989
_cell_length_c 13.897556
_cell_angle_alpha 90.000000
_cell_angle_beta 120.493140
_cell_angle_gamma 90.000000
_cell_volume 2723.704920
_symmetry_space_group_name_H-M "C 2/C"
_symmetry_group_IT_number 15
_symmetry_cell_setting 'monoclinic'
loop_
_space_group_symop_operation_xyz
x,y,z
-x,y,1/2-z
-x,-y,-z
x,-y,1/2+z
1/2+x,1/2+y,z
1/2-x,1/2+y,1/2-z
1/2-x,1/2-y,-z
1/2+x,1/2-y,1/2+z
loop_
_atom_site_type_symbol
_atom_site_label
_atom_site_fract_x
_atom_site_fract_y
_atom_site_fract_z
Si Si1 0.788632 0.627137 0.735349
Si Si2 0.670532 0.468131 0.322086
Si Si3 0.253507 0.554180 0.422215
Si Si4 0.494347 0.943373 0.360340
Si Si5 0.861128 0.715713 0.068195
Si Si6 0.000000 0.133734 0.750000
Si Si7 0.533783 0.148890 0.061919
Si Si8 0.250576 0.340778 0.727837
O O1 0.729799 0.609201 0.796744
O O2 0.758416 0.550334 0.635055
O O3 0.891806 0.595006 0.824218
O O4 0.787392 0.739369 0.711224
O O5 0.683709 0.457941 0.444890
O O6 0.563366 0.442448 0.227472
O O7 0.714782 0.570585 0.317438
O O8 0.157341 0.607347 0.400720
O O9 0.286075 0.625048 0.355079
O O10 0.500000 0.938157 0.250000
O O11 0.557774 0.874341 0.464656
O O12 0.494061 0.049647 0.402715
O O13 0.919438 0.791590 0.167263
O O14 0.938837 0.710524 0.027396
O O15 0.750000 0.750000 0.000000
O O16 0.636674 0.174361 0.166354
#
# Coordination Sequence:
#
# PCOD9304340 Si02
#       8
#     8   8   8   8   8   4   8   8
#     4  11  24  45  68 101 144 184 240 306 362 435
#     4  11  24  47  70 104 144 192 243 307 367 439
#     4  11  23  43  71 104 141 184 241 307 358 429
#     4  11  24  40  65  97 139 180 235 301 362 431
#     4  12  24  40  75 112 139 182 249 312 376 427
#     4  12  26  42  76 108 144 186 246 308 372 452
#     4  11  24  41  67 105 137 180 240 306 364 436
#     4  11  26  44  70 103 146 196 241 295 374 450
#
# _framework density 22.028817
#
# number of rings (size 3 to 8) (size 9 to 14) (size 15 to 20)
#    0.000    0.800    4.000    4.000    6.533    0.533 
#    1.200    2.667    0.000    0.000    0.000    0.000 
#    0.000    0.000    0.000    0.000    0.000    0.000 
#
# Total GULP energy -167013.867315 kJ/mol
# GULP energy per Si atom -5567.128910 kJ/mol
# Density = 2.197868 g / cm^3
# Si number density = 22.028817 Si / 1000 Ang^3
#
#
#
# Elastic Constant Matrix: (Units=GPa)
#
#
# Indices 1 2 3 4 5 6 
#
# 1 97.1018 29.9094 36.0345 0.0000 17.3005 0.0000
# 2 29.9094 98.7023 33.4924 0.0000 5.2889 0.0000
# 3 36.0345 33.4924 98.9333 0.0000 -11.6792 0.0000
# 4 0.0000 0.0000 0.0000 22.8573 0.0000 2.3971
# 5 17.3005 5.2889 -11.6792 0.0000 42.3765 0.0000
# 6 0.0000 0.0000 0.0000 2.3971 0.0000 35.9006
#
#
#
# Elastic Compliance Matrix: (Units=1/GPa)
#
#
# Indices 1 2 3 4 5 6 
#
# 1 0.014143 -0.002131 -0.005251 0.000000 -0.006955 0.000000
# 2 -0.002131 0.012047 -0.003491 0.000000 -0.001595 0.000000
# 3 -0.005251 -0.003491 0.013961 0.000000 0.006427 0.000000
# 4 0.000000 0.000000 0.000000 0.044058 0.000000 -0.002942
# 5 -0.006955 -0.001595 0.006427 0.000000 0.028408 0.000000
# 6 0.000000 0.000000 0.000000 -0.002942 0.000000 0.028051
#
#
# Mechanical properties :
#
#
# Convention : Reuss Voigt Hill
#
# Bulk Modulus (GPa) = 54.33122 54.84556 54.58839
# Shear Modulus (GPa) = 29.66520 33.24696 31.45608
#
# Velocity S-wave (km/s) = 3.67366 3.88912 3.78292
# Velocity P-wave (km/s) = 6.53541 6.71701 6.62683
#
# Compressibility (1/GPa) = 0.01840562
#
# Stress axis : x y z
#
# Youngs Moduli (GPa) = 70.70822 83.00682 71.62986
#
# Poissons Ratio (x) = 0.17690 0.37611
# Poissons Ratio (y) = 0.15069 0.25002
# Poissons Ratio (z) = 0.37127 0.28974
#
# Static dielectric constant tensor:
#      x y z
#    x 1.889100 0.000000 -0.027390 
#    y 0.000000 1.892840 0.000000 
#    z -0.027390 0.000000 1.934480 
# 
# From -- ./inp_files/154296.got.cif
#   From: 2010.05.17/outbox.cif.g08.bks.cpg/sg15_78_cif.got.tgz:154296.got - 2010.06.03 18:47:42.
