data_PCOD9304651
_publ_section_title
;
Structure prediction by ZEFSAII (Michael W. Deem and Ramdas Pophale) SiO2 
 PCOD9304651
Probable space group: C 2/C
;
_chemical_formula_sum "Si O2"
_cell_formula_units_Z 52
_cell_length_a 7.316463
_cell_length_b 27.319121
_cell_length_c 13.120865
_cell_angle_alpha 90.000000
_cell_angle_beta 71.032957
_cell_angle_gamma 90.000000
_cell_volume 2480.198102
_symmetry_space_group_name_H-M "C 2/C"
_symmetry_group_IT_number 15
_symmetry_cell_setting 'monoclinic'
loop_
_space_group_symop_operation_xyz
x,y,z
-x,y,1/2-z
-x,-y,-z
x,-y,1/2+z
1/2+x,1/2+y,z
1/2-x,1/2+y,1/2-z
1/2-x,1/2-y,-z
1/2+x,1/2-y,1/2+z
loop_
_atom_site_type_symbol
_atom_site_label
_atom_site_fract_x
_atom_site_fract_y
_atom_site_fract_z
Si Si1 0.392178 0.614397 0.493638
Si Si2 0.000000 0.600446 0.250000
Si Si3 0.194583 0.787649 0.154103
Si Si4 0.350249 0.429295 0.371187
Si Si5 0.232289 0.177655 0.410730
Si Si6 0.987427 0.635364 0.643883
Si Si7 0.291244 0.541128 0.339670
O O1 0.526190 0.586506 0.552378
O O2 0.531348 0.653036 0.413456
O O3 0.301245 0.574470 0.436778
O O4 0.206211 0.641905 0.570829
O O5 0.110315 0.636911 0.150943
O O6 0.139727 0.564725 0.288817
O O7 0.215919 0.729307 0.149022
O O8 0.375438 0.813641 0.174179
O O9 0.000000 0.801477 0.250000
O O10 0.200564 0.807793 0.036108
O O11 0.500000 0.421327 0.250000
O O12 0.158583 0.396571 0.397099
O O13 0.275071 0.484837 0.376857
O O14 0.000000 0.608811 0.750000
O O15 0.500000 0.544484 0.250000
#
# Coordination Sequence:
#
# PCOD9304651 Si02
#       7
#     8   4   8   8   8   8   8
#     4  12  24  45  68 104 142 180 236 285 355 420
#     4  12  24  50  68 104 148 188 240 290 354 424
#     4  11  23  45  72 104 136 185 239 292 360 419
#     4  11  24  45  69 100 141 181 233 292 346 424
#     4  11  24  44  74  99 139 190 232 296 357 419
#     4  12  24  41  69 101 137 182 226 287 349 414
#     4  11  26  42  71 100 139 186 234 288 349 421
#
# _framework density 20.966068
#
# number of rings (size 3 to 8) (size 9 to 14) (size 15 to 20)
#    0.000    0.615    5.385    2.769    1.077    1.231 
#    2.769    0.000    0.000    0.000    0.000    0.000 
#    0.000    0.000    0.000    0.000    0.000    0.000 
#
# Total GULP energy -145187.251511 kJ/mol
# GULP energy per Si atom -5584.125058 kJ/mol
# Density = 2.091835 g / cm^3
# Si number density = 20.966068 Si / 1000 Ang^3
#
#
#
# Elastic Constant Matrix: (Units=GPa)
#
#
# Indices 1 2 3 4 5 6 
#
# 1 151.9205 72.1248 34.2441 0.0000 4.0676 0.0000
# 2 72.1248 144.2501 21.1151 0.0000 -0.8988 0.0000
# 3 34.2441 21.1151 64.4857 0.0000 -6.4003 0.0000
# 4 0.0000 0.0000 0.0000 32.4802 0.0000 -1.4371
# 5 4.0676 -0.8988 -6.4003 0.0000 47.4420 0.0000
# 6 0.0000 0.0000 0.0000 -1.4371 0.0000 8.9207
#
#
#
# Elastic Compliance Matrix: (Units=1/GPa)
#
#
# Indices 1 2 3 4 5 6 
#
# 1 0.009461 -0.004184 -0.003793 0.000000 -0.001402 0.000000
# 2 -0.004184 0.009133 -0.000726 0.000000 0.000434 0.000000
# 3 -0.003793 -0.000726 0.018032 0.000000 0.002744 0.000000
# 4 0.000000 0.000000 0.000000 0.031009 0.000000 0.004995
# 5 -0.001402 0.000434 0.002744 0.000000 0.021577 0.000000
# 6 0.000000 0.000000 0.000000 0.004995 0.000000 0.112904
#
#
# Mechanical properties :
#
#
# Convention : Reuss Voigt Hill
#
# Bulk Modulus (GPa) = 52.02896 68.40268 60.21582
# Shear Modulus (GPa) = 22.13076 33.31342 27.72209
#
# Velocity S-wave (km/s) = 3.25245 3.99045 3.64020
# Velocity P-wave (km/s) = 6.24293 7.34356 6.81550
#
# Compressibility (1/GPa) = 0.01922007
#
# Stress axis : x y z
#
# Youngs Moduli (GPa) = 105.69194 109.48832 55.45777
#
# Poissons Ratio (x) = 0.45812 0.21038
# Poissons Ratio (y) = 0.44223 0.04024
# Poissons Ratio (z) = 0.40094 0.07945
#
# Static dielectric constant tensor:
#      x y z
#    x 1.739700 0.000000 -0.004370 
#    y 0.000000 1.769750 0.000000 
#    z -0.004370 0.000000 1.495230 
# 
# From -- ./inp_files/130702.got.cif
#   From: 2010.05.17/outbox.cif.g08.bks.cpg/sg15_66_cif.got.tgz:130702.got - 2010.06.03 18:47:42.
