data_PCOD9304847
_publ_section_title
;
Structure prediction by ZEFSAII (Michael W. Deem and Ramdas Pophale) SiO2 
 PCOD9304847
Probable space group: C 2/C
;
_chemical_formula_sum "Si O2"
_cell_formula_units_Z 44
_cell_length_a 11.381927
_cell_length_b 14.872983
_cell_length_c 12.186999
_cell_angle_alpha 90.000000
_cell_angle_beta 72.643564
_cell_angle_gamma 90.000000
_cell_volume 1969.118096
_symmetry_space_group_name_H-M "C 2/C"
_symmetry_group_IT_number 15
_symmetry_cell_setting 'monoclinic'
loop_
_space_group_symop_operation_xyz
x,y,z
-x,y,1/2-z
-x,-y,-z
x,-y,1/2+z
1/2+x,1/2+y,z
1/2-x,1/2+y,1/2-z
1/2-x,1/2-y,-z
1/2+x,1/2-y,1/2+z
loop_
_atom_site_type_symbol
_atom_site_label
_atom_site_fract_x
_atom_site_fract_y
_atom_site_fract_z
Si Si1 0.500000 0.385723 0.750000
Si Si2 0.600283 0.753258 0.042055
Si Si3 0.221652 0.008991 0.770812
Si Si4 0.068691 0.589206 0.941270
Si Si5 0.389808 0.308411 0.198831
Si Si6 0.136024 0.646474 0.156567
O O1 0.456527 0.322153 0.862611
O O2 0.614413 0.449982 0.746364
O O3 0.531766 0.846911 0.089978
O O4 0.750000 0.750000 0.000000
O O5 0.568515 0.740101 0.922864
O O6 0.321701 0.050044 0.661041
O O7 0.167166 0.100793 0.832507
O O8 0.287205 0.940763 0.833515
O O9 0.126204 0.642543 0.028833
O O10 0.000000 0.500000 0.000000
O O11 0.500000 0.334364 0.250000
O O12 0.313903 0.236290 0.294708
O O13 0.000000 0.637291 0.250000
#
# Coordination Sequence:
#
# PCOD9304847 Si02
#       6
#     4   8   8   8   8   8
#     4  12  30  50  70 120 162 198 260 324 386 464
#     4  12  28  48  81 111 158 205 261 326 393 458
#     4  12  28  45  75 111 154 201 260 315 394 465
#     4  12  25  45  75 110 147 201 259 319 394 463
#     4  11  24  50  72 105 150 200 251 318 388 458
#     4  11  23  47  73 104 150 192 260 317 376 469
#
# _framework density 22.345029
#
# number of rings (size 3 to 8) (size 9 to 14) (size 15 to 20)
#    0.000    0.364    6.364    2.182   10.182    2.909 
#    0.000    0.000    0.000    0.000    0.000    0.000 
#    0.000    0.000    0.000    0.000    0.000    0.000 
#
# Total GULP energy -122856.024642 kJ/mol
# GULP energy per Si atom -5584.364756 kJ/mol
# Density = 2.229417 g / cm^3
# Si number density = 22.345029 Si / 1000 Ang^3
#
#
#
# Elastic Constant Matrix: (Units=GPa)
#
#
# Indices 1 2 3 4 5 6 
#
# 1 114.3872 53.4747 30.1233 0.0000 -7.2078 0.0000
# 2 53.4747 167.8284 19.8179 0.0000 -1.7295 0.0000
# 3 30.1233 19.8179 70.5061 0.0000 1.6985 0.0000
# 4 0.0000 0.0000 0.0000 12.9428 0.0000 22.2883
# 5 -7.2078 -1.7295 1.6985 0.0000 27.9317 0.0000
# 6 0.0000 0.0000 0.0000 22.2883 0.0000 22.7425
#
#
#
# Elastic Compliance Matrix: (Units=1/GPa)
#
#
# Indices 1 2 3 4 5 6 
#
# 1 0.011480 -0.003143 -0.004094 0.000000 0.003017 0.000000
# 2 -0.003143 0.007030 -0.000625 0.000000 -0.000338 0.000000
# 3 -0.004094 -0.000625 0.016158 0.000000 -0.002078 0.000000
# 4 0.000000 0.000000 0.000000 -0.112355 0.000000 0.110111
# 5 0.003017 -0.000338 -0.002078 0.000000 0.036686 0.000000
# 6 0.000000 0.000000 0.000000 0.110111 0.000000 -0.063942
#
#
# Mechanical properties :
#
#
# Convention : Reuss Voigt Hill
#
# Bulk Modulus (GPa) = 52.78753 62.17261 57.48007
# Shear Modulus (GPa) = -60.31090 29.34378 -15.48356
#
# Velocity S-wave (km/s) = -5.20090 3.62776 -2.63521
# Velocity P-wave (km/s) = 3.52004 6.74031 4.06455
#
# Compressibility (1/GPa) = 0.01894387
#
# Stress axis : x y z
#
# Youngs Moduli (GPa) = 87.10897 142.24095 61.88897
#
# Poissons Ratio (x) = 0.44710 0.25337
# Poissons Ratio (y) = 0.27381 0.03868
# Poissons Ratio (z) = 0.35661 0.08890
#
# Static dielectric constant tensor:
#      x y z
#    x 1.621530 0.000000 0.212520 
#    y 0.000000 1.782340 0.000000 
#    z 0.212520 0.000000 1.627220 
# 
# From -- ./inp_files/86118.got.cif
#   From: 2010.05.17/outbox.cif.g08.bks.cpg/sg15_44_cif.got.tgz:86118.got - 2010.06.03 18:47:42.
