data_PCOD9304048
_publ_section_title
;
Structure prediction by ZEFSAII (Michael W. Deem and Ramdas Pophale) SiO2 
 PCOD9304048
Probable space group: C 2/C
;
_chemical_formula_sum "Si O2"
_cell_formula_units_Z 48
_cell_length_a 21.657277
_cell_length_b 6.506377
_cell_length_c 27.982279
_cell_angle_alpha 90.000000
_cell_angle_beta 141.703661
_cell_angle_gamma 90.000000
_cell_volume 2443.587513
_symmetry_space_group_name_H-M "C 2/C"
_symmetry_group_IT_number 15
_symmetry_cell_setting 'monoclinic'
loop_
_space_group_symop_operation_xyz
x,y,z
-x,y,1/2-z
-x,-y,-z
x,-y,1/2+z
1/2+x,1/2+y,z
1/2-x,1/2+y,1/2-z
1/2-x,1/2-y,-z
1/2+x,1/2-y,1/2+z
loop_
_atom_site_type_symbol
_atom_site_label
_atom_site_fract_x
_atom_site_fract_y
_atom_site_fract_z
Si Si1 0.596719 0.919253 0.532851
Si Si2 0.408858 0.254207 0.573680
Si Si3 0.725870 0.741491 0.849883
Si Si4 0.119697 0.953150 0.715375
Si Si5 0.277918 0.940977 0.550966
Si Si6 0.294781 0.619505 0.829603
O O1 0.568757 0.851338 0.463087
O O2 0.640289 0.733679 0.590801
O O3 0.500000 0.000000 0.500000
O O4 0.680921 0.094101 0.581836
O O5 0.508348 0.368204 0.650511
O O6 0.319466 0.413630 0.508914
O O7 0.366443 0.081475 0.583708
O O8 0.644240 0.596093 0.775669
O O9 0.698044 0.857691 0.881660
O O10 0.758592 0.906463 0.830186
O O11 0.199618 0.766144 0.762661
O O12 0.142791 0.078451 0.680615
O O13 0.250000 0.750000 0.500000
#
# Coordination Sequence:
#
# PCOD9304048 Si02
#       6
#     8   8   8   8   8   8
#     4  11  24  38  70 104 134 174 230 278 350 405
#     4  11  25  43  71 104 130 180 239 283 328 411
#     4  11  23  44  67  95 140 183 218 282 345 401
#     4  11  25  41  68 103 142 176 225 279 353 410
#     4  11  24  47  72  93 135 182 234 284 331 397
#     4  11  23  42  63 101 145 177 216 285 344 422
#
# _framework density 19.643249000000001
#
# number of rings (size 3 to 8) (size 9 to 14) (size 15 to 20)
#    0.000    1.000    5.000    1.000    4.667    2.667 
#    0.000    5.000    0.000    0.000    0.000    0.000 
#    0.000    0.000    0.000    0.000    0.000    0.000 
#
# Total GULP energy -134218.946840 kJ/mol
# GULP energy per Si atom -5592.456118 kJ/mol
# Density = 1.959854 g / cm^3
# Si number density = 19.643249 Si / 1000 Ang^3
#
#
#
# Elastic Constant Matrix: (Units=GPa)
#
#
# Indices 1 2 3 4 5 6 
#
# 1 133.7119 56.4136 77.4495 0.0008 -7.1975 0.0007
# 2 56.4136 107.6569 56.2648 0.0014 -1.8222 0.0023
# 3 77.4495 56.2648 120.0006 -0.0003 4.5447 -0.0014
# 4 0.0008 0.0014 -0.0003 23.7836 0.0008 -12.4470
# 5 -7.1975 -1.8222 4.5447 0.0008 32.9099 0.0012
# 6 0.0007 0.0023 -0.0014 -12.4470 0.0012 32.9255
#
#
#
# Elastic Compliance Matrix: (Units=1/GPa)
#
#
# Indices 1 2 3 4 5 6 
#
# 1 0.013127 -0.003067 -0.007174 -0.000001 0.003692 -0.000001
# 2 -0.003067 0.013093 -0.004184 -0.000002 0.000632 -0.000002
# 3 -0.007174 -0.004184 0.015072 0.000002 -0.003882 0.000002
# 4 -0.000001 -0.000002 0.000002 0.052416 -0.000003 0.019815
# 5 0.003692 0.000632 -0.003882 -0.000003 0.031765 -0.000002
# 6 -0.000001 -0.000002 0.000002 0.019815 -0.000002 0.037862
#
#
# Mechanical properties :
#
#
# Convention : Reuss Voigt Hill
#
# Bulk Modulus (GPa) = 80.36575 82.40279 81.38427
# Shear Modulus (GPa) = 25.46721 29.33989 27.40355
#
# Velocity S-wave (km/s) = 3.60458 3.86895 3.73910
# Velocity P-wave (km/s) = 7.63711 7.87395 7.75644
#
# Compressibility (1/GPa) = 0.01244311
#
# Stress axis : x y z
#
# Youngs Moduli (GPa) = 76.18033 76.37723 66.34802
#
# Poissons Ratio (x) = 0.23423 0.47598
# Poissons Ratio (y) = 0.23362 0.27757
# Poissons Ratio (z) = 0.54652 0.31953
#
# Static dielectric constant tensor:
#      x y z
#    x 1.657730 0.000000 -0.012350 
#    y 0.000000 1.716190 0.000000 
#    z -0.012350 0.000000 1.665670 
# 
# From -- ./inp_files/317067.got.cif
#   From: 2010.05.17/outbox.cif.g08.bks.cpg/sg15_159_cif.got.tgz:317067.got - 2010.06.03 18:47:42.
