data_PCOD9304595
_publ_section_title
;
Structure prediction by ZEFSAII (Michael W. Deem and Ramdas Pophale) SiO2 
 PCOD9304595
Probable space group: C 2/C
;
_chemical_formula_sum "Si O2"
_cell_formula_units_Z 32
_cell_length_a 6.992671
_cell_length_b 18.955906
_cell_length_c 10.987621
_cell_angle_alpha 90.000000
_cell_angle_beta 98.170647
_cell_angle_gamma 90.000000
_cell_volume 1441.651659
_symmetry_space_group_name_H-M "C 2/C"
_symmetry_group_IT_number 15
_symmetry_cell_setting 'monoclinic'
loop_
_space_group_symop_operation_xyz
x,y,z
-x,y,1/2-z
-x,-y,-z
x,-y,1/2+z
1/2+x,1/2+y,z
1/2-x,1/2+y,1/2-z
1/2-x,1/2-y,-z
1/2+x,1/2-y,1/2+z
loop_
_atom_site_type_symbol
_atom_site_label
_atom_site_fract_x
_atom_site_fract_y
_atom_site_fract_z
Si Si1 0.010779 0.289592 0.612928
Si Si2 0.127151 0.873688 0.872242
Si Si3 0.875454 0.489081 0.362060
Si Si4 0.345798 0.638971 0.557368
O O1 0.842777 0.326996 0.522280
O O2 0.966081 0.206587 0.613469
O O3 0.000000 0.316544 0.750000
O O4 0.215403 0.314813 0.579873
O O5 0.000000 0.844645 0.750000
O O6 0.242734 0.942129 0.840531
O O7 0.984683 0.894015 0.968054
O O8 0.738218 0.420604 0.362629
O O9 0.000000 0.482885 0.250000
O O10 0.000000 0.500000 0.500000
#
# Coordination Sequence:
#
# PCOD9304595 Si02
#       4
#     8   8   8   8
#     4  11  23  45  68 103 146 187 241 299 363 439
#     4  12  23  44  76 102 141 197 240 298 375 438
#     4  12  26  48  75 107 151 189 245 305 361 437
#     4  11  25  44  71 104 141 191 241 296 368 429
#
# _framework density 22.196764000000002
#
# number of rings (size 3 to 8) (size 9 to 14) (size 15 to 20)
#    0.000    0.500    5.000    3.750    0.000    3.000 
#    9.000    0.000    0.000    0.000    0.000    0.000 
#    0.000    0.000    0.000    0.000    0.000    0.000 
#
# Total GULP energy -89490.962490 kJ/mol
# GULP energy per Si atom -5593.185156 kJ/mol
# Density = 2.214624 g / cm^3
# Si number density = 22.196764 Si / 1000 Ang^3
#
#
#
# Elastic Constant Matrix: (Units=GPa)
#
#
# Indices 1 2 3 4 5 6 
#
# 1 157.6321 72.1323 58.9142 0.0000 -30.8593 0.0000
# 2 72.1323 163.2648 31.4681 0.0000 -23.0512 0.0000
# 3 58.9142 31.4681 90.6885 0.0000 -34.9856 0.0000
# 4 0.0000 0.0000 0.0000 22.5692 0.0000 -13.6725
# 5 -30.8593 -23.0512 -34.9856 0.0000 45.8962 0.0000
# 6 0.0000 0.0000 0.0000 -13.6725 0.0000 44.9372
#
#
#
# Elastic Compliance Matrix: (Units=1/GPa)
#
#
# Indices 1 2 3 4 5 6 
#
# 1 0.009881 -0.003253 -0.004756 0.000000 0.001384 0.000000
# 2 -0.003253 0.007798 0.000106 0.000000 0.001810 0.000000
# 3 -0.004756 0.000106 0.018226 0.000000 0.010749 0.000000
# 4 0.000000 0.000000 0.000000 0.054321 0.000000 0.016528
# 5 0.001384 0.001810 0.010749 0.000000 0.031822 0.000000
# 6 0.000000 0.000000 0.000000 0.016528 0.000000 0.027282
#
#
# Mechanical properties :
#
#
# Convention : Reuss Voigt Hill
#
# Bulk Modulus (GPa) = 49.75686 81.84607 65.80147
# Shear Modulus (GPa) = 29.09747 39.28524 34.19135
#
# Velocity S-wave (km/s) = 3.62455 4.21154 3.92902
# Velocity P-wave (km/s) = 6.32308 7.78476 7.09168
#
# Compressibility (1/GPa) = 0.02009773
#
# Stress axis : x y z
#
# Youngs Moduli (GPa) = 101.20126 128.24611 54.86523
#
# Poissons Ratio (x) = 0.41725 0.26095
# Poissons Ratio (y) = 0.32926 -0.00581
# Poissons Ratio (z) = 0.48134 -0.01359
#
# Static dielectric constant tensor:
#      x y z
#    x 1.808790 0.000000 0.013550 
#    y 0.000000 1.798750 0.000000 
#    z 0.013550 0.000000 1.856520 
# 
# From -- ./inp_files/71873.got.cif
#   From: 2010.05.17/outbox.cif.g08.bks.cpg/sg15_36_cif.got.tgz:71873.got - 2010.06.03 18:47:42.
