data_PCOD9304324
_publ_section_title
;
Structure prediction by ZEFSAII (Michael W. Deem and Ramdas Pophale) SiO2 
 PCOD9304324
Probable space group: C 2/C
;
_chemical_formula_sum "Si O2"
_cell_formula_units_Z 64
_cell_length_a 15.591108
_cell_length_b 11.633195
_cell_length_c 27.839031
_cell_angle_alpha 90.000000
_cell_angle_beta 139.022685
_cell_angle_gamma 90.000000
_cell_volume 3311.121636
_symmetry_space_group_name_H-M "C 2/C"
_symmetry_group_IT_number 15
_symmetry_cell_setting 'monoclinic'
loop_
_space_group_symop_operation_xyz
x,y,z
-x,y,1/2-z
-x,-y,-z
x,-y,1/2+z
1/2+x,1/2+y,z
1/2-x,1/2+y,1/2-z
1/2-x,1/2-y,-z
1/2+x,1/2-y,1/2+z
loop_
_atom_site_type_symbol
_atom_site_label
_atom_site_fract_x
_atom_site_fract_y
_atom_site_fract_z
Si Si1 0.930937 0.536418 0.338739
Si Si2 0.554039 0.782175 0.196902
Si Si3 0.686173 0.176509 0.430908
Si Si4 0.286985 0.233599 0.636916
Si Si5 0.856685 0.851949 0.172036
Si Si6 0.346296 0.485759 0.929697
Si Si7 0.360602 0.035169 0.418961
Si Si8 0.774195 0.824841 0.810912
O O1 0.945675 0.416218 0.317345
O O2 0.872878 0.520375 0.366921
O O3 0.836746 0.618089 0.268506
O O4 0.069890 0.598485 0.401612
O O5 0.650529 0.764106 0.283110
O O6 0.409142 0.748433 0.152724
O O7 0.609109 0.714171 0.174505
O O8 0.750000 0.250000 0.500000
O O9 0.631029 0.262381 0.366642
O O10 0.788676 0.093233 0.447744
O O11 0.224498 0.108969 0.601527
O O12 0.180583 0.334182 0.587277
O O13 0.787080 0.781815 0.185774
O O14 0.000000 0.891473 0.250000
O O15 0.758569 0.953164 0.115412
O O16 0.317576 0.417876 0.868414
O O17 0.500000 0.500000 0.000000
O O18 0.500000 0.000000 0.500000
#
# Coordination Sequence:
#
# PCOD9304324 Si02
#       8
#     8   8   8   8   8   8   8   8
#     4  12  22  43  72  99 134 179 230 279 345 414
#     4  11  23  44  70 104 133 175 235 290 346 403
#     4  11  25  45  68 101 136 177 225 280 343 416
#     4  11  25  44  70 100 138 176 231 292 343 409
#     4  11  24  43  70  98 135 177 232 284 337 408
#     4  11  26  44  69  99 138 178 226 285 350 412
#     4  12  28  45  66  98 147 188 221 282 362 418
#     4  11  23  43  70 103 131 176 232 288 340 415
#
# _framework density 19.328799
#
# number of rings (size 3 to 8) (size 9 to 14) (size 15 to 20)
#    0.000    0.750    6.250    0.750    7.000    0.000 
#    6.750    1.250    0.000    0.000    0.000    0.000 
#    0.000    0.000    0.000    0.000    0.000    0.000 
#
# Total GULP energy -178966.217169 kJ/mol
# GULP energy per Si atom -5592.694287 kJ/mol
# Density = 1.928481 g / cm^3
# Si number density = 19.328799 Si / 1000 Ang^3
#
#
#
# Elastic Constant Matrix: (Units=GPa)
#
#
# Indices 1 2 3 4 5 6 
#
# 1 86.3034 42.0483 26.9967 0.0000 9.6563 0.0000
# 2 42.0483 123.4611 50.2337 0.0000 13.1294 0.0000
# 3 26.9967 50.2337 103.3829 0.0000 23.6086 0.0000
# 4 0.0000 0.0000 0.0000 33.7275 0.0000 13.1436
# 5 9.6563 13.1294 23.6086 0.0000 33.4654 0.0000
# 6 0.0000 0.0000 0.0000 13.1436 0.0000 29.2554
#
#
#
# Elastic Compliance Matrix: (Units=1/GPa)
#
#
# Indices 1 2 3 4 5 6 
#
# 1 0.014188 -0.004119 -0.001356 0.000000 -0.001521 0.000000
# 2 -0.004119 0.011301 -0.004380 0.000000 -0.000155 0.000000
# 3 -0.001356 -0.004380 0.013915 0.000000 -0.007707 0.000000
# 4 0.000000 0.000000 0.000000 0.035942 0.000000 -0.016148
# 5 -0.001521 -0.000155 -0.007707 0.000000 0.035818 0.000000
# 6 0.000000 0.000000 0.000000 -0.016148 0.000000 0.041436
#
#
# Mechanical properties :
#
#
# Convention : Reuss Voigt Hill
#
# Bulk Modulus (GPa) = 50.77656 61.30055 56.03856
# Shear Modulus (GPa) = 27.95219 32.21424 30.08322
#
# Velocity S-wave (km/s) = 3.80694 4.08688 3.94940
# Velocity P-wave (km/s) = 6.75653 7.35212 7.06061
#
# Compressibility (1/GPa) = 0.01969413
#
# Stress axis : x y z
#
# Youngs Moduli (GPa) = 70.48141 88.48646 71.86326
#
# Poissons Ratio (x) = 0.36443 0.09748
# Poissons Ratio (y) = 0.29028 0.31478
# Poissons Ratio (z) = 0.09560 0.38760
#
# Static dielectric constant tensor:
#      x y z
#    x 1.648470 0.000000 0.004950 
#    y 0.000000 1.658840 0.000000 
#    z 0.004950 0.000000 1.638700 
# 
# From -- ./inp_files/296168.got.cif
#   From: 2010.05.17/outbox.cif.g08.bks.cpg/sg15_149_cif.got.tgz:296168.got - 2010.06.03 18:47:42.
