data_PCOD9304571
_publ_section_title
;
Structure prediction by ZEFSAII (Michael W. Deem and Ramdas Pophale) SiO2 
 PCOD9304571
Probable space group: C 2/C
;
_chemical_formula_sum "Si O2"
_cell_formula_units_Z 60
_cell_length_a 11.542830
_cell_length_b 9.115564
_cell_length_c 24.488484
_cell_angle_alpha 90.000000
_cell_angle_beta 86.721418
_cell_angle_gamma 90.000000
_cell_volume 2572.446415
_symmetry_space_group_name_H-M "C 2/C"
_symmetry_group_IT_number 15
_symmetry_cell_setting 'monoclinic'
loop_
_space_group_symop_operation_xyz
x,y,z
-x,y,1/2-z
-x,-y,-z
x,-y,1/2+z
1/2+x,1/2+y,z
1/2-x,1/2+y,1/2-z
1/2-x,1/2-y,-z
1/2+x,1/2-y,1/2+z
loop_
_atom_site_type_symbol
_atom_site_label
_atom_site_fract_x
_atom_site_fract_y
_atom_site_fract_z
Si Si1 0.500000 0.925591 0.750000
Si Si2 0.081087 0.657373 0.046117
Si Si3 0.744258 0.684417 0.615368
Si Si4 0.106197 0.991978 0.211982
Si Si5 0.130889 0.679084 0.525991
Si Si6 0.332373 0.248487 0.852139
Si Si7 0.224548 0.433529 0.694351
Si Si8 0.401732 0.941748 0.639207
O O1 0.611772 0.849840 0.721000
O O2 0.441353 0.997670 0.697833
O O3 0.179734 0.770339 0.061976
O O4 0.133012 0.499320 0.027612
O O5 0.983797 0.713122 0.006518
O O6 0.008335 0.627353 0.103976
O O7 0.658515 0.596163 0.659170
O O8 0.851973 0.576532 0.605741
O O9 0.779652 0.830754 0.647187
O O10 0.199665 0.024209 0.256171
O O11 0.000000 0.932086 0.250000
O O12 0.082808 0.152399 0.186522
O O13 0.250000 0.750000 0.500000
O O14 0.123258 0.738006 0.587605
O O15 0.316470 0.085855 0.830180
O O16 0.204363 0.325829 0.853556
#
# Coordination Sequence:
#
# PCOD9304571 Si02
#       8
#     4   8   8   8   8   8   8   8
#     4  12  22  38  66  96 138 194 224 284 350 428
#     4  11  24  45  76 102 131 195 233 296 370 417
#     4  11  24  44  65 105 138 181 239 288 351 428
#     4  11  27  40  64 100 145 181 234 288 352 437
#     4  11  23  44  79 100 135 186 246 297 364 423
#     4  11  23  45  65 103 135 183 235 296 350 423
#     4  12  24  38  67  96 136 188 232 278 358 422
#     4  11  24  42  72  98 147 181 237 290 354 435
#
# _framework density 23.324100000000001
#
# number of rings (size 3 to 8) (size 9 to 14) (size 15 to 20)
#    0.000    0.800    6.667    0.800    3.733    1.067 
#    0.000    5.333    2.933    0.000    0.000    0.000 
#    0.000    0.000    0.000    0.000    0.000    0.000 
#
# Total GULP energy -167676.331052 kJ/mol
# GULP energy per Si atom -5589.211035 kJ/mol
# Density = 2.327101 g / cm^3
# Si number density = 23.324100 Si / 1000 Ang^3
#
#
#
# Elastic Constant Matrix: (Units=GPa)
#
#
# Indices 1 2 3 4 5 6 
#
# 1 88.3245 9.1790 33.4684 0.0000 21.1463 0.0000
# 2 9.1790 67.4350 19.7315 0.0000 5.7765 0.0000
# 3 33.4684 19.7315 147.5984 0.0000 39.7385 0.0000
# 4 0.0000 0.0000 0.0000 130.0693 0.0000 -47.0445
# 5 21.1463 5.7765 39.7385 0.0000 49.8841 0.0000
# 6 0.0000 0.0000 0.0000 -47.0445 0.0000 54.8577
#
#
#
# Elastic Compliance Matrix: (Units=1/GPa)
#
#
# Indices 1 2 3 4 5 6 
#
# 1 0.013045 -0.000918 -0.001750 0.000000 -0.004029 0.000000
# 2 -0.000918 0.015499 -0.001891 0.000000 0.000101 0.000000
# 3 -0.001750 -0.001891 0.009123 0.000000 -0.006306 0.000000
# 4 0.000000 0.000000 0.000000 0.011145 0.000000 0.009558
# 5 -0.004029 0.000101 -0.006306 0.000000 0.026766 0.000000
# 6 0.000000 0.000000 0.000000 0.009558 0.000000 0.026425
#
#
# Mechanical properties :
#
#
# Convention : Reuss Voigt Hill
#
# Bulk Modulus (GPa) = 35.02949 47.56838 41.29894
# Shear Modulus (GPa) = 41.44598 63.02749 52.23673
#
# Velocity S-wave (km/s) = 4.21997 5.20395 4.73758
# Velocity P-wave (km/s) = 6.22860 7.51977 6.90443
#
# Compressibility (1/GPa) = 0.02854738
#
# Stress axis : x y z
#
# Youngs Moduli (GPa) = 76.65602 64.52147 109.61647
#
# Poissons Ratio (x) = 0.05925 0.19188
# Poissons Ratio (y) = 0.07040 0.20727
# Poissons Ratio (z) = 0.13419 0.12200
#
# Static dielectric constant tensor:
#      x y z
#    x 2.017970 0.000000 0.133670 
#    y 0.000000 1.889900 0.000000 
#    z 0.133670 0.000000 2.081770 
# 
# From -- ./inp_files/310003.got.cif
#   From: 2010.05.17/outbox.cif.g08.bks.cpg/sg15_156_cif.got.tgz:310003.got - 2010.06.03 18:47:42.
