data_PCOD9304660
_publ_section_title
;
Structure prediction by ZEFSAII (Michael W. Deem and Ramdas Pophale) SiO2 
 PCOD9304660
Probable space group: C 2/C
;
_chemical_formula_sum "Si O2"
_cell_formula_units_Z 40
_cell_length_a 27.438380
_cell_length_b 8.516583
_cell_length_c 15.166359
_cell_angle_alpha 90.000000
_cell_angle_beta 151.062198
_cell_angle_gamma 90.000000
_cell_volume 1714.844707
_symmetry_space_group_name_H-M "C 2/C"
_symmetry_group_IT_number 15
_symmetry_cell_setting 'monoclinic'
loop_
_space_group_symop_operation_xyz
x,y,z
-x,y,1/2-z
-x,-y,-z
x,-y,1/2+z
1/2+x,1/2+y,z
1/2-x,1/2+y,1/2-z
1/2-x,1/2-y,-z
1/2+x,1/2-y,1/2+z
loop_
_atom_site_type_symbol
_atom_site_label
_atom_site_fract_x
_atom_site_fract_y
_atom_site_fract_z
Si Si1 0.382757 0.586802 0.531989
Si Si2 0.215983 0.591007 0.992552
Si Si3 0.896662 0.543181 0.035541
Si Si4 0.105370 0.926392 0.139003
Si Si5 0.657850 0.063465 0.237156
O O1 0.500000 0.560776 0.750000
O O2 0.374880 0.495274 0.426960
O O3 0.279498 0.540669 0.419028
O O4 0.367343 0.775191 0.503401
O O5 0.170780 0.587214 0.020018
O O6 0.250000 0.750000 0.000000
O O7 0.314485 0.488628 0.164236
O O8 0.139039 0.506098 0.804046
O O9 0.000000 0.524232 0.250000
O O10 0.892389 0.523194 0.924507
O O11 0.117919 0.740049 0.164243
O O12 0.000000 0.000000 0.000000
#
# Coordination Sequence:
#
# PCOD9304660 Si02
#       5
#     8   8   8   8   8
#     4  11  23  45  73 101 145 187 240 295 362 431
#     4  12  27  46  72 102 143 187 243 301 363 434
#     4  11  27  46  71 103 141 188 237 294 368 430
#     4  12  27  44  71 109 144 188 242 300 367 434
#     4  12  25  47  72 103 146 187 242 300 363 436
#
# _framework density 23.325727000000001
#
# number of rings (size 3 to 8) (size 9 to 14) (size 15 to 20)
#    0.000    0.400    4.000    3.000   11.200    1.600 
#    0.000    0.000    0.000    0.000    0.000    0.000 
#    0.000    0.000    0.000    0.000    0.000    0.000 
#
# Total GULP energy -111722.347122 kJ/mol
# GULP energy per Si atom -5586.117356 kJ/mol
# Density = 2.327264 g / cm^3
# Si number density = 23.325727 Si / 1000 Ang^3
#
#
#
# Elastic Constant Matrix: (Units=GPa)
#
#
# Indices 1 2 3 4 5 6 
#
# 1 58.6774 11.1575 9.3385 0.0000 -18.1164 0.0000
# 2 11.1575 62.9702 21.9123 0.0000 -11.1701 0.0000
# 3 9.3385 21.9123 120.5497 0.0000 -34.6088 0.0000
# 4 0.0000 0.0000 0.0000 37.0391 0.0000 -7.9506
# 5 -18.1164 -11.1701 -34.6088 0.0000 41.8072 0.0000
# 6 0.0000 0.0000 0.0000 -7.9506 0.0000 27.2067
#
#
#
# Elastic Compliance Matrix: (Units=1/GPa)
#
#
# Indices 1 2 3 4 5 6 
#
# 1 0.020156 -0.002456 0.001580 0.000000 0.009385 0.000000
# 2 -0.002456 0.017470 -0.002559 0.000000 0.001485 0.000000
# 3 0.001580 -0.002559 0.011331 0.000000 0.009381 0.000000
# 4 0.000000 0.000000 0.000000 0.028805 0.000000 0.008418
# 5 0.009385 0.001485 0.009381 0.000000 0.036149 0.000000
# 6 0.000000 0.000000 0.000000 0.008418 0.000000 0.039216
#
#
# Mechanical properties :
#
#
# Convention : Reuss Voigt Hill
#
# Bulk Modulus (GPa) = 23.76098 36.33486 30.04792
# Shear Modulus (GPa) = 28.73134 34.52986 31.63060
#
# Velocity S-wave (km/s) = 3.51343 3.85168 3.68644
# Velocity P-wave (km/s) = 5.16407 5.94908 5.57042
#
# Compressibility (1/GPa) = 0.04208580
#
# Stress axis : x y z
#
# Youngs Moduli (GPa) = 49.61375 57.24240 88.25089
#
# Poissons Ratio (x) = 0.14059 -0.13940
# Poissons Ratio (y) = 0.12186 0.22582
# Poissons Ratio (z) = -0.07837 0.14647
#
# Static dielectric constant tensor:
#      x y z
#    x 1.998750 0.000000 0.044940 
#    y 0.000000 1.727720 0.000000 
#    z 0.044940 0.000000 1.885910 
# 
# From -- ./inp_files/181286.got.cif
#   From: 2010.05.17/outbox.cif.g08.bks.cpg/sg15_91_cif.got.tgz:181286.got - 2010.06.03 18:47:42.
