data_PCOD9304981
_publ_section_title
;
Structure prediction by ZEFSAII (Michael W. Deem and Ramdas Pophale) SiO2 
 PCOD9304981
Probable space group: C 2/C
;
_chemical_formula_sum "Si O2"
_cell_formula_units_Z 44
_cell_length_a 18.710996
_cell_length_b 17.337217
_cell_length_c 16.493688
_cell_angle_alpha 90.000000
_cell_angle_beta 25.516012
_cell_angle_gamma 90.000000
_cell_volume 2304.797530
_symmetry_space_group_name_H-M "C 2/C"
_symmetry_group_IT_number 15
_symmetry_cell_setting 'monoclinic'
loop_
_space_group_symop_operation_xyz
x,y,z
-x,y,1/2-z
-x,-y,-z
x,-y,1/2+z
1/2+x,1/2+y,z
1/2-x,1/2+y,1/2-z
1/2-x,1/2-y,-z
1/2+x,1/2-y,1/2+z
loop_
_atom_site_type_symbol
_atom_site_label
_atom_site_fract_x
_atom_site_fract_y
_atom_site_fract_z
Si Si1 0.880864 0.778609 0.932152
Si Si2 0.697862 0.704505 0.636442
Si Si3 0.407452 0.145858 0.697400
Si Si4 0.854873 0.480914 0.832603
Si Si5 0.523617 0.844433 0.895095
Si Si6 0.000000 0.078000 0.750000
O O1 0.000000 0.826969 0.750000
O O2 0.975791 0.706252 0.873921
O O3 0.750000 0.750000 0.000000
O O4 0.780073 0.821878 0.104322
O O5 0.750000 0.750000 0.500000
O O6 0.626984 0.767043 0.771469
O O7 0.563803 0.638458 0.753282
O O8 0.859251 0.665808 0.509105
O O9 0.473018 0.142829 0.539326
O O10 0.396842 0.064153 0.752749
O O11 0.875292 0.416382 0.742823
O O12 0.000000 0.465666 0.750000
O O13 0.665952 0.470506 0.058493
#
# Coordination Sequence:
#
# PCOD9304981 Si02
#       6
#     8   8   8   8   8   4
#     4   9  19  40  62  85 114 166 226 260 309 393
#     4  12  20  39  67  97 127 174 224 263 319 404
#     4  11  24  40  64  97 130 171 214 284 342 378
#     4  12  24  43  66  94 133 180 222 266 328 406
#     4  12  22  39  64  98 139 166 213 282 339 385
#     4  12  24  40  68 102 122 172 232 264 314 390
#
# _framework density 19.090615
#
# number of rings (size 3 to 8) (size 9 to 14) (size 15 to 20)
#    0.000    0.727    5.455    3.273    1.273    0.000 
#    0.000    0.909    0.000    0.000    0.000    0.000 
#    0.000    0.000    0.000    0.000    0.000    0.000 
#
# Total GULP energy -122718.717992 kJ/mol
# GULP energy per Si atom -5578.123545 kJ/mol
# Density = 1.904716 g / cm^3
# Si number density = 19.090615 Si / 1000 Ang^3
#
#
#
# Elastic Constant Matrix: (Units=GPa)
#
#
# Indices 1 2 3 4 5 6 
#
# 1 69.4277 25.4952 50.7882 0.0016 7.4430 -0.0015
# 2 25.4952 99.0153 52.1716 0.0022 12.4285 -0.0020
# 3 50.7882 52.1716 161.0510 0.0030 17.5823 -0.0019
# 4 0.0016 0.0022 0.0030 37.9744 -0.0019 -1.6826
# 5 7.4430 12.4285 17.5823 -0.0019 38.3359 0.0012
# 6 -0.0015 -0.0020 -0.0019 -1.6826 0.0012 18.4305
#
#
#
# Elastic Compliance Matrix: (Units=1/GPa)
#
#
# Indices 1 2 3 4 5 6 
#
# 1 0.019092 -0.002052 -0.005289 0.000000 -0.000616 0.000001
# 2 -0.002052 0.012586 -0.003188 0.000000 -0.002220 0.000001
# 3 -0.005289 -0.003188 0.009143 0.000000 -0.002133 0.000000
# 4 0.000000 0.000000 0.000000 0.026440 0.000002 0.002414
# 5 -0.000616 -0.002220 -0.002133 0.000002 0.027903 -0.000002
# 6 0.000001 0.000001 0.000000 0.002414 -0.000002 0.054478
#
#
# Mechanical properties :
#
#
# Convention : Reuss Voigt Hill
#
# Bulk Modulus (GPa) = 50.59805 65.15603 57.87704
# Shear Modulus (GPa) = 28.20287 32.35074 30.27681
#
# Velocity S-wave (km/s) = 3.84776 4.12100 3.98672
# Velocity P-wave (km/s) = 6.80456 7.53973 7.18156
#
# Compressibility (1/GPa) = 0.01976361
#
# Stress axis : x y z
#
# Youngs Moduli (GPa) = 52.37828 79.45276 109.37873
#
# Poissons Ratio (x) = 0.16303 0.57848
# Poissons Ratio (y) = 0.10748 0.34867
# Poissons Ratio (z) = 0.27702 0.25327
#
# Static dielectric constant tensor:
#      x y z
#    x 1.642210 0.000000 -0.016040 
#    y 0.000000 1.674580 0.000000 
#    z -0.016040 0.000000 1.732500 
# 
# From -- ./inp_files/56299.got.cif
#   From: 2010.05.17/outbox.cif.g08.bks.cpg/sg15_29_cif.got.tgz:56299.got - 2010.06.03 18:47:42.
