data_PCOD9304064
_publ_section_title
;
Structure prediction by ZEFSAII (Michael W. Deem and Ramdas Pophale) SiO2 
 PCOD9304064
Probable space group: C 2/C
;
_chemical_formula_sum "Si O2"
_cell_formula_units_Z 64
_cell_length_a 12.539532
_cell_length_b 26.098984
_cell_length_c 15.426325
_cell_angle_alpha 90.000000
_cell_angle_beta 38.340251
_cell_angle_gamma 90.000000
_cell_volume 3131.773368
_symmetry_space_group_name_H-M "C 2/C"
_symmetry_group_IT_number 15
_symmetry_cell_setting 'monoclinic'
loop_
_space_group_symop_operation_xyz
x,y,z
-x,y,1/2-z
-x,-y,-z
x,-y,1/2+z
1/2+x,1/2+y,z
1/2-x,1/2+y,1/2-z
1/2-x,1/2-y,-z
1/2+x,1/2-y,1/2+z
loop_
_atom_site_type_symbol
_atom_site_label
_atom_site_fract_x
_atom_site_fract_y
_atom_site_fract_z
Si Si1 0.078312 0.943377 0.442631
Si Si2 0.540743 0.735778 0.319296
Si Si3 0.421476 0.924418 0.573854
Si Si4 0.702947 0.159962 0.932842
Si Si5 0.063285 0.746957 0.437610
Si Si6 0.956732 0.476812 0.173685
Si Si7 0.044017 0.884471 0.816382
Si Si8 0.476774 0.651766 0.902671
O O1 0.274545 0.948248 0.289763
O O2 0.059026 0.915667 0.546654
O O3 0.985457 0.905179 0.435350
O O4 0.000000 0.000000 0.500000
O O5 0.500000 0.756407 0.250000
O O6 0.433277 0.763461 0.461843
O O7 0.499567 0.675462 0.346120
O O8 0.740814 0.741892 0.216836
O O9 0.585827 0.888708 0.484851
O O10 0.425099 0.946372 0.472297
O O11 0.247104 0.892891 0.700400
O O12 0.430268 0.969277 0.640433
O O13 0.573267 0.207826 0.014959
O O14 0.802418 0.157231 0.960121
O O15 0.858138 0.161848 0.764305
O O16 0.994755 0.804159 0.463225
O O17 0.000000 0.481633 0.250000
O O18 0.000000 0.905205 0.750000
#
# Coordination Sequence:
#
# PCOD9304064 Si02
#       8
#     8   8   8   8   8   8   8   8
#     4  12  24  44  65  96 132 170 216 273 327 392
#     4  11  24  40  66  98 132 174 216 264 324 393
#     4  11  23  44  65  97 131 168 220 274 322 391
#     4  11  24  43  69  97 133 175 216 275 335 391
#     4  12  22  45  68  97 136 169 221 273 326 396
#     4  11  25  43  66  95 131 171 220 270 329 392
#     4  11  23  42  65  94 131 169 216 265 326 391
#     4  11  25  44  66  98 132 176 219 269 337 395
#
# _framework density 20.435706
#
# number of rings (size 3 to 8) (size 9 to 14) (size 15 to 20)
#    0.000    0.750    6.250    1.500    1.750    0.000 
#    2.250    2.500    0.000    0.000    0.000    0.000 
#    0.000    0.000    0.000    0.000    0.000    0.000 
#
# Total GULP energy -178712.448490 kJ/mol
# GULP energy per Si atom -5584.764015 kJ/mol
# Density = 2.038919 g / cm^3
# Si number density = 20.435706 Si / 1000 Ang^3
#
#
#
# Elastic Constant Matrix: (Units=GPa)
#
#
# Indices 1 2 3 4 5 6 
#
# 1 84.7732 30.0451 9.4815 0.0000 10.7352 -0.0002
# 2 30.0451 47.6741 -1.9261 -0.0001 2.8858 0.0001
# 3 9.4815 -1.9261 62.6428 0.0001 3.4592 -0.0002
# 4 0.0000 -0.0001 0.0001 20.3571 -0.0001 4.7884
# 5 10.7352 2.8858 3.4592 -0.0001 33.0585 0.0002
# 6 -0.0002 0.0001 -0.0002 4.7884 0.0002 23.7737
#
#
#
# Elastic Compliance Matrix: (Units=1/GPa)
#
#
# Indices 1 2 3 4 5 6 
#
# 1 0.016155 -0.010035 -0.002527 0.000000 -0.004106 0.000000
# 2 -0.010035 0.027356 0.002325 0.000000 0.000627 0.000000
# 3 -0.002527 0.002325 0.016479 0.000000 -0.001107 0.000000
# 4 0.000000 0.000000 0.000000 0.051566 0.000000 -0.010386
# 5 -0.004106 0.000627 -0.001107 0.000000 0.031644 0.000000
# 6 0.000000 0.000000 0.000000 -0.010386 0.000000 0.044155
#
#
# Mechanical properties :
#
#
# Convention : Reuss Voigt Hill
#
# Bulk Modulus (GPa) = 25.30582 30.03234 27.66908
# Shear Modulus (GPa) = 22.62441 25.93717 24.28079
#
# Velocity S-wave (km/s) = 3.33092 3.56646 3.45070
# Velocity P-wave (km/s) = 5.21569 5.62916 5.42636
#
# Compressibility (1/GPa) = 0.03951660
#
# Stress axis : x y z
#
# Youngs Moduli (GPa) = 61.89915 36.55510 60.68461
#
# Poissons Ratio (x) = 0.36683 0.15335
# Poissons Ratio (y) = 0.62116 -0.14111
# Poissons Ratio (z) = 0.15642 -0.08500
#
# Static dielectric constant tensor:
#      x y z
#    x 1.737100 0.000000 0.024510 
#    y 0.000000 1.710140 0.000000 
#    z 0.024510 0.000000 1.749390 
# 
# From -- ./inp_files/148739.got.cif
#   From: 2010.05.17/outbox.cif.g08.bks.cpg/sg15_75_cif.got.tgz:148739.got - 2010.06.03 18:47:42.
