data_PCOD9304825
_publ_section_title
;
Structure prediction by ZEFSAII (Michael W. Deem and Ramdas Pophale) SiO2 
 PCOD9304825
Probable space group: C 2/C
;
_chemical_formula_sum "Si O2"
_cell_formula_units_Z 52
_cell_length_a 26.280602
_cell_length_b 6.690831
_cell_length_c 17.275381
_cell_angle_alpha 90.000000
_cell_angle_beta 125.390837
_cell_angle_gamma 90.000000
_cell_volume 2476.384386
_symmetry_space_group_name_H-M "C 2/C"
_symmetry_group_IT_number 15
_symmetry_cell_setting 'monoclinic'
loop_
_space_group_symop_operation_xyz
x,y,z
-x,y,1/2-z
-x,-y,-z
x,-y,1/2+z
1/2+x,1/2+y,z
1/2-x,1/2+y,1/2-z
1/2-x,1/2-y,-z
1/2+x,1/2-y,1/2+z
loop_
_atom_site_type_symbol
_atom_site_label
_atom_site_fract_x
_atom_site_fract_y
_atom_site_fract_z
Si Si1 0.303123 0.152159 0.711247
Si Si2 0.565754 0.018531 0.950628
Si Si3 0.024450 0.203754 0.557570
Si Si4 0.296727 0.985560 0.874863
Si Si5 0.000000 0.262641 0.250000
Si Si6 0.602345 0.505198 0.251680
Si Si7 0.706114 0.238839 0.388298
O O1 0.237366 0.270969 0.649668
O O2 0.355393 0.320942 0.747913
O O3 0.311987 0.039454 0.800021
O O4 0.307741 0.986329 0.648916
O O5 0.529907 0.816268 0.942941
O O6 0.537844 0.105026 0.846196
O O7 0.548212 0.164529 0.006879
O O8 0.640588 0.001274 0.019000
O O9 0.078409 0.145138 0.664864
O O10 0.000000 0.000000 0.500000
O O11 0.246293 0.150289 0.857175
O O12 0.046613 0.118733 0.244523
O O13 0.644581 0.371637 0.345370
O O14 0.750000 0.250000 0.500000
#
# Coordination Sequence:
#
# PCOD9304825 Si02
#       7
#     8   8   8   8   4   8   8
#     4  11  24  46  71 105 138 180 240 286 352 417
#     4  11  27  42  72 102 142 181 239 289 352 421
#     4  11  23  47  70 101 134 189 236 287 346 415
#     4  11  24  43  73 103 133 185 229 288 344 428
#     4  12  28  48  66 108 142 194 228 294 358 422
#     4  11  27  46  71  99 144 183 237 290 347 428
#     4  11  27  44  70 103 140 183 225 296 357 410
#
# _framework density 20.998353999999999
#
# number of rings (size 3 to 8) (size 9 to 14) (size 15 to 20)
#    0.000    0.923    3.077    1.846   10.769    4.308 
#    0.000    0.000    0.000    0.000    0.000    0.000 
#    0.000    0.000    0.000    0.000    0.000    0.000 
#
# Total GULP energy -145473.439907 kJ/mol
# GULP energy per Si atom -5595.132304 kJ/mol
# Density = 2.095056 g / cm^3
# Si number density = 20.998354 Si / 1000 Ang^3
#
#
#
# Elastic Constant Matrix: (Units=GPa)
#
#
# Indices 1 2 3 4 5 6 
#
# 1 67.8308 26.7663 17.8859 0.0000 16.1999 0.0000
# 2 26.7663 110.8490 31.0633 0.0000 12.0173 0.0000
# 3 17.8859 31.0633 120.8461 0.0000 13.4041 0.0000
# 4 0.0000 0.0000 0.0000 38.0022 0.0000 11.5731
# 5 16.1999 12.0173 13.4041 0.0000 35.9714 0.0000
# 6 0.0000 0.0000 0.0000 11.5731 0.0000 22.5897
#
#
#
# Elastic Compliance Matrix: (Units=1/GPa)
#
#
# Indices 1 2 3 4 5 6 
#
# 1 0.017897 -0.003311 -0.001071 0.000000 -0.006555 0.000000
# 2 -0.003311 0.010540 -0.002080 0.000000 -0.001255 0.000000
# 3 -0.001071 -0.002080 0.009219 0.000000 -0.002258 0.000000
# 4 0.000000 0.000000 0.000000 0.031179 0.000000 -0.015973
# 5 -0.006555 -0.001255 -0.002258 0.000000 0.032013 0.000000
# 6 0.000000 0.000000 0.000000 -0.015973 0.000000 0.052451
#
#
# Mechanical properties :
#
#
# Convention : Reuss Voigt Hill
#
# Bulk Modulus (GPa) = 40.43340 50.10634 45.26987
# Shear Modulus (GPa) = 28.65904 34.23334 31.44619
#
# Velocity S-wave (km/s) = 3.69836 4.04206 3.87402
# Velocity P-wave (km/s) = 6.12654 6.76004 6.45107
#
# Compressibility (1/GPa) = 0.02473203
#
# Stress axis : x y z
#
# Youngs Moduli (GPa) = 55.87578 94.87975 108.47660
#
# Poissons Ratio (x) = 0.31413 0.11615
# Poissons Ratio (y) = 0.18499 0.22563
# Poissons Ratio (z) = 0.05983 0.19735
#
# Static dielectric constant tensor:
#      x y z
#    x 1.770270 0.000000 -0.061700 
#    y 0.000000 1.731400 0.000000 
#    z -0.061700 0.000000 1.200500 
# 
# From -- ./inp_files/221356.got.cif
#   From: 2010.05.17/outbox.cif.g08.bks.cpg/sg15_111_cif.got.tgz:221356.got - 2010.06.03 18:47:42.
