data_PCOD9304878
_publ_section_title
;
Structure prediction by ZEFSAII (Michael W. Deem and Ramdas Pophale) SiO2 
 PCOD9304878
Probable space group: C 2/C
;
_chemical_formula_sum "Si O2"
_cell_formula_units_Z 52
_cell_length_a 14.057475
_cell_length_b 19.612625
_cell_length_c 14.445792
_cell_angle_alpha 90.000000
_cell_angle_beta 138.877386
_cell_angle_gamma 90.000000
_cell_volume 2619.353792
_symmetry_space_group_name_H-M "C 2/C"
_symmetry_group_IT_number 15
_symmetry_cell_setting 'monoclinic'
loop_
_space_group_symop_operation_xyz
x,y,z
-x,y,1/2-z
-x,-y,-z
x,-y,1/2+z
1/2+x,1/2+y,z
1/2-x,1/2+y,1/2-z
1/2-x,1/2-y,-z
1/2+x,1/2-y,1/2+z
loop_
_atom_site_type_symbol
_atom_site_label
_atom_site_fract_x
_atom_site_fract_y
_atom_site_fract_z
Si Si1 0.384216 0.515714 0.835083
Si Si2 0.000000 0.076440 0.250000
Si Si3 0.500000 0.103693 0.750000
Si Si4 0.586612 0.321918 0.133332
Si Si5 0.445159 0.006788 0.357504
Si Si6 0.000000 0.614786 0.250000
Si Si7 0.749662 0.720661 0.102435
Si Si8 0.294746 0.679757 0.984972
O O1 0.425432 0.472232 0.773296
O O2 0.387904 0.597994 0.822532
O O3 0.228816 0.492597 0.761987
O O4 0.500000 0.500000 0.000000
O O5 0.111192 0.127540 0.383737
O O6 0.643377 0.145695 0.853419
O O7 0.504264 0.058002 0.662569
O O8 0.681607 0.273823 0.272299
O O9 0.632204 0.309791 0.060781
O O10 0.415848 0.303315 0.006446
O O11 0.517825 0.067918 0.353453
O O12 0.500000 0.000000 0.500000
O O13 0.862090 0.658921 0.176537
O O14 0.750000 0.750000 0.000000
O O15 0.250000 0.750000 0.000000
#
# Coordination Sequence:
#
# PCOD9304878 Si02
#       8
#     8   4   4   8   8   4   8   8
#     4  12  25  48  75 106 148 189 247 302 367 439
#     4  12  27  47  73 111 142 192 246 302 366 433
#     4  11  23  48  64 105 143 174 244 288 359 425
#     4  12  28  48  77 108 147 199 244 305 372 434
#     4  11  25  43  75 102 138 189 235 297 358 425
#     4  11  26  45  73 108 147 182 242 296 357 434
#     4  12  27  49  71 110 149 191 246 296 366 442
#     4  12  28  46  73 104 145 191 241 300 361 436
#
# _framework density 19.852225000000001
#
# number of rings (size 3 to 8) (size 9 to 14) (size 15 to 20)
#    0.000    0.308    4.615    2.308    8.615    3.692 
#    0.000    0.000    0.000    0.000    0.000    0.000 
#    0.000    0.000    0.000    0.000    0.000    0.000 
#
# Total GULP energy -145239.272869 kJ/mol
# GULP energy per Si atom -5586.125880 kJ/mol
# Density = 1.980704 g / cm^3
# Si number density = 19.852225 Si / 1000 Ang^3
#
#
#
# Elastic Constant Matrix: (Units=GPa)
#
#
# Indices 1 2 3 4 5 6 
#
# 1 176.0458 65.6007 50.3712 0.0000 -11.2860 0.0000
# 2 65.6007 143.4105 40.1169 0.0000 -19.1939 0.0000
# 3 50.3712 40.1169 102.6203 0.0001 -11.6408 0.0000
# 4 0.0000 0.0000 0.0001 50.5388 0.0000 0.6678
# 5 -11.2860 -19.1939 -11.6408 0.0000 48.8795 0.0000
# 6 0.0000 0.0000 0.0000 0.6678 0.0000 39.0042
#
#
#
# Elastic Compliance Matrix: (Units=1/GPa)
#
#
# Indices 1 2 3 4 5 6 
#
# 1 0.007417 -0.002660 -0.002595 0.000000 0.000050 0.000000
# 2 -0.002660 0.009070 -0.001958 0.000000 0.002481 0.000000
# 3 -0.002595 -0.001958 0.011952 0.000000 0.001478 0.000000
# 4 0.000000 0.000000 0.000000 0.019791 0.000000 -0.000339
# 5 0.000050 0.002481 0.001478 0.000000 0.021796 0.000000
# 6 0.000000 0.000000 0.000000 -0.000339 0.000000 0.025644
#
#
# Mechanical properties :
#
#
# Convention : Reuss Voigt Hill
#
# Bulk Modulus (GPa) = 71.37155 81.58381 76.47768
# Shear Modulus (GPa) = 43.56593 45.41704 44.49149
#
# Velocity S-wave (km/s) = 4.68964 4.78824 4.73920
# Velocity P-wave (km/s) = 8.08413 8.47080 8.27972
#
# Compressibility (1/GPa) = 0.01401118
#
# Stress axis : x y z
#
# Youngs Moduli (GPa) = 134.81784 110.25644 83.66973
#
# Poissons Ratio (x) = 0.29332 0.21714
# Poissons Ratio (y) = 0.35866 0.16386
# Poissons Ratio (z) = 0.34988 0.21592
#
# Static dielectric constant tensor:
#      x y z
#    x 1.883690 0.000000 0.367800 
#    y 0.000000 1.696770 0.000000 
#    z 0.367800 0.000000 2.311430 
# 
# From -- ./inp_files/155567.got.cif
#   From: 2010.05.17/outbox.cif.g08.bks.cpg/sg15_78_cif.got.tgz:155567.got - 2010.06.03 18:47:42.
