data_PCOD9304712
_publ_section_title
;
Structure prediction by ZEFSAII (Michael W. Deem and Ramdas Pophale) SiO2 
 PCOD9304712
Probable space group: C 2/C
;
_chemical_formula_sum "Si O2"
_cell_formula_units_Z 56
_cell_length_a 11.014359
_cell_length_b 11.062696
_cell_length_c 18.308473
_cell_angle_alpha 90.000000
_cell_angle_beta 98.634884
_cell_angle_gamma 90.000000
_cell_volume 2205.573615
_symmetry_space_group_name_H-M "C 2/C"
_symmetry_group_IT_number 15
_symmetry_cell_setting 'monoclinic'
loop_
_space_group_symop_operation_xyz
x,y,z
-x,y,1/2-z
-x,-y,-z
x,-y,1/2+z
1/2+x,1/2+y,z
1/2-x,1/2+y,1/2-z
1/2-x,1/2-y,-z
1/2+x,1/2-y,1/2+z
loop_
_atom_site_type_symbol
_atom_site_label
_atom_site_fract_x
_atom_site_fract_y
_atom_site_fract_z
Si Si1 0.350603 0.578519 0.573830
Si Si2 0.386726 0.926712 0.523171
Si Si3 0.337501 0.175799 0.562793
Si Si4 0.515227 0.232147 0.335240
Si Si5 0.133134 0.079780 0.218570
Si Si6 0.993606 0.131388 0.438648
Si Si7 0.246516 0.179205 0.708995
O O1 0.214580 0.623800 0.542221
O O2 0.398705 0.650377 0.648639
O O3 0.442241 0.607981 0.514547
O O4 0.382829 0.436539 0.581336
O O5 0.432996 0.853850 0.597461
O O6 0.500000 0.000000 0.500000
O O7 0.305769 0.037946 0.545906
O O8 0.250000 0.250000 0.500000
O O9 0.471200 0.228498 0.555553
O O10 0.338816 0.179147 0.650046
O O11 0.500000 0.188968 0.250000
O O12 0.379656 0.277742 0.340987
O O13 0.102376 0.089677 0.130068
O O14 0.205861 0.205333 0.240618
O O15 0.000000 0.075738 0.250000
O O16 0.215741 0.956847 0.235736
#
# Coordination Sequence:
#
# PCOD9304712 Si02
#       7
#     8   8   8   8   8   8   8
#     4  11  24  48  80 110 150 211 269 331 409 502
#     4  12  27  48  79 118 158 208 277 343 413 499
#     4  12  24  46  76 111 152 207 270 339 407 495
#     4  12  29  50  74 117 161 206 263 345 422 493
#     4  12  27  53  76 121 160 228 275 347 427 505
#     4  11  23  45  81 107 151 206 278 323 409 489
#     4  12  28  50  81 112 172 211 280 341 428 504
#
# _framework density 25.390221
#
# number of rings (size 3 to 8) (size 9 to 14) (size 15 to 20)
#    0.000    0.286    4.286    4.286    4.000    1.143 
#    0.000    0.000    0.000    0.000    0.000    0.000 
#    0.000    0.000    0.000    0.000    0.000    0.000 
#
# Total GULP energy -156230.907140 kJ/mol
# GULP energy per Si atom -5579.675255 kJ/mol
# Density = 2.533243 g / cm^3
# Si number density = 25.390221 Si / 1000 Ang^3
#
#
#
# Elastic Constant Matrix: (Units=GPa)
#
#
# Indices 1 2 3 4 5 6 
#
# 1 73.4051 8.8595 4.9465 0.0000 20.5784 0.0000
# 2 8.8595 129.7595 24.3400 0.0000 18.6515 0.0000
# 3 4.9465 24.3400 102.6119 0.0000 18.9528 0.0000
# 4 0.0000 0.0000 0.0000 43.1602 0.0000 16.0113
# 5 20.5784 18.6515 18.9528 0.0000 40.0011 0.0000
# 6 0.0000 0.0000 0.0000 16.0113 0.0000 39.0968
#
#
#
# Elastic Compliance Matrix: (Units=1/GPa)
#
#
# Indices 1 2 3 4 5 6 
#
# 1 0.015982 -0.000008 0.000821 0.000000 -0.008607 0.000000
# 2 -0.000008 0.008439 -0.001398 0.000000 -0.003269 0.000000
# 3 0.000821 -0.001398 0.010954 0.000000 -0.004961 0.000000
# 4 0.000000 0.000000 0.000000 0.027320 0.000000 -0.011188
# 5 -0.008607 -0.003269 -0.004961 0.000000 0.033302 0.000000
# 6 0.000000 0.000000 0.000000 -0.011188 0.000000 0.030160
#
#
# Mechanical properties :
#
#
# Convention : Reuss Voigt Hill
#
# Bulk Modulus (GPa) = 29.23517 42.45206 35.84361
# Shear Modulus (GPa) = 36.04216 42.29364 39.16790
#
# Velocity S-wave (km/s) = 3.77175 4.08578 3.93190
# Velocity P-wave (km/s) = 5.52336 6.24614 5.89584
#
# Compressibility (1/GPa) = 0.03420538
#
# Stress axis : x y z
#
# Youngs Moduli (GPa) = 62.57212 118.49583 91.29360
#
# Poissons Ratio (x) = 0.00095 -0.07497
# Poissons Ratio (y) = 0.00050 0.12760
# Poissons Ratio (z) = -0.05139 0.16562
#
# Static dielectric constant tensor:
#      x y z
#    x 2.168950 0.000000 -0.087910 
#    y 0.000000 1.994610 0.000000 
#    z -0.087910 0.000000 2.106730 
# 
# From -- ./inp_files/237651.got.cif
#   From: 2010.05.17/outbox.cif.g08.bks.cpg/sg15_119_cif.got.tgz:237651.got - 2010.06.03 18:47:42.
