data_PCOD9304427
_publ_section_title
;
Structure prediction by ZEFSAII (Michael W. Deem and Ramdas Pophale) SiO2 
 PCOD9304427
Probable space group: C 2/C
;
_chemical_formula_sum "Si O2"
_cell_formula_units_Z 36
_cell_length_a 17.505803
_cell_length_b 8.124574
_cell_length_c 31.416266
_cell_angle_alpha 90.000000
_cell_angle_beta 155.882133
_cell_angle_gamma 90.000000
_cell_volume 1825.793301
_symmetry_space_group_name_H-M "C 2/C"
_symmetry_group_IT_number 15
_symmetry_cell_setting 'monoclinic'
loop_
_space_group_symop_operation_xyz
x,y,z
-x,y,1/2-z
-x,-y,-z
x,-y,1/2+z
1/2+x,1/2+y,z
1/2-x,1/2+y,1/2-z
1/2-x,1/2-y,-z
1/2+x,1/2-y,1/2+z
loop_
_atom_site_type_symbol
_atom_site_label
_atom_site_fract_x
_atom_site_fract_y
_atom_site_fract_z
Si Si1 0.384916 0.581165 0.479317
Si Si2 0.500000 0.205510 0.250000
Si Si3 0.649029 0.610437 0.743414
Si Si4 0.173704 0.931868 0.962209
Si Si5 0.976105 0.366729 0.892397
O O1 0.500000 0.500000 0.500000
O O2 0.168359 0.602954 0.356569
O O3 0.398840 0.466579 0.527539
O O4 0.466598 0.754855 0.538044
O O5 0.400093 0.310696 0.236264
O O6 0.493696 0.471359 0.654855
O O7 0.845697 0.518554 0.839399
O O8 0.622466 0.749168 0.693047
O O9 0.250000 0.750000 0.000000
O O10 0.337291 0.060875 0.034140
#
# Coordination Sequence:
#
# PCOD9304427 Si02
#       5
#     8   4   8   8   8
#     4  11  26  43  68 100 137 173 219 281 337 400
#     4  12  24  44  66  94 138 170 214 280 330 390
#     4  11  24  41  69  94 132 176 220 277 334 399
#     4  11  23  44  66  97 132 175 224 280 333 400
#     4  11  23  45  65  99 131 178 227 268 341 403
#
# _framework density 19.717455999999999
#
# number of rings (size 3 to 8) (size 9 to 14) (size 15 to 20)
#    0.000    0.889    4.444    2.667    9.333    4.444 
#    0.000    0.000    0.000    0.000    0.000    0.000 
#    0.000    0.000    0.000    0.000    0.000    0.000 
#
# Total GULP energy -100632.682799 kJ/mol
# GULP energy per Si atom -5590.704600 kJ/mol
# Density = 1.967258 g / cm^3
# Si number density = 19.717456 Si / 1000 Ang^3
#
#
#
# Elastic Constant Matrix: (Units=GPa)
#
#
# Indices 1 2 3 4 5 6 
#
# 1 102.8973 18.0815 -5.2523 0.0007 4.9917 -0.0002
# 2 18.0815 56.3876 -12.5758 0.0008 1.7588 -0.0003
# 3 -5.2523 -12.5758 37.5218 0.0030 -0.1455 -0.0010
# 4 0.0007 0.0008 0.0030 32.1914 0.0001 17.2454
# 5 4.9917 1.7588 -0.1455 0.0001 32.2361 0.0000
# 6 -0.0002 -0.0003 -0.0010 17.2454 0.0000 36.8968
#
#
#
# Elastic Compliance Matrix: (Units=1/GPa)
#
#
# Indices 1 2 3 4 5 6 
#
# 1 0.010369 -0.003197 0.000374 0.000000 -0.001429 0.000000
# 2 -0.003197 0.020186 0.006316 -0.000002 -0.000578 0.000001
# 3 0.000374 0.006316 0.028819 -0.000004 -0.000272 0.000003
# 4 0.000000 -0.000002 -0.000004 0.041440 0.000000 -0.019369
# 5 -0.001429 -0.000578 -0.000272 0.000000 0.031273 0.000000
# 6 0.000000 0.000001 0.000003 -0.019369 0.000000 0.036156
#
#
# Mechanical properties :
#
#
# Convention : Reuss Voigt Hill
#
# Bulk Modulus (GPa) = 15.06907 21.92372 18.49640
# Shear Modulus (GPa) = 27.26635 33.36842 30.31739
#
# Velocity S-wave (km/s) = 3.72271 4.11826 3.92547
# Velocity P-wave (km/s) = 5.11245 5.81003 5.47237
#
# Compressibility (1/GPa) = 0.06636110
#
# Stress axis : x y z
#
# Youngs Moduli (GPa) = 96.44472 49.53912 34.69889
#
# Poissons Ratio (x) = 0.15836 -0.01299
# Poissons Ratio (y) = 0.30831 -0.21915
# Poissons Ratio (z) = -0.03611 -0.31288
#
# Static dielectric constant tensor:
#      x y z
#    x 1.662150 0.000000 0.003020 
#    y 0.000000 1.691560 0.000000 
#    z 0.003020 0.000000 1.693880 
# 
# From -- ./inp_files/102467.got.cif
#   From: 2010.05.17/outbox.cif.g08.bks.cpg/sg15_52_cif.got.tgz:102467.got - 2010.06.03 18:47:42.
