data_PCOD9304166
_publ_section_title
;
Structure prediction by ZEFSAII (Michael W. Deem and Ramdas Pophale) SiO2 
 PCOD9304166
Probable space group: C 2/C
;
_chemical_formula_sum "Si O2"
_cell_formula_units_Z 44
_cell_length_a 12.637894
_cell_length_b 12.426178
_cell_length_c 12.957092
_cell_angle_alpha 90.000000
_cell_angle_beta 94.161934
_cell_angle_gamma 90.000000
_cell_volume 2029.425145
_symmetry_space_group_name_H-M "C 2/C"
_symmetry_group_IT_number 15
_symmetry_cell_setting 'monoclinic'
loop_
_space_group_symop_operation_xyz
x,y,z
-x,y,1/2-z
-x,-y,-z
x,-y,1/2+z
1/2+x,1/2+y,z
1/2-x,1/2+y,1/2-z
1/2-x,1/2-y,-z
1/2+x,1/2-y,1/2+z
loop_
_atom_site_type_symbol
_atom_site_label
_atom_site_fract_x
_atom_site_fract_y
_atom_site_fract_z
Si Si1 0.303040 0.133693 0.992990
Si Si2 0.616580 0.919452 0.220490
Si Si3 0.330098 0.854217 0.718663
Si Si4 0.404968 0.505524 0.575024
Si Si5 0.878588 0.205497 0.205595
Si Si6 0.500000 0.326074 0.250000
O O1 0.372056 0.126572 0.894116
O O2 0.204977 0.051349 0.977221
O O3 0.250000 0.250000 0.000000
O O4 0.365899 0.120976 0.104296
O O5 0.500000 0.944445 0.250000
O O6 0.655964 0.830973 0.307289
O O7 0.669391 0.034770 0.220461
O O8 0.205399 0.828254 0.713291
O O9 0.403303 0.757974 0.767983
O O10 0.500000 0.500000 0.500000
O O11 0.381479 0.386753 0.619652
O O12 0.448089 0.592383 0.662773
O O13 0.000000 0.211917 0.250000
#
# Coordination Sequence:
#
# PCOD9304166 Si02
#       6
#     8   8   8   8   8   4
#     4  12  24  43  72 101 143 186 232 287 360 419
#     4  11  25  45  69 104 141 190 232 289 355 423
#     4  12  25  47  70 102 144 184 232 292 356 422
#     4  12  26  44  71 106 137 184 241 291 352 421
#     4  11  23  42  70  98 141 182 234 286 345 414
#     4  12  26  46  72 100 146 182 234 292 360 410
#
# _framework density 21.681017000000001
#
# number of rings (size 3 to 8) (size 9 to 14) (size 15 to 20)
#    0.000    0.364    7.273    1.091    2.545    0.727 
#    3.273    1.818    0.000    0.000    0.000    0.000 
#    0.000    0.000    0.000    0.000    0.000    0.000 
#
# Total GULP energy -122571.576114 kJ/mol
# GULP energy per Si atom -5571.435278 kJ/mol
# Density = 2.163167 g / cm^3
# Si number density = 21.681017 Si / 1000 Ang^3
#
#
#
# Elastic Constant Matrix: (Units=GPa)
#
#
# Indices 1 2 3 4 5 6 
#
# 1 81.6737 -5.8799 4.9059 0.0000 -26.5639 0.0000
# 2 -5.8799 95.5308 4.4829 0.0000 -2.1852 0.0000
# 3 4.9059 4.4829 46.6785 0.0000 -18.8182 0.0000
# 4 0.0000 0.0000 0.0000 27.4357 0.0000 1.9448
# 5 -26.5639 -2.1852 -18.8182 0.0000 36.0376 0.0000
# 6 0.0000 0.0000 0.0000 1.9448 0.0000 12.2093
#
#
#
# Elastic Compliance Matrix: (Units=1/GPa)
#
#
# Indices 1 2 3 4 5 6 
#
# 1 0.016823 0.001181 0.003986 0.000000 0.014553 0.000000
# 2 0.001181 0.010599 -0.000674 0.000000 0.001162 0.000000
# 3 0.003986 -0.000674 0.028166 0.000000 0.017605 0.000000
# 4 0.000000 0.000000 0.000000 0.036865 0.000000 -0.005872
# 5 0.014553 0.001162 0.017605 0.000000 0.047740 0.000000
# 6 0.000000 0.000000 0.000000 -0.005872 0.000000 0.082840
#
#
# Mechanical properties :
#
#
# Convention : Reuss Voigt Hill
#
# Bulk Modulus (GPa) = 15.48612 25.65565 20.57088
# Shear Modulus (GPa) = 21.22504 29.82814 25.52659
#
# Velocity S-wave (km/s) = 3.13224 3.71316 3.43501
# Velocity P-wave (km/s) = 4.49883 5.49931 5.02403
#
# Compressibility (1/GPa) = 0.06457397
#
# Stress axis : x y z
#
# Youngs Moduli (GPa) = 59.44314 94.35096 35.50345
#
# Poissons Ratio (x) = -0.11146 -0.14150
# Poissons Ratio (y) = -0.07022 0.02392
# Poissons Ratio (z) = -0.23691 0.06357
#
# Static dielectric constant tensor:
#      x y z
#    x 1.687450 0.000000 -0.090120 
#    y 0.000000 1.965510 0.000000 
#    z -0.090120 0.000000 1.684480 
# 
# From -- ./inp_files/142229.got.cif
#   From: 2010.05.17/outbox.cif.g08.bks.cpg/sg15_72_cif.got.tgz:142229.got - 2010.06.03 18:47:42.
