data_PCOD9304172
_publ_section_title
;
Structure prediction by ZEFSAII (Michael W. Deem and Ramdas Pophale) SiO2 
 PCOD9304172
Probable space group: C 2/C
;
_chemical_formula_sum "Si O2"
_cell_formula_units_Z 52
_cell_length_a 14.178431
_cell_length_b 16.076033
_cell_length_c 11.038683
_cell_angle_alpha 90.000000
_cell_angle_beta 57.383205
_cell_angle_gamma 90.000000
_cell_volume 2119.279585
_symmetry_space_group_name_H-M "C 2/C"
_symmetry_group_IT_number 15
_symmetry_cell_setting 'monoclinic'
loop_
_space_group_symop_operation_xyz
x,y,z
-x,y,1/2-z
-x,-y,-z
x,-y,1/2+z
1/2+x,1/2+y,z
1/2-x,1/2+y,1/2-z
1/2-x,1/2-y,-z
1/2+x,1/2-y,1/2+z
loop_
_atom_site_type_symbol
_atom_site_label
_atom_site_fract_x
_atom_site_fract_y
_atom_site_fract_z
Si Si1 0.357355 0.084168 0.088732
Si Si2 0.500000 0.202256 0.250000
Si Si3 0.282435 0.160581 0.528321
Si Si4 0.223024 0.338835 0.179389
Si Si5 0.546149 0.737080 0.966260
Si Si6 0.887913 0.830213 0.755900
Si Si7 0.832042 0.480315 0.878839
O O1 0.433521 0.166201 0.012786
O O2 0.225865 0.115440 0.166970
O O3 0.370322 0.057073 0.220332
O O4 0.385529 0.012362 0.972209
O O5 0.407385 0.149460 0.384538
O O6 0.447689 0.259442 0.183140
O O7 0.250000 0.250000 0.500000
O O8 0.284232 0.158189 0.669909
O O9 0.231799 0.080005 0.497825
O O10 0.348716 0.313890 0.060741
O O11 0.146708 0.264073 0.182826
O O12 0.199396 0.427769 0.144003
O O13 0.435532 0.691489 0.088525
O O14 0.000000 0.858486 0.750000
#
# Coordination Sequence:
#
# PCOD9304172 Si02
#       7
#     8   4   8   8   8   8   8
#     4  11  25  45  71 100 145 185 227 294 351 421
#     4  12  22  38  72 104 128 178 242 276 338 424
#     4  12  23  45  70  97 139 186 230 286 349 424
#     4  11  23  43  70  98 138 183 227 288 348 414
#     4  11  23  42  71 102 132 182 235 279 345 420
#     4  11  23  44  71  99 134 180 232 281 346 415
#     4  12  24  45  69 102 141 184 230 287 361 410
#
# _framework density 24.536642000000001
#
# number of rings (size 3 to 8) (size 9 to 14) (size 15 to 20)
#    0.000    0.615    6.154    2.769    0.000    2.462 
#    4.154    5.385    5.077    0.000    0.000    0.000 
#    0.000    0.000    0.000    0.000    0.000    0.000 
#
# Total GULP energy -145056.260966 kJ/mol
# GULP energy per Si atom -5579.086960 kJ/mol
# Density = 2.448080 g / cm^3
# Si number density = 24.536642 Si / 1000 Ang^3
#
#
#
# Elastic Constant Matrix: (Units=GPa)
#
#
# Indices 1 2 3 4 5 6 
#
# 1 81.9108 12.6432 46.6285 0.0000 7.8657 0.0000
# 2 12.6432 71.4415 43.8754 0.0000 14.9135 0.0000
# 3 46.6285 43.8754 156.0958 0.0000 36.0615 0.0000
# 4 0.0000 0.0000 0.0000 46.5925 0.0000 4.5403
# 5 7.8657 14.9135 36.0615 0.0000 51.9133 0.0000
# 6 0.0000 0.0000 0.0000 4.5403 0.0000 10.1009
#
#
#
# Elastic Compliance Matrix: (Units=1/GPa)
#
#
# Indices 1 2 3 4 5 6 
#
# 1 0.014752 0.000036 -0.004643 0.000000 0.000980 0.000000
# 2 0.000036 0.017069 -0.004377 0.000000 -0.001869 0.000000
# 3 -0.004643 -0.004377 0.010209 0.000000 -0.005131 0.000000
# 4 0.000000 0.000000 0.000000 0.022446 0.000000 -0.010089
# 5 0.000980 -0.001869 -0.005131 0.000000 0.023215 0.000000
# 6 0.000000 0.000000 0.000000 -0.010089 0.000000 0.103536
#
#
# Mechanical properties :
#
#
# Convention : Reuss Voigt Hill
#
# Bulk Modulus (GPa) = 41.55870 57.30471 49.43170
# Shear Modulus (GPa) = 23.01863 35.47474 29.24669
#
# Velocity S-wave (km/s) = 3.06622 3.80647 3.45622
# Velocity P-wave (km/s) = 5.43229 6.53639 6.00975
#
# Compressibility (1/GPa) = 0.02406235
#
# Stress axis : x y z
#
# Youngs Moduli (GPa) = 67.78793 58.58498 97.95359
#
# Poissons Ratio (x) = -0.00213 0.45482
# Poissons Ratio (y) = -0.00247 0.42874
# Poissons Ratio (z) = 0.31475 0.25643
#
# Static dielectric constant tensor:
#      x y z
#    x 2.094970 0.000000 0.040510 
#    y 0.000000 2.748930 0.000000 
#    z 0.040510 0.000000 2.008710 
# 
# From -- ./inp_files/98201.got.cif
#   From: 2010.05.17/outbox.cif.g08.bks.cpg/sg15_50_cif.got.tgz:98201.got - 2010.06.03 18:47:42.
