data_PCOD9304921
_publ_section_title
;
Structure prediction by ZEFSAII (Michael W. Deem and Ramdas Pophale) SiO2 
 PCOD9304921
Probable space group: C 2/C
;
_chemical_formula_sum "Si O2"
_cell_formula_units_Z 40
_cell_length_a 17.518432
_cell_length_b 9.261268
_cell_length_c 14.317771
_cell_angle_alpha 90.000000
_cell_angle_beta 39.640409
_cell_angle_gamma 90.000000
_cell_volume 1481.970235
_symmetry_space_group_name_H-M "C 2/C"
_symmetry_group_IT_number 15
_symmetry_cell_setting 'monoclinic'
loop_
_space_group_symop_operation_xyz
x,y,z
-x,y,1/2-z
-x,-y,-z
x,-y,1/2+z
1/2+x,1/2+y,z
1/2-x,1/2+y,1/2-z
1/2-x,1/2-y,-z
1/2+x,1/2-y,1/2+z
loop_
_atom_site_type_symbol
_atom_site_label
_atom_site_fract_x
_atom_site_fract_y
_atom_site_fract_z
Si Si1 0.217596 0.419307 0.552596
Si Si2 0.034561 0.895197 0.109603
Si Si3 0.205632 0.346962 0.898891
Si Si4 0.432559 0.107474 0.133605
Si Si5 0.037433 0.188718 0.321329
O O1 0.250000 0.250000 0.500000
O O2 0.334307 0.461045 0.502052
O O3 0.208150 0.516729 0.468264
O O4 0.896725 0.436295 0.772604
O O5 0.000000 0.860814 0.250000
O O6 0.012072 0.751415 0.072604
O O7 0.953785 0.025669 0.147671
O O8 0.326437 0.256321 0.802924
O O9 0.000000 0.500000 0.000000
O O10 0.194401 0.372816 0.799110
O O11 0.423121 0.227762 0.965974
O O12 0.000000 0.170587 0.250000
#
# Coordination Sequence:
#
# PCOD9304921 Si02
#       5
#     8   8   8   8   8
#     4  12  25  53  85 114 174 232 286 362 458 532
#     4  11  23  51  83 111 165 233 287 347 451 535
#     4  12  28  49  85 122 171 221 296 365 440 529
#     4  12  30  47  81 131 166 222 309 370 432 537
#     4  11  25  51  78 120 163 227 284 354 448 524
#
# _framework density 26.991097
#
# number of rings (size 3 to 8) (size 9 to 14) (size 15 to 20)
#    0.000    0.400    6.000    1.800    5.600    0.800 
#    3.600    0.000    0.000    0.000    0.000    0.000 
#    0.000    0.000    0.000    0.000    0.000    0.000 
#
# Total GULP energy -111873.672550 kJ/mol
# GULP energy per Si atom -5593.683628 kJ/mol
# Density = 2.692966 g / cm^3
# Si number density = 26.991097 Si / 1000 Ang^3
#
#
#
# Elastic Constant Matrix: (Units=GPa)
#
#
# Indices 1 2 3 4 5 6 
#
# 1 158.6420 51.9092 50.8350 0.0000 -17.2750 0.0000
# 2 51.9092 150.7378 52.9512 0.0000 -4.7116 0.0000
# 3 50.8350 52.9512 168.2693 0.0000 -9.6867 0.0000
# 4 0.0000 0.0000 0.0000 30.1655 0.0000 -5.3380
# 5 -17.2750 -4.7116 -9.6867 0.0000 53.9816 0.0000
# 6 0.0000 0.0000 0.0000 -5.3380 0.0000 43.7531
#
#
#
# Elastic Compliance Matrix: (Units=1/GPa)
#
#
# Indices 1 2 3 4 5 6 
#
# 1 0.007690 -0.002035 -0.001567 0.000000 0.002002 0.000000
# 2 -0.002035 0.008000 -0.001920 0.000000 -0.000297 0.000000
# 3 -0.001567 -0.001920 0.007055 0.000000 0.000597 0.000000
# 4 0.000000 0.000000 0.000000 0.033882 0.000000 0.004134
# 5 0.002002 -0.000297 0.000597 0.000000 0.019247 0.000000
# 6 0.000000 0.000000 0.000000 0.004134 0.000000 0.023360
#
#
# Mechanical properties :
#
#
# Convention : Reuss Voigt Hill
#
# Bulk Modulus (GPa) = 85.46954 87.67110 86.57032
# Shear Modulus (GPa) = 43.79165 47.04362 45.41763
#
# Velocity S-wave (km/s) = 4.03233 4.17937 4.10651
# Velocity P-wave (km/s) = 7.30850 7.47272 7.39107
#
# Compressibility (1/GPa) = 0.01170007
#
# Stress axis : x y z
#
# Youngs Moduli (GPa) = 130.04573 125.00219 141.74588
#
# Poissons Ratio (x) = 0.25436 0.22219
# Poissons Ratio (y) = 0.26462 0.27212
# Poissons Ratio (z) = 0.20385 0.23998
#
# Static dielectric constant tensor:
#      x y z
#    x 2.179060 0.000000 0.015420 
#    y 0.000000 2.347980 0.000000 
#    z 0.015420 0.000000 2.205820 
# 
# From -- ./inp_files/203398.got.cif
#   From: 2010.05.17/outbox.cif.g08.bks.cpg/sg15_102_cif.got.tgz:203398.got - 2010.06.03 18:47:42.
