data_PCOD9304152
_publ_section_title
;
Structure prediction by ZEFSAII (Michael W. Deem and Ramdas Pophale) SiO2 
 PCOD9304152
Probable space group: C 2/C
;
_chemical_formula_sum "Si O2"
_cell_formula_units_Z 48
_cell_length_a 8.344337
_cell_length_b 17.504821
_cell_length_c 24.023343
_cell_angle_alpha 90.000000
_cell_angle_beta 41.593847
_cell_angle_gamma 90.000000
_cell_volume 2329.433039
_symmetry_space_group_name_H-M "C 2/C"
_symmetry_group_IT_number 15
_symmetry_cell_setting 'monoclinic'
loop_
_space_group_symop_operation_xyz
x,y,z
-x,y,1/2-z
-x,-y,-z
x,-y,1/2+z
1/2+x,1/2+y,z
1/2-x,1/2+y,1/2-z
1/2-x,1/2-y,-z
1/2+x,1/2-y,1/2+z
loop_
_atom_site_type_symbol
_atom_site_label
_atom_site_fract_x
_atom_site_fract_y
_atom_site_fract_z
Si Si1 0.854332 0.532738 0.590287
Si Si2 0.089379 0.230544 0.953457
Si Si3 0.000000 0.076035 0.250000
Si Si4 0.970573 0.849371 0.644563
Si Si5 0.500000 0.762789 0.750000
Si Si6 0.902799 0.817607 0.384999
Si Si7 0.863307 0.932549 0.000961
O O1 0.701251 0.474216 0.666908
O O2 0.679721 0.597066 0.609689
O O3 0.000000 0.500000 0.500000
O O4 0.074174 0.559208 0.572921
O O5 0.312537 0.287495 0.907663
O O6 0.066333 0.203550 0.895414
O O7 0.094745 0.150894 0.984366
O O8 0.850387 0.275915 0.034480
O O9 0.099005 0.126361 0.274908
O O10 0.736075 0.812307 0.678923
O O11 0.044101 0.921150 0.586729
O O12 0.468206 0.713018 0.703433
O O13 0.000000 0.000000 0.000000
#
# Coordination Sequence:
#
# PCOD9304152 Si02
#       7
#     8   8   4   8   4   8   8
#     4  12  24  45  69 102 145 186 233 293 363 433
#     4  11  23  45  73  98 136 187 240 287 359 446
#     4  12  27  44  70 101 146 182 244 298 369 426
#     4  12  25  46  70 103 140 193 235 302 357 439
#     4  12  25  40  68  99 138 170 240 292 347 414
#     4  11  23  42  70 101 132 181 234 289 357 424
#     4  12  25  43  72 102 143 188 238 295 368 433
#
# _framework density 20.605872999999999
#
# number of rings (size 3 to 8) (size 9 to 14) (size 15 to 20)
#    0.000    0.333    5.000    4.000    2.333    2.667 
#    0.000    0.000    0.000    0.000    0.000    0.000 
#    0.000    0.000    0.000    0.000    0.000    0.000 
#
# Total GULP energy -134039.052192 kJ/mol
# GULP energy per Si atom -5584.960508 kJ/mol
# Density = 2.055897 g / cm^3
# Si number density = 20.605873 Si / 1000 Ang^3
#
#
#
# Elastic Constant Matrix: (Units=GPa)
#
#
# Indices 1 2 3 4 5 6 
#
# 1 90.2941 28.0790 21.2524 0.0006 10.5010 -0.0015
# 2 28.0790 95.8303 21.0742 -0.0004 5.3918 -0.0005
# 3 21.2524 21.0742 85.5716 0.0011 16.8414 0.0000
# 4 0.0006 -0.0004 0.0011 41.9161 -0.0018 2.5297
# 5 10.5010 5.3918 16.8414 -0.0018 47.0428 0.0010
# 6 -0.0015 -0.0005 0.0000 2.5297 0.0010 36.8484
#
#
#
# Elastic Compliance Matrix: (Units=1/GPa)
#
#
# Indices 1 2 3 4 5 6 
#
# 1 0.012750 -0.003189 -0.002036 0.000000 -0.001751 0.000001
# 2 -0.003189 0.011835 -0.002147 0.000000 0.000124 0.000000
# 3 -0.002036 -0.002147 0.013536 -0.000001 -0.004145 0.000000
# 4 0.000000 0.000000 -0.000001 0.023956 0.000001 -0.001645
# 5 -0.001751 0.000124 -0.004145 0.000001 0.023118 -0.000001
# 6 0.000001 0.000000 0.000000 -0.001645 -0.000001 0.027251
#
#
# Mechanical properties :
#
#
# Convention : Reuss Voigt Hill
#
# Bulk Modulus (GPa) = 42.77956 45.83415 44.30685
# Shear Modulus (GPa) = 37.04150 38.58083 37.81116
#
# Velocity S-wave (km/s) = 4.24443 4.33173 4.28830
# Velocity P-wave (km/s) = 6.69524 6.87823 6.78735
#
# Compressibility (1/GPa) = 0.02337565
#
# Stress axis : x y z
#
# Youngs Moduli (GPa) = 78.43314 84.49671 73.87451
#
# Poissons Ratio (x) = 0.26949 0.15043
# Poissons Ratio (y) = 0.25016 0.15860
# Poissons Ratio (z) = 0.15972 0.18141
#
# Static dielectric constant tensor:
#      x y z
#    x 1.847570 0.000010 0.057540 
#    y 0.000010 1.803060 -0.000010 
#    z 0.057540 -0.000010 1.676430 
# 
# From -- ./inp_files/289043.got.cif
#   From: 2010.05.17/outbox.cif.g08.bks.cpg/sg15_145_cif.got.tgz:289043.got - 2010.06.03 18:47:42.
