data_PCOD9304098
_publ_section_title
;
Structure prediction by ZEFSAII (Michael W. Deem and Ramdas Pophale) SiO2 
 PCOD9304098
Probable space group: C 2/C
;
_chemical_formula_sum "Si O2"
_cell_formula_units_Z 40
_cell_length_a 11.538107
_cell_length_b 25.857109
_cell_length_c 8.900238
_cell_angle_alpha 90.000000
_cell_angle_beta 49.891606
_cell_angle_gamma 90.000000
_cell_volume 2030.857143
_symmetry_space_group_name_H-M "C 2/C"
_symmetry_group_IT_number 15
_symmetry_cell_setting 'monoclinic'
loop_
_space_group_symop_operation_xyz
x,y,z
-x,y,1/2-z
-x,-y,-z
x,-y,1/2+z
1/2+x,1/2+y,z
1/2-x,1/2+y,1/2-z
1/2-x,1/2-y,-z
1/2+x,1/2-y,1/2+z
loop_
_atom_site_type_symbol
_atom_site_label
_atom_site_fract_x
_atom_site_fract_y
_atom_site_fract_z
Si Si1 0.161738 0.902243 0.194090
Si Si2 0.163071 0.801065 0.029463
Si Si3 0.670924 0.406621 0.543055
Si Si4 0.327467 0.703011 0.341337
Si Si5 0.119497 0.503720 0.033931
O O1 0.231686 0.853275 0.046245
O O2 0.149647 0.895090 0.383366
O O3 0.000000 0.909854 0.250000
O O4 0.254489 0.954207 0.100573
O O5 0.000000 0.798621 0.250000
O O6 0.250000 0.750000 0.000000
O O7 0.165495 0.798941 0.846270
O O8 0.500000 0.417735 0.750000
O O9 0.733872 0.353196 0.559171
O O10 0.790208 0.452368 0.484281
O O11 0.500000 0.704314 0.250000
O O12 0.250000 0.750000 0.500000
O O13 0.000000 0.525389 0.250000
O O14 0.000000 0.500000 0.000000
#
# Coordination Sequence:
#
# PCOD9304098 Si02
#       5
#     8   8   8   8   8
#     4  11  24  43  68  94 131 175 220 268 326 400
#     4  11  23  42  67  96 130 170 219 267 327 390
#     4  11  24  43  68  94 130 175 222 266 329 397
#     4  11  23  42  67  96 130 170 218 270 324 390
#     4  12  27  44  65  98 135 171 220 277 332 387
#
# _framework density 19.696117000000001
#
# number of rings (size 3 to 8) (size 9 to 14) (size 15 to 20)
#    0.000    0.800    2.000    7.800    5.600    3.200 
#    3.600    0.000    0.000    0.000    0.000    0.000 
#    0.000    0.000    0.000    0.000    0.000    0.000 
#
# Total GULP energy -111410.512965 kJ/mol
# GULP energy per Si atom -5570.525648 kJ/mol
# Density = 1.965129 g / cm^3
# Si number density = 19.696117 Si / 1000 Ang^3
#
#
#
# Elastic Constant Matrix: (Units=GPa)
#
#
# Indices 1 2 3 4 5 6 
#
# 1 129.6436 63.3439 44.0305 0.0000 42.1120 0.0000
# 2 63.3439 141.4833 42.3490 0.0000 8.8028 0.0000
# 3 44.0305 42.3490 112.2411 0.0000 45.7666 0.0000
# 4 0.0000 0.0000 0.0000 39.2186 0.0000 -4.9740
# 5 42.1120 8.8028 45.7666 0.0000 52.2446 0.0000
# 6 0.0000 0.0000 0.0000 -4.9740 0.0000 15.0041
#
#
#
# Elastic Compliance Matrix: (Units=1/GPa)
#
#
# Indices 1 2 3 4 5 6 
#
# 1 0.013816 -0.005915 0.001473 0.000000 -0.011430 0.000000
# 2 -0.005915 0.010638 -0.004522 0.000000 0.006937 0.000000
# 3 0.001473 -0.004522 0.015885 0.000000 -0.014341 0.000000
# 4 0.000000 0.000000 0.000000 0.026617 0.000000 0.008824
# 5 -0.011430 0.006937 -0.014341 0.000000 0.039748 0.000000
# 6 0.000000 0.000000 0.000000 0.008824 0.000000 0.069574
#
#
# Mechanical properties :
#
#
# Convention : Reuss Voigt Hill
#
# Bulk Modulus (GPa) = 44.62163 75.86831 60.24497
# Shear Modulus (GPa) = 24.79194 36.86975 30.83085
#
# Velocity S-wave (km/s) = 3.55170 4.33127 3.96071
# Velocity P-wave (km/s) = 6.28678 7.97598 7.18122
#
# Compressibility (1/GPa) = 0.02241065
#
# Stress axis : x y z
#
# Youngs Moduli (GPa) = 72.37758 94.00026 62.95125
#
# Poissons Ratio (x) = 0.55605 -0.09270
# Poissons Ratio (y) = 0.42814 0.28466
# Poissons Ratio (z) = -0.10658 0.42506
#
# Static dielectric constant tensor:
#      x y z
#    x 1.656200 0.000000 0.030060 
#    y 0.000000 1.731120 0.000000 
#    z 0.030060 0.000000 1.839490 
# 
# From -- ./inp_files/33327.got.cif
#   From: 2010.05.17/outbox.cif.g08.bks.cpg/sg15_17_cif.got.tgz:33327.got - 2010.06.03 18:47:42.
