data_PCOD9304212
_publ_section_title
;
Structure prediction by ZEFSAII (Michael W. Deem and Ramdas Pophale) SiO2 
 PCOD9304212
Probable space group: C 2/C
;
_chemical_formula_sum "Si O2"
_cell_formula_units_Z 60
_cell_length_a 8.031913
_cell_length_b 25.080038
_cell_length_c 18.209925
_cell_angle_alpha 90.000000
_cell_angle_beta 137.869853
_cell_angle_gamma 90.000000
_cell_volume 2460.703891
_symmetry_space_group_name_H-M "C 2/C"
_symmetry_group_IT_number 15
_symmetry_cell_setting 'monoclinic'
loop_
_space_group_symop_operation_xyz
x,y,z
-x,y,1/2-z
-x,-y,-z
x,-y,1/2+z
1/2+x,1/2+y,z
1/2-x,1/2+y,1/2-z
1/2-x,1/2-y,-z
1/2+x,1/2-y,1/2+z
loop_
_atom_site_type_symbol
_atom_site_label
_atom_site_fract_x
_atom_site_fract_y
_atom_site_fract_z
Si Si1 0.325064 0.073404 0.468278
Si Si2 0.994701 0.983770 0.414069
Si Si3 0.969315 0.375941 0.615708
Si Si4 0.779866 0.636617 0.814758
Si Si5 0.551787 0.642336 0.586242
Si Si6 0.037609 0.837720 0.675494
Si Si7 0.000000 0.460130 0.750000
Si Si8 0.914712 0.721388 0.635682
O O1 0.217522 0.013892 0.443923
O O2 0.422376 0.092612 0.420389
O O3 0.539602 0.090934 0.595631
O O4 0.084328 0.111255 0.403469
O O5 0.729235 0.004086 0.297170
O O6 0.996071 0.920841 0.422318
O O7 0.000000 0.000000 0.500000
O O8 0.737591 0.340992 0.511460
O O9 0.164916 0.339715 0.725420
O O10 0.910741 0.422024 0.655334
O O11 0.500000 0.629323 0.750000
O O12 0.742175 0.643780 0.716138
O O13 0.908304 0.693815 0.868204
O O14 0.690200 0.679173 0.572441
O O15 0.000000 0.846339 0.750000
O O16 0.903669 0.783295 0.609631
O O17 0.000000 0.729537 0.750000
#
# Coordination Sequence:
#
# PCOD9304212 Si02
#       8
#     8   8   8   8   8   8   4   8
#     4  11  24  45  69  97 147 186 235 295 364 432
#     4  12  26  43  68 104 141 188 238 287 361 436
#     4  11  23  46  70 102 144 182 244 303 358 442
#     4  11  23  43  62  98 137 180 235 290 354 440
#     4  11  24  44  68 100 143 188 235 294 358 437
#     4   9  20  44  69  98 131 185 239 299 362 430
#     4  12  26  44  68 104 142 184 248 298 360 440
#     4   9  21  42  68  95 135 186 240 294 369 420
#
# _framework density 24.383268999999999
#
# number of rings (size 3 to 8) (size 9 to 14) (size 15 to 20)
#    0.000    1.333    4.000    0.800    4.667    1.067 
#    6.000    2.667    0.000    0.000    0.000    0.000 
#    0.000    0.000    0.000    0.000    0.000    0.000 
#
# Total GULP energy -167069.288062 kJ/mol
# GULP energy per Si atom -5568.976269 kJ/mol
# Density = 2.432777 g / cm^3
# Si number density = 24.383269 Si / 1000 Ang^3
#
#
#
# Elastic Constant Matrix: (Units=GPa)
#
#
# Indices 1 2 3 4 5 6 
#
# 1 78.8196 20.2988 41.2292 0.0000 11.9095 0.0000
# 2 20.2988 113.0695 41.1793 0.0000 13.7482 0.0000
# 3 41.2292 41.1793 121.9373 0.0000 16.0385 0.0000
# 4 0.0000 0.0000 0.0000 22.0189 0.0000 0.0630
# 5 11.9095 13.7482 16.0385 0.0000 40.9404 0.0000
# 6 0.0000 0.0000 0.0000 0.0630 0.0000 28.2859
#
#
#
# Elastic Compliance Matrix: (Units=1/GPa)
#
#
# Indices 1 2 3 4 5 6 
#
# 1 0.015738 -0.000805 -0.004726 0.000000 -0.002456 0.000000
# 2 -0.000805 0.010311 -0.002936 0.000000 -0.002078 0.000000
# 3 -0.004726 -0.002936 0.011049 0.000000 -0.001968 0.000000
# 4 0.000000 0.000000 0.000000 0.045416 0.000000 -0.000101
# 5 -0.002456 -0.002078 -0.001968 0.000000 0.026609 0.000000
# 6 0.000000 0.000000 0.000000 -0.000101 0.000000 0.035353
#
#
# Mechanical properties :
#
#
# Convention : Reuss Voigt Hill
#
# Bulk Modulus (GPa) = 49.59825 57.69346 53.64585
# Shear Modulus (GPa) = 29.73833 32.32365 31.03099
#
# Velocity S-wave (km/s) = 3.49610 3.64490 3.57127
# Velocity P-wave (km/s) = 6.05658 6.43631 6.24933
#
# Compressibility (1/GPa) = 0.02016200
#
# Stress axis : x y z
#
# Youngs Moduli (GPa) = 63.54058 96.98578 90.50242
#
# Poissons Ratio (x) = 0.07812 0.42774
# Poissons Ratio (y) = 0.05118 0.26575
# Poissons Ratio (z) = 0.30031 0.28479
#
# Static dielectric constant tensor:
#      x y z
#    x 2.243500 -0.000020 0.197270 
#    y -0.000020 12.698620 -0.000010 
#    z 0.197270 -0.000010 2.159160 
# 
# From -- ./inp_files/234602.got.cif
#   From: 2010.05.17/outbox.cif.g08.bks.cpg/sg15_118_cif.got.tgz:234602.got - 2010.06.03 18:47:42.
