data_PCOD9304653
_publ_section_title
;
Structure prediction by ZEFSAII (Michael W. Deem and Ramdas Pophale) SiO2 
 PCOD9304653
Probable space group: C 2/C
;
_chemical_formula_sum "Si O2"
_cell_formula_units_Z 40
_cell_length_a 13.593128
_cell_length_b 16.892811
_cell_length_c 7.846297
_cell_angle_alpha 90.000000
_cell_angle_beta 112.752075
_cell_angle_gamma 90.000000
_cell_volume 1661.518007
_symmetry_space_group_name_H-M "C 2/C"
_symmetry_group_IT_number 15
_symmetry_cell_setting 'monoclinic'
loop_
_space_group_symop_operation_xyz
x,y,z
-x,y,1/2-z
-x,-y,-z
x,-y,1/2+z
1/2+x,1/2+y,z
1/2-x,1/2+y,1/2-z
1/2-x,1/2-y,-z
1/2+x,1/2-y,1/2+z
loop_
_atom_site_type_symbol
_atom_site_label
_atom_site_fract_x
_atom_site_fract_y
_atom_site_fract_z
Si Si1 0.280703 0.787780 0.839880
Si Si2 0.705136 0.488182 0.565055
Si Si3 0.856652 0.874915 0.289961
Si Si4 0.428221 0.068231 0.358026
Si Si5 0.435198 0.627644 0.378425
O O1 0.315677 0.713899 0.748578
O O2 0.373157 0.855817 0.914202
O O3 0.171548 0.821572 0.689114
O O4 0.250000 0.750000 0.000000
O O5 0.685758 0.430104 0.392273
O O6 0.687890 0.582104 0.564679
O O7 0.823807 0.474244 0.711078
O O8 0.612981 0.459866 0.634881
O O9 0.981296 0.865156 0.413918
O O10 0.500000 0.098484 0.250000
O O11 0.500000 0.000000 0.500000
O O12 0.500000 0.642313 0.250000
#
# Coordination Sequence:
#
# PCOD9304653 Si02
#       5
#     8   8   8   8   8
#     4  11  27  50  77 117 159 204 274 338 400 490
#     4  11  26  45  75 111 153 199 267 326 392 483
#     4  12  25  46  76 108 158 203 262 331 402 473
#     4  11  27  51  81 117 159 215 270 329 418 488
#     4  11  23  45  72 107 145 201 256 318 400 466
#
# _framework density 24.074372
#
# number of rings (size 3 to 8) (size 9 to 14) (size 15 to 20)
#    0.000    0.800    2.000    3.600    5.600    8.000 
#    0.000    0.000    0.000    0.000    0.000    0.000 
#    0.000    0.000    0.000    0.000    0.000    0.000 
#
# Total GULP energy -111669.256593 kJ/mol
# GULP energy per Si atom -5583.462830 kJ/mol
# Density = 2.401958 g / cm^3
# Si number density = 24.074372 Si / 1000 Ang^3
#
#
#
# Elastic Constant Matrix: (Units=GPa)
#
#
# Indices 1 2 3 4 5 6 
#
# 1 141.4113 71.9638 62.4814 0.0000 25.5171 0.0000
# 2 71.9638 172.3870 76.5802 0.0000 17.9672 0.0000
# 3 62.4814 76.5802 163.8114 0.0000 28.6249 0.0000
# 4 0.0000 0.0000 0.0000 34.5627 0.0000 1.9790
# 5 25.5171 17.9672 28.6249 0.0000 53.4039 0.0000
# 6 0.0000 0.0000 0.0000 1.9790 0.0000 35.7911
#
#
#
# Elastic Compliance Matrix: (Units=1/GPa)
#
#
# Indices 1 2 3 4 5 6 
#
# 1 0.009940 -0.003020 -0.001905 0.000000 -0.002712 0.000000
# 2 -0.003020 0.008262 -0.002733 0.000000 0.000128 0.000000
# 3 -0.001905 -0.002733 0.008594 0.000000 -0.002777 0.000000
# 4 0.000000 0.000000 0.000000 0.029025 0.000000 -0.001605
# 5 -0.002712 0.000128 -0.002777 0.000000 0.021466 0.000000
# 6 0.000000 0.000000 0.000000 -0.001605 0.000000 0.028029
#
#
# Mechanical properties :
#
#
# Convention : Reuss Voigt Hill
#
# Bulk Modulus (GPa) = 87.11557 99.96228 93.53893
# Shear Modulus (GPa) = 40.17352 42.52382 41.34867
#
# Velocity S-wave (km/s) = 4.08944 4.20736 4.14882
# Velocity P-wave (km/s) = 7.65262 8.07557 7.86694
#
# Compressibility (1/GPa) = 0.01147900
#
# Stress axis : x y z
#
# Youngs Moduli (GPa) = 100.60496 121.02880 116.35741
#
# Poissons Ratio (x) = 0.36555 0.22171
# Poissons Ratio (y) = 0.30386 0.31801
# Poissons Ratio (z) = 0.19169 0.33077
#
# Static dielectric constant tensor:
#      x y z
#    x 1.993650 0.000000 -0.148780 
#    y 0.000000 1.981540 0.000000 
#    z -0.148780 0.000000 2.095160 
# 
# From -- ./inp_files/39398.got.cif
#   From: 2010.05.17/outbox.cif.g08.bks.cpg/sg15_20_cif.got.tgz:39398.got - 2010.06.03 18:47:42.
