data_PCOD9304980
_publ_section_title
;
Structure prediction by ZEFSAII (Michael W. Deem and Ramdas Pophale) SiO2 
 PCOD9304980
Probable space group: C 2/C
;
_chemical_formula_sum "Si O2"
_cell_formula_units_Z 40
_cell_length_a 10.759046
_cell_length_b 9.236116
_cell_length_c 18.846563
_cell_angle_alpha 90.000000
_cell_angle_beta 120.616222
_cell_angle_gamma 90.000000
_cell_volume 1611.742174
_symmetry_space_group_name_H-M "C 2/C"
_symmetry_group_IT_number 15
_symmetry_cell_setting 'monoclinic'
loop_
_space_group_symop_operation_xyz
x,y,z
-x,y,1/2-z
-x,-y,-z
x,-y,1/2+z
1/2+x,1/2+y,z
1/2-x,1/2+y,1/2-z
1/2-x,1/2-y,-z
1/2+x,1/2-y,1/2+z
loop_
_atom_site_type_symbol
_atom_site_label
_atom_site_fract_x
_atom_site_fract_y
_atom_site_fract_z
Si Si1 0.650813 0.633453 0.190409
Si Si2 0.558562 0.762742 0.484715
Si Si3 0.205091 0.552180 0.523063
Si Si4 0.136198 0.721778 0.369126
Si Si5 0.659755 0.695641 0.665554
O O1 0.511566 0.682518 0.103197
O O2 0.786911 0.678117 0.179919
O O3 0.658921 0.461525 0.201251
O O4 0.690055 0.722417 0.273237
O O5 0.427391 0.864431 0.476823
O O6 0.617529 0.675803 0.570227
O O7 0.678561 0.884626 0.504701
O O8 0.220082 0.625125 0.451131
O O9 0.336936 0.608032 0.608235
O O10 0.969998 0.704450 0.341076
#
# Coordination Sequence:
#
# PCOD9304980 Si02
#       5
#     8   8   8   8   8
#     4  11  24  40  64  91 125 168 211 260 320 377
#     4   9  19  37  63  89 129 160 211 258 316 374
#     4   8  16  33  66  92 115 165 205 253 318 378
#     4   9  19  38  62  89 125 160 207 253 318 381
#     4  11  24  40  64  91 125 168 211 260 320 377
#
# _framework density 24.817865000000001
#
# number of rings (size 3 to 8) (size 9 to 14) (size 15 to 20)
#    0.000    2.400    0.000    2.400   11.200    0.000 
#    0.000    4.000    0.000    0.000    0.000    0.000 
#    0.000    0.000    0.000    0.000    0.000    0.000 
#
# Total GULP energy -111598.886886 kJ/mol
# GULP energy per Si atom -5579.944344 kJ/mol
# Density = 2.476138 g / cm^3
# Si number density = 24.817865 Si / 1000 Ang^3
#
#
#
# Elastic Constant Matrix: (Units=GPa)
#
#
# Indices 1 2 3 4 5 6 
#
# 1 45.1088 -9.5310 9.1094 0.0000 2.4814 0.0000
# 2 -9.5310 106.1933 8.9639 0.0000 14.9159 0.0000
# 3 9.1094 8.9639 111.7106 0.0000 27.0240 0.0000
# 4 0.0000 0.0000 0.0000 10.6969 0.0000 -14.2841
# 5 2.4814 14.9159 27.0240 0.0000 17.6650 0.0000
# 6 0.0000 0.0000 0.0000 -14.2841 0.0000 19.5943
#
#
#
# Elastic Compliance Matrix: (Units=1/GPa)
#
#
# Indices 1 2 3 4 5 6 
#
# 1 0.023187 0.002700 -0.001219 0.000000 -0.003671 0.000000
# 2 0.002700 0.011319 0.002025 0.000000 -0.013034 0.000000
# 3 -0.001219 0.002025 0.014701 0.000000 -0.024029 0.000000
# 4 0.000000 0.000000 0.000000 3.522409 0.000000 2.567810
# 5 -0.003671 -0.013034 -0.024029 0.000000 0.104889 0.000000
# 6 0.000000 0.000000 0.000000 2.567810 0.000000 1.922949
#
#
# Mechanical properties :
#
#
# Convention : Reuss Voigt Hill
#
# Bulk Modulus (GPa) = 17.78799 31.12192 24.45496
# Shear Modulus (GPa) = 0.89108 26.55595 13.72351
#
# Velocity S-wave (km/s) = 0.59986 3.27469 2.35408
# Velocity P-wave (km/s) = 2.76817 5.18319 4.15501
#
# Compressibility (1/GPa) = 0.05621772
#
# Stress axis : x y z
#
# Youngs Moduli (GPa) = 43.12724 88.34748 68.02042
#
# Poissons Ratio (x) = -0.23851 0.08294
# Poissons Ratio (y) = -0.11643 -0.13772
# Poissons Ratio (z) = 0.05258 -0.17887
#
# Static dielectric constant tensor:
#      x y z
#    x 2.040020 0.000000 0.048080 
#    y 0.000000 1.978870 0.000000 
#    z 0.048080 0.000000 2.132890 
# 
# From -- ./inp_files/242658.got.cif
#   From: 2010.05.17/outbox.cif.g08.bks.cpg/sg15_122_cif.got.tgz:242658.got - 2010.06.03 18:47:42.
