data_PCOD9304178
_publ_section_title
;
Structure prediction by ZEFSAII (Michael W. Deem and Ramdas Pophale) SiO2 
 PCOD9304178
Probable space group: C 2/C
;
_chemical_formula_sum "Si O2"
_cell_formula_units_Z 48
_cell_length_a 23.634010
_cell_length_b 5.038245
_cell_length_c 21.941049
_cell_angle_alpha 90.000000
_cell_angle_beta 130.874186
_cell_angle_gamma 90.000000
_cell_volume 1975.518542
_symmetry_space_group_name_H-M "C 2/C"
_symmetry_group_IT_number 15
_symmetry_cell_setting 'monoclinic'
loop_
_space_group_symop_operation_xyz
x,y,z
-x,y,1/2-z
-x,-y,-z
x,-y,1/2+z
1/2+x,1/2+y,z
1/2-x,1/2+y,1/2-z
1/2-x,1/2-y,-z
1/2+x,1/2-y,1/2+z
loop_
_atom_site_type_symbol
_atom_site_label
_atom_site_fract_x
_atom_site_fract_y
_atom_site_fract_z
Si Si1 0.703074 0.238608 0.123751
Si Si2 0.674899 0.918779 0.936213
Si Si3 0.339110 0.946230 0.782442
Si Si4 0.111709 0.928391 0.948746
Si Si5 0.035652 0.298674 0.213274
Si Si6 0.835005 0.912401 0.181501
O O1 0.662127 0.062053 0.145954
O O2 0.763692 0.417791 0.202807
O O3 0.756532 0.061426 0.118097
O O4 0.644351 0.390852 0.039685
O O5 0.617293 0.734854 0.933225
O O6 0.662974 0.856182 0.856399
O O7 0.664103 0.222837 0.946383
O O8 0.750000 0.750000 0.000000
O O9 0.336167 0.647826 0.754124
O O10 0.412204 0.054098 0.799421
O O11 0.030103 0.827514 0.873518
O O12 0.091124 0.076269 0.280288
O O13 0.000000 0.429267 0.250000
#
# Coordination Sequence:
#
# PCOD9304178 Si02
#       6
#     8   8   8   8   8   8
#     4  11  24  44  71 105 137 187 248 295 357 427
#     4  12  24  43  72 107 143 184 244 305 364 413
#     4  11  24  44  73 100 143 190 241 299 362 433
#     4  12  27  44  72 109 147 187 241 303 360 436
#     4  11  25  45  68 105 145 190 235 292 371 437
#     4  11  23  42  71  99 143 188 239 297 360 427
#
# _framework density 24.297419000000001
#
# number of rings (size 3 to 8) (size 9 to 14) (size 15 to 20)
#    0.000    0.667    5.000    2.500    4.667    1.333 
#    0.000    0.833    0.000    0.000    0.000    0.000 
#    0.000    0.000    0.000    0.000    0.000    0.000 
#
# Total GULP energy -134114.659662 kJ/mol
# GULP energy per Si atom -5588.110819 kJ/mol
# Density = 2.424212 g / cm^3
# Si number density = 24.297419 Si / 1000 Ang^3
#
#
#
# Elastic Constant Matrix: (Units=GPa)
#
#
# Indices 1 2 3 4 5 6 
#
# 1 136.4659 14.1415 48.8184 -0.0011 -7.9969 -0.0018
# 2 14.1415 62.5796 -1.6336 0.0011 -10.8544 0.0155
# 3 48.8184 -1.6336 98.0629 -0.0026 -9.6247 -0.0045
# 4 -0.0011 0.0011 -0.0026 24.7555 -0.0005 -7.4856
# 5 -7.9969 -10.8544 -9.6247 -0.0005 44.8556 -0.0001
# 6 -0.0018 0.0155 -0.0045 -7.4856 -0.0001 34.1266
#
#
#
# Elastic Compliance Matrix: (Units=1/GPa)
#
#
# Indices 1 2 3 4 5 6 
#
# 1 0.009210 -0.002180 -0.004609 0.000000 0.000126 0.000001
# 2 -0.002180 0.017241 0.001781 -0.000003 0.004166 -0.000008
# 3 -0.004609 0.001781 0.012752 0.000001 0.002346 0.000001
# 4 0.000000 -0.000003 0.000001 0.043265 0.000000 0.009490
# 5 0.000126 0.004166 0.002346 0.000000 0.023827 -0.000002
# 6 0.000001 -0.000008 0.000001 0.009490 -0.000002 0.031384
#
#
# Mechanical properties :
#
#
# Convention : Reuss Voigt Hill
#
# Bulk Modulus (GPa) = 34.26055 46.64010 40.45032
# Shear Modulus (GPa) = 31.76144 36.46633 34.11389
#
# Velocity S-wave (km/s) = 3.61944 3.87826 3.75108
# Velocity P-wave (km/s) = 5.62123 6.26831 5.95357
#
# Compressibility (1/GPa) = 0.02918809
#
# Stress axis : x y z
#
# Youngs Moduli (GPa) = 108.57964 58.00041 78.42002
#
# Poissons Ratio (x) = 0.12643 0.36143
# Poissons Ratio (y) = 0.23668 -0.13968
# Poissons Ratio (z) = 0.50043 -0.10331
#
# Static dielectric constant tensor:
#      x y z
#    x 1.991600 -0.000010 0.011820 
#    y -0.000010 2.005890 0.000000 
#    z 0.011820 0.000000 1.960300 
# 
# From -- ./inp_files/254477.got.cif
#   From: 2010.05.17/outbox.cif.g08.bks.cpg/sg15_128_cif.got.tgz:254477.got - 2010.06.03 18:47:42.
