data_PCOD9304163
_publ_section_title
;
Structure prediction by ZEFSAII (Michael W. Deem and Ramdas Pophale) SiO2 
 PCOD9304163
Probable space group: C 2/C
;
_chemical_formula_sum "Si O2"
_cell_formula_units_Z 48
_cell_length_a 26.412014
_cell_length_b 13.461333
_cell_length_c 11.845899
_cell_angle_alpha 90.000000
_cell_angle_beta 151.643914
_cell_angle_gamma 90.000000
_cell_volume 2000.347204
_symmetry_space_group_name_H-M "C 2/C"
_symmetry_group_IT_number 15
_symmetry_cell_setting 'monoclinic'
loop_
_space_group_symop_operation_xyz
x,y,z
-x,y,1/2-z
-x,-y,-z
x,-y,1/2+z
1/2+x,1/2+y,z
1/2-x,1/2+y,1/2-z
1/2-x,1/2-y,-z
1/2+x,1/2-y,1/2+z
loop_
_atom_site_type_symbol
_atom_site_label
_atom_site_fract_x
_atom_site_fract_y
_atom_site_fract_z
Si Si1 0.153507 0.089067 0.521118
Si Si2 0.418242 0.374222 0.844935
Si Si3 0.133142 0.865405 0.417789
Si Si4 0.137458 0.297384 0.121710
Si Si5 0.276744 0.570379 0.615231
Si Si6 0.532480 0.036288 0.190099
O O1 0.067771 0.125749 0.262517
O O2 0.266553 0.124693 0.691999
O O3 0.161986 0.126354 0.664714
O O4 0.143242 0.969547 0.504229
O O5 0.356139 0.277414 0.762087
O O6 0.346875 0.472114 0.726568
O O7 0.523850 0.372166 0.130062
O O8 0.138020 0.774163 0.512805
O O9 0.225194 0.868080 0.504057
O O10 0.029794 0.359653 0.923232
O O11 0.160028 0.544983 0.432657
O O12 0.500000 0.987329 0.250000
O O13 0.500000 0.000000 0.000000
#
# Coordination Sequence:
#
# PCOD9304163 Si02
#       6
#     8   8   8   8   8   8
#     4  11  23  42  70 109 142 191 251 305 381 440
#     4  11  24  44  75 108 148 193 249 315 381 457
#     4  11  25  45  77 109 151 196 250 315 388 457
#     4  12  25  49  74 109 150 203 248 313 388 461
#     4  11  24  43  75 108 148 194 254 312 382 450
#     4  12  26  48  78 110 155 205 255 312 388 460
#
# _framework density 23.995835
#
# number of rings (size 3 to 8) (size 9 to 14) (size 15 to 20)
#    0.000    0.667    3.333    6.000    0.000    2.667 
#    0.000    0.000    0.000    0.000    0.000    0.000 
#    0.000    0.000    0.000    0.000    0.000    0.000 
#
# Total GULP energy -134092.603010 kJ/mol
# GULP energy per Si atom -5587.191792 kJ/mol
# Density = 2.394122 g / cm^3
# Si number density = 23.995835 Si / 1000 Ang^3
#
#
#
# Elastic Constant Matrix: (Units=GPa)
#
#
# Indices 1 2 3 4 5 6 
#
# 1 139.9845 10.6869 44.6717 0.0000 -27.8212 0.0000
# 2 10.6869 86.3392 28.8018 0.0000 -13.2450 0.0000
# 3 44.6717 28.8018 130.5102 0.0000 -4.9407 0.0000
# 4 0.0000 0.0000 0.0000 20.4313 0.0000 -7.6465
# 5 -27.8212 -13.2450 -4.9407 0.0000 65.8967 0.0000
# 6 0.0000 0.0000 0.0000 -7.6465 0.0000 45.2988
#
#
#
# Elastic Compliance Matrix: (Units=1/GPa)
#
#
# Indices 1 2 3 4 5 6 
#
# 1 0.008764 0.000452 -0.002964 0.000000 0.003569 0.000000
# 2 0.000452 0.012888 -0.002902 0.000000 0.002563 0.000000
# 3 -0.002964 -0.002902 0.009274 0.000000 -0.001139 0.000000
# 4 0.000000 0.000000 0.000000 0.052245 0.000000 0.008819
# 5 0.003569 0.002563 -0.001139 0.000000 0.017112 0.000000
# 6 0.000000 0.000000 0.000000 0.008819 0.000000 0.023564
#
#
# Mechanical properties :
#
#
# Convention : Reuss Voigt Hill
#
# Bulk Modulus (GPa) = 49.75858 58.35050 54.05454
# Shear Modulus (GPa) = 35.36680 44.50359 39.93520
#
# Velocity S-wave (km/s) = 3.84327 4.31122 4.08395
# Velocity P-wave (km/s) = 6.36205 7.01084 6.69431
#
# Compressibility (1/GPa) = 0.02009704
#
# Stress axis : x y z
#
# Youngs Moduli (GPa) = 114.09686 77.59443 107.82664
#
# Poissons Ratio (x) = -0.03504 0.31965
# Poissons Ratio (y) = -0.05152 0.31287
# Poissons Ratio (z) = 0.33824 0.22515
#
# Static dielectric constant tensor:
#      x y z
#    x 2.022390 0.000000 -0.011740 
#    y 0.000000 1.899320 0.000000 
#    z -0.011740 0.000000 1.985540 
# 
# From -- ./inp_files/123583.got.cif
#   From: 2010.05.17/outbox.cif.g08.bks.cpg/sg15_62_cif.got.tgz:123583.got - 2010.06.03 18:47:42.
