data_PCOD9304579
_publ_section_title
;
Structure prediction by ZEFSAII (Michael W. Deem and Ramdas Pophale) SiO2 
 PCOD9304579
Probable space group: C 2/C
;
_chemical_formula_sum "Si O2"
_cell_formula_units_Z 40
_cell_length_a 20.534367
_cell_length_b 12.642599
_cell_length_c 12.453273
_cell_angle_alpha 90.000000
_cell_angle_beta 145.197564
_cell_angle_gamma 90.000000
_cell_volume 1845.210659
_symmetry_space_group_name_H-M "C 2/C"
_symmetry_group_IT_number 15
_symmetry_cell_setting 'monoclinic'
loop_
_space_group_symop_operation_xyz
x,y,z
-x,y,1/2-z
-x,-y,-z
x,-y,1/2+z
1/2+x,1/2+y,z
1/2-x,1/2+y,1/2-z
1/2-x,1/2-y,-z
1/2+x,1/2-y,1/2+z
loop_
_atom_site_type_symbol
_atom_site_label
_atom_site_fract_x
_atom_site_fract_y
_atom_site_fract_z
Si Si1 0.831093 0.338995 0.471683
Si Si2 0.743705 0.615133 0.077264
Si Si3 0.660223 0.392387 0.047508
Si Si4 0.436438 0.729122 0.259577
Si Si5 0.003963 0.377481 0.533437
O O1 0.781923 0.404647 0.505905
O O2 0.834017 0.218268 0.517124
O O3 0.742675 0.355455 0.253604
O O4 0.950451 0.366010 0.578107
O O5 0.688738 0.512920 0.057087
O O6 0.862987 0.649334 0.293763
O O7 0.666768 0.325880 0.943986
O O8 0.529843 0.365066 0.906359
O O9 0.500000 0.794798 0.250000
O O10 0.432611 0.802613 0.356898
O O11 0.000000 0.500000 0.500000
#
# Coordination Sequence:
#
# PCOD9304579 Si02
#       5
#     8   8   8   8   8
#     4  11  24  41  66  95 138 175 220 282 335 400
#     4  11  23  45  65  99 136 174 226 277 341 391
#     4   9  20  46  67  94 130 180 225 276 327 398
#     4   8  21  43  65  97 126 170 231 271 317 398
#     4  12  23  42  67  98 135 174 220 277 338 396
#
# _framework density 21.67774
#
# number of rings (size 3 to 8) (size 9 to 14) (size 15 to 20)
#    1.200    0.400    4.000    0.600    0.000    4.000 
#   18.000    5.000    0.000    0.000    0.000    0.000 
#    0.000    0.000    0.000    0.000    0.000    0.000 
#
# Total GULP energy -111410.275921 kJ/mol
# GULP energy per Si atom -5570.513796 kJ/mol
# Density = 2.162840 g / cm^3
# Si number density = 21.677740 Si / 1000 Ang^3
#
#
#
# Elastic Constant Matrix: (Units=GPa)
#
#
# Indices 1 2 3 4 5 6 
#
# 1 87.7408 47.7632 -10.2555 0.0000 -13.1481 0.0000
# 2 47.7632 93.1242 6.4348 0.0000 -9.3523 0.0000
# 3 -10.2555 6.4348 67.4133 0.0000 -14.8361 0.0000
# 4 0.0000 0.0000 0.0000 18.0193 0.0000 -0.4135
# 5 -13.1481 -9.3523 -14.8361 0.0000 31.8588 0.0000
# 6 0.0000 0.0000 0.0000 -0.4135 0.0000 30.8706
#
#
#
# Elastic Compliance Matrix: (Units=1/GPa)
#
#
# Indices 1 2 3 4 5 6 
#
# 1 0.017862 -0.008795 0.005137 0.000000 0.007182 0.000000
# 2 -0.008795 0.015404 -0.002910 0.000000 -0.000463 0.000000
# 3 0.005137 -0.002910 0.018018 0.000000 0.009657 0.000000
# 4 0.000000 0.000000 0.000000 0.055513 0.000000 0.000744
# 5 0.007182 -0.000463 0.009657 0.000000 0.038714 0.000000
# 6 0.000000 0.000000 0.000000 0.000744 0.000000 0.032403
#
#
# Mechanical properties :
#
#
# Convention : Reuss Voigt Hill
#
# Bulk Modulus (GPa) = 26.21341 37.35149 31.78245
# Shear Modulus (GPa) = 24.53806 29.77215 27.15511
#
# Velocity S-wave (km/s) = 3.36809 3.70996 3.54315
# Velocity P-wave (km/s) = 5.21958 5.96820 5.60640
#
# Compressibility (1/GPa) = 0.03814842
#
# Stress axis : x y z
#
# Youngs Moduli (GPa) = 55.98616 64.91907 55.49874
#
# Poissons Ratio (x) = 0.57095 -0.28512
# Poissons Ratio (y) = 0.49239 0.16151
# Poissons Ratio (z) = -0.28762 0.18893
#
# Static dielectric constant tensor:
#      x y z
#    x 1.896330 0.000000 0.031810 
#    y 0.000000 1.759390 0.000000 
#    z 0.031810 0.000000 1.890100 
# 
# From -- ./inp_files/111855.got.cif
#   From: 2010.05.17/outbox.cif.g08.bks.cpg/sg15_56_cif.got.tgz:111855.got - 2010.06.03 18:47:42.
