data_PCOD9304245
_publ_section_title
;
Structure prediction by ZEFSAII (Michael W. Deem and Ramdas Pophale) SiO2 
 PCOD9304245
Probable space group: C 2/C
;
_chemical_formula_sum "Si O2"
_cell_formula_units_Z 56
_cell_length_a 15.236907
_cell_length_b 20.208988
_cell_length_c 14.739199
_cell_angle_alpha 90.000000
_cell_angle_beta 36.550265
_cell_angle_gamma 90.000000
_cell_volume 2702.821005
_symmetry_space_group_name_H-M "C 2/C"
_symmetry_group_IT_number 15
_symmetry_cell_setting 'monoclinic'
loop_
_space_group_symop_operation_xyz
x,y,z
-x,y,1/2-z
-x,-y,-z
x,-y,1/2+z
1/2+x,1/2+y,z
1/2-x,1/2+y,1/2-z
1/2-x,1/2-y,-z
1/2+x,1/2-y,1/2+z
loop_
_atom_site_type_symbol
_atom_site_label
_atom_site_fract_x
_atom_site_fract_y
_atom_site_fract_z
Si Si1 0.786463 0.441038 0.631297
Si Si2 0.637578 0.048829 0.078538
Si Si3 0.839660 0.195255 0.333926
Si Si4 0.455381 0.252753 0.969541
Si Si5 0.564258 0.870756 0.473375
Si Si6 0.634646 0.396344 0.384648
Si Si7 0.649163 0.467338 0.943249
O O1 0.794142 0.498595 0.551303
O O2 0.699181 0.379055 0.662890
O O3 0.717667 0.456762 0.786345
O O4 0.953582 0.420814 0.514991
O O5 0.500000 0.019892 0.250000
O O6 0.757042 0.064674 0.055257
O O7 0.581200 0.109296 0.063891
O O8 0.674301 0.224959 0.489354
O O9 0.000000 0.191392 0.250000
O O10 0.888664 0.242353 0.210543
O O11 0.419130 0.326729 0.030913
O O12 0.485427 0.199791 0.023399
O O13 0.719667 0.880607 0.293738
O O14 0.509388 0.432459 0.428312
O O15 0.653827 0.452433 0.447255
#
# Coordination Sequence:
#
# PCOD9304245 Si02
#       7
#     8   8   8   8   8   8   8
#     4  11  23  43  70 100 137 177 220 282 350 398
#     4  12  24  42  72 103 134 176 234 276 342 416
#     4  11  24  41  65  99 135 177 226 274 337 417
#     4  11  23  43  68  91 138 184 219 276 340 400
#     4  11  23  44  69  94 137 181 221 278 333 410
#     4  11  23  43  66  99 138 174 223 278 350 392
#     4  11  24  42  71  99 136 176 219 291 345 399
#
# _framework density 20.719093999999998
#
# number of rings (size 3 to 8) (size 9 to 14) (size 15 to 20)
#    0.000    0.857    5.714    1.714    2.000    0.571 
#    0.000    0.714    0.000    0.000    0.000    0.000 
#    0.000    0.000    0.000    0.000    0.000    0.000 
#
# Total GULP energy -156146.138741 kJ/mol
# GULP energy per Si atom -5576.647812 kJ/mol
# Density = 2.067194 g / cm^3
# Si number density = 20.719094 Si / 1000 Ang^3
#
#
#
# Elastic Constant Matrix: (Units=GPa)
#
#
# Indices 1 2 3 4 5 6 
#
# 1 111.5737 30.0183 26.5856 -0.0019 -14.7287 0.0013
# 2 30.0183 99.1694 2.5626 0.0000 -8.0740 0.0014
# 3 26.5856 2.5626 82.5205 -0.0016 -22.6655 0.0027
# 4 -0.0019 0.0000 -0.0016 23.2969 0.0020 -9.3200
# 5 -14.7287 -8.0740 -22.6655 0.0020 23.1442 -0.0012
# 6 0.0013 0.0014 0.0027 -9.3200 -0.0012 16.0305
#
#
#
# Elastic Compliance Matrix: (Units=1/GPa)
#
#
# Indices 1 2 3 4 5 6 
#
# 1 0.010785 -0.002920 -0.002433 0.000001 0.003462 0.000000
# 2 -0.002920 0.011220 0.001583 -0.000001 0.003606 -0.000001
# 3 -0.002433 0.001583 0.017208 -0.000001 0.015856 -0.000003
# 4 0.000001 -0.000001 -0.000001 0.055934 -0.000004 0.032519
# 5 0.003462 0.003606 0.015856 -0.000004 0.062197 -0.000001
# 6 0.000000 -0.000001 -0.000003 0.032519 -0.000001 0.081287
#
#
# Mechanical properties :
#
#
# Convention : Reuss Voigt Hill
#
# Bulk Modulus (GPa) = 31.57266 45.73297 38.65281
# Shear Modulus (GPa) = 19.47581 28.10078 23.78830
#
# Velocity S-wave (km/s) = 3.06926 3.68676 3.39209
# Velocity P-wave (km/s) = 5.27560 6.34379 5.83420
#
# Compressibility (1/GPa) = 0.03167298
#
# Stress axis : x y z
#
# Youngs Moduli (GPa) = 92.72112 89.12433 58.11272
#
# Poissons Ratio (x) = 0.26023 0.14139
# Poissons Ratio (y) = 0.27073 -0.09198
# Poissons Ratio (z) = 0.22559 -0.14106
#
# Static dielectric constant tensor:
#      x y z
#    x 1.762980 0.000000 0.016420 
#    y 0.000000 1.752970 0.000000 
#    z 0.016420 0.000000 1.780860 
# 
# From -- ./inp_files/156173.got.cif
#   From: 2010.05.17/outbox.cif.g08.bks.cpg/sg15_79_cif.got.tgz:156173.got - 2010.06.03 18:47:42.
