data_PCOD9304759
_publ_section_title
;
Structure prediction by ZEFSAII (Michael W. Deem and Ramdas Pophale) SiO2 
 PCOD9304759
Probable space group: C 2/C
;
_chemical_formula_sum "Si O2"
_cell_formula_units_Z 56
_cell_length_a 21.030708
_cell_length_b 10.953613
_cell_length_c 22.519323
_cell_angle_alpha 90.000000
_cell_angle_beta 149.378729
_cell_angle_gamma 90.000000
_cell_volume 2642.361583
_symmetry_space_group_name_H-M "C 2/C"
_symmetry_group_IT_number 15
_symmetry_cell_setting 'monoclinic'
loop_
_space_group_symop_operation_xyz
x,y,z
-x,y,1/2-z
-x,-y,-z
x,-y,1/2+z
1/2+x,1/2+y,z
1/2-x,1/2+y,1/2-z
1/2-x,1/2-y,-z
1/2+x,1/2-y,1/2+z
loop_
_atom_site_type_symbol
_atom_site_label
_atom_site_fract_x
_atom_site_fract_y
_atom_site_fract_z
Si Si1 0.937969 0.176063 0.265539
Si Si2 0.592326 0.512533 0.961260
Si Si3 0.988588 0.423113 0.929956
Si Si4 0.611987 0.350865 0.142765
Si Si5 0.771758 0.048567 0.642326
Si Si6 0.811864 0.579048 0.704773
Si Si7 0.616831 0.304603 0.374531
O O1 0.897456 0.312327 0.249059
O O2 0.000000 0.169342 0.250000
O O3 0.814060 0.092425 0.175344
O O4 0.035383 0.112122 0.388963
O O5 0.508117 0.560981 0.947673
O O6 0.577041 0.618001 0.899918
O O7 0.735376 0.492097 0.092797
O O8 0.938852 0.286703 0.899272
O O9 0.894650 0.489342 0.810304
O O10 0.000000 0.500000 0.000000
O O11 0.127409 0.425862 0.015309
O O12 0.690601 0.387117 0.265302
O O13 0.702577 0.370251 0.160022
O O14 0.849443 0.103478 0.650998
O O15 0.500000 0.231683 0.250000
O O16 0.750000 0.250000 0.500000
#
# Coordination Sequence:
#
# PCOD9304759 Si02
#       7
#     8   8   8   8   8   8   8
#     4  11  24  49  72  99 145 190 235 283 363 422
#     4  11  25  47  73 104 142 187 241 292 360 431
#     4  12  27  45  67 105 143 184 238 295 359 427
#     4  11  25  46  73  99 143 186 233 297 361 420
#     4  11  23  46  72 100 140 186 237 297 356 427
#     4  12  29  41  74 107 138 189 241 293 356 435
#     4  12  24  44  74 109 141 192 240 301 370 425
#
# _framework density 21.193162000000001
#
# number of rings (size 3 to 8) (size 9 to 14) (size 15 to 20)
#    0.000    0.571    5.714    2.143   10.000    1.714 
#    0.000    0.000    0.000    0.000    0.000    0.000 
#    0.000    0.000    0.000    0.000    0.000    0.000 
#
# Total GULP energy -156441.954782 kJ/mol
# GULP energy per Si atom -5587.212671 kJ/mol
# Density = 2.114493 g / cm^3
# Si number density = 21.193162 Si / 1000 Ang^3
#
#
#
# Elastic Constant Matrix: (Units=GPa)
#
#
# Indices 1 2 3 4 5 6 
#
# 1 91.7399 30.7958 7.6498 0.0000 5.6449 0.0000
# 2 30.7958 72.7683 55.4392 -0.0001 -12.7276 0.0000
# 3 7.6498 55.4392 155.9480 -0.0001 3.7383 0.0000
# 4 0.0000 -0.0001 -0.0001 26.9210 -0.0001 7.4208
# 5 5.6449 -12.7276 3.7383 -0.0001 32.2041 0.0000
# 6 0.0000 0.0000 0.0000 7.4208 0.0000 26.8407
#
#
#
# Elastic Compliance Matrix: (Units=1/GPa)
#
#
# Indices 1 2 3 4 5 6 
#
# 1 0.014155 -0.009194 0.002728 0.000000 -0.006431 0.000000
# 2 -0.009194 0.027290 -0.009574 0.000000 0.013508 0.000000
# 3 0.002728 -0.009574 0.009812 0.000000 -0.005401 0.000000
# 4 0.000000 0.000000 0.000000 0.040210 0.000000 -0.011117
# 5 -0.006431 0.013508 -0.005401 0.000000 0.038145 0.000000
# 6 0.000000 0.000000 0.000000 -0.011117 0.000000 0.040330
#
#
# Mechanical properties :
#
#
# Convention : Reuss Voigt Hill
#
# Bulk Modulus (GPa) = 52.14651 56.46952 54.30801
# Shear Modulus (GPa) = 23.99067 32.29793 28.14430
#
# Velocity S-wave (km/s) = 3.36817 3.90805 3.64811
# Velocity P-wave (km/s) = 6.30752 6.86053 6.58983
#
# Compressibility (1/GPa) = 0.01917674
#
# Stress axis : x y z
#
# Youngs Moduli (GPa) = 70.64732 36.64334 101.91902
#
# Poissons Ratio (x) = 0.33689 -0.27805
# Poissons Ratio (y) = 0.64951 0.97581
# Poissons Ratio (z) = -0.19274 0.35084
#
# Static dielectric constant tensor:
#      x y z
#    x 1.769400 0.000000 -0.007600 
#    y 0.000000 1.730020 0.000000 
#    z -0.007600 0.000000 1.840820 
# 
# From -- ./inp_files/280014.got.cif
#   From: 2010.05.17/outbox.cif.g08.bks.cpg/sg15_141_cif.got.tgz:280014.got - 2010.06.03 18:47:42.
