data_PCOD9304748
_publ_section_title
;
Structure prediction by ZEFSAII (Michael W. Deem and Ramdas Pophale) SiO2 
 PCOD9304748
Probable space group: C 2/C
;
_chemical_formula_sum "Si O2"
_cell_formula_units_Z 40
_cell_length_a 9.171436
_cell_length_b 11.011352
_cell_length_c 18.690819
_cell_angle_alpha 90.000000
_cell_angle_beta 98.041457
_cell_angle_gamma 90.000000
_cell_volume 1869.023723
_symmetry_space_group_name_H-M "C 2/C"
_symmetry_group_IT_number 15
_symmetry_cell_setting 'monoclinic'
loop_
_space_group_symop_operation_xyz
x,y,z
-x,y,1/2-z
-x,-y,-z
x,-y,1/2+z
1/2+x,1/2+y,z
1/2-x,1/2+y,1/2-z
1/2-x,1/2-y,-z
1/2+x,1/2-y,1/2+z
loop_
_atom_site_type_symbol
_atom_site_label
_atom_site_fract_x
_atom_site_fract_y
_atom_site_fract_z
Si Si1 0.444474 0.895370 0.326155
Si Si2 0.404704 0.681375 0.520984
Si Si3 0.592104 0.912360 0.558289
Si Si4 0.894425 0.916831 0.180471
Si Si5 0.070293 0.144936 0.397013
O O1 0.500000 0.907977 0.250000
O O2 0.269346 0.872834 0.312106
O O3 0.531891 0.784466 0.371326
O O4 0.446527 0.023220 0.369146
O O5 0.250000 0.750000 0.500000
O O6 0.527005 0.782519 0.539718
O O7 0.408490 0.618617 0.598047
O O8 0.450096 0.614601 0.450591
O O9 0.766738 0.889366 0.561634
O O10 0.500000 0.000000 0.500000
O O11 0.000000 0.868306 0.250000
O O12 0.929469 0.060636 0.173553
#
# Coordination Sequence:
#
# PCOD9304748 Si02
#       5
#     8   8   8   8   8
#     4  11  25  45  68  96 140 184 229 285 357 416
#     4  12  23  44  72 100 138 180 233 289 347 420
#     4  11  24  43  68 102 132 178 237 281 347 422
#     4  11  26  44  66 105 139 179 236 290 356 417
#     4  11  23  46  70  97 137 186 230 290 351 420
#
# _framework density 21.401548999999999
#
# number of rings (size 3 to 8) (size 9 to 14) (size 15 to 20)
#    0.000    0.800    4.000    3.000    2.800    2.400 
#    3.600    0.000    0.000    0.000    0.000    0.000 
#    0.000    0.000    0.000    0.000    0.000    0.000 
#
# Total GULP energy -111390.237903 kJ/mol
# GULP energy per Si atom -5569.511895 kJ/mol
# Density = 2.135284 g / cm^3
# Si number density = 21.401549 Si / 1000 Ang^3
#
#
#
# Elastic Constant Matrix: (Units=GPa)
#
#
# Indices 1 2 3 4 5 6 
#
# 1 135.6812 22.9006 77.7849 0.0000 -9.1279 0.0000
# 2 22.9006 40.9028 17.6973 0.0000 -3.3585 0.0000
# 3 77.7849 17.6973 116.0595 0.0000 0.2956 0.0000
# 4 0.0000 0.0000 0.0000 23.1400 0.0000 -4.3986
# 5 -9.1279 -3.3585 0.2956 0.0000 42.2004 0.0000
# 6 0.0000 0.0000 0.0000 -4.3986 0.0000 40.1166
#
#
#
# Elastic Compliance Matrix: (Units=1/GPa)
#
#
# Indices 1 2 3 4 5 6 
#
# 1 0.012707 -0.003446 -0.007997 0.000000 0.002530 0.000000
# 2 -0.003446 0.027299 -0.001857 0.000000 0.001440 0.000000
# 3 -0.007997 -0.001857 0.014264 0.000000 -0.001977 0.000000
# 4 0.000000 0.000000 0.000000 0.044135 0.000000 0.004839
# 5 0.002530 0.001440 -0.001977 0.000000 0.024372 0.000000
# 6 0.000000 0.000000 0.000000 0.004839 0.000000 0.025458
#
#
# Mechanical properties :
#
#
# Convention : Reuss Voigt Hill
#
# Bulk Modulus (GPa) = 36.14023 58.82325 47.48174
# Shear Modulus (GPa) = 27.16513 32.70879 29.93696
#
# Velocity S-wave (km/s) = 3.56660 3.91364 3.74414
# Velocity P-wave (km/s) = 5.82102 6.92584 6.39732
#
# Compressibility (1/GPa) = 0.02767000
#
# Stress axis : x y z
#
# Youngs Moduli (GPa) = 78.69733 36.63098 70.10503
#
# Poissons Ratio (x) = 0.12624 0.56065
# Poissons Ratio (y) = 0.27122 0.13016
# Poissons Ratio (z) = 0.62937 0.06801
#
# Static dielectric constant tensor:
#      x y z
#    x 1.746030 0.000000 0.022820 
#    y 0.000000 1.951710 0.000000 
#    z 0.022820 0.000000 1.732680 
# 
# From -- ./inp_files/187829.got.cif
#   From: 2010.05.17/outbox.cif.g08.bks.cpg/sg15_94_cif.got.tgz:187829.got - 2010.06.03 18:47:42.
