data_PCOD9304589
_publ_section_title
;
Structure prediction by ZEFSAII (Michael W. Deem and Ramdas Pophale) SiO2 
 PCOD9304589
Probable space group: C 2/C
;
_chemical_formula_sum "Si O2"
_cell_formula_units_Z 32
_cell_length_a 9.940046
_cell_length_b 9.933663
_cell_length_c 22.383687
_cell_angle_alpha 90.000000
_cell_angle_beta 45.886077
_cell_angle_gamma 90.000000
_cell_volume 1586.821137
_symmetry_space_group_name_H-M "C 2/C"
_symmetry_group_IT_number 15
_symmetry_cell_setting 'monoclinic'
loop_
_space_group_symop_operation_xyz
x,y,z
-x,y,1/2-z
-x,-y,-z
x,-y,1/2+z
1/2+x,1/2+y,z
1/2-x,1/2+y,1/2-z
1/2-x,1/2-y,-z
1/2+x,1/2-y,1/2+z
loop_
_atom_site_type_symbol
_atom_site_label
_atom_site_fract_x
_atom_site_fract_y
_atom_site_fract_z
Si Si1 0.813373 0.610329 0.779038
Si Si2 0.360853 0.093726 0.005110
Si Si3 0.957109 0.106557 0.194572
Si Si4 0.651013 0.616416 0.956593
O O1 0.873031 0.741496 0.722518
O O2 0.690448 0.500505 0.784171
O O3 0.706286 0.656288 0.872334
O O4 0.000000 0.546953 0.750000
O O5 0.428453 0.247764 0.989374
O O6 0.152236 0.092924 0.098617
O O7 0.320799 0.066733 0.947308
O O8 0.500000 0.000000 0.000000
O O9 0.000000 0.075397 0.250000
O O10 0.500000 0.500000 0.000000
#
# Coordination Sequence:
#
# PCOD9304589 Si02
#       4
#     8   8   8   8
#     4  11  24  45  67  95 133 177 218 270 330 390
#     4  11  25  44  68  97 134 170 218 275 326 389
#     4  11  24  45  65  97 135 171 219 274 329 388
#     4  11  23  45  67  95 133 173 221 267 325 392
#
# _framework density 20.166105000000002
#
# number of rings (size 3 to 8) (size 9 to 14) (size 15 to 20)
#    0.000    1.000    7.500    0.000    3.500    2.000 
#    4.500    0.000    0.000    0.000    0.000    0.000 
#    0.000    0.000    0.000    0.000    0.000    0.000 
#
# Total GULP energy -89313.686497 kJ/mol
# GULP energy per Si atom -5582.105406 kJ/mol
# Density = 2.012021 g / cm^3
# Si number density = 20.166105 Si / 1000 Ang^3
#
#
#
# Elastic Constant Matrix: (Units=GPa)
#
#
# Indices 1 2 3 4 5 6 
#
# 1 155.9568 122.4278 26.3855 0.0000 -5.3189 0.0000
# 2 122.4278 131.4435 33.8221 0.0000 -15.6322 0.0000
# 3 26.3855 33.8221 85.9528 0.0000 -1.1473 0.0000
# 4 0.0000 0.0000 0.0000 20.6935 0.0000 -5.4544
# 5 -5.3189 -15.6322 -1.1473 0.0000 30.3956 0.0000
# 6 0.0000 0.0000 0.0000 -5.4544 0.0000 55.6171
#
#
#
# Elastic Compliance Matrix: (Units=1/GPa)
#
#
# Indices 1 2 3 4 5 6 
#
# 1 0.026002 -0.025770 0.002043 0.000000 -0.008626 0.000000
# 2 -0.025770 0.034586 -0.005524 0.000000 0.013069 0.000000
# 3 0.002043 -0.005524 0.013154 0.000000 -0.001987 0.000000
# 4 0.000000 0.000000 0.000000 0.049607 0.000000 0.004865
# 5 -0.008626 0.013069 -0.001987 0.000000 0.038037 0.000000
# 6 0.000000 0.000000 0.000000 0.004865 0.000000 0.018457
#
#
# Mechanical properties :
#
#
# Convention : Reuss Voigt Hill
#
# Bulk Modulus (GPa) = 65.61562 82.06932 73.84247
# Shear Modulus (GPa) = 20.54017 34.05575 27.29796
#
# Velocity S-wave (km/s) = 3.19493 4.11391 3.68320
# Velocity P-wave (km/s) = 6.79841 7.95932 7.40166
#
# Compressibility (1/GPa) = 0.01524027
#
# Stress axis : x y z
#
# Youngs Moduli (GPa) = 38.45850 28.91320 76.02076
#
# Poissons Ratio (x) = 0.74510 -0.15534
# Poissons Ratio (y) = 0.99108 0.41996
# Poissons Ratio (z) = -0.07858 0.15972
#
# Static dielectric constant tensor:
#      x y z
#    x 1.718200 0.000000 0.026330 
#    y 0.000000 1.696160 0.000000 
#    z 0.026330 0.000000 1.824740 
# 
# From -- ./inp_files/181638.got.cif
#   From: 2010.05.17/outbox.cif.g08.bks.cpg/sg15_91_cif.got.tgz:181638.got - 2010.06.03 18:47:42.
