data_PCOD9304134
_publ_section_title
;
Structure prediction by ZEFSAII (Michael W. Deem and Ramdas Pophale) SiO2 
 PCOD9304134
Probable space group: C 2/C
;
_chemical_formula_sum "Si O2"
_cell_formula_units_Z 60
_cell_length_a 16.599857
_cell_length_b 9.658890
_cell_length_c 17.178079
_cell_angle_alpha 90.000000
_cell_angle_beta 85.892292
_cell_angle_gamma 90.000000
_cell_volume 2747.192500
_symmetry_space_group_name_H-M "C 2/C"
_symmetry_group_IT_number 15
_symmetry_cell_setting 'monoclinic'
loop_
_space_group_symop_operation_xyz
x,y,z
-x,y,1/2-z
-x,-y,-z
x,-y,1/2+z
1/2+x,1/2+y,z
1/2-x,1/2+y,1/2-z
1/2-x,1/2-y,-z
1/2+x,1/2-y,1/2+z
loop_
_atom_site_type_symbol
_atom_site_label
_atom_site_fract_x
_atom_site_fract_y
_atom_site_fract_z
Si Si1 0.741964 0.228656 0.196843
Si Si2 0.029013 0.817581 0.440722
Si Si3 0.500000 0.999296 0.750000
Si Si4 0.598585 0.884877 0.602861
Si Si5 0.782377 0.957292 0.836788
Si Si6 0.961253 0.920753 0.886596
Si Si7 0.133808 0.551530 0.454124
Si Si8 0.585849 0.811005 0.345659
O O1 0.678676 0.163350 0.141460
O O2 0.744897 0.152388 0.279170
O O3 0.723280 0.391742 0.202111
O O4 0.832906 0.223610 0.158051
O O5 0.049753 0.890259 0.520912
O O6 0.094945 0.696096 0.430180
O O7 0.942520 0.737864 0.444702
O O8 0.015118 0.939131 0.378752
O O9 0.425076 0.095282 0.729914
O O10 0.532999 0.915107 0.674689
O O11 0.618179 0.014830 0.545510
O O12 0.875145 0.931442 0.851567
O O13 0.725840 0.956751 0.917729
O O14 0.011090 0.790648 0.853347
O O15 0.089337 0.425847 0.412549
#
# Coordination Sequence:
#
# PCOD9304134 Si02
#       8
#     8   8   4   8   8   8   8   8
#     4  11  26  45  69 100 146 184 232 289 358 416
#     4  11  23  42  69 105 138 177 226 298 347 414
#     4  12  24  42  76 102 134 186 244 284 350 424
#     4  12  23  44  73 105 135 184 238 297 339 418
#     4  11  26  48  69 104 142 189 235 292 350 429
#     4  11  24  44  70 104 146 175 233 291 365 406
#     4  11  24  45  75  99 136 184 247 281 344 422
#     4  11  23  44  69 101 133 189 229 290 347 428
#
# _framework density 21.840478000000001
#
# number of rings (size 3 to 8) (size 9 to 14) (size 15 to 20)
#    0.000    0.800    4.000    3.600    0.000    6.933 
#    0.000    0.000    0.000    0.000    0.000    0.000 
#    0.000    0.000    0.000    0.000    0.000    0.000 
#
# Total GULP energy -167606.761300 kJ/mol
# GULP energy per Si atom -5586.892043 kJ/mol
# Density = 2.179077 g / cm^3
# Si number density = 21.840478 Si / 1000 Ang^3
#
#
#
# Elastic Constant Matrix: (Units=GPa)
#
#
# Indices 1 2 3 4 5 6 
#
# 1 125.9188 48.6434 30.9345 0.0000 22.4260 0.0000
# 2 48.6434 68.4022 0.1396 0.0000 -23.8078 0.0000
# 3 30.9345 0.1396 39.4906 0.0000 -9.6322 0.0000
# 4 0.0000 0.0000 0.0000 24.8643 0.0000 5.7625
# 5 22.4260 -23.8078 -9.6322 0.0000 18.5283 0.0000
# 6 0.0000 0.0000 0.0000 5.7625 0.0000 40.9411
#
#
#
# Elastic Compliance Matrix: (Units=1/GPa)
#
#
# Indices 1 2 3 4 5 6 
#
# 1 -0.004764 0.013178 0.010561 0.000000 0.028189 0.000000
# 2 0.013178 -0.006572 -0.018609 0.000000 -0.034068 0.000000
# 3 0.010561 -0.018609 0.009351 0.000000 -0.031833 0.000000
# 4 0.000000 0.000000 0.000000 0.041575 0.000000 -0.005852
# 5 0.028189 -0.034068 -0.031833 0.000000 -0.040473 0.000000
# 6 0.000000 0.000000 0.000000 -0.005852 0.000000 0.025249
#
#
# Mechanical properties :
#
#
# Convention : Reuss Voigt Hill
#
# Bulk Modulus (GPa) = 120.84869 43.69407 82.27138
# Shear Modulus (GPa) = 296.47834 27.13969 161.80901
#
# Velocity S-wave (km/s) = 11.66370 3.52892 8.61670
# Velocity P-wave (km/s) = 15.38966 6.05424 11.69392
#
# Compressibility (1/GPa) = 0.00827481
#
# Stress axis : x y z
#
# Youngs Moduli (GPa) = -209.90047 -152.16985 106.94151
#
# Poissons Ratio (x) = 2.00528 -1.12942
# Poissons Ratio (y) = 2.76605 1.99009
# Poissons Ratio (z) = 2.21677 -2.83175
#
# Static dielectric constant tensor:
#      x y z
#    x 1.779860 0.000000 -0.003730 
#    y 0.000000 1.823210 0.000000 
#    z -0.003730 0.000000 1.846140 
# 
# From -- ./inp_files/209572.got.cif
#   From: 2010.05.17/outbox.cif.g08.bks.cpg/sg15_105_cif.got.tgz:209572.got - 2010.06.03 18:47:42.
