data_PCOD9304758
_publ_section_title
;
Structure prediction by ZEFSAII (Michael W. Deem and Ramdas Pophale) SiO2 
 PCOD9304758
Probable space group: C 2/C
;
_chemical_formula_sum "Si O2"
_cell_formula_units_Z 48
_cell_length_a 18.692942
_cell_length_b 19.359888
_cell_length_c 9.918852
_cell_angle_alpha 90.000000
_cell_angle_beta 40.232160
_cell_angle_gamma 90.000000
_cell_volume 2318.451333
_symmetry_space_group_name_H-M "C 2/C"
_symmetry_group_IT_number 15
_symmetry_cell_setting 'monoclinic'
loop_
_space_group_symop_operation_xyz
x,y,z
-x,y,1/2-z
-x,-y,-z
x,-y,1/2+z
1/2+x,1/2+y,z
1/2-x,1/2+y,1/2-z
1/2-x,1/2-y,-z
1/2+x,1/2-y,1/2+z
loop_
_atom_site_type_symbol
_atom_site_label
_atom_site_fract_x
_atom_site_fract_y
_atom_site_fract_z
Si Si1 0.089273 0.792550 0.917938
Si Si2 0.642895 0.701259 0.653120
Si Si3 0.429081 0.930346 0.627529
Si Si4 0.757319 0.573695 0.604346
Si Si5 0.853119 0.645608 0.728453
Si Si6 0.249278 0.417103 0.856672
O O1 0.152802 0.728311 0.759587
O O2 0.147672 0.864560 0.797206
O O3 0.105467 0.788262 0.054607
O O4 0.956177 0.786172 0.097601
O O5 0.750000 0.750000 0.500000
O O6 0.679958 0.623211 0.628531
O O7 0.370880 0.933099 0.856048
O O8 0.519395 0.870646 0.489335
O O9 0.333930 0.918064 0.652223
O O10 0.500000 0.000000 0.500000
O O11 0.782116 0.611676 0.709775
O O12 0.713386 0.496423 0.683850
O O13 0.820249 0.608202 0.913663
#
# Coordination Sequence:
#
# PCOD9304758 Si02
#       6
#     8   8   8   8   8   8
#     4  11  26  44  68  99 139 179 227 282 350 414
#     4  11  23  46  71  99 129 182 232 280 334 419
#     4  12  23  41  67 107 136 181 227 285 345 401
#     4  12  23  42  71  97 135 177 240 279 335 410
#     4  12  25  39  68 102 141 178 225 288 341 411
#     4  12  25  44  65 103 145 175 224 288 353 405
#
# _framework density 20.703475999999998
#
# number of rings (size 3 to 8) (size 9 to 14) (size 15 to 20)
#    0.000    0.333    6.667    2.500    2.333    0.667 
#    0.000    0.833    0.000    0.000    0.000    0.000 
#    0.000    0.000    0.000    0.000    0.000    0.000 
#
# Total GULP energy -134056.208513 kJ/mol
# GULP energy per Si atom -5585.675355 kJ/mol
# Density = 2.065635 g / cm^3
# Si number density = 20.703476 Si / 1000 Ang^3
#
#
#
# Elastic Constant Matrix: (Units=GPa)
#
#
# Indices 1 2 3 4 5 6 
#
# 1 48.2248 14.4126 4.9232 0.0000 1.8750 0.0000
# 2 14.4126 154.7980 31.1552 0.0000 -20.8752 0.0000
# 3 4.9232 31.1552 79.3064 0.0000 -4.0437 0.0000
# 4 0.0000 0.0000 0.0000 27.8399 0.0000 0.2103
# 5 1.8750 -20.8752 -4.0437 0.0000 25.9574 0.0000
# 6 0.0000 0.0000 0.0000 0.2103 0.0000 26.3525
#
#
#
# Elastic Compliance Matrix: (Units=1/GPa)
#
#
# Indices 1 2 3 4 5 6 
#
# 1 0.021646 -0.002377 -0.000592 0.000000 -0.003568 0.000000
# 2 -0.002377 0.008067 -0.002703 0.000000 0.006238 0.000000
# 3 -0.000592 -0.002703 0.013708 0.000000 0.000004 0.000000
# 4 0.000000 0.000000 0.000000 0.035922 0.000000 -0.000287
# 5 -0.003568 0.006238 0.000004 0.000000 0.043800 0.000000
# 6 0.000000 0.000000 0.000000 -0.000287 0.000000 0.037949
#
#
# Mechanical properties :
#
#
# Convention : Reuss Voigt Hill
#
# Bulk Modulus (GPa) = 31.17598 42.59013 36.88305
# Shear Modulus (GPa) = 27.30325 31.48584 29.39454
#
# Velocity S-wave (km/s) = 3.63544 3.90397 3.77209
# Velocity P-wave (km/s) = 5.71952 6.39824 6.06838
#
# Compressibility (1/GPa) = 0.03207598
#
# Stress axis : x y z
#
# Youngs Moduli (GPa) = 46.19828 123.96686 72.94870
#
# Poissons Ratio (x) = 0.29472 0.04316
# Poissons Ratio (y) = 0.10983 0.19720
# Poissons Ratio (z) = 0.02733 0.33512
#
# Static dielectric constant tensor:
#      x y z
#    x 1.767580 0.000000 -0.036870 
#    y 0.000000 1.778300 0.000000 
#    z -0.036870 0.000000 1.777180 
# 
# From -- ./inp_files/119361.got.cif
#   From: 2010.05.17/outbox.cif.g08.bks.cpg/sg15_60_cif.got.tgz:119361.got - 2010.06.03 18:47:42.
