data_PCOD9304448
_publ_section_title
;
Structure prediction by ZEFSAII (Michael W. Deem and Ramdas Pophale) SiO2 
 PCOD9304448
Probable space group: C 2/C
;
_chemical_formula_sum "Si O2"
_cell_formula_units_Z 48
_cell_length_a 15.377908
_cell_length_b 29.068186
_cell_length_c 9.001641
_cell_angle_alpha 90.000000
_cell_angle_beta 37.775644
_cell_angle_gamma 90.000000
_cell_volume 2464.866417
_symmetry_space_group_name_H-M "C 2/C"
_symmetry_group_IT_number 15
_symmetry_cell_setting 'monoclinic'
loop_
_space_group_symop_operation_xyz
x,y,z
-x,y,1/2-z
-x,-y,-z
x,-y,1/2+z
1/2+x,1/2+y,z
1/2-x,1/2+y,1/2-z
1/2-x,1/2-y,-z
1/2+x,1/2-y,1/2+z
loop_
_atom_site_type_symbol
_atom_site_label
_atom_site_fract_x
_atom_site_fract_y
_atom_site_fract_z
Si Si1 0.392153 0.986961 0.515059
Si Si2 0.653981 0.248753 0.982285
Si Si3 0.663246 0.909587 0.497396
Si Si4 0.288600 0.333934 0.127385
Si Si5 0.398260 0.335638 0.655351
Si Si6 0.351556 0.576732 0.018350
O O1 0.500000 0.964090 0.250000
O O2 0.259491 0.958064 0.754386
O O3 0.500000 0.000000 0.500000
O O4 0.334977 0.035395 0.528960
O O5 0.703456 0.209614 0.802473
O O6 0.643762 0.296612 0.906311
O O7 0.500000 0.236863 0.250000
O O8 0.750000 0.250000 0.000000
O O9 0.500000 0.897154 0.750000
O O10 0.719333 0.880673 0.283015
O O11 0.763863 0.900242 0.501794
O O12 0.301268 0.334398 0.933091
O O13 0.443427 0.329146 0.994332
O O14 0.391264 0.384385 0.583008
O O15 0.500000 0.557384 0.750000
#
# Coordination Sequence:
#
# PCOD9304448 Si02
#       6
#     8   8   8   8   8   8
#     4  11  24  46  68  97 138 177 222 280 333 392
#     4  12  23  44  71  96 131 176 219 266 331 398
#     4  11  23  44  68  96 133 178 221 271 335 399
#     4  11  24  44  66 100 134 170 222 273 332 393
#     4  11  25  43  66  98 140 169 215 282 330 388
#     4  12  24  44  70  99 135 178 226 273 336 401
#
# _framework density 19.473672000000001
#
# number of rings (size 3 to 8) (size 9 to 14) (size 15 to 20)
#    0.000    0.667    6.667    2.500    2.333    0.667 
#    3.000    1.667    0.000    0.000    0.000    0.000 
#    0.000    0.000    0.000    0.000    0.000    0.000 
#
# Total GULP energy -134088.080230 kJ/mol
# GULP energy per Si atom -5587.003343 kJ/mol
# Density = 1.942935 g / cm^3
# Si number density = 19.473672 Si / 1000 Ang^3
#
#
#
# Elastic Constant Matrix: (Units=GPa)
#
#
# Indices 1 2 3 4 5 6 
#
# 1 89.6679 3.9846 40.8352 0.0000 -3.2308 0.0000
# 2 3.9846 80.5314 60.6928 0.0000 2.5222 0.0000
# 3 40.8352 60.6928 190.7124 0.0000 -1.4407 0.0000
# 4 0.0000 0.0000 0.0000 35.6844 0.0000 14.0127
# 5 -3.2308 2.5222 -1.4407 0.0000 31.9654 0.0000
# 6 0.0000 0.0000 0.0000 14.0127 0.0000 -6.3417
#
#
#
# Elastic Compliance Matrix: (Units=1/GPa)
#
#
# Indices 1 2 3 4 5 6 
#
# 1 0.012594 0.001806 -0.003264 0.000000 0.000983 0.000000
# 2 0.001806 0.016669 -0.005702 0.000000 -0.001390 0.000000
# 3 -0.003264 -0.005702 0.007761 0.000000 0.000470 0.000000
# 4 0.000000 0.000000 0.000000 0.015004 0.000000 0.033154
# 5 0.000983 -0.001390 0.000470 0.000000 0.031514 0.000000
# 6 0.000000 0.000000 0.000000 0.033154 0.000000 -0.084429
#
#
# Mechanical properties :
#
#
# Convention : Reuss Voigt Hill
#
# Bulk Modulus (GPa) = 44.04611 63.54856 53.79734
# Shear Modulus (GPa) = 238.08874 29.28821 133.68848
#
# Velocity S-wave (km/s) = 11.06920 3.88234 8.29457
# Velocity P-wave (km/s) = 13.63954 7.26641 10.92789
#
# Compressibility (1/GPa) = 0.02270348
#
# Stress axis : x y z
#
# Youngs Moduli (GPa) = 79.40397 59.99161 128.85748
#
# Poissons Ratio (x) = -0.10834 0.42057
# Poissons Ratio (y) = -0.14340 0.73474
# Poissons Ratio (z) = 0.25916 0.34207
#
# Static dielectric constant tensor:
#      x y z
#    x 1.606930 0.000000 0.009780 
#    y 0.000000 1.673250 0.000000 
#    z 0.009780 0.000000 1.699410 
# 
# From -- ./inp_files/44419.got.cif
#   From: 2010.05.17/outbox.cif.g08.bks.cpg/sg15_23_cif.got.tgz:44419.got - 2010.06.03 18:47:42.
