data_PCOD9304683
_publ_section_title
;
Structure prediction by ZEFSAII (Michael W. Deem and Ramdas Pophale) SiO2 
 PCOD9304683
Probable space group: C 2/C
;
_chemical_formula_sum "Si O2"
_cell_formula_units_Z 40
_cell_length_a 25.647606
_cell_length_b 10.954557
_cell_length_c 13.150471
_cell_angle_alpha 90.000000
_cell_angle_beta 147.426489
_cell_angle_gamma 90.000000
_cell_volume 1989.174499
_symmetry_space_group_name_H-M "C 2/C"
_symmetry_group_IT_number 15
_symmetry_cell_setting 'monoclinic'
loop_
_space_group_symop_operation_xyz
x,y,z
-x,y,1/2-z
-x,-y,-z
x,-y,1/2+z
1/2+x,1/2+y,z
1/2-x,1/2+y,1/2-z
1/2-x,1/2-y,-z
1/2+x,1/2-y,1/2+z
loop_
_atom_site_type_symbol
_atom_site_label
_atom_site_fract_x
_atom_site_fract_y
_atom_site_fract_z
Si Si1 0.776800 0.642477 0.967753
Si Si2 0.890518 0.952944 0.817806
Si Si3 0.598164 0.285779 0.854313
Si Si4 0.595834 0.944834 0.205982
Si Si5 0.804447 0.726595 0.791251
O O1 0.681180 0.565129 0.784146
O O2 0.818306 0.695678 0.931411
O O3 0.750000 0.750000 0.000000
O O4 0.848050 0.549630 0.141527
O O5 0.872825 0.889571 0.679208
O O6 0.862638 0.847343 0.852360
O O7 0.000000 0.000000 0.000000
O O8 0.500000 0.321653 0.750000
O O9 0.575946 0.164823 0.752064
O O10 0.690421 0.258289 0.077143
O O11 0.657950 0.883574 0.217839
O O12 0.500000 0.000000 0.000000
#
# Coordination Sequence:
#
# PCOD9304683 Si02
#       5
#     8   8   8   8   8
#     4  12  28  43  72 106 138 178 241 291 346 418
#     4  11  24  47  70 103 142 181 232 288 351 422
#     4  11  23  45  74  97 134 197 229 277 365 413
#     4  11  26  45  70 101 143 184 237 287 347 424
#     4  11  25  48  71  97 145 189 227 293 355 413
#
# _framework density 20.108843
#
# number of rings (size 3 to 8) (size 9 to 14) (size 15 to 20)
#    0.000    0.800    4.000    2.400   14.000    1.600 
#    0.000    0.000    0.000    0.000    0.000    0.000 
#    0.000    0.000    0.000    0.000    0.000    0.000 
#
# Total GULP energy -111905.983068 kJ/mol
# GULP energy per Si atom -5595.299153 kJ/mol
# Density = 2.006307 g / cm^3
# Si number density = 20.108843 Si / 1000 Ang^3
#
#
#
# Elastic Constant Matrix: (Units=GPa)
#
#
# Indices 1 2 3 4 5 6 
#
# 1 144.2732 63.2086 39.7996 0.0000 -14.6804 0.0000
# 2 63.2086 104.6927 39.1154 0.0000 -9.0234 0.0000
# 3 39.7996 39.1154 110.7338 0.0000 12.7779 0.0000
# 4 0.0000 0.0000 0.0000 34.2435 0.0000 10.2664
# 5 -14.6804 -9.0234 12.7779 0.0000 42.5374 0.0000
# 6 0.0000 0.0000 0.0000 10.2664 0.0000 22.8775
#
#
#
# Elastic Compliance Matrix: (Units=1/GPa)
#
#
# Indices 1 2 3 4 5 6 
#
# 1 0.010027 -0.004966 -0.002204 0.000000 0.003069 0.000000
# 2 -0.004966 0.014032 -0.003437 0.000000 0.002295 0.000000
# 3 -0.002204 -0.003437 0.011611 0.000000 -0.004977 0.000000
# 4 0.000000 0.000000 0.000000 0.033742 0.000000 -0.015142
# 5 0.003069 0.002295 -0.004977 0.000000 0.026550 0.000000
# 6 0.000000 0.000000 0.000000 -0.015142 0.000000 0.050506
#
#
# Mechanical properties :
#
#
# Convention : Reuss Voigt Hill
#
# Bulk Modulus (GPa) = 69.16987 71.54966 70.35976
# Shear Modulus (GPa) = 28.98542 34.43675 31.71109
#
# Velocity S-wave (km/s) = 3.80073 4.14275 3.97542
# Velocity P-wave (km/s) = 7.33029 7.65125 7.49249
#
# Compressibility (1/GPa) = 0.01445716
#
# Stress axis : x y z
#
# Youngs Moduli (GPa) = 99.72784 71.26674 86.12471
#
# Poissons Ratio (x) = 0.35391 0.18981
# Poissons Ratio (y) = 0.49525 0.29597
# Poissons Ratio (z) = 0.21979 0.24491
#
# Static dielectric constant tensor:
#      x y z
#    x 1.742670 0.000000 0.101980 
#    y 0.000000 1.652740 0.000000 
#    z 0.101980 0.000000 1.981450 
# 
# From -- ./inp_files/122850.got.cif
#   From: 2010.05.17/outbox.cif.g08.bks.cpg/sg15_62_cif.got.tgz:122850.got - 2010.06.03 18:47:42.
