data_PCOD9304831
_publ_section_title
;
Structure prediction by ZEFSAII (Michael W. Deem and Ramdas Pophale) SiO2 
 PCOD9304831
Probable space group: C 2/C
;
_chemical_formula_sum "Si O2"
_cell_formula_units_Z 44
_cell_length_a 8.222776
_cell_length_b 11.736809
_cell_length_c 24.556858
_cell_angle_alpha 90.000000
_cell_angle_beta 127.880190
_cell_angle_gamma 90.000000
_cell_volume 1870.602163
_symmetry_space_group_name_H-M "C 2/C"
_symmetry_group_IT_number 15
_symmetry_cell_setting 'monoclinic'
loop_
_space_group_symop_operation_xyz
x,y,z
-x,y,1/2-z
-x,-y,-z
x,-y,1/2+z
1/2+x,1/2+y,z
1/2-x,1/2+y,1/2-z
1/2-x,1/2-y,-z
1/2+x,1/2-y,1/2+z
loop_
_atom_site_type_symbol
_atom_site_label
_atom_site_fract_x
_atom_site_fract_y
_atom_site_fract_z
Si Si1 0.404131 0.586430 0.062687
Si Si2 0.750942 0.223702 0.207487
Si Si3 0.836935 0.989243 0.668365
Si Si4 0.500000 0.122571 0.250000
Si Si5 0.016491 0.345146 0.421627
Si Si6 0.755233 0.931334 0.366710
O O1 0.426291 0.563674 0.131700
O O2 0.488133 0.711859 0.066311
O O3 0.540862 0.486134 0.066335
O O4 0.167866 0.591503 0.995193
O O5 0.689218 0.111043 0.161003
O O6 0.657274 0.199757 0.247344
O O7 0.683030 0.341964 0.167509
O O8 0.000000 0.226782 0.250000
O O9 0.000000 0.012321 0.750000
O O10 0.705035 0.098510 0.626341
O O11 0.625448 0.035353 0.314501
O O12 0.123717 0.364985 0.384891
#
# Coordination Sequence:
#
# PCOD9304831 Si02
#       6
#     8   8   8   4   8   8
#     4  11  26  47  73 105 143 201 241 297 379 435
#     4  11  24  46  68 107 152 189 241 310 378 439
#     4  11  23  47  71 106 146 188 244 307 367 435
#     4  12  26  44  72 108 148 196 242 308 386 434
#     4  11  25  49  74 101 149 191 246 302 363 454
#     4  12  24  46  69 104 144 189 246 306 363 445
#
# _framework density 23.521836
#
# number of rings (size 3 to 8) (size 9 to 14) (size 15 to 20)
#    0.000    0.727    4.545    3.273    0.000    1.455 
#    8.182    0.909    0.000    0.000    0.000    0.000 
#    0.000    0.000    0.000    0.000    0.000    0.000 
#
# Total GULP energy -123142.172526 kJ/mol
# GULP energy per Si atom -5597.371478 kJ/mol
# Density = 2.346830 g / cm^3
# Si number density = 23.521836 Si / 1000 Ang^3
#
#
#
# Elastic Constant Matrix: (Units=GPa)
#
#
# Indices 1 2 3 4 5 6 
#
# 1 85.4199 30.6534 9.1137 0.0000 -7.7798 0.0000
# 2 30.6534 105.3197 27.4991 0.0000 19.3030 0.0000
# 3 9.1137 27.4991 114.8982 0.0000 8.0950 0.0000
# 4 0.0000 0.0000 0.0000 14.5338 0.0000 5.4874
# 5 -7.7798 19.3030 8.0950 0.0000 32.3960 0.0000
# 6 0.0000 0.0000 0.0000 5.4874 0.0000 19.2465
#
#
#
# Elastic Compliance Matrix: (Units=1/GPa)
#
#
# Indices 1 2 3 4 5 6 
#
# 1 0.014241 -0.005276 -0.000335 0.000000 0.006647 0.000000
# 2 -0.005276 0.013157 -0.002126 0.000000 -0.008575 0.000000
# 3 -0.000335 -0.002126 0.009319 0.000000 -0.001142 0.000000
# 4 0.000000 0.000000 0.000000 0.077105 0.000000 -0.021984
# 5 0.006647 -0.008575 -0.001142 0.000000 0.037859 0.000000
# 6 0.000000 0.000000 0.000000 -0.021984 0.000000 0.058225
#
#
# Mechanical properties :
#
#
# Convention : Reuss Voigt Hill
#
# Bulk Modulus (GPa) = 47.07390 48.90780 47.99085
# Shear Modulus (GPa) = 21.50874 29.12669 25.31772
#
# Velocity S-wave (km/s) = 3.02721 3.52274 3.28434
# Velocity P-wave (km/s) = 5.68111 6.11424 5.90165
#
# Compressibility (1/GPa) = 0.02124319
#
# Stress axis : x y z
#
# Youngs Moduli (GPa) = 70.21835 76.00352 107.30372
#
# Poissons Ratio (x) = 0.40097 0.03598
# Poissons Ratio (y) = 0.37045 0.22817
# Poissons Ratio (z) = 0.02354 0.16161
#
# Static dielectric constant tensor:
#      x y z
#    x 1.937410 0.000000 0.004500 
#    y 0.000000 1.881290 0.000000 
#    z 0.004500 0.000000 1.915290 
# 
# From -- ./inp_files/230212.got.cif
#   From: 2010.05.17/outbox.cif.g08.bks.cpg/sg15_116_cif.got.tgz:230212.got - 2010.06.03 18:47:42.
