data_PCOD9304341
_publ_section_title
;
Structure prediction by ZEFSAII (Michael W. Deem and Ramdas Pophale) SiO2 
 PCOD9304341
Probable space group: C 2/C
;
_chemical_formula_sum "Si O2"
_cell_formula_units_Z 32
_cell_length_a 21.335645
_cell_length_b 8.445997
_cell_length_c 7.492273
_cell_angle_alpha 90.000000
_cell_angle_beta 116.879863
_cell_angle_gamma 90.000000
_cell_volume 1204.242529
_symmetry_space_group_name_H-M "C 2/C"
_symmetry_group_IT_number 15
_symmetry_cell_setting 'monoclinic'
loop_
_space_group_symop_operation_xyz
x,y,z
-x,y,1/2-z
-x,-y,-z
x,-y,1/2+z
1/2+x,1/2+y,z
1/2-x,1/2+y,1/2-z
1/2-x,1/2-y,-z
1/2+x,1/2-y,1/2+z
loop_
_atom_site_type_symbol
_atom_site_label
_atom_site_fract_x
_atom_site_fract_y
_atom_site_fract_z
Si Si1 0.795329 0.499848 0.501776
Si Si2 0.792489 0.183272 0.341618
Si Si3 0.425369 0.586465 0.744571
Si Si4 0.076600 0.260413 0.375173
O O1 0.797668 0.370719 0.342321
O O2 0.726493 0.604807 0.370795
O O3 0.775152 0.375111 0.630682
O O4 0.863818 0.609648 0.585822
O O5 0.861416 0.128050 0.532190
O O6 0.500000 0.628421 0.750000
O O7 0.425354 0.394440 0.756421
O O8 0.416730 0.680959 0.919107
O O9 0.000000 0.337079 0.250000
#
# Coordination Sequence:
#
# PCOD9304341 Si02
#       4
#     8   8   8   8
#     4  11  25  45  70  99 138 181 232 286 341 408
#     4  11  24  44  70 102 133 179 232 284 345 407
#     4  11  23  43  71 104 142 182 229 279 342 416
#     4  11  24  43  69 103 142 185 228 281 343 410
#
# _framework density 26.57272
#
# number of rings (size 3 to 8) (size 9 to 14) (size 15 to 20)
#    0.000    1.000    0.000    9.000    0.000    9.000 
#    0.000    3.750    0.000    0.000    0.000    0.000 
#    0.000    0.000    0.000    0.000    0.000    0.000 
#
# Total GULP energy -89591.301468 kJ/mol
# GULP energy per Si atom -5599.456342 kJ/mol
# Density = 2.651224 g / cm^3
# Si number density = 26.572720 Si / 1000 Ang^3
#
#
#
# Elastic Constant Matrix: (Units=GPa)
#
#
# Indices 1 2 3 4 5 6 
#
# 1 196.3667 80.4082 69.9233 0.0000 16.5696 0.0000
# 2 80.4082 173.8228 28.0937 0.0000 14.2149 0.0000
# 3 69.9233 28.0937 111.8038 0.0000 23.1264 0.0000
# 4 0.0000 0.0000 0.0000 52.2909 0.0000 10.9937
# 5 16.5696 14.2149 23.1264 0.0000 65.5099 0.0000
# 6 0.0000 0.0000 0.0000 10.9937 0.0000 52.1352
#
#
#
# Elastic Compliance Matrix: (Units=1/GPa)
#
#
# Indices 1 2 3 4 5 6 
#
# 1 0.007756 -0.002929 -0.004143 0.000000 0.000136 0.000000
# 2 -0.002929 0.007145 0.000220 0.000000 -0.000887 0.000000
# 3 -0.004143 0.000220 0.012161 0.000000 -0.003293 0.000000
# 4 0.000000 0.000000 0.000000 0.020011 0.000000 -0.004220
# 5 0.000136 -0.000887 -0.003293 0.000000 0.016585 0.000000
# 6 0.000000 0.000000 0.000000 -0.004220 0.000000 0.020071
#
#
# Mechanical properties :
#
#
# Convention : Reuss Voigt Hill
#
# Bulk Modulus (GPa) = 74.86118 93.20485 84.03301
# Shear Modulus (GPa) = 49.07510 54.22507 51.65008
#
# Velocity S-wave (km/s) = 4.30213 4.52223 4.41355
# Velocity P-wave (km/s) = 7.27400 7.90057 7.59375
#
# Compressibility (1/GPa) = 0.01335806
#
# Stress axis : x y z
#
# Youngs Moduli (GPa) = 128.93922 139.95811 82.23072
#
# Poissons Ratio (x) = 0.40997 0.34065
# Poissons Ratio (y) = 0.37770 -0.01810
# Poissons Ratio (z) = 0.53414 -0.03081
#
# Static dielectric constant tensor:
#      x y z
#    x 2.177680 0.000000 -0.187490 
#    y 0.000000 2.084410 0.000000 
#    z -0.187490 0.000000 2.251100 
# 
# From -- ./inp_files/59819.got.cif
#   From: 2010.05.17/outbox.cif.g08.bks.cpg/sg15_30_cif.got.tgz:59819.got - 2010.06.03 18:47:42.
