data_PCOD9304334
_publ_section_title
;
Structure prediction by ZEFSAII (Michael W. Deem and Ramdas Pophale) SiO2 
 PCOD9304334
Probable space group: C 2/C
;
_chemical_formula_sum "Si O2"
_cell_formula_units_Z 40
_cell_length_a 4.782570
_cell_length_b 18.299503
_cell_length_c 17.708700
_cell_angle_alpha 90.000000
_cell_angle_beta 76.801323
_cell_angle_gamma 90.000000
_cell_volume 1508.901246
_symmetry_space_group_name_H-M "C 2/C"
_symmetry_group_IT_number 15
_symmetry_cell_setting 'monoclinic'
loop_
_space_group_symop_operation_xyz
x,y,z
-x,y,1/2-z
-x,-y,-z
x,-y,1/2+z
1/2+x,1/2+y,z
1/2-x,1/2+y,1/2-z
1/2-x,1/2-y,-z
1/2+x,1/2-y,1/2+z
loop_
_atom_site_type_symbol
_atom_site_label
_atom_site_fract_x
_atom_site_fract_y
_atom_site_fract_z
Si Si1 0.765862 0.099841 0.830263
Si Si2 0.641339 0.378190 0.590327
Si Si3 0.097233 0.540759 0.157539
Si Si4 0.532404 0.311893 0.048540
Si Si5 0.806065 0.738711 0.325582
O O1 0.857526 0.117279 0.911489
O O2 0.678294 0.182139 0.812465
O O3 0.000000 0.078189 0.750000
O O4 0.516314 0.041002 0.847918
O O5 0.931534 0.403337 0.611783
O O6 0.668048 0.344160 0.504356
O O7 0.439564 0.317297 0.640318
O O8 0.430103 0.448213 0.616321
O O9 0.000000 0.554650 0.250000
O O10 0.460676 0.261980 0.124739
O O11 0.750000 0.250000 0.000000
O O12 0.000000 0.706687 0.250000
#
# Coordination Sequence:
#
# PCOD9304334 Si02
#       5
#     8   8   8   8   8
#     4   9  19  40  69  98 138 181 223 271 333 407
#     4  11  23  43  71 100 137 173 224 283 342 396
#     4  12  26  44  66  98 136 178 226 281 337 402
#     4   8  17  38  69 101 137 173 224 280 334 398
#     4   8  17  39  69  99 133 181 226 273 332 406
#
# _framework density 26.509357000000001
#
# number of rings (size 3 to 8) (size 9 to 14) (size 15 to 20)
#    1.200    1.200    0.000    2.400    0.000    1.600 
#    0.000   19.000    0.000    0.000    0.000    0.000 
#    0.000    0.000    0.000    0.000    0.000    0.000 
#
# Total GULP energy -111543.215960 kJ/mol
# GULP energy per Si atom -5577.160798 kJ/mol
# Density = 2.644902 g / cm^3
# Si number density = 26.509357 Si / 1000 Ang^3
#
#
#
# Elastic Constant Matrix: (Units=GPa)
#
#
# Indices 1 2 3 4 5 6 
#
# 1 93.1015 17.4862 26.6831 0.0000 8.4240 0.0000
# 2 17.4862 149.9884 4.6295 0.0000 -3.3442 0.0000
# 3 26.6831 4.6295 136.2518 0.0000 26.1868 0.0000
# 4 0.0000 0.0000 0.0000 48.7182 0.0000 -4.1849
# 5 8.4240 -3.3442 26.1868 0.0000 28.9219 0.0000
# 6 0.0000 0.0000 0.0000 -4.1849 0.0000 27.3167
#
#
#
# Elastic Compliance Matrix: (Units=1/GPa)
#
#
# Indices 1 2 3 4 5 6 
#
# 1 0.011703 -0.001347 -0.001890 0.000000 -0.001853 0.000000
# 2 -0.001347 0.006863 -0.000239 0.000000 0.001402 0.000000
# 3 -0.001890 -0.000239 0.009222 0.000000 -0.007827 0.000000
# 4 0.000000 0.000000 0.000000 0.020800 0.000000 0.003187
# 5 -0.001853 0.001402 -0.007827 0.000000 0.042365 0.000000
# 6 0.000000 0.000000 0.000000 0.003187 0.000000 0.037096
#
#
# Mechanical properties :
#
#
# Convention : Reuss Voigt Hill
#
# Bulk Modulus (GPa) = 47.99430 52.99324 50.49377
# Shear Modulus (GPa) = 35.22460 43.02755 39.12607
#
# Velocity S-wave (km/s) = 3.64917 4.03315 3.84596
# Velocity P-wave (km/s) = 5.99160 6.45927 6.22983
#
# Compressibility (1/GPa) = 0.02083581
#
# Stress axis : x y z
#
# Youngs Moduli (GPa) = 85.44529 145.71095 108.43773
#
# Poissons Ratio (x) = 0.19633 0.20494
# Poissons Ratio (y) = 0.11513 0.02590
# Poissons Ratio (z) = 0.16149 0.03480
#
# Static dielectric constant tensor:
#      x y z
#    x 2.768620 0.000000 -0.213360 
#    y 0.000000 2.099500 0.000000 
#    z -0.213360 0.000000 2.266900 
# 
# From -- ./inp_files/184691.got.cif
#   From: 2010.05.17/outbox.cif.g08.bks.cpg/sg15_93_cif.got.tgz:184691.got - 2010.06.03 18:47:42.
