data_PCOD9304492
_publ_section_title
;
Structure prediction by ZEFSAII (Michael W. Deem and Ramdas Pophale) SiO2 
 PCOD9304492
Probable space group: C 2/C
;
_chemical_formula_sum "Si O2"
_cell_formula_units_Z 48
_cell_length_a 10.799313
_cell_length_b 20.627732
_cell_length_c 11.279998
_cell_angle_alpha 90.000000
_cell_angle_beta 129.044584
_cell_angle_gamma 90.000000
_cell_volume 1951.575463
_symmetry_space_group_name_H-M "C 2/C"
_symmetry_group_IT_number 15
_symmetry_cell_setting 'monoclinic'
loop_
_space_group_symop_operation_xyz
x,y,z
-x,y,1/2-z
-x,-y,-z
x,-y,1/2+z
1/2+x,1/2+y,z
1/2-x,1/2+y,1/2-z
1/2-x,1/2-y,-z
1/2+x,1/2-y,1/2+z
loop_
_atom_site_type_symbol
_atom_site_label
_atom_site_fract_x
_atom_site_fract_y
_atom_site_fract_z
Si Si1 0.628513 0.760162 0.085849
Si Si2 0.859797 0.902783 0.519989
Si Si3 0.219355 0.116140 0.787159
Si Si4 0.000000 0.786401 0.750000
Si Si5 0.434156 0.933003 0.009967
Si Si6 0.500000 0.510563 0.750000
Si Si7 0.380486 0.836149 0.780147
O O1 0.766699 0.813640 0.146555
O O2 0.580259 0.756318 0.196154
O O3 0.719961 0.692312 0.127804
O O4 0.478447 0.781331 0.915472
O O5 0.874017 0.885964 0.391828
O O6 0.688537 0.931512 0.456309
O O7 0.886572 0.836563 0.610268
O O8 0.979734 0.960116 0.630113
O O9 0.148539 0.058816 0.823758
O O10 0.403493 0.104453 0.865617
O O11 0.349621 0.894386 0.851649
O O12 0.500000 0.000000 0.000000
O O13 0.500000 0.858204 0.750000
#
# Coordination Sequence:
#
# PCOD9304492 Si02
#       7
#     8   8   8   4   8   4   8
#     4  11  25  44  70 101 142 176 235 289 345 422
#     4  11  23  44  70  96 135 178 236 283 345 410
#     4  11  25  41  68  99 135 185 223 291 344 418
#     4  11  24  44  72 100 130 177 228 290 348 403
#     4  11  23  46  65 100 136 175 235 285 348 406
#     4  11  24  46  62 100 140 179 234 280 350 413
#     4  11  25  45  69 101 139 189 227 285 350 420
#
# _framework density 24.595513
#
# number of rings (size 3 to 8) (size 9 to 14) (size 15 to 20)
#    0.000    1.000    3.333    2.500    5.833    2.667 
#    6.000    0.000    0.000    0.000    0.000    0.000 
#    0.000    0.000    0.000    0.000    0.000    0.000 
#
# Total GULP energy -134223.674265 kJ/mol
# GULP energy per Si atom -5592.653094 kJ/mol
# Density = 2.453953 g / cm^3
# Si number density = 24.595513 Si / 1000 Ang^3
#
#
#
# Elastic Constant Matrix: (Units=GPa)
#
#
# Indices 1 2 3 4 5 6 
#
# 1 67.3191 8.5181 -0.5517 0.0000 -0.7630 0.0000
# 2 8.5181 114.4349 27.6963 0.0000 9.8746 0.0000
# 3 -0.5517 27.6963 70.6705 0.0000 -7.9169 0.0000
# 4 0.0000 0.0000 0.0000 21.6134 0.0000 4.9869
# 5 -0.7630 9.8746 -7.9169 0.0000 39.9668 0.0000
# 6 0.0000 0.0000 0.0000 4.9869 0.0000 32.0533
#
#
#
# Elastic Compliance Matrix: (Units=1/GPa)
#
#
# Indices 1 2 3 4 5 6 
#
# 1 0.015042 -0.001365 0.000739 0.000000 0.000771 0.000000
# 2 -0.001365 0.010197 -0.004390 0.000000 -0.003415 0.000000
# 3 0.000739 -0.004390 0.016362 0.000000 0.004340 0.000000
# 4 0.000000 0.000000 0.000000 0.047990 0.000000 -0.007466
# 5 0.000771 -0.003415 0.004340 0.000000 0.026739 0.000000
# 6 0.000000 0.000000 0.000000 -0.007466 0.000000 0.032360
#
#
# Mechanical properties :
#
#
# Convention : Reuss Voigt Hill
#
# Bulk Modulus (GPa) = 31.67552 35.97219 33.82385
# Shear Modulus (GPa) = 29.54284 33.17749 31.36017
#
# Velocity S-wave (km/s) = 3.46952 3.67676 3.57464
# Velocity P-wave (km/s) = 5.38113 5.71681 5.55151
#
# Compressibility (1/GPa) = 0.03157012
#
# Stress axis : x y z
#
# Youngs Moduli (GPa) = 66.47990 98.06532 61.11557
#
# Poissons Ratio (x) = 0.13386 -0.04515
# Poissons Ratio (y) = 0.09074 0.26827
# Poissons Ratio (z) = -0.04911 0.43047
#
# Static dielectric constant tensor:
#      x y z
#    x 1.969580 0.000000 0.023260 
#    y 0.000000 2.086650 0.000000 
#    z 0.023260 0.000000 1.970060 
# 
# From -- ./inp_files/89455.got.cif
#   From: 2010.05.17/outbox.cif.g08.bks.cpg/sg15_45_cif.got.tgz:89455.got - 2010.06.03 18:47:42.
