data_PCOD9304971
_publ_section_title
;
Structure prediction by ZEFSAII (Michael W. Deem and Ramdas Pophale) SiO2 
 PCOD9304971
Probable space group: C 2/C
;
_chemical_formula_sum "Si O2"
_cell_formula_units_Z 52
_cell_length_a 6.584137
_cell_length_b 18.644818
_cell_length_c 28.739623
_cell_angle_alpha 90.000000
_cell_angle_beta 124.941456
_cell_angle_gamma 90.000000
_cell_volume 2892.097813
_symmetry_space_group_name_H-M "C 2/C"
_symmetry_group_IT_number 15
_symmetry_cell_setting 'monoclinic'
loop_
_space_group_symop_operation_xyz
x,y,z
-x,y,1/2-z
-x,-y,-z
x,-y,1/2+z
1/2+x,1/2+y,z
1/2-x,1/2+y,1/2-z
1/2-x,1/2-y,-z
1/2+x,1/2-y,1/2+z
loop_
_atom_site_type_symbol
_atom_site_label
_atom_site_fract_x
_atom_site_fract_y
_atom_site_fract_z
Si Si1 0.500000 0.375000 0.250000
Si Si2 0.452950 0.798334 0.588012
Si Si3 0.672145 0.047960 0.990494
Si Si4 0.762893 0.951666 0.911988
Si Si5 0.525282 0.945699 0.307805
Si Si6 0.469675 0.797960 0.009506
Si Si7 0.236256 0.195699 0.692194
O O1 0.443801 0.328077 0.288963
O O2 0.751014 0.421923 0.288963
O O3 0.359671 0.875000 0.593868
O O4 0.556783 0.808141 0.549510
O O5 0.636265 0.759455 0.647655
O O6 0.222793 0.743733 0.552524
O O7 0.545819 0.125000 0.968327
O O8 0.710176 0.006267 0.947477
O O9 0.940770 0.058141 0.049511
O O10 0.500000 0.000000 0.000000
O O11 0.647986 0.990545 0.852345
O O12 0.500000 0.964292 0.250000
O O13 0.701926 0.875000 0.330771
O O14 0.250000 0.750000 0.000000
O O15 0.500000 0.214292 0.750000
#
# Coordination Sequence:
#
# PCOD9304971 Si02
#       7
#     4   8   8   8   8   8   8
#     4   8  18  40  60  86 108 160 208 236 308 362
#     4  11  24  40  60  93 125 155 205 254 297 366
#     4  11  24  41  61  89 123 164 200 245 306 363
#     4  11  24  40  60  93 125 155 205 254 297 366
#     4   9  21  40  62  87 117 157 206 252 292 364
#     4  11  24  41  61  89 123 164 200 245 306 363
#     4   9  21  40  62  87 117 157 206 252 292 364
#
# _framework density 17.980027
#
# number of rings (size 3 to 8) (size 9 to 14) (size 15 to 20)
#    0.000    2.154    3.077    0.000    6.462    2.462 
#    2.769    0.000    0.000    0.000    0.000    0.000 
#    0.000    0.000    0.000    0.000    0.000    0.000 
#
# Total GULP energy -145106.595611 kJ/mol
# GULP energy per Si atom -5581.022908 kJ/mol
# Density = 1.793910 g / cm^3
# Si number density = 17.980027 Si / 1000 Ang^3
#
#
#
# Elastic Constant Matrix: (Units=GPa)
#
#
# Indices 1 2 3 4 5 6 
#
# 1 105.1539 44.5852 30.5950 0.0000 -1.9551 0.0000
# 2 44.5852 149.6210 59.4892 0.0000 0.4991 0.0000
# 3 30.5950 59.4892 88.9137 0.0000 1.4118 0.0000
# 4 0.0000 0.0000 0.0000 34.7916 0.0000 0.0976
# 5 -1.9551 0.4991 1.4118 0.0000 8.1922 0.0000
# 6 0.0000 0.0000 0.0000 0.0976 0.0000 31.8734
#
#
#
# Elastic Compliance Matrix: (Units=1/GPa)
#
#
# Indices 1 2 3 4 5 6 
#
# 1 0.011279 -0.002464 -0.002284 0.000000 0.003235 0.000000
# 2 -0.002464 0.009646 -0.005603 0.000000 -0.000210 0.000000
# 3 -0.002284 -0.005603 0.015828 0.000000 -0.002931 0.000000
# 4 0.000000 0.000000 0.000000 0.028743 0.000000 -0.000088
# 5 0.003235 -0.000210 -0.002931 0.000000 0.123357 0.000000
# 6 0.000000 0.000000 0.000000 -0.000088 0.000000 0.031374
#
#
# Mechanical properties :
#
#
# Convention : Reuss Voigt Hill
#
# Bulk Modulus (GPa) = 62.29732 68.11417 65.20575
# Shear Modulus (GPa) = 20.30213 28.90605 24.60409
#
# Velocity S-wave (km/s) = 3.36393 4.01393 3.70322
# Velocity P-wave (km/s) = 7.05771 7.71023 7.39118
#
# Compressibility (1/GPa) = 0.01605206
#
# Stress axis : x y z
#
# Youngs Moduli (GPa) = 88.65872 103.66923 63.17909
#
# Poissons Ratio (x) = 0.25541 0.14431
# Poissons Ratio (y) = 0.21843 0.35398
# Poissons Ratio (z) = 0.20251 0.58084
#
# Static dielectric constant tensor:
#      x y z
#    x 1.614960 0.000000 -0.000240 
#    y 0.000000 1.602460 0.000000 
#    z -0.000240 0.000000 1.607680 
# 
# From -- ./inp_files/286156.got.cif
#   From: 2010.05.17/outbox.cif.g08.bks.cpg/sg15_144_cif.got.tgz:286156.got - 2010.06.03 18:47:42.
