data_PCOD9304528
_publ_section_title
;
Structure prediction by ZEFSAII (Michael W. Deem and Ramdas Pophale) SiO2 
 PCOD9304528
Probable space group: C 2/C
;
_chemical_formula_sum "Si O2"
_cell_formula_units_Z 56
_cell_length_a 7.741836
_cell_length_b 20.979126
_cell_length_c 14.762483
_cell_angle_alpha 90.000000
_cell_angle_beta 113.746492
_cell_angle_gamma 90.000000
_cell_volume 2194.680864
_symmetry_space_group_name_H-M "C 2/C"
_symmetry_group_IT_number 15
_symmetry_cell_setting 'monoclinic'
loop_
_space_group_symop_operation_xyz
x,y,z
-x,y,1/2-z
-x,-y,-z
x,-y,1/2+z
1/2+x,1/2+y,z
1/2-x,1/2+y,1/2-z
1/2-x,1/2-y,-z
1/2+x,1/2-y,1/2+z
loop_
_atom_site_type_symbol
_atom_site_label
_atom_site_fract_x
_atom_site_fract_y
_atom_site_fract_z
Si Si1 0.305626 0.952346 0.603726
Si Si2 0.000000 0.266198 0.750000
Si Si3 0.287628 0.079377 0.363261
Si Si4 0.000000 0.185338 0.250000
Si Si5 0.639895 0.325854 0.598963
Si Si6 0.402045 0.092107 0.598789
Si Si7 0.690127 0.439167 0.368967
Si Si8 0.902988 0.834945 0.369402
O O1 0.520947 0.929422 0.652570
O O2 0.155871 0.903461 0.615326
O O3 0.257383 0.948031 0.487054
O O4 0.319056 0.027072 0.626565
O O5 0.853936 0.303211 0.655629
O O6 0.113711 0.220747 0.705999
O O7 0.179233 0.139565 0.303119
O O8 0.336696 0.090853 0.479653
O O9 0.180418 0.011839 0.333193
O O10 0.030233 0.211002 0.155460
O O11 0.543207 0.315906 0.481898
O O12 0.629242 0.092015 0.643972
O O13 0.295352 0.147170 0.628564
O O14 0.507112 0.395146 0.343096
#
# Coordination Sequence:
#
# PCOD9304528 Si02
#       8
#     8   4   8   4   8   8   8   8
#     4   8  17  35  65  90 132 172 205 270 340 401
#     4  12  28  49  66  90 131 182 242 282 330 388
#     4   9  17  32  56  99 138 164 207 262 332 413
#     4  12  22  33  62  98 131 166 224 276 324 404
#     4  11  24  44  66  95 129 175 232 279 333 395
#     4   9  17  37  65 101 132 170 210 266 347 404
#     4   8  18  34  62  97 132 171 210 259 334 409
#     4  11  23  44  72  93 131 179 223 283 337 391
#
# _framework density 25.516238999999999
#
# number of rings (size 3 to 8) (size 9 to 14) (size 15 to 20)
#    0.000    2.286    1.429    3.000    2.000    2.286 
#    2.571    0.714    0.000    0.000    0.000    0.000 
#    0.000    0.000    0.000    0.000    0.000    0.000 
#
# Total GULP energy -156596.151055 kJ/mol
# GULP energy per Si atom -5592.719681 kJ/mol
# Density = 2.545816 g / cm^3
# Si number density = 25.516239 Si / 1000 Ang^3
#
#
#
# Elastic Constant Matrix: (Units=GPa)
#
#
# Indices 1 2 3 4 5 6 
#
# 1 92.0122 26.0144 42.1580 0.0000 -6.2668 0.0000
# 2 26.0144 56.8844 13.0734 0.0000 -10.6452 0.0000
# 3 42.1580 13.0734 97.1693 0.0000 -16.6639 0.0000
# 4 0.0000 0.0000 0.0000 22.3167 0.0000 -1.4259
# 5 -6.2668 -10.6452 -16.6639 0.0000 41.6440 0.0000
# 6 0.0000 0.0000 0.0000 -1.4259 0.0000 7.5761
#
#
#
# Elastic Compliance Matrix: (Units=1/GPa)
#
#
# Indices 1 2 3 4 5 6 
#
# 1 0.015203 -0.005861 -0.006090 0.000000 -0.001647 0.000000
# 2 -0.005861 0.021020 0.000521 0.000000 0.004700 0.000000
# 3 -0.006090 0.000521 0.013667 0.000000 0.004686 0.000000
# 4 0.000000 0.000000 0.000000 0.045355 0.000000 0.008536
# 5 -0.001647 0.004700 0.004686 0.000000 0.026841 0.000000
# 6 0.000000 0.000000 0.000000 0.008536 0.000000 0.133600
#
#
# Mechanical properties :
#
#
# Convention : Reuss Voigt Hill
#
# Bulk Modulus (GPa) = 36.99719 45.39528 41.19624
# Shear Modulus (GPa) = 17.38782 25.29537 21.34159
#
# Velocity S-wave (km/s) = 2.61328 3.15198 2.89518
# Velocity P-wave (km/s) = 4.86174 5.57458 5.23032
#
# Compressibility (1/GPa) = 0.02702908
#
# Stress axis : x y z
#
# Youngs Moduli (GPa) = 65.77441 47.57413 73.16872
#
# Poissons Ratio (x) = 0.27886 0.44561
# Poissons Ratio (y) = 0.38554 -0.03812
# Poissons Ratio (z) = 0.40057 -0.02478
#
# Static dielectric constant tensor:
#      x y z
#    x 2.038110 0.000000 -0.012430 
#    y 0.000000 2.008470 0.000000 
#    z -0.012430 0.000000 1.997660 
# 
# From -- ./inp_files/137511.got.cif
#   From: 2010.05.17/outbox.cif.g08.bks.cpg/sg15_69_cif.got.tgz:137511.got - 2010.06.03 18:47:42.
