data_PCOD9304019
_publ_section_title
;
Structure prediction by ZEFSAII (Michael W. Deem and Ramdas Pophale) SiO2 
 PCOD9304019
Probable space group: C 2/C
;
_chemical_formula_sum "Si O2"
_cell_formula_units_Z 44
_cell_length_a 17.873072
_cell_length_b 6.381720
_cell_length_c 17.966727
_cell_angle_alpha 90.000000
_cell_angle_beta 111.597895
_cell_angle_gamma 90.000000
_cell_volume 1905.420331
_symmetry_space_group_name_H-M "C 2/C"
_symmetry_group_IT_number 15
_symmetry_cell_setting 'monoclinic'
loop_
_space_group_symop_operation_xyz
x,y,z
-x,y,1/2-z
-x,-y,-z
x,-y,1/2+z
1/2+x,1/2+y,z
1/2-x,1/2+y,1/2-z
1/2-x,1/2-y,-z
1/2+x,1/2-y,1/2+z
loop_
_atom_site_type_symbol
_atom_site_label
_atom_site_fract_x
_atom_site_fract_y
_atom_site_fract_z
Si Si1 0.320426 0.677378 0.820218
Si Si2 0.401020 0.298775 0.937755
Si Si3 0.462256 0.007911 0.845680
Si Si4 0.416037 0.352254 0.110179
Si Si5 0.244094 0.039679 0.864504
Si Si6 0.500000 0.673619 0.250000
O O1 0.364729 0.479574 0.872443
O O2 0.390493 0.843942 0.827886
O O3 0.260716 0.792873 0.856458
O O4 0.277587 0.620574 0.726927
O O5 0.466342 0.155718 0.919697
O O6 0.326156 0.142150 0.923083
O O7 0.426930 0.386916 0.026478
O O8 0.542663 0.873938 0.860548
O O9 0.441883 0.168924 0.772285
O O10 0.325729 0.385023 0.105989
O O11 0.462242 0.524162 0.175280
#
# Coordination Sequence:
#
# PCOD9304019 Si02
#       6
#     8   8   8   8   8   4
#     4  11  23  43  70 101 133 188 234 279 353 418
#     4  11  25  44  69 101 139 185 230 288 346 419
#     4  11  25  45  70  98 140 187 229 285 353 419
#     4  12  26  44  68 104 139 180 237 288 351 411
#     4  11  23  41  70  99 139 179 234 289 344 420
#     4  12  26  42  70 100 134 178 226 292 338 416
#
# _framework density 23.092020000000002
#
# number of rings (size 3 to 8) (size 9 to 14) (size 15 to 20)
#    0.000    0.727    1.818    6.000    2.545    8.000 
#    0.000    0.000    0.000    0.000    0.000    0.000 
#    0.000    0.000    0.000    0.000    0.000    0.000 
#
# Total GULP energy -123112.492913 kJ/mol
# GULP energy per Si atom -5596.022405 kJ/mol
# Density = 2.303946 g / cm^3
# Si number density = 23.092020 Si / 1000 Ang^3
#
#
#
# Elastic Constant Matrix: (Units=GPa)
#
#
# Indices 1 2 3 4 5 6 
#
# 1 79.4398 41.5513 -5.3484 0.0000 -21.3666 0.0000
# 2 41.5513 103.4027 17.9621 0.0000 -14.5703 0.0000
# 3 -5.3484 17.9621 89.3152 0.0000 -9.6836 0.0000
# 4 0.0000 0.0000 0.0000 25.0668 0.0000 -19.5467
# 5 -21.3666 -14.5703 -9.6836 0.0000 23.4928 0.0000
# 6 0.0000 0.0000 0.0000 -19.5467 0.0000 14.2749
#
#
#
# Elastic Compliance Matrix: (Units=1/GPa)
#
#
# Indices 1 2 3 4 5 6 
#
# 1 0.020936 -0.006840 0.004432 0.000000 0.016626 0.000000
# 2 -0.006840 0.013023 -0.002960 0.000000 0.000636 0.000000
# 3 0.004432 -0.002960 0.012870 0.000000 0.007500 0.000000
# 4 0.000000 0.000000 0.000000 -0.588713 0.000000 -0.806128
# 5 0.016626 0.000636 0.007500 0.000000 0.061173 0.000000
# 6 0.000000 0.000000 0.000000 -0.806128 0.000000 -1.033782
#
#
# Mechanical properties :
#
#
# Convention : Reuss Voigt Hill
#
# Bulk Modulus (GPa) = 27.70577 42.27642 34.99109
# Shear Modulus (GPa) = -3.35182 27.09975 11.87396
#
# Velocity S-wave (km/s) = -1.20609 3.42943 2.27006
# Velocity P-wave (km/s) = 3.17561 5.83343 4.69646
#
# Compressibility (1/GPa) = 0.03609356
#
# Stress axis : x y z
#
# Youngs Moduli (GPa) = 47.76456 76.78544 77.69956
#
# Poissons Ratio (x) = 0.52522 -0.34435
# Poissons Ratio (y) = 0.32671 0.22997
# Poissons Ratio (z) = -0.21169 0.22726
#
# Static dielectric constant tensor:
#      x y z
#    x 1.908090 0.000000 -0.029660 
#    y 0.000000 1.857190 0.000000 
#    z -0.029660 0.000000 1.851240 
# 
# From -- ./inp_files/212844.got.cif
#   From: 2010.05.17/outbox.cif.g08.bks.cpg/sg15_107_cif.got.tgz:212844.got - 2010.06.03 18:47:42.
