data_PCOD9304761
_publ_section_title
;
Structure prediction by ZEFSAII (Michael W. Deem and Ramdas Pophale) SiO2 
 PCOD9304761
Probable space group: C 2/C
;
_chemical_formula_sum "Si O2"
_cell_formula_units_Z 44
_cell_length_a 12.665227
_cell_length_b 12.996440
_cell_length_c 11.611169
_cell_angle_alpha 90.000000
_cell_angle_beta 95.610592
_cell_angle_gamma 90.000000
_cell_volume 1902.075603
_symmetry_space_group_name_H-M "C 2/C"
_symmetry_group_IT_number 15
_symmetry_cell_setting 'monoclinic'
loop_
_space_group_symop_operation_xyz
x,y,z
-x,y,1/2-z
-x,-y,-z
x,-y,1/2+z
1/2+x,1/2+y,z
1/2-x,1/2+y,1/2-z
1/2-x,1/2-y,-z
1/2+x,1/2-y,1/2+z
loop_
_atom_site_type_symbol
_atom_site_label
_atom_site_fract_x
_atom_site_fract_y
_atom_site_fract_z
Si Si1 0.395461 0.393871 0.167045
Si Si2 0.725568 0.007385 0.282935
Si Si3 0.168300 0.305075 0.406061
Si Si4 0.500000 0.089879 0.250000
Si Si5 0.217791 0.232918 0.170987
Si Si6 0.045164 0.725691 0.480255
O O1 0.500000 0.418915 0.250000
O O2 0.306690 0.479190 0.187731
O O3 0.328146 0.293275 0.201049
O O4 0.443951 0.346836 0.054300
O O5 0.715332 0.915794 0.374243
O O6 0.604691 0.025205 0.229596
O O7 0.763271 0.112974 0.345021
O O8 0.250000 0.250000 0.500000
O O9 0.158104 0.245223 0.284708
O O10 0.054177 0.303060 0.452201
O O11 0.527312 0.157458 0.364925
O O12 0.153156 0.289338 0.063529
#
# Coordination Sequence:
#
# PCOD9304761 Si02
#       6
#     8   8   8   4   8   8
#     4  11  23  46  72 101 152 197 236 305 375 441
#     4  11  26  46  78 111 147 196 256 302 374 454
#     4  11  26  48  73 107 157 199 243 312 376 440
#     4  12  26  48  78 114 146 198 252 318 376 432
#     4  11  25  47  72 114 148 199 251 305 374 452
#     4  12  24  46  79 104 154 194 247 315 374 437
#
# _framework density 23.132624
#
# number of rings (size 3 to 8) (size 9 to 14) (size 15 to 20)
#    0.000    0.727    2.727    4.364    5.091    5.091 
#    3.273    2.727    0.000    0.000    0.000    0.000 
#    0.000    0.000    0.000    0.000    0.000    0.000 
#
# Total GULP energy -122811.702150 kJ/mol
# GULP energy per Si atom -5582.350098 kJ/mol
# Density = 2.307997 g / cm^3
# Si number density = 23.132624 Si / 1000 Ang^3
#
#
#
# Elastic Constant Matrix: (Units=GPa)
#
#
# Indices 1 2 3 4 5 6 
#
# 1 125.8421 37.9401 41.3427 0.0000 5.6307 0.0000
# 2 37.9401 123.4234 37.4746 0.0000 5.4525 0.0000
# 3 41.3427 37.4746 102.6978 0.0000 0.0974 0.0000
# 4 0.0000 0.0000 0.0000 18.5713 0.0000 7.7359
# 5 5.6307 5.4525 0.0974 0.0000 26.1180 0.0000
# 6 0.0000 0.0000 0.0000 7.7359 0.0000 33.4671
#
#
#
# Elastic Compliance Matrix: (Units=1/GPa)
#
#
# Indices 1 2 3 4 5 6 
#
# 1 0.009646 -0.001926 -0.003179 0.000000 -0.001666 0.000000
# 2 -0.001926 0.009591 -0.002723 0.000000 -0.001577 0.000000
# 3 -0.003179 -0.002723 0.012009 0.000000 0.001209 0.000000
# 4 0.000000 0.000000 0.000000 0.059584 0.000000 -0.013773
# 5 -0.001666 -0.001577 0.001209 0.000000 0.038971 0.000000
# 6 0.000000 0.000000 0.000000 -0.013773 0.000000 0.033064
#
#
# Mechanical properties :
#
#
# Convention : Reuss Voigt Hill
#
# Bulk Modulus (GPa) = 64.14144 65.05314 64.59729
# Shear Modulus (GPa) = 27.21575 31.31168 29.26372
#
# Velocity S-wave (km/s) = 3.43375 3.68308 3.56060
# Velocity P-wave (km/s) = 6.59612 6.80218 6.69994
#
# Compressibility (1/GPa) = 0.01559054
#
# Stress axis : x y z
#
# Youngs Moduli (GPa) = 103.66901 104.26762 83.26902
#
# Poissons Ratio (x) = 0.20087 0.26468
# Poissons Ratio (y) = 0.19972 0.22671
# Poissons Ratio (z) = 0.32953 0.28388
#
# Static dielectric constant tensor:
#      x y z
#    x 1.898770 0.000000 -0.032810 
#    y 0.000000 1.915350 0.000000 
#    z -0.032810 0.000000 1.905390 
# 
# From -- ./inp_files/86181.got.cif
#   From: 2010.05.17/outbox.cif.g08.bks.cpg/sg15_44_cif.got.tgz:86181.got - 2010.06.03 18:47:42.
