data_PCOD9304275
_publ_section_title
;
Structure prediction by ZEFSAII (Michael W. Deem and Ramdas Pophale) SiO2 
 PCOD9304275
Probable space group: C 2/C
;
_chemical_formula_sum "Si O2"
_cell_formula_units_Z 60
_cell_length_a 15.881816
_cell_length_b 18.059035
_cell_length_c 10.476786
_cell_angle_alpha 90.000000
_cell_angle_beta 121.190806
_cell_angle_gamma 90.000000
_cell_volume 2570.490900
_symmetry_space_group_name_H-M "C 2/C"
_symmetry_group_IT_number 15
_symmetry_cell_setting 'monoclinic'
loop_
_space_group_symop_operation_xyz
x,y,z
-x,y,1/2-z
-x,-y,-z
x,-y,1/2+z
1/2+x,1/2+y,z
1/2-x,1/2+y,1/2-z
1/2-x,1/2-y,-z
1/2+x,1/2-y,1/2+z
loop_
_atom_site_type_symbol
_atom_site_label
_atom_site_fract_x
_atom_site_fract_y
_atom_site_fract_z
Si Si1 0.975911 0.183239 0.408002
Si Si2 0.886624 0.044904 0.982216
Si Si3 0.603314 0.725659 0.885445
Si Si4 0.340423 0.908753 0.185204
Si Si5 0.865611 0.737986 0.587679
Si Si6 0.146887 0.378613 0.015568
Si Si7 0.147483 0.933905 0.332438
Si Si8 0.000000 0.530005 0.250000
O O1 0.026120 0.103620 0.428624
O O2 0.073002 0.235675 0.486090
O O3 0.914548 0.191434 0.488163
O O4 0.910455 0.213424 0.239533
O O5 0.776254 0.076333 0.926320
O O6 0.880168 0.031447 0.825250
O O7 0.099858 0.024447 0.914035
O O8 0.500000 0.753457 0.750000
O O9 0.663914 0.801214 0.954812
O O10 0.627377 0.654367 0.817264
O O11 0.380387 0.848999 0.117050
O O12 0.350505 0.868896 0.330639
O O13 0.411545 0.979380 0.235273
O O14 0.750000 0.750000 0.500000
O O15 0.047304 0.417673 0.894177
O O16 0.235218 0.435457 0.057642
#
# Coordination Sequence:
#
# PCOD9304275 Si02
#       8
#     8   8   8   8   8   8   8   4
#     4  11  24  44  72 108 145 186 244 303 367 435
#     4  11  24  47  73 106 149 194 249 310 373 455
#     4  12  24  46  70 105 138 192 246 302 367 449
#     4  11  23  43  68 103 146 182 242 306 378 447
#     4  11  23  44  71 108 143 194 240 299 367 444
#     4  11  24  44  71 102 143 188 242 311 373 455
#     4  11  26  48  73 106 148 200 247 309 380 449
#     4  12  22  42  72 104 136 186 242 310 388 444
#
# _framework density 23.341844999999999
#
# number of rings (size 3 to 8) (size 9 to 14) (size 15 to 20)
#    0.000    0.800    6.000    1.600    0.000    2.667 
#    4.800    0.000    0.000    0.000    0.000    0.000 
#    0.000    0.000    0.000    0.000    0.000    0.000 
#
# Total GULP energy -167717.564208 kJ/mol
# GULP energy per Si atom -5590.585474 kJ/mol
# Density = 2.328872 g / cm^3
# Si number density = 23.341845 Si / 1000 Ang^3
#
#
#
# Elastic Constant Matrix: (Units=GPa)
#
#
# Indices 1 2 3 4 5 6 
#
# 1 66.8063 19.6566 16.7716 0.0000 9.8591 0.0000
# 2 19.6566 119.1455 40.3325 0.0000 1.2254 0.0000
# 3 16.7716 40.3325 85.3995 0.0000 8.5627 0.0000
# 4 0.0000 0.0000 0.0000 23.8527 0.0000 1.6125
# 5 9.8591 1.2254 8.5627 0.0000 43.7442 0.0000
# 6 0.0000 0.0000 0.0000 1.6125 0.0000 47.4847
#
#
#
# Elastic Compliance Matrix: (Units=1/GPa)
#
#
# Indices 1 2 3 4 5 6 
#
# 1 0.016544 -0.002032 -0.001960 0.000000 -0.003288 0.000000
# 2 -0.002032 0.010258 -0.004552 0.000000 0.001062 0.000000
# 3 -0.001960 -0.004552 0.014471 0.000000 -0.002264 0.000000
# 4 0.000000 0.000000 0.000000 0.042020 0.000000 -0.001427
# 5 -0.003288 0.001062 -0.002264 0.000000 0.024015 0.000000
# 6 0.000000 0.000000 0.000000 -0.001427 0.000000 0.021108
#
#
# Mechanical properties :
#
#
# Convention : Reuss Voigt Hill
#
# Bulk Modulus (GPa) = 41.34686 47.20807 44.27747
# Shear Modulus (GPa) = 32.55921 35.98902 34.27412
#
# Velocity S-wave (km/s) = 3.73887 3.93087 3.83607
# Velocity P-wave (km/s) = 6.03249 6.39303 6.21538
#
# Compressibility (1/GPa) = 0.02418563
#
# Stress axis : x y z
#
# Youngs Moduli (GPa) = 60.44560 97.48071 69.10193
#
# Poissons Ratio (x) = 0.19810 0.13541
# Poissons Ratio (y) = 0.12284 0.31457
# Poissons Ratio (z) = 0.11845 0.44375
#
# Static dielectric constant tensor:
#      x y z
#    x 1.949130 0.000000 0.018100 
#    y 0.000000 1.895030 0.000000 
#    z 0.018100 0.000000 1.873580 
# 
# From -- ./inp_files/99821.got.cif
#   From: 2010.05.17/outbox.cif.g08.bks.cpg/sg15_50_cif.got.tgz:99821.got - 2010.06.03 18:47:42.
