data_PCOD9304114
_publ_section_title
;
Structure prediction by ZEFSAII (Michael W. Deem and Ramdas Pophale) SiO2 
 PCOD9304114
Probable space group: C 2/C
;
_chemical_formula_sum "Si O2"
_cell_formula_units_Z 64
_cell_length_a 9.511745
_cell_length_b 22.449257
_cell_length_c 14.794090
_cell_angle_alpha 90.000000
_cell_angle_beta 98.265936
_cell_angle_gamma 90.000000
_cell_volume 3126.188299
_symmetry_space_group_name_H-M "C 2/C"
_symmetry_group_IT_number 15
_symmetry_cell_setting 'monoclinic'
loop_
_space_group_symop_operation_xyz
x,y,z
-x,y,1/2-z
-x,-y,-z
x,-y,1/2+z
1/2+x,1/2+y,z
1/2-x,1/2+y,1/2-z
1/2-x,1/2-y,-z
1/2+x,1/2-y,1/2+z
loop_
_atom_site_type_symbol
_atom_site_label
_atom_site_fract_x
_atom_site_fract_y
_atom_site_fract_z
Si Si1 0.667389 0.932088 0.773435
Si Si2 0.740195 0.348447 0.554121
Si Si3 0.811138 0.259275 0.106025
Si Si4 0.375133 0.374561 0.663759
Si Si5 0.357886 0.452426 0.292050
Si Si6 0.006127 0.070838 0.510740
Si Si7 0.881885 0.722772 0.916549
Si Si8 0.331350 0.326883 0.247157
O O1 0.500000 0.942044 0.750000
O O2 0.700609 0.881774 0.852179
O O3 0.737325 0.908551 0.687625
O O4 0.754888 0.992574 0.801414
O O5 0.646800 0.397981 0.494316
O O6 0.858551 0.316949 0.503547
O O7 0.634144 0.293246 0.565275
O O8 0.836513 0.194412 0.150902
O O9 0.712555 0.297647 0.162040
O O10 0.965885 0.288989 0.112233
O O11 0.750000 0.250000 0.000000
O O12 0.500000 0.381480 0.750000
O O13 0.425918 0.401338 0.573194
O O14 0.500000 0.471923 0.250000
O O15 0.407246 0.421814 0.389697
O O16 0.289570 0.396515 0.234409
O O17 0.000000 0.000000 0.500000
O O18 0.753938 0.707893 0.837529
O O19 0.500000 0.322788 0.250000
#
# Coordination Sequence:
#
# PCOD9304114 Si02
#       8
#     8   8   8   8   8   8   8   8
#     4  12  26  43  67 102 142 180 229 294 359 418
#     4  11  23  42  68 103 137 179 238 287 351 409
#     4  12  26  42  67 102 143 184 234 284 352 422
#     4  12  23  44  69  99 135 187 237 281 343 421
#     4  11  24  46  72  99 133 185 239 289 341 427
#     4  12  21  41  75 100 130 178 248 290 326 409
#     4  11  25  42  70  98 143 184 227 295 351 424
#     4  11  25  44  72 100 137 184 236 288 355 416
#
# _framework density 20.472216
#
# number of rings (size 3 to 8) (size 9 to 14) (size 15 to 20)
#    0.000    0.500    3.750    5.250    5.250    2.000 
#    0.000    0.625    0.000    0.000    0.000    0.000 
#    0.000    0.000    0.000    0.000    0.000    0.000 
#
# Total GULP energy -178993.650519 kJ/mol
# GULP energy per Si atom -5593.551579 kJ/mol
# Density = 2.042562 g / cm^3
# Si number density = 20.472216 Si / 1000 Ang^3
#
#
#
# Elastic Constant Matrix: (Units=GPa)
#
#
# Indices 1 2 3 4 5 6 
#
# 1 114.6463 46.1742 39.0298 0.0000 -19.4340 0.0000
# 2 46.1742 133.9707 30.0725 0.0000 -13.4449 0.0000
# 3 39.0298 30.0725 96.6405 0.0000 -15.3792 0.0000
# 4 0.0000 0.0000 0.0000 35.4558 0.0000 -3.3829
# 5 -19.4340 -13.4449 -15.3792 0.0000 29.6793 0.0000
# 6 0.0000 0.0000 0.0000 -3.3829 0.0000 20.1307
#
#
#
# Elastic Compliance Matrix: (Units=1/GPa)
#
#
# Indices 1 2 3 4 5 6 
#
# 1 0.011742 -0.002874 -0.003086 0.000000 0.004788 0.000000
# 2 -0.002874 0.008910 -0.001383 0.000000 0.001438 0.000000
# 3 -0.003086 -0.001383 0.012646 0.000000 0.003906 0.000000
# 4 0.000000 0.000000 0.000000 0.028664 0.000000 0.004817
# 5 0.004788 0.001438 0.003906 0.000000 0.039504 0.000000
# 6 0.000000 0.000000 0.000000 0.004817 0.000000 0.050485
#
#
# Mechanical properties :
#
#
# Convention : Reuss Voigt Hill
#
# Bulk Modulus (GPa) = 53.72964 63.97894 58.85429
# Shear Modulus (GPa) = 28.92861 32.38523 30.65692
#
# Velocity S-wave (km/s) = 3.76316 3.98164 3.87394
# Velocity P-wave (km/s) = 6.72190 7.24275 6.98718
#
# Compressibility (1/GPa) = 0.01861170
#
# Stress axis : x y z
#
# Youngs Moduli (GPa) = 85.16362 112.23930 79.07717
#
# Poissons Ratio (x) = 0.32255 0.24404
# Poissons Ratio (y) = 0.24474 0.10937
# Poissons Ratio (z) = 0.26282 0.15523
#
# Static dielectric constant tensor:
#      x y z
#    x 1.719220 0.000000 -0.007530 
#    y 0.000000 1.735000 0.000000 
#    z -0.007530 0.000000 1.792520 
# 
# From -- ./inp_files/137843.got.cif
#   From: 2010.05.17/outbox.cif.g08.bks.cpg/sg15_69_cif.got.tgz:137843.got - 2010.06.03 18:47:42.
