data_PCOD9304848
_publ_section_title
;
Structure prediction by ZEFSAII (Michael W. Deem and Ramdas Pophale) SiO2 
 PCOD9304848
Probable space group: C 2/C
;
_chemical_formula_sum "Si O2"
_cell_formula_units_Z 36
_cell_length_a 16.596807
_cell_length_b 20.787258
_cell_length_c 9.396430
_cell_angle_alpha 90.000000
_cell_angle_beta 151.772473
_cell_angle_gamma 90.000000
_cell_volume 1533.281909
_symmetry_space_group_name_H-M "C 2/C"
_symmetry_group_IT_number 15
_symmetry_cell_setting 'monoclinic'
loop_
_space_group_symop_operation_xyz
x,y,z
-x,y,1/2-z
-x,-y,-z
x,-y,1/2+z
1/2+x,1/2+y,z
1/2-x,1/2+y,1/2-z
1/2-x,1/2-y,-z
1/2+x,1/2-y,1/2+z
loop_
_atom_site_type_symbol
_atom_site_label
_atom_site_fract_x
_atom_site_fract_y
_atom_site_fract_z
Si Si1 0.737977 0.859440 0.115621
Si Si2 0.759804 0.447495 0.658556
Si Si3 0.106582 0.860506 0.647300
Si Si4 0.858216 0.415288 0.244563
Si Si5 0.500000 0.743798 0.750000
O O1 0.630618 0.888268 0.078287
O O2 0.934260 0.858882 0.470055
O O3 0.750942 0.902095 0.994944
O O4 0.652980 0.791723 0.946307
O O5 0.636486 0.422362 0.590357
O O6 0.743876 0.520591 0.583145
O O7 0.955262 0.437474 0.015484
O O8 0.077127 0.801232 0.493629
O O9 0.268795 0.863854 0.003085
#
# Coordination Sequence:
#
# PCOD9304848 Si02
#       5
#     8   8   8   8   4
#     4  12  24  46  71  98 141 190 229 291 355 415
#     4  11  23  47  73 105 142 181 218 290 374 423
#     4  12  26  43  72 105 136 184 239 291 340 420
#     4  11  25  44  74 108 140 174 232 291 360 428
#     4  12  26  48  70  92 148 198 240 284 358 406
#
# _framework density 23.479050000000001
#
# number of rings (size 3 to 8) (size 9 to 14) (size 15 to 20)
#    0.000    0.444    4.444    3.333    0.000    9.778 
#    0.000    2.222    0.000    0.000    0.000    0.000 
#    0.000    0.000    0.000    0.000    0.000    0.000 
#
# Total GULP energy -100643.328278 kJ/mol
# GULP energy per Si atom -5591.296015 kJ/mol
# Density = 2.342561 g / cm^3
# Si number density = 23.479050 Si / 1000 Ang^3
#
#
#
# Elastic Constant Matrix: (Units=GPa)
#
#
# Indices 1 2 3 4 5 6 
#
# 1 87.5382 28.9425 21.3573 0.0000 8.3609 0.0000
# 2 28.9425 108.6934 28.7054 0.0000 4.3939 0.0000
# 3 21.3573 28.7054 100.8786 0.0000 -2.7132 0.0000
# 4 0.0000 0.0000 0.0000 -498.9157 0.0000 -130.8271
# 5 8.3609 4.3939 -2.7132 0.0000 47.1715 0.0000
# 6 0.0000 0.0000 0.0000 -130.8271 0.0000 -17.3116
#
#
#
# Elastic Compliance Matrix: (Units=1/GPa)
#
#
# Indices 1 2 3 4 5 6 
#
# 1 0.013067 -0.002861 -0.002011 0.000000 -0.002165 0.000000
# 2 -0.002861 0.010631 -0.002436 0.000000 -0.000623 0.000000
# 3 -0.002011 -0.002436 0.011065 0.000000 0.001220 0.000000
# 4 0.000000 0.000000 0.000000 0.002042 0.000000 -0.015430
# 5 -0.002165 -0.000623 0.001220 0.000000 0.021711 0.000000
# 6 0.000000 0.000000 0.000000 -0.015430 0.000000 0.058843
#
#
# Mechanical properties :
#
#
# Convention : Reuss Voigt Hill
#
# Bulk Modulus (GPa) = 49.63539 50.56896 50.10217
# Shear Modulus (GPa) = 36.05191 -79.27083 -21.60946
#
# Velocity S-wave (km/s) = 3.92279 -5.81684 -3.03705
# Velocity P-wave (km/s) = 6.45785 4.85073 3.01449
#
# Compressibility (1/GPa) = 0.02014691
#
# Stress axis : x y z
#
# Youngs Moduli (GPa) = 76.52980 94.06880 90.37871
#
# Poissons Ratio (x) = 0.26912 0.18171
# Poissons Ratio (y) = 0.21894 0.22017
# Poissons Ratio (z) = 0.15387 0.22915
#
# Static dielectric constant tensor:
#      x y z
#    x 1.881480 0.000000 0.043770 
#    y 0.000000 1.849860 0.000000 
#    z 0.043770 0.000000 1.975450 
# 
# From -- ./inp_files/50759.got.cif
#   From: 2010.05.17/outbox.cif.g08.bks.cpg/sg15_26_cif.got.tgz:50759.got - 2010.06.03 18:47:42.
