data_PCOD9304151
_publ_section_title
;
Structure prediction by ZEFSAII (Michael W. Deem and Ramdas Pophale) SiO2 
 PCOD9304151
Probable space group: C 2/C
;
_chemical_formula_sum "Si O2"
_cell_formula_units_Z 56
_cell_length_a 18.556092
_cell_length_b 15.100447
_cell_length_c 21.473829
_cell_angle_alpha 90.000000
_cell_angle_beta 154.831935
_cell_angle_gamma 90.000000
_cell_volume 2558.913251
_symmetry_space_group_name_H-M "C 2/C"
_symmetry_group_IT_number 15
_symmetry_cell_setting 'monoclinic'
loop_
_space_group_symop_operation_xyz
x,y,z
-x,y,1/2-z
-x,-y,-z
x,-y,1/2+z
1/2+x,1/2+y,z
1/2-x,1/2+y,1/2-z
1/2-x,1/2-y,-z
1/2+x,1/2-y,1/2+z
loop_
_atom_site_type_symbol
_atom_site_label
_atom_site_fract_x
_atom_site_fract_y
_atom_site_fract_z
Si Si1 0.000000 0.294005 0.750000
Si Si2 0.232671 0.818182 0.815619
Si Si3 0.830016 0.495607 0.824419
Si Si4 0.408849 0.781139 0.082528
Si Si5 0.500000 0.917754 0.250000
Si Si6 0.154943 0.818060 0.196920
Si Si7 0.956401 0.445649 0.620371
Si Si8 0.822166 0.711992 0.952676
O O1 0.014800 0.359459 0.703545
O O2 0.833635 0.236617 0.625422
O O3 0.307298 0.733978 0.836962
O O4 0.033793 0.800280 0.668812
O O5 0.252790 0.903858 0.788280
O O6 0.334521 0.823704 0.960899
O O7 0.701972 0.578473 0.729002
O O8 0.894761 0.488490 0.803734
O O9 0.000000 0.500000 0.000000
O O10 0.527392 0.848111 0.215378
O O11 0.250000 0.750000 0.000000
O O12 0.610754 0.987553 0.378559
O O13 0.281762 0.781364 0.348359
O O14 0.972896 0.783313 0.078744
O O15 0.844308 0.393661 0.482418
#
# Coordination Sequence:
#
# PCOD9304151 Si02
#       8
#     4   8   8   8   4   8   8   8
#     4  11  24  44  70  99 146 196 235 296 362 445
#     4  12  24  46  74 106 143 192 242 301 369 432
#     4  12  23  44  72 107 141 187 242 302 362 426
#     4  12  25  47  71 101 145 193 242 299 366 435
#     4  11  24  46  70 101 142 190 239 298 362 425
#     4  12  25  44  73 106 147 191 243 308 364 438
#     4  11  23  42  70 100 140 188 239 291 362 430
#     4  12  23  46  70 107 146 195 242 292 378 434
#
# _framework density 21.88429
#
# number of rings (size 3 to 8) (size 9 to 14) (size 15 to 20)
#    0.000    0.286    5.714    3.857    0.000    0.000 
#    5.143    3.571    0.000    0.000    0.000    0.000 
#    0.000    0.000    0.000    0.000    0.000    0.000 
#
# Total GULP energy -155942.607448 kJ/mol
# GULP energy per Si atom -5569.378837 kJ/mol
# Density = 2.183448 g / cm^3
# Si number density = 21.884290 Si / 1000 Ang^3
#
#
#
# Elastic Constant Matrix: (Units=GPa)
#
#
# Indices 1 2 3 4 5 6 
#
# 1 117.5097 47.1109 39.8867 -0.0040 -3.8808 -0.0066
# 2 47.1109 121.8849 21.8982 -0.0143 8.3224 -0.0112
# 3 39.8867 21.8982 56.1214 -0.0360 4.0337 -0.0365
# 4 -0.0040 -0.0143 -0.0360 183.3822 -0.0062 202.9009
# 5 -3.8808 8.3224 4.0337 -0.0062 46.7188 -0.0069
# 6 -0.0066 -0.0112 -0.0365 202.9009 -0.0069 321.9589
#
#
#
# Elastic Compliance Matrix: (Units=1/GPa)
#
#
# Indices 1 2 3 4 5 6 
#
# 1 0.012696 -0.003676 -0.007760 -0.000002 0.002379 0.000001
# 2 -0.003676 0.009964 -0.001133 0.000001 -0.001982 -0.000001
# 3 -0.007760 -0.001133 0.023957 0.000005 -0.002511 -0.000001
# 4 -0.000002 0.000001 0.000005 0.018014 0.000000 -0.011353
# 5 0.002379 -0.001982 -0.002511 0.000000 0.022172 0.000000
# 6 0.000001 -0.000001 -0.000001 -0.011353 0.000000 0.010260
#
#
# Mechanical properties :
#
#
# Convention : Reuss Voigt Hill
#
# Bulk Modulus (GPa) = 46.55740 57.03418 51.79579
# Shear Modulus (GPa) = 38.65148 122.85333 80.75240
#
# Velocity S-wave (km/s) = 4.20715 7.50064 6.08110
# Velocity P-wave (km/s) = 6.70229 10.05639 8.54552
#
# Compressibility (1/GPa) = 0.02147886
#
# Stress axis : x y z
#
# Youngs Moduli (GPa) = 78.76375 100.36039 41.74218
#
# Poissons Ratio (x) = 0.36888 0.32393
# Poissons Ratio (y) = 0.28950 0.04730
# Poissons Ratio (z) = 0.61123 0.11372
#
# Static dielectric constant tensor:
#      x y z
#    x 1.842480 0.000000 -0.067580 
#    y 0.000000 1.856580 0.000000 
#    z -0.067580 0.000000 1.908220 
# 
# From -- ./inp_files/249321.got.cif
#   From: 2010.05.17/outbox.cif.g08.bks.cpg/sg15_125_cif.got.tgz:249321.got - 2010.06.03 18:47:42.
