data_PCOD9304443
_publ_section_title
;
Structure prediction by ZEFSAII (Michael W. Deem and Ramdas Pophale) SiO2 
 PCOD9304443
Probable space group: C 2/C
;
_chemical_formula_sum "Si O2"
_cell_formula_units_Z 44
_cell_length_a 5.229590
_cell_length_b 31.111499
_cell_length_c 12.283258
_cell_angle_alpha 90.000000
_cell_angle_beta 81.720666
_cell_angle_gamma 90.000000
_cell_volume 1977.662108
_symmetry_space_group_name_H-M "C 2/C"
_symmetry_group_IT_number 15
_symmetry_cell_setting 'monoclinic'
loop_
_space_group_symop_operation_xyz
x,y,z
-x,y,1/2-z
-x,-y,-z
x,-y,1/2+z
1/2+x,1/2+y,z
1/2-x,1/2+y,1/2-z
1/2-x,1/2-y,-z
1/2+x,1/2-y,1/2+z
loop_
_atom_site_type_symbol
_atom_site_label
_atom_site_fract_x
_atom_site_fract_y
_atom_site_fract_z
Si Si1 0.500000 0.187041 0.250000
Si Si2 0.500000 0.509242 0.750000
Si Si3 0.000000 0.868728 0.750000
Si Si4 0.422136 0.954734 0.065442
Si Si5 0.000000 0.394513 0.250000
Si Si6 0.500000 0.333833 0.250000
Si Si7 0.476732 0.258009 0.072450
Si Si8 0.266450 0.068461 0.347282
O O1 0.242128 0.159420 0.265795
O O2 0.456543 0.218251 0.153647
O O3 0.325276 0.534396 0.845439
O O4 0.317885 0.478783 0.686859
O O5 0.992026 0.903021 0.652114
O O6 0.579564 0.925832 0.143171
O O7 0.358077 0.926919 0.963721
O O8 0.500000 0.000000 0.000000
O O9 0.243707 0.364044 0.267049
O O10 0.476118 0.301757 0.145652
O O11 0.250000 0.250000 0.000000
O O12 0.750000 0.250000 0.000000
O O13 0.500000 0.079667 0.250000
#
# Coordination Sequence:
#
# PCOD9304443 Si02
#       8
#     4   4   4   8   4   4   8   8
#     4  11  24  44  68 102 143 180 229 288 338 444
#     4  11  23  44  71 101 136 190 254 315 389 446
#     4  11  24  43  65 104 147 176 235 284 371 437
#     4  12  25  46  73 101 144 193 263 314 377 470
#     4  12  28  49  73 109 149 210 247 317 399 429
#     4  11  27  52  71 114 157 182 259 306 365 478
#     4  11  24  46  78 108 141 193 238 290 364 435
#     4  11  23  44  68 103 141 189 240 317 382 435
#
# _framework density 22.248491999999999
#
# number of rings (size 3 to 8) (size 9 to 14) (size 15 to 20)
#    0.000    0.727    2.727    4.364    0.000    8.727 
#    3.273    0.000    0.000    0.000    0.000    0.000 
#    0.000    0.000    0.000    0.000    0.000    0.000 
#
# Total GULP energy -122703.511415 kJ/mol
# GULP energy per Si atom -5577.432337 kJ/mol
# Density = 2.219785 g / cm^3
# Si number density = 22.248492 Si / 1000 Ang^3
#
#
#
# Elastic Constant Matrix: (Units=GPa)
#
#
# Indices 1 2 3 4 5 6 
#
# 1 144.0302 55.3599 55.4937 0.0000 26.5435 0.0000
# 2 55.3599 119.8185 45.9616 0.0000 13.9112 0.0000
# 3 55.4937 45.9616 164.9755 0.0000 29.8730 0.0000
# 4 0.0000 0.0000 0.0000 10.9089 0.0000 14.7491
# 5 26.5435 13.9112 29.8730 0.0000 48.7241 0.0000
# 6 0.0000 0.0000 0.0000 14.7491 0.0000 57.3691
#
#
#
# Elastic Compliance Matrix: (Units=1/GPa)
#
#
# Indices 1 2 3 4 5 6 
#
# 1 0.009464 -0.003363 -0.001673 0.000000 -0.003170 0.000000
# 2 -0.003363 0.010603 -0.001807 0.000000 -0.000087 0.000000
# 3 -0.001673 -0.001807 0.007727 0.000000 -0.003310 0.000000
# 4 0.000000 0.000000 0.000000 0.140509 0.000000 -0.036123
# 5 -0.003170 -0.000087 -0.003310 0.000000 0.024305 0.000000
# 6 0.000000 0.000000 0.000000 -0.036123 0.000000 0.026718
#
#
# Mechanical properties :
#
#
# Convention : Reuss Voigt Hill
#
# Bulk Modulus (GPa) = 70.87600 82.49494 76.68547
# Shear Modulus (GPa) = 21.03363 41.53434 31.28399
#
# Velocity S-wave (km/s) = 3.07806 4.32538 3.75389
# Velocity P-wave (km/s) = 6.67520 7.88065 7.30284
#
# Compressibility (1/GPa) = 0.01410915
#
# Stress axis : x y z
#
# Youngs Moduli (GPa) = 105.65979 94.31207 129.41752
#
# Poissons Ratio (x) = 0.31719 0.21646
# Poissons Ratio (y) = 0.35535 0.23384
# Poissons Ratio (z) = 0.17672 0.17041
#
# Static dielectric constant tensor:
#      x y z
#    x 2.026550 0.000000 0.037860 
#    y 0.000000 2.428700 0.000000 
#    z 0.037860 0.000000 1.785600 
# 
# From -- ./inp_files/73953.got.cif
#   From: 2010.05.17/outbox.cif.g08.bks.cpg/sg15_37_cif.got.tgz:73953.got - 2010.06.03 18:47:42.
