data_PCOD9304498
_publ_section_title
;
Structure prediction by ZEFSAII (Michael W. Deem and Ramdas Pophale) SiO2 
 PCOD9304498
Probable space group: C 2/C
;
_chemical_formula_sum "Si O2"
_cell_formula_units_Z 32
_cell_length_a 12.996373
_cell_length_b 6.860979
_cell_length_c 12.738170
_cell_angle_alpha 90.000000
_cell_angle_beta 96.203139
_cell_angle_gamma 90.000000
_cell_volume 1129.184870
_symmetry_space_group_name_H-M "C 2/C"
_symmetry_group_IT_number 15
_symmetry_cell_setting 'monoclinic'
loop_
_space_group_symop_operation_xyz
x,y,z
-x,y,1/2-z
-x,-y,-z
x,-y,1/2+z
1/2+x,1/2+y,z
1/2-x,1/2+y,1/2-z
1/2-x,1/2-y,-z
1/2+x,1/2-y,1/2+z
loop_
_atom_site_type_symbol
_atom_site_label
_atom_site_fract_x
_atom_site_fract_y
_atom_site_fract_z
Si Si1 0.711229 0.636741 0.892966
Si Si2 0.755685 0.202780 0.839408
Si Si3 0.020451 0.788650 0.089133
Si Si4 0.531341 0.139943 0.862926
O O1 0.747915 0.413044 0.894020
O O2 0.750895 0.724122 0.787050
O O3 0.586272 0.633335 0.876899
O O4 0.750000 0.750000 0.000000
O O5 0.653450 0.094905 0.868333
O O6 0.631290 0.382434 0.124216
O O7 0.026728 0.565701 0.132429
O O8 0.008422 0.764502 0.962853
O O9 0.500000 0.234894 0.750000
#
# Coordination Sequence:
#
# PCOD9304498 Si02
#       4
#     8   8   8   8
#     4  12  26  46  73 104 140 183 233 287 346 414
#     4  12  26  45  71 100 138 184 232 286 348 411
#     4  11  24  44  68  98 139 184 231 286 345 407
#     4  11  23  44  70  99 140 184 230 287 345 409
#
# _framework density 28.339027999999999
#
# number of rings (size 3 to 8) (size 9 to 14) (size 15 to 20)
#    0.000    0.500    0.000   10.500    0.000    5.000 
#    0.000    2.500    0.000    0.000    0.000    0.000 
#    0.000    0.000    0.000    0.000    0.000    0.000 
#
# Total GULP energy -90001.321612 kJ/mol
# GULP energy per Si atom -5625.082601 kJ/mol
# Density = 2.827453 g / cm^3
# Si number density = 28.339028 Si / 1000 Ang^3
#
#
#
# Elastic Constant Matrix: (Units=GPa)
#
#
# Indices 1 2 3 4 5 6 
#
# 1 228.7045 17.6045 10.9769 0.0000 -18.1161 0.0000
# 2 17.6045 66.4952 4.0762 0.0000 4.3428 0.0000
# 3 10.9769 4.0762 175.7026 0.0000 -2.2422 0.0000
# 4 0.0000 0.0000 0.0000 40.6062 0.0000 -3.6279
# 5 -18.1161 4.3428 -2.2422 0.0000 54.1872 0.0000
# 6 0.0000 0.0000 0.0000 -3.6279 0.0000 49.2359
#
#
#
# Elastic Compliance Matrix: (Units=1/GPa)
#
#
# Indices 1 2 3 4 5 6 
#
# 1 0.004615 -0.001314 -0.000237 0.000000 0.001638 0.000000
# 2 -0.001314 0.015516 -0.000299 0.000000 -0.001695 0.000000
# 3 -0.000237 -0.000299 0.005715 0.000000 0.000181 0.000000
# 4 0.000000 0.000000 0.000000 0.024790 0.000000 0.001827
# 5 0.001638 -0.001695 0.000181 0.000000 0.019146 0.000000
# 6 0.000000 0.000000 0.000000 0.001827 0.000000 0.020445
#
#
# Mechanical properties :
#
#
# Convention : Reuss Voigt Hill
#
# Bulk Modulus (GPa) = 45.15751 59.57973 52.36862
# Shear Modulus (GPa) = 49.35376 58.02216 53.68796
#
# Velocity S-wave (km/s) = 4.17771 4.52976 4.35729
# Velocity P-wave (km/s) = 6.26421 6.95901 6.62073
#
# Compressibility (1/GPa) = 0.02214471
#
# Stress axis : x y z
#
# Youngs Moduli (GPa) = 216.69579 64.45088 174.96286
#
# Poissons Ratio (x) = 0.08470 0.04145
# Poissons Ratio (y) = 0.28479 0.05240
# Poissons Ratio (z) = 0.05134 0.01930
#
# Static dielectric constant tensor:
#      x y z
#    x 2.083590 0.000000 0.036610 
#    y 0.000000 2.231240 0.000000 
#    z 0.036610 0.000000 2.156050 
# 
# From -- ./inp_files/93259.got.cif
#   From: 2010.05.17/outbox.cif.g08.bks.cpg/sg15_47_cif.got.tgz:93259.got - 2010.06.03 18:47:42.
