data_PCOD9304542
_publ_section_title
;
Structure prediction by ZEFSAII (Michael W. Deem and Ramdas Pophale) SiO2 
 PCOD9304542
Probable space group: C 2/C
;
_chemical_formula_sum "Si O2"
_cell_formula_units_Z 60
_cell_length_a 12.133586
_cell_length_b 18.864653
_cell_length_c 18.134957
_cell_angle_alpha 90.000000
_cell_angle_beta 139.914968
_cell_angle_gamma 90.000000
_cell_volume 2672.938627
_symmetry_space_group_name_H-M "C 2/C"
_symmetry_group_IT_number 15
_symmetry_cell_setting 'monoclinic'
loop_
_space_group_symop_operation_xyz
x,y,z
-x,y,1/2-z
-x,-y,-z
x,-y,1/2+z
1/2+x,1/2+y,z
1/2-x,1/2+y,1/2-z
1/2-x,1/2-y,-z
1/2+x,1/2-y,1/2+z
loop_
_atom_site_type_symbol
_atom_site_label
_atom_site_fract_x
_atom_site_fract_y
_atom_site_fract_z
Si Si1 0.697542 0.735085 0.827428
Si Si2 0.147443 0.878889 0.066064
Si Si3 0.100490 0.182099 0.186182
Si Si4 0.500000 0.205213 0.750000
Si Si5 0.692082 0.978749 0.825557
Si Si6 0.312673 0.090506 0.928455
Si Si7 0.836389 0.853626 0.994282
Si Si8 0.706993 0.947545 0.660807
O O1 0.500000 0.732044 0.750000
O O2 0.742382 0.782645 0.779190
O O3 0.773705 0.656695 0.855415
O O4 0.791361 0.774887 0.943826
O O5 0.328994 0.840876 0.160536
O O6 0.182232 0.962076 0.078428
O O7 0.031566 0.850711 0.940005
O O8 0.037052 0.864012 0.082855
O O9 0.010106 0.243852 0.184808
O O10 0.170497 0.120467 0.275164
O O11 0.500000 0.997089 0.750000
O O12 0.703956 0.974325 0.743804
O O13 0.739364 0.904385 0.886236
O O14 0.245183 0.014572 0.865513
O O15 0.226097 0.117839 0.959559
O O16 0.515553 0.078561 0.042753
#
# Coordination Sequence:
#
# PCOD9304542 Si02
#       8
#     8   8   8   4   8   8   8   8
#     4  11  24  44  74 108 147 191 242 302 364 437
#     4  11  26  46  74 104 139 193 250 295 358 448
#     4  11  27  49  73 104 149 193 242 304 370 438
#     4  12  28  48  74 106 146 192 246 302 370 438
#     4  12  22  45  74 101 144 193 243 292 365 440
#     4  11  26  42  73 113 150 188 248 303 371 430
#     4  11  23  44  73 105 145 192 245 299 365 440
#     4  11  25  48  69 110 151 194 233 311 366 435
#
# _framework density 22.447203999999999
#
# number of rings (size 3 to 8) (size 9 to 14) (size 15 to 20)
#    0.000    0.800    4.667    2.400    7.467    1.067 
#    1.200    0.000    0.000    0.000    0.000    0.000 
#    0.000    0.000    0.000    0.000    0.000    0.000 
#
# Total GULP energy -167932.349979 kJ/mol
# GULP energy per Si atom -5597.744999 kJ/mol
# Density = 2.239611 g / cm^3
# Si number density = 22.447204 Si / 1000 Ang^3
#
#
#
# Elastic Constant Matrix: (Units=GPa)
#
#
# Indices 1 2 3 4 5 6 
#
# 1 74.6754 30.3211 16.5240 0.0000 15.2022 0.0000
# 2 30.3211 130.7926 39.7263 0.0000 14.7097 0.0000
# 3 16.5240 39.7263 84.4212 0.0000 18.0973 -0.0001
# 4 0.0000 0.0000 0.0000 38.0472 0.0000 0.3644
# 5 15.2022 14.7097 18.0973 0.0000 35.2160 0.0000
# 6 0.0000 0.0000 -0.0001 0.3644 0.0000 29.0507
#
#
#
# Elastic Compliance Matrix: (Units=1/GPa)
#
#
# Indices 1 2 3 4 5 6 
#
# 1 0.015771 -0.002879 -0.000596 0.000000 -0.005299 0.000000
# 2 -0.002879 0.009545 -0.003753 0.000000 -0.000815 0.000000
# 3 -0.000596 -0.003753 0.014988 0.000000 -0.005877 0.000000
# 4 0.000000 0.000000 0.000000 0.026286 0.000000 -0.000330
# 5 -0.005299 -0.000815 -0.005877 0.000000 0.034045 0.000000
# 6 0.000000 0.000000 0.000000 -0.000330 0.000000 0.034427
#
#
# Mechanical properties :
#
#
# Convention : Reuss Voigt Hill
#
# Bulk Modulus (GPa) = 38.68909 51.44800 45.06854
# Shear Modulus (GPa) = 31.61875 34.01732 32.81803
#
# Velocity S-wave (km/s) = 3.75718 3.89708 3.82777
# Velocity P-wave (km/s) = 6.00790 6.57412 6.29738
#
# Compressibility (1/GPa) = 0.02584708
#
# Stress axis : x y z
#
# Youngs Moduli (GPa) = 63.40748 104.76892 66.71951
#
# Poissons Ratio (x) = 0.30164 0.03977
# Poissons Ratio (y) = 0.18256 0.25041
# Poissons Ratio (z) = 0.03780 0.39322
#
# Static dielectric constant tensor:
#      x y z
#    x 1.852620 0.000000 -0.023870 
#    y 0.000000 1.818570 0.000000 
#    z -0.023870 0.000000 1.809550 
# 
# From -- ./inp_files/239988.got.cif
#   From: 2010.05.17/outbox.cif.g08.bks.cpg/sg15_120_cif.got.tgz:239988.got - 2010.06.03 18:47:42.
