data_PCOD9304277
_publ_section_title
;
Structure prediction by ZEFSAII (Michael W. Deem and Ramdas Pophale) SiO2 
 PCOD9304277
Probable space group: C 2/C
;
_chemical_formula_sum "Si O2"
_cell_formula_units_Z 40
_cell_length_a 12.823322
_cell_length_b 7.616794
_cell_length_c 20.968231
_cell_angle_alpha 90.000000
_cell_angle_beta 114.661303
_cell_angle_gamma 90.000000
_cell_volume 1861.222021
_symmetry_space_group_name_H-M "C 2/C"
_symmetry_group_IT_number 15
_symmetry_cell_setting 'monoclinic'
loop_
_space_group_symop_operation_xyz
x,y,z
-x,y,1/2-z
-x,-y,-z
x,-y,1/2+z
1/2+x,1/2+y,z
1/2-x,1/2+y,1/2-z
1/2-x,1/2-y,-z
1/2+x,1/2-y,1/2+z
loop_
_atom_site_type_symbol
_atom_site_label
_atom_site_fract_x
_atom_site_fract_y
_atom_site_fract_z
Si Si1 0.254880 0.627456 0.187024
Si Si2 0.156733 0.215858 0.420561
Si Si3 0.652215 0.701028 0.924374
Si Si4 0.017288 0.505810 0.079859
Si Si5 0.633073 0.715842 0.778698
O O1 0.292506 0.749082 0.137404
O O2 0.149280 0.513153 0.132225
O O3 0.358152 0.494525 0.227423
O O4 0.204890 0.709099 0.238386
O O5 0.250000 0.250000 0.500000
O O6 0.050661 0.343787 0.406601
O O7 0.130475 0.007662 0.417701
O O8 0.684902 0.758752 0.861249
O O9 0.540090 0.811867 0.912894
O O10 0.750000 0.750000 0.000000
O O11 0.000000 0.500000 0.000000
O O12 0.500000 0.770888 0.750000
#
# Coordination Sequence:
#
# PCOD9304277 Si02
#       5
#     8   8   8   8   8
#     4  11  26  44  69 103 139 186 233 291 354 421
#     4  11  23  43  68 104 142 181 236 288 349 424
#     4  11  23  43  72 102 143 180 233 296 342 419
#     4  12  23  44  71 105 141 182 238 290 352 419
#     4  11  25  45  68 101 141 181 235 287 352 426
#
# _framework density 21.491254999999999
#
# number of rings (size 3 to 8) (size 9 to 14) (size 15 to 20)
#    0.000    0.800    6.000    1.200    2.800    4.000 
#    0.000    0.000    0.000    0.000    0.000    0.000 
#    0.000    0.000    0.000    0.000    0.000    0.000 
#
# Total GULP energy -111776.127435 kJ/mol
# GULP energy per Si atom -5588.806372 kJ/mol
# Density = 2.144234 g / cm^3
# Si number density = 21.491255 Si / 1000 Ang^3
#
#
#
# Elastic Constant Matrix: (Units=GPa)
#
#
# Indices 1 2 3 4 5 6 
#
# 1 107.5099 34.3129 42.1494 0.0000 -30.4718 0.0000
# 2 34.3129 88.6456 24.9507 0.0000 -15.6878 0.0000
# 3 42.1494 24.9507 134.6584 0.0000 -46.2106 0.0000
# 4 0.0000 0.0000 0.0000 29.0057 0.0000 -5.9946
# 5 -30.4718 -15.6878 -46.2106 0.0000 54.6764 0.0000
# 6 0.0000 0.0000 0.0000 -5.9946 0.0000 60.4381
#
#
#
# Elastic Compliance Matrix: (Units=1/GPa)
#
#
# Indices 1 2 3 4 5 6 
#
# 1 0.012345 -0.003517 -0.001687 0.000000 0.004445 0.000000
# 2 -0.003517 0.013092 -0.000998 0.000000 0.000953 0.000000
# 3 -0.001687 -0.000998 0.010871 0.000000 0.007962 0.000000
# 4 0.000000 0.000000 0.000000 0.035198 0.000000 0.003491
# 5 0.004445 0.000953 0.007962 0.000000 0.027769 0.000000
# 6 0.000000 0.000000 0.000000 0.003491 0.000000 0.016892
#
#
# Mechanical properties :
#
#
# Convention : Reuss Voigt Hill
#
# Bulk Modulus (GPa) = 41.83355 59.29334 50.56345
# Shear Modulus (GPa) = 36.61950 44.11741 40.36846
#
# Velocity S-wave (km/s) = 4.13234 4.53571 4.33871
# Velocity P-wave (km/s) = 6.50200 7.42156 6.97695
#
# Compressibility (1/GPa) = 0.02390426
#
# Stress axis : x y z
#
# Youngs Moduli (GPa) = 81.00235 76.38390 91.98518
#
# Poissons Ratio (x) = 0.26865 0.15519
# Poissons Ratio (y) = 0.28489 0.09179
# Poissons Ratio (z) = 0.13666 0.07622
#
# Static dielectric constant tensor:
#      x y z
#    x 1.800710 0.000000 0.027390 
#    y 0.000000 1.880470 0.000000 
#    z 0.027390 0.000000 1.823390 
# 
# From -- ./inp_files/235938.got.cif
#   From: 2010.05.17/outbox.cif.g08.bks.cpg/sg15_118_cif.got.tgz:235938.got - 2010.06.03 18:47:42.
