data_PCOD9304080
_publ_section_title
;
Structure prediction by ZEFSAII (Michael W. Deem and Ramdas Pophale) SiO2 
 PCOD9304080
Probable space group: C 2/C
;
_chemical_formula_sum "Si O2"
_cell_formula_units_Z 44
_cell_length_a 16.807427
_cell_length_b 6.791559
_cell_length_c 19.781403
_cell_angle_alpha 90.000000
_cell_angle_beta 46.835446
_cell_angle_gamma 90.000000
_cell_volume 1646.981753
_symmetry_space_group_name_H-M "C 2/C"
_symmetry_group_IT_number 15
_symmetry_cell_setting 'monoclinic'
loop_
_space_group_symop_operation_xyz
x,y,z
-x,y,1/2-z
-x,-y,-z
x,-y,1/2+z
1/2+x,1/2+y,z
1/2-x,1/2+y,1/2-z
1/2-x,1/2-y,-z
1/2+x,1/2-y,1/2+z
loop_
_atom_site_type_symbol
_atom_site_label
_atom_site_fract_x
_atom_site_fract_y
_atom_site_fract_z
Si Si1 0.786575 0.391545 0.671418
Si Si2 0.349369 0.600432 0.529323
Si Si3 0.000000 0.365950 0.250000
Si Si4 0.407443 0.243929 0.232258
Si Si5 0.394914 0.308502 0.623255
Si Si6 0.874076 0.992749 0.376610
O O1 0.791902 0.287087 0.596198
O O2 0.851443 0.269612 0.692397
O O3 0.857006 0.588391 0.630980
O O4 0.658058 0.632110 0.671701
O O5 0.350088 0.437152 0.587167
O O6 0.476049 0.663551 0.447273
O O7 0.303681 0.518969 0.485258
O O8 0.931502 0.520766 0.243983
O O9 0.922202 0.209794 0.332853
O O10 0.334139 0.625382 0.226952
O O11 0.523182 0.354210 0.160267
#
# Coordination Sequence:
#
# PCOD9304080 Si02
#       6
#     8   8   4   8   8   8
#     4  12  23  41  64  98 131 170 213 268 325 379
#     4  11  23  42  66  96 128 169 217 266 320 385
#     4   8  16  34  58  90 122 170 214 250 318 382
#     4   9  19  34  59  93 128 164 213 263 314 379
#     4  11  24  39  64  95 130 169 209 267 322 382
#     4   9  19  36  62  93 122 171 211 261 320 381
#
# _framework density 26.715536
#
# number of rings (size 3 to 8) (size 9 to 14) (size 15 to 20)
#    0.000    2.182    1.818    3.818    0.000    4.364 
#    0.000    0.909    0.000    2.182    4.727    0.000 
#    0.000    0.000    0.000    0.000    0.000    0.000 
#
# Total GULP energy -123298.368133 kJ/mol
# GULP energy per Si atom -5604.471279 kJ/mol
# Density = 2.665473 g / cm^3
# Si number density = 26.715536 Si / 1000 Ang^3
#
#
#
# Elastic Constant Matrix: (Units=GPa)
#
#
# Indices 1 2 3 4 5 6 
#
# 1 73.2566 13.7340 21.8937 -0.0001 15.1864 0.0005
# 2 13.7340 198.2032 52.9865 -0.0002 6.7016 0.0018
# 3 21.8937 52.9865 134.1123 0.0003 27.7815 -0.0005
# 4 -0.0001 -0.0002 0.0003 41.7786 0.0001 5.2362
# 5 15.1864 6.7016 27.7815 0.0001 52.4993 -0.0002
# 6 0.0005 0.0018 -0.0005 5.2362 -0.0002 32.8378
#
#
#
# Elastic Compliance Matrix: (Units=1/GPa)
#
#
# Indices 1 2 3 4 5 6 
#
# 1 0.014915 -0.000511 -0.001519 0.000000 -0.003445 0.000000
# 2 -0.000511 0.005671 -0.002289 0.000000 0.000635 0.000000
# 3 -0.001519 -0.002289 0.009498 0.000000 -0.004295 0.000000
# 4 0.000000 0.000000 0.000000 0.024424 0.000000 -0.003895
# 5 -0.003445 0.000635 -0.004295 0.000000 0.022236 0.000000
# 6 0.000000 0.000000 0.000000 -0.003895 0.000000 0.031074
#
#
# Mechanical properties :
#
#
# Convention : Reuss Voigt Hill
#
# Bulk Modulus (GPa) = 46.62794 64.75561 55.69177
# Shear Modulus (GPa) = 40.45170 46.55370 43.50270
#
# Velocity S-wave (km/s) = 3.89545 4.17894 4.03968
# Velocity P-wave (km/s) = 6.14199 6.89755 6.53071
#
# Compressibility (1/GPa) = 0.02144637
#
# Stress axis : x y z
#
# Youngs Moduli (GPa) = 67.04810 176.33225 105.28123
#
# Poissons Ratio (x) = 0.09007 0.15996
# Poissons Ratio (y) = 0.03425 0.24096
# Poissons Ratio (z) = 0.10187 0.40358
#
# Static dielectric constant tensor:
#      x y z
#    x 2.163350 0.000000 0.024070 
#    y 0.000000 2.123380 0.000000 
#    z 0.024070 0.000000 2.091110 
# 
# From -- ./inp_files/275598.got.cif
#   From: 2010.05.17/outbox.cif.g08.bks.cpg/sg15_138_cif.got.tgz:275598.got - 2010.06.03 18:47:42.
