data_PCOD9304495
_publ_section_title
;
Structure prediction by ZEFSAII (Michael W. Deem and Ramdas Pophale) SiO2 
 PCOD9304495
Probable space group: C 2/C
;
_chemical_formula_sum "Si O2"
_cell_formula_units_Z 56
_cell_length_a 9.866706
_cell_length_b 20.846847
_cell_length_c 19.952041
_cell_angle_alpha 90.000000
_cell_angle_beta 143.838949
_cell_angle_gamma 90.000000
_cell_volume 2421.552222
_symmetry_space_group_name_H-M "C 2/C"
_symmetry_group_IT_number 15
_symmetry_cell_setting 'monoclinic'
loop_
_space_group_symop_operation_xyz
x,y,z
-x,y,1/2-z
-x,-y,-z
x,-y,1/2+z
1/2+x,1/2+y,z
1/2-x,1/2+y,1/2-z
1/2-x,1/2-y,-z
1/2+x,1/2-y,1/2+z
loop_
_atom_site_type_symbol
_atom_site_label
_atom_site_fract_x
_atom_site_fract_y
_atom_site_fract_z
Si Si1 0.943621 0.901652 0.058825
Si Si2 0.902282 0.692224 0.030086
Si Si3 0.303658 0.813574 0.726456
Si Si4 0.412367 0.181117 0.883788
Si Si5 0.198615 0.959799 0.277786
Si Si6 0.609337 0.998789 0.867745
Si Si7 0.840863 0.862662 0.477503
O O1 0.781377 0.864949 0.044851
O O2 0.783531 0.940507 0.944187
O O3 0.090481 0.949778 0.161191
O O4 0.092333 0.852847 0.073699
O O5 0.097391 0.673424 0.160776
O O6 0.750000 0.750000 0.000000
O O7 0.986742 0.700632 0.988550
O O8 0.500000 0.828910 0.750000
O O9 0.259269 0.737145 0.705985
O O10 0.066795 0.848217 0.611674
O O11 0.295313 0.110929 0.835550
O O12 0.630117 0.177901 0.921815
O O13 0.415306 0.005050 0.348592
O O14 0.000000 0.980218 0.250000
O O15 0.500000 0.001161 0.750000
O O16 0.747910 0.064205 0.938776
#
# Coordination Sequence:
#
# PCOD9304495 Si02
#       7
#     8   8   8   8   8   8   8
#     4  12  24  42  71 101 133 184 233 284 350 422
#     4  12  24  42  70 104 136 182 233 287 355 415
#     4  12  23  40  72 101 136 183 231 288 349 416
#     4  11  24  45  67 101 141 178 237 291 345 424
#     4  11  23  44  70  97 139 185 231 287 354 417
#     4  11  26  44  70 101 140 183 236 293 348 422
#     4  11  25  45  66 101 139 178 235 288 349 410
#
# _framework density 23.125662999999999
#
# number of rings (size 3 to 8) (size 9 to 14) (size 15 to 20)
#    0.000    0.571    5.714    2.143    2.000    1.143 
#    0.000    1.429    0.000    0.000    0.000    0.000 
#    0.000    0.000    0.000    0.000    0.000    0.000 
#
# Total GULP energy -156664.832487 kJ/mol
# GULP energy per Si atom -5595.172589 kJ/mol
# Density = 2.307303 g / cm^3
# Si number density = 23.125663 Si / 1000 Ang^3
#
#
#
# Elastic Constant Matrix: (Units=GPa)
#
#
# Indices 1 2 3 4 5 6 
#
# 1 160.1102 7.6321 37.8862 0.0002 4.0434 0.0002
# 2 7.6321 48.3647 2.2228 0.0000 -0.9595 0.0001
# 3 37.8862 2.2228 85.5815 -0.0006 -0.9732 0.0001
# 4 0.0002 0.0000 -0.0006 32.9572 0.0000 10.3115
# 5 4.0434 -0.9595 -0.9732 0.0000 27.9594 0.0001
# 6 0.0002 0.0001 0.0001 10.3115 0.0001 20.9764
#
#
#
# Elastic Compliance Matrix: (Units=1/GPa)
#
#
# Indices 1 2 3 4 5 6 
#
# 1 0.007059 -0.000994 -0.003112 0.000000 -0.001163 0.000000
# 2 -0.000994 0.020854 -0.000092 0.000000 0.000856 0.000000
# 3 -0.003112 -0.000092 0.013075 0.000000 0.000902 0.000000
# 4 0.000000 0.000000 0.000000 0.035857 0.000000 -0.017627
# 5 -0.001163 0.000856 0.000902 0.000000 0.035995 0.000000
# 6 0.000000 0.000000 0.000000 -0.017627 0.000000 0.056338
#
#
# Mechanical properties :
#
#
# Convention : Reuss Voigt Hill
#
# Bulk Modulus (GPa) = 30.68232 43.28205 36.98219
# Shear Modulus (GPa) = 26.53382 32.79962 29.66672
#
# Velocity S-wave (km/s) = 3.39097 3.77015 3.58557
# Velocity P-wave (km/s) = 5.35051 6.14074 5.75920
#
# Compressibility (1/GPa) = 0.03259206
#
# Stress axis : x y z
#
# Youngs Moduli (GPa) = 141.66490 47.95178 76.48064
#
# Poissons Ratio (x) = 0.04766 0.23803
# Poissons Ratio (y) = 0.14081 0.00703
# Poissons Ratio (z) = 0.44091 0.00441
#
# Static dielectric constant tensor:
#      x y z
#    x 1.857790 0.000000 0.025370 
#    y 0.000000 1.877800 0.000000 
#    z 0.025370 0.000000 1.853560 
# 
# From -- ./inp_files/193891.got.cif
#   From: 2010.05.17/outbox.cif.g08.bks.cpg/sg15_97_cif.got.tgz:193891.got - 2010.06.03 18:47:42.
