data_PCOD9304217
_publ_section_title
;
Structure prediction by ZEFSAII (Michael W. Deem and Ramdas Pophale) SiO2 
 PCOD9304217
Probable space group: C 2/C
;
_chemical_formula_sum "Si O2"
_cell_formula_units_Z 40
_cell_length_a 21.152123
_cell_length_b 6.839887
_cell_length_c 23.680616
_cell_angle_alpha 90.000000
_cell_angle_beta 143.027919
_cell_angle_gamma 90.000000
_cell_volume 2060.525226
_symmetry_space_group_name_H-M "C 2/C"
_symmetry_group_IT_number 15
_symmetry_cell_setting 'monoclinic'
loop_
_space_group_symop_operation_xyz
x,y,z
-x,y,1/2-z
-x,-y,-z
x,-y,1/2+z
1/2+x,1/2+y,z
1/2-x,1/2+y,1/2-z
1/2-x,1/2-y,-z
1/2+x,1/2-y,1/2+z
loop_
_atom_site_type_symbol
_atom_site_label
_atom_site_fract_x
_atom_site_fract_y
_atom_site_fract_z
Si Si1 0.869804 0.602459 0.852705
Si Si2 0.251216 0.571068 0.336759
Si Si3 0.777128 0.444560 0.985135
Si Si4 0.878409 0.716151 0.147767
Si Si5 0.398429 0.222290 0.465403
O O1 0.821325 0.552522 0.757675
O O2 0.790946 0.737859 0.832093
O O3 0.889148 0.402188 0.901140
O O4 0.981004 0.713309 0.929132
O O5 0.187479 0.628026 0.346979
O O6 0.350982 0.436954 0.423710
O O7 0.673113 0.574169 0.902072
O O8 0.828901 0.386152 0.963017
O O9 0.750000 0.250000 0.000000
O O10 0.856295 0.578143 0.078206
O O11 0.000000 0.727632 0.250000
#
# Coordination Sequence:
#
# PCOD9304217 Si02
#       5
#     8   8   8   8   8
#     4  11  24  40  66  95 125 168 207 257 320 371
#     4  12  22  44  64  93 132 159 216 260 307 383
#     4  11  23  45  65  93 130 167 213 263 317 382
#     4  11  25  43  66  95 127 168 215 267 316 376
#     4  11  23  43  64  91 129 168 208 257 314 378
#
# _framework density 19.412524999999999
#
# number of rings (size 3 to 8) (size 9 to 14) (size 15 to 20)
#    0.000    0.800    6.000    1.800    0.000    0.800 
#    7.200    0.000    0.000    0.000    0.000    0.000 
#    0.000    0.000    0.000    0.000    0.000    0.000 
#
# Total GULP energy -111861.007048 kJ/mol
# GULP energy per Si atom -5593.050352 kJ/mol
# Density = 1.936834 g / cm^3
# Si number density = 19.412525 Si / 1000 Ang^3
#
#
#
# Elastic Constant Matrix: (Units=GPa)
#
#
# Indices 1 2 3 4 5 6 
#
# 1 26.0687 13.4564 -12.0788 0.0000 -1.3006 -0.0001
# 2 13.4564 61.6571 14.1744 0.0001 0.2318 0.0001
# 3 -12.0788 14.1744 73.9054 0.0000 17.8115 0.0001
# 4 0.0000 0.0001 0.0000 23.7432 0.0000 -10.0933
# 5 -1.3006 0.2318 17.8115 0.0000 28.2568 0.0000
# 6 -0.0001 0.0001 0.0001 -10.0933 0.0000 33.3651
#
#
#
# Elastic Compliance Matrix: (Units=1/GPa)
#
#
# Indices 1 2 3 4 5 6 
#
# 1 0.050972 -0.013926 0.012273 0.000000 -0.005276 0.000000
# 2 -0.013926 0.020894 -0.007178 0.000000 0.003712 0.000000
# 3 0.012273 -0.007178 0.019766 0.000000 -0.011835 0.000000
# 4 0.000000 0.000000 0.000000 0.048333 0.000000 0.014621
# 5 -0.005276 0.003712 -0.011835 0.000000 0.042577 0.000000
# 6 0.000000 0.000000 0.000000 0.014621 0.000000 0.034395
#
#
# Mechanical properties :
#
#
# Convention : Reuss Voigt Hill
#
# Bulk Modulus (GPa) = 13.51897 21.41501 17.46699
# Shear Modulus (GPa) = 19.28603 26.81162 23.04883
#
# Velocity S-wave (km/s) = 3.15538 3.72042 3.44949
# Velocity P-wave (km/s) = 4.50049 5.43239 4.98825
#
# Compressibility (1/GPa) = 0.07397014
#
# Stress axis : x y z
#
# Youngs Moduli (GPa) = 19.61858 47.86007 50.59255
#
# Poissons Ratio (x) = 0.66650 -0.62093
# Poissons Ratio (y) = 0.27321 0.36315
# Poissons Ratio (z) = -0.24078 0.34354
#
# Static dielectric constant tensor:
#      x y z
#    x 1.641540 0.000000 -0.006870 
#    y 0.000000 1.669130 0.000000 
#    z -0.006870 0.000000 1.658320 
# 
# From -- ./inp_files/170497.got.cif
#   From: 2010.05.17/outbox.cif.g08.bks.cpg/sg15_86_cif.got.tgz:170497.got - 2010.06.03 18:47:42.
