data_PCOD9304752
_publ_section_title
;
Structure prediction by ZEFSAII (Michael W. Deem and Ramdas Pophale) SiO2 
 PCOD9304752
Probable space group: C 2/C
;
_chemical_formula_sum "Si O2"
_cell_formula_units_Z 56
_cell_length_a 28.135479
_cell_length_b 8.655810
_cell_length_c 10.251420
_cell_angle_alpha 90.000000
_cell_angle_beta 63.575766
_cell_angle_gamma 90.000000
_cell_volume 2235.749273
_symmetry_space_group_name_H-M "C 2/C"
_symmetry_group_IT_number 15
_symmetry_cell_setting 'monoclinic'
loop_
_space_group_symop_operation_xyz
x,y,z
-x,y,1/2-z
-x,-y,-z
x,-y,1/2+z
1/2+x,1/2+y,z
1/2-x,1/2+y,1/2-z
1/2-x,1/2-y,-z
1/2+x,1/2-y,1/2+z
loop_
_atom_site_type_symbol
_atom_site_label
_atom_site_fract_x
_atom_site_fract_y
_atom_site_fract_z
Si Si1 0.304838 0.828080 0.790153
Si Si2 0.556942 0.224069 0.028104
Si Si3 0.599141 0.889408 0.014282
Si Si4 0.737856 0.834993 0.152077
Si Si5 0.130521 0.897288 0.138237
Si Si6 0.133299 0.232114 0.210133
Si Si7 0.959967 0.855441 0.052874
O O1 0.359550 0.884903 0.655449
O O2 0.276967 0.715416 0.719091
O O3 0.322852 0.725448 0.891931
O O4 0.269607 0.981037 0.854193
O O5 0.590422 0.342808 0.075391
O O6 0.493919 0.243216 0.104200
O O7 0.578411 0.255996 0.855162
O O8 0.570655 0.051470 0.049755
O O9 0.558008 0.746030 0.048815
O O10 0.632171 0.866492 0.104932
O O11 0.679751 0.764220 0.255991
O O12 0.750000 0.750000 0.000000
O O13 0.094536 0.901033 0.312861
O O14 0.145941 0.076239 0.113775
O O15 0.000000 0.000000 0.000000
#
# Coordination Sequence:
#
# PCOD9304752 Si02
#       7
#     8   8   8   8   8   8   8
#     4  11  25  47  72 105 140 186 235 296 359 423
#     4  12  25  45  71 102 146 190 238 293 357 419
#     4  11  25  44  71 101 146 183 239 293 351 424
#     4  12  25  46  76 104 143 185 241 295 359 432
#     4  11  26  45  72 104 147 187 238 295 356 421
#     4  12  25  45  74 104 141 188 237 298 356 423
#     4  11  23  46  71 102 143 192 240 291 351 422
#
# _framework density 25.047532
#
# number of rings (size 3 to 8) (size 9 to 14) (size 15 to 20)
#    0.000    0.571    4.286    3.429    4.000    1.714 
#    2.571    2.143    0.000    0.000    0.000    0.000 
#    0.000    0.000    0.000    0.000    0.000    0.000 
#
# Total GULP energy -156723.004879 kJ/mol
# GULP energy per Si atom -5597.250174 kJ/mol
# Density = 2.499052 g / cm^3
# Si number density = 25.047532 Si / 1000 Ang^3
#
#
#
# Elastic Constant Matrix: (Units=GPa)
#
#
# Indices 1 2 3 4 5 6 
#
# 1 109.0293 29.4191 -14.1311 0.0000 9.1648 0.0000
# 2 29.4191 139.9394 8.0826 0.0000 -6.7244 0.0000
# 3 -14.1311 8.0826 40.4410 0.0000 5.3747 0.0000
# 4 0.0000 0.0000 0.0000 32.1780 0.0000 -1.5692
# 5 9.1648 -6.7244 5.3747 0.0000 35.7338 0.0000
# 6 0.0000 0.0000 0.0000 -1.5692 0.0000 56.4480
#
#
#
# Elastic Compliance Matrix: (Units=1/GPa)
#
#
# Indices 1 2 3 4 5 6 
#
# 1 0.010894 -0.002768 0.004898 0.000000 -0.004052 0.000000
# 2 -0.002768 0.008025 -0.002924 0.000000 0.002660 0.000000
# 3 0.004898 -0.002924 0.027820 0.000000 -0.005991 0.000000
# 4 0.000000 0.000000 0.000000 0.031119 0.000000 0.000865
# 5 -0.004052 0.002660 -0.005991 0.000000 0.030425 0.000000
# 6 0.000000 0.000000 0.000000 0.000865 0.000000 0.017739
#
#
# Mechanical properties :
#
#
# Convention : Reuss Voigt Hill
#
# Bulk Modulus (GPa) = 22.14819 37.35012 29.74915
# Shear Modulus (GPa) = 35.04820 42.60790 38.82805
#
# Velocity S-wave (km/s) = 3.74474 4.12889 3.94150
# Velocity P-wave (km/s) = 5.24967 6.13795 5.71111
#
# Compressibility (1/GPa) = 0.04515041
#
# Stress axis : x y z
#
# Youngs Moduli (GPa) = 91.79256 124.61757 35.94579
#
# Poissons Ratio (x) = 0.34492 -0.17607
# Poissons Ratio (y) = 0.25407 0.10512
# Poissons Ratio (z) = -0.44963 0.36444
#
# Static dielectric constant tensor:
#      x y z
#    x 1.967490 0.000000 -0.054760 
#    y 0.000000 2.008830 0.000000 
#    z -0.054760 0.000000 1.980240 
# 
# From -- ./inp_files/121873.got.cif
#   From: 2010.05.17/outbox.cif.g08.bks.cpg/sg15_61_cif.got.tgz:121873.got - 2010.06.03 18:47:42.
