data_PCOD9304790
_publ_section_title
;
Structure prediction by ZEFSAII (Michael W. Deem and Ramdas Pophale) SiO2 
 PCOD9304790
Probable space group: C 2/C
;
_chemical_formula_sum "Si O2"
_cell_formula_units_Z 36
_cell_length_a 18.365253
_cell_length_b 4.962426
_cell_length_c 14.093110
_cell_angle_alpha 90.000000
_cell_angle_beta 87.617799
_cell_angle_gamma 90.000000
_cell_volume 1283.282634
_symmetry_space_group_name_H-M "C 2/C"
_symmetry_group_IT_number 15
_symmetry_cell_setting 'monoclinic'
loop_
_space_group_symop_operation_xyz
x,y,z
-x,y,1/2-z
-x,-y,-z
x,-y,1/2+z
1/2+x,1/2+y,z
1/2-x,1/2+y,1/2-z
1/2-x,1/2-y,-z
1/2+x,1/2-y,1/2+z
loop_
_atom_site_type_symbol
_atom_site_label
_atom_site_fract_x
_atom_site_fract_y
_atom_site_fract_z
Si Si1 0.000000 0.000000 0.000000
Si Si2 0.205634 0.382416 0.382178
Si Si3 0.112974 0.863689 0.343293
Si Si4 0.850597 0.645525 0.411056
Si Si5 0.071805 0.880149 0.648966
O O1 0.058909 0.193473 0.933088
O O2 0.000055 0.791286 0.902489
O O3 0.163831 0.603705 0.325054
O O4 0.189935 0.453156 0.492755
O O5 0.291657 0.342146 0.364250
O O6 0.169455 0.095607 0.368214
O O7 0.076082 0.962551 0.246904
O O8 0.877995 0.380415 0.357491
O O9 0.915096 0.866675 0.428824
#
# Coordination Sequence:
#
# PCOD9304790 Si02
#       5
#     4   8   8   8   8
#     4  12  26  50  70 104 156 202 250 312 356 466
#     4  11  23  46  75 106 145 191 242 311 381 447
#     4  12  26  45  74 109 146 197 250 306 377 444
#     4  11  23  46  75 106 145 191 242 311 381 447
#     4  12  26  45  74 109 146 197 250 306 377 444
#
# _framework density 28.053055000000001
#
# number of rings (size 3 to 8) (size 9 to 14) (size 15 to 20)
#    0.000    0.444    4.444    3.333    0.000   10.667 
#    0.000    4.444    0.000    0.000    0.000    0.000 
#    0.000    0.000    0.000    0.000    0.000    0.000 
#
# Total GULP energy -100430.812845 kJ/mol
# GULP energy per Si atom -5579.489603 kJ/mol
# Density = 2.798920 g / cm^3
# Si number density = 28.053055 Si / 1000 Ang^3
#
#
#
# Elastic Constant Matrix: (Units=GPa)
#
#
# Indices 1 2 3 4 5 6 
#
# 1 142.8543 62.9845 23.7539 0.0000 14.6045 0.0000
# 2 62.9845 175.2935 29.6349 0.0000 -2.0149 0.0000
# 3 23.7539 29.6349 197.3324 0.0000 12.0801 0.0000
# 4 0.0000 0.0000 0.0000 35.3314 0.0000 8.5501
# 5 14.6045 -2.0149 12.0801 0.0000 31.8315 0.0000
# 6 0.0000 0.0000 0.0000 8.5501 0.0000 39.3350
#
#
#
# Elastic Compliance Matrix: (Units=1/GPa)
#
#
# Indices 1 2 3 4 5 6 
#
# 1 0.008884 -0.003183 -0.000337 0.000000 -0.004149 0.000000
# 2 -0.003183 0.007010 -0.000805 0.000000 0.002209 0.000000
# 3 -0.000337 -0.000805 0.005347 0.000000 -0.001925 0.000000
# 4 0.000000 0.000000 0.000000 0.029875 0.000000 -0.006494
# 5 -0.004149 0.002209 -0.001925 0.000000 0.034190 0.000000
# 6 0.000000 0.000000 0.000000 -0.006494 0.000000 0.026834
#
#
# Mechanical properties :
#
#
# Convention : Reuss Voigt Hill
#
# Bulk Modulus (GPa) = 79.42456 83.13632 81.28044
# Shear Modulus (GPa) = 40.00459 47.90671 43.95565
#
# Velocity S-wave (km/s) = 3.78038 4.13694 3.96267
# Velocity P-wave (km/s) = 6.88686 7.24698 7.06921
#
# Compressibility (1/GPa) = 0.01259056
#
# Stress axis : x y z
#
# Youngs Moduli (GPa) = 112.56625 142.65893 187.02295
#
# Poissons Ratio (x) = 0.45403 0.06310
# Poissons Ratio (y) = 0.35826 0.15052
# Poissons Ratio (z) = 0.03798 0.11482
#
# Static dielectric constant tensor:
#      x y z
#    x 2.995450 0.000000 0.413820 
#    y 0.000000 2.309220 0.000000 
#    z 0.413820 0.000000 2.658640 
# 
# From -- ./inp_files/165094.got.cif
#   From: 2010.05.17/outbox.cif.g08.bks.cpg/sg15_83_cif.got.tgz:165094.got - 2010.06.03 18:47:42.
