data_PCOD9304398
_publ_section_title
;
Structure prediction by ZEFSAII (Michael W. Deem and Ramdas Pophale) SiO2 
 PCOD9304398
Probable space group: C 2/C
;
_chemical_formula_sum "Si O2"
_cell_formula_units_Z 64
_cell_length_a 11.438315
_cell_length_b 11.777883
_cell_length_c 21.589015
_cell_angle_alpha 90.000000
_cell_angle_beta 112.179947
_cell_angle_gamma 90.000000
_cell_volume 2693.235942
_symmetry_space_group_name_H-M "C 2/C"
_symmetry_group_IT_number 15
_symmetry_cell_setting 'monoclinic'
loop_
_space_group_symop_operation_xyz
x,y,z
-x,y,1/2-z
-x,-y,-z
x,-y,1/2+z
1/2+x,1/2+y,z
1/2-x,1/2+y,1/2-z
1/2-x,1/2-y,-z
1/2+x,1/2-y,1/2+z
loop_
_atom_site_type_symbol
_atom_site_label
_atom_site_fract_x
_atom_site_fract_y
_atom_site_fract_z
Si Si1 0.427221 0.235604 0.592487
Si Si2 0.839872 0.993763 0.889921
Si Si3 0.882982 0.683859 0.178450
Si Si4 0.129729 0.436237 0.515614
Si Si5 0.883495 0.980371 0.542027
Si Si6 0.298501 0.792010 0.191437
Si Si7 0.180207 0.639662 0.666963
Si Si8 0.600247 0.877235 0.636152
O O1 0.370784 0.121591 0.551359
O O2 0.378925 0.343257 0.545266
O O3 0.396082 0.248996 0.658765
O O4 0.576046 0.218799 0.613237
O O5 0.782069 0.113566 0.860068
O O6 0.734487 0.904916 0.844481
O O7 0.869035 0.975988 0.969001
O O8 0.985840 0.001634 0.896103
O O9 0.816513 0.806917 0.176124
O O10 0.000000 0.664991 0.250000
O O11 0.961183 0.657693 0.130605
O O12 0.252167 0.514882 0.547436
O O13 0.125706 0.344657 0.569712
O O14 0.000000 0.500000 0.500000
O O15 0.343701 0.845657 0.264224
O O16 0.206469 0.691092 0.194003
O O17 0.138235 0.509546 0.647516
#
# Coordination Sequence:
#
# PCOD9304398 Si02
#       8
#     8   8   8   8   8   8   8   8
#     4  12  23  47  74 107 148 193 259 313 387 468
#     4  11  24  44  75 111 147 201 256 316 398 459
#     4  12  25  51  76 108 160 203 258 323 382 471
#     4  12  23  44  72 107 150 195 244 319 389 459
#     4  11  23  43  74 109 150 190 252 326 378 470
#     4  12  25  46  75 107 147 199 257 316 385 458
#     4  12  27  48  75 112 148 207 262 316 383 471
#     4  12  26  46  74 108 151 199 254 312 393 457
#
# _framework density 23.763235000000002
#
# number of rings (size 3 to 8) (size 9 to 14) (size 15 to 20)
#    0.000    0.250    6.250    3.750    0.000    1.000 
#    0.000    1.875    0.000    0.000    0.000    0.000 
#    0.000    0.000    0.000    0.000    0.000    0.000 
#
# Total GULP energy -178524.742504 kJ/mol
# GULP energy per Si atom -5578.898203 kJ/mol
# Density = 2.370915 g / cm^3
# Si number density = 23.763235 Si / 1000 Ang^3
#
#
#
# Elastic Constant Matrix: (Units=GPa)
#
#
# Indices 1 2 3 4 5 6 
#
# 1 142.3113 26.6969 27.8152 0.0000 23.7131 0.0000
# 2 26.6969 77.4208 9.2908 0.0000 7.5138 0.0000
# 3 27.8152 9.2908 89.8284 0.0000 5.7364 0.0000
# 4 0.0000 0.0000 0.0000 26.6520 0.0000 3.1650
# 5 23.7131 7.5138 5.7364 0.0000 45.9263 0.0000
# 6 0.0000 0.0000 0.0000 3.1650 0.0000 26.1295
#
#
#
# Elastic Compliance Matrix: (Units=1/GPa)
#
#
# Indices 1 2 3 4 5 6 
#
# 1 0.008506 -0.002311 -0.002156 0.000000 -0.003744 0.000000
# 2 -0.002311 0.013889 -0.000657 0.000000 -0.000997 0.000000
# 3 -0.002156 -0.000657 0.011885 0.000000 -0.000264 0.000000
# 4 0.000000 0.000000 0.000000 0.038068 0.000000 -0.004611
# 5 -0.003744 -0.000997 -0.000264 0.000000 0.023903 0.000000
# 6 0.000000 0.000000 0.000000 -0.004611 0.000000 0.038830
#
#
# Mechanical properties :
#
#
# Convention : Reuss Voigt Hill
#
# Bulk Modulus (GPa) = 41.61187 48.57404 45.09296
# Shear Modulus (GPa) = 32.60759 36.12538 34.36649
#
# Velocity S-wave (km/s) = 3.70832 3.90323 3.80702
# Velocity P-wave (km/s) = 5.99037 6.38740 6.19207
#
# Compressibility (1/GPa) = 0.02403160
#
# Stress axis : x y z
#
# Youngs Moduli (GPa) = 117.56951 71.99975 84.14211
#
# Poissons Ratio (x) = 0.16638 0.18138
# Poissons Ratio (y) = 0.27169 0.05530
# Poissons Ratio (z) = 0.25344 0.04732
#
# Static dielectric constant tensor:
#      x y z
#    x 2.034250 0.000000 -0.023250 
#    y 0.000000 1.935440 0.000000 
#    z -0.023250 0.000000 2.063550 
# 
# From -- ./inp_files/269285.got.cif
#   From: 2010.05.17/outbox.cif.g08.bks.cpg/sg15_135_cif.got.tgz:269285.got - 2010.06.03 18:47:42.
