data_PCOD9304441
_publ_section_title
;
Structure prediction by ZEFSAII (Michael W. Deem and Ramdas Pophale) SiO2 
 PCOD9304441
Probable space group: C 2/C
;
_chemical_formula_sum "Si O2"
_cell_formula_units_Z 44
_cell_length_a 11.950992
_cell_length_b 8.739377
_cell_length_c 18.612980
_cell_angle_alpha 90.000000
_cell_angle_beta 109.423831
_cell_angle_gamma 90.000000
_cell_volume 1833.373338
_symmetry_space_group_name_H-M "C 2/C"
_symmetry_group_IT_number 15
_symmetry_cell_setting 'monoclinic'
loop_
_space_group_symop_operation_xyz
x,y,z
-x,y,1/2-z
-x,-y,-z
x,-y,1/2+z
1/2+x,1/2+y,z
1/2-x,1/2+y,1/2-z
1/2-x,1/2-y,-z
1/2+x,1/2-y,1/2+z
loop_
_atom_site_type_symbol
_atom_site_label
_atom_site_fract_x
_atom_site_fract_y
_atom_site_fract_z
Si Si1 0.250000 0.750000 0.000000
Si Si2 0.140117 0.435673 0.934686
Si Si3 0.981837 0.932550 0.862661
Si Si4 0.190425 0.289474 0.100944
Si Si5 0.909526 0.736893 0.395098
Si Si6 0.305303 0.576861 0.190624
O O1 0.197256 0.600961 0.944098
O O2 0.358427 0.769732 0.963907
O O3 0.206140 0.334018 0.889045
O O4 0.000923 0.401023 0.898787
O O5 0.170703 0.368308 0.019932
O O6 0.972966 0.101455 0.894273
O O7 0.897182 0.931035 0.774765
O O8 0.116988 0.901085 0.866631
O O9 0.925359 0.803244 0.900109
O O10 0.235823 0.419090 0.164268
O O11 0.792647 0.707633 0.322021
#
# Coordination Sequence:
#
# PCOD9304441 Si02
#       6
#     4   8   8   8   8   8
#     4  12  24  42  66 102 138 178 226 282 358 402
#     4  11  25  42  71 101 138 183 226 292 349 415
#     4  11  25  46  70  95 142 184 230 287 344 408
#     4  11  23  44  68 102 134 180 234 281 353 413
#     4  12  25  44  70 103 136 182 233 288 347 419
#     4  11  25  45  69  99 135 186 233 281 342 420
#
# _framework density 23.999476000000001
#
# number of rings (size 3 to 8) (size 9 to 14) (size 15 to 20)
#    0.000    0.727    5.455    1.636    2.545    0.727 
#    0.000    0.000    0.000    0.000    0.000    0.000 
#    0.000    0.000    0.000    0.000    0.000    0.000 
#
# Total GULP energy -122795.590467 kJ/mol
# GULP energy per Si atom -5581.617748 kJ/mol
# Density = 2.394485 g / cm^3
# Si number density = 23.999476 Si / 1000 Ang^3
#
#
#
# Elastic Constant Matrix: (Units=GPa)
#
#
# Indices 1 2 3 4 5 6 
#
# 1 153.2296 53.1777 9.2619 0.0000 14.9419 0.0000
# 2 53.1777 134.4464 4.3400 0.0000 0.9538 0.0000
# 3 9.2619 4.3400 29.2823 0.0000 2.8071 0.0000
# 4 0.0000 0.0000 0.0000 28.2374 0.0000 -3.8169
# 5 14.9419 0.9538 2.8071 0.0000 27.6714 0.0000
# 6 0.0000 0.0000 0.0000 -3.8169 0.0000 38.6869
#
#
#
# Elastic Compliance Matrix: (Units=1/GPa)
#
#
# Indices 1 2 3 4 5 6 
#
# 1 0.008114 -0.003125 -0.001710 0.000000 -0.004100 0.000000
# 2 -0.003125 0.008678 -0.000435 0.000000 0.001432 0.000000
# 3 -0.001710 -0.000435 0.035006 0.000000 -0.002613 0.000000
# 4 0.000000 0.000000 0.000000 0.035893 0.000000 0.003541
# 5 -0.004100 0.001432 -0.002613 0.000000 0.038568 0.000000
# 6 0.000000 0.000000 0.000000 0.003541 0.000000 0.026198
#
#
# Mechanical properties :
#
#
# Convention : Reuss Voigt Hill
#
# Bulk Modulus (GPa) = 24.23810 50.05753 37.14781
# Shear Modulus (GPa) = 28.28865 35.59772 31.94318
#
# Velocity S-wave (km/s) = 3.43697 3.85550 3.65224
# Velocity P-wave (km/s) = 5.08643 6.38145 5.77038
#
# Compressibility (1/GPa) = 0.04125735
#
# Stress axis : x y z
#
# Youngs Moduli (GPa) = 123.24601 115.23635 28.56642
#
# Poissons Ratio (x) = 0.36011 0.04885
# Poissons Ratio (y) = 0.38514 0.01243
# Poissons Ratio (z) = 0.21077 0.05013
#
# Static dielectric constant tensor:
#      x y z
#    x 1.744320 0.000000 -0.236320 
#    y 0.000000 1.912600 0.000000 
#    z -0.236320 0.000000 1.588910 
# 
# From -- ./inp_files/236053.got.cif
#   From: 2010.05.17/outbox.cif.g08.bks.cpg/sg15_119_cif.got.tgz:236053.got - 2010.06.03 18:47:42.
