data_PCOD9304221
_publ_section_title
;
Structure prediction by ZEFSAII (Michael W. Deem and Ramdas Pophale) SiO2 
 PCOD9304221
Probable space group: C 2/C
;
_chemical_formula_sum "Si O2"
_cell_formula_units_Z 56
_cell_length_a 9.500232
_cell_length_b 30.098076
_cell_length_c 10.172091
_cell_angle_alpha 90.000000
_cell_angle_beta 111.624316
_cell_angle_gamma 90.000000
_cell_volume 2703.888143
_symmetry_space_group_name_H-M "C 2/C"
_symmetry_group_IT_number 15
_symmetry_cell_setting 'monoclinic'
loop_
_space_group_symop_operation_xyz
x,y,z
-x,y,1/2-z
-x,-y,-z
x,-y,1/2+z
1/2+x,1/2+y,z
1/2-x,1/2+y,1/2-z
1/2-x,1/2-y,-z
1/2+x,1/2-y,1/2+z
loop_
_atom_site_type_symbol
_atom_site_label
_atom_site_fract_x
_atom_site_fract_y
_atom_site_fract_z
Si Si1 0.829528 0.086849 0.742846
Si Si2 0.881270 0.330608 0.324928
Si Si3 0.904991 0.339371 0.850800
Si Si4 0.909565 0.516006 0.841421
Si Si5 0.051684 0.048003 0.462313
Si Si6 0.180609 0.760519 0.829040
Si Si7 0.264837 0.568275 0.232069
O O1 0.749018 0.133547 0.700165
O O2 0.717816 0.049444 0.649150
O O3 0.000000 0.084841 0.750000
O O4 0.845326 0.073260 0.899494
O O5 0.982157 0.328906 0.490332
O O6 0.807652 0.284285 0.253271
O O7 0.000000 0.343179 0.250000
O O8 0.776309 0.301730 0.808557
O O9 0.826911 0.387851 0.835779
O O10 0.000000 0.338831 0.750000
O O11 0.838187 0.471701 0.753284
O O12 0.000000 0.537600 0.750000
O O13 0.000000 0.500000 0.000000
O O14 0.149131 0.046867 0.363508
O O15 0.899802 0.076139 0.381258
O O16 0.000000 0.000000 0.500000
O O17 0.000000 0.770827 0.750000
O O18 0.250000 0.750000 0.000000
#
# Coordination Sequence:
#
# PCOD9304221 Si02
#       7
#     8   8   8   8   8   8   8
#     4  12  26  41  71 100 141 183 240 297 359 429
#     4  11  24  49  73 104 146 191 246 298 370 453
#     4  12  27  47  73 111 154 190 245 312 373 451
#     4  12  25  42  67  95 136 189 230 287 357 427
#     4  11  23  43  65 101 138 183 244 304 351 426
#     4  11  24  49  82 109 145 197 250 302 376 452
#     4  11  25  42  69  98 142 189 238 298 368 431
#
# _framework density 20.710916999999998
#
# number of rings (size 3 to 8) (size 9 to 14) (size 15 to 20)
#    0.000    0.571    4.286    4.286    6.000    1.143 
#    0.000    0.000    0.000    0.000    0.000    0.000 
#    0.000    0.000    0.000    0.000    0.000    0.000 
#
# Total GULP energy -156470.597156 kJ/mol
# GULP energy per Si atom -5588.235613 kJ/mol
# Density = 2.066378 g / cm^3
# Si number density = 20.710917 Si / 1000 Ang^3
#
#
#
# Elastic Constant Matrix: (Units=GPa)
#
#
# Indices 1 2 3 4 5 6 
#
# 1 129.3660 66.6529 35.9702 0.0000 1.0772 0.0000
# 2 66.6529 158.0024 29.1003 0.0000 14.2299 0.0000
# 3 35.9702 29.1003 125.1925 0.0000 14.1645 0.0000
# 4 0.0000 0.0000 0.0000 29.6727 0.0000 9.2495
# 5 1.0772 14.2299 14.1645 0.0000 34.5972 0.0000
# 6 0.0000 0.0000 0.0000 9.2495 0.0000 45.0099
#
#
#
# Elastic Compliance Matrix: (Units=1/GPa)
#
#
# Indices 1 2 3 4 5 6 
#
# 1 0.010532 -0.004230 -0.002310 0.000000 0.002357 0.000000
# 2 -0.004230 0.008473 -0.000393 0.000000 -0.003192 0.000000
# 3 -0.002310 -0.000393 0.009140 0.000000 -0.003508 0.000000
# 4 0.000000 0.000000 0.000000 0.036008 0.000000 -0.007400
# 5 0.002357 -0.003192 -0.003508 0.000000 0.031580 0.000000
# 6 0.000000 0.000000 0.000000 -0.007400 0.000000 0.023738
#
#
# Mechanical properties :
#
#
# Convention : Reuss Voigt Hill
#
# Bulk Modulus (GPa) = 70.02841 75.11198 72.57020
# Shear Modulus (GPa) = 36.20700 40.57848 38.39274
#
# Velocity S-wave (km/s) = 4.18569 4.43118 4.31018
# Velocity P-wave (km/s) = 7.56609 7.90734 7.73860
#
# Compressibility (1/GPa) = 0.01427992
#
# Stress axis : x y z
#
# Youngs Moduli (GPa) = 94.95014 118.01849 109.41438
#
# Poissons Ratio (x) = 0.49919 0.25270
# Poissons Ratio (y) = 0.40162 0.04301
# Poissons Ratio (z) = 0.21929 0.04639
#
# Static dielectric constant tensor:
#      x y z
#    x 1.912660 0.000000 -0.068420 
#    y 0.000000 1.805330 0.000000 
#    z -0.068420 0.000000 1.807590 
# 
# From -- ./inp_files/81401.got.cif
#   From: 2010.05.17/outbox.cif.g08.bks.cpg/sg15_41_cif.got.tgz:81401.got - 2010.06.03 18:47:42.
