data_PCOD9304300
_publ_section_title
;
Structure prediction by ZEFSAII (Michael W. Deem and Ramdas Pophale) SiO2 
 PCOD9304300
Probable space group: C 2/C
;
_chemical_formula_sum "Si O2"
_cell_formula_units_Z 40
_cell_length_a 13.212241
_cell_length_b 7.335129
_cell_length_c 18.638603
_cell_angle_alpha 90.000000
_cell_angle_beta 97.528614
_cell_angle_gamma 90.000000
_cell_volume 1790.760713
_symmetry_space_group_name_H-M "C 2/C"
_symmetry_group_IT_number 15
_symmetry_cell_setting 'monoclinic'
loop_
_space_group_symop_operation_xyz
x,y,z
-x,y,1/2-z
-x,-y,-z
x,-y,1/2+z
1/2+x,1/2+y,z
1/2-x,1/2+y,1/2-z
1/2-x,1/2-y,-z
1/2+x,1/2-y,1/2+z
loop_
_atom_site_type_symbol
_atom_site_label
_atom_site_fract_x
_atom_site_fract_y
_atom_site_fract_z
Si Si1 0.303573 0.631594 0.669026
Si Si2 0.355543 0.182450 0.314421
Si Si3 0.246694 0.483190 0.400755
Si Si4 0.396375 0.543268 0.535791
Si Si5 0.543910 0.934103 0.929954
O O1 0.368585 0.730956 0.737069
O O2 0.220218 0.491696 0.692644
O O3 0.246544 0.807596 0.627718
O O4 0.373954 0.518866 0.618762
O O5 0.301548 0.343021 0.353945
O O6 0.457163 0.125172 0.366350
O O7 0.303756 0.465160 0.481812
O O8 0.127358 0.439421 0.400381
O O9 0.500000 0.500000 0.500000
O O10 0.392840 0.760758 0.536903
O O11 0.500000 0.000000 0.000000
#
# Coordination Sequence:
#
# PCOD9304300 Si02
#       5
#     8   8   8   8   8
#     4  11  25  45  69 101 143 185 238 297 368 437
#     4  12  24  46  73 101 147 188 238 305 370 427
#     4  11  24  46  69 102 142 183 239 301 351 440
#     4  11  23  43  69 101 138 184 236 293 360 427
#     4  11  24  42  73 103 137 183 245 293 360 437
#
# _framework density 22.336874999999999
#
# number of rings (size 3 to 8) (size 9 to 14) (size 15 to 20)
#    0.000    0.800    4.000    4.800    2.800    4.800 
#    0.000    0.000    0.000    0.000    0.000    0.000 
#    0.000    0.000    0.000    0.000    0.000    0.000 
#
# Total GULP energy -111585.190057 kJ/mol
# GULP energy per Si atom -5579.259503 kJ/mol
# Density = 2.228604 g / cm^3
# Si number density = 22.336875 Si / 1000 Ang^3
#
#
#
# Elastic Constant Matrix: (Units=GPa)
#
#
# Indices 1 2 3 4 5 6 
#
# 1 144.0826 30.6763 75.2383 0.0000 3.4713 0.0000
# 2 30.6763 72.2092 32.1913 0.0000 1.9501 0.0000
# 3 75.2383 32.1913 175.3380 0.0000 8.3036 0.0000
# 4 0.0000 0.0000 0.0000 37.1711 0.0000 -8.7089
# 5 3.4713 1.9501 8.3036 0.0000 28.2526 0.0000
# 6 0.0000 0.0000 0.0000 -8.7089 0.0000 36.7582
#
#
#
# Elastic Compliance Matrix: (Units=1/GPa)
#
#
# Indices 1 2 3 4 5 6 
#
# 1 0.009302 -0.002366 -0.003560 0.000000 0.000067 0.000000
# 2 -0.002366 0.015687 -0.001853 0.000000 -0.000247 0.000000
# 3 -0.003560 -0.001853 0.007651 0.000000 -0.001683 0.000000
# 4 0.000000 0.000000 0.000000 0.028484 0.000000 0.006748
# 5 0.000067 -0.000247 -0.001683 0.000000 0.035899 0.000000
# 6 0.000000 0.000000 0.000000 0.006748 0.000000 0.028804
#
#
# Mechanical properties :
#
#
# Convention : Reuss Voigt Hill
#
# Bulk Modulus (GPa) = 58.54612 74.20463 66.37538
# Shear Modulus (GPa) = 33.99574 37.33799 35.66686
#
# Velocity S-wave (km/s) = 3.90546 4.09294 4.00030
# Velocity P-wave (km/s) = 6.82673 7.45848 7.14959
#
# Compressibility (1/GPa) = 0.01708055
#
# Stress axis : x y z
#
# Youngs Moduli (GPa) = 107.50704 63.74861 130.70454
#
# Poissons Ratio (x) = 0.15085 0.46533
# Poissons Ratio (y) = 0.25439 0.24218
# Poissons Ratio (z) = 0.38274 0.11812
#
# Static dielectric constant tensor:
#      x y z
#    x 1.870820 0.000000 -0.106850 
#    y 0.000000 1.820270 0.000000 
#    z -0.106850 0.000000 1.912800 
# 
# From -- ./inp_files/195229.got.cif
#   From: 2010.05.17/outbox.cif.g08.bks.cpg/sg15_98_cif.got.tgz:195229.got - 2010.06.03 18:47:42.
