data_PCOD9304472
_publ_section_title
;
Structure prediction by ZEFSAII (Michael W. Deem and Ramdas Pophale) SiO2 
 PCOD9304472
Probable space group: C 2/C
;
_chemical_formula_sum "Si O2"
_cell_formula_units_Z 64
_cell_length_a 9.421092
_cell_length_b 15.877424
_cell_length_c 29.623487
_cell_angle_alpha 90.000000
_cell_angle_beta 46.472831
_cell_angle_gamma 90.000000
_cell_volume 3212.803413
_symmetry_space_group_name_H-M "C 2/C"
_symmetry_group_IT_number 15
_symmetry_cell_setting 'monoclinic'
loop_
_space_group_symop_operation_xyz
x,y,z
-x,y,1/2-z
-x,-y,-z
x,-y,1/2+z
1/2+x,1/2+y,z
1/2-x,1/2+y,1/2-z
1/2-x,1/2-y,-z
1/2+x,1/2-y,1/2+z
loop_
_atom_site_type_symbol
_atom_site_label
_atom_site_fract_x
_atom_site_fract_y
_atom_site_fract_z
Si Si1 0.711043 0.573067 0.905091
Si Si2 0.188934 0.840227 0.032531
Si Si3 0.289059 0.971403 0.489595
Si Si4 0.921382 0.080219 0.126452
Si Si5 0.905347 0.356165 0.220854
Si Si6 0.560480 0.504233 0.787986
Si Si7 0.771830 0.256975 0.806962
Si Si8 0.710028 0.114392 0.892454
O O1 0.534453 0.635500 0.930649
O O2 0.700300 0.546978 0.959593
O O3 0.692450 0.491367 0.876911
O O4 0.917494 0.615384 0.849981
O O5 0.224899 0.835112 0.077825
O O6 0.250000 0.750000 0.000000
O O7 0.300946 0.927038 0.993054
O O8 0.496319 0.924823 0.445544
O O9 0.141087 0.933177 0.559399
O O10 0.884988 0.066680 0.187886
O O11 0.837968 0.173134 0.139323
O O12 0.729694 0.424547 0.254836
O O13 0.822622 0.267721 0.220544
O O14 0.000000 0.353140 0.250000
O O15 0.500000 0.482643 0.750000
O O16 0.364267 0.540272 0.853102
O O17 0.744755 0.171720 0.841453
O O18 0.000000 0.277018 0.750000
#
# Coordination Sequence:
#
# PCOD9304472 Si02
#       8
#     8   8   8   8   8   8   8   8
#     4  11  23  44  69  96 131 181 220 268 339 411
#     4  11  25  41  66 102 135 167 219 277 334 391
#     4  11  24  45  69  98 135 180 221 263 344 414
#     4  11  26  42  68 101 136 171 226 282 334 402
#     4  12  22  43  70  94 132 179 227 279 336 396
#     4  12  22  44  69  95 131 185 226 271 340 405
#     4  12  27  44  67 100 134 177 230 282 337 387
#     4  12  22  45  69  93 135 182 214 277 332 405
#
# _framework density 19.920297999999999
#
# number of rings (size 3 to 8) (size 9 to 14) (size 15 to 20)
#    0.000    0.500    7.500    1.875    5.250    2.000 
#    0.000    0.000    0.000    0.000    0.000    0.000 
#    0.000    0.000    0.000    0.000    0.000    0.000 
#
# Total GULP energy -178602.972057 kJ/mol
# GULP energy per Si atom -5581.342877 kJ/mol
# Density = 1.987496 g / cm^3
# Si number density = 19.920298 Si / 1000 Ang^3
#
#
#
# Elastic Constant Matrix: (Units=GPa)
#
#
# Indices 1 2 3 4 5 6 
#
# 1 99.3651 -7.7610 26.4288 -0.0001 17.6670 0.0001
# 2 -7.7610 32.3018 7.3085 0.0001 -4.6136 -0.0002
# 3 26.4288 7.3085 81.7079 -0.0004 7.1894 -0.0004
# 4 -0.0001 0.0001 -0.0004 26.4654 0.0004 -3.3754
# 5 17.6670 -4.6136 7.1894 0.0004 43.0256 -0.0002
# 6 0.0001 -0.0002 -0.0004 -3.3754 -0.0002 -5.8892
#
#
#
# Elastic Compliance Matrix: (Units=1/GPa)
#
#
# Indices 1 2 3 4 5 6 
#
# 1 0.012036 0.003193 -0.003830 0.000000 -0.003960 0.000000
# 2 0.003193 0.033109 -0.004254 0.000000 0.002950 -0.000001
# 3 -0.003830 -0.004254 0.013965 0.000000 -0.001217 -0.000001
# 4 0.000000 0.000000 0.000000 0.035211 0.000000 -0.020181
# 5 -0.003960 0.002950 -0.001217 0.000000 0.025388 0.000000
# 6 0.000000 -0.000001 -0.000001 -0.020181 0.000000 -0.158235
#
#
# Mechanical properties :
#
#
# Convention : Reuss Voigt Hill
#
# Bulk Modulus (GPa) = 20.27252 29.48082 24.87667
# Shear Modulus (GPa) = -406.45966 25.21361 -190.62303
#
# Velocity S-wave (km/s) = -14.29986 3.56156 -9.79289
# Velocity P-wave (km/s) = 16.20028 5.63422 10.74022
#
# Compressibility (1/GPa) = 0.04932786
#
# Stress axis : x y z
#
# Youngs Moduli (GPa) = 83.08333 30.20333 71.60648
#
# Poissons Ratio (x) = -0.09644 0.27428
# Poissons Ratio (y) = -0.26528 0.30460
# Poissons Ratio (z) = 0.31824 0.12848
#
# Static dielectric constant tensor:
#      x y z
#    x 1.704080 0.000000 0.004440 
#    y 0.000000 1.634380 0.000000 
#    z 0.004440 0.000000 1.681050 
# 
# From -- ./inp_files/308253.got.cif
#   From: 2010.05.17/outbox.cif.g08.bks.cpg/sg15_155_cif.got.tgz:308253.got - 2010.06.03 18:47:42.
