data_PCOD9304367
_publ_section_title
;
Structure prediction by ZEFSAII (Michael W. Deem and Ramdas Pophale) SiO2 
 PCOD9304367
Probable space group: C 2/C
;
_chemical_formula_sum "Si O2"
_cell_formula_units_Z 40
_cell_length_a 16.061895
_cell_length_b 8.185970
_cell_length_c 13.592991
_cell_angle_alpha 90.000000
_cell_angle_beta 106.516981
_cell_angle_gamma 90.000000
_cell_volume 1713.486856
_symmetry_space_group_name_H-M "C 2/C"
_symmetry_group_IT_number 15
_symmetry_cell_setting 'monoclinic'
loop_
_space_group_symop_operation_xyz
x,y,z
-x,y,1/2-z
-x,-y,-z
x,-y,1/2+z
1/2+x,1/2+y,z
1/2-x,1/2+y,1/2-z
1/2-x,1/2-y,-z
1/2+x,1/2-y,1/2+z
loop_
_atom_site_type_symbol
_atom_site_label
_atom_site_fract_x
_atom_site_fract_y
_atom_site_fract_z
Si Si1 0.880709 0.149993 0.077184
Si Si2 0.733999 0.710010 0.648050
Si Si3 0.538460 0.116446 0.598565
Si Si4 0.353676 0.275059 0.027022
Si Si5 0.351775 0.092898 0.215151
O O1 0.816614 0.178195 0.147591
O O2 0.968160 0.253864 0.114258
O O3 0.886515 0.957797 0.058970
O O4 0.832016 0.224214 0.965064
O O5 0.686387 0.762982 0.730574
O O6 0.772526 0.529093 0.664672
O O7 0.613718 0.215942 0.567268
O O8 0.500000 0.000000 0.500000
O O9 0.581073 0.008974 0.697611
O O10 0.389476 0.160771 0.126680
O O11 0.250000 0.250000 0.000000
#
# Coordination Sequence:
#
# PCOD9304367 Si02
#       5
#     8   8   8   8   8
#     4  11  24  46  71 105 151 191 240 318 372 431
#     4  11  23  43  72 106 145 191 250 298 370 445
#     4  12  26  47  72 107 153 191 246 313 370 442
#     4  12  25  48  76 107 150 196 251 312 374 448
#     4  12  25  44  77 109 146 203 252 299 380 451
#
# _framework density 23.344211999999999
#
# number of rings (size 3 to 8) (size 9 to 14) (size 15 to 20)
#    0.000    0.400    4.000    5.400    0.000    3.200 
#    0.000    2.000    0.000    0.000    0.000    0.000 
#    0.000    0.000    0.000    0.000    0.000    0.000 
#
# Total GULP energy -112127.328913 kJ/mol
# GULP energy per Si atom -5606.366446 kJ/mol
# Density = 2.329108 g / cm^3
# Si number density = 23.344212 Si / 1000 Ang^3
#
#
#
# Elastic Constant Matrix: (Units=GPa)
#
#
# Indices 1 2 3 4 5 6 
#
# 1 114.1762 42.3540 41.4322 0.0000 0.0987 0.0000
# 2 42.3540 117.0256 19.5177 0.0000 1.6178 0.0000
# 3 41.4322 19.5177 90.5701 0.0000 -5.2403 0.0000
# 4 0.0000 0.0000 0.0000 46.5588 0.0000 -1.6945
# 5 0.0987 1.6178 -5.2403 0.0000 33.7058 0.0000
# 6 0.0000 0.0000 0.0000 -1.6945 0.0000 41.0921
#
#
#
# Elastic Compliance Matrix: (Units=1/GPa)
#
#
# Indices 1 2 3 4 5 6 
#
# 1 0.011732 -0.003462 -0.004655 0.000000 -0.000592 0.000000
# 2 -0.003462 0.009903 -0.000583 0.000000 -0.000556 0.000000
# 3 -0.004655 -0.000583 0.013419 0.000000 0.002128 0.000000
# 4 0.000000 0.000000 0.000000 0.021511 0.000000 0.000887
# 5 -0.000592 -0.000556 0.002128 0.000000 0.030028 0.000000
# 6 0.000000 0.000000 0.000000 0.000887 0.000000 0.024372
#
#
# Mechanical properties :
#
#
# Convention : Reuss Voigt Hill
#
# Bulk Modulus (GPa) = 56.63973 58.70886 57.67430
# Shear Modulus (GPa) = 37.24414 38.83588 38.04001
#
# Velocity S-wave (km/s) = 3.99862 4.08317 4.04112
# Velocity P-wave (km/s) = 6.75531 6.88720 6.82157
#
# Compressibility (1/GPa) = 0.01765545
#
# Stress axis : x y z
#
# Youngs Moduli (GPa) = 85.23471 100.98139 74.51849
#
# Poissons Ratio (x) = 0.34955 0.34691
# Poissons Ratio (y) = 0.29505 0.04342
# Poissons Ratio (z) = 0.39680 0.05884
#
# Static dielectric constant tensor:
#      x y z
#    x 1.875360 0.000000 0.039320 
#    y 0.000000 1.875210 0.000000 
#    z 0.039320 0.000000 1.868090 
# 
# From -- ./inp_files/150617.got.cif
#   From: 2010.05.17/outbox.cif.g08.bks.cpg/sg15_76_cif.got.tgz:150617.got - 2010.06.03 18:47:42.
