data_PCOD9304266
_publ_section_title
;
Structure prediction by ZEFSAII (Michael W. Deem and Ramdas Pophale) SiO2 
 PCOD9304266
Probable space group: C 2/C
;
_chemical_formula_sum "Si O2"
_cell_formula_units_Z 44
_cell_length_a 19.949589
_cell_length_b 10.753800
_cell_length_c 7.958957
_cell_angle_alpha 90.000000
_cell_angle_beta 75.608365
_cell_angle_gamma 90.000000
_cell_volume 1653.884800
_symmetry_space_group_name_H-M "C 2/C"
_symmetry_group_IT_number 15
_symmetry_cell_setting 'monoclinic'
loop_
_space_group_symop_operation_xyz
x,y,z
-x,y,1/2-z
-x,-y,-z
x,-y,1/2+z
1/2+x,1/2+y,z
1/2-x,1/2+y,1/2-z
1/2-x,1/2-y,-z
1/2+x,1/2-y,1/2+z
loop_
_atom_site_type_symbol
_atom_site_label
_atom_site_fract_x
_atom_site_fract_y
_atom_site_fract_z
Si Si1 0.855673 0.719843 0.164669
Si Si2 0.500000 0.415751 0.750000
Si Si3 0.621917 0.531540 0.957494
Si Si4 0.277369 0.404108 0.825973
Si Si5 0.690014 0.848675 0.462357
Si Si6 0.075384 0.325583 0.235270
O O1 0.883127 0.860301 0.180413
O O2 0.774634 0.707501 0.165583
O O3 0.857813 0.644244 0.338625
O O4 0.895075 0.671579 0.974397
O O5 0.549959 0.489098 0.594657
O O6 0.451329 0.313400 0.691945
O O7 0.672166 0.425807 0.862534
O O8 0.669445 0.605265 0.058362
O O9 0.232543 0.526689 0.891361
O O10 0.750000 0.750000 0.500000
O O11 0.636049 0.846558 0.335668
O O12 0.000000 0.392596 0.250000
#
# Coordination Sequence:
#
# PCOD9304266 Si02
#       6
#     8   4   8   8   8   8
#     4  11  24  43  70 101 145 190 232 298 362 424
#     4   8  22  44  70  94 140 202 226 274 372 436
#     4  11  23  43  68 100 146 191 229 299 359 430
#     4  12  24  40  69 109 143 180 244 300 366 419
#     4  12  25  40  71 112 137 182 246 308 349 423
#     4   9  23  46  70  96 144 194 232 285 363 431
#
# _framework density 26.604028
#
# number of rings (size 3 to 8) (size 9 to 14) (size 15 to 20)
#    0.545    0.727    3.636    1.636    5.091    1.455 
#    0.000    0.909    0.000    0.000    0.000    0.000 
#    0.000    0.000    0.000    0.000    0.000    0.000 
#
# Total GULP energy -122479.442809 kJ/mol
# GULP energy per Si atom -5567.247400 kJ/mol
# Density = 2.654348 g / cm^3
# Si number density = 26.604028 Si / 1000 Ang^3
#
#
#
# Elastic Constant Matrix: (Units=GPa)
#
#
# Indices 1 2 3 4 5 6 
#
# 1 180.3169 57.4166 85.5681 0.0000 -5.4419 0.0000
# 2 57.4166 53.3510 35.6612 0.0000 -9.7730 0.0000
# 3 85.5681 35.6612 185.6647 0.0000 -26.9739 0.0000
# 4 0.0000 0.0000 0.0000 27.7556 0.0000 -2.9790
# 5 -5.4419 -9.7730 -26.9739 0.0000 71.3000 0.0000
# 6 0.0000 0.0000 0.0000 -2.9790 0.0000 35.6328
#
#
#
# Elastic Compliance Matrix: (Units=1/GPa)
#
#
# Indices 1 2 3 4 5 6 
#
# 1 0.009714 -0.008719 -0.003035 0.000000 -0.001602 0.000000
# 2 -0.008719 0.029476 -0.001220 0.000000 0.002913 0.000000
# 3 -0.003035 -0.001220 0.007366 0.000000 0.002388 0.000000
# 4 0.000000 0.000000 0.000000 0.036355 0.000000 0.003039
# 5 -0.001602 0.002913 0.002388 0.000000 0.015206 0.000000
# 6 0.000000 0.000000 0.000000 0.003039 0.000000 0.028318
#
#
# Mechanical properties :
#
#
# Convention : Reuss Voigt Hill
#
# Bulk Modulus (GPa) = 48.52385 86.29160 67.40773
# Shear Modulus (GPa) = 31.39667 42.98345 37.19006
#
# Velocity S-wave (km/s) = 3.43905 4.02391 3.74292
# Velocity P-wave (km/s) = 5.83510 7.35493 6.63865
#
# Compressibility (1/GPa) = 0.02060842
#
# Stress axis : x y z
#
# Youngs Moduli (GPa) = 102.94444 33.92551 135.75839
#
# Poissons Ratio (x) = 0.29580 0.41202
# Poissons Ratio (y) = 0.89757 0.16562
# Poissons Ratio (z) = 0.31243 0.04139
#
# Static dielectric constant tensor:
#      x y z
#    x 2.107470 0.000000 0.043410 
#    y 0.000000 2.153740 0.000000 
#    z 0.043410 0.000000 2.285890 
# 
# From -- ./inp_files/54355.got.cif
#   From: 2010.05.17/outbox.cif.g08.bks.cpg/sg15_28_cif.got.tgz:54355.got - 2010.06.03 18:47:42.
