data_PCOD9304211
_publ_section_title
;
Structure prediction by ZEFSAII (Michael W. Deem and Ramdas Pophale) SiO2 
 PCOD9304211
Probable space group: C 2/C
;
_chemical_formula_sum "Si O2"
_cell_formula_units_Z 32
_cell_length_a 14.601902
_cell_length_b 12.988322
_cell_length_c 8.151051
_cell_angle_alpha 90.000000
_cell_angle_beta 55.212435
_cell_angle_gamma 90.000000
_cell_volume 1269.590488
_symmetry_space_group_name_H-M "C 2/C"
_symmetry_group_IT_number 15
_symmetry_cell_setting 'monoclinic'
loop_
_space_group_symop_operation_xyz
x,y,z
-x,y,1/2-z
-x,-y,-z
x,-y,1/2+z
1/2+x,1/2+y,z
1/2-x,1/2+y,1/2-z
1/2-x,1/2-y,-z
1/2+x,1/2-y,1/2+z
loop_
_atom_site_type_symbol
_atom_site_label
_atom_site_fract_x
_atom_site_fract_y
_atom_site_fract_z
Si Si1 0.500000 0.423905 0.250000
Si Si2 0.500000 0.826688 0.250000
Si Si3 0.671254 0.045828 0.779226
Si Si4 0.249256 0.369418 0.543058
Si Si5 0.907762 0.121699 0.472355
O O1 0.375760 0.397157 0.458181
O O2 0.559372 0.404448 0.378168
O O3 0.432984 0.897731 0.193419
O O4 0.421938 0.741309 0.419354
O O5 0.693379 0.078488 0.941163
O O6 0.782019 0.087921 0.570516
O O7 0.675101 0.922600 0.759912
O O8 0.250000 0.250000 0.500000
O O9 0.000000 0.062704 0.250000
#
# Coordination Sequence:
#
# PCOD9304211 Si02
#       5
#     4   4   8   8   8
#     4   7  18  41  58  90 124 163 222 273 314 374
#     4   9  20  35  66  96 138 175 212 267 330 386
#     4  11  23  43  61  98 133 175 225 266 325 395
#     4  11  26  42  68  97 133 174 220 275 330 391
#     4   7  17  36  65  90 118 173 222 271 321 372
#
# _framework density 25.204977
#
# number of rings (size 3 to 8) (size 9 to 14) (size 15 to 20)
#    1.500    1.000    0.000    0.750    0.000   16.000 
#    0.000    0.000    0.000    0.000    0.000    0.000 
#    0.000    0.000    0.000    0.000    0.000    0.000 
#
# Total GULP energy -89248.971863 kJ/mol
# GULP energy per Si atom -5578.060741 kJ/mol
# Density = 2.514761 g / cm^3
# Si number density = 25.204977 Si / 1000 Ang^3
#
#
#
# Elastic Constant Matrix: (Units=GPa)
#
#
# Indices 1 2 3 4 5 6 
#
# 1 162.5029 22.2196 2.8507 0.0000 10.9579 0.0000
# 2 22.2196 160.6457 15.9477 0.0000 8.3304 0.0000
# 3 2.8507 15.9477 52.1239 0.0000 8.6998 0.0000
# 4 0.0000 0.0000 0.0000 30.3410 0.0000 -0.6176
# 5 10.9579 8.3304 8.6998 0.0000 48.5822 0.0000
# 6 0.0000 0.0000 0.0000 -0.6176 0.0000 30.0800
#
#
#
# Elastic Compliance Matrix: (Units=1/GPa)
#
#
# Indices 1 2 3 4 5 6 
#
# 1 0.006353 -0.000823 0.000124 0.000000 -0.001314 0.000000
# 2 -0.000823 0.006555 -0.001859 0.000000 -0.000605 0.000000
# 3 0.000124 -0.001859 0.020306 0.000000 -0.003345 0.000000
# 4 0.000000 0.000000 0.000000 0.032972 0.000000 0.000677
# 5 -0.001314 -0.000605 -0.003345 0.000000 0.021583 0.000000
# 6 0.000000 0.000000 0.000000 0.000677 0.000000 0.033259
#
#
# Mechanical properties :
#
#
# Convention : Reuss Voigt Hill
#
# Bulk Modulus (GPa) = 35.59269 50.81207 43.20238
# Shear Modulus (GPa) = 36.89787 44.08428 40.49108
#
# Velocity S-wave (km/s) = 3.83026 4.18668 4.01243
# Velocity P-wave (km/s) = 5.80630 6.60109 6.21641
#
# Compressibility (1/GPa) = 0.02809566
#
# Stress axis : x y z
#
# Youngs Moduli (GPa) = 157.41407 152.56313 49.24769
#
# Poissons Ratio (x) = 0.12553 -0.00609
# Poissons Ratio (y) = 0.12952 0.09157
# Poissons Ratio (z) = -0.01946 0.28368
#
# Static dielectric constant tensor:
#      x y z
#    x 1.858950 0.000000 -0.094330 
#    y 0.000000 11.289410 0.000000 
#    z -0.094330 0.000000 2.379300 
# 
# From -- ./inp_files/36785.got.cif
#   From: 2010.05.17/outbox.cif.g08.bks.cpg/sg15_19_cif.got.tgz:36785.got - 2010.06.03 18:47:42.
