data_PCOD9304383
_publ_section_title
;
Structure prediction by ZEFSAII (Michael W. Deem and Ramdas Pophale) SiO2 
 PCOD9304383
Probable space group: C 2/C
;
_chemical_formula_sum "Si O2"
_cell_formula_units_Z 64
_cell_length_a 18.053194
_cell_length_b 25.191159
_cell_length_c 11.460981
_cell_angle_alpha 90.000000
_cell_angle_beta 147.979807
_cell_angle_gamma 90.000000
_cell_volume 2763.621420
_symmetry_space_group_name_H-M "C 2/C"
_symmetry_group_IT_number 15
_symmetry_cell_setting 'monoclinic'
loop_
_space_group_symop_operation_xyz
x,y,z
-x,y,1/2-z
-x,-y,-z
x,-y,1/2+z
1/2+x,1/2+y,z
1/2-x,1/2+y,1/2-z
1/2-x,1/2-y,-z
1/2+x,1/2-y,1/2+z
loop_
_atom_site_type_symbol
_atom_site_label
_atom_site_fract_x
_atom_site_fract_y
_atom_site_fract_z
Si Si1 0.504466 0.815899 0.635270
Si Si2 0.949078 0.969225 0.312088
Si Si3 0.152860 0.596244 0.968380
Si Si4 0.324391 0.108010 0.763532
Si Si5 0.584045 0.642907 0.051499
Si Si6 0.849567 0.521899 0.995576
Si Si7 0.907047 0.198740 0.011771
Si Si8 0.235850 0.771310 0.642890
O O1 0.500000 0.848538 0.750000
O O2 0.461402 0.855903 0.474688
O O3 0.645656 0.783974 0.794787
O O4 0.380014 0.774761 0.498999
O O5 0.000000 0.987593 0.250000
O O6 0.004409 0.909623 0.406723
O O7 0.781461 0.970618 0.093225
O O8 0.000000 0.000000 0.500000
O O9 0.187623 0.584567 0.880560
O O10 0.143657 0.540846 0.025822
O O11 0.000000 0.621896 0.750000
O O12 0.278828 0.628247 0.190838
O O13 0.200346 0.150405 0.613231
O O14 0.319696 0.060347 0.848164
O O15 0.492370 0.681244 0.010780
O O16 0.645161 0.675822 0.026449
O O17 0.000000 0.533271 0.250000
O O18 0.000000 0.203504 0.250000
O O19 0.830829 0.253952 0.880753
#
# Coordination Sequence:
#
# PCOD9304383 Si02
#       8
#     8   8   8   8   8   8   8   8
#     4  11  24  44  70 100 142 189 239 299 370 452
#     4  12  29  50  80 115 153 205 260 317 380 458
#     4  11  25  42  69 107 144 194 244 316 376 446
#     4  11  24  43  70 100 145 193 249 297 386 449
#     4  12  24  46  74 108 151 189 252 306 372 451
#     4  11  26  45  71 105 147 193 248 312 378 449
#     4  11  23  43  73 104 142 195 243 307 375 452
#     4  11  25  44  71 106 141 185 242 304 372 448
#
# _framework density 23.15802
#
# number of rings (size 3 to 8) (size 9 to 14) (size 15 to 20)
#    0.000    0.750    5.000    1.500    1.750    8.000 
#    0.000    0.000    0.000    0.000    0.000    0.000 
#    0.000    0.000    0.000    0.000    0.000    0.000 
#
# Total GULP energy -178711.031125 kJ/mol
# GULP energy per Si atom -5584.719723 kJ/mol
# Density = 2.310531 g / cm^3
# Si number density = 23.158020 Si / 1000 Ang^3
#
#
#
# Elastic Constant Matrix: (Units=GPa)
#
#
# Indices 1 2 3 4 5 6 
#
# 1 96.6090 10.6707 30.1139 0.0000 3.2909 0.0000
# 2 10.6707 91.9788 21.0217 0.0000 -2.6901 0.0000
# 3 30.1139 21.0217 91.9297 0.0000 21.0969 0.0000
# 4 0.0000 0.0000 0.0000 -9.6942 0.0000 -19.6733
# 5 3.2909 -2.6901 21.0969 0.0000 34.8064 0.0000
# 6 0.0000 0.0000 0.0000 -19.6733 0.0000 19.6638
#
#
#
# Elastic Compliance Matrix: (Units=1/GPa)
#
#
# Indices 1 2 3 4 5 6 
#
# 1 0.011600 -0.000391 -0.004009 0.000000 0.001303 0.000000
# 2 -0.000391 0.011738 -0.003221 0.000000 0.002896 0.000000
# 3 -0.004009 -0.003221 0.014982 0.000000 -0.008951 0.000000
# 4 0.000000 0.000000 0.000000 -0.034040 0.000000 -0.034057
# 5 0.001303 0.002896 -0.008951 0.000000 0.034256 0.000000
# 6 0.000000 0.000000 0.000000 -0.034057 0.000000 0.016782
#
#
# Mechanical properties :
#
#
# Convention : Reuss Voigt Hill
#
# Bulk Modulus (GPa) = 43.33319 44.90336 44.11827
# Shear Modulus (GPa) = 63.89590 23.53594 43.71592
#
# Velocity S-wave (km/s) = 5.25844 3.19143 4.34951
# Velocity P-wave (km/s) = 7.45793 5.74564 6.65707
#
# Compressibility (1/GPa) = 0.02307700
#
# Stress axis : x y z
#
# Youngs Moduli (GPa) = 86.21006 85.19150 66.74769
#
# Poissons Ratio (x) = 0.03333 0.26761
# Poissons Ratio (y) = 0.03373 0.21498
# Poissons Ratio (z) = 0.34564 0.27438
#
# Static dielectric constant tensor:
#      x y z
#    x 1.933990 0.000000 -0.091720 
#    y 0.000000 1.851490 0.000000 
#    z -0.091720 0.000000 1.896510 
# 
# From -- ./inp_files/108646.got.cif
#   From: 2010.05.17/outbox.cif.g08.bks.cpg/sg15_55_cif.got.tgz:108646.got - 2010.06.03 18:47:42.
