data_PCOD9304931
_publ_section_title
;
Structure prediction by ZEFSAII (Michael W. Deem and Ramdas Pophale) SiO2 
 PCOD9304931
Probable space group: C 2/C
;
_chemical_formula_sum "Si O2"
_cell_formula_units_Z 52
_cell_length_a 15.047629
_cell_length_b 9.163814
_cell_length_c 16.120376
_cell_angle_alpha 90.000000
_cell_angle_beta 62.407121
_cell_angle_gamma 90.000000
_cell_volume 1970.068022
_symmetry_space_group_name_H-M "C 2/C"
_symmetry_group_IT_number 15
_symmetry_cell_setting 'monoclinic'
loop_
_space_group_symop_operation_xyz
x,y,z
-x,y,1/2-z
-x,-y,-z
x,-y,1/2+z
1/2+x,1/2+y,z
1/2-x,1/2+y,1/2-z
1/2-x,1/2-y,-z
1/2+x,1/2-y,1/2+z
loop_
_atom_site_type_symbol
_atom_site_label
_atom_site_fract_x
_atom_site_fract_y
_atom_site_fract_z
Si Si1 0.139152 0.834571 0.088959
Si Si2 0.350455 0.427053 0.250001
Si Si3 0.951729 0.296251 0.449357
Si Si4 0.500000 0.857862 0.250000
Si Si5 0.158210 0.432434 0.421620
Si Si6 0.368285 0.496358 0.066862
Si Si7 0.852649 0.601025 0.297157
O O1 0.103269 0.943285 0.178781
O O2 0.259782 0.846739 0.056552
O O3 0.101713 0.679332 0.138713
O O4 0.103016 0.891971 0.017887
O O5 0.250690 0.528852 0.128811
O O6 0.344947 0.248171 0.244011
O O7 0.403193 0.342603 0.015470
O O8 0.884880 0.432615 0.509065
O O9 0.951078 0.279232 0.349858
O O10 0.100508 0.001893 0.349976
O O11 0.422094 0.969782 0.241956
O O12 0.065117 0.337666 0.429305
O O13 0.234935 0.477781 0.314336
#
# Coordination Sequence:
#
# PCOD9304931 Si02
#       7
#     8   8   8   4   8   8   8
#     4   8  21  42  66  95 133 185 235 285 349 435
#     4   8  22  40  68  97 138 184 236 292 347 434
#     4  11  24  36  69 104 136 183 234 300 362 427
#     4  12  24  42  68  94 138 184 244 290 358 426
#     4   8  20  42  59  95 144 171 229 295 349 427
#     4  12  21  40  72 102 138 184 239 296 363 418
#     4   9  23  42  67  95 134 192 232 287 361 433
#
# _framework density 26.395026000000001
#
# number of rings (size 3 to 8) (size 9 to 14) (size 15 to 20)
#    1.846    0.308    0.000    2.308    6.462    2.462 
#    0.000    6.923    6.769    0.000    0.000    0.000 
#    0.000    0.000    0.000    0.000    0.000    0.000 
#
# Total GULP energy -145071.005777 kJ/mol
# GULP energy per Si atom -5579.654068 kJ/mol
# Density = 2.633495 g / cm^3
# Si number density = 26.395026 Si / 1000 Ang^3
#
#
#
# Elastic Constant Matrix: (Units=GPa)
#
#
# Indices 1 2 3 4 5 6 
#
# 1 98.7690 34.6953 31.1316 0.0000 -19.6796 0.0000
# 2 34.6953 106.3070 66.1517 0.0000 12.2612 0.0000
# 3 31.1316 66.1517 205.1350 0.0000 17.7955 0.0000
# 4 0.0000 0.0000 0.0000 45.6765 0.0000 -0.1764
# 5 -19.6796 12.2612 17.7955 0.0000 31.2777 0.0000
# 6 0.0000 0.0000 0.0000 -0.1764 0.0000 28.7153
#
#
#
# Elastic Compliance Matrix: (Units=1/GPa)
#
#
# Indices 1 2 3 4 5 6 
#
# 1 0.014984 -0.005303 -0.001643 0.000000 0.012442 0.000000
# 2 -0.005303 0.013846 -0.003051 0.000000 -0.007029 0.000000
# 3 -0.001643 -0.003051 0.006410 0.000000 -0.003485 0.000000
# 4 0.000000 0.000000 0.000000 0.021894 0.000000 0.000134
# 5 0.012442 -0.007029 -0.003485 0.000000 0.044538 0.000000
# 6 0.000000 0.000000 0.000000 0.000134 0.000000 0.034825
#
#
# Mechanical properties :
#
#
# Convention : Reuss Voigt Hill
#
# Bulk Modulus (GPa) = 65.58458 74.90756 70.24607
# Shear Modulus (GPa) = 30.94545 39.68272 35.31409
#
# Velocity S-wave (km/s) = 3.42774 3.88160 3.66171
# Velocity P-wave (km/s) = 6.36924 6.96636 6.67448
#
# Compressibility (1/GPa) = 0.01524749
#
# Stress axis : x y z
#
# Youngs Moduli (GPa) = 66.73616 72.22081 155.99770
#
# Poissons Ratio (x) = 0.38298 0.25635
# Poissons Ratio (y) = 0.35389 0.47590
# Poissons Ratio (z) = 0.10967 0.22032
#
# Static dielectric constant tensor:
#      x y z
#    x 2.102550 0.000000 -0.001360 
#    y 0.000000 2.057580 0.000000 
#    z -0.001360 0.000000 2.177440 
# 
# From -- ./inp_files/166221.got.cif
#   From: 2010.05.17/outbox.cif.g08.bks.cpg/sg15_84_cif.got.tgz:166221.got - 2010.06.03 18:47:42.
