data_PCOD9304183
_publ_section_title
;
Structure prediction by ZEFSAII (Michael W. Deem and Ramdas Pophale) SiO2 
 PCOD9304183
Probable space group: C 2/C
;
_chemical_formula_sum "Si O2"
_cell_formula_units_Z 40
_cell_length_a 12.642088
_cell_length_b 8.281854
_cell_length_c 18.523587
_cell_angle_alpha 90.000000
_cell_angle_beta 62.881250
_cell_angle_gamma 90.000000
_cell_volume 1726.205708
_symmetry_space_group_name_H-M "C 2/C"
_symmetry_group_IT_number 15
_symmetry_cell_setting 'monoclinic'
loop_
_space_group_symop_operation_xyz
x,y,z
-x,y,1/2-z
-x,-y,-z
x,-y,1/2+z
1/2+x,1/2+y,z
1/2-x,1/2+y,1/2-z
1/2-x,1/2-y,-z
1/2+x,1/2-y,1/2+z
loop_
_atom_site_type_symbol
_atom_site_label
_atom_site_fract_x
_atom_site_fract_y
_atom_site_fract_z
Si Si1 0.854275 0.181097 0.915766
Si Si2 0.681734 0.383344 0.475714
Si Si3 0.640057 0.863998 0.210647
Si Si4 0.543677 0.856199 0.936237
Si Si5 0.215768 0.993762 0.699126
O O1 0.831042 0.134610 0.839930
O O2 0.961526 0.303557 0.895903
O O3 0.750000 0.250000 0.000000
O O4 0.867714 0.011095 0.952172
O O5 0.750000 0.250000 0.500000
O O6 0.783342 0.420938 0.383803
O O7 0.567490 0.304329 0.474115
O O8 0.500000 0.914543 0.250000
O O9 0.726404 0.933134 0.246786
O O10 0.635407 0.668158 0.227428
O O11 0.670738 0.916038 0.873921
O O12 0.500000 0.000000 0.000000
#
# Coordination Sequence:
#
# PCOD9304183 Si02
#       5
#     8   8   8   8   8
#     4  12  24  42  74 102 140 180 238 295 349 417
#     4  11  23  47  70 102 137 185 244 285 347 428
#     4  11  28  46  72  99 147 187 231 295 359 418
#     4  11  23  42  72 104 138 181 234 293 352 416
#     4  11  27  46  66 107 140 183 240 285 360 430
#
# _framework density 23.172211000000001
#
# number of rings (size 3 to 8) (size 9 to 14) (size 15 to 20)
#    0.000    0.800    6.000    0.600    8.400    3.200 
#    0.000    0.000    0.000    0.000    0.000    0.000 
#    0.000    0.000    0.000    0.000    0.000    0.000 
#
# Total GULP energy -111537.861949 kJ/mol
# GULP energy per Si atom -5576.893097 kJ/mol
# Density = 2.311947 g / cm^3
# Si number density = 23.172211 Si / 1000 Ang^3
#
#
#
# Elastic Constant Matrix: (Units=GPa)
#
#
# Indices 1 2 3 4 5 6 
#
# 1 110.3020 21.9734 24.8559 0.0000 20.8910 0.0000
# 2 21.9734 46.9562 7.8517 0.0000 9.5610 0.0000
# 3 24.8559 7.8517 84.5378 0.0000 34.6564 0.0000
# 4 0.0000 0.0000 0.0000 35.1614 0.0000 22.9558
# 5 20.8910 9.5610 34.6564 0.0000 34.5626 0.0000
# 6 0.0000 0.0000 0.0000 22.9558 0.0000 41.0662
#
#
#
# Elastic Compliance Matrix: (Units=1/GPa)
#
#
# Indices 1 2 3 4 5 6 
#
# 1 0.010948 -0.004040 -0.001000 0.000000 -0.004497 0.000000
# 2 -0.004040 0.024089 0.001157 0.000000 -0.005382 0.000000
# 3 -0.001000 0.001157 0.020204 0.000000 -0.019975 0.000000
# 4 0.000000 0.000000 0.000000 0.044784 0.000000 -0.025034
# 5 -0.004497 -0.005382 -0.019975 0.000000 0.053169 0.000000
# 6 0.000000 0.000000 0.000000 -0.025034 0.000000 0.038345
#
#
# Mechanical properties :
#
#
# Convention : Reuss Voigt Hill
#
# Bulk Modulus (GPa) = 21.06406 39.01756 30.04081
# Shear Modulus (GPa) = 23.24158 34.63237 28.93698
#
# Velocity S-wave (km/s) = 3.17044 3.87015 3.53764
# Velocity P-wave (km/s) = 4.74471 6.07004 5.44783
#
# Compressibility (1/GPa) = 0.04747423
#
# Stress axis : x y z
#
# Youngs Moduli (GPa) = 91.34107 41.51194 49.49450
#
# Poissons Ratio (x) = 0.16772 0.04950
# Poissons Ratio (y) = 0.36904 -0.05725
# Poissons Ratio (z) = 0.09136 -0.04802
#
# Static dielectric constant tensor:
#      x y z
#    x 1.666240 0.000000 0.061760 
#    y 0.000000 2.652910 0.000000 
#    z 0.061760 0.000000 1.870780 
# 
# From -- ./inp_files/195112.got.cif
#   From: 2010.05.17/outbox.cif.g08.bks.cpg/sg15_98_cif.got.tgz:195112.got - 2010.06.03 18:47:42.
