data_PCOD9304815
_publ_section_title
;
Structure prediction by ZEFSAII (Michael W. Deem and Ramdas Pophale) SiO2 
 PCOD9304815
Probable space group: C 2/C
;
_chemical_formula_sum "Si O2"
_cell_formula_units_Z 44
_cell_length_a 5.446808
_cell_length_b 32.070530
_cell_length_c 11.789173
_cell_angle_alpha 90.000000
_cell_angle_beta 86.132079
_cell_angle_gamma 90.000000
_cell_volume 2054.665750
_symmetry_space_group_name_H-M "C 2/C"
_symmetry_group_IT_number 15
_symmetry_cell_setting 'monoclinic'
loop_
_space_group_symop_operation_xyz
x,y,z
-x,y,1/2-z
-x,-y,-z
x,-y,1/2+z
1/2+x,1/2+y,z
1/2-x,1/2+y,1/2-z
1/2-x,1/2-y,-z
1/2+x,1/2-y,1/2+z
loop_
_atom_site_type_symbol
_atom_site_label
_atom_site_fract_x
_atom_site_fract_y
_atom_site_fract_z
Si Si1 0.258398 0.246118 0.680928
Si Si2 0.767451 0.678455 0.481653
Si Si3 0.500000 0.414989 0.750000
Si Si4 0.540535 0.943210 0.118185
Si Si5 0.227468 0.873669 0.534680
Si Si6 0.287818 0.528088 0.060716
O O1 0.500000 0.243044 0.750000
O O2 0.246969 0.292275 0.628264
O O3 0.278357 0.211157 0.583945
O O4 0.000000 0.238733 0.750000
O O5 0.516586 0.651725 0.492932
O O6 0.018817 0.652105 0.477238
O O7 0.681406 0.388461 0.665317
O O8 0.636705 0.443923 0.836344
O O9 0.500000 0.930799 0.250000
O O10 0.605191 0.992381 0.112674
O O11 0.736241 0.913174 0.050405
O O12 0.315529 0.942985 0.036488
O O13 0.500000 0.500000 0.000000
#
# Coordination Sequence:
#
# PCOD9304815 Si02
#       6
#     8   8   4   8   8   8
#     4  11  24  47  80 107 141 199 230 289 357 441
#     4  11  27  48  70 112 150 179 249 285 363 445
#     4  12  26  46  74 102 146 186 250 304 370 430
#     4  11  26  44  69 100 143 193 250 303 372 434
#     4  12  27  46  72 110 149 197 234 315 370 425
#     4  11  23  47  68 100 136 195 248 307 365 434
#
# _framework density 21.414676
#
# number of rings (size 3 to 8) (size 9 to 14) (size 15 to 20)
#    0.000    0.727    1.818    4.364    6.364    6.545 
#    0.000    1.818    0.000    0.000    0.000    0.000 
#    0.000    0.000    0.000    0.000    0.000    0.000 
#
# Total GULP energy -123026.230126 kJ/mol
# GULP energy per Si atom -5592.101369 kJ/mol
# Density = 2.136594 g / cm^3
# Si number density = 21.414676 Si / 1000 Ang^3
#
#
#
# Elastic Constant Matrix: (Units=GPa)
#
#
# Indices 1 2 3 4 5 6 
#
# 1 156.6432 63.4152 54.8635 0.0000 8.6946 0.0000
# 2 63.4152 108.8336 42.5078 0.0000 0.8741 0.0000
# 3 54.8635 42.5078 138.5715 0.0000 2.2154 0.0000
# 4 0.0000 0.0000 0.0000 25.6330 0.0000 -8.6828
# 5 8.6946 0.8741 2.2154 0.0000 39.8803 0.0000
# 6 0.0000 0.0000 0.0000 -8.6828 0.0000 57.6851
#
#
#
# Elastic Compliance Matrix: (Units=1/GPa)
#
#
# Indices 1 2 3 4 5 6 
#
# 1 0.009028 -0.004387 -0.002201 0.000000 -0.001750 0.000000
# 2 -0.004387 0.012571 -0.002132 0.000000 0.000799 0.000000
# 3 -0.002201 -0.002132 0.008741 0.000000 0.000041 0.000000
# 4 0.000000 0.000000 0.000000 0.041108 0.000000 0.006188
# 5 -0.001750 0.000799 0.000041 0.000000 0.025437 0.000000
# 6 0.000000 0.000000 0.000000 0.006188 0.000000 0.018267
#
#
# Mechanical properties :
#
#
# Convention : Reuss Voigt Hill
#
# Bulk Modulus (GPa) = 77.51558 80.62458 79.07008
# Shear Modulus (GPa) = 36.52553 40.85715 38.69134
#
# Velocity S-wave (km/s) = 4.13441 4.37269 4.25522
# Velocity P-wave (km/s) = 7.68551 7.95141 7.81959
#
# Compressibility (1/GPa) = 0.01290063
#
# Stress axis : x y z
#
# Youngs Moduli (GPa) = 110.76981 79.54986 114.40116
#
# Poissons Ratio (x) = 0.34896 0.25176
# Poissons Ratio (y) = 0.48591 0.24392
# Poissons Ratio (z) = 0.24376 0.16961
#
# Static dielectric constant tensor:
#      x y z
#    x 1.799930 0.000000 0.005790 
#    y 0.000000 1.797970 0.000000 
#    z 0.005790 0.000000 1.741710 
# 
# From -- ./inp_files/73839.got.cif
#   From: 2010.05.17/outbox.cif.g08.bks.cpg/sg15_37_cif.got.tgz:73839.got - 2010.06.03 18:47:42.
