data_PCOD9304819
_publ_section_title
;
Structure prediction by ZEFSAII (Michael W. Deem and Ramdas Pophale) SiO2 
 PCOD9304819
Probable space group: C 2/C
;
_chemical_formula_sum "Si O2"
_cell_formula_units_Z 40
_cell_length_a 9.391489
_cell_length_b 15.478779
_cell_length_c 24.997278
_cell_angle_alpha 90.000000
_cell_angle_beta 30.234583
_cell_angle_gamma 90.000000
_cell_volume 1829.781198
_symmetry_space_group_name_H-M "C 2/C"
_symmetry_group_IT_number 15
_symmetry_cell_setting 'monoclinic'
loop_
_space_group_symop_operation_xyz
x,y,z
-x,y,1/2-z
-x,-y,-z
x,-y,1/2+z
1/2+x,1/2+y,z
1/2-x,1/2+y,1/2-z
1/2-x,1/2-y,-z
1/2+x,1/2-y,1/2+z
loop_
_atom_site_type_symbol
_atom_site_label
_atom_site_fract_x
_atom_site_fract_y
_atom_site_fract_z
Si Si1 0.810958 0.325887 0.673211
Si Si2 0.791416 0.235376 0.180033
Si Si3 0.791804 0.133593 0.532389
Si Si4 0.668126 0.972006 0.497995
Si Si5 0.333511 0.372811 0.138671
O O1 0.500000 0.339174 0.750000
O O2 0.789485 0.326961 0.744401
O O3 0.894615 0.227419 0.631375
O O4 0.008930 0.395304 0.580929
O O5 0.500000 0.270895 0.250000
O O6 0.012975 0.306268 0.130080
O O7 0.968748 0.186369 0.077018
O O8 0.906525 0.109157 0.553152
O O9 0.703163 0.053459 0.525155
O O10 0.978761 0.933683 0.385077
O O11 0.500000 0.000000 0.500000
O O12 0.000000 0.388593 0.250000
#
# Coordination Sequence:
#
# PCOD9304819 Si02
#       5
#     8   8   8   8   8
#     4  11  23  47  69 101 142 191 231 289 361 425
#     4  11  24  43  73  99 136 190 238 289 351 424
#     4  11  25  45  67 103 141 181 241 285 353 426
#     4  12  28  42  73 112 143 176 237 307 350 411
#     4  11  24  47  71  96 145 193 233 278 364 434
#
# _framework density 21.860537999999998
#
# number of rings (size 3 to 8) (size 9 to 14) (size 15 to 20)
#    0.000    0.800    4.000    3.600    5.600    4.800 
#    0.000    0.000    0.000    0.000    0.000    0.000 
#    0.000    0.000    0.000    0.000    0.000    0.000 
#
# Total GULP energy -111954.031490 kJ/mol
# GULP energy per Si atom -5597.701575 kJ/mol
# Density = 2.181078 g / cm^3
# Si number density = 21.860538 Si / 1000 Ang^3
#
#
#
# Elastic Constant Matrix: (Units=GPa)
#
#
# Indices 1 2 3 4 5 6 
#
# 1 111.2258 18.6515 45.1765 -0.0089 -18.6492 -0.0059
# 2 18.6515 72.7329 41.8832 -0.0067 -17.9783 0.0037
# 3 45.1765 41.8832 93.7830 -0.2166 -13.4296 0.0706
# 4 -0.0089 -0.0067 -0.2166 17.3719 -0.0278 -11.5974
# 5 -18.6492 -17.9783 -13.4296 -0.0278 33.6387 0.0036
# 6 -0.0059 0.0037 0.0706 -11.5974 0.0036 13.2392
#
#
#
# Elastic Compliance Matrix: (Units=1/GPa)
#
#
# Indices 1 2 3 4 5 6 
#
# 1 0.011901 0.001473 -0.005656 -0.000080 0.005127 -0.000036
# 2 0.001473 0.020383 -0.008629 -0.000144 0.008265 -0.000088
# 3 -0.005656 -0.008629 0.017111 0.000349 -0.000916 0.000214
# 4 -0.000080 -0.000144 0.000349 0.138651 0.000119 0.121455
# 5 0.005127 0.008265 -0.000916 0.000119 0.036621 0.000099
# 6 -0.000036 -0.000088 0.000214 0.121455 0.000099 0.181924
#
#
# Mechanical properties :
#
#
# Convention : Reuss Voigt Hill
#
# Bulk Modulus (GPa) = 42.07164 54.35156 48.21160
# Shear Modulus (GPa) = 11.35998 24.31867 17.83933
#
# Velocity S-wave (km/s) = 2.28207 3.33895 2.85976
# Velocity P-wave (km/s) = 5.12163 6.30727 5.74512
#
# Compressibility (1/GPa) = 0.02376898
#
# Stress axis : x y z
#
# Youngs Moduli (GPa) = 84.02781 49.05940 58.44217
#
# Poissons Ratio (x) = -0.07225 0.33058
# Poissons Ratio (y) = -0.12374 0.50431
# Poissons Ratio (z) = 0.47530 0.42335
#
# Static dielectric constant tensor:
#      x y z
#    x 1.799990 -0.000200 0.000530 
#    y -0.000200 1.784890 0.000050 
#    z 0.000530 0.000050 1.829200 
# 
# From -- ./inp_files/133094.got.cif
#   From: 2010.05.17/outbox.cif.g08.bks.cpg/sg15_67_cif.got.tgz:133094.got - 2010.06.03 18:47:42.
