data_PCOD9304776
_publ_section_title
;
Structure prediction by ZEFSAII (Michael W. Deem and Ramdas Pophale) SiO2 
 PCOD9304776
Probable space group: C 2/C
;
_chemical_formula_sum "Si O2"
_cell_formula_units_Z 44
_cell_length_a 21.140832
_cell_length_b 8.448342
_cell_length_c 25.048319
_cell_angle_alpha 90.000000
_cell_angle_beta 24.541311
_cell_angle_gamma 90.000000
_cell_volume 1858.170475
_symmetry_space_group_name_H-M "C 2/C"
_symmetry_group_IT_number 15
_symmetry_cell_setting 'monoclinic'
loop_
_space_group_symop_operation_xyz
x,y,z
-x,y,1/2-z
-x,-y,-z
x,-y,1/2+z
1/2+x,1/2+y,z
1/2-x,1/2+y,1/2-z
1/2-x,1/2-y,-z
1/2+x,1/2-y,1/2+z
loop_
_atom_site_type_symbol
_atom_site_label
_atom_site_fract_x
_atom_site_fract_y
_atom_site_fract_z
Si Si1 0.096390 0.345288 0.412986
Si Si2 0.397546 0.593575 0.517399
Si Si3 0.602506 0.000044 0.299135
Si Si4 0.070577 0.157830 0.811749
Si Si5 0.709778 0.143817 0.480716
Si Si6 0.000000 0.917370 0.250000
O O1 0.143128 0.379408 0.315371
O O2 0.247754 0.359394 0.331338
O O3 0.000000 0.500000 0.500000
O O4 0.003556 0.180506 0.480352
O O5 0.253929 0.494215 0.648009
O O6 0.495884 0.487575 0.400948
O O7 0.320323 0.741930 0.546212
O O8 0.556795 0.175674 0.353316
O O9 0.452698 0.938258 0.384780
O O10 0.001363 0.173234 0.805502
O O11 0.750000 0.250000 0.500000
O O12 0.848704 0.025216 0.364659
#
# Coordination Sequence:
#
# PCOD9304776 Si02
#       6
#     8   8   8   8   8   4
#     4  11  27  47  76 105 144 192 250 301 367 439
#     4  11  26  47  76 106 148 193 245 305 369 435
#     4  11  28  46  75 107 146 192 242 305 374 434
#     4  12  27  46  71 108 149 192 242 302 366 439
#     4  11  23  46  74 103 142 195 247 298 365 439
#     4  12  26  46  74 104 150 192 248 302 360 434
#
# _framework density 23.679205
#
# number of rings (size 3 to 8) (size 9 to 14) (size 15 to 20)
#    0.000    0.727    1.818    4.364   15.273    3.636 
#    0.000    0.000    0.000    0.000    0.000    0.000 
#    0.000    0.000    0.000    0.000    0.000    0.000 
#
# Total GULP energy -123123.843755 kJ/mol
# GULP energy per Si atom -5596.538352 kJ/mol
# Density = 2.362531 g / cm^3
# Si number density = 23.679205 Si / 1000 Ang^3
#
#
#
# Elastic Constant Matrix: (Units=GPa)
#
#
# Indices 1 2 3 4 5 6 
#
# 1 100.4383 22.2213 35.0101 0.0002 -27.8578 0.0000
# 2 22.2213 104.9095 41.6666 0.0022 -13.6395 -0.0019
# 3 35.0101 41.6666 131.3010 0.0006 -25.6799 -0.0004
# 4 0.0002 0.0022 0.0006 41.6417 -0.0006 -8.1975
# 5 -27.8578 -13.6395 -25.6799 -0.0006 38.6305 0.0004
# 6 0.0000 -0.0019 -0.0004 -8.1975 0.0004 47.5828
#
#
#
# Elastic Compliance Matrix: (Units=1/GPa)
#
#
# Indices 1 2 3 4 5 6 
#
# 1 0.012933 -0.001094 -0.001555 0.000000 0.007907 0.000000
# 2 -0.001094 0.011107 -0.003012 0.000000 0.001131 0.000000
# 3 -0.001555 -0.003012 0.009838 0.000000 0.004355 0.000000
# 4 0.000000 0.000000 0.000000 0.024857 0.000000 0.004282
# 5 0.007907 0.001131 0.004355 0.000000 0.034883 0.000000
# 6 0.000000 0.000000 0.000000 0.004282 0.000000 0.021754
#
#
# Mechanical properties :
#
#
# Convention : Reuss Voigt Hill
#
# Bulk Modulus (GPa) = 44.33179 59.38277 51.85728
# Shear Modulus (GPa) = 37.25420 41.42104 39.33762
#
# Velocity S-wave (km/s) = 3.97077 4.18695 4.08029
# Velocity P-wave (km/s) = 6.30755 6.96466 6.64424
#
# Compressibility (1/GPa) = 0.02255718
#
# Stress axis : x y z
#
# Youngs Moduli (GPa) = 77.31880 90.03389 101.64364
#
# Poissons Ratio (x) = 0.09849 0.15806
# Poissons Ratio (y) = 0.08458 0.30613
# Poissons Ratio (z) = 0.12023 0.27117
#
# Static dielectric constant tensor:
#      x y z
#    x 1.918050 0.000000 0.038530 
#    y 0.000000 1.961810 0.000000 
#    z 0.038530 0.000000 1.900430 
# 
# From -- ./inp_files/318556.got.cif
#   From: 2010.05.17/outbox.cif.g08.bks.cpg/sg15_160_cif.got.tgz:318556.got - 2010.06.03 18:47:42.
