data_PCOD9304490
_publ_section_title
;
Structure prediction by ZEFSAII (Michael W. Deem and Ramdas Pophale) SiO2 
 PCOD9304490
Probable space group: C 2/C
;
_chemical_formula_sum "Si O2"
_cell_formula_units_Z 44
_cell_length_a 20.606545
_cell_length_b 6.612082
_cell_length_c 17.835968
_cell_angle_alpha 90.000000
_cell_angle_beta 66.395612
_cell_angle_gamma 90.000000
_cell_volume 2226.860346
_symmetry_space_group_name_H-M "C 2/C"
_symmetry_group_IT_number 15
_symmetry_cell_setting 'monoclinic'
loop_
_space_group_symop_operation_xyz
x,y,z
-x,y,1/2-z
-x,-y,-z
x,-y,1/2+z
1/2+x,1/2+y,z
1/2-x,1/2+y,1/2-z
1/2-x,1/2-y,-z
1/2+x,1/2-y,1/2+z
loop_
_atom_site_type_symbol
_atom_site_label
_atom_site_fract_x
_atom_site_fract_y
_atom_site_fract_z
Si Si1 0.437135 0.335976 0.518405
Si Si2 0.420886 0.740873 0.196315
Si Si3 0.295583 0.448503 0.498135
Si Si4 0.500000 0.393181 0.250000
Si Si5 0.953460 0.446040 0.878287
Si Si6 0.323687 0.197516 0.876375
O O1 0.500000 0.500000 0.500000
O O2 0.408956 0.285980 0.614037
O O3 0.371148 0.413008 0.500530
O O4 0.461689 0.143206 0.457895
O O5 0.455247 0.539297 0.216641
O O6 0.354145 0.793439 0.278777
O O7 0.479549 0.916997 0.174244
O O8 0.250000 0.250000 0.500000
O O9 0.309237 0.583053 0.418113
O O10 0.247894 0.575408 0.578051
O O11 0.547387 0.246058 0.176943
O O12 0.884323 0.583564 0.897631
#
# Coordination Sequence:
#
# PCOD9304490 Si02
#       6
#     8   8   8   4   8   8
#     4  12  25  44  68 102 138 177 228 291 349 403
#     4  12  24  40  65 104 135 173 227 285 338 406
#     4  11  25  47  70  93 134 187 225 281 348 421
#     4  12  20  38  68  98 134 178 224 278 342 408
#     4  12  22  42  70 101 135 179 228 288 342 413
#     4  11  23  44  70  94 134 180 237 269 344 426
#
# _framework density 19.758762000000001
#
# number of rings (size 3 to 8) (size 9 to 14) (size 15 to 20)
#    0.000    0.364    7.273    2.727    0.000    0.000 
#    3.273    0.000    0.000    0.000    0.000    0.000 
#    0.000    0.000    0.000    0.000    0.000    0.000 
#
# Total GULP energy -122972.818198 kJ/mol
# GULP energy per Si atom -5589.673554 kJ/mol
# Density = 1.971379 g / cm^3
# Si number density = 19.758762 Si / 1000 Ang^3
#
#
#
# Elastic Constant Matrix: (Units=GPa)
#
#
# Indices 1 2 3 4 5 6 
#
# 1 84.2504 39.4456 41.0654 0.0003 -12.2095 0.0004
# 2 39.4456 114.9717 63.2089 0.0005 -1.0664 0.0007
# 3 41.0654 63.2089 143.0813 0.0005 -11.1103 0.0005
# 4 0.0003 0.0005 0.0005 38.4274 0.0003 -1.4344
# 5 -12.2095 -1.0664 -11.1103 0.0003 35.2435 0.0003
# 6 0.0004 0.0007 0.0005 -1.4344 0.0003 36.2729
#
#
#
# Elastic Compliance Matrix: (Units=1/GPa)
#
#
# Indices 1 2 3 4 5 6 
#
# 1 0.015540 -0.004003 -0.002340 0.000000 0.004525 0.000000
# 2 -0.004003 0.012576 -0.004597 0.000000 -0.002456 0.000000
# 3 -0.002340 -0.004597 0.009859 0.000000 0.002158 0.000000
# 4 0.000000 0.000000 0.000000 0.026062 0.000000 0.001031
# 5 0.004525 -0.002456 0.002158 0.000000 0.030548 0.000000
# 6 0.000000 0.000000 0.000000 0.001031 0.000000 0.027610
#
#
# Mechanical properties :
#
#
# Convention : Reuss Voigt Hill
#
# Bulk Modulus (GPa) = 62.13608 69.97147 66.05377
# Shear Modulus (GPa) = 33.45820 35.22766 34.34293
#
# Velocity S-wave (km/s) = 4.11948 4.22701 4.17359
# Velocity P-wave (km/s) = 7.35815 7.70151 7.53179
#
# Compressibility (1/GPa) = 0.01609371
#
# Stress axis : x y z
#
# Youngs Moduli (GPa) = 64.35007 79.51668 101.42670
#
# Poissons Ratio (x) = 0.31830 0.23738
# Poissons Ratio (y) = 0.25759 0.46631
# Poissons Ratio (z) = 0.15060 0.36558
#
# Static dielectric constant tensor:
#      x y z
#    x 1.751340 0.000000 -0.027860 
#    y 0.000000 1.759880 0.000000 
#    z -0.027860 0.000000 1.713560 
# 
# From -- ./inp_files/212851.got.cif
#   From: 2010.05.17/outbox.cif.g08.bks.cpg/sg15_107_cif.got.tgz:212851.got - 2010.06.03 18:47:42.
