data_PCOD9304506
_publ_section_title
;
Structure prediction by ZEFSAII (Michael W. Deem and Ramdas Pophale) SiO2 
 PCOD9304506
Probable space group: C 2/C
;
_chemical_formula_sum "Si O2"
_cell_formula_units_Z 40
_cell_length_a 14.781258
_cell_length_b 11.126597
_cell_length_c 15.932626
_cell_angle_alpha 90.000000
_cell_angle_beta 48.083504
_cell_angle_gamma 90.000000
_cell_volume 1949.860994
_symmetry_space_group_name_H-M "C 2/C"
_symmetry_group_IT_number 15
_symmetry_cell_setting 'monoclinic'
loop_
_space_group_symop_operation_xyz
x,y,z
-x,y,1/2-z
-x,-y,-z
x,-y,1/2+z
1/2+x,1/2+y,z
1/2-x,1/2+y,1/2-z
1/2-x,1/2-y,-z
1/2+x,1/2-y,1/2+z
loop_
_atom_site_type_symbol
_atom_site_label
_atom_site_fract_x
_atom_site_fract_y
_atom_site_fract_z
Si Si1 0.020758 0.465057 0.387987
Si Si2 0.754086 0.094977 0.468943
Si Si3 0.160071 0.832888 0.104198
Si Si4 0.268179 0.814739 0.342049
Si Si5 0.422119 0.762329 0.677385
O O1 0.130316 0.381574 0.280275
O O2 0.038348 0.598987 0.340486
O O3 0.000000 0.500000 0.500000
O O4 0.893081 0.404631 0.442819
O O5 0.781627 0.102422 0.551235
O O6 0.807334 0.199089 0.375382
O O7 0.799604 0.968092 0.408524
O O8 0.159581 0.768867 0.193568
O O9 0.036516 0.822290 0.127403
O O10 0.250000 0.750000 0.000000
O O11 0.155828 0.768301 0.355776
#
# Coordination Sequence:
#
# PCOD9304506 Si02
#       5
#     8   8   8   8   8
#     4  12  23  46  72  98 141 186 233 281 357 420
#     4  11  24  48  69 101 141 185 234 287 349 420
#     4  11  23  44  71 102 135 176 234 291 344 414
#     4  11  26  43  69 104 138 187 233 283 354 426
#     4  11  25  42  68 104 133 178 232 287 348 409
#
# _framework density 20.514282000000001
#
# number of rings (size 3 to 8) (size 9 to 14) (size 15 to 20)
#    0.000    0.800    4.000    3.000    2.800    0.800 
#   14.400    0.000    0.000    0.000    0.000    0.000 
#    0.000    0.000    0.000    0.000    0.000    0.000 
#
# Total GULP energy -111381.063997 kJ/mol
# GULP energy per Si atom -5569.053200 kJ/mol
# Density = 2.046759 g / cm^3
# Si number density = 20.514282 Si / 1000 Ang^3
#
#
#
# Elastic Constant Matrix: (Units=GPa)
#
#
# Indices 1 2 3 4 5 6 
#
# 1 102.1206 18.5058 47.5937 0.0000 -4.0940 0.0000
# 2 18.5058 125.2950 70.5830 0.0000 -24.7754 0.0000
# 3 47.5937 70.5830 149.4217 0.0000 -6.0773 0.0000
# 4 0.0000 0.0000 0.0000 47.4399 0.0000 -0.7142
# 5 -4.0940 -24.7754 -6.0773 0.0000 61.8849 0.0000
# 6 0.0000 0.0000 0.0000 -0.7142 0.0000 26.9106
#
#
#
# Elastic Compliance Matrix: (Units=1/GPa)
#
#
# Indices 1 2 3 4 5 6 
#
# 1 0.011545 0.000651 -0.003959 0.000000 0.000635 0.000000
# 2 0.000651 0.011918 -0.005664 0.000000 0.004258 0.000000
# 3 -0.003959 -0.005664 0.010568 0.000000 -0.001491 0.000000
# 4 0.000000 0.000000 0.000000 0.021088 0.000000 0.000560
# 5 0.000635 0.004258 -0.001491 0.000000 0.017759 0.000000
# 6 0.000000 0.000000 0.000000 0.000560 0.000000 0.037175
#
#
# Mechanical properties :
#
#
# Convention : Reuss Voigt Hill
#
# Bulk Modulus (GPa) = 62.16183 72.24471 67.20327
# Shear Modulus (GPa) = 37.49297 43.25739 40.37518
#
# Velocity S-wave (km/s) = 4.27974 4.59698 4.44120
# Velocity P-wave (km/s) = 7.40197 7.96678 7.68956
#
# Compressibility (1/GPa) = 0.01608704
#
# Stress axis : x y z
#
# Youngs Moduli (GPa) = 86.61818 83.90995 94.62454
#
# Poissons Ratio (x) = -0.05459 0.37460
# Poissons Ratio (y) = -0.05635 0.53591
# Poissons Ratio (z) = 0.34290 0.47523
#
# Static dielectric constant tensor:
#      x y z
#    x 1.787390 0.000000 0.011970 
#    y 0.000000 1.786410 0.000000 
#    z 0.011970 0.000000 1.730860 
# 
# From -- ./inp_files/151692.got.cif
#   From: 2010.05.17/outbox.cif.g08.bks.cpg/sg15_76_cif.got.tgz:151692.got - 2010.06.03 18:47:42.
