data_PCOD9304181
_publ_section_title
;
Structure prediction by ZEFSAII (Michael W. Deem and Ramdas Pophale) SiO2 
 PCOD9304181
Probable space group: C 2/C
;
_chemical_formula_sum "Si O2"
_cell_formula_units_Z 64
_cell_length_a 12.087917
_cell_length_b 12.448492
_cell_length_c 22.441865
_cell_angle_alpha 90.000000
_cell_angle_beta 117.865257
_cell_angle_gamma 90.000000
_cell_volume 2985.407367
_symmetry_space_group_name_H-M "C 2/C"
_symmetry_group_IT_number 15
_symmetry_cell_setting 'monoclinic'
loop_
_space_group_symop_operation_xyz
x,y,z
-x,y,1/2-z
-x,-y,-z
x,-y,1/2+z
1/2+x,1/2+y,z
1/2-x,1/2+y,1/2-z
1/2-x,1/2-y,-z
1/2+x,1/2-y,1/2+z
loop_
_atom_site_type_symbol
_atom_site_label
_atom_site_fract_x
_atom_site_fract_y
_atom_site_fract_z
Si Si1 0.450167 0.215801 0.596034
Si Si2 0.851501 0.054715 0.898810
Si Si3 0.852959 0.594949 0.217259
Si Si4 0.131225 0.441547 0.527530
Si Si5 0.888633 0.961278 0.549381
Si Si6 0.324145 0.782709 0.186207
Si Si7 0.230658 0.678873 0.689790
Si Si8 0.753025 0.940542 0.679346
O O1 0.381506 0.146871 0.527745
O O2 0.410295 0.339523 0.577825
O O3 0.415046 0.181068 0.655039
O O4 0.597966 0.199216 0.624075
O O5 0.739996 0.977313 0.846728
O O6 0.984434 0.024342 0.903370
O O7 0.807625 0.174877 0.873472
O O8 0.870312 0.041105 0.973789
O O9 0.819598 0.720314 0.199426
O O10 0.815130 0.572062 0.275380
O O11 0.000000 0.572105 0.250000
O O12 0.258438 0.505104 0.542516
O O13 0.161969 0.409529 0.602510
O O14 0.000000 0.500000 0.500000
O O15 0.309968 0.824316 0.250372
O O16 0.350915 0.656254 0.200784
O O17 0.289172 0.565042 0.685969
#
# Coordination Sequence:
#
# PCOD9304181 Si02
#       8
#     8   8   8   8   8   8   8   8
#     4  12  22  43  72 102 138 179 240 297 344 409
#     4  11  23  44  73 103 140 184 237 284 364 410
#     4  11  26  46  71  99 141 188 231 287 353 432
#     4  12  24  40  66 103 139 182 230 290 353 409
#     4  11  24  43  71 103 141 183 230 300 347 423
#     4  11  23  42  72 104 131 183 239 285 347 414
#     4  11  24  44  65 103 138 181 231 293 350 418
#     4  11  24  44  67  99 136 178 237 288 346 413
#
# _framework density 21.437611
#
# number of rings (size 3 to 8) (size 9 to 14) (size 15 to 20)
#    0.000    0.750    6.250    1.500    3.500    0.000 
#    4.500    3.125    0.000    3.750    0.000    0.000 
#    0.000    0.000    0.000    0.000    0.000    0.000 
#
# Total GULP energy -178460.829904 kJ/mol
# GULP energy per Si atom -5576.900935 kJ/mol
# Density = 2.138882 g / cm^3
# Si number density = 21.437611 Si / 1000 Ang^3
#
#
#
# Elastic Constant Matrix: (Units=GPa)
#
#
# Indices 1 2 3 4 5 6 
#
# 1 102.9283 42.5218 15.1218 0.0000 28.6203 0.0000
# 2 42.5218 107.5540 15.5803 0.0000 -1.8679 0.0000
# 3 15.1218 15.5803 81.6450 0.0000 0.2065 0.0000
# 4 0.0000 0.0000 0.0000 85.2836 0.0000 -51.9287
# 5 28.6203 -1.8679 0.2065 0.0000 34.6136 0.0000
# 6 0.0000 0.0000 0.0000 -51.9287 0.0000 59.2993
#
#
#
# Elastic Compliance Matrix: (Units=1/GPa)
#
#
# Indices 1 2 3 4 5 6 
#
# 1 0.016592 -0.006545 -0.001789 0.000000 -0.014062 0.000000
# 2 -0.006545 0.012153 -0.001122 0.000000 0.006074 0.000000
# 3 -0.001789 -0.001122 0.012790 0.000000 0.001342 0.000000
# 4 0.000000 0.000000 0.000000 0.025120 0.000000 0.021997
# 5 -0.014062 0.006074 0.001342 0.000000 0.040837 0.000000
# 6 0.000000 0.000000 0.000000 0.021997 0.000000 0.036127
#
#
# Mechanical properties :
#
#
# Convention : Reuss Voigt Hill
#
# Bulk Modulus (GPa) = 44.20090 48.73056 46.46573
# Shear Modulus (GPa) = 29.39929 50.43287 39.91608
#
# Velocity S-wave (km/s) = 3.70724 4.85556 4.31973
# Velocity P-wave (km/s) = 6.24404 7.36315 6.82657
#
# Compressibility (1/GPa) = 0.02262397
#
# Stress axis : x y z
#
# Youngs Moduli (GPa) = 60.26971 82.28244 78.18483
#
# Poissons Ratio (x) = 0.53853 0.13984
# Poissons Ratio (y) = 0.39446 0.08775
# Poissons Ratio (z) = 0.10780 0.09235
#
# Static dielectric constant tensor:
#      x y z
#    x 1.805560 0.000000 0.026470 
#    y 0.000000 1.850870 0.000000 
#    z 0.026470 0.000000 1.812980 
# 
# From -- ./inp_files/269286.got.cif
#   From: 2010.05.17/outbox.cif.g08.bks.cpg/sg15_135_cif.got.tgz:269286.got - 2010.06.03 18:47:42.
