data_PCOD9304835
_publ_section_title
;
Structure prediction by ZEFSAII (Michael W. Deem and Ramdas Pophale) SiO2 
 PCOD9304835
Probable space group: C 2/C
;
_chemical_formula_sum "Si O2"
_cell_formula_units_Z 56
_cell_length_a 28.444791
_cell_length_b 12.337512
_cell_length_c 14.475107
_cell_angle_alpha 90.000000
_cell_angle_beta 31.374502
_cell_angle_gamma 90.000000
_cell_volume 2644.728419
_symmetry_space_group_name_H-M "C 2/C"
_symmetry_group_IT_number 15
_symmetry_cell_setting 'monoclinic'
loop_
_space_group_symop_operation_xyz
x,y,z
-x,y,1/2-z
-x,-y,-z
x,-y,1/2+z
1/2+x,1/2+y,z
1/2-x,1/2+y,1/2-z
1/2-x,1/2-y,-z
1/2+x,1/2-y,1/2+z
loop_
_atom_site_type_symbol
_atom_site_label
_atom_site_fract_x
_atom_site_fract_y
_atom_site_fract_z
Si Si1 0.283808 0.522586 0.767866
Si Si2 0.662875 0.674654 0.660996
Si Si3 0.526102 0.862430 0.913804
Si Si4 0.659020 0.822761 0.379601
Si Si5 0.893445 0.101032 0.931749
Si Si6 0.216677 0.698039 0.461941
Si Si7 0.461992 0.927045 0.212629
O O1 0.328026 0.611743 0.758893
O O2 0.191933 0.573875 0.881626
O O3 0.346302 0.481882 0.580167
O O4 0.263630 0.416618 0.861925
O O5 0.750000 0.750000 0.500000
O O6 0.576477 0.752282 0.807036
O O7 0.650926 0.594932 0.594636
O O8 0.570700 0.961100 0.781241
O O9 0.422282 0.852894 0.053433
O O10 0.528711 0.885402 0.019188
O O11 0.625178 0.723627 0.500046
O O12 0.747561 0.777486 0.178154
O O13 0.000000 0.083244 0.750000
O O14 0.250000 0.750000 0.500000
O O15 0.112484 0.665600 0.646138
O O16 0.500000 0.952260 0.250000
#
# Coordination Sequence:
#
# PCOD9304835 Si02
#       7
#     8   8   8   8   8   8   8
#     4  11  27  44  71 106 136 183 239 285 341 435
#     4  12  25  44  73 104 138 185 238 290 350 418
#     4  11  25  44  71 104 137 180 240 291 342 426
#     4  11  23  47  71  98 140 181 235 279 349 422
#     4  11  25  46  71 101 140 189 227 290 357 411
#     4  11  24  45  68  99 139 183 218 287 354 403
#     4  11  25  42  71 105 138 178 232 295 351 401
#
# _framework density 21.174198000000001
#
# number of rings (size 3 to 8) (size 9 to 14) (size 15 to 20)
#    0.000    0.857    4.286    1.714    6.000    2.857 
#    2.571    0.000    0.000    0.000    0.000    0.000 
#    0.000    0.000    0.000    0.000    0.000    0.000 
#
# Total GULP energy -156597.443056 kJ/mol
# GULP energy per Si atom -5592.765823 kJ/mol
# Density = 2.112600 g / cm^3
# Si number density = 21.174198 Si / 1000 Ang^3
#
#
#
# Elastic Constant Matrix: (Units=GPa)
#
#
# Indices 1 2 3 4 5 6 
#
# 1 128.2666 39.7955 58.5346 0.0000 16.7999 0.0000
# 2 39.7955 93.6843 40.4550 0.0000 5.0203 0.0000
# 3 58.5346 40.4550 109.7543 0.0000 10.7983 0.0000
# 4 0.0000 0.0000 0.0000 24.5981 0.0000 3.0592
# 5 16.7999 5.0203 10.7983 0.0000 30.1105 0.0000
# 6 0.0000 0.0000 0.0000 3.0592 0.0000 37.0347
#
#
#
# Elastic Compliance Matrix: (Units=1/GPa)
#
#
# Indices 1 2 3 4 5 6 
#
# 1 0.011259 -0.002549 -0.004653 0.000000 -0.004188 0.000000
# 2 -0.002549 0.013278 -0.003583 0.000000 0.000493 0.000000
# 3 -0.004653 -0.003583 0.013060 0.000000 -0.001490 0.000000
# 4 0.000000 0.000000 0.000000 0.041075 0.000000 -0.003393
# 5 -0.004188 0.000493 -0.001490 0.000000 0.036000 0.000000
# 6 0.000000 0.000000 0.000000 -0.003393 0.000000 0.027282
#
#
# Mechanical properties :
#
#
# Convention : Reuss Voigt Hill
#
# Bulk Modulus (GPa) = 62.39682 67.69726 65.04704
# Shear Modulus (GPa) = 29.60901 31.20999 30.40950
#
# Velocity S-wave (km/s) = 3.74351 3.84339 3.79378
# Velocity P-wave (km/s) = 6.94388 7.19281 7.06944
#
# Compressibility (1/GPa) = 0.01602646
#
# Stress axis : x y z
#
# Youngs Moduli (GPa) = 88.81694 75.31371 76.56792
#
# Poissons Ratio (x) = 0.19197 0.35628
# Poissons Ratio (y) = 0.22639 0.27437
# Poissons Ratio (z) = 0.41328 0.26987
#
# Static dielectric constant tensor:
#      x y z
#    x 1.736010 0.000000 -0.022000 
#    y 0.000000 1.775000 0.000000 
#    z -0.022000 0.000000 1.720660 
# 
# From -- ./inp_files/181935.got.cif
#   From: 2010.05.17/outbox.cif.g08.bks.cpg/sg15_91_cif.got.tgz:181935.got - 2010.06.03 18:47:42.
