data_PCOD9304316
_publ_section_title
;
Structure prediction by ZEFSAII (Michael W. Deem and Ramdas Pophale) SiO2 
 PCOD9304316
Probable space group: C 2/C
;
_chemical_formula_sum "Si O2"
_cell_formula_units_Z 56
_cell_length_a 22.209784
_cell_length_b 17.173435
_cell_length_c 15.653627
_cell_angle_alpha 90.000000
_cell_angle_beta 24.472304
_cell_angle_gamma 90.000000
_cell_volume 2473.332454
_symmetry_space_group_name_H-M "C 2/C"
_symmetry_group_IT_number 15
_symmetry_cell_setting 'monoclinic'
loop_
_space_group_symop_operation_xyz
x,y,z
-x,y,1/2-z
-x,-y,-z
x,-y,1/2+z
1/2+x,1/2+y,z
1/2-x,1/2+y,1/2-z
1/2-x,1/2-y,-z
1/2+x,1/2-y,1/2+z
loop_
_atom_site_type_symbol
_atom_site_label
_atom_site_fract_x
_atom_site_fract_y
_atom_site_fract_z
Si Si1 0.203850 0.365443 0.417585
Si Si2 0.328942 0.001563 0.745983
Si Si3 0.673373 0.170409 0.683098
Si Si4 0.334403 0.471570 0.715408
Si Si5 0.364513 0.139017 0.308960
Si Si6 0.690755 0.824524 0.972771
Si Si7 0.112877 0.266925 0.888103
O O1 0.241088 0.456281 0.371877
O O2 0.210264 0.336375 0.506927
O O3 0.315701 0.317457 0.214318
O O4 0.038389 0.356811 0.599708
O O5 0.294104 0.090960 0.810833
O O6 0.500000 0.000000 0.500000
O O7 0.229774 0.967312 0.798371
O O8 0.318511 0.948086 0.842742
O O9 0.621730 0.148293 0.653310
O O10 0.803010 0.231739 0.509807
O O11 0.560716 0.224326 0.882010
O O12 0.500000 0.500000 0.500000
O O13 0.309684 0.393700 0.803132
O O14 0.333146 0.188210 0.265187
O O15 0.649649 0.812400 0.926899
#
# Coordination Sequence:
#
# PCOD9304316 Si02
#       7
#     8   8   8   8   8   8   8
#     4  11  25  41  67 102 135 180 230 288 344 417
#     4  12  21  44  72  98 132 184 237 277 337 420
#     4  11  24  41  67  96 131 180 231 287 336 419
#     4  12  24  43  68 101 141 180 225 293 357 407
#     4  11  23  43  69  97 134 181 238 282 335 423
#     4  11  24  41  63  98 134 176 231 279 352 413
#     4  12  21  41  66  96 133 173 228 285 348 404
#
# _framework density 22.641517
#
# number of rings (size 3 to 8) (size 9 to 14) (size 15 to 20)
#    0.000    0.571    4.286    4.286    0.000    0.000 
#    0.000    4.286    0.000    0.000    0.000    0.000 
#    0.000    0.000    0.000    0.000    0.000    0.000 
#
# Total GULP energy -156017.797458 kJ/mol
# GULP energy per Si atom -5572.064195 kJ/mol
# Density = 2.258998 g / cm^3
# Si number density = 22.641517 Si / 1000 Ang^3
#
#
#
# Elastic Constant Matrix: (Units=GPa)
#
#
# Indices 1 2 3 4 5 6 
#
# 1 124.6287 27.4387 32.4533 0.0004 27.7789 -0.0004
# 2 27.4387 128.0799 22.1384 0.0004 12.3302 -0.0002
# 3 32.4533 22.1384 56.0237 0.0006 23.4720 -0.0004
# 4 0.0004 0.0004 0.0006 27.4497 -0.0003 8.2335
# 5 27.7789 12.3302 23.4720 -0.0003 31.3541 0.0004
# 6 -0.0004 -0.0002 -0.0004 8.2335 0.0004 35.5422
#
#
#
# Elastic Compliance Matrix: (Units=1/GPa)
#
#
# Indices 1 2 3 4 5 6 
#
# 1 0.010510 -0.001114 -0.002812 0.000000 -0.006768 0.000000
# 2 -0.001114 0.008529 -0.002525 0.000000 -0.000477 0.000000
# 3 -0.002812 -0.002525 0.027707 -0.000001 -0.017257 0.000001
# 4 0.000000 0.000000 -0.000001 0.039151 0.000001 -0.009069
# 5 -0.006768 -0.000477 -0.017257 0.000001 0.050996 -0.000001
# 6 0.000000 0.000000 0.000001 -0.009069 -0.000001 0.030237
#
#
# Mechanical properties :
#
#
# Convention : Reuss Voigt Hill
#
# Bulk Modulus (GPa) = 29.54894 52.53255 41.04075
# Shear Modulus (GPa) = 26.13527 33.98266 30.05897
#
# Velocity S-wave (km/s) = 3.40120 3.87835 3.64758
# Velocity P-wave (km/s) = 5.33885 6.58086 5.99212
#
# Compressibility (1/GPa) = 0.03384216
#
# Stress axis : x y z
#
# Youngs Moduli (GPa) = 95.14753 117.25221 36.09245
#
# Poissons Ratio (x) = 0.13060 0.10151
# Poissons Ratio (y) = 0.10598 0.09114
# Poissons Ratio (z) = 0.26760 0.29609
#
# Static dielectric constant tensor:
#      x y z
#    x 1.718760 0.000000 -0.139930 
#    y 0.000000 1.922150 0.000000 
#    z -0.139930 0.000000 1.880530 
# 
# From -- ./inp_files/169115.got.cif
#   From: 2010.05.17/outbox.cif.g08.bks.cpg/sg15_85_cif.got.tgz:169115.got - 2010.06.03 18:47:42.
