data_PCOD9304798
_publ_section_title
;
Structure prediction by ZEFSAII (Michael W. Deem and Ramdas Pophale) SiO2 
 PCOD9304798
Probable space group: C 2/C
;
_chemical_formula_sum "Si O2"
_cell_formula_units_Z 52
_cell_length_a 26.534476
_cell_length_b 9.303342
_cell_length_c 13.730484
_cell_angle_alpha 90.000000
_cell_angle_beta 35.284441
_cell_angle_gamma 90.000000
_cell_volume 1957.895835
_symmetry_space_group_name_H-M "C 2/C"
_symmetry_group_IT_number 15
_symmetry_cell_setting 'monoclinic'
loop_
_space_group_symop_operation_xyz
x,y,z
-x,y,1/2-z
-x,-y,-z
x,-y,1/2+z
1/2+x,1/2+y,z
1/2-x,1/2+y,1/2-z
1/2-x,1/2-y,-z
1/2+x,1/2-y,1/2+z
loop_
_atom_site_type_symbol
_atom_site_label
_atom_site_fract_x
_atom_site_fract_y
_atom_site_fract_z
Si Si1 0.204698 0.997760 0.140588
Si Si2 0.500000 0.359448 0.750000
Si Si3 0.586964 0.742671 0.302013
Si Si4 0.378396 0.129124 0.437588
Si Si5 0.935843 0.229315 0.667475
Si Si6 0.139860 0.481226 0.834319
Si Si7 0.335763 0.448379 0.570703
O O1 0.176336 0.154981 0.150735
O O2 0.183262 0.005726 0.289035
O O3 0.301466 0.934594 0.989049
O O4 0.136071 0.890826 0.198356
O O5 0.463011 0.264652 0.720530
O O6 0.579573 0.463097 0.594116
O O7 0.523930 0.668010 0.482506
O O8 0.600628 0.897512 0.326386
O O9 0.551151 0.180087 0.254242
O O10 0.386978 0.015494 0.511715
O O11 0.348292 0.277234 0.537536
O O12 0.895539 0.330494 0.647668
O O13 0.244685 0.486302 0.661330
#
# Coordination Sequence:
#
# PCOD9304798 Si02
#       7
#     8   4   8   8   8   8   8
#     4  11  23  46  76 107 148 198 255 317 372 461
#     4  12  28  44  74 114 152 192 264 328 388 446
#     4  12  27  48  74 112 155 201 256 323 379 455
#     4  11  25  45  79 109 151 200 254 309 393 463
#     4  12  25  46  74 110 149 200 255 312 379 461
#     4  11  27  48  72 109 154 202 255 314 385 466
#     4  11  24  46  74 113 146 201 258 317 385 469
#
# _framework density 26.559124000000001
#
# number of rings (size 3 to 8) (size 9 to 14) (size 15 to 20)
#    0.000    0.615    4.615    2.308    4.308    2.462 
#    0.000    0.000    0.000    0.000    0.000    0.000 
#    0.000    0.000    0.000    0.000    0.000    0.000 
#
# Total GULP energy -145894.919115 kJ/mol
# GULP energy per Si atom -5611.343043 kJ/mol
# Density = 2.649867 g / cm^3
# Si number density = 26.559124 Si / 1000 Ang^3
#
#
#
# Elastic Constant Matrix: (Units=GPa)
#
#
# Indices 1 2 3 4 5 6 
#
# 1 145.3288 22.1401 32.9924 0.0000 -0.6057 0.0000
# 2 22.1401 59.8607 20.3560 0.0000 -6.9037 0.0000
# 3 32.9924 20.3560 114.6731 0.0000 -1.1023 0.0000
# 4 0.0000 0.0000 0.0000 43.3298 0.0000 -1.9415
# 5 -0.6057 -6.9037 -1.1023 0.0000 44.9309 0.0000
# 6 0.0000 0.0000 0.0000 -1.9415 0.0000 52.3715
#
#
#
# Elastic Compliance Matrix: (Units=1/GPa)
#
#
# Indices 1 2 3 4 5 6 
#
# 1 0.007630 -0.002243 -0.001800 0.000000 -0.000286 0.000000
# 2 -0.002243 0.018760 -0.002658 0.000000 0.002787 0.000000
# 3 -0.001800 -0.002658 0.009708 0.000000 -0.000195 0.000000
# 4 0.000000 0.000000 0.000000 0.023117 0.000000 0.000857
# 5 -0.000286 0.002787 -0.000195 0.000000 0.022676 0.000000
# 6 0.000000 0.000000 0.000000 0.000857 0.000000 0.019126
#
#
# Mechanical properties :
#
#
# Convention : Reuss Voigt Hill
#
# Bulk Modulus (GPa) = 44.05894 52.31550 48.18722
# Shear Modulus (GPa) = 40.98849 44.41805 42.70327
#
# Velocity S-wave (km/s) = 3.93274 4.09396 4.01416
# Velocity P-wave (km/s) = 6.10303 6.48752 6.29821
#
# Compressibility (1/GPa) = 0.02269687
#
# Stress axis : x y z
#
# Youngs Moduli (GPa) = 131.06060 53.30379 103.00525
#
# Poissons Ratio (x) = 0.11956 0.18539
# Poissons Ratio (y) = 0.29397 0.27380
# Poissons Ratio (z) = 0.23589 0.14169
#
# Static dielectric constant tensor:
#      x y z
#    x 2.098910 0.000000 -0.010710 
#    y 0.000000 1.976520 0.000000 
#    z -0.010710 0.000000 2.112090 
# 
# From -- ./inp_files/221821.got.cif
#   From: 2010.05.17/outbox.cif.g08.bks.cpg/sg15_111_cif.got.tgz:221821.got - 2010.06.03 18:47:42.
