data_PCOD9304688
_publ_section_title
;
Structure prediction by ZEFSAII (Michael W. Deem and Ramdas Pophale) SiO2 
 PCOD9304688
Probable space group: C 2/C
;
_chemical_formula_sum "Si O2"
_cell_formula_units_Z 36
_cell_length_a 21.376082
_cell_length_b 6.421645
_cell_length_c 11.697223
_cell_angle_alpha 90.000000
_cell_angle_beta 113.012007
_cell_angle_gamma 90.000000
_cell_volume 1477.898502
_symmetry_space_group_name_H-M "C 2/C"
_symmetry_group_IT_number 15
_symmetry_cell_setting 'monoclinic'
loop_
_space_group_symop_operation_xyz
x,y,z
-x,y,1/2-z
-x,-y,-z
x,-y,1/2+z
1/2+x,1/2+y,z
1/2-x,1/2+y,1/2-z
1/2-x,1/2-y,-z
1/2+x,1/2-y,1/2+z
loop_
_atom_site_type_symbol
_atom_site_label
_atom_site_fract_x
_atom_site_fract_y
_atom_site_fract_z
Si Si1 0.612106 0.624169 0.970082
Si Si2 0.106665 0.605117 0.692672
Si Si3 0.500000 0.865100 0.750000
Si Si4 0.294559 0.571415 0.134001
Si Si5 0.829273 0.216330 0.862112
O O1 0.555536 0.710597 0.844681
O O2 0.681817 0.586013 0.948549
O O3 0.610787 0.787994 0.071980
O O4 0.607803 0.401014 0.031991
O O5 0.143867 0.763363 0.804998
O O6 0.147749 0.393951 0.706494
O O7 0.034496 0.522029 0.684028
O O8 0.222322 0.686740 0.082803
O O9 0.292822 0.450502 0.254725
#
# Coordination Sequence:
#
# PCOD9304688 Si02
#       5
#     8   8   4   8   8
#     4  11  27  45  75 111 139 195 243 293 357 429
#     4  11  26  47  72 107 143 196 240 291 364 423
#     4  12  26  52  70 100 156 194 240 298 344 424
#     4  11  23  47  73 109 147 182 236 305 360 426
#     4  11  23  45  75 109 145 184 241 295 367 431
#
# _framework density 24.358910999999999
#
# number of rings (size 3 to 8) (size 9 to 14) (size 15 to 20)
#    0.000    0.889    4.444    1.333    3.111    2.667 
#    0.000    0.000    0.000    0.000    0.000    0.000 
#    0.000    0.000    0.000    0.000    0.000    0.000 
#
# Total GULP energy -100592.005845 kJ/mol
# GULP energy per Si atom -5588.444769 kJ/mol
# Density = 2.430347 g / cm^3
# Si number density = 24.358911 Si / 1000 Ang^3
#
#
#
# Elastic Constant Matrix: (Units=GPa)
#
#
# Indices 1 2 3 4 5 6 
#
# 1 109.9794 63.9926 27.0954 0.0000 -15.9357 0.0000
# 2 63.9926 113.9344 46.3840 0.0000 -2.4610 0.0000
# 3 27.0954 46.3840 99.3428 0.0000 0.3130 0.0000
# 4 0.0000 0.0000 0.0000 2.7002 0.0000 -5.7382
# 5 -15.9357 -2.4610 0.3130 0.0000 31.9894 0.0000
# 6 0.0000 0.0000 0.0000 -5.7382 0.0000 51.6120
#
#
#
# Elastic Compliance Matrix: (Units=1/GPa)
#
#
# Indices 1 2 3 4 5 6 
#
# 1 0.014843 -0.008067 -0.000303 0.000000 0.006777 0.000000
# 2 -0.008067 0.015246 -0.004910 0.000000 -0.002798 0.000000
# 3 -0.000303 -0.004910 0.012443 0.000000 -0.000650 0.000000
# 4 0.000000 0.000000 0.000000 0.484907 0.000000 0.053912
# 5 0.006777 -0.002798 -0.000650 0.000000 0.034427 0.000000
# 6 0.000000 0.000000 0.000000 0.053912 0.000000 0.025369
#
#
# Mechanical properties :
#
#
# Convention : Reuss Voigt Hill
#
# Bulk Modulus (GPa) = 62.60546 66.46674 64.53610
# Shear Modulus (GPa) = 8.07598 29.64598 18.86098
#
# Velocity S-wave (km/s) = 1.82280 3.49241 2.78563
# Velocity P-wave (km/s) = 5.49429 6.60365 6.07435
#
# Compressibility (1/GPa) = 0.01597305
#
# Stress axis : x y z
#
# Youngs Moduli (GPa) = 67.37152 65.59023 80.36527
#
# Poissons Ratio (x) = 0.52911 0.02437
# Poissons Ratio (y) = 0.54348 0.39455
# Poissons Ratio (z) = 0.02043 0.32202
#
# Static dielectric constant tensor:
#      x y z
#    x 1.924660 0.000000 -0.035230 
#    y 0.000000 1.943650 0.000000 
#    z -0.035230 0.000000 1.995420 
# 
# From -- ./inp_files/115624.got.cif
#   From: 2010.05.17/outbox.cif.g08.bks.cpg/sg15_58_cif.got.tgz:115624.got - 2010.06.03 18:47:42.
