data_PCOD9304271
_publ_section_title
;
Structure prediction by ZEFSAII (Michael W. Deem and Ramdas Pophale) SiO2 
 PCOD9304271
Probable space group: C 2/C
;
_chemical_formula_sum "Si O2"
_cell_formula_units_Z 44
_cell_length_a 8.631296
_cell_length_b 11.169848
_cell_length_c 21.255661
_cell_angle_alpha 90.000000
_cell_angle_beta 69.939544
_cell_angle_gamma 90.000000
_cell_volume 1924.937542
_symmetry_space_group_name_H-M "C 2/C"
_symmetry_group_IT_number 15
_symmetry_cell_setting 'monoclinic'
loop_
_space_group_symop_operation_xyz
x,y,z
-x,y,1/2-z
-x,-y,-z
x,-y,1/2+z
1/2+x,1/2+y,z
1/2-x,1/2+y,1/2-z
1/2-x,1/2-y,-z
1/2+x,1/2-y,1/2+z
loop_
_atom_site_type_symbol
_atom_site_label
_atom_site_fract_x
_atom_site_fract_y
_atom_site_fract_z
Si Si1 0.190063 0.883673 0.989555
Si Si2 0.471391 0.249184 0.937183
Si Si3 0.686895 0.909124 0.948492
Si Si4 0.972404 0.426517 0.856667
Si Si5 0.881586 0.328440 0.210171
Si Si6 0.000000 0.776203 0.250000
O O1 0.300402 0.935541 0.917522
O O2 0.017958 0.851265 0.981439
O O3 0.250000 0.750000 0.000000
O O4 0.212506 0.973673 0.044211
O O5 0.301700 0.292870 0.931906
O O6 0.590441 0.236595 0.861229
O O7 0.447727 0.126357 0.979246
O O8 0.605717 0.913774 0.892841
O O9 0.031419 0.543279 0.811935
O O10 0.967161 0.311262 0.813387
O O11 0.679591 0.337257 0.243114
O O12 0.000000 0.273701 0.250000
#
# Coordination Sequence:
#
# PCOD9304271 Si02
#       6
#     8   8   8   8   8   4
#     4  12  22  41  70 102 140 180 224 293 367 425
#     4  11  23  43  68 102 143 180 233 293 360 430
#     4  11  24  40  69 107 139 180 229 295 367 430
#     4  12  24  46  68 101 141 181 242 296 352 427
#     4  12  26  50  72 101 144 192 245 301 348 430
#     4  12  28  50  72  98 142 200 244 294 366 418
#
# _framework density 22.857885
#
# number of rings (size 3 to 8) (size 9 to 14) (size 15 to 20)
#    0.000    0.364    6.364    3.273    0.000    0.000 
#    8.182    0.000    0.000    0.000    0.000    0.000 
#    0.000    0.000    0.000    0.000    0.000    0.000 
#
# Total GULP energy -122715.362592 kJ/mol
# GULP energy per Si atom -5577.971027 kJ/mol
# Density = 2.280586 g / cm^3
# Si number density = 22.857885 Si / 1000 Ang^3
#
#
#
# Elastic Constant Matrix: (Units=GPa)
#
#
# Indices 1 2 3 4 5 6 
#
# 1 105.6486 19.9787 24.1834 0.0000 13.2855 0.0000
# 2 19.9787 68.4608 9.4917 0.0000 13.2698 0.0000
# 3 24.1834 9.4917 79.4334 0.0000 19.3323 0.0000
# 4 0.0000 0.0000 0.0000 22.4607 0.0000 10.9327
# 5 13.2855 13.2698 19.3323 0.0000 49.4636 0.0000
# 6 0.0000 0.0000 0.0000 10.9327 0.0000 42.6851
#
#
#
# Elastic Compliance Matrix: (Units=1/GPa)
#
#
# Indices 1 2 3 4 5 6 
#
# 1 0.010701 -0.002529 -0.002676 0.000000 -0.001150 0.000000
# 2 -0.002529 0.016067 -0.000294 0.000000 -0.003516 0.000000
# 3 -0.002676 -0.000294 0.014637 0.000000 -0.004923 0.000000
# 4 0.000000 0.000000 0.000000 0.050863 0.000000 -0.013027
# 5 -0.001150 -0.003516 -0.004923 0.000000 0.023393 0.000000
# 6 0.000000 0.000000 0.000000 -0.013027 0.000000 0.026764
#
#
# Mechanical properties :
#
#
# Convention : Reuss Voigt Hill
#
# Bulk Modulus (GPa) = 32.88688 40.09447 36.49068
# Shear Modulus (GPa) = 30.57004 36.24782 33.40893
#
# Velocity S-wave (km/s) = 3.66101 3.98652 3.82723
# Velocity P-wave (km/s) = 5.68238 6.22644 5.96062
#
# Compressibility (1/GPa) = 0.03040726
#
# Stress axis : x y z
#
# Youngs Moduli (GPa) = 93.45220 62.23851 68.31934
#
# Poissons Ratio (x) = 0.15739 0.18281
# Poissons Ratio (y) = 0.23633 0.02010
# Poissons Ratio (z) = 0.25006 0.01831
#
# Static dielectric constant tensor:
#      x y z
#    x 1.961150 0.000000 -0.041710 
#    y 0.000000 1.876980 0.000000 
#    z -0.041710 0.000000 1.929990 
# 
# From -- ./inp_files/230131.got.cif
#   From: 2010.05.17/outbox.cif.g08.bks.cpg/sg15_116_cif.got.tgz:230131.got - 2010.06.03 18:47:42.
