data_PCOD9304372
_publ_section_title
;
Structure prediction by ZEFSAII (Michael W. Deem and Ramdas Pophale) SiO2 
 PCOD9304372
Probable space group: C 2/C
;
_chemical_formula_sum "Si O2"
_cell_formula_units_Z 60
_cell_length_a 9.069524
_cell_length_b 23.765401
_cell_length_c 20.353503
_cell_angle_alpha 90.000000
_cell_angle_beta 137.776709
_cell_angle_gamma 90.000000
_cell_volume 2948.167042
_symmetry_space_group_name_H-M "C 2/C"
_symmetry_group_IT_number 15
_symmetry_cell_setting 'monoclinic'
loop_
_space_group_symop_operation_xyz
x,y,z
-x,y,1/2-z
-x,-y,-z
x,-y,1/2+z
1/2+x,1/2+y,z
1/2-x,1/2+y,1/2-z
1/2-x,1/2-y,-z
1/2+x,1/2-y,1/2+z
loop_
_atom_site_type_symbol
_atom_site_label
_atom_site_fract_x
_atom_site_fract_y
_atom_site_fract_z
Si Si1 0.589320 0.246034 0.008935
Si Si2 0.228221 0.744637 0.290901
Si Si3 0.675240 0.146538 0.512336
Si Si4 0.093957 0.627316 0.206856
Si Si5 0.679594 0.677448 0.658421
Si Si6 0.500000 0.075130 0.750000
Si Si7 0.205531 0.006158 0.237828
Si Si8 0.234699 0.472755 0.092652
O O1 0.374438 0.270229 0.902272
O O2 0.498952 0.187815 0.009888
O O3 0.750000 0.250000 0.000000
O O4 0.694625 0.280091 0.102843
O O5 0.211218 0.687936 0.242654
O O6 0.282473 0.795649 0.258957
O O7 0.000000 0.759681 0.250000
O O8 0.582499 0.128265 0.410400
O O9 0.709774 0.092486 0.568876
O O10 0.917573 0.172489 0.583804
O O11 0.242967 0.572306 0.248288
O O12 0.000000 0.624753 0.250000
O O13 0.797553 0.619556 0.676161
O O14 0.605807 0.031176 0.733777
O O15 0.221367 0.986372 0.317653
O O16 0.957905 0.994183 0.130396
O O17 0.000000 0.500000 0.000000
#
# Coordination Sequence:
#
# PCOD9304372 Si02
#       8
#     8   8   8   8   8   4   8   8
#     4  12  27  44  67 107 142 180 233 295 362 434
#     4  11  23  43  73 100 135 190 233 293 368 423
#     4  12  24  46  74 100 141 190 236 296 359 440
#     4  11  23  45  72 103 139 186 243 301 362 427
#     4  12  24  45  70 104 145 185 238 291 363 443
#     4  12  26  44  68 106 144 192 236 298 354 432
#     4  11  25  47  70 102 148 187 243 301 355 437
#     4  11  25  46  71 102 135 188 241 290 365 424
#
# _framework density 20.351628000000002
#
# number of rings (size 3 to 8) (size 9 to 14) (size 15 to 20)
#    0.000    0.533    6.000    2.800    3.733    1.067 
#    2.400    2.000    0.000    0.000    0.000    0.000 
#    0.000    0.000    0.000    0.000    0.000    0.000 
#
# Total GULP energy -167233.652656 kJ/mol
# GULP energy per Si atom -5574.455089 kJ/mol
# Density = 2.030531 g / cm^3
# Si number density = 20.351628 Si / 1000 Ang^3
#
#
#
# Elastic Constant Matrix: (Units=GPa)
#
#
# Indices 1 2 3 4 5 6 
#
# 1 121.7441 48.0189 21.9161 0.0000 5.5686 0.0000
# 2 48.0189 73.9053 13.5270 0.0000 4.1090 0.0000
# 3 21.9161 13.5270 69.1411 0.0001 3.2607 0.0000
# 4 0.0000 0.0000 0.0001 45.0742 0.0000 4.5928
# 5 5.5686 4.1090 3.2607 0.0000 26.6354 0.0000
# 6 0.0000 0.0000 0.0000 4.5928 0.0000 31.9960
#
#
#
# Elastic Compliance Matrix: (Units=1/GPa)
#
#
# Indices 1 2 3 4 5 6 
#
# 1 0.011397 -0.006944 -0.002205 0.000000 -0.001042 0.000000
# 2 -0.006944 0.018354 -0.001332 0.000000 -0.001217 0.000000
# 3 -0.002205 -0.001332 0.015481 0.000000 -0.001229 0.000000
# 4 0.000000 0.000000 0.000000 0.022515 0.000000 -0.003232
# 5 -0.001042 -0.001217 -0.001229 0.000000 0.038100 0.000000
# 6 0.000000 0.000000 0.000000 -0.003232 0.000000 0.031718
#
#
# Mechanical properties :
#
#
# Convention : Reuss Voigt Hill
#
# Bulk Modulus (GPa) = 41.20393 47.96827 44.58610
# Shear Modulus (GPa) = 30.00895 32.82970 31.41932
#
# Velocity S-wave (km/s) = 3.84412 4.02073 3.93341
# Velocity P-wave (km/s) = 6.32400 6.72130 6.52568
#
# Compressibility (1/GPa) = 0.02426953
#
# Stress axis : x y z
#
# Youngs Moduli (GPa) = 87.73997 54.48427 64.59636
#
# Poissons Ratio (x) = 0.37832 0.14244
# Poissons Ratio (y) = 0.60924 0.08607
# Poissons Ratio (z) = 0.19347 0.07260
#
# Static dielectric constant tensor:
#      x y z
#    x 1.655030 0.000000 -0.044220 
#    y 0.000000 1.734680 0.000000 
#    z -0.044220 0.000000 1.627610 
# 
# From -- ./inp_files/234592.got.cif
#   From: 2010.05.17/outbox.cif.g08.bks.cpg/sg15_118_cif.got.tgz:234592.got - 2010.06.03 18:47:42.
