data_PCOD9304065
_publ_section_title
;
Structure prediction by ZEFSAII (Michael W. Deem and Ramdas Pophale) SiO2 
 PCOD9304065
Probable space group: C 2/C
;
_chemical_formula_sum "Si O2"
_cell_formula_units_Z 40
_cell_length_a 13.527932
_cell_length_b 8.680749
_cell_length_c 17.507517
_cell_angle_alpha 90.000000
_cell_angle_beta 116.304074
_cell_angle_gamma 90.000000
_cell_volume 1843.069126
_symmetry_space_group_name_H-M "C 2/C"
_symmetry_group_IT_number 15
_symmetry_cell_setting 'monoclinic'
loop_
_space_group_symop_operation_xyz
x,y,z
-x,y,1/2-z
-x,-y,-z
x,-y,1/2+z
1/2+x,1/2+y,z
1/2-x,1/2+y,1/2-z
1/2-x,1/2-y,-z
1/2+x,1/2-y,1/2+z
loop_
_atom_site_type_symbol
_atom_site_label
_atom_site_fract_x
_atom_site_fract_y
_atom_site_fract_z
Si Si1 0.212470 0.573143 0.482283
Si Si2 0.079650 0.878485 0.712961
Si Si3 0.888007 0.935735 0.426456
Si Si4 0.197121 0.611568 0.131204
Si Si5 0.987166 0.542673 0.835585
O O1 0.250000 0.750000 0.500000
O O2 0.288304 0.495543 0.444024
O O3 0.228137 0.493730 0.569853
O O4 0.086993 0.538792 0.414343
O O5 0.191349 0.824502 0.792818
O O6 0.000000 0.949536 0.750000
O O7 0.016442 0.728784 0.658363
O O8 0.113370 0.996768 0.659301
O O9 0.878159 0.752703 0.421627
O O10 0.000000 0.000000 0.500000
O O11 0.126814 0.517528 0.168662
O O12 0.000000 0.509845 0.750000
#
# Coordination Sequence:
#
# PCOD9304065 Si02
#       5
#     8   8   8   8   8
#     4  12  25  44  67  95 132 176 221 273 332 399
#     4  11  23  42  65  94 131 172 216 272 331 393
#     4  12  24  41  65  96 129 168 218 274 330 394
#     4  12  24  41  66  97 130 172 221 273 330 395
#     4  11  24  44  66  94 131 174 218 272 334 397
#
# _framework density 21.702929000000001
#
# number of rings (size 3 to 8) (size 9 to 14) (size 15 to 20)
#    0.000    0.400    0.000   10.800    0.000    2.400 
#    0.000    0.000    0.000    0.000    0.000    0.000 
#    0.000    0.000    0.000    0.000    0.000    0.000 
#
# Total GULP energy -112005.332673 kJ/mol
# GULP energy per Si atom -5600.266634 kJ/mol
# Density = 2.165353 g / cm^3
# Si number density = 21.702929 Si / 1000 Ang^3
#
#
#
# Elastic Constant Matrix: (Units=GPa)
#
#
# Indices 1 2 3 4 5 6 
#
# 1 146.4198 30.1165 30.6512 0.0000 -29.5800 0.0000
# 2 30.1165 129.2548 37.9715 0.0000 -27.3445 0.0000
# 3 30.6512 37.9715 73.0437 0.0000 -2.0785 0.0000
# 4 0.0000 0.0000 0.0000 32.5181 0.0000 -6.8469
# 5 -29.5800 -27.3445 -2.0785 0.0000 59.9237 0.0000
# 6 0.0000 0.0000 0.0000 -6.8469 0.0000 51.1692
#
#
#
# Elastic Compliance Matrix: (Units=1/GPa)
#
#
# Indices 1 2 3 4 5 6 
#
# 1 0.008350 -0.000135 -0.003321 0.000000 0.003945 0.000000
# 2 -0.000135 0.010207 -0.005124 0.000000 0.004413 0.000000
# 3 -0.003321 -0.005124 0.017652 0.000000 -0.003365 0.000000
# 4 0.000000 0.000000 0.000000 0.031644 0.000000 0.004234
# 5 0.003945 0.004413 -0.003365 0.000000 0.020532 0.000000
# 6 0.000000 0.000000 0.000000 0.004234 0.000000 0.020110
#
#
# Mechanical properties :
#
#
# Convention : Reuss Voigt Hill
#
# Bulk Modulus (GPa) = 52.49847 60.68852 56.59350
# Shear Modulus (GPa) = 37.87768 45.38747 41.63258
#
# Velocity S-wave (km/s) = 4.18219 4.57804 4.38458
# Velocity P-wave (km/s) = 6.89659 7.48122 7.19485
#
# Compressibility (1/GPa) = 0.01904817
#
# Stress axis : x y z
#
# Youngs Moduli (GPa) = 119.76514 97.97170 56.65110
#
# Poissons Ratio (x) = 0.01325 0.18815
# Poissons Ratio (y) = 0.01620 0.29027
# Poissons Ratio (z) = 0.39776 0.50198
#
# Static dielectric constant tensor:
#      x y z
#    x 1.784340 0.000000 0.014650 
#    y 0.000000 1.787800 0.000000 
#    z 0.014650 0.000000 1.805400 
# 
# From -- ./inp_files/202844.got.cif
#   From: 2010.05.17/outbox.cif.g08.bks.cpg/sg15_102_cif.got.tgz:202844.got - 2010.06.03 18:47:42.
