data_PCOD9304148
_publ_section_title
;
Structure prediction by ZEFSAII (Michael W. Deem and Ramdas Pophale) SiO2 
 PCOD9304148
Probable space group: C 2/C
;
_chemical_formula_sum "Si O2"
_cell_formula_units_Z 60
_cell_length_a 17.144339
_cell_length_b 17.925351
_cell_length_c 9.674954
_cell_angle_alpha 90.000000
_cell_angle_beta 97.138856
_cell_angle_gamma 90.000000
_cell_volume 2950.241079
_symmetry_space_group_name_H-M "C 2/C"
_symmetry_group_IT_number 15
_symmetry_cell_setting 'monoclinic'
loop_
_space_group_symop_operation_xyz
x,y,z
-x,y,1/2-z
-x,-y,-z
x,-y,1/2+z
1/2+x,1/2+y,z
1/2-x,1/2+y,1/2-z
1/2-x,1/2-y,-z
1/2+x,1/2-y,1/2+z
loop_
_atom_site_type_symbol
_atom_site_label
_atom_site_fract_x
_atom_site_fract_y
_atom_site_fract_z
Si Si1 0.690115 0.016238 0.603264
Si Si2 0.435662 0.311266 0.039420
Si Si3 0.782956 0.199604 0.312975
Si Si4 0.692982 0.646204 0.782373
Si Si5 0.702066 0.384349 0.963416
Si Si6 0.968312 0.064572 0.089711
Si Si7 0.855806 0.414753 0.669113
Si Si8 0.000000 0.688461 0.250000
O O1 0.758813 0.074504 0.655997
O O2 0.632490 0.057606 0.484380
O O3 0.726027 0.941804 0.539830
O O4 0.652795 0.986123 0.735114
O O5 0.391293 0.350421 0.160141
O O6 0.479169 0.240291 0.114434
O O7 0.364381 0.297969 0.915168
O O8 0.498707 0.360918 0.974152
O O9 0.737918 0.276915 0.327995
O O10 0.795231 0.179653 0.153522
O O11 0.725815 0.132230 0.348996
O O12 0.692448 0.644170 0.616580
O O13 0.624722 0.433097 0.920077
O O14 0.000000 0.056848 0.250000
O O15 0.000000 0.000000 0.000000
O O16 0.923253 0.362691 0.745583
#
# Coordination Sequence:
#
# PCOD9304148 Si02
#       8
#     8   8   8   8   8   8   8   4
#     4  11  23  42  70 100 130 181 230 283 337 408
#     4  12  24  45  68 101 134 179 226 280 342 415
#     4  11  23  44  70  97 133 175 231 279 336 409
#     4  12  22  41  72  98 127 176 228 281 336 397
#     4  11  25  42  66  99 139 173 223 279 334 410
#     4  12  28  43  64  98 142 179 215 278 351 416
#     4  11  24  45  69 100 136 178 233 285 345 411
#     4  12  26  44  72  98 142 184 230 284 348 416
#
# _framework density 20.337319999999998
#
# number of rings (size 3 to 8) (size 9 to 14) (size 15 to 20)
#    0.000    0.533    5.333    3.200    4.667    0.533 
#    0.000    0.000    0.000    0.000    0.000    0.000 
#    0.000    0.000    0.000    0.000    0.000    0.000 
#
# Total GULP energy -167706.437379 kJ/mol
# GULP energy per Si atom -5590.214579 kJ/mol
# Density = 2.029103 g / cm^3
# Si number density = 20.337320 Si / 1000 Ang^3
#
#
#
# Elastic Constant Matrix: (Units=GPa)
#
#
# Indices 1 2 3 4 5 6 
#
# 1 50.2290 11.3966 19.6266 0.0000 13.4845 0.0000
# 2 11.3966 75.9760 36.4995 0.0000 5.9469 0.0000
# 3 19.6266 36.4995 127.4292 0.0000 7.2152 0.0000
# 4 0.0000 0.0000 0.0000 -118.5241 0.0000 -86.3287
# 5 13.4845 5.9469 7.2152 0.0000 30.4314 0.0000
# 6 0.0000 0.0000 0.0000 -86.3287 0.0000 -26.0301
#
#
#
# Elastic Compliance Matrix: (Units=1/GPa)
#
#
# Indices 1 2 3 4 5 6 
#
# 1 0.023901 -0.001535 -0.002695 0.000000 -0.009652 0.000000
# 2 -0.001535 0.015478 -0.004120 0.000000 -0.001368 0.000000
# 3 -0.002695 -0.004120 0.009456 0.000000 -0.000243 0.000000
# 4 0.000000 0.000000 0.000000 0.005960 0.000000 -0.019766
# 5 -0.009652 -0.001368 -0.000243 0.000000 0.037463 0.000000
# 6 0.000000 0.000000 0.000000 -0.019766 0.000000 0.027138
#
#
# Mechanical properties :
#
#
# Convention : Reuss Voigt Hill
#
# Bulk Modulus (GPa) = 31.11707 43.18663 37.15185
# Shear Modulus (GPa) = 34.05797 -10.41711 11.82043
#
# Velocity S-wave (km/s) = 4.09669 -2.26568 2.41346
# Velocity P-wave (km/s) = 6.14092 3.79959 5.10626
#
# Compressibility (1/GPa) = 0.03213670
#
# Stress axis : x y z
#
# Youngs Moduli (GPa) = 41.83857 64.60581 105.74932
#
# Poissons Ratio (x) = 0.09917 0.28501
# Poissons Ratio (y) = 0.06422 0.43565
# Poissons Ratio (z) = 0.11276 0.26615
#
# Static dielectric constant tensor:
#      x y z
#    x 1.713150 0.000000 -0.004340 
#    y 0.000000 1.716240 0.000000 
#    z -0.004340 0.000000 1.706240 
# 
# From -- ./inp_files/49085.got.cif
#   From: 2010.05.17/outbox.cif.g08.bks.cpg/sg15_25_cif.got.tgz:49085.got - 2010.06.03 18:47:42.
