data_PCOD9304059
_publ_section_title
;
Structure prediction by ZEFSAII (Michael W. Deem and Ramdas Pophale) SiO2 
 PCOD9304059
Probable space group: C 2/C
;
_chemical_formula_sum "Si O2"
_cell_formula_units_Z 40
_cell_length_a 6.998581
_cell_length_b 12.383447
_cell_length_c 19.731148
_cell_angle_alpha 90.000000
_cell_angle_beta 70.794333
_cell_angle_gamma 90.000000
_cell_volume 1614.856917
_symmetry_space_group_name_H-M "C 2/C"
_symmetry_group_IT_number 15
_symmetry_cell_setting 'monoclinic'
loop_
_space_group_symop_operation_xyz
x,y,z
-x,y,1/2-z
-x,-y,-z
x,-y,1/2+z
1/2+x,1/2+y,z
1/2-x,1/2+y,1/2-z
1/2-x,1/2-y,-z
1/2+x,1/2-y,1/2+z
loop_
_atom_site_type_symbol
_atom_site_label
_atom_site_fract_x
_atom_site_fract_y
_atom_site_fract_z
Si Si1 0.130193 0.896759 0.962847
Si Si2 0.388834 0.748420 0.651692
Si Si3 0.705469 0.335595 0.204669
Si Si4 0.377952 0.060928 0.878881
Si Si5 0.512466 0.167353 0.497117
O O1 0.285931 0.866190 0.003937
O O2 0.274122 0.944284 0.886482
O O3 0.995431 0.789153 0.970971
O O4 0.000000 0.000000 0.000000
O O5 0.280814 0.756363 0.737921
O O6 0.620187 0.720569 0.646625
O O7 0.279987 0.643103 0.634886
O O8 0.379546 0.829649 0.589482
O O9 0.500000 0.399576 0.250000
O O10 0.902083 0.408785 0.176682
O O11 0.406144 0.089343 0.954991
#
# Coordination Sequence:
#
# PCOD9304059 Si02
#       5
#     8   8   8   8   8
#     4  11  24  38  65 102 137 169 216 275 338 401
#     4   9  20  39  65  93 131 174 219 272 334 393
#     4   8  21  38  64  91 131 180 221 272 336 391
#     4  12  21  40  71  96 131 182 220 275 348 391
#     4  11  23  42  65 106 135 167 222 283 331 399
#
# _framework density 24.769997
#
# number of rings (size 3 to 8) (size 9 to 14) (size 15 to 20)
#    1.200    0.400    2.000    4.200    0.000    0.000 
#    0.000    0.000   17.600    0.000    0.000    0.000 
#    0.000    0.000    0.000    0.000    0.000    0.000 
#
# Total GULP energy -111418.546553 kJ/mol
# GULP energy per Si atom -5570.927328 kJ/mol
# Density = 2.471362 g / cm^3
# Si number density = 24.769997 Si / 1000 Ang^3
#
#
#
# Elastic Constant Matrix: (Units=GPa)
#
#
# Indices 1 2 3 4 5 6 
#
# 1 72.0729 23.7006 34.4440 0.0000 -1.4210 0.0000
# 2 23.7006 87.4749 8.5569 0.0000 -19.4295 0.0000
# 3 34.4440 8.5569 136.5498 0.0000 -4.2911 0.0000
# 4 0.0000 0.0000 0.0000 18.4532 0.0000 -3.5142
# 5 -1.4210 -19.4295 -4.2911 0.0000 56.6354 0.0000
# 6 0.0000 0.0000 0.0000 -3.5142 0.0000 37.8418
#
#
#
# Elastic Compliance Matrix: (Units=1/GPa)
#
#
# Indices 1 2 3 4 5 6 
#
# 1 0.017339 -0.004619 -0.004130 0.000000 -0.001462 0.000000
# 2 -0.004619 0.013662 0.000454 0.000000 0.004605 0.000000
# 3 -0.004130 0.000454 0.008358 0.000000 0.000685 0.000000
# 4 0.000000 0.000000 0.000000 0.055167 0.000000 0.005123
# 5 -0.001462 0.004605 0.000685 0.000000 0.019252 0.000000
# 6 0.000000 0.000000 0.000000 0.005123 0.000000 0.026902
#
#
# Mechanical properties :
#
#
# Convention : Reuss Voigt Hill
#
# Bulk Modulus (GPa) = 43.92033 47.72230 45.82131
# Shear Modulus (GPa) = 30.32907 37.87917 34.10412
#
# Velocity S-wave (km/s) = 3.50298 3.91479 3.71459
# Velocity P-wave (km/s) = 5.84217 6.30413 6.07754
#
# Compressibility (1/GPa) = 0.02276850
#
# Stress axis : x y z
#
# Youngs Moduli (GPa) = 57.67482 73.19709 119.64241
#
# Poissons Ratio (x) = 0.33806 0.49414
# Poissons Ratio (y) = 0.26637 -0.05427
# Poissons Ratio (z) = 0.23820 -0.03320
#
# Static dielectric constant tensor:
#      x y z
#    x 2.029110 0.000000 -0.116380 
#    y 0.000000 1.977550 0.000000 
#    z -0.116380 0.000000 2.157310 
# 
# From -- ./inp_files/229805.got.cif
#   From: 2010.05.17/outbox.cif.g08.bks.cpg/sg15_115_cif.got.tgz:229805.got - 2010.06.03 18:47:42.
