data_PCOD9304525
_publ_section_title
;
Structure prediction by ZEFSAII (Michael W. Deem and Ramdas Pophale) SiO2 
 PCOD9304525
Probable space group: C 2/C
;
_chemical_formula_sum "Si O2"
_cell_formula_units_Z 48
_cell_length_a 12.144191
_cell_length_b 7.198416
_cell_length_c 27.233083
_cell_angle_alpha 90.000000
_cell_angle_beta 124.123150
_cell_angle_gamma 90.000000
_cell_volume 1970.813212
_symmetry_space_group_name_H-M "C 2/C"
_symmetry_group_IT_number 15
_symmetry_cell_setting 'monoclinic'
loop_
_space_group_symop_operation_xyz
x,y,z
-x,y,1/2-z
-x,-y,-z
x,-y,1/2+z
1/2+x,1/2+y,z
1/2-x,1/2+y,1/2-z
1/2-x,1/2-y,-z
1/2+x,1/2-y,1/2+z
loop_
_atom_site_type_symbol
_atom_site_label
_atom_site_fract_x
_atom_site_fract_y
_atom_site_fract_z
Si Si1 0.832862 0.114680 0.291294
Si Si2 0.112738 0.214303 0.808446
Si Si3 0.851444 0.561878 0.923772
Si Si4 0.876888 0.382107 0.033495
Si Si5 0.694056 0.758711 0.662947
Si Si6 0.069362 0.410190 0.342542
O O1 0.726699 0.204049 0.301818
O O2 0.756732 0.107345 0.220106
O O3 0.952626 0.259648 0.315178
O O4 0.870612 0.915544 0.324335
O O5 0.201835 0.114905 0.871636
O O6 0.034821 0.390506 0.811534
O O7 0.000000 0.104498 0.750000
O O8 0.882290 0.382083 0.896502
O O9 0.973488 0.698440 0.939849
O O10 0.858437 0.520126 0.982997
O O11 0.879582 0.448721 0.089988
O O12 0.750000 0.250000 0.000000
O O13 0.815045 0.672199 0.662247
#
# Coordination Sequence:
#
# PCOD9304525 Si02
#       6
#     8   8   8   8   8   8
#     4  11  23  44  72 108 155 196 240 313 376 458
#     4  11  25  44  74 117 152 189 248 308 387 464
#     4  11  25  47  75 108 145 198 249 311 380 446
#     4  11  24  50  75 101 150 196 259 309 363 450
#     4  11  24  43  72 107 148 197 249 308 384 458
#     4  11  23  47  75 106 151 201 249 306 381 448
#
# _framework density 24.355429999999998
#
# number of rings (size 3 to 8) (size 9 to 14) (size 15 to 20)
#    0.000    1.000    3.333    3.500    2.333    3.333 
#    0.000    5.000    0.000    0.000    0.000    0.000 
#    0.000    0.000    0.000    0.000    0.000    0.000 
#
# Total GULP energy -134277.620821 kJ/mol
# GULP energy per Si atom -5594.900868 kJ/mol
# Density = 2.430000 g / cm^3
# Si number density = 24.355430 Si / 1000 Ang^3
#
#
#
# Elastic Constant Matrix: (Units=GPa)
#
#
# Indices 1 2 3 4 5 6 
#
# 1 128.7813 49.8489 40.3687 0.0000 9.3108 0.0000
# 2 49.8489 99.9525 36.9082 0.0000 2.3223 0.0000
# 3 40.3687 36.9082 176.4810 0.0000 -12.1001 0.0000
# 4 0.0000 0.0000 0.0000 28.7674 0.0000 1.1457
# 5 9.3108 2.3223 -12.1001 0.0000 57.0183 0.0000
# 6 0.0000 0.0000 0.0000 1.1457 0.0000 54.8373
#
#
#
# Elastic Compliance Matrix: (Units=1/GPa)
#
#
# Indices 1 2 3 4 5 6 
#
# 1 0.010080 -0.004431 -0.001501 0.000000 -0.001784 0.000000
# 2 -0.004431 0.012840 -0.001682 0.000000 -0.000156 0.000000
# 3 -0.001501 -0.001682 0.006477 0.000000 0.001688 0.000000
# 4 0.000000 0.000000 0.000000 0.034791 0.000000 -0.000727
# 5 -0.001784 -0.000156 0.001688 0.000000 0.018194 0.000000
# 6 0.000000 0.000000 0.000000 -0.000727 0.000000 0.018251
#
#
# Mechanical properties :
#
#
# Convention : Reuss Voigt Hill
#
# Bulk Modulus (GPa) = 70.58624 73.27405 71.93015
# Shear Modulus (GPa) = 41.46457 46.66384 44.06421
#
# Velocity S-wave (km/s) = 4.13059 4.38191 4.25810
# Velocity P-wave (km/s) = 7.19678 7.46673 7.33300
#
# Compressibility (1/GPa) = 0.01416707
#
# Stress axis : x y z
#
# Youngs Moduli (GPa) = 99.20639 77.88403 154.38476
#
# Poissons Ratio (x) = 0.34513 0.23178
# Poissons Ratio (y) = 0.43962 0.25972
# Poissons Ratio (z) = 0.14894 0.13102
#
# Static dielectric constant tensor:
#      x y z
#    x 1.970380 0.000000 -0.004760 
#    y 0.000000 2.023960 0.000000 
#    z -0.004760 0.000000 2.030500 
# 
# From -- ./inp_files/291301.got.cif
#   From: 2010.05.17/outbox.cif.g08.bks.cpg/sg15_146_cif.got.tgz:291301.got - 2010.06.03 18:47:42.
