data_PCOD9304613
_publ_section_title
;
Structure prediction by ZEFSAII (Michael W. Deem and Ramdas Pophale) SiO2 
 PCOD9304613
Probable space group: C 2/C
;
_chemical_formula_sum "Si O2"
_cell_formula_units_Z 48
_cell_length_a 13.793346
_cell_length_b 14.824237
_cell_length_c 11.118720
_cell_angle_alpha 90.000000
_cell_angle_beta 76.151531
_cell_angle_gamma 90.000000
_cell_volume 2207.423461
_symmetry_space_group_name_H-M "C 2/C"
_symmetry_group_IT_number 15
_symmetry_cell_setting 'monoclinic'
loop_
_space_group_symop_operation_xyz
x,y,z
-x,y,1/2-z
-x,-y,-z
x,-y,1/2+z
1/2+x,1/2+y,z
1/2-x,1/2+y,1/2-z
1/2-x,1/2-y,-z
1/2+x,1/2-y,1/2+z
loop_
_atom_site_type_symbol
_atom_site_label
_atom_site_fract_x
_atom_site_fract_y
_atom_site_fract_z
Si Si1 0.776609 0.512754 0.075665
Si Si2 0.101737 0.832340 0.277671
Si Si3 0.457377 0.698560 0.130761
Si Si4 0.153363 0.289575 0.960261
Si Si5 0.290592 0.821835 0.083988
Si Si6 0.151617 0.986882 0.866749
O O1 0.706610 0.508578 0.976391
O O2 0.841354 0.603394 0.038410
O O3 0.839542 0.419448 0.044266
O O4 0.723423 0.526299 0.225233
O O5 0.156205 0.749834 0.325852
O O6 0.184558 0.860171 0.158523
O O7 0.000000 0.802177 0.250000
O O8 0.087661 0.923161 0.358002
O O9 0.500000 0.684005 0.250000
O O10 0.365529 0.768331 0.147785
O O11 0.414073 0.602810 0.101100
O O12 0.550250 0.744052 0.034559
O O13 0.250000 0.250000 0.000000
O O14 0.250000 0.750000 0.000000
#
# Coordination Sequence:
#
# PCOD9304613 Si02
#       6
#     8   8   8   8   8   8
#     4  11  25  45  76 105 146 197 240 308 364 444
#     4  11  24  41  70 106 142 185 239 308 366 435
#     4  12  26  43  72 104 141 193 245 304 368 438
#     4  12  25  45  69 101 146 186 246 300 374 435
#     4  11  23  45  69  99 145 190 245 295 369 441
#     4  11  24  45  75 108 146 185 248 305 370 434
#
# _framework density 21.744807999999999
#
# number of rings (size 3 to 8) (size 9 to 14) (size 15 to 20)
#    0.000    0.667    3.333    4.500    4.667    2.667 
#    0.000    0.833    0.000    0.000    0.000    0.000 
#    0.000    0.000    0.000    0.000    0.000    0.000 
#
# Total GULP energy -133734.723296 kJ/mol
# GULP energy per Si atom -5572.280137 kJ/mol
# Density = 2.169532 g / cm^3
# Si number density = 21.744808 Si / 1000 Ang^3
#
#
#
# Elastic Constant Matrix: (Units=GPa)
#
#
# Indices 1 2 3 4 5 6 
#
# 1 114.5444 51.2083 18.8755 0.0000 14.9862 0.0000
# 2 51.2083 214.3402 16.8351 0.0000 10.8330 0.0000
# 3 18.8755 16.8351 72.7645 0.0000 2.0634 0.0000
# 4 0.0000 0.0000 0.0000 27.8085 0.0000 1.2657
# 5 14.9862 10.8330 2.0634 0.0000 43.6226 0.0000
# 6 0.0000 0.0000 0.0000 1.2657 0.0000 39.3164
#
#
#
# Elastic Compliance Matrix: (Units=1/GPa)
#
#
# Indices 1 2 3 4 5 6 
#
# 1 0.010439 -0.002179 -0.002120 0.000000 -0.002945 0.000000
# 2 -0.002179 0.005263 -0.000637 0.000000 -0.000528 0.000000
# 3 -0.002120 -0.000637 0.014435 0.000000 0.000204 0.000000
# 4 0.000000 0.000000 0.000000 0.036013 0.000000 -0.001159
# 5 -0.002945 -0.000528 0.000204 0.000000 0.024057 0.000000
# 6 0.000000 0.000000 0.000000 -0.001159 0.000000 0.025472
#
#
# Mechanical properties :
#
#
# Convention : Reuss Voigt Hill
#
# Bulk Modulus (GPa) = 49.34985 63.94297 56.64641
# Shear Modulus (GPa) = 37.79123 43.13152 40.46137
#
# Velocity S-wave (km/s) = 4.17339 4.45852 4.31831
# Velocity P-wave (km/s) = 6.77991 7.48161 7.13938
#
# Compressibility (1/GPa) = 0.02026349
#
# Stress axis : x y z
#
# Youngs Moduli (GPa) = 95.79556 190.01492 69.27754
#
# Poissons Ratio (x) = 0.41396 0.14689
# Poissons Ratio (y) = 0.20870 0.04416
# Poissons Ratio (z) = 0.20312 0.12113
#
# Static dielectric constant tensor:
#      x y z
#    x 1.926610 0.000000 -0.290040 
#    y 0.000000 2.017580 0.000000 
#    z -0.290040 0.000000 2.355260 
# 
# From -- ./inp_files/96174.got.cif
#   From: 2010.05.17/outbox.cif.g08.bks.cpg/sg15_49_cif.got.tgz:96174.got - 2010.06.03 18:47:42.
