data_PCOD9304756
_publ_section_title
;
Structure prediction by ZEFSAII (Michael W. Deem and Ramdas Pophale) SiO2 
 PCOD9304756
Probable space group: C 2/C
;
_chemical_formula_sum "Si O2"
_cell_formula_units_Z 32
_cell_length_a 10.530991
_cell_length_b 11.458582
_cell_length_c 21.195197
_cell_angle_alpha 90.000000
_cell_angle_beta 27.216031
_cell_angle_gamma 90.000000
_cell_volume 1169.723419
_symmetry_space_group_name_H-M "C 2/C"
_symmetry_group_IT_number 15
_symmetry_cell_setting 'monoclinic'
loop_
_space_group_symop_operation_xyz
x,y,z
-x,y,1/2-z
-x,-y,-z
x,-y,1/2+z
1/2+x,1/2+y,z
1/2-x,1/2+y,1/2-z
1/2-x,1/2-y,-z
1/2+x,1/2-y,1/2+z
loop_
_atom_site_type_symbol
_atom_site_label
_atom_site_fract_x
_atom_site_fract_y
_atom_site_fract_z
Si Si1 0.247965 0.299495 0.594458
Si Si2 0.984706 0.377620 0.183923
Si Si3 0.412061 0.565922 0.902379
Si Si4 0.262424 0.659013 0.430861
O O1 0.322587 0.407172 0.515316
O O2 0.122099 0.194090 0.610504
O O3 0.515676 0.235703 0.509070
O O4 0.000000 0.334398 0.750000
O O5 0.740614 0.453022 0.262370
O O6 0.000000 0.410618 0.250000
O O7 0.214235 0.370423 0.027026
O O8 0.956564 0.234466 0.201022
O O9 0.294509 0.476832 0.901573
#
# Coordination Sequence:
#
# PCOD9304756 Si02
#       4
#     8   8   8   8
#     4  11  23  46  71 109 149 185 251 309 356 452
#     4  11  24  47  69 104 149 190 245 310 362 445
#     4  11  25  43  76 107 141 199 246 303 377 435
#     4  11  25  46  73 104 148 195 241 310 374 427
#
# _framework density 27.356892999999999
#
# number of rings (size 3 to 8) (size 9 to 14) (size 15 to 20)
#    0.000    1.000    5.000    0.750    0.000    7.000 
#    0.000    0.000    0.000    0.000    0.000    0.000 
#    0.000    0.000    0.000    0.000    0.000    0.000 
#
# Total GULP energy -89105.432571 kJ/mol
# GULP energy per Si atom -5569.089536 kJ/mol
# Density = 2.729463 g / cm^3
# Si number density = 27.356893 Si / 1000 Ang^3
#
#
#
# Elastic Constant Matrix: (Units=GPa)
#
#
# Indices 1 2 3 4 5 6 
#
# 1 134.8213 26.8641 34.6309 -0.0019 -11.4783 -0.0004
# 2 26.8641 124.0354 6.1874 -0.0014 -2.1691 0.0010
# 3 34.6309 6.1874 113.4014 -0.0181 14.5799 0.0024
# 4 -0.0019 -0.0014 -0.0181 -26.2697 0.0012 14.1331
# 5 -11.4783 -2.1691 14.5799 0.0012 44.8931 -0.0001
# 6 -0.0004 0.0010 0.0024 14.1331 -0.0001 43.5785
#
#
#
# Elastic Compliance Matrix: (Units=1/GPa)
#
#
# Indices 1 2 3 4 5 6 
#
# 1 0.008793 -0.001700 -0.002996 0.000002 0.003139 0.000000
# 2 -0.001700 0.008426 0.000066 0.000000 -0.000049 0.000000
# 3 -0.002996 0.000066 0.010256 -0.000006 -0.004094 0.000001
# 4 0.000002 0.000000 -0.000006 -0.032412 0.000003 0.010512
# 5 0.003139 -0.000049 -0.004094 0.000003 0.024405 -0.000001
# 6 0.000000 0.000000 0.000001 0.010512 -0.000001 0.019538
#
#
# Mechanical properties :
#
#
# Convention : Reuss Voigt Hill
#
# Bulk Modulus (GPa) = 54.90196 56.40255 55.65226
# Shear Modulus (GPa) = 92.01590 32.74544 62.38067
#
# Velocity S-wave (km/s) = 5.80589 3.46348 4.78038
# Velocity P-wave (km/s) = 8.06578 6.05445 7.13138
#
# Compressibility (1/GPa) = 0.01821429
#
# Stress axis : x y z
#
# Youngs Moduli (GPa) = 113.72963 118.67630 97.50499
#
# Poissons Ratio (x) = 0.20175 0.29212
# Poissons Ratio (y) = 0.19334 -0.00641
# Poissons Ratio (z) = 0.34073 -0.00780
#
# Static dielectric constant tensor:
#      x y z
#    x 2.504520 0.000070 0.134260 
#    y 0.000070 2.784970 0.000020 
#    z 0.134260 0.000020 2.436560 
# 
# From -- ./inp_files/141551.got.cif
#   From: 2010.05.17/outbox.cif.g08.bks.cpg/sg15_71_cif.got.tgz:141551.got - 2010.06.03 18:47:42.
