data_PCOD9304366
_publ_section_title
;
Structure prediction by ZEFSAII (Michael W. Deem and Ramdas Pophale) SiO2 
 PCOD9304366
Probable space group: C 2/C
;
_chemical_formula_sum "Si O2"
_cell_formula_units_Z 48
_cell_length_a 14.081029
_cell_length_b 26.976776
_cell_length_c 7.968965
_cell_angle_alpha 90.000000
_cell_angle_beta 45.854272
_cell_angle_gamma 90.000000
_cell_volume 2172.156089
_symmetry_space_group_name_H-M "C 2/C"
_symmetry_group_IT_number 15
_symmetry_cell_setting 'monoclinic'
loop_
_space_group_symop_operation_xyz
x,y,z
-x,y,1/2-z
-x,-y,-z
x,-y,1/2+z
1/2+x,1/2+y,z
1/2-x,1/2+y,1/2-z
1/2-x,1/2-y,-z
1/2+x,1/2-y,1/2+z
loop_
_atom_site_type_symbol
_atom_site_label
_atom_site_fract_x
_atom_site_fract_y
_atom_site_fract_z
Si Si1 0.772661 0.975767 0.331085
Si Si2 0.675853 0.345154 0.809536
Si Si3 0.000000 0.917789 0.250000
Si Si4 0.392401 0.754147 0.237202
Si Si5 0.981765 0.643498 0.968089
Si Si6 0.500000 0.931912 0.750000
Si Si7 0.845601 0.070729 0.397320
O O1 0.896963 0.951174 0.273737
O O2 0.633684 0.963843 0.589504
O O3 0.801266 0.034294 0.301252
O O4 0.772014 0.951047 0.149323
O O5 0.607383 0.291930 0.888062
O O6 0.827740 0.341223 0.678469
O O7 0.680563 0.372799 0.622185
O O8 0.587614 0.381954 0.026954
O O9 0.500000 0.746579 0.250000
O O10 0.250000 0.750000 0.500000
O O11 0.426495 0.807966 0.121334
O O12 0.000000 0.627340 0.750000
O O13 0.008108 0.602313 0.074599
O O14 0.000000 0.065733 0.250000
#
# Coordination Sequence:
#
# PCOD9304366 Si02
#       7
#     8   8   4   8   8   4   8
#     4  12  26  45  68 107 142 186 237 296 355 430
#     4  12  24  45  71 103 136 190 237 298 355 423
#     4  12  24  43  70  98 144 180 241 288 348 434
#     4  11  23  43  72 105 138 184 237 291 360 423
#     4  11  24  48  73 100 148 187 231 304 355 418
#     4  12  28  47  72 110 150 190 237 290 370 438
#     4  12  24  44  75  99 141 188 242 295 351 424
#
# _framework density 22.097859
#
# number of rings (size 3 to 8) (size 9 to 14) (size 15 to 20)
#    0.000    0.333    7.500    3.000    0.000    1.333 
#    1.500    1.667    0.000    0.000    0.000    0.000 
#    0.000    0.000    0.000    0.000    0.000    0.000 
#
# Total GULP energy -134319.848116 kJ/mol
# GULP energy per Si atom -5596.660338 kJ/mol
# Density = 2.204756 g / cm^3
# Si number density = 22.097859 Si / 1000 Ang^3
#
#
#
# Elastic Constant Matrix: (Units=GPa)
#
#
# Indices 1 2 3 4 5 6 
#
# 1 60.5839 25.0071 32.4136 0.0000 -14.3787 0.0000
# 2 25.0071 101.9479 44.3701 0.0000 -8.3965 0.0000
# 3 32.4136 44.3701 107.9163 0.0000 -27.6140 0.0000
# 4 0.0000 0.0000 0.0000 20.8366 0.0000 2.1971
# 5 -14.3787 -8.3965 -27.6140 0.0000 48.0158 0.0000
# 6 0.0000 0.0000 0.0000 2.1971 0.0000 19.1463
#
#
#
# Elastic Compliance Matrix: (Units=1/GPa)
#
#
# Indices 1 2 3 4 5 6 
#
# 1 0.020753 -0.003013 -0.004150 0.000000 0.003301 0.000000
# 2 -0.003013 0.012415 -0.004543 0.000000 -0.001344 0.000000
# 3 -0.004150 -0.004543 0.013906 0.000000 0.005960 0.000000
# 4 0.000000 0.000000 0.000000 0.048580 0.000000 -0.005575
# 5 0.003301 -0.001344 0.005960 0.000000 0.025008 0.000000
# 6 0.000000 0.000000 0.000000 -0.005575 0.000000 0.052869
#
#
# Mechanical properties :
#
#
# Convention : Reuss Voigt Hill
#
# Bulk Modulus (GPa) = 42.26185 52.66996 47.46591
# Shear Modulus (GPa) = 24.41040 28.84355 26.62697
#
# Velocity S-wave (km/s) = 3.32723 3.61676 3.47502
# Velocity P-wave (km/s) = 5.82469 6.42868 6.13412
#
# Compressibility (1/GPa) = 0.02366200
#
# Stress axis : x y z
#
# Youngs Moduli (GPa) = 48.18479 80.55054 71.91102
#
# Poissons Ratio (x) = 0.24266 0.29844
# Poissons Ratio (y) = 0.14516 0.32672
# Poissons Ratio (z) = 0.19997 0.36597
#
# Static dielectric constant tensor:
#      x y z
#    x 1.791250 0.000000 0.036630 
#    y 0.000000 1.806910 0.000000 
#    z 0.036630 0.000000 1.869000 
# 
# From -- ./inp_files/43850.got.cif
#   From: 2010.05.17/outbox.cif.g08.bks.cpg/sg15_22_cif.got.tgz:43850.got - 2010.06.03 18:47:42.
