data_PCOD9304419
_publ_section_title
;
Structure prediction by ZEFSAII (Michael W. Deem and Ramdas Pophale) SiO2 
 PCOD9304419
Probable space group: C 2/C
;
_chemical_formula_sum "Si O2"
_cell_formula_units_Z 52
_cell_length_a 15.340057
_cell_length_b 14.461340
_cell_length_c 9.966791
_cell_angle_alpha 90.000000
_cell_angle_beta 63.254214
_cell_angle_gamma 90.000000
_cell_volume 1974.459265
_symmetry_space_group_name_H-M "C 2/C"
_symmetry_group_IT_number 15
_symmetry_cell_setting 'monoclinic'
loop_
_space_group_symop_operation_xyz
x,y,z
-x,y,1/2-z
-x,-y,-z
x,-y,1/2+z
1/2+x,1/2+y,z
1/2-x,1/2+y,1/2-z
1/2-x,1/2-y,-z
1/2+x,1/2-y,1/2+z
loop_
_atom_site_type_symbol
_atom_site_label
_atom_site_fract_x
_atom_site_fract_y
_atom_site_fract_z
Si Si1 0.339828 0.888660 0.789839
Si Si2 0.000000 0.359807 0.250000
Si Si3 0.593691 0.290935 0.519294
Si Si4 0.432301 0.758405 0.949855
Si Si5 0.175341 0.079054 0.593448
Si Si6 0.500000 0.445092 0.750000
Si Si7 0.231675 0.707445 0.751365
Si Si8 0.500000 0.000000 0.000000
O O1 0.403265 0.841049 0.868171
O O2 0.276222 0.806767 0.766910
O O3 0.406920 0.939843 0.636028
O O4 0.257642 0.949283 0.926909
O O5 0.918314 0.288617 0.362851
O O6 0.007261 0.429114 0.369785
O O7 0.543253 0.259190 0.414257
O O8 0.528972 0.378211 0.608154
O O9 0.706482 0.314568 0.423054
O O10 0.387352 0.664354 0.923903
O O11 0.379417 0.780965 0.126660
O O12 0.266513 0.374545 0.325729
O O13 0.097180 0.005619 0.699830
#
# Coordination Sequence:
#
# PCOD9304419 Si02
#       8
#     8   4   8   8   8   4   8   4
#     4   9  20  40  69 101 134 173 234 284 347 411
#     4  11  28  44  65  98 138 176 229 284 348 425
#     4  11  23  44  63  95 143 184 226 287 354 420
#     4   9  20  39  72  99 130 188 227 284 349 418
#     4   9  19  39  65 103 136 176 236 285 338 424
#     4  11  24  40  59  98 140 188 229 286 352 409
#     4   9  18  40  67  96 135 177 230 283 341 417
#     4  12  24  46  70  98 136 178 230 300 346 418
#
# _framework density 26.336324000000001
#
# number of rings (size 3 to 8) (size 9 to 14) (size 15 to 20)
#    0.000    2.154    1.538    2.769    2.154    4.308 
#    5.538    1.538    0.000    0.000    0.000    0.000 
#    0.000    0.000    0.000    0.000    0.000    0.000 
#
# Total GULP energy -144854.620094 kJ/mol
# GULP energy per Si atom -5571.331542 kJ/mol
# Density = 2.627638 g / cm^3
# Si number density = 26.336324 Si / 1000 Ang^3
#
#
#
# Elastic Constant Matrix: (Units=GPa)
#
#
# Indices 1 2 3 4 5 6 
#
# 1 52.0626 13.4631 32.3300 0.0000 -18.1452 0.0000
# 2 13.4631 113.5124 69.5401 0.0000 -15.0426 0.0000
# 3 32.3300 69.5401 211.3585 0.0000 -35.7617 0.0000
# 4 0.0000 0.0000 0.0000 25.4572 0.0000 -3.6639
# 5 -18.1452 -15.0426 -35.7617 0.0000 44.7901 0.0000
# 6 0.0000 0.0000 0.0000 -3.6639 0.0000 22.0056
#
#
#
# Elastic Compliance Matrix: (Units=1/GPa)
#
#
# Indices 1 2 3 4 5 6 
#
# 1 0.023290 -0.000452 -0.002131 0.000000 0.007582 0.000000
# 2 -0.000452 0.011076 -0.003442 0.000000 0.000789 0.000000
# 3 -0.002131 -0.003442 0.006761 0.000000 0.003379 0.000000
# 4 0.000000 0.000000 0.000000 0.040246 0.000000 0.006701
# 5 0.007582 0.000789 0.003379 0.000000 0.028361 0.000000
# 6 0.000000 0.000000 0.000000 0.006701 0.000000 0.046559
#
#
# Mechanical properties :
#
#
# Convention : Reuss Voigt Hill
#
# Bulk Modulus (GPa) = 34.38950 67.51112 50.95031
# Shear Modulus (GPa) = 28.08423 35.89059 31.98741
#
# Velocity S-wave (km/s) = 3.26907 3.69559 3.48885
# Velocity P-wave (km/s) = 5.22832 6.62569 5.96804
#
# Compressibility (1/GPa) = 0.02907864
#
# Stress axis : x y z
#
# Youngs Moduli (GPa) = 42.93613 90.28396 147.89910
#
# Poissons Ratio (x) = 0.04082 0.31516
# Poissons Ratio (y) = 0.01941 0.50901
# Poissons Ratio (z) = 0.09149 0.31072
#
# Static dielectric constant tensor:
#      x y z
#    x 2.171560 0.000000 -0.008590 
#    y 0.000000 2.118000 0.000000 
#    z -0.008590 0.000000 2.134210 
# 
# From -- ./inp_files/112673.got.cif
#   From: 2010.05.17/outbox.cif.g08.bks.cpg/sg15_57_cif.got.tgz:112673.got - 2010.06.03 18:47:42.
