data_PCOD9304654
_publ_section_title
;
Structure prediction by ZEFSAII (Michael W. Deem and Ramdas Pophale) SiO2 
 PCOD9304654
Probable space group: C 2/C
;
_chemical_formula_sum "Si O2"
_cell_formula_units_Z 48
_cell_length_a 22.511444
_cell_length_b 5.469892
_cell_length_c 23.171797
_cell_angle_alpha 90.000000
_cell_angle_beta 133.648718
_cell_angle_gamma 90.000000
_cell_volume 2064.579020
_symmetry_space_group_name_H-M "C 2/C"
_symmetry_group_IT_number 15
_symmetry_cell_setting 'monoclinic'
loop_
_space_group_symop_operation_xyz
x,y,z
-x,y,1/2-z
-x,-y,-z
x,-y,1/2+z
1/2+x,1/2+y,z
1/2-x,1/2+y,1/2-z
1/2-x,1/2-y,-z
1/2+x,1/2-y,1/2+z
loop_
_atom_site_type_symbol
_atom_site_label
_atom_site_fract_x
_atom_site_fract_y
_atom_site_fract_z
Si Si1 0.570700 0.589230 0.619023
Si Si2 0.317293 0.275307 0.408427
Si Si3 0.974417 0.398045 0.063703
Si Si4 0.649200 0.509336 0.796514
Si Si5 0.067226 0.321978 0.332621
Si Si6 0.731251 0.900475 0.930741
O O1 0.645469 0.611116 0.624207
O O2 0.518761 0.345536 0.568575
O O3 0.605324 0.557983 0.706956
O O4 0.521744 0.847462 0.586343
O O5 0.384287 0.080190 0.475133
O O6 0.225593 0.175671 0.337914
O O7 0.308897 0.463300 0.456030
O O8 0.967078 0.326858 0.126131
O O9 0.586589 0.405997 0.802914
O O10 0.692353 0.742459 0.853429
O O11 0.158736 0.421225 0.400554
O O12 0.000000 0.471266 0.250000
O O13 0.750000 0.750000 0.000000
#
# Coordination Sequence:
#
# PCOD9304654 Si02
#       6
#     8   8   8   8   8   8
#     4  12  29  48  77 110 155 199 254 305 384 451
#     4  11  28  47  75 108 154 197 256 310 378 457
#     4  12  27  49  76 112 149 203 248 314 374 455
#     4  11  26  45  74 109 143 201 245 316 375 445
#     4  11  23  45  72 107 147 190 251 311 377 440
#     4  11  25  45  75 105 146 196 253 315 378 442
#
# _framework density 23.249290999999999
#
# number of rings (size 3 to 8) (size 9 to 14) (size 15 to 20)
#    0.000    0.667    1.667    4.000   14.000    3.333 
#    0.000    0.000    0.000    0.000    0.000    0.000 
#    0.000    0.000    0.000    0.000    0.000    0.000 
#
# Total GULP energy -134223.925130 kJ/mol
# GULP energy per Si atom -5592.663547 kJ/mol
# Density = 2.319638 g / cm^3
# Si number density = 23.249291 Si / 1000 Ang^3
#
#
#
# Elastic Constant Matrix: (Units=GPa)
#
#
# Indices 1 2 3 4 5 6 
#
# 1 166.1161 64.7647 21.7176 0.0006 -0.8530 0.0028
# 2 64.7647 115.2599 32.9801 -0.0069 6.0621 -0.0133
# 3 21.7176 32.9801 101.8242 0.0015 -1.7317 0.0053
# 4 0.0006 -0.0069 0.0015 33.5620 -0.0001 -3.2690
# 5 -0.8530 6.0621 -1.7317 -0.0001 38.8581 -0.0017
# 6 0.0028 -0.0133 0.0053 -3.2690 -0.0017 9.7514
#
#
#
# Elastic Compliance Matrix: (Units=1/GPa)
#
#
# Indices 1 2 3 4 5 6 
#
# 1 0.007742 -0.004327 -0.000236 -0.000002 0.000834 -0.000008
# 2 -0.004327 0.012085 -0.003027 0.000005 -0.002115 0.000021
# 3 -0.000236 -0.003027 0.010868 -0.000002 0.000951 -0.000011
# 4 -0.000002 0.000005 -0.000002 0.030801 0.000000 0.010326
# 5 0.000834 -0.002115 0.000951 0.000000 0.026125 0.000001
# 6 -0.000008 0.000021 -0.000011 0.010326 0.000001 0.106011
#
#
# Mechanical properties :
#
#
# Convention : Reuss Voigt Hill
#
# Bulk Modulus (GPa) = 64.45316 69.12500 66.78908
# Shear Modulus (GPa) = 23.36638 34.01683 28.69160
#
# Velocity S-wave (km/s) = 3.17367 3.82924 3.51677
# Velocity P-wave (km/s) = 6.41969 7.02477 6.72904
#
# Compressibility (1/GPa) = 0.01551514
#
# Stress axis : x y z
#
# Youngs Moduli (GPa) = 129.16857 82.74970 92.01483
#
# Poissons Ratio (x) = 0.35802 0.02169
# Poissons Ratio (y) = 0.55886 0.27856
# Poissons Ratio (z) = 0.03044 0.25051
#
# Static dielectric constant tensor:
#      x y z
#    x 1.839840 0.000010 0.035050 
#    y 0.000010 2.016790 0.000000 
#    z 0.035050 0.000000 1.876590 
# 
# From -- ./inp_files/279030.got.cif
#   From: 2010.05.17/outbox.cif.g08.bks.cpg/sg15_140_cif.got.tgz:279030.got - 2010.06.03 18:47:42.
