data_PCOD9304564
_publ_section_title
;
Structure prediction by ZEFSAII (Michael W. Deem and Ramdas Pophale) SiO2 
 PCOD9304564
Probable space group: C 2/C
;
_chemical_formula_sum "Si O2"
_cell_formula_units_Z 44
_cell_length_a 20.678906
_cell_length_b 10.350725
_cell_length_c 8.507001
_cell_angle_alpha 90.000000
_cell_angle_beta 69.063901
_cell_angle_gamma 90.000000
_cell_volume 1700.639139
_symmetry_space_group_name_H-M "C 2/C"
_symmetry_group_IT_number 15
_symmetry_cell_setting 'monoclinic'
loop_
_space_group_symop_operation_xyz
x,y,z
-x,y,1/2-z
-x,-y,-z
x,-y,1/2+z
1/2+x,1/2+y,z
1/2-x,1/2+y,1/2-z
1/2-x,1/2-y,-z
1/2+x,1/2-y,1/2+z
loop_
_atom_site_type_symbol
_atom_site_label
_atom_site_fract_x
_atom_site_fract_y
_atom_site_fract_z
Si Si1 0.674380 0.091809 0.858102
Si Si2 0.779592 0.129944 0.204571
Si Si3 0.132537 0.975527 0.598252
Si Si4 0.500000 0.346051 0.250000
Si Si5 0.543134 0.736610 0.046985
Si Si6 0.579237 0.988780 0.160755
O O1 0.724148 0.215537 0.798868
O O2 0.616992 0.084748 0.770183
O O3 0.715827 0.957095 0.816012
O O4 0.630732 0.099066 0.056834
O O5 0.840738 0.100655 0.274641
O O6 0.806067 0.063891 0.021962
O O7 0.104453 0.867602 0.502283
O O8 0.067709 0.065171 0.688833
O O9 0.502209 0.280441 0.420526
O O10 0.500000 0.721018 0.250000
O O11 0.572313 0.880749 0.030566
O O12 0.500000 0.029898 0.250000
#
# Coordination Sequence:
#
# PCOD9304564 Si02
#       6
#     8   8   8   4   8   8
#     4  12  29  54  79 118 161 216 283 333 421 508
#     4  12  29  47  81 113 162 219 275 344 407 508
#     4  12  23  45  72 114 159 212 274 333 420 485
#     4  12  24  40  80 122 160 218 276 346 416 502
#     4  11  23  44  75 117 161 209 271 344 419 489
#     4  11  27  52  82 113 162 212 269 351 423 489
#
# _framework density 25.872626
#
# number of rings (size 3 to 8) (size 9 to 14) (size 15 to 20)
#    0.000    0.364    4.545    3.273    5.091    5.818 
#    3.273    0.000    0.000    0.000    0.000    0.000 
#    0.000    0.000    0.000    0.000    0.000    0.000 
#
# Total GULP energy -123285.113779 kJ/mol
# GULP energy per Si atom -5603.868808 kJ/mol
# Density = 2.581374 g / cm^3
# Si number density = 25.872626 Si / 1000 Ang^3
#
#
#
# Elastic Constant Matrix: (Units=GPa)
#
#
# Indices 1 2 3 4 5 6 
#
# 1 102.7712 52.2629 38.8310 0.0000 -3.2704 0.0000
# 2 52.2629 136.6774 41.4545 0.0000 -4.3336 0.0000
# 3 38.8310 41.4545 91.1007 0.0000 2.3704 0.0000
# 4 0.0000 0.0000 0.0000 33.4346 0.0000 -2.0158
# 5 -3.2704 -4.3336 2.3704 0.0000 65.5559 0.0000
# 6 0.0000 0.0000 0.0000 -2.0158 0.0000 49.1769
#
#
#
# Elastic Compliance Matrix: (Units=1/GPa)
#
#
# Indices 1 2 3 4 5 6 
#
# 1 0.013166 -0.003841 -0.003878 0.000000 0.000543 0.000000
# 2 -0.003841 0.009641 -0.002764 0.000000 0.000546 0.000000
# 3 -0.003878 -0.002764 0.013911 0.000000 -0.000879 0.000000
# 4 0.000000 0.000000 0.000000 0.029983 0.000000 0.001229
# 5 0.000543 0.000546 -0.000879 0.000000 0.015349 0.000000
# 6 0.000000 0.000000 0.000000 0.001229 0.000000 0.020385
#
#
# Mechanical properties :
#
#
# Convention : Reuss Voigt Hill
#
# Bulk Modulus (GPa) = 63.48780 66.18291 64.83535
# Shear Modulus (GPa) = 38.86443 42.83354 40.84899
#
# Velocity S-wave (km/s) = 3.87996 4.07326 3.97778
# Velocity P-wave (km/s) = 6.68311 6.91070 6.79786
#
# Compressibility (1/GPa) = 0.01575106
#
# Stress axis : x y z
#
# Youngs Moduli (GPa) = 75.95134 103.72528 71.88772
#
# Poissons Ratio (x) = 0.39841 0.27881
# Poissons Ratio (y) = 0.29173 0.19870
# Poissons Ratio (z) = 0.29457 0.28669
#
# Static dielectric constant tensor:
#      x y z
#    x 1.995130 0.000000 0.004820 
#    y 0.000000 2.043550 0.000000 
#    z 0.004820 0.000000 2.090640 
# 
# From -- ./inp_files/54342.got.cif
#   From: 2010.05.17/outbox.cif.g08.bks.cpg/sg15_28_cif.got.tgz:54342.got - 2010.06.03 18:47:42.
