data_PCOD9304012
_publ_section_title
;
Structure prediction by ZEFSAII (Michael W. Deem and Ramdas Pophale) SiO2 
 PCOD9304012
Probable space group: C 2/C
;
_chemical_formula_sum "Si O2"
_cell_formula_units_Z 56
_cell_length_a 26.676015
_cell_length_b 5.975544
_cell_length_c 17.473254
_cell_angle_alpha 90.000000
_cell_angle_beta 113.586810
_cell_angle_gamma 90.000000
_cell_volume 2552.602996
_symmetry_space_group_name_H-M "C 2/C"
_symmetry_group_IT_number 15
_symmetry_cell_setting 'monoclinic'
loop_
_space_group_symop_operation_xyz
x,y,z
-x,y,1/2-z
-x,-y,-z
x,-y,1/2+z
1/2+x,1/2+y,z
1/2-x,1/2+y,1/2-z
1/2-x,1/2-y,-z
1/2+x,1/2-y,1/2+z
loop_
_atom_site_type_symbol
_atom_site_label
_atom_site_fract_x
_atom_site_fract_y
_atom_site_fract_z
Si Si1 0.887631 0.019960 0.597248
Si Si2 0.164771 0.330838 0.052622
Si Si3 0.237413 0.873894 0.278494
Si Si4 0.077204 0.472593 0.114889
Si Si5 0.859803 0.674469 0.207500
Si Si6 0.691477 0.848609 0.437565
Si Si7 0.028930 0.188131 0.467414
O O1 0.847716 0.120582 0.507860
O O2 0.897431 0.211542 0.665756
O O3 0.849998 0.839895 0.615470
O O4 0.938683 0.917681 0.583894
O O5 0.223848 0.347288 0.124856
O O6 0.120433 0.328374 0.092719
O O7 0.162631 0.541241 0.994088
O O8 0.250155 0.631807 0.242448
O O9 0.174227 0.850268 0.262286
O O10 0.104415 0.535487 0.211358
O O11 0.018891 0.354497 0.089271
O O12 0.066921 0.680283 0.051001
O O13 0.813576 0.532400 0.132712
O O14 0.750000 0.750000 0.500000
O O15 0.000000 0.000000 0.500000
#
# Coordination Sequence:
#
# PCOD9304012 Si02
#       7
#     8   8   8   8   8   8   8
#     4  11  24  44  73 101 145 189 250 304 385 450
#     4  11  23  41  70 102 139 198 245 307 366 462
#     4  12  28  43  72 114 155 200 254 312 383 458
#     4  11  24  45  72 104 144 184 257 313 373 448
#     4  11  27  44  69 112 151 193 245 319 381 452
#     4  11  24  43  69 102 149 193 237 299 376 459
#     4  11  24  45  77 100 132 196 252 311 379 456
#
# _framework density 21.938389000000001
#
# number of rings (size 3 to 8) (size 9 to 14) (size 15 to 20)
#    0.000    0.857    4.286    1.714    8.000    3.429 
#    0.000    4.286    0.000    0.000    0.000    0.000 
#    0.000    0.000    0.000    0.000    0.000    0.000 
#
# Total GULP energy -156244.152836 kJ/mol
# GULP energy per Si atom -5580.148316 kJ/mol
# Density = 2.188846 g / cm^3
# Si number density = 21.938389 Si / 1000 Ang^3
#
#
#
# Elastic Constant Matrix: (Units=GPa)
#
#
# Indices 1 2 3 4 5 6 
#
# 1 55.4080 20.0667 14.9575 0.0000 -12.2950 0.0000
# 2 20.0667 77.7252 23.7533 0.0001 -16.5394 0.0000
# 3 14.9575 23.7533 104.6021 0.0000 -1.3042 0.0000
# 4 0.0000 0.0001 0.0000 18.6186 0.0000 -16.3022
# 5 -12.2950 -16.5394 -1.3042 0.0000 25.5586 0.0000
# 6 0.0000 0.0000 0.0000 -16.3022 0.0000 34.6205
#
#
#
# Elastic Compliance Matrix: (Units=1/GPa)
#
#
# Indices 1 2 3 4 5 6 
#
# 1 0.021630 -0.003129 -0.002279 0.000000 0.008264 0.000000
# 2 -0.003129 0.016581 -0.003205 0.000000 0.009061 0.000000
# 3 -0.002279 -0.003205 0.010581 0.000000 -0.002631 0.000000
# 4 0.000000 0.000000 0.000000 0.091389 0.000000 0.043033
# 5 0.008264 0.009061 -0.002631 0.000000 0.048831 0.000000
# 6 0.000000 0.000000 0.000000 0.043033 0.000000 0.049148
#
#
# Mechanical properties :
#
#
# Convention : Reuss Voigt Hill
#
# Bulk Modulus (GPa) = 31.68010 39.47669 35.57840
# Shear Modulus (GPa) = 18.80339 27.69007 23.24673
#
# Velocity S-wave (km/s) = 2.93080 3.55656 3.25874
# Velocity P-wave (km/s) = 5.09163 5.90753 5.51469
#
# Compressibility (1/GPa) = 0.03156555
#
# Stress axis : x y z
#
# Youngs Moduli (GPa) = 46.23132 60.30880 94.50948
#
# Poissons Ratio (x) = 0.18872 0.21542
# Poissons Ratio (y) = 0.14467 0.30289
# Poissons Ratio (z) = 0.10538 0.19328
#
# Static dielectric constant tensor:
#      x y z
#    x 1.755950 0.000000 -0.050100 
#    y 0.000000 1.458230 0.000000 
#    z -0.050100 0.000000 1.725830 
# 
# From -- ./inp_files/221308.got.cif
#   From: 2010.05.17/outbox.cif.g08.bks.cpg/sg15_111_cif.got.tgz:221308.got - 2010.06.03 18:47:42.
