data_PCOD9304121
_publ_section_title
;
Structure prediction by ZEFSAII (Michael W. Deem and Ramdas Pophale) SiO2 
 PCOD9304121
Probable space group: C 2/C
;
_chemical_formula_sum "Si O2"
_cell_formula_units_Z 44
_cell_length_a 8.701898
_cell_length_b 31.626568
_cell_length_c 9.140136
_cell_angle_alpha 90.000000
_cell_angle_beta 126.067389
_cell_angle_gamma 90.000000
_cell_volume 2033.315542
_symmetry_space_group_name_H-M "C 2/C"
_symmetry_group_IT_number 15
_symmetry_cell_setting 'monoclinic'
loop_
_space_group_symop_operation_xyz
x,y,z
-x,y,1/2-z
-x,-y,-z
x,-y,1/2+z
1/2+x,1/2+y,z
1/2-x,1/2+y,1/2-z
1/2-x,1/2-y,-z
1/2+x,1/2-y,1/2+z
loop_
_atom_site_type_symbol
_atom_site_label
_atom_site_fract_x
_atom_site_fract_y
_atom_site_fract_z
Si Si1 0.547241 0.344098 0.628012
Si Si2 0.171544 0.356651 0.234979
Si Si3 0.655039 0.939604 0.036056
Si Si4 0.689170 0.798620 0.953078
Si Si5 0.267384 0.570095 0.275933
Si Si6 0.000000 0.994463 0.750000
O O1 0.500000 0.319119 0.750000
O O2 0.357597 0.356900 0.438587
O O3 0.657532 0.319878 0.565338
O O4 0.671634 0.384514 0.751068
O O5 0.163880 0.403481 0.161655
O O6 0.000000 0.348118 0.250000
O O7 0.175335 0.323386 0.100862
O O8 0.812134 0.976438 0.137966
O O9 0.429332 0.949572 0.897062
O O10 0.718848 0.920567 0.916378
O O11 0.500000 0.801894 0.750000
O O12 0.750000 0.750000 0.000000
O O13 0.442277 0.537960 0.348212
#
# Coordination Sequence:
#
# PCOD9304121 Si02
#       6
#     8   8   8   8   8   4
#     4  12  24  45  73 105 145 191 236 295 361 432
#     4  12  26  45  74 105 143 194 242 288 363 433
#     4  11  24  43  64  99 138 188 237 303 355 429
#     4  12  26  48  77 112 147 185 235 296 356 431
#     4  11  23  42  68  95 139 188 239 295 367 423
#     4  12  24  42  66 100 140 184 250 302 362 424
#
# _framework density 21.639533
#
# number of rings (size 3 to 8) (size 9 to 14) (size 15 to 20)
#    0.000    0.364    2.727    7.091    0.000    0.727 
#    3.273    3.636    0.000    0.000    0.000    0.000 
#    0.000    0.000    0.000    0.000    0.000    0.000 
#
# Total GULP energy -122847.031066 kJ/mol
# GULP energy per Si atom -5583.955958 kJ/mol
# Density = 2.159028 g / cm^3
# Si number density = 21.639533 Si / 1000 Ang^3
#
#
#
# Elastic Constant Matrix: (Units=GPa)
#
#
# Indices 1 2 3 4 5 6 
#
# 1 172.7669 69.1096 59.7414 0.0000 -17.7304 0.0000
# 2 69.1096 92.6632 21.9819 0.0000 -14.5403 0.0000
# 3 59.7414 21.9819 104.3163 0.0000 -16.0066 0.0000
# 4 0.0000 0.0000 0.0000 -84.0106 0.0000 117.4850
# 5 -17.7304 -14.5403 -16.0066 0.0000 43.4354 0.0000
# 6 0.0000 0.0000 0.0000 117.4850 0.0000 -98.1998
#
#
#
# Elastic Compliance Matrix: (Units=1/GPa)
#
#
# Indices 1 2 3 4 5 6 
#
# 1 0.009783 -0.006238 -0.004236 0.000000 0.000345 0.000000
# 2 -0.006238 0.015743 0.000713 0.000000 0.002987 0.000000
# 3 -0.004236 0.000713 0.012330 0.000000 0.003054 0.000000
# 4 0.000000 0.000000 0.000000 0.017684 0.000000 0.021157
# 5 0.000345 0.002987 0.003054 0.000000 0.025288 0.000000
# 6 0.000000 0.000000 0.000000 0.021157 0.000000 0.015129
#
#
# Mechanical properties :
#
#
# Convention : Reuss Voigt Hill
#
# Bulk Modulus (GPa) = 54.53560 74.60135 64.56847
# Shear Modulus (GPa) = 41.12125 -13.16077 13.98024
#
# Velocity S-wave (km/s) = 4.36395 -2.46881 2.54451
# Velocity P-wave (km/s) = 7.11679 5.14030 6.20771
#
# Compressibility (1/GPa) = 0.01833665
#
# Stress axis : x y z
#
# Youngs Moduli (GPa) = 102.21495 63.51851 81.10162
#
# Poissons Ratio (x) = 0.39621 0.34351
# Poissons Ratio (y) = 0.63759 -0.05783
# Poissons Ratio (z) = 0.43294 -0.04529
#
# Static dielectric constant tensor:
#      x y z
#    x 0.252360 0.000000 -1.204330 
#    y 0.000000 1.804680 0.000000 
#    z -1.204330 0.000000 0.854590 
# 
# From -- ./inp_files/26272.got.cif
#   From: 2010.05.17/outbox.cif.g08.bks.cpg/sg15_14_cif.got.tgz:26272.got - 2010.06.03 18:47:42.
