data_PCOD9304988
_publ_section_title
;
Structure prediction by ZEFSAII (Michael W. Deem and Ramdas Pophale) SiO2 
 PCOD9304988
Probable space group: C 2/C
;
_chemical_formula_sum "Si O2"
_cell_formula_units_Z 48
_cell_length_a 17.123989
_cell_length_b 16.428343
_cell_length_c 18.612300
_cell_angle_alpha 90.000000
_cell_angle_beta 27.039732
_cell_angle_gamma 90.000000
_cell_volume 2380.323975
_symmetry_space_group_name_H-M "C 2/C"
_symmetry_group_IT_number 15
_symmetry_cell_setting 'monoclinic'
loop_
_space_group_symop_operation_xyz
x,y,z
-x,y,1/2-z
-x,-y,-z
x,-y,1/2+z
1/2+x,1/2+y,z
1/2-x,1/2+y,1/2-z
1/2-x,1/2-y,-z
1/2+x,1/2-y,1/2+z
loop_
_atom_site_type_symbol
_atom_site_label
_atom_site_fract_x
_atom_site_fract_y
_atom_site_fract_z
Si Si1 0.702340 0.004829 0.073003
Si Si2 0.487980 0.434277 0.445853
Si Si3 0.137273 0.829175 0.573509
Si Si4 0.195944 0.474739 0.417231
Si Si5 0.928655 0.369715 0.556494
Si Si6 0.923058 0.206131 0.105440
O O1 0.500000 0.015538 0.250000
O O2 0.749094 0.909246 0.031831
O O3 0.817727 0.047131 0.039110
O O4 0.746945 0.037668 0.957310
O O5 0.500000 0.500000 0.500000
O O6 0.650379 0.449744 0.261457
O O7 0.483851 0.346529 0.487147
O O8 0.250000 0.750000 0.500000
O O9 0.000000 0.843014 0.750000
O O10 0.036710 0.815022 0.581762
O O11 0.144653 0.568548 0.443340
O O12 0.027996 0.423825 0.533123
O O13 0.768611 0.322432 0.720747
O O14 0.057587 0.302037 0.421480
#
# Coordination Sequence:
#
# PCOD9304988 Si02
#       6
#     8   8   8   8   8   8
#     4  12  25  41  66  97 131 172 221 275 330 395
#     4  12  23  44  69  95 133 176 222 270 330 400
#     4  12  24  39  60  93 136 175 216 272 332 396
#     4  11  24  44  68  97 133 176 226 273 332 398
#     4  11  24  40  67  96 136 175 224 272 336 390
#     4  12  23  42  64  98 133 178 224 273 332 395
#
# _framework density 20.165322
#
# number of rings (size 3 to 8) (size 9 to 14) (size 15 to 20)
#    0.000    0.333    3.333    7.000    2.333    1.333 
#    0.000    0.833    0.000    0.000    0.000    0.000 
#    0.000    0.000    0.000    0.000    0.000    0.000 
#
# Total GULP energy -134376.966415 kJ/mol
# GULP energy per Si atom -5599.040267 kJ/mol
# Density = 2.011942 g / cm^3
# Si number density = 20.165322 Si / 1000 Ang^3
#
#
#
# Elastic Constant Matrix: (Units=GPa)
#
#
# Indices 1 2 3 4 5 6 
#
# 1 148.2595 46.1059 45.2431 0.0018 1.6985 -0.0016
# 2 46.1059 83.3197 40.9525 0.0061 -7.9811 -0.0093
# 3 45.2431 40.9525 116.6135 0.0020 -7.6687 -0.0056
# 4 0.0018 0.0061 0.0020 37.2673 -0.0023 -6.6322
# 5 1.6985 -7.9811 -7.6687 -0.0023 31.5475 0.0033
# 6 -0.0016 -0.0093 -0.0056 -6.6322 0.0033 14.3683
#
#
#
# Elastic Compliance Matrix: (Units=1/GPa)
#
#
# Indices 1 2 3 4 5 6 
#
# 1 0.008631 -0.003934 -0.002096 0.000000 -0.001970 -0.000002
# 2 -0.003934 0.016491 -0.004041 -0.000001 0.003401 0.000008
# 3 -0.002096 -0.004041 0.010923 0.000001 0.001746 0.000001
# 4 0.000000 -0.000001 0.000001 0.029235 0.000001 0.013494
# 5 -0.001970 0.003401 0.001746 0.000001 0.033089 -0.000005
# 6 -0.000002 0.000008 0.000001 0.013494 -0.000005 0.075827
#
#
# Mechanical properties :
#
#
# Convention : Reuss Voigt Hill
#
# Bulk Modulus (GPa) = 62.89008 68.08840 65.48924
# Shear Modulus (GPa) = 25.04521 31.02937 28.03729
#
# Velocity S-wave (km/s) = 3.52802 3.92694 3.73281
# Velocity P-wave (km/s) = 6.91743 7.37561 7.15019
#
# Compressibility (1/GPa) = 0.01590076
#
# Stress axis : x y z
#
# Youngs Moduli (GPa) = 115.86573 60.63861 91.55218
#
# Poissons Ratio (x) = 0.23856 0.19193
# Poissons Ratio (y) = 0.45583 0.36999
# Poissons Ratio (z) = 0.24290 0.24506
#
# Static dielectric constant tensor:
#      x y z
#    x 1.696650 0.000000 0.003710 
#    y 0.000000 1.714640 0.000000 
#    z 0.003710 0.000000 1.730340 
# 
# From -- ./inp_files/206391.got.cif
#   From: 2010.05.17/outbox.cif.g08.bks.cpg/sg15_104_cif.got.tgz:206391.got - 2010.06.03 18:47:42.
