data_PCOD9304104
_publ_section_title
;
Structure prediction by ZEFSAII (Michael W. Deem and Ramdas Pophale) SiO2 
 PCOD9304104
Probable space group: C 2/C
;
_chemical_formula_sum "Si O2"
_cell_formula_units_Z 32
_cell_length_a 19.736359
_cell_length_b 13.607959
_cell_length_c 14.235694
_cell_angle_alpha 90.000000
_cell_angle_beta 24.657230
_cell_angle_gamma 90.000000
_cell_volume 1595.038936
_symmetry_space_group_name_H-M "C 2/C"
_symmetry_group_IT_number 15
_symmetry_cell_setting 'monoclinic'
loop_
_space_group_symop_operation_xyz
x,y,z
-x,y,1/2-z
-x,-y,-z
x,-y,1/2+z
1/2+x,1/2+y,z
1/2-x,1/2+y,1/2-z
1/2-x,1/2-y,-z
1/2+x,1/2-y,1/2+z
loop_
_atom_site_type_symbol
_atom_site_label
_atom_site_fract_x
_atom_site_fract_y
_atom_site_fract_z
Si Si1 0.114278 0.679636 0.883270
Si Si2 0.903829 0.686073 0.965703
Si Si3 0.397948 0.321769 0.285452
Si Si4 0.333861 0.971641 0.020284
O O1 0.287938 0.726937 0.643569
O O2 0.132793 0.583918 0.924130
O O3 0.025255 0.660999 0.897411
O O4 0.011628 0.759895 0.071998
O O5 0.803028 0.586772 0.072434
O O6 0.000000 0.711371 0.750000
O O7 0.500000 0.346107 0.250000
O O8 0.250000 0.250000 0.500000
O O9 0.313294 0.415350 0.344729
O O10 0.500000 0.962176 0.750000
#
# Coordination Sequence:
#
# PCOD9304104 Si02
#       4
#     8   8   8   8
#     4  12  21  43  68  89 134 171 209 262 323 378
#     4  11  26  43  63  92 131 175 217 254 317 382
#     4  12  20  38  69 100 129 157 210 272 325 364
#     4  11  23  42  67  99 126 167 214 264 321 382
#
# _framework density 20.062206
#
# number of rings (size 3 to 8) (size 9 to 14) (size 15 to 20)
#    0.000    0.500    7.500    1.500    0.000    1.000 
#    0.000    1.250    0.000    0.000    0.000    0.000 
#    0.000    0.000    0.000    0.000    0.000    0.000 
#
# Total GULP energy -89527.102549 kJ/mol
# GULP energy per Si atom -5595.443909 kJ/mol
# Density = 2.001654 g / cm^3
# Si number density = 20.062206 Si / 1000 Ang^3
#
#
#
# Elastic Constant Matrix: (Units=GPa)
#
#
# Indices 1 2 3 4 5 6 
#
# 1 113.7604 -25.9587 6.4738 0.0000 8.1244 0.0000
# 2 -25.9587 26.7312 11.3315 0.0000 10.3113 0.0000
# 3 6.4738 11.3315 74.0204 0.0000 23.9233 0.0000
# 4 0.0000 0.0000 0.0000 7.6813 0.0000 0.1486
# 5 8.1244 10.3113 23.9233 0.0000 33.5477 0.0000
# 6 0.0000 0.0000 0.0000 0.1486 0.0000 19.8540
#
#
#
# Elastic Compliance Matrix: (Units=1/GPa)
#
#
# Indices 1 2 3 4 5 6 
#
# 1 0.013005 0.015920 -0.001267 0.000000 -0.007139 0.000000
# 2 0.015920 0.062437 -0.004551 0.000000 -0.019801 0.000000
# 3 -0.001267 -0.004551 0.017889 0.000000 -0.011051 0.000000
# 4 0.000000 0.000000 0.000000 0.130205 0.000000 -0.000975
# 5 -0.007139 -0.019801 -0.011051 0.000000 0.045504 0.000000
# 6 0.000000 0.000000 0.000000 -0.000975 0.000000 0.050375
#
#
# Mechanical properties :
#
#
# Convention : Reuss Voigt Hill
#
# Bulk Modulus (GPa) = 8.80783 22.02282 15.41533
# Shear Modulus (GPa) = 14.83432 27.06094 20.94763
#
# Velocity S-wave (km/s) = 2.72217 3.67666 3.23481
# Velocity P-wave (km/s) = 3.77890 5.38747 4.65322
#
# Compressibility (1/GPa) = 0.11353530
#
# Stress axis : x y z
#
# Youngs Moduli (GPa) = 76.89221 16.01618 55.90010
#
# Poissons Ratio (x) = -0.25498 0.07084
# Poissons Ratio (y) = -1.22416 0.25440
# Poissons Ratio (z) = 0.09744 0.07289
#
# Static dielectric constant tensor:
#      x y z
#    x 1.705600 0.000000 0.009040 
#    y 0.000000 1.676810 0.000000 
#    z 0.009040 0.000000 1.693940 
# 
# From -- ./inp_files/27607.got.cif
#   From: 2010.05.17/outbox.cif.g08.bks.cpg/sg15_14_cif.got.tgz:27607.got - 2010.06.03 18:47:42.
