data_PCOD9304686
_publ_section_title
;
Structure prediction by ZEFSAII (Michael W. Deem and Ramdas Pophale) SiO2 
 PCOD9304686
Probable space group: C 2/C
;
_chemical_formula_sum "Si O2"
_cell_formula_units_Z 64
_cell_length_a 10.792415
_cell_length_b 17.923544
_cell_length_c 27.490217
_cell_angle_alpha 90.000000
_cell_angle_beta 33.510805
_cell_angle_gamma 90.000000
_cell_volume 2935.850261
_symmetry_space_group_name_H-M "C 2/C"
_symmetry_group_IT_number 15
_symmetry_cell_setting 'monoclinic'
loop_
_space_group_symop_operation_xyz
x,y,z
-x,y,1/2-z
-x,-y,-z
x,-y,1/2+z
1/2+x,1/2+y,z
1/2-x,1/2+y,1/2-z
1/2-x,1/2-y,-z
1/2+x,1/2-y,1/2+z
loop_
_atom_site_type_symbol
_atom_site_label
_atom_site_fract_x
_atom_site_fract_y
_atom_site_fract_z
Si Si1 0.882615 0.725920 0.408925
Si Si2 0.281678 0.674257 0.852282
Si Si3 0.662490 0.566094 0.304870
Si Si4 0.992648 0.551740 0.382460
Si Si5 0.647863 0.806857 0.072424
Si Si6 0.424592 0.452452 0.979103
Si Si7 0.732992 0.004351 0.894687
Si Si8 0.889732 0.781368 0.734816
O O1 0.750000 0.750000 0.500000
O O2 0.765475 0.764341 0.400460
O O3 0.902351 0.635765 0.404809
O O4 0.142948 0.753109 0.324479
O O5 0.500000 0.694664 0.750000
O O6 0.300014 0.590688 0.866783
O O7 0.074565 0.667413 0.883209
O O8 0.884581 0.530373 0.208345
O O9 0.621472 0.557135 0.375367
O O10 0.437307 0.532993 0.355482
O O11 0.658786 0.651138 0.286940
O O12 0.185166 0.539932 0.360073
O O13 0.792944 0.499555 0.466334
O O14 0.825425 0.871725 0.023425
O O15 0.564832 0.770708 0.149495
O O16 0.750000 0.750000 0.000000
O O17 0.500000 0.500000 0.000000
O O18 0.500000 0.000000 0.000000
O O19 0.000000 0.804418 0.750000
#
# Coordination Sequence:
#
# PCOD9304686 Si02
#       8
#     8   8   8   8   8   8   8   8
#     4  11  26  43  70 107 144 182 239 307 369 431
#     4  12  25  45  73 106 144 190 244 305 368 440
#     4  11  23  45  75 100 144 186 235 300 368 438
#     4  11  24  45  68 102 140 187 234 297 368 434
#     4  12  26  49  75 102 145 201 246 300 376 445
#     4  12  28  48  68 102 142 195 246 292 368 451
#     4  12  22  42  73 106 139 181 238 307 368 431
#     4  11  25  46  74 108 145 191 245 300 371 445
#
# _framework density 21.799475999999999
#
# number of rings (size 3 to 8) (size 9 to 14) (size 15 to 20)
#    0.000    0.500    5.000    3.375    3.500    0.500 
#    2.250    0.000    0.000    0.000    0.000    0.000 
#    0.000    0.000    0.000    0.000    0.000    0.000 
#
# Total GULP energy -178890.171409 kJ/mol
# GULP energy per Si atom -5590.317857 kJ/mol
# Density = 2.174986 g / cm^3
# Si number density = 21.799476 Si / 1000 Ang^3
#
#
#
# Elastic Constant Matrix: (Units=GPa)
#
#
# Indices 1 2 3 4 5 6 
#
# 1 79.7660 20.1972 21.3171 -0.0210 19.5935 0.0089
# 2 20.1972 99.8467 34.0879 -0.0154 19.9617 -0.0403
# 3 21.3171 34.0879 162.4321 -0.0985 38.4107 -0.1246
# 4 -0.0210 -0.0154 -0.0985 61.7517 0.0178 46.8963
# 5 19.5935 19.9617 38.4107 0.0178 39.0849 -0.0268
# 6 0.0089 -0.0403 -0.1246 46.8963 -0.0268 135.0011
#
#
#
# Elastic Compliance Matrix: (Units=1/GPa)
#
#
# Indices 1 2 3 4 5 6 
#
# 1 0.014538 -0.001645 -0.000050 0.000011 -0.006400 -0.000007
# 2 -0.001645 0.011553 -0.001314 0.000000 -0.003785 0.000002
# 3 -0.000050 -0.001314 0.008174 0.000014 -0.007337 0.000001
# 4 0.000011 0.000000 0.000014 0.021997 -0.000035 -0.007641
# 5 -0.006400 -0.003785 -0.007337 -0.000035 0.037937 0.000012
# 6 -0.000007 0.000002 0.000001 -0.007641 0.000012 0.010062
#
#
# Mechanical properties :
#
#
# Convention : Reuss Voigt Hill
#
# Bulk Modulus (GPa) = 35.39854 54.80546 45.10200
# Shear Modulus (GPa) = 41.77363 64.93036 53.35200
#
# Velocity S-wave (km/s) = 4.38227 5.46351 4.95249
# Velocity P-wave (km/s) = 6.47141 8.06196 7.31008
#
# Compressibility (1/GPa) = 0.02824975
#
# Stress axis : x y z
#
# Youngs Moduli (GPa) = 68.78394 86.55586 122.34545
#
# Poissons Ratio (x) = 0.14234 0.00606
# Poissons Ratio (y) = 0.11312 0.16072
# Poissons Ratio (z) = 0.00341 0.11370
#
# Static dielectric constant tensor:
#      x y z
#    x 1.825490 -0.000020 0.004400 
#    y -0.000020 1.788200 -0.000030 
#    z 0.004400 -0.000030 1.800200 
# 
# From -- ./inp_files/311639.got.cif
#   From: 2010.05.17/outbox.cif.g08.bks.cpg/sg15_156_cif.got.tgz:311639.got - 2010.06.03 18:47:42.
