data_PCOD9304434
_publ_section_title
;
Structure prediction by ZEFSAII (Michael W. Deem and Ramdas Pophale) SiO2 
 PCOD9304434
Probable space group: C 2/C
;
_chemical_formula_sum "Si O2"
_cell_formula_units_Z 44
_cell_length_a 14.825008
_cell_length_b 10.889996
_cell_length_c 13.546758
_cell_angle_alpha 90.000000
_cell_angle_beta 98.830206
_cell_angle_gamma 90.000000
_cell_volume 2161.124791
_symmetry_space_group_name_H-M "C 2/C"
_symmetry_group_IT_number 15
_symmetry_cell_setting 'monoclinic'
loop_
_space_group_symop_operation_xyz
x,y,z
-x,y,1/2-z
-x,-y,-z
x,-y,1/2+z
1/2+x,1/2+y,z
1/2-x,1/2+y,1/2-z
1/2-x,1/2-y,-z
1/2+x,1/2-y,1/2+z
loop_
_atom_site_type_symbol
_atom_site_label
_atom_site_fract_x
_atom_site_fract_y
_atom_site_fract_z
Si Si1 0.705312 0.198694 0.395192
Si Si2 0.000000 0.686831 0.750000
Si Si3 0.080322 0.487114 0.435627
Si Si4 0.401583 0.667254 0.778222
Si Si5 0.789888 0.672623 0.416671
Si Si6 0.353864 0.610093 0.276324
O O1 0.750000 0.250000 0.500000
O O2 0.673842 0.307144 0.318185
O O3 0.781978 0.120951 0.352393
O O4 0.617516 0.113972 0.398677
O O5 0.951013 0.602478 0.658824
O O6 0.925611 0.777760 0.786891
O O7 0.160846 0.436187 0.517841
O O8 0.000000 0.500000 0.500000
O O9 0.500000 0.703068 0.750000
O O10 0.363355 0.748145 0.863898
O O11 0.401839 0.521348 0.795571
O O12 0.750000 0.750000 0.500000
O O13 0.708923 0.626782 0.331799
#
# Coordination Sequence:
#
# PCOD9304434 Si02
#       6
#     8   4   8   8   8   8
#     4  11  25  44  69  98 133 177 225 274 340 402
#     4  12  26  44  66 102 134 178 226 276 342 392
#     4  12  26  43  72 100 137 174 226 282 335 409
#     4  11  24  42  68 100 131 174 223 279 335 397
#     4  11  23  44  67  97 134 181 223 270 347 405
#     4  11  24  44  68  95 140 175 225 280 334 407
#
# _framework density 20.359767000000002
#
# number of rings (size 3 to 8) (size 9 to 14) (size 15 to 20)
#    0.000    0.727    2.727    4.364    8.909    0.000 
#    0.000    2.727    0.000    0.000    0.000    0.000 
#    0.000    0.000    0.000    0.000    0.000    0.000 
#
# Total GULP energy -122916.583747 kJ/mol
# GULP energy per Si atom -5587.117443 kJ/mol
# Density = 2.031343 g / cm^3
# Si number density = 20.359767 Si / 1000 Ang^3
#
#
#
# Elastic Constant Matrix: (Units=GPa)
#
#
# Indices 1 2 3 4 5 6 
#
# 1 71.0664 -1.9401 -0.8702 0.0000 -17.5286 0.0000
# 2 -1.9401 69.8667 10.2167 0.0000 1.0589 0.0000
# 3 -0.8702 10.2167 93.9972 0.0000 0.2181 0.0000
# 4 0.0000 0.0000 0.0000 23.3238 0.0000 7.5288
# 5 -17.5286 1.0589 0.2181 0.0000 44.5493 0.0000
# 6 0.0000 0.0000 0.0000 7.5288 0.0000 47.7601
#
#
#
# Elastic Compliance Matrix: (Units=1/GPa)
#
#
# Indices 1 2 3 4 5 6 
#
# 1 0.015593 0.000326 0.000095 0.000000 0.006127 0.000000
# 2 0.000326 0.014556 -0.001579 0.000000 -0.000210 0.000000
# 3 0.000095 -0.001579 0.010811 0.000000 0.000022 0.000000
# 4 0.000000 0.000000 0.000000 0.045173 0.000000 -0.007121
# 5 0.006127 -0.000210 0.000022 0.000000 0.024863 0.000000
# 6 0.000000 0.000000 0.000000 -0.007121 0.000000 0.022061
#
#
# Mechanical properties :
#
#
# Convention : Reuss Voigt Hill
#
# Bulk Modulus (GPa) = 25.87695 27.74922 26.81309
# Shear Modulus (GPa) = 33.72611 38.29489 36.01050
#
# Velocity S-wave (km/s) = 4.07444 4.34165 4.21016
# Velocity P-wave (km/s) = 5.90527 6.22834 6.06895
#
# Compressibility (1/GPa) = 0.03864443
#
# Stress axis : x y z
#
# Youngs Moduli (GPa) = 64.13279 68.69993 92.49823
#
# Poissons Ratio (x) = -0.02242 -0.00876
# Poissons Ratio (y) = -0.02093 0.14602
# Poissons Ratio (z) = -0.00607 0.10845
#
# Static dielectric constant tensor:
#      x y z
#    x 1.706880 0.000000 -0.098000 
#    y 0.000000 1.711440 0.000000 
#    z -0.098000 0.000000 1.833210 
# 
# From -- ./inp_files/95061.got.cif
#   From: 2010.05.17/outbox.cif.g08.bks.cpg/sg15_48_cif.got.tgz:95061.got - 2010.06.03 18:47:42.
