data_PCOD9304923
_publ_section_title
;
Structure prediction by ZEFSAII (Michael W. Deem and Ramdas Pophale) SiO2 
 PCOD9304923
Probable space group: C 2/C
;
_chemical_formula_sum "Si O2"
_cell_formula_units_Z 44
_cell_length_a 7.748131
_cell_length_b 11.402475
_cell_length_c 22.338045
_cell_angle_alpha 90.000000
_cell_angle_beta 54.899400
_cell_angle_gamma 90.000000
_cell_volume 1614.621880
_symmetry_space_group_name_H-M "C 2/C"
_symmetry_group_IT_number 15
_symmetry_cell_setting 'monoclinic'
loop_
_space_group_symop_operation_xyz
x,y,z
-x,y,1/2-z
-x,-y,-z
x,-y,1/2+z
1/2+x,1/2+y,z
1/2-x,1/2+y,1/2-z
1/2-x,1/2-y,-z
1/2+x,1/2-y,1/2+z
loop_
_atom_site_type_symbol
_atom_site_label
_atom_site_fract_x
_atom_site_fract_y
_atom_site_fract_z
Si Si1 0.424780 0.401079 0.324018
Si Si2 0.000000 0.667975 0.750000
Si Si3 0.060524 0.549035 0.612739
Si Si4 0.056358 0.854946 0.831684
Si Si5 0.893271 0.368599 0.518206
Si Si6 0.241181 0.295149 0.580732
O O1 0.500000 0.337669 0.250000
O O2 0.574131 0.511882 0.305730
O O3 0.420662 0.311997 0.379188
O O4 0.186362 0.439334 0.355069
O O5 0.913764 0.589424 0.823037
O O6 0.121624 0.764986 0.766729
O O7 0.172121 0.629143 0.539591
O O8 0.142953 0.418555 0.584118
O O9 0.807133 0.852820 0.899391
O O10 0.172742 0.823219 0.869386
O O11 0.000000 0.500000 0.500000
O O12 0.067482 0.267460 0.492183
#
# Coordination Sequence:
#
# PCOD9304923 Si02
#       6
#     8   4   8   8   8   8
#     4  11  25  46  71 106 146 199 243 303 378 432
#     4  12  26  44  76 110 148 194 244 308 372 438
#     4  11  27  48  71 111 148 188 256 305 362 454
#     4  12  24  47  77 102 157 193 240 310 370 431
#     4  11  23  52  73 109 150 197 252 301 369 440
#     4  11  26  46  75 109 147 193 247 309 359 447
#
# _framework density 27.250959999999999
#
# number of rings (size 3 to 8) (size 9 to 14) (size 15 to 20)
#    0.000    0.727    8.182    0.545    3.818    2.909 
#    0.000    0.000    0.000    0.000    0.000    0.000 
#    0.000    0.000    0.000    0.000    0.000    0.000 
#
# Total GULP energy -123019.309225 kJ/mol
# GULP energy per Si atom -5591.786783 kJ/mol
# Density = 2.718894 g / cm^3
# Si number density = 27.250960 Si / 1000 Ang^3
#
#
#
# Elastic Constant Matrix: (Units=GPa)
#
#
# Indices 1 2 3 4 5 6 
#
# 1 88.9961 47.3441 28.3103 0.0000 13.6350 0.0000
# 2 47.3441 186.7599 42.3245 0.0000 6.4130 0.0000
# 3 28.3103 42.3245 165.7853 -0.0001 17.9257 0.0001
# 4 0.0000 0.0000 -0.0001 56.6830 0.0000 13.8605
# 5 13.6350 6.4130 17.9257 0.0000 44.6338 0.0000
# 6 0.0000 0.0000 0.0001 13.8605 0.0000 54.2130
#
#
#
# Elastic Compliance Matrix: (Units=1/GPa)
#
#
# Indices 1 2 3 4 5 6 
#
# 1 0.013774 -0.003106 -0.001205 0.000000 -0.003278 0.000000
# 2 -0.003106 0.006386 -0.001153 0.000000 0.000495 0.000000
# 3 -0.001205 -0.001153 0.006768 0.000000 -0.002185 0.000000
# 4 0.000000 0.000000 0.000000 0.018818 0.000000 -0.004811
# 5 -0.003278 0.000495 -0.002185 0.000000 0.024212 0.000000
# 6 0.000000 0.000000 0.000000 -0.004811 0.000000 0.019676
#
#
# Mechanical properties :
#
#
# Convention : Reuss Voigt Hill
#
# Bulk Modulus (GPa) = 62.49977 75.27769 68.88873
# Shear Modulus (GPa) = 47.21542 52.67677 49.94609
#
# Velocity S-wave (km/s) = 4.16698 4.40139 4.28579
# Velocity P-wave (km/s) = 6.79237 7.31529 7.05868
#
# Compressibility (1/GPa) = 0.01600006
#
# Stress axis : x y z
#
# Youngs Moduli (GPa) = 72.59884 156.58443 147.74755
#
# Poissons Ratio (x) = 0.48639 0.17800
# Poissons Ratio (y) = 0.22551 0.17042
# Poissons Ratio (z) = 0.08746 0.18061
#
# Static dielectric constant tensor:
#      x y z
#    x 2.193250 0.000000 0.051800 
#    y 0.000000 2.173750 0.000000 
#    z 0.051800 0.000000 2.127180 
# 
# From -- ./inp_files/263449.got.cif
#   From: 2010.05.17/outbox.cif.g08.bks.cpg/sg15_132_cif.got.tgz:263449.got - 2010.06.03 18:47:42.
