data_PCOD9304207
_publ_section_title
;
Structure prediction by ZEFSAII (Michael W. Deem and Ramdas Pophale) SiO2 
 PCOD9304207
Probable space group: C 2/C
;
_chemical_formula_sum "Si O2"
_cell_formula_units_Z 36
_cell_length_a 26.384349
_cell_length_b 5.820479
_cell_length_c 14.350526
_cell_angle_alpha 90.000000
_cell_angle_beta 144.018318
_cell_angle_gamma 90.000000
_cell_volume 1294.793298
_symmetry_space_group_name_H-M "C 2/C"
_symmetry_group_IT_number 15
_symmetry_cell_setting 'monoclinic'
loop_
_space_group_symop_operation_xyz
x,y,z
-x,y,1/2-z
-x,-y,-z
x,-y,1/2+z
1/2+x,1/2+y,z
1/2-x,1/2+y,1/2-z
1/2-x,1/2-y,-z
1/2+x,1/2-y,1/2+z
loop_
_atom_site_type_symbol
_atom_site_label
_atom_site_fract_x
_atom_site_fract_y
_atom_site_fract_z
Si Si1 0.140374 0.890466 0.265395
Si Si2 0.822242 0.394952 0.192192
Si Si3 0.346907 0.450563 0.439076
Si Si4 0.500000 0.833159 0.250000
Si Si5 0.965392 0.308370 0.552928
O O1 0.176437 0.645100 0.353962
O O2 0.151686 0.890640 0.169199
O O3 0.038932 0.878675 0.140570
O O4 0.179240 0.136925 0.353929
O O5 0.745595 0.413490 0.154149
O O6 0.912570 0.388319 0.384751
O O7 0.415105 0.305500 0.599075
O O8 0.389746 0.702608 0.505421
O O9 0.489589 0.991909 0.323762
#
# Coordination Sequence:
#
# PCOD9304207 Si02
#       5
#     8   8   8   4   8
#     4  11  23  43  75 103 132 181 240 279 329 411
#     4  11  23  42  76 102 132 177 240 281 326 407
#     4  11  24  43  70 102 136 182 232 282 340 406
#     4  12  26  42  68  98 148 174 226 286 364 394
#     4  11  25  43  71 101 138 182 231 281 345 408
#
# _framework density 27.803667000000001
#
# number of rings (size 3 to 8) (size 9 to 14) (size 15 to 20)
#    0.000    0.889    2.222    6.667    6.222    0.000 
#    0.000    2.222    0.000    0.000    0.000    0.000 
#    0.000    0.000    0.000    0.000    0.000    0.000 
#
# Total GULP energy -100919.631018 kJ/mol
# GULP energy per Si atom -5606.646168 kJ/mol
# Density = 2.774038 g / cm^3
# Si number density = 27.803667 Si / 1000 Ang^3
#
#
#
# Elastic Constant Matrix: (Units=GPa)
#
#
# Indices 1 2 3 4 5 6 
#
# 1 129.7559 26.6489 52.7925 0.0000 24.9875 0.0000
# 2 26.6489 209.8466 79.2633 0.0000 -10.2145 0.0000
# 3 52.7925 79.2633 137.4487 0.0000 25.9712 0.0000
# 4 0.0000 0.0000 0.0000 52.9481 0.0000 -23.4200
# 5 24.9875 -10.2145 25.9712 0.0000 46.1564 0.0000
# 6 0.0000 0.0000 0.0000 -23.4200 0.0000 30.0847
#
#
#
# Elastic Compliance Matrix: (Units=1/GPa)
#
#
# Indices 1 2 3 4 5 6 
#
# 1 0.009632 -0.000348 -0.002796 0.000000 -0.003718 0.000000
# 2 -0.000348 0.006735 -0.004551 0.000000 0.004240 0.000000
# 3 -0.002796 -0.004551 0.012173 0.000000 -0.006343 0.000000
# 4 0.000000 0.000000 0.000000 0.028805 0.000000 0.022424
# 5 -0.003718 0.004240 -0.006343 0.000000 0.028185 0.000000
# 6 0.000000 0.000000 0.000000 0.022424 0.000000 0.050696
#
#
# Mechanical properties :
#
#
# Convention : Reuss Voigt Hill
#
# Bulk Modulus (GPa) = 76.05593 88.27340 82.16467
# Shear Modulus (GPa) = 32.05126 47.06095 39.55610
#
# Velocity S-wave (km/s) = 3.39893 4.11861 3.77595
# Velocity P-wave (km/s) = 6.54352 7.37801 6.97326
#
# Compressibility (1/GPa) = 0.01314822
#
# Stress axis : x y z
#
# Youngs Moduli (GPa) = 103.82125 148.47505 82.15105
#
# Poissons Ratio (x) = 0.05166 0.22973
# Poissons Ratio (y) = 0.03612 0.37391
# Poissons Ratio (z) = 0.29032 0.67578
#
# Static dielectric constant tensor:
#      x y z
#    x 2.158940 0.000000 0.022360 
#    y 0.000000 2.245500 0.000000 
#    z 0.022360 0.000000 2.129390 
# 
# From -- ./inp_files/258493.got.cif
#   From: 2010.05.17/outbox.cif.g08.bks.cpg/sg15_130_cif.got.tgz:258493.got - 2010.06.03 18:47:42.
