data_PCOD9304915
_publ_section_title
;
Structure prediction by ZEFSAII (Michael W. Deem and Ramdas Pophale) SiO2 
 PCOD9304915
Probable space group: C 2/C
;
_chemical_formula_sum "Si O2"
_cell_formula_units_Z 48
_cell_length_a 28.024430
_cell_length_b 7.110722
_cell_length_c 22.547552
_cell_angle_alpha 90.000000
_cell_angle_beta 156.996346
_cell_angle_gamma 90.000000
_cell_volume 1755.873161
_symmetry_space_group_name_H-M "C 2/C"
_symmetry_group_IT_number 15
_symmetry_cell_setting 'monoclinic'
loop_
_space_group_symop_operation_xyz
x,y,z
-x,y,1/2-z
-x,-y,-z
x,-y,1/2+z
1/2+x,1/2+y,z
1/2-x,1/2+y,1/2-z
1/2-x,1/2-y,-z
1/2+x,1/2-y,1/2+z
loop_
_atom_site_type_symbol
_atom_site_label
_atom_site_fract_x
_atom_site_fract_y
_atom_site_fract_z
Si Si1 0.831067 0.083557 0.188169
Si Si2 0.767542 0.468319 0.537971
Si Si3 0.200354 0.230465 0.633904
Si Si4 0.578806 0.545402 0.921082
Si Si5 0.010571 0.439296 0.889504
Si Si6 0.082801 0.178505 0.619977
O O1 0.838342 0.891049 0.233721
O O2 0.818208 0.226303 0.228425
O O3 0.956458 0.069592 0.295424
O O4 0.731563 0.082440 0.022636
O O5 0.750000 0.250000 0.500000
O O6 0.885493 0.499885 0.713688
O O7 0.177386 0.234202 0.677160
O O8 0.162847 0.023536 0.571001
O O9 0.106808 0.392413 0.504003
O O10 0.649106 0.493022 0.942580
O O11 0.554598 0.765270 0.899126
O O12 0.992236 0.346593 0.934384
O O13 0.000000 0.000000 0.500000
#
# Coordination Sequence:
#
# PCOD9304915 Si02
#       6
#     8   8   8   8   8   8
#     4  11  26  47  74 114 149 200 252 314 386 449
#     4  12  24  48  80 111 151 204 252 313 394 447
#     4  12  27  48  78 111 154 204 256 313 393 456
#     4  11  26  48  77 111 161 192 252 330 365 465
#     4  11  26  47  79 112 148 202 261 311 389 454
#     4  11  23  49  75 106 156 199 257 317 372 450
#
# _framework density 27.336825999999999
#
# number of rings (size 3 to 8) (size 9 to 14) (size 15 to 20)
#    0.000    0.667    6.667    2.000    2.333    5.333 
#    3.000    0.000    0.000    0.000    0.000    0.000 
#    0.000    0.000    0.000    0.000    0.000    0.000 
#
# Total GULP energy -134320.648589 kJ/mol
# GULP energy per Si atom -5596.693691 kJ/mol
# Density = 2.727461 g / cm^3
# Si number density = 27.336826 Si / 1000 Ang^3
#
#
#
# Elastic Constant Matrix: (Units=GPa)
#
#
# Indices 1 2 3 4 5 6 
#
# 1 228.3799 47.4568 62.1620 0.0000 -4.3739 0.0000
# 2 47.4568 90.5932 40.7701 -0.0001 2.7695 0.0000
# 3 62.1620 40.7701 97.3038 0.0000 0.1599 0.0000
# 4 0.0000 -0.0001 0.0000 32.2026 0.0000 5.6790
# 5 -4.3739 2.7695 0.1599 0.0000 38.3902 0.0000
# 6 0.0000 0.0000 0.0000 5.6790 0.0000 46.1820
#
#
#
# Elastic Compliance Matrix: (Units=1/GPa)
#
#
# Indices 1 2 3 4 5 6 
#
# 1 0.005503 -0.001631 -0.002834 0.000000 0.000756 0.000000
# 2 -0.001631 0.014122 -0.004873 0.000000 -0.001184 0.000000
# 3 -0.002834 -0.004873 0.014129 0.000000 -0.000030 0.000000
# 4 0.000000 0.000000 0.000000 0.031742 0.000000 -0.003903
# 5 0.000756 -0.001184 -0.000030 0.000000 0.026220 0.000000
# 6 0.000000 0.000000 0.000000 -0.003903 0.000000 0.022133
#
#
# Mechanical properties :
#
#
# Convention : Reuss Voigt Hill
#
# Bulk Modulus (GPa) = 66.31717 79.67275 72.99496
# Shear Modulus (GPa) = 36.34989 41.08080 38.71535
#
# Velocity S-wave (km/s) = 3.65047 3.88076 3.76737
# Velocity P-wave (km/s) = 6.48690 7.02057 6.75900
#
# Compressibility (1/GPa) = 0.01507905
#
# Stress axis : x y z
#
# Youngs Moduli (GPa) = 181.70823 70.81155 70.77452
#
# Poissons Ratio (x) = 0.11548 0.20056
# Poissons Ratio (y) = 0.29632 0.34491
# Poissons Ratio (z) = 0.51491 0.34509
#
# Static dielectric constant tensor:
#      x y z
#    x 2.090520 0.000000 0.052650 
#    y 0.000000 2.200530 0.000000 
#    z 0.052650 0.000000 2.281170 
# 
# From -- ./inp_files/283237.got.cif
#   From: 2010.05.17/outbox.cif.g08.bks.cpg/sg15_142_cif.got.tgz:283237.got - 2010.06.03 18:47:42.
