data_PCOD9304011
_publ_section_title
;
Structure prediction by ZEFSAII (Michael W. Deem and Ramdas Pophale) SiO2 
 PCOD9304011
Probable space group: C 2/C
;
_chemical_formula_sum "Si O2"
_cell_formula_units_Z 52
_cell_length_a 14.096056
_cell_length_b 19.875858
_cell_length_c 12.146300
_cell_angle_alpha 90.000000
_cell_angle_beta 46.755359
_cell_angle_gamma 90.000000
_cell_volume 2478.896200
_symmetry_space_group_name_H-M "C 2/C"
_symmetry_group_IT_number 15
_symmetry_cell_setting 'monoclinic'
loop_
_space_group_symop_operation_xyz
x,y,z
-x,y,1/2-z
-x,-y,-z
x,-y,1/2+z
1/2+x,1/2+y,z
1/2-x,1/2+y,1/2-z
1/2-x,1/2-y,-z
1/2+x,1/2-y,1/2+z
loop_
_atom_site_type_symbol
_atom_site_label
_atom_site_fract_x
_atom_site_fract_y
_atom_site_fract_z
Si Si1 0.507772 0.270090 0.998362
Si Si2 0.838256 0.588158 0.433704
Si Si3 0.698659 0.779964 0.657300
Si Si4 0.500000 0.035280 0.750000
Si Si5 0.878956 0.100315 0.582290
Si Si6 0.423216 0.468679 0.409445
Si Si7 0.082611 0.376062 0.385061
O O1 0.412363 0.259247 0.183094
O O2 0.445104 0.332080 0.982228
O O3 0.661576 0.286067 0.893596
O O4 0.514939 0.196612 0.938351
O O5 0.859784 0.648262 0.331004
O O6 0.882836 0.516992 0.352090
O O7 0.683378 0.579574 0.561063
O O8 0.906653 0.600155 0.496374
O O9 0.750000 0.750000 0.500000
O O10 0.489220 0.077804 0.647096
O O11 0.870538 0.030899 0.521936
O O12 0.734434 0.122663 0.730462
O O13 0.979324 0.077809 0.598278
O O14 0.500000 0.502915 0.250000
#
# Coordination Sequence:
#
# PCOD9304011 Si02
#       7
#     8   8   8   4   8   8   8
#     4  12  24  43  69 103 142 184 225 279 348 412
#     4  12  23  42  71 101 134 172 224 288 349 404
#     4  12  24  39  69 109 143 170 221 288 351 407
#     4  12  28  48  64  94 138 184 234 276 342 418
#     4  11  23  44  67 100 139 178 226 279 345 415
#     4  11  23  41  70 102 136 175 223 286 344 407
#     4  12  25  46  69  98 137 182 229 289 342 409
#
# _framework density 20.977077000000001
#
# number of rings (size 3 to 8) (size 9 to 14) (size 15 to 20)
#    0.000    0.308    7.692    1.846    0.000    0.000 
#    4.154    0.769    0.000    0.000    0.000    0.000 
#    0.000    0.000    0.000    0.000    0.000    0.000 
#
# Total GULP energy -144933.834620 kJ/mol
# GULP energy per Si atom -5574.378255 kJ/mol
# Density = 2.092933 g / cm^3
# Si number density = 20.977077 Si / 1000 Ang^3
#
#
#
# Elastic Constant Matrix: (Units=GPa)
#
#
# Indices 1 2 3 4 5 6 
#
# 1 64.3079 37.2968 15.1145 -0.0001 -8.8626 0.0001
# 2 37.2968 133.2691 21.5960 0.0000 -2.1358 0.0000
# 3 15.1145 21.5960 78.4371 -0.0001 -22.3632 0.0001
# 4 -0.0001 0.0000 -0.0001 29.4591 0.0001 -17.2639
# 5 -8.8626 -2.1358 -22.3632 0.0001 23.0404 -0.0001
# 6 0.0001 0.0000 0.0001 -17.2639 -0.0001 10.6785
#
#
#
# Elastic Compliance Matrix: (Units=1/GPa)
#
#
# Indices 1 2 3 4 5 6 
#
# 1 0.019656 -0.005326 -0.000424 0.000000 0.006656 0.000000
# 2 -0.005326 0.009357 -0.002609 0.000000 -0.003713 0.000000
# 3 -0.000424 -0.002609 0.018573 -0.000001 0.017623 -0.000002
# 4 0.000000 0.000000 -0.000001 0.645637 0.000000 1.043794
# 5 0.006656 -0.003713 0.017623 0.000000 0.062723 0.000001
# 6 0.000000 0.000000 -0.000002 1.043794 0.000001 1.781137
#
#
# Mechanical properties :
#
#
# Convention : Reuss Voigt Hill
#
# Bulk Modulus (GPa) = 32.39356 47.11429 39.75392
# Shear Modulus (GPa) = 1.95001 26.10272 14.02637
#
# Velocity S-wave (km/s) = 0.96520 3.53135 2.58864
# Velocity P-wave (km/s) = 4.08877 6.25587 5.28460
#
# Compressibility (1/GPa) = 0.03087033
#
# Stress axis : x y z
#
# Youngs Moduli (GPa) = 50.87583 106.86882 53.84050
#
# Poissons Ratio (x) = 0.56913 0.02281
# Poissons Ratio (y) = 0.27094 0.14046
# Poissons Ratio (z) = 0.02156 0.27880
#
# Static dielectric constant tensor:
#      x y z
#    x 1.790660 0.000000 -0.030200 
#    y 0.000000 1.765620 0.000000 
#    z -0.030200 0.000000 1.815230 
# 
# From -- ./inp_files/155444.got.cif
#   From: 2010.05.17/outbox.cif.g08.bks.cpg/sg15_78_cif.got.tgz:155444.got - 2010.06.03 18:47:42.
