data_PCOD9304820
_publ_section_title
;
Structure prediction by ZEFSAII (Michael W. Deem and Ramdas Pophale) SiO2 
 PCOD9304820
Probable space group: C 2/C
;
_chemical_formula_sum "Si O2"
_cell_formula_units_Z 44
_cell_length_a 26.039344
_cell_length_b 7.777021
_cell_length_c 9.629155
_cell_angle_alpha 90.000000
_cell_angle_beta 123.161366
_cell_angle_gamma 90.000000
_cell_volume 1632.398274
_symmetry_space_group_name_H-M "C 2/C"
_symmetry_group_IT_number 15
_symmetry_cell_setting 'monoclinic'
loop_
_space_group_symop_operation_xyz
x,y,z
-x,y,1/2-z
-x,-y,-z
x,-y,1/2+z
1/2+x,1/2+y,z
1/2-x,1/2+y,1/2-z
1/2-x,1/2-y,-z
1/2+x,1/2-y,1/2+z
loop_
_atom_site_type_symbol
_atom_site_label
_atom_site_fract_x
_atom_site_fract_y
_atom_site_fract_z
Si Si1 0.126424 0.481839 0.790549
Si Si2 0.068332 0.229355 0.378293
Si Si3 0.589929 0.202704 0.505106
Si Si4 0.657724 0.459743 0.195904
Si Si5 0.238304 0.934526 0.054597
Si Si6 0.500000 0.410280 0.250000
O O1 0.115580 0.656523 0.864267
O O2 0.090764 0.530976 0.597229
O O3 0.103846 0.342613 0.866524
O O4 0.197173 0.466302 0.854756
O O5 0.000000 0.311590 0.250000
O O6 0.101361 0.165878 0.569227
O O7 0.946371 0.042276 0.212677
O O8 0.636907 0.344802 0.629680
O O9 0.524400 0.293958 0.409281
O O10 0.687502 0.464620 0.390457
O O11 0.712638 0.414168 0.170784
O O12 0.250000 0.750000 0.000000
#
# Coordination Sequence:
#
# PCOD9304820 Si02
#       6
#     8   8   8   8   8   4
#     4  12  25  44  69 105 139 179 227 289 347 400
#     4   9  21  44  71  99 135 180 230 283 340 403
#     4  11  25  44  65 102 139 178 229 279 346 407
#     4  11  23  47  69 102 136 184 228 279 341 412
#     4  12  24  43  72 101 141 177 231 285 338 411
#     4   8  22  44  66  96 130 184 228 280 332 416
#
# _framework density 26.954205999999999
#
# number of rings (size 3 to 8) (size 9 to 14) (size 15 to 20)
#    0.545    0.727    3.636    1.091    1.273    3.636 
#    6.545    0.000    0.000    0.000    0.000    0.000 
#    0.000    0.000    0.000    0.000    0.000    0.000 
#
# Total GULP energy -123122.506718 kJ/mol
# GULP energy per Si atom -5596.477578 kJ/mol
# Density = 2.689286 g / cm^3
# Si number density = 26.954206 Si / 1000 Ang^3
#
#
#
# Elastic Constant Matrix: (Units=GPa)
#
#
# Indices 1 2 3 4 5 6 
#
# 1 83.8873 9.9671 20.3803 0.0000 12.8003 0.0000
# 2 9.9671 101.8705 -3.8706 0.0000 -3.8360 0.0000
# 3 20.3803 -3.8706 95.2757 0.0000 7.1628 0.0000
# 4 0.0000 0.0000 0.0000 20.1344 0.0000 -9.7449
# 5 12.8003 -3.8360 7.1628 0.0000 50.5606 0.0000
# 6 0.0000 0.0000 0.0000 -9.7449 0.0000 30.0880
#
#
#
# Elastic Compliance Matrix: (Units=1/GPa)
#
#
# Indices 1 2 3 4 5 6 
#
# 1 0.013216 -0.001510 -0.002657 0.000000 -0.003084 0.000000
# 2 -0.001510 0.010028 0.000651 0.000000 0.001051 0.000000
# 3 -0.002657 0.000651 0.011155 0.000000 -0.000858 0.000000
# 4 0.000000 0.000000 0.000000 0.058899 0.000000 0.019076
# 5 -0.003084 0.001051 -0.000858 0.000000 0.020760 0.000000
# 6 0.000000 0.000000 0.000000 0.019076 0.000000 0.039414
#
#
# Mechanical properties :
#
#
# Convention : Reuss Voigt Hill
#
# Bulk Modulus (GPa) = 36.53736 37.10968 36.82352
# Shear Modulus (GPa) = 29.47640 37.12704 33.30172
#
# Velocity S-wave (km/s) = 3.31051 3.71538 3.51877
# Velocity P-wave (km/s) = 5.31012 5.67476 5.49547
#
# Compressibility (1/GPa) = 0.02736925
#
# Stress axis : x y z
#
# Youngs Moduli (GPa) = 75.66466 99.71619 89.64505
#
# Poissons Ratio (x) = 0.15059 0.23815
# Poissons Ratio (y) = 0.11427 -0.05840
# Poissons Ratio (z) = 0.20101 -0.06496
#
# Static dielectric constant tensor:
#      x y z
#    x 2.068040 0.000000 0.009820 
#    y 0.000000 2.132990 0.000000 
#    z 0.009820 0.000000 2.126200 
# 
# From -- ./inp_files/68644.got.cif
#   From: 2010.05.17/outbox.cif.g08.bks.cpg/sg15_35_cif.got.tgz:68644.got - 2010.06.03 18:47:42.
