data_PCOD9304465
_publ_section_title
;
Structure prediction by ZEFSAII (Michael W. Deem and Ramdas Pophale) SiO2 
 PCOD9304465
Probable space group: C 2/C
;
_chemical_formula_sum "Si O2"
_cell_formula_units_Z 52
_cell_length_a 23.519725
_cell_length_b 5.424713
_cell_length_c 19.153253
_cell_angle_alpha 90.000000
_cell_angle_beta 125.207823
_cell_angle_gamma 90.000000
_cell_volume 1996.681478
_symmetry_space_group_name_H-M "C 2/C"
_symmetry_group_IT_number 15
_symmetry_cell_setting 'monoclinic'
loop_
_space_group_symop_operation_xyz
x,y,z
-x,y,1/2-z
-x,-y,-z
x,-y,1/2+z
1/2+x,1/2+y,z
1/2-x,1/2+y,1/2-z
1/2-x,1/2-y,-z
1/2+x,1/2-y,1/2+z
loop_
_atom_site_type_symbol
_atom_site_label
_atom_site_fract_x
_atom_site_fract_y
_atom_site_fract_z
Si Si1 0.261687 0.472611 0.215045
Si Si2 0.000000 0.486557 0.750000
Si Si3 0.323792 0.211548 0.586214
Si Si4 0.616909 0.235414 0.741281
Si Si5 0.869201 0.459036 0.477520
Si Si6 0.003710 0.223925 0.058620
Si Si7 0.422436 0.592079 0.602493
O O1 0.250953 0.209527 0.243942
O O2 0.341725 0.510843 0.246414
O O3 0.200759 0.497280 0.114409
O O4 0.941505 0.652678 0.743967
O O5 0.967499 0.301794 0.670631
O O6 0.250000 0.250000 0.500000
O O7 0.321679 0.116275 0.664679
O O8 0.358749 0.052989 0.549670
O O9 0.365889 0.470566 0.612837
O O10 0.579400 0.177583 0.640139
O O11 0.882899 0.174001 0.503727
O O12 0.941815 0.577830 0.501505
O O13 0.978162 0.096925 0.112344
O O14 0.000000 0.000000 0.000000
#
# Coordination Sequence:
#
# PCOD9304465 Si02
#       7
#     8   4   8   8   8   8   8
#     4  12  31  52  76 110 160 209 263 315 394 482
#     4  12  22  46  74 118 144 192 254 326 400 460
#     4  11  23  44  69 106 145 188 248 317 397 457
#     4  12  24  48  75 111 155 194 256 329 391 469
#     4  11  24  46  71 106 145 194 251 320 383 466
#     4  11  25  44  71 105 148 201 258 312 385 469
#     4  11  24  41  75 102 150 191 249 320 390 469
#
# _framework density 26.043212
#
# number of rings (size 3 to 8) (size 9 to 14) (size 15 to 20)
#    0.000    0.615    4.615    2.769    6.462    4.923 
#    0.000    0.000    0.000    0.000    0.000    0.000 
#    0.000    0.000    0.000    0.000    0.000    0.000 
#
# Total GULP energy -144856.262809 kJ/mol
# GULP energy per Si atom -5571.394723 kJ/mol
# Density = 2.598394 g / cm^3
# Si number density = 26.043212 Si / 1000 Ang^3
#
#
#
# Elastic Constant Matrix: (Units=GPa)
#
#
# Indices 1 2 3 4 5 6 
#
# 1 80.2581 16.2835 8.4809 0.0000 4.5827 -0.0010
# 2 16.2835 61.7394 38.2386 0.0025 1.6003 0.0015
# 3 8.4809 38.2386 229.6607 -0.0002 7.3199 -0.0003
# 4 0.0000 0.0025 -0.0002 50.6515 0.0000 -12.3500
# 5 4.5827 1.6003 7.3199 0.0000 42.5989 0.0002
# 6 -0.0010 0.0015 -0.0003 -12.3500 0.0002 28.5140
#
#
#
# Elastic Compliance Matrix: (Units=1/GPa)
#
#
# Indices 1 2 3 4 5 6 
#
# 1 0.013239 -0.003547 0.000144 0.000000 -0.001316 0.000001
# 2 -0.003547 0.019011 -0.003040 -0.000001 0.000190 -0.000002
# 3 0.000144 -0.003040 0.004879 0.000000 -0.000740 0.000000
# 4 0.000000 -0.000001 0.000000 0.022074 0.000000 0.009561
# 5 -0.001316 0.000190 -0.000740 0.000000 0.023736 0.000000
# 6 0.000001 -0.000002 0.000000 0.009561 0.000000 0.039211
#
#
# Mechanical properties :
#
#
# Convention : Reuss Voigt Hill
#
# Bulk Modulus (GPa) = 41.25095 55.29603 48.27349
# Shear Modulus (GPa) = 34.93628 44.92989 39.93309
#
# Velocity S-wave (km/s) = 3.66659 4.15807 3.92004
# Velocity P-wave (km/s) = 5.81369 6.65817 6.25021
#
# Compressibility (1/GPa) = 0.02424186
#
# Stress axis : x y z
#
# Youngs Moduli (GPa) = 75.53260 52.60208 204.97086
#
# Poissons Ratio (x) = 0.18656 -0.02942
# Poissons Ratio (y) = 0.26788 0.62319
# Poissons Ratio (z) = -0.01084 0.15993
#
# Static dielectric constant tensor:
#      x y z
#    x 2.287100 0.000000 0.048220 
#    y 0.000000 2.231660 -0.000010 
#    z 0.048220 -0.000010 2.027910 
# 
# From -- ./inp_files/256806.got.cif
#   From: 2010.05.17/outbox.cif.g08.bks.cpg/sg15_129_cif.got.tgz:256806.got - 2010.06.03 18:47:42.
