data_PCOD9304866
_publ_section_title
;
Structure prediction by ZEFSAII (Michael W. Deem and Ramdas Pophale) SiO2 
 PCOD9304866
Probable space group: C 2/C
;
_chemical_formula_sum "Si O2"
_cell_formula_units_Z 40
_cell_length_a 8.408141
_cell_length_b 22.103244
_cell_length_c 17.483376
_cell_angle_alpha 90.000000
_cell_angle_beta 145.767784
_cell_angle_gamma 90.000000
_cell_volume 1827.852495
_symmetry_space_group_name_H-M "C 2/C"
_symmetry_group_IT_number 15
_symmetry_cell_setting 'monoclinic'
loop_
_space_group_symop_operation_xyz
x,y,z
-x,y,1/2-z
-x,-y,-z
x,-y,1/2+z
1/2+x,1/2+y,z
1/2-x,1/2+y,1/2-z
1/2-x,1/2-y,-z
1/2+x,1/2-y,1/2+z
loop_
_atom_site_type_symbol
_atom_site_label
_atom_site_fract_x
_atom_site_fract_y
_atom_site_fract_z
Si Si1 0.294274 0.820235 0.913706
Si Si2 0.000000 0.369183 0.750000
Si Si3 0.384298 0.537362 0.777404
Si Si4 0.408545 0.312196 0.493933
Si Si5 0.467399 0.934472 0.576358
Si Si6 0.500000 0.902117 0.250000
O O1 0.402318 0.751552 0.946895
O O2 0.479696 0.876168 0.957067
O O3 0.000000 0.825585 0.750000
O O4 0.252447 0.818899 0.988762
O O5 0.026775 0.409790 0.835454
O O6 0.725060 0.328215 0.641758
O O7 0.500000 0.574829 0.750000
O O8 0.137399 0.561704 0.734286
O O9 0.231124 0.479978 0.677288
O O10 0.670394 0.532241 0.941125
O O11 0.257589 0.360878 0.380798
#
# Coordination Sequence:
#
# PCOD9304866 Si02
#       6
#     8   4   8   8   8   4
#     4  11  23  47  77 104 147 192 244 306 372 438
#     4  12  25  44  74 108 146 189 240 304 376 432
#     4  12  28  47  73 108 147 198 249 301 363 437
#     4  11  25  46  74 109 144 193 240 307 376 439
#     4  12  27  48  73 106 149 195 245 306 360 438
#     4  12  25  48  76 112 150 189 250 302 372 442
#
# _framework density 21.883603000000001
#
# number of rings (size 3 to 8) (size 9 to 14) (size 15 to 20)
#    0.000    0.400    5.000    3.000    2.800    2.400 
#    9.000    0.000    0.000    0.000    0.000    0.000 
#    0.000    0.000    0.000    0.000    0.000    0.000 
#
# Total GULP energy -111659.764198 kJ/mol
# GULP energy per Si atom -5582.988210 kJ/mol
# Density = 2.183380 g / cm^3
# Si number density = 21.883603 Si / 1000 Ang^3
#
#
#
# Elastic Constant Matrix: (Units=GPa)
#
#
# Indices 1 2 3 4 5 6 
#
# 1 102.9248 49.5254 13.0344 0.0045 6.6023 0.0010
# 2 49.5254 98.0415 36.1852 -0.0002 1.9936 -0.0001
# 3 13.0344 36.1852 96.0868 0.0913 12.5944 0.0146
# 4 0.0045 -0.0002 0.0913 -390.0241 0.0115 -74.5494
# 5 6.6023 1.9936 12.5944 0.0115 34.9150 0.0018
# 6 0.0010 -0.0001 0.0146 -74.5494 0.0018 8.7249
#
#
#
# Elastic Compliance Matrix: (Units=1/GPa)
#
#
# Indices 1 2 3 4 5 6 
#
# 1 0.013096 -0.007003 0.001189 0.000000 -0.002505 0.000000
# 2 -0.007003 0.015623 -0.005238 -0.000001 0.002322 -0.000001
# 3 0.001189 -0.005238 0.012815 0.000003 -0.004548 0.000001
# 4 0.000000 -0.000001 0.000003 -0.000974 0.000000 -0.008320
# 5 -0.002505 0.002322 -0.004548 0.000000 0.030623 0.000000
# 6 0.000000 -0.000001 0.000001 -0.008320 0.000000 0.043527
#
#
# Mechanical properties :
#
#
# Convention : Reuss Voigt Hill
#
# Bulk Modulus (GPa) = 51.46674 54.94925 53.20800
# Shear Modulus (GPa) = 34.89420 -56.05629 -10.58104
#
# Velocity S-wave (km/s) = 3.99750 -5.06668 -2.20128
# Velocity P-wave (km/s) = 6.69896 3.01066 4.23155
#
# Compressibility (1/GPa) = 0.01943002
#
# Stress axis : x y z
#
# Youngs Moduli (GPa) = 76.36043 64.00635 78.03597
#
# Poissons Ratio (x) = 0.44826 -0.09281
# Poissons Ratio (y) = 0.53477 0.40874
# Poissons Ratio (z) = -0.09081 0.33526
#
# Static dielectric constant tensor:
#      x y z
#    x 1.832240 0.000000 0.069520 
#    y 0.000000 1.858590 0.000000 
#    z 0.069520 0.000000 1.718960 
# 
# From -- ./inp_files/193431.got.cif
#   From: 2010.05.17/outbox.cif.g08.bks.cpg/sg15_97_cif.got.tgz:193431.got - 2010.06.03 18:47:42.
