data_PCOD9304657
_publ_section_title
;
Structure prediction by ZEFSAII (Michael W. Deem and Ramdas Pophale) SiO2 
 PCOD9304657
Probable space group: C 2/C
;
_chemical_formula_sum "Si O2"
_cell_formula_units_Z 48
_cell_length_a 24.515463
_cell_length_b 12.875512
_cell_length_c 14.112729
_cell_angle_alpha 90.000000
_cell_angle_beta 154.673421
_cell_angle_gamma 90.000000
_cell_volume 1905.606637
_symmetry_space_group_name_H-M "C 2/C"
_symmetry_group_IT_number 15
_symmetry_cell_setting 'monoclinic'
loop_
_space_group_symop_operation_xyz
x,y,z
-x,y,1/2-z
-x,-y,-z
x,-y,1/2+z
1/2+x,1/2+y,z
1/2-x,1/2+y,1/2-z
1/2-x,1/2-y,-z
1/2+x,1/2-y,1/2+z
loop_
_atom_site_type_symbol
_atom_site_label
_atom_site_fract_x
_atom_site_fract_y
_atom_site_fract_z
Si Si1 0.049192 0.308137 0.530333
Si Si2 0.209915 0.613291 0.799576
Si Si3 0.646136 0.068041 0.480849
Si Si4 0.528071 0.606963 0.988229
Si Si5 0.312464 0.836290 0.939067
Si Si6 0.783990 0.900602 0.007367
O O1 0.002865 0.194979 0.484272
O O2 0.079557 0.316682 0.468596
O O3 0.183746 0.337662 0.788092
O O4 0.935816 0.379910 0.391982
O O5 0.201012 0.591447 0.672098
O O6 0.279605 0.723263 0.930616
O O7 0.275661 0.518188 0.955734
O O8 0.500000 0.104630 0.250000
O O9 0.646817 0.945841 0.452284
O O10 0.730266 0.114497 0.529599
O O11 0.431806 0.624609 0.750467
O O12 0.500000 0.500000 0.000000
O O13 0.672128 0.626680 0.181467
#
# Coordination Sequence:
#
# PCOD9304657 Si02
#       6
#     8   8   8   8   8   8
#     4  11  23  45  72  99 137 184 236 284 344 417
#     4  11  25  46  68 104 140 178 235 291 340 415
#     4  12  23  44  73 101 136 184 232 286 346 418
#     4  11  25  45  68 102 144 180 225 294 350 407
#     4  11  25  45  68 100 143 183 230 282 354 416
#     4  12  23  44  73  99 139 182 231 286 345 409
#
# _framework density 25.188828999999998
#
# number of rings (size 3 to 8) (size 9 to 14) (size 15 to 20)
#    0.000    0.667    5.000    3.000    0.000    1.333 
#    3.000    0.000    0.000    0.000    0.000    0.000 
#    0.000    0.000    0.000    0.000    0.000    0.000 
#
# Total GULP energy -134334.509321 kJ/mol
# GULP energy per Si atom -5597.271222 kJ/mol
# Density = 2.513150 g / cm^3
# Si number density = 25.188829 Si / 1000 Ang^3
#
#
#
# Elastic Constant Matrix: (Units=GPa)
#
#
# Indices 1 2 3 4 5 6 
#
# 1 102.5436 1.2414 4.0631 0.0000 -9.7879 0.0000
# 2 1.2414 103.6648 -12.0491 0.0000 8.0692 0.0000
# 3 4.0631 -12.0491 65.5080 0.0000 4.0156 0.0000
# 4 0.0000 0.0000 0.0000 19.9866 0.0000 8.3577
# 5 -9.7879 8.0692 4.0156 0.0000 23.9962 0.0000
# 6 0.0000 0.0000 0.0000 8.3577 0.0000 27.0972
#
#
#
# Elastic Compliance Matrix: (Units=1/GPa)
#
#
# Indices 1 2 3 4 5 6 
#
# 1 0.010234 -0.000595 -0.001023 0.000000 0.004546 0.000000
# 2 -0.000595 0.010220 0.002164 0.000000 -0.004042 0.000000
# 3 -0.001023 0.002164 0.015961 0.000000 -0.003816 0.000000
# 4 0.000000 0.000000 0.000000 0.057442 0.000000 -0.017717
# 5 0.004546 -0.004042 -0.003816 0.000000 0.045525 0.000000
# 6 0.000000 0.000000 0.000000 -0.017717 0.000000 0.042369
#
#
# Mechanical properties :
#
#
# Convention : Reuss Voigt Hill
#
# Bulk Modulus (GPa) = 26.66189 28.69192 27.67690
# Shear Modulus (GPa) = 25.88531 32.78006 29.33269
#
# Velocity S-wave (km/s) = 3.20918 3.61137 3.41620
# Velocity P-wave (km/s) = 4.93351 5.36701 5.15482
#
# Compressibility (1/GPa) = 0.03750672
#
# Stress axis : x y z
#
# Youngs Moduli (GPa) = 97.71775 97.84959 62.65358
#
# Poissons Ratio (x) = 0.05825 0.06409
# Poissons Ratio (y) = 0.05817 -0.13561
# Poissons Ratio (z) = 0.09995 -0.21179
#
# Static dielectric constant tensor:
#      x y z
#    x 1.952140 0.000000 -0.026220 
#    y 0.000000 1.990440 0.000000 
#    z -0.026220 0.000000 2.021460 
# 
# From -- ./inp_files/144081.got.cif
#   From: 2010.05.17/outbox.cif.g08.bks.cpg/sg15_73_cif.got.tgz:144081.got - 2010.06.03 18:47:42.
