data_PCOD9304149
_publ_section_title
;
Structure prediction by ZEFSAII (Michael W. Deem and Ramdas Pophale) SiO2 
 PCOD9304149
Probable space group: C 2/C
;
_chemical_formula_sum "Si O2"
_cell_formula_units_Z 56
_cell_length_a 10.482934
_cell_length_b 15.518461
_cell_length_c 16.130741
_cell_angle_alpha 90.000000
_cell_angle_beta 93.886244
_cell_angle_gamma 90.000000
_cell_volume 2618.098870
_symmetry_space_group_name_H-M "C 2/C"
_symmetry_group_IT_number 15
_symmetry_cell_setting 'monoclinic'
loop_
_space_group_symop_operation_xyz
x,y,z
-x,y,1/2-z
-x,-y,-z
x,-y,1/2+z
1/2+x,1/2+y,z
1/2-x,1/2+y,1/2-z
1/2-x,1/2-y,-z
1/2+x,1/2-y,1/2+z
loop_
_atom_site_type_symbol
_atom_site_label
_atom_site_fract_x
_atom_site_fract_y
_atom_site_fract_z
Si Si1 0.864589 0.490437 0.037744
Si Si2 0.349740 0.377743 0.733878
Si Si3 0.237550 0.050598 0.693826
Si Si4 0.764938 0.342539 0.458788
Si Si5 0.368104 0.198643 0.796297
Si Si6 0.003763 0.083698 0.559345
Si Si7 0.694223 0.664083 0.457902
O O1 0.801693 0.584254 0.025780
O O2 0.781527 0.417723 0.986936
O O3 0.851759 0.464386 0.132773
O O4 0.000000 0.500000 0.000000
O O5 0.500000 0.397891 0.750000
O O6 0.276590 0.465484 0.751081
O O7 0.321958 0.297765 0.793406
O O8 0.323172 0.341070 0.640988
O O9 0.270992 0.135937 0.745021
O O10 0.106765 0.064505 0.635629
O O11 0.750000 0.250000 0.500000
O O12 0.869623 0.334311 0.390489
O O13 0.631745 0.380874 0.416251
O O14 0.500000 0.197290 0.750000
O O15 0.059984 0.153755 0.498647
O O16 0.000000 0.000000 0.500000
O O17 0.750000 0.750000 0.500000
#
# Coordination Sequence:
#
# PCOD9304149 Si02
#       7
#     8   8   8   8   8   8   8
#     4  11  24  43  66  96 133 181 223 273 344 416
#     4  11  24  40  70  97 132 175 228 284 347 399
#     4  11  23  42  70 100 135 172 228 287 344 395
#     4  12  26  43  69 100 136 179 230 280 336 412
#     4  11  26  44  65  98 138 178 224 277 348 409
#     4  11  23  43  69  99 131 174 233 282 338 406
#     4  11  24  43  69  97 134 182 229 278 345 417
#
# _framework density 21.389568000000001
#
# number of rings (size 3 to 8) (size 9 to 14) (size 15 to 20)
#    0.000    0.857    2.857    5.143    8.000    0.000 
#    0.000    0.000    3.143    0.000    0.000    0.000 
#    0.000    0.000    0.000    0.000    0.000    0.000 
#
# Total GULP energy -156507.967469 kJ/mol
# GULP energy per Si atom -5589.570267 kJ/mol
# Density = 2.134088 g / cm^3
# Si number density = 21.389568 Si / 1000 Ang^3
#
#
#
# Elastic Constant Matrix: (Units=GPa)
#
#
# Indices 1 2 3 4 5 6 
#
# 1 72.3547 28.6721 9.8885 0.0000 -16.2045 0.0000
# 2 28.6721 116.2798 0.5379 0.0000 2.9071 0.0000
# 3 9.8885 0.5379 66.8602 0.0000 -7.1592 0.0000
# 4 0.0000 0.0000 0.0000 35.3966 0.0000 -0.9641
# 5 -16.2045 2.9071 -7.1592 0.0000 31.9007 0.0000
# 6 0.0000 0.0000 0.0000 -0.9641 0.0000 37.5714
#
#
#
# Elastic Compliance Matrix: (Units=1/GPa)
#
#
# Indices 1 2 3 4 5 6 
#
# 1 0.017938 -0.004645 -0.001634 0.000000 0.009169 0.000000
# 2 -0.004645 0.009824 0.000266 0.000000 -0.003195 0.000000
# 3 -0.001634 0.000266 0.015477 0.000000 0.002619 0.000000
# 4 0.000000 0.000000 0.000000 0.028271 0.000000 0.000725
# 5 0.009169 -0.003195 0.002619 0.000000 0.036884 0.000000
# 6 0.000000 0.000000 0.000000 0.000725 0.000000 0.026635
#
#
# Mechanical properties :
#
#
# Convention : Reuss Voigt Hill
#
# Bulk Modulus (GPa) = 32.03823 37.07688 34.55756
# Shear Modulus (GPa) = 31.75454 35.40016 33.57735
#
# Velocity S-wave (km/s) = 3.85721 4.07261 3.96637
# Velocity P-wave (km/s) = 5.90325 6.28383 6.09651
#
# Compressibility (1/GPa) = 0.03121271
#
# Stress axis : x y z
#
# Youngs Moduli (GPa) = 55.74722 101.79254 64.61399
#
# Poissons Ratio (x) = 0.47281 0.10557
# Poissons Ratio (y) = 0.25894 -0.01718
# Poissons Ratio (z) = 0.09109 -0.02706
#
# Static dielectric constant tensor:
#      x y z
#    x 1.784870 0.000000 -0.013720 
#    y 0.000000 1.731940 0.000000 
#    z -0.013720 0.000000 1.766600 
# 
# From -- ./inp_files/144259.got.cif
#   From: 2010.05.17/outbox.cif.g08.bks.cpg/sg15_73_cif.got.tgz:144259.got - 2010.06.03 18:47:42.
