data_PCOD9304547
_publ_section_title
;
Structure prediction by ZEFSAII (Michael W. Deem and Ramdas Pophale) SiO2 
 PCOD9304547
Probable space group: C 2/C
;
_chemical_formula_sum "Si O2"
_cell_formula_units_Z 40
_cell_length_a 9.055885
_cell_length_b 21.006464
_cell_length_c 18.457344
_cell_angle_alpha 90.000000
_cell_angle_beta 31.677206
_cell_angle_gamma 90.000000
_cell_volume 1843.836800
_symmetry_space_group_name_H-M "C 2/C"
_symmetry_group_IT_number 15
_symmetry_cell_setting 'monoclinic'
loop_
_space_group_symop_operation_xyz
x,y,z
-x,y,1/2-z
-x,-y,-z
x,-y,1/2+z
1/2+x,1/2+y,z
1/2-x,1/2+y,1/2-z
1/2-x,1/2-y,-z
1/2+x,1/2-y,1/2+z
loop_
_atom_site_type_symbol
_atom_site_label
_atom_site_fract_x
_atom_site_fract_y
_atom_site_fract_z
Si Si1 0.187242 0.492370 0.849872
Si Si2 0.920116 0.379279 0.868034
Si Si3 0.330274 0.802288 0.607817
Si Si4 0.194240 0.839206 0.359977
Si Si5 0.206476 0.365511 0.332158
O O1 0.500000 0.478833 0.750000
O O2 0.170680 0.562048 0.820655
O O3 0.068416 0.439529 0.845050
O O4 0.000000 0.500000 0.000000
O O5 0.000000 0.372851 0.750000
O O6 0.019351 0.321773 0.879575
O O7 0.580698 0.381862 0.015976
O O8 0.361478 0.727532 0.576787
O O9 0.468903 0.843365 0.486170
O O10 0.000000 0.815892 0.750000
O O11 0.500000 0.867288 0.250000
O O12 0.245248 0.820121 0.255418
O O13 0.500000 0.366379 0.250000
#
# Coordination Sequence:
#
# PCOD9304547 Si02
#       5
#     8   8   8   8   8
#     4  11  23  45  71  98 134 184 233 271 334 416
#     4  12  26  43  68 105 138 175 226 291 340 392
#     4  11  25  43  71 101 134 183 229 278 341 412
#     4  11  27  44  66 103 141 180 224 284 348 400
#     4  11  23  44  73  95 135 186 229 273 338 414
#
# _framework density 21.693892000000002
#
# number of rings (size 3 to 8) (size 9 to 14) (size 15 to 20)
#    0.000    0.800    4.000    2.400    5.600    2.400 
#    0.000    3.000    0.000    0.000    0.000    0.000 
#    0.000    0.000    0.000    0.000    0.000    0.000 
#
# Total GULP energy -111709.476081 kJ/mol
# GULP energy per Si atom -5585.473804 kJ/mol
# Density = 2.164452 g / cm^3
# Si number density = 21.693892 Si / 1000 Ang^3
#
#
#
# Elastic Constant Matrix: (Units=GPa)
#
#
# Indices 1 2 3 4 5 6 
#
# 1 91.0288 27.9928 59.5534 0.0099 -10.6261 -0.0104
# 2 27.9928 58.5963 27.8628 0.0021 -21.3120 -0.0003
# 3 59.5534 27.8628 164.8172 0.0171 -19.8891 -0.0021
# 4 0.0099 0.0021 0.0171 32.2267 0.0042 9.5072
# 5 -10.6261 -21.3120 -19.8891 0.0042 47.0618 0.0001
# 6 -0.0104 -0.0003 -0.0021 9.5072 0.0001 -0.3367
#
#
#
# Elastic Compliance Matrix: (Units=1/GPa)
#
#
# Indices 1 2 3 4 5 6 
#
# 1 0.015777 -0.005592 -0.004880 0.000014 -0.001032 -0.000054
# 2 -0.005592 0.023408 -0.000853 -0.000005 0.008977 0.000016
# 3 -0.004880 -0.000853 0.008214 -0.000004 0.001983 0.000002
# 4 0.000014 -0.000005 -0.000004 0.003326 -0.000001 0.093910
# 5 -0.001032 0.008977 0.001983 -0.000001 0.025919 -0.000012
# 6 -0.000054 0.000016 0.000002 0.093910 -0.000012 -0.318327
#
#
# Mechanical properties :
#
#
# Convention : Reuss Voigt Hill
#
# Bulk Modulus (GPa) = 40.40612 60.58447 50.49529
# Shear Modulus (GPa) = -23.72126 29.05924 2.66899
#
# Velocity S-wave (km/s) = -3.31033 3.66391 1.11039
# Velocity P-wave (km/s) = 2.01370 6.77396 4.99708
#
# Compressibility (1/GPa) = 0.02474873
#
# Stress axis : x y z
#
# Youngs Moduli (GPa) = 63.38203 42.71993 121.74042
#
# Poissons Ratio (x) = 0.23890 0.59410
# Poissons Ratio (y) = 0.35445 0.10388
# Poissons Ratio (z) = 0.30931 0.03645
#
# Static dielectric constant tensor:
#      x y z
#    x 1.738680 0.000000 -0.028530 
#    y 0.000000 1.878560 0.000000 
#    z -0.028530 0.000000 1.767020 
# 
# From -- ./inp_files/193405.got.cif
#   From: 2010.05.17/outbox.cif.g08.bks.cpg/sg15_97_cif.got.tgz:193405.got - 2010.06.03 18:47:42.
