data_PCOD9304861
_publ_section_title
;
Structure prediction by ZEFSAII (Michael W. Deem and Ramdas Pophale) SiO2 
 PCOD9304861
Probable space group: C 2/C
;
_chemical_formula_sum "Si O2"
_cell_formula_units_Z 48
_cell_length_a 11.642604
_cell_length_b 7.195771
_cell_length_c 25.636726
_cell_angle_alpha 90.000000
_cell_angle_beta 113.303601
_cell_angle_gamma 90.000000
_cell_volume 1972.568406
_symmetry_space_group_name_H-M "C 2/C"
_symmetry_group_IT_number 15
_symmetry_cell_setting 'monoclinic'
loop_
_space_group_symop_operation_xyz
x,y,z
-x,y,1/2-z
-x,-y,-z
x,-y,1/2+z
1/2+x,1/2+y,z
1/2-x,1/2+y,1/2-z
1/2-x,1/2-y,-z
1/2+x,1/2-y,1/2+z
loop_
_atom_site_type_symbol
_atom_site_label
_atom_site_fract_x
_atom_site_fract_y
_atom_site_fract_z
Si Si1 0.125396 0.089279 0.099968
Si Si2 0.619147 0.559350 0.393343
Si Si3 0.714109 0.608091 0.805585
Si Si4 0.632290 0.013437 0.900306
Si Si5 0.069891 0.598705 0.215368
Si Si6 0.872775 0.612327 0.986258
O O1 0.195664 0.240036 0.149689
O O2 0.237424 0.952758 0.105507
O O3 0.102411 0.199377 0.041543
O O4 0.008951 0.983594 0.104233
O O5 0.641377 0.509135 0.336823
O O6 0.748841 0.490739 0.442028
O O7 0.589878 0.775975 0.401239
O O8 0.808140 0.489939 0.787741
O O9 0.619458 0.714716 0.750905
O O10 0.536506 0.900635 0.847390
O O11 0.647285 0.895082 0.955410
O O12 0.000000 0.489761 0.250000
O O13 0.000000 0.500000 0.000000
#
# Coordination Sequence:
#
# PCOD9304861 Si02
#       6
#     8   8   8   8   8   8
#     4  11  24  47  71 111 146 191 242 293 376 435
#     4  11  25  48  74 107 149 196 239 300 373 443
#     4  11  27  47  73 103 144 190 250 308 361 440
#     4  12  24  47  75 109 152 190 245 304 367 437
#     4  12  27  50  72 106 143 194 249 306 364 436
#     4  11  23  47  75 109 154 190 242 302 360 450
#
# _framework density 24.333756000000001
#
# number of rings (size 3 to 8) (size 9 to 14) (size 15 to 20)
#    0.000    0.667    5.000    2.000    2.333    3.333 
#    6.000    0.000    0.000    0.000    0.000    0.000 
#    0.000    0.000    0.000    0.000    0.000    0.000 
#
# Total GULP energy -134249.189071 kJ/mol
# GULP energy per Si atom -5593.716211 kJ/mol
# Density = 2.427837 g / cm^3
# Si number density = 24.333756 Si / 1000 Ang^3
#
#
#
# Elastic Constant Matrix: (Units=GPa)
#
#
# Indices 1 2 3 4 5 6 
#
# 1 231.7760 14.8178 57.9877 0.0000 -14.2193 0.0000
# 2 14.8178 42.3233 32.9916 0.0000 -4.3586 0.0000
# 3 57.9877 32.9916 165.3962 0.0000 -9.4974 0.0000
# 4 0.0000 0.0000 0.0000 24.7197 0.0000 -5.1667
# 5 -14.2193 -4.3586 -9.4974 0.0000 43.6314 0.0000
# 6 0.0000 0.0000 0.0000 -5.1667 0.0000 37.4735
#
#
#
# Elastic Compliance Matrix: (Units=1/GPa)
#
#
# Indices 1 2 3 4 5 6 
#
# 1 0.004796 -0.000354 -0.001542 0.000000 0.001192 0.000000
# 2 -0.000354 0.028115 -0.005397 0.000000 0.001518 0.000000
# 3 -0.001542 -0.005397 0.007700 0.000000 0.000634 0.000000
# 4 0.000000 0.000000 0.000000 0.041654 0.000000 0.005743
# 5 0.001192 0.001518 0.000634 0.000000 0.023597 0.000000
# 6 0.000000 0.000000 0.000000 0.005743 0.000000 0.027477
#
#
# Mechanical properties :
#
#
# Convention : Reuss Voigt Hill
#
# Bulk Modulus (GPa) = 38.42571 72.34330 55.38451
# Shear Modulus (GPa) = 31.92833 43.41149 37.66991
#
# Velocity S-wave (km/s) = 3.62622 4.22833 3.93880
# Velocity P-wave (km/s) = 5.77564 7.32342 6.59509
#
# Compressibility (1/GPa) = 0.02602424
#
# Stress axis : x y z
#
# Youngs Moduli (GPa) = 208.49934 35.56842 129.87383
#
# Poissons Ratio (x) = 0.01259 0.20033
# Poissons Ratio (y) = 0.07382 0.70090
# Poissons Ratio (z) = 0.32160 0.19195
#
# Static dielectric constant tensor:
#      x y z
#    x 1.963840 0.000000 -0.028090 
#    y 0.000000 1.944980 0.000000 
#    z -0.028090 0.000000 1.957540 
# 
# From -- ./inp_files/268068.got.cif
#   From: 2010.05.17/outbox.cif.g08.bks.cpg/sg15_135_cif.got.tgz:268068.got - 2010.06.03 18:47:42.
