data_PCOD9304695
_publ_section_title
;
Structure prediction by ZEFSAII (Michael W. Deem and Ramdas Pophale) SiO2 
 PCOD9304695
Probable space group: C 2/C
;
_chemical_formula_sum "Si O2"
_cell_formula_units_Z 40
_cell_length_a 17.281433
_cell_length_b 12.917729
_cell_length_c 24.714302
_cell_angle_alpha 90.000000
_cell_angle_beta 163.272724
_cell_angle_gamma 90.000000
_cell_volume 1587.924701
_symmetry_space_group_name_H-M "C 2/C"
_symmetry_group_IT_number 15
_symmetry_cell_setting 'monoclinic'
loop_
_space_group_symop_operation_xyz
x,y,z
-x,y,1/2-z
-x,-y,-z
x,-y,1/2+z
1/2+x,1/2+y,z
1/2-x,1/2+y,1/2-z
1/2-x,1/2-y,-z
1/2+x,1/2-y,1/2+z
loop_
_atom_site_type_symbol
_atom_site_label
_atom_site_fract_x
_atom_site_fract_y
_atom_site_fract_z
Si Si1 0.862366 0.216840 0.371636
Si Si2 0.275623 0.825628 0.066576
Si Si3 0.804972 0.798562 0.959075
Si Si4 0.752739 0.012435 0.509454
Si Si5 0.157892 0.559125 0.060851
O O1 0.876891 0.179444 0.443824
O O2 0.020281 0.150287 0.432786
O O3 0.017838 0.327581 0.467229
O O4 0.552229 0.231122 0.146971
O O5 0.500000 0.767198 0.250000
O O6 0.250000 0.750000 0.000000
O O7 0.408122 0.929854 0.133423
O O8 0.500000 0.752176 0.750000
O O9 0.786997 0.889739 0.992617
O O10 0.625177 0.006519 0.483441
O O11 0.035518 0.954993 0.713221
O O12 0.000000 0.500000 0.000000
#
# Coordination Sequence:
#
# PCOD9304695 Si02
#       5
#     8   8   8   8   8
#     4  12  26  48  76 108 145 203 244 297 381 449
#     4  12  24  44  75 110 151 185 245 312 371 441
#     4  12  28  50  72 109 153 196 250 308 368 444
#     4  11  25  45  74 113 145 189 245 314 366 433
#     4  11  23  45  76 102 144 192 245 293 368 452
#
# _framework density 25.190111999999999
#
# number of rings (size 3 to 8) (size 9 to 14) (size 15 to 20)
#    0.000    0.400    4.000    4.800    0.000    5.600 
#    0.000    0.000    0.000    0.000    0.000    0.000 
#    0.000    0.000    0.000    0.000    0.000    0.000 
#
# Total GULP energy -111638.192175 kJ/mol
# GULP energy per Si atom -5581.909609 kJ/mol
# Density = 2.513278 g / cm^3
# Si number density = 25.190112 Si / 1000 Ang^3
#
#
#
# Elastic Constant Matrix: (Units=GPa)
#
#
# Indices 1 2 3 4 5 6 
#
# 1 270.1703 51.9502 50.7390 0.0692 -23.4293 0.0038
# 2 51.9502 69.7733 26.5645 0.1587 -0.3703 0.0055
# 3 50.7390 26.5645 131.5202 0.2417 -16.9383 -0.0130
# 4 0.0692 0.1587 0.2417 13.6560 -0.0581 -4.3047
# 5 -23.4293 -0.3703 -16.9383 -0.0581 58.2576 -0.0062
# 6 0.0038 0.0055 -0.0130 -4.3047 -0.0062 45.1126
#
#
#
# Elastic Compliance Matrix: (Units=1/GPa)
#
#
# Indices 1 2 3 4 5 6 
#
# 1 0.004603 -0.003054 -0.000959 0.000037 0.001553 0.000003
# 2 -0.003054 0.017593 -0.002617 -0.000156 -0.001877 -0.000018
# 3 -0.000959 -0.002617 0.008779 -0.000113 0.002150 -0.000008
# 4 0.000037 -0.000156 -0.000113 0.075503 0.000057 0.007205
# 5 0.001553 -0.001877 0.002150 0.000057 0.018403 0.000009
# 6 0.000003 -0.000018 -0.000008 0.007205 0.000009 0.022854
#
#
# Mechanical properties :
#
#
# Convention : Reuss Voigt Hill
#
# Bulk Modulus (GPa) = 56.44821 81.10792 68.77806
# Shear Modulus (GPa) = 29.95798 46.21925 38.08862
#
# Velocity S-wave (km/s) = 3.45233 4.28812 3.89272
# Velocity P-wave (km/s) = 6.19265 7.53562 6.89690
#
# Compressibility (1/GPa) = 0.01771535
#
# Stress axis : x y z
#
# Youngs Moduli (GPa) = 217.22807 56.84155 113.90790
#
# Poissons Ratio (x) = 0.17361 0.10925
# Poissons Ratio (y) = 0.66346 0.29805
# Poissons Ratio (z) = 0.20835 0.14873
#
# Static dielectric constant tensor:
#      x y z
#    x -9.578770 0.018300 -3.035530 
#    y 0.018300 2.155140 0.004790 
#    z -3.035530 0.004790 1.194550 
# 
# From -- ./inp_files/245230.got.cif
#   From: 2010.05.17/outbox.cif.g08.bks.cpg/sg15_123_cif.got.tgz:245230.got - 2010.06.03 18:47:42.
