data_PCOD9304014
_publ_section_title
;
Structure prediction by ZEFSAII (Michael W. Deem and Ramdas Pophale) SiO2 
 PCOD9304014
Probable space group: C 2/C
;
_chemical_formula_sum "Si O2"
_cell_formula_units_Z 44
_cell_length_a 5.065563
_cell_length_b 16.476079
_cell_length_c 24.277769
_cell_angle_alpha 90.000000
_cell_angle_beta 95.988450
_cell_angle_gamma 90.000000
_cell_volume 2015.180273
_symmetry_space_group_name_H-M "C 2/C"
_symmetry_group_IT_number 15
_symmetry_cell_setting 'monoclinic'
loop_
_space_group_symop_operation_xyz
x,y,z
-x,y,1/2-z
-x,-y,-z
x,-y,1/2+z
1/2+x,1/2+y,z
1/2-x,1/2+y,1/2-z
1/2-x,1/2-y,-z
1/2+x,1/2-y,1/2+z
loop_
_atom_site_type_symbol
_atom_site_label
_atom_site_fract_x
_atom_site_fract_y
_atom_site_fract_z
Si Si1 0.000000 0.177978 0.250000
Si Si2 0.587903 0.789585 0.161656
Si Si3 0.323753 0.039588 0.661656
Si Si4 0.000000 0.572019 0.250000
Si Si5 0.654318 0.815036 0.043871
Si Si6 0.500000 0.625001 0.750000
Si Si7 0.639546 0.565037 0.543871
O O1 0.915229 0.230366 0.195235
O O2 0.242635 0.124999 0.235269
O O3 0.449849 0.874999 0.149701
O O4 0.634997 0.763536 0.100439
O O5 0.822148 0.815601 0.208481
O O6 0.215441 0.013538 0.600439
O O7 0.136336 0.065603 0.708482
O O8 0.530006 0.980369 0.695235
O O9 0.389799 0.874999 0.029609
O O10 0.903284 0.875001 0.056582
O O11 0.750000 0.750000 0.000000
O O12 0.500000 0.500000 0.500000
#
# Coordination Sequence:
#
# PCOD9304014 Si02
#       7
#     4   8   8   4   8   4   8
#     4  12  26  40  63 107 146 168 214 288 364 390
#     4  11  23  41  70  96 131 186 232 274 330 430
#     4  11  23  41  70  96 131 186 232 274 330 430
#     4  12  26  40  63 107 146 168 214 288 364 390
#     4  11  25  46  71 101 134 184 236 285 343 405
#     4  12  16  40  72  96 128 162 254 258 326 402
#     4  11  25  46  71 101 134 184 236 285 343 405
#
# _framework density 21.834275000000002
#
# number of rings (size 3 to 8) (size 9 to 14) (size 15 to 20)
#    0.000    0.727    5.455    2.182    0.000    1.455 
#    0.000    7.273    0.000    0.000    0.000    0.000 
#    0.000    0.000    0.000    0.000    0.000    0.000 
#
# Total GULP energy -122526.717686 kJ/mol
# GULP energy per Si atom -5569.396258 kJ/mol
# Density = 2.178458 g / cm^3
# Si number density = 21.834275 Si / 1000 Ang^3
#
#
#
# Elastic Constant Matrix: (Units=GPa)
#
#
# Indices 1 2 3 4 5 6 
#
# 1 75.8812 -5.0673 15.9154 0.0000 0.0609 0.0000
# 2 -5.0673 47.4888 34.9844 0.0000 -0.8971 0.0000
# 3 15.9154 34.9844 197.2433 0.0000 -2.7769 0.0000
# 4 0.0000 0.0000 0.0000 11.7655 0.0000 0.1600
# 5 0.0609 -0.8971 -2.7769 0.0000 28.6518 0.0000
# 6 0.0000 0.0000 0.0000 0.1600 0.0000 18.9062
#
#
#
# Elastic Compliance Matrix: (Units=1/GPa)
#
#
# Indices 1 2 3 4 5 6 
#
# 1 0.013682 0.002614 -0.001569 0.000000 -0.000099 0.000000
# 2 0.002614 0.024725 -0.004592 0.000000 0.000324 0.000000
# 3 -0.001569 -0.004592 0.006017 0.000000 0.000443 0.000000
# 4 0.000000 0.000000 0.000000 0.085004 0.000000 -0.000720
# 5 -0.000099 0.000324 0.000443 0.000000 0.034955 0.000000
# 6 0.000000 0.000000 0.000000 -0.000720 0.000000 0.052899
#
#
# Mechanical properties :
#
#
# Convention : Reuss Voigt Hill
#
# Bulk Modulus (GPa) = 26.78741 45.80872 36.29807
# Shear Modulus (GPa) = 21.11307 30.18342 25.64825
#
# Velocity S-wave (km/s) = 3.11299 3.72208 3.43108
# Velocity P-wave (km/s) = 5.02156 6.28471 5.68831
#
# Compressibility (1/GPa) = 0.03733096
#
# Stress axis : x y z
#
# Youngs Moduli (GPa) = 73.08755 40.44428 166.19152
#
# Poissons Ratio (x) = -0.10572 0.26076
# Poissons Ratio (y) = -0.19105 0.76312
# Poissons Ratio (z) = 0.11468 0.18571
#
# Static dielectric constant tensor:
#      x y z
#    x 1.485950 0.000000 -0.009250 
#    y 0.000000 1.812330 0.000000 
#    z -0.009250 0.000000 1.899900 
# 
# From -- ./inp_files/260383.got.cif
#   From: 2010.05.17/outbox.cif.g08.bks.cpg/sg15_131_cif.got.tgz:260383.got - 2010.06.03 18:47:42.
