data_PCOD9304469
_publ_section_title
;
Structure prediction by ZEFSAII (Michael W. Deem and Ramdas Pophale) SiO2 
 PCOD9304469
Probable space group: C 2/C
;
_chemical_formula_sum "Si O2"
_cell_formula_units_Z 40
_cell_length_a 27.131266
_cell_length_b 4.684638
_cell_length_c 13.683026
_cell_angle_alpha 90.000000
_cell_angle_beta 75.483656
_cell_angle_gamma 90.000000
_cell_volume 1683.595599
_symmetry_space_group_name_H-M "C 2/C"
_symmetry_group_IT_number 15
_symmetry_cell_setting 'monoclinic'
loop_
_space_group_symop_operation_xyz
x,y,z
-x,y,1/2-z
-x,-y,-z
x,-y,1/2+z
1/2+x,1/2+y,z
1/2-x,1/2+y,1/2-z
1/2-x,1/2-y,-z
1/2+x,1/2-y,1/2+z
loop_
_atom_site_type_symbol
_atom_site_label
_atom_site_fract_x
_atom_site_fract_y
_atom_site_fract_z
Si Si1 0.394700 0.413407 0.889580
Si Si2 0.558400 0.930431 0.740260
Si Si3 0.768878 0.538339 0.680126
Si Si4 0.709241 0.570672 0.959241
Si Si5 0.960788 0.251753 0.535821
O O1 0.427333 0.687392 0.843961
O O2 0.418952 0.270285 0.973110
O O3 0.402850 0.188534 0.798021
O O4 0.337868 0.496176 0.946791
O O5 0.500000 0.028213 0.750000
O O6 0.561696 0.792839 0.845387
O O7 0.771371 0.783244 0.765968
O O8 0.808376 0.302977 0.616558
O O9 0.766946 0.780428 0.596613
O O10 0.750000 0.750000 0.000000
O O11 0.000000 0.500000 0.500000
O O12 0.000000 0.000000 0.500000
#
# Coordination Sequence:
#
# PCOD9304469 Si02
#       5
#     8   8   8   8   8
#     4  12  25  44  66  99 138 174 224 274 333 401
#     4  12  23  42  69  96 134 175 222 273 335 400
#     4   9  20  42  67  91 125 172 221 277 333 390
#     4  11  23  44  69  95 137 178 222 281 340 392
#     4  12  23  41  68  94 133 179 215 274 339 391
#
# _framework density 23.758675
#
# number of rings (size 3 to 8) (size 9 to 14) (size 15 to 20)
#    0.000    0.800    4.000    3.600    0.000    0.000 
#   21.600    0.000    0.000    0.000    0.000    0.000 
#    0.000    0.000    0.000    0.000    0.000    0.000 
#
# Total GULP energy -111352.724609 kJ/mol
# GULP energy per Si atom -5567.636230 kJ/mol
# Density = 2.370460 g / cm^3
# Si number density = 23.758675 Si / 1000 Ang^3
#
#
#
# Elastic Constant Matrix: (Units=GPa)
#
#
# Indices 1 2 3 4 5 6 
#
# 1 50.4145 0.9870 32.9147 0.0000 -12.5884 0.0000
# 2 0.9870 174.5441 41.3346 0.0000 -2.4202 0.0000
# 3 32.9147 41.3346 142.5270 0.0000 -7.1661 0.0000
# 4 0.0000 0.0000 0.0000 59.9152 0.0000 4.5815
# 5 -12.5884 -2.4202 -7.1661 0.0000 23.6964 0.0000
# 6 0.0000 0.0000 0.0000 4.5815 0.0000 10.6472
#
#
#
# Elastic Compliance Matrix: (Units=1/GPa)
#
#
# Indices 1 2 3 4 5 6 
#
# 1 0.026865 0.001441 -0.005988 0.000000 0.012608 0.000000
# 2 0.001441 0.006229 -0.002101 0.000000 0.000766 0.000000
# 3 -0.005988 -0.002101 0.008974 0.000000 -0.000682 0.000000
# 4 0.000000 0.000000 0.000000 0.017258 0.000000 -0.007426
# 5 0.012608 0.000766 -0.000682 0.000000 0.048770 0.000000
# 6 0.000000 0.000000 0.000000 -0.007426 0.000000 0.097117
#
#
# Mechanical properties :
#
#
# Convention : Reuss Voigt Hill
#
# Bulk Modulus (GPa) = 34.75543 57.55093 46.15318
# Shear Modulus (GPa) = 21.92020 38.33504 30.12762
#
# Velocity S-wave (km/s) = 3.04076 4.02122 3.56486
# Velocity P-wave (km/s) = 5.19505 6.77023 6.03426
#
# Compressibility (1/GPa) = 0.02877248
#
# Stress axis : x y z
#
# Youngs Moduli (GPa) = 37.22302 160.53465 111.43216
#
# Poissons Ratio (x) = -0.23133 0.66727
# Poissons Ratio (y) = -0.05364 0.23409
# Poissons Ratio (z) = 0.22290 0.33725
#
# Static dielectric constant tensor:
#      x y z
#    x 1.907920 0.000000 0.096880 
#    y 0.000000 1.873880 0.000000 
#    z 0.096880 0.000000 2.051400 
# 
# From -- ./inp_files/179591.got.cif
#   From: 2010.05.17/outbox.cif.g08.bks.cpg/sg15_90_cif.got.tgz:179591.got - 2010.06.03 18:47:42.
