data_PCOD9304509
_publ_section_title
;
Structure prediction by ZEFSAII (Michael W. Deem and Ramdas Pophale) SiO2 
 PCOD9304509
Probable space group: C 2/C
;
_chemical_formula_sum "Si O2"
_cell_formula_units_Z 48
_cell_length_a 14.097212
_cell_length_b 21.649872
_cell_length_c 11.591582
_cell_angle_alpha 90.000000
_cell_angle_beta 142.983808
_cell_angle_gamma 90.000000
_cell_volume 2129.889758
_symmetry_space_group_name_H-M "C 2/C"
_symmetry_group_IT_number 15
_symmetry_cell_setting 'monoclinic'
loop_
_space_group_symop_operation_xyz
x,y,z
-x,y,1/2-z
-x,-y,-z
x,-y,1/2+z
1/2+x,1/2+y,z
1/2-x,1/2+y,1/2-z
1/2-x,1/2-y,-z
1/2+x,1/2-y,1/2+z
loop_
_atom_site_type_symbol
_atom_site_label
_atom_site_fract_x
_atom_site_fract_y
_atom_site_fract_z
Si Si1 0.588707 0.178573 0.218931
Si Si2 0.322178 0.311458 0.622298
Si Si3 0.113167 0.883917 0.181402
Si Si4 0.222893 0.075030 0.034122
Si Si5 0.166974 0.065054 0.478308
Si Si6 0.305216 0.761424 0.335440
O O1 0.500000 0.189880 0.250000
O O2 0.637331 0.107850 0.261140
O O3 0.748863 0.217729 0.383290
O O4 0.469614 0.202969 0.005876
O O5 0.500000 0.314778 0.750000
O O6 0.250000 0.250000 0.500000
O O7 0.252613 0.376417 0.509325
O O8 0.314781 0.291987 0.747603
O O9 0.216041 0.900667 0.394939
O O10 0.168952 0.814254 0.200907
O O11 0.140254 0.918992 0.086911
O O12 0.939199 0.903451 0.058784
O O13 0.243694 0.001922 0.048639
O O14 0.000000 0.056263 0.250000
#
# Coordination Sequence:
#
# PCOD9304509 Si02
#       6
#     8   8   8   8   8   8
#     4  12  26  42  68 104 144 186 237 296 363 425
#     4  11  24  44  69 102 135 184 239 296 358 424
#     4  11  23  44  71 103 144 183 242 297 358 432
#     4  11  25  43  72 105 142 191 241 301 359 434
#     4  11  24  43  74 106 140 187 248 292 361 438
#     4  12  25  44  70 104 145 187 237 304 364 426
#
# _framework density 22.536377000000002
#
# number of rings (size 3 to 8) (size 9 to 14) (size 15 to 20)
#    0.000    0.667    5.000    3.000    9.333    0.000 
#    0.000    1.667    0.000    0.000    0.000    0.000 
#    0.000    0.000    0.000    0.000    0.000    0.000 
#
# Total GULP energy -133830.176819 kJ/mol
# GULP energy per Si atom -5576.257367 kJ/mol
# Density = 2.248508 g / cm^3
# Si number density = 22.536377 Si / 1000 Ang^3
#
#
#
# Elastic Constant Matrix: (Units=GPa)
#
#
# Indices 1 2 3 4 5 6 
#
# 1 99.1017 68.9098 27.9424 0.0000 -25.5115 0.0000
# 2 68.9098 202.6366 56.7896 0.0000 -2.5618 0.0000
# 3 27.9424 56.7896 56.9973 0.0000 -8.1939 0.0000
# 4 0.0000 0.0000 0.0000 38.4144 0.0000 -1.2791
# 5 -25.5115 -2.5618 -8.1939 0.0000 32.6013 0.0000
# 6 0.0000 0.0000 0.0000 -1.2791 0.0000 20.1631
#
#
#
# Elastic Compliance Matrix: (Units=1/GPa)
#
#
# Indices 1 2 3 4 5 6 
#
# 1 0.017605 -0.005450 -0.001330 0.000000 0.013014 0.000000
# 2 -0.005450 0.008581 -0.006634 0.000000 -0.005258 0.000000
# 3 -0.001330 -0.006634 0.025503 0.000000 0.004848 0.000000
# 4 0.000000 0.000000 0.000000 0.026087 0.000000 0.001655
# 5 0.013014 -0.005258 0.004848 0.000000 0.041663 0.000000
# 6 0.000000 0.000000 0.000000 0.001655 0.000000 0.049700
#
#
# Mechanical properties :
#
#
# Convention : Reuss Voigt Hill
#
# Bulk Modulus (GPa) = 40.22152 74.00211 57.11182
# Shear Modulus (GPa) = 24.47931 31.90869 28.19400
#
# Velocity S-wave (km/s) = 3.29935 3.76689 3.54085
# Velocity P-wave (km/s) = 5.69214 7.19912 6.48952
#
# Compressibility (1/GPa) = 0.02486231
#
# Stress axis : x y z
#
# Youngs Moduli (GPa) = 56.80122 116.53855 39.21069
#
# Poissons Ratio (x) = 0.63509 0.05215
# Poissons Ratio (y) = 0.30955 0.26011
# Poissons Ratio (z) = 0.07555 0.77309
#
# Static dielectric constant tensor:
#      x y z
#    x 1.952130 0.000000 -0.093240 
#    y 0.000000 1.910490 0.000000 
#    z -0.093240 0.000000 2.061310 
# 
# From -- ./inp_files/100046.got.cif
#   From: 2010.05.17/outbox.cif.g08.bks.cpg/sg15_51_cif.got.tgz:100046.got - 2010.06.03 18:47:42.
