data_PCOD9304689
_publ_section_title
;
Structure prediction by ZEFSAII (Michael W. Deem and Ramdas Pophale) SiO2 
 PCOD9304689
Probable space group: C 2/C
;
_chemical_formula_sum "Si O2"
_cell_formula_units_Z 32
_cell_length_a 15.428184
_cell_length_b 12.002471
_cell_length_c 18.687887
_cell_angle_alpha 90.000000
_cell_angle_beta 25.134458
_cell_angle_gamma 90.000000
_cell_volume 1469.849559
_symmetry_space_group_name_H-M "C 2/C"
_symmetry_group_IT_number 15
_symmetry_cell_setting 'monoclinic'
loop_
_space_group_symop_operation_xyz
x,y,z
-x,y,1/2-z
-x,-y,-z
x,-y,1/2+z
1/2+x,1/2+y,z
1/2-x,1/2+y,1/2-z
1/2-x,1/2-y,-z
1/2+x,1/2-y,1/2+z
loop_
_atom_site_type_symbol
_atom_site_label
_atom_site_fract_x
_atom_site_fract_y
_atom_site_fract_z
Si Si1 0.551625 0.373867 0.937820
Si Si2 0.483041 0.234725 0.115219
Si Si3 0.371002 0.635702 0.417909
Si Si4 0.700503 0.101417 0.052237
O O1 0.504653 0.361194 0.889871
O O2 0.779164 0.332785 0.786513
O O3 0.500000 0.500000 0.000000
O O4 0.430400 0.286415 0.077682
O O5 0.655694 0.143051 0.004876
O O6 0.591362 0.338396 0.076327
O O7 0.500000 0.616981 0.250000
O O8 0.250000 0.750000 0.500000
O O9 0.224814 0.529729 0.536841
O O10 0.500000 0.134156 0.250000
#
# Coordination Sequence:
#
# PCOD9304689 Si02
#       4
#     8   8   8   8
#     4  12  25  48  71 111 150 188 248 306 360 437
#     4  11  24  42  77 103 145 185 238 301 362 430
#     4  12  27  47  70 103 149 196 240 296 375 439
#     4  11  23  45  75 109 145 186 243 303 369 432
#
# _framework density 21.770935000000001
#
# number of rings (size 3 to 8) (size 9 to 14) (size 15 to 20)
#    0.000    0.500    5.000    2.250    3.500    2.000 
#    0.000    3.750    0.000    0.000    0.000    0.000 
#    0.000    0.000    0.000    0.000    0.000    0.000 
#
# Total GULP energy -89186.616341 kJ/mol
# GULP energy per Si atom -5574.163521 kJ/mol
# Density = 2.172138 g / cm^3
# Si number density = 21.770935 Si / 1000 Ang^3
#
#
#
# Elastic Constant Matrix: (Units=GPa)
#
#
# Indices 1 2 3 4 5 6 
#
# 1 140.1889 76.6866 40.1706 -0.0008 14.8819 -0.0007
# 2 76.6866 148.4290 55.2070 -0.0010 -23.0450 0.0002
# 3 40.1706 55.2070 101.9937 -0.0013 -2.0733 0.0006
# 4 -0.0008 -0.0010 -0.0013 38.7030 0.0006 -5.3184
# 5 14.8819 -23.0450 -2.0733 0.0006 18.2549 0.0002
# 6 -0.0007 0.0002 0.0006 -5.3184 0.0002 41.0821
#
#
#
# Elastic Compliance Matrix: (Units=1/GPa)
#
#
# Indices 1 2 3 4 5 6 
#
# 1 0.019352 -0.015505 0.000052 0.000001 -0.035344 0.000001
# 2 -0.015505 0.023274 -0.005650 -0.000001 0.041380 -0.000001
# 3 0.000052 -0.005650 0.012726 0.000000 -0.005730 0.000000
# 4 0.000001 -0.000001 0.000000 0.026306 -0.000002 0.003405
# 5 -0.035344 0.041380 -0.005730 -0.000002 0.135180 -0.000002
# 6 0.000001 -0.000001 0.000000 0.003405 -0.000002 0.024782
#
#
# Mechanical properties :
#
#
# Convention : Reuss Voigt Hill
#
# Bulk Modulus (GPa) = 76.06765 81.63778 78.85271
# Shear Modulus (GPa) = 17.34864 34.17783 25.76323
#
# Velocity S-wave (km/s) = 2.82595 3.96647 3.44376
# Velocity P-wave (km/s) = 6.75750 7.65226 7.21876
#
# Compressibility (1/GPa) = 0.01314619
#
# Stress axis : x y z
#
# Youngs Moduli (GPa) = 51.67442 42.96631 78.58203
#
# Poissons Ratio (x) = 0.66620 -0.00411
# Poissons Ratio (y) = 0.80122 0.44397
# Poissons Ratio (z) = -0.00270 0.24275
#
# Static dielectric constant tensor:
#      x y z
#    x 1.840900 0.000000 0.057200 
#    y 0.000000 1.774150 0.000000 
#    z 0.057200 0.000000 2.211850 
# 
# From -- ./inp_files/36762.got.cif
#   From: 2010.05.17/outbox.cif.g08.bks.cpg/sg15_19_cif.got.tgz:36762.got - 2010.06.03 18:47:42.
