data_PCOD9304237
_publ_section_title
;
Structure prediction by ZEFSAII (Michael W. Deem and Ramdas Pophale) SiO2 
 PCOD9304237
Probable space group: C 2/C
;
_chemical_formula_sum "Si O2"
_cell_formula_units_Z 48
_cell_length_a 21.171697
_cell_length_b 6.887319
_cell_length_c 23.018272
_cell_angle_alpha 90.000000
_cell_angle_beta 131.876743
_cell_angle_gamma 90.000000
_cell_volume 2499.144970
_symmetry_space_group_name_H-M "C 2/C"
_symmetry_group_IT_number 15
_symmetry_cell_setting 'monoclinic'
loop_
_space_group_symop_operation_xyz
x,y,z
-x,y,1/2-z
-x,-y,-z
x,-y,1/2+z
1/2+x,1/2+y,z
1/2-x,1/2+y,1/2-z
1/2-x,1/2-y,-z
1/2+x,1/2-y,1/2+z
loop_
_atom_site_type_symbol
_atom_site_label
_atom_site_fract_x
_atom_site_fract_y
_atom_site_fract_z
Si Si1 0.088155 0.600152 0.769698
Si Si2 0.338669 0.924237 0.368320
Si Si3 0.135456 0.263729 0.987188
Si Si4 0.771206 0.449777 0.045374
Si Si5 0.839740 0.904381 0.772056
Si Si6 0.062102 0.298938 0.650951
O O1 0.166097 0.580523 0.861926
O O2 0.104028 0.790206 0.740473
O O3 0.084546 0.418771 0.723126
O O4 0.000000 0.610850 0.750000
O O5 0.355810 0.850775 0.443168
O O6 0.329002 0.739513 0.319803
O O7 0.251403 0.044184 0.310695
O O8 0.411499 0.060884 0.385970
O O9 0.186324 0.061833 0.013180
O O10 0.179932 0.410907 0.969704
O O11 0.036825 0.248901 0.911255
O O12 0.750000 0.250000 0.000000
O O13 0.884117 0.102926 0.817885
#
# Coordination Sequence:
#
# PCOD9304237 Si02
#       6
#     8   8   8   8   8   8
#     4  11  24  44  68  96 131 172 226 271 323 396
#     4  11  23  43  66  96 132 168 222 268 331 392
#     4  11  25  42  65  98 133 173 217 272 332 388
#     4  11  25  43  66  96 137 178 216 271 328 388
#     4  11  24  40  68  95 126 176 217 272 330 388
#     4  11  24  43  68  97 132 170 222 273 326 394
#
# _framework density 19.206568000000001
#
# number of rings (size 3 to 8) (size 9 to 14) (size 15 to 20)
#    0.000    1.000    3.333    2.500    4.667    4.000 
#    0.000    0.000    0.000    0.000    0.000    0.000 
#    0.000    0.000    0.000    0.000    0.000    0.000 
#
# Total GULP energy -134245.874023 kJ/mol
# GULP energy per Si atom -5593.578084 kJ/mol
# Density = 1.916285 g / cm^3
# Si number density = 19.206568 Si / 1000 Ang^3
#
#
#
# Elastic Constant Matrix: (Units=GPa)
#
#
# Indices 1 2 3 4 5 6 
#
# 1 66.5014 33.3946 15.4114 0.0000 7.7350 0.0000
# 2 33.3946 97.0096 31.5273 0.0000 1.5440 0.0001
# 3 15.4114 31.5273 105.0207 0.0000 5.3343 0.0000
# 4 0.0000 0.0000 0.0000 13.9507 0.0000 3.7155
# 5 7.7350 1.5440 5.3343 0.0000 45.2929 0.0000
# 6 0.0000 0.0001 0.0000 3.7155 0.0000 19.9418
#
#
#
# Elastic Compliance Matrix: (Units=1/GPa)
#
#
# Indices 1 2 3 4 5 6 
#
# 1 0.018620 -0.006120 -0.000749 0.000000 -0.002883 0.000000
# 2 -0.006120 0.013435 -0.003184 0.000000 0.000962 0.000000
# 3 -0.000749 -0.003184 0.010639 0.000000 -0.001017 0.000000
# 4 0.000000 0.000000 0.000000 0.075423 0.000000 -0.014053
# 5 -0.002883 0.000962 -0.001017 0.000000 0.022658 0.000000
# 6 0.000000 0.000000 0.000000 -0.014053 0.000000 0.052764
#
#
# Mechanical properties :
#
#
# Convention : Reuss Voigt Hill
#
# Bulk Modulus (GPa) = 44.27182 47.68870 45.98026
# Shear Modulus (GPa) = 22.60669 28.38365 25.49517
#
# Velocity S-wave (km/s) = 3.43451 3.84840 3.64733
# Velocity P-wave (km/s) = 6.23123 6.68058 6.45981
#
# Compressibility (1/GPa) = 0.02258773
#
# Stress axis : x y z
#
# Youngs Moduli (GPa) = 53.70704 74.43502 93.99212
#
# Poissons Ratio (x) = 0.45557 0.07036
# Poissons Ratio (y) = 0.32871 0.29925
# Poissons Ratio (z) = 0.04020 0.23698
#
# Static dielectric constant tensor:
#      x y z
#    x 1.656020 0.000000 0.002700 
#    y 0.000000 1.638340 0.000000 
#    z 0.002700 0.000000 1.638640 
# 
# From -- ./inp_files/279045.got.cif
#   From: 2010.05.17/outbox.cif.g08.bks.cpg/sg15_140_cif.got.tgz:279045.got - 2010.06.03 18:47:42.
