data_PCOD9304135
_publ_section_title
;
Structure prediction by ZEFSAII (Michael W. Deem and Ramdas Pophale) SiO2 
 PCOD9304135
Probable space group: C 2/C
;
_chemical_formula_sum "Si O2"
_cell_formula_units_Z 60
_cell_length_a 21.075854
_cell_length_b 21.442380
_cell_length_c 12.398533
_cell_angle_alpha 90.000000
_cell_angle_beta 152.858285
_cell_angle_gamma 90.000000
_cell_volume 2556.095121
_symmetry_space_group_name_H-M "C 2/C"
_symmetry_group_IT_number 15
_symmetry_cell_setting 'monoclinic'
loop_
_space_group_symop_operation_xyz
x,y,z
-x,y,1/2-z
-x,-y,-z
x,-y,1/2+z
1/2+x,1/2+y,z
1/2-x,1/2+y,1/2-z
1/2-x,1/2-y,-z
1/2+x,1/2-y,1/2+z
loop_
_atom_site_type_symbol
_atom_site_label
_atom_site_fract_x
_atom_site_fract_y
_atom_site_fract_z
Si Si1 0.213932 0.761550 0.259914
Si Si2 0.000000 0.678663 0.250000
Si Si3 0.683738 0.449442 0.996596
Si Si4 0.545616 0.083424 0.706817
Si Si5 0.911013 0.914082 0.213667
Si Si6 0.549581 0.609815 0.486249
Si Si7 0.881452 0.641486 0.274729
Si Si8 0.345158 0.781709 0.052643
O O1 0.360313 0.780906 0.532243
O O2 0.122737 0.823221 0.102082
O O3 0.128741 0.712829 0.202487
O O4 0.239942 0.726127 0.186360
O O5 0.993410 0.638207 0.348943
O O6 0.620088 0.514816 0.864431
O O7 0.593855 0.396630 0.797055
O O8 0.840400 0.450212 0.193077
O O9 0.655682 0.434501 0.079281
O O10 0.500000 0.052107 0.750000
O O11 0.419958 0.101130 0.437550
O O12 0.617649 0.148702 0.852614
O O13 0.976808 0.910688 0.431133
O O14 0.000000 0.886589 0.250000
O O15 0.764895 0.878849 0.994681
O O16 0.500000 0.756822 0.250000
O O17 0.250000 0.750000 0.000000
#
# Coordination Sequence:
#
# PCOD9304135 Si02
#       8
#     8   4   8   8   8   8   8   8
#     4  12  26  45  73 108 152 193 250 298 381 448
#     4  12  26  46  66 102 150 194 246 286 370 468
#     4  11  26  47  80 107 141 196 249 314 374 432
#     4  11  25  46  69 107 144 186 248 302 376 441
#     4  12  28  49  74 108 148 191 257 308 368 447
#     4  11  25  47  75 111 144 190 249 311 368 442
#     4  12  27  48  70 109 149 199 237 309 375 443
#     4  11  23  42  69 105 147 189 242 309 368 447
#
# _framework density 23.473306000000001
#
# number of rings (size 3 to 8) (size 9 to 14) (size 15 to 20)
#    0.000    0.533    5.333    3.200    6.533    0.533 
#    1.200    0.000    0.000    0.000    0.000    0.000 
#    0.000    0.000    0.000    0.000    0.000    0.000 
#
# Total GULP energy -167832.891804 kJ/mol
# GULP energy per Si atom -5594.429727 kJ/mol
# Density = 2.341988 g / cm^3
# Si number density = 23.473306 Si / 1000 Ang^3
#
#
#
# Elastic Constant Matrix: (Units=GPa)
#
#
# Indices 1 2 3 4 5 6 
#
# 1 168.9647 -5.0458 8.5840 0.0000 -12.1760 0.0000
# 2 -5.0458 47.5840 -9.2087 0.0000 -0.7100 0.0000
# 3 8.5840 -9.2087 35.3923 0.0000 -6.7823 0.0000
# 4 0.0000 0.0000 0.0000 27.1995 0.0000 2.9552
# 5 -12.1760 -0.7100 -6.7823 0.0000 51.2857 0.0000
# 6 0.0000 0.0000 0.0000 2.9552 0.0000 6.9117
#
#
#
# Elastic Compliance Matrix: (Units=1/GPa)
#
#
# Indices 1 2 3 4 5 6 
#
# 1 0.006082 0.000450 -0.001108 0.000000 0.001304 0.000000
# 2 0.000450 0.022223 0.005902 0.000000 0.001195 0.000000
# 3 -0.001108 0.005902 0.030805 0.000000 0.003892 0.000000
# 4 0.000000 0.000000 0.000000 0.038557 0.000000 -0.016486
# 5 0.001304 0.001195 0.003892 0.000000 0.020339 0.000000
# 6 0.000000 0.000000 0.000000 -0.016486 0.000000 0.151732
#
#
# Mechanical properties :
#
#
# Convention : Reuss Voigt Hill
#
# Bulk Modulus (GPa) = 14.36822 26.73333 20.55078
# Shear Modulus (GPa) = 17.70226 34.25346 25.97786
#
# Velocity S-wave (km/s) = 2.74915 3.82416 3.33032
# Velocity P-wave (km/s) = 4.02635 5.55990 4.85407
#
# Compressibility (1/GPa) = 0.06959804
#
# Stress axis : x y z
#
# Youngs Moduli (GPa) = 164.41744 44.99795 32.46211
#
# Poissons Ratio (x) = -0.02025 0.03598
# Poissons Ratio (y) = -0.07397 -0.19160
# Poissons Ratio (z) = 0.18222 -0.26558
#
# Static dielectric constant tensor:
#      x y z
#    x 1.931010 0.000000 -0.011950 
#    y 0.000000 1.893670 0.000000 
#    z -0.011950 0.000000 1.891360 
# 
# From -- ./inp_files/114825.got.cif
#   From: 2010.05.17/outbox.cif.g08.bks.cpg/sg15_58_cif.got.tgz:114825.got - 2010.06.03 18:47:42.
