data_PCOD9304535
_publ_section_title
;
Structure prediction by ZEFSAII (Michael W. Deem and Ramdas Pophale) SiO2 
 PCOD9304535
Probable space group: C 2/C
;
_chemical_formula_sum "Si O2"
_cell_formula_units_Z 44
_cell_length_a 14.178199
_cell_length_b 12.155309
_cell_length_c 11.762868
_cell_angle_alpha 90.000000
_cell_angle_beta 81.235239
_cell_angle_gamma 90.000000
_cell_volume 2003.543995
_symmetry_space_group_name_H-M "C 2/C"
_symmetry_group_IT_number 15
_symmetry_cell_setting 'monoclinic'
loop_
_space_group_symop_operation_xyz
x,y,z
-x,y,1/2-z
-x,-y,-z
x,-y,1/2+z
1/2+x,1/2+y,z
1/2-x,1/2+y,1/2-z
1/2-x,1/2-y,-z
1/2+x,1/2-y,1/2+z
loop_
_atom_site_type_symbol
_atom_site_label
_atom_site_fract_x
_atom_site_fract_y
_atom_site_fract_z
Si Si1 0.032451 0.428436 0.889497
Si Si2 0.000884 0.188529 0.978644
Si Si3 0.165146 0.243977 0.105201
Si Si4 0.152292 0.491810 0.188029
Si Si5 0.500000 0.545141 0.750000
Si Si6 0.158619 0.112366 0.325616
O O1 0.126340 0.491744 0.825615
O O2 0.041937 0.303386 0.923952
O O3 0.933477 0.430976 0.837280
O O4 0.000000 0.500000 0.000000
O O5 0.986109 0.115436 0.868605
O O6 0.903072 0.177900 0.068900
O O7 0.082030 0.170278 0.061332
O O8 0.135469 0.369257 0.144313
O O9 0.195788 0.192871 0.220151
O O10 0.250000 0.250000 0.000000
O O11 0.254678 0.540775 0.140608
O O12 0.411306 0.470628 0.727866
#
# Coordination Sequence:
#
# PCOD9304535 Si02
#       6
#     8   8   8   8   4   8
#     4  11  23  44  73 101 142 189 245 303 363 434
#     4  12  25  47  74 105 143 198 243 309 372 445
#     4  12  25  45  74 105 150 197 251 296 374 449
#     4  11  26  43  71 108 142 191 244 306 364 440
#     4  12  26  44  74 104 152 186 248 302 374 438
#     4  12  27  45  73 109 147 196 245 305 375 444
#
# _framework density 21.961085000000001
#
# number of rings (size 3 to 8) (size 9 to 14) (size 15 to 20)
#    0.000    0.364    3.636    4.909    5.091    2.182 
#    0.000    0.000    0.000    0.000    0.000    0.000 
#    0.000    0.000    0.000    0.000    0.000    0.000 
#
# Total GULP energy -122595.016385 kJ/mol
# GULP energy per Si atom -5572.500745 kJ/mol
# Density = 2.191110 g / cm^3
# Si number density = 21.961085 Si / 1000 Ang^3
#
#
#
# Elastic Constant Matrix: (Units=GPa)
#
#
# Indices 1 2 3 4 5 6 
#
# 1 96.8780 2.5816 15.9692 0.0000 -10.0418 0.0000
# 2 2.5816 68.5780 33.9598 0.0000 -7.5582 0.0000
# 3 15.9692 33.9598 109.2752 0.0000 -33.9405 0.0000
# 4 0.0000 0.0000 0.0000 41.7226 0.0000 -3.0142
# 5 -10.0418 -7.5582 -33.9405 0.0000 42.5681 0.0000
# 6 0.0000 0.0000 0.0000 -3.0142 0.0000 22.3108
#
#
#
# Elastic Compliance Matrix: (Units=1/GPa)
#
#
# Indices 1 2 3 4 5 6 
#
# 1 0.010675 0.000353 -0.001154 0.000000 0.001661 0.000000
# 2 0.000353 0.017329 -0.005922 0.000000 -0.001562 0.000000
# 3 -0.001154 -0.005922 0.014287 0.000000 0.010068 0.000000
# 4 0.000000 0.000000 0.000000 0.024204 0.000000 0.003270
# 5 0.001661 -0.001562 0.010068 0.000000 0.031634 0.000000
# 6 0.000000 0.000000 0.000000 0.003270 0.000000 0.045263
#
#
# Mechanical properties :
#
#
# Convention : Reuss Voigt Hill
#
# Bulk Modulus (GPa) = 34.66780 42.19471 38.43126
# Shear Modulus (GPa) = 30.03836 36.13502 33.08669
#
# Velocity S-wave (km/s) = 3.70239 4.06077 3.88571
# Velocity P-wave (km/s) = 5.83928 6.42196 6.13754
#
# Compressibility (1/GPa) = 0.02884521
#
# Stress axis : x y z
#
# Youngs Moduli (GPa) = 93.67495 57.70629 69.99240
#
# Poissons Ratio (x) = -0.02034 0.08075
# Poissons Ratio (y) = -0.03302 0.41450
# Poissons Ratio (z) = 0.10807 0.34174
#
# Static dielectric constant tensor:
#      x y z
#    x 1.821790 0.000000 0.120100 
#    y 0.000000 1.865630 0.000000 
#    z 0.120100 0.000000 2.080460 
# 
# From -- ./inp_files/94987.got.cif
#   From: 2010.05.17/outbox.cif.g08.bks.cpg/sg15_48_cif.got.tgz:94987.got - 2010.06.03 18:47:42.
