data_PCOD9304424
_publ_section_title
;
Structure prediction by ZEFSAII (Michael W. Deem and Ramdas Pophale) SiO2 
 PCOD9304424
Probable space group: C 2/C
;
_chemical_formula_sum "Si O2"
_cell_formula_units_Z 64
_cell_length_a 26.841869
_cell_length_b 6.789174
_cell_length_c 26.991782
_cell_angle_alpha 90.000000
_cell_angle_beta 142.824419
_cell_angle_gamma 90.000000
_cell_volume 2972.246319
_symmetry_space_group_name_H-M "C 2/C"
_symmetry_group_IT_number 15
_symmetry_cell_setting 'monoclinic'
loop_
_space_group_symop_operation_xyz
x,y,z
-x,y,1/2-z
-x,-y,-z
x,-y,1/2+z
1/2+x,1/2+y,z
1/2-x,1/2+y,1/2-z
1/2-x,1/2-y,-z
1/2+x,1/2-y,1/2+z
loop_
_atom_site_type_symbol
_atom_site_label
_atom_site_fract_x
_atom_site_fract_y
_atom_site_fract_z
Si Si1 0.789745 0.972859 0.089912
Si Si2 0.613414 0.634663 0.174109
Si Si3 0.374448 0.836771 0.594703
Si Si4 0.912328 0.304435 0.181989
Si Si5 0.361669 0.016115 0.244272
Si Si6 0.003960 0.172073 0.883999
Si Si7 0.934718 0.671201 0.962270
Si Si8 0.754829 0.115394 0.672568
O O1 0.838309 0.160851 0.108543
O O2 0.779764 0.988568 0.140761
O O3 0.844111 0.783845 0.118205
O O4 0.703167 0.928467 0.995597
O O5 0.541199 0.537238 0.149832
O O6 0.576739 0.671499 0.090890
O O7 0.689867 0.483780 0.240602
O O8 0.640275 0.844972 0.216443
O O9 0.422889 0.692778 0.596893
O O10 0.426674 0.020364 0.654492
O O11 0.881809 0.405598 0.208806
O O12 0.000000 0.193011 0.250000
O O13 0.435635 0.166951 0.314699
O O14 0.281055 0.156195 0.184533
O O15 0.036449 0.229250 0.963995
O O16 0.841903 0.589706 0.895837
O O17 0.000000 0.500000 0.000000
#
# Coordination Sequence:
#
# PCOD9304424 Si02
#       8
#     8   8   8   8   8   8   8   8
#     4  11  24  43  65 100 140 184 230 275 350 421
#     4  11  26  45  71 102 136 184 234 291 359 423
#     4  11  24  43  65  99 143 183 224 285 343 418
#     4  12  24  38  69 103 140 184 231 281 342 418
#     4  11  23  44  65 102 140 179 231 285 347 419
#     4  11  24  45  71 100 139 180 231 289 353 417
#     4  12  26  49  73 102 137 182 239 304 357 417
#     4  11  25  45  72 100 142 186 232 294 358 424
#
# _framework density 21.532533999999998
#
# number of rings (size 3 to 8) (size 9 to 14) (size 15 to 20)
#    0.000    0.750    6.250    0.750    3.500    0.500 
#    2.250    2.500    0.000    0.000    0.000    0.000 
#    0.000    0.000    0.000    0.000    0.000    0.000 
#
# Total GULP energy -178865.880192 kJ/mol
# GULP energy per Si atom -5589.558756 kJ/mol
# Density = 2.148352 g / cm^3
# Si number density = 21.532534 Si / 1000 Ang^3
#
#
#
# Elastic Constant Matrix: (Units=GPa)
#
#
# Indices 1 2 3 4 5 6 
#
# 1 90.4670 25.3960 43.0795 -0.0005 18.3735 -0.0004
# 2 25.3960 56.2000 31.7932 -0.0008 6.2575 -0.0097
# 3 43.0795 31.7932 70.0992 -0.0001 21.4852 -0.0015
# 4 -0.0005 -0.0008 -0.0001 43.1702 0.0005 -0.7334
# 5 18.3735 6.2575 21.4852 0.0005 35.6762 0.0001
# 6 -0.0004 -0.0097 -0.0015 -0.7334 0.0001 30.1271
#
#
#
# Elastic Compliance Matrix: (Units=1/GPa)
#
#
# Indices 1 2 3 4 5 6 
#
# 1 0.016114 -0.002523 -0.007788 0.000000 -0.003166 -0.000001
# 2 -0.002523 0.024572 -0.010634 0.000001 0.003394 0.000007
# 3 -0.007788 -0.010634 0.027070 0.000000 -0.010427 -0.000002
# 4 0.000000 0.000001 0.000000 0.023174 0.000000 0.000564
# 5 -0.003166 0.003394 -0.010427 0.000000 0.035344 0.000000
# 6 -0.000001 0.000007 -0.000002 0.000564 0.000000 0.033206
#
#
# Mechanical properties :
#
#
# Convention : Reuss Voigt Hill
#
# Bulk Modulus (GPa) = 38.66159 46.36707 42.51433
# Shear Modulus (GPa) = 23.81048 29.56121 26.68584
#
# Velocity S-wave (km/s) = 3.32895 3.70924 3.52423
# Velocity P-wave (km/s) = 5.72449 6.31861 6.02887
#
# Compressibility (1/GPa) = 0.02586546
#
# Stress axis : x y z
#
# Youngs Moduli (GPa) = 62.05951 40.69717 36.94113
#
# Poissons Ratio (x) = 0.10269 0.28769
# Poissons Ratio (y) = 0.15660 0.39283
# Poissons Ratio (z) = 0.48330 0.43277
#
# Static dielectric constant tensor:
#      x y z
#    x 1.773890 0.000000 -0.004890 
#    y 0.000000 1.757790 0.000000 
#    z -0.004890 0.000000 1.784110 
# 
# From -- ./inp_files/319307.got.cif
#   From: 2010.05.17/outbox.cif.g08.bks.cpg/sg15_160_cif.got.tgz:319307.got - 2010.06.03 18:47:42.
