data_PCOD9304477
_publ_section_title
;
Structure prediction by ZEFSAII (Michael W. Deem and Ramdas Pophale) SiO2 
 PCOD9304477
Probable space group: C 2/C
;
_chemical_formula_sum "Si O2"
_cell_formula_units_Z 56
_cell_length_a 11.199294
_cell_length_b 14.071296
_cell_length_c 24.872918
_cell_angle_alpha 90.000000
_cell_angle_beta 43.664476
_cell_angle_gamma 90.000000
_cell_volume 2706.285882
_symmetry_space_group_name_H-M "C 2/C"
_symmetry_group_IT_number 15
_symmetry_cell_setting 'monoclinic'
loop_
_space_group_symop_operation_xyz
x,y,z
-x,y,1/2-z
-x,-y,-z
x,-y,1/2+z
1/2+x,1/2+y,z
1/2-x,1/2+y,1/2-z
1/2-x,1/2-y,-z
1/2+x,1/2-y,1/2+z
loop_
_atom_site_type_symbol
_atom_site_label
_atom_site_fract_x
_atom_site_fract_y
_atom_site_fract_z
Si Si1 0.178885 0.096222 0.224011
Si Si2 0.550588 0.354792 0.517501
Si Si3 0.173172 0.312169 0.227848
Si Si4 0.934799 0.685106 0.903085
Si Si5 0.999076 0.505948 0.436335
Si Si6 0.567074 0.480251 0.365639
Si Si7 0.801685 0.143098 0.994177
O O1 0.250669 0.205112 0.202419
O O2 0.313944 0.031466 0.148116
O O3 0.129465 0.048777 0.297362
O O4 0.000000 0.100389 0.250000
O O5 0.747532 0.327332 0.434925
O O6 0.537070 0.279116 0.570903
O O7 0.502193 0.454215 0.562725
O O8 0.421097 0.351385 0.508979
O O9 0.281671 0.403379 0.174356
O O10 0.000000 0.307452 0.250000
O O11 0.098387 0.327347 0.311688
O O12 0.931908 0.597218 0.943369
O O13 0.000000 0.500000 0.500000
O O14 0.870267 0.579626 0.448805
O O15 0.407337 0.407139 0.410874
O O16 0.750000 0.250000 0.000000
#
# Coordination Sequence:
#
# PCOD9304477 Si02
#       7
#     8   8   8   8   8   8   8
#     4  11  25  44  68 101 135 177 232 280 347 412
#     4  11  25  43  71 100 138 184 233 289 341 418
#     4  11  24  41  68  98 136 177 224 282 344 408
#     4  11  23  44  70 101 135 180 238 283 344 414
#     4  12  25  44  72 100 137 183 230 288 346 422
#     4  12  23  43  68  99 138 176 227 286 342 408
#     4  12  26  45  68 102 142 182 232 284 352 412
#
# _framework density 20.692565999999999
#
# number of rings (size 3 to 8) (size 9 to 14) (size 15 to 20)
#    0.000    0.571    4.286    3.857    2.000    2.286 
#    0.000    0.000    0.000    0.000    0.000    0.000 
#    0.000    0.000    0.000    0.000    0.000    0.000 
#
# Total GULP energy -156077.445895 kJ/mol
# GULP energy per Si atom -5574.194496 kJ/mol
# Density = 2.064547 g / cm^3
# Si number density = 20.692566 Si / 1000 Ang^3
#
#
#
# Elastic Constant Matrix: (Units=GPa)
#
#
# Indices 1 2 3 4 5 6 
#
# 1 102.1753 46.8726 23.5381 0.0000 -1.5125 0.0000
# 2 46.8726 157.9357 25.7302 -0.0001 -0.8246 0.0001
# 3 23.5381 25.7302 72.4328 0.0000 -9.0222 0.0001
# 4 0.0000 -0.0001 0.0000 29.8006 0.0000 -15.2183
# 5 -1.5125 -0.8246 -9.0222 0.0000 31.3857 0.0000
# 6 0.0000 0.0001 0.0001 -15.2183 0.0000 9.6908
#
#
#
# Elastic Compliance Matrix: (Units=1/GPa)
#
#
# Indices 1 2 3 4 5 6 
#
# 1 0.011829 -0.003057 -0.002797 0.000000 -0.000314 0.000000
# 2 -0.003057 0.007519 -0.001733 0.000000 -0.000448 0.000000
# 3 -0.002797 -0.001733 0.015877 0.000000 0.004384 -0.000001
# 4 0.000000 0.000000 0.000000 0.169429 0.000000 0.266068
# 5 -0.000314 -0.000448 0.004384 0.000000 0.033095 0.000000
# 6 0.000000 0.000000 -0.000001 0.266068 0.000000 0.521019
#
#
# Mechanical properties :
#
#
# Convention : Reuss Voigt Hill
#
# Bulk Modulus (GPa) = 49.87568 58.31394 54.09481
# Shear Modulus (GPa) = 6.40512 29.93562 18.17037
#
# Velocity S-wave (km/s) = 1.76128 3.80766 2.96651
# Velocity P-wave (km/s) = 5.31899 6.89734 6.15893
#
# Compressibility (1/GPa) = 0.02004985
#
# Stress axis : x y z
#
# Youngs Moduli (GPa) = 84.53747 132.99824 62.98514
#
# Poissons Ratio (x) = 0.40652 0.17620
# Poissons Ratio (y) = 0.25839 0.10918
# Poissons Ratio (z) = 0.23649 0.23055
#
# Static dielectric constant tensor:
#      x y z
#    x 1.731540 0.000000 0.102450 
#    y 0.000000 1.731380 0.000000 
#    z 0.102450 0.000000 1.991750 
# 
# From -- ./inp_files/292841.got.cif
#   From: 2010.05.17/outbox.cif.g08.bks.cpg/sg15_147_cif.got.tgz:292841.got - 2010.06.03 18:47:42.
