data_PCOD9304802
_publ_section_title
;
Structure prediction by ZEFSAII (Michael W. Deem and Ramdas Pophale) SiO2 
 PCOD9304802
Probable space group: C 2/C
;
_chemical_formula_sum "Si O2"
_cell_formula_units_Z 44
_cell_length_a 9.163407
_cell_length_b 16.696514
_cell_length_c 14.810864
_cell_angle_alpha 90.000000
_cell_angle_beta 129.605605
_cell_angle_gamma 90.000000
_cell_volume 1745.854849
_symmetry_space_group_name_H-M "C 2/C"
_symmetry_group_IT_number 15
_symmetry_cell_setting 'monoclinic'
loop_
_space_group_symop_operation_xyz
x,y,z
-x,y,1/2-z
-x,-y,-z
x,-y,1/2+z
1/2+x,1/2+y,z
1/2-x,1/2+y,1/2-z
1/2-x,1/2-y,-z
1/2+x,1/2-y,1/2+z
loop_
_atom_site_type_symbol
_atom_site_label
_atom_site_fract_x
_atom_site_fract_y
_atom_site_fract_z
Si Si1 0.500000 0.755857 0.750000
Si Si2 0.364310 0.306218 0.617468
Si Si3 0.538053 0.939476 0.165814
Si Si4 0.771555 0.117793 0.589801
Si Si5 0.598743 0.532423 0.448693
Si Si6 0.107535 0.618278 0.166387
O O1 0.395838 0.696785 0.640751
O O2 0.360801 0.814986 0.746402
O O3 0.500000 0.269383 0.750000
O O4 0.250000 0.250000 0.500000
O O5 0.471847 0.379867 0.609443
O O6 0.215879 0.354687 0.620520
O O7 0.500000 0.906144 0.250000
O O8 0.660073 0.890975 0.141192
O O9 0.637048 0.027274 0.209733
O O10 0.324099 0.953578 0.049219
O O11 0.613553 0.122029 0.450058
O O12 0.902005 0.040603 0.622210
O O13 0.500000 0.500000 0.500000
#
# Coordination Sequence:
#
# PCOD9304802 Si02
#       6
#     4   8   8   8   8   8
#     4  12  28  40  82 104 148 200 262 322 388 476
#     4  12  30  49  78 113 164 207 260 328 402 475
#     4  11  23  46  78 101 149 203 258 318 402 462
#     4  11  25  47  72 108 149 193 257 326 385 461
#     4  11  26  45  76 112 148 197 264 322 388 473
#     4  11  24  50  67 106 148 203 256 319 392 469
#
# _framework density 25.202553000000002
#
# number of rings (size 3 to 8) (size 9 to 14) (size 15 to 20)
#    0.000    0.727    4.545    1.636   11.455    0.727 
#    0.000    0.000    0.000    0.000    0.000    0.000 
#    0.000    0.000    0.000    0.000    0.000    0.000 
#
# Total GULP energy -123061.496599 kJ/mol
# GULP energy per Si atom -5593.704391 kJ/mol
# Density = 2.514519 g / cm^3
# Si number density = 25.202553 Si / 1000 Ang^3
#
#
#
# Elastic Constant Matrix: (Units=GPa)
#
#
# Indices 1 2 3 4 5 6 
#
# 1 136.5342 47.2232 22.7007 0.0000 -27.1194 0.0000
# 2 47.2232 158.5981 48.6306 0.0000 -12.6602 0.0000
# 3 22.7007 48.6306 112.4791 0.0000 -10.8774 0.0000
# 4 0.0000 0.0000 0.0000 29.5550 0.0000 -3.7528
# 5 -27.1194 -12.6602 -10.8774 0.0000 48.0583 0.0000
# 6 0.0000 0.0000 0.0000 -3.7528 0.0000 4.4866
#
#
#
# Elastic Compliance Matrix: (Units=1/GPa)
#
#
# Indices 1 2 3 4 5 6 
#
# 1 0.009037 -0.002202 -0.000445 0.000000 0.004419 0.000000
# 2 -0.002202 0.007877 -0.002945 0.000000 0.000166 0.000000
# 3 -0.000445 -0.002945 0.010382 0.000000 0.001323 0.000000
# 4 0.000000 0.000000 0.000000 0.037856 0.000000 0.031664
# 5 0.004419 0.000166 0.001323 0.000000 0.023645 0.000000
# 6 0.000000 0.000000 0.000000 0.031664 0.000000 0.249369
#
#
# Mechanical properties :
#
#
# Convention : Reuss Voigt Hill
#
# Bulk Modulus (GPa) = 62.06268 71.63561 66.84914
# Shear Modulus (GPa) = 14.09561 35.69046 24.89303
#
# Velocity S-wave (km/s) = 2.36750 3.76725 3.14621
# Velocity P-wave (km/s) = 5.67031 6.88539 6.30718
#
# Compressibility (1/GPa) = 0.01611274
#
# Stress axis : x y z
#
# Youngs Moduli (GPa) = 110.65115 126.94845 96.32409
#
# Poissons Ratio (x) = 0.27952 0.04283
# Poissons Ratio (y) = 0.24363 0.28370
# Poissons Ratio (z) = 0.04920 0.37390
#
# Static dielectric constant tensor:
#      x y z
#    x 1.885340 0.000000 0.224750 
#    y 0.000000 1.967680 0.000000 
#    z 0.224750 0.000000 1.836390 
# 
# From -- ./inp_files/134973.got.cif
#   From: 2010.05.17/outbox.cif.g08.bks.cpg/sg15_68_cif.got.tgz:134973.got - 2010.06.03 18:47:42.
