data_PCOD9304898
_publ_section_title
;
Structure prediction by ZEFSAII (Michael W. Deem and Ramdas Pophale) SiO2 
 PCOD9304898
Probable space group: C 2/C
;
_chemical_formula_sum "Si O2"
_cell_formula_units_Z 32
_cell_length_a 13.732229
_cell_length_b 11.118785
_cell_length_c 25.514686
_cell_angle_alpha 90.000000
_cell_angle_beta 160.059129
_cell_angle_gamma 90.000000
_cell_volume 1328.638735
_symmetry_space_group_name_H-M "C 2/C"
_symmetry_group_IT_number 15
_symmetry_cell_setting 'monoclinic'
loop_
_space_group_symop_operation_xyz
x,y,z
-x,y,1/2-z
-x,-y,-z
x,-y,1/2+z
1/2+x,1/2+y,z
1/2-x,1/2+y,1/2-z
1/2-x,1/2-y,-z
1/2+x,1/2-y,1/2+z
loop_
_atom_site_type_symbol
_atom_site_label
_atom_site_fract_x
_atom_site_fract_y
_atom_site_fract_z
Si Si1 0.500000 0.742293 0.250000
Si Si2 0.642804 0.603623 0.108369
Si Si3 0.818850 0.475005 0.959898
Si Si4 0.500000 0.680148 0.750000
Si Si5 0.944666 0.426592 0.137913
O O1 0.331166 0.649024 0.129278
O O2 0.609480 0.831079 0.258955
O O3 0.736607 0.731631 0.132082
O O4 0.941472 0.551289 0.280486
O O5 0.500000 0.500000 0.000000
O O6 0.388511 0.609130 0.022691
O O7 0.604028 0.590097 0.849367
O O8 0.986510 0.449616 0.097914
O O9 0.000000 0.500000 0.000000
#
# Coordination Sequence:
#
# PCOD9304898 Si02
#       5
#     4   8   8   4   8
#     4  11  23  48  74 106 149 201 252 316 384 463
#     4  12  23  49  75 114 147 201 262 317 385 457
#     4  11  28  48  71 117 156 205 258 319 394 458
#     4  11  25  48  76 110 165 197 258 328 382 467
#     4  12  26  47  79 107 153 202 260 316 382 462
#
# _framework density 24.084802
#
# number of rings (size 3 to 8) (size 9 to 14) (size 15 to 20)
#    0.000    0.500    5.000    2.250    7.000    1.000 
#    0.000    0.000    0.000    0.000    0.000    0.000 
#    0.000    0.000    0.000    0.000    0.000    0.000 
#
# Total GULP energy -89093.889418 kJ/mol
# GULP energy per Si atom -5568.368089 kJ/mol
# Density = 2.402998 g / cm^3
# Si number density = 24.084802 Si / 1000 Ang^3
#
#
#
# Elastic Constant Matrix: (Units=GPa)
#
#
# Indices 1 2 3 4 5 6 
#
# 1 125.7636 53.8042 37.6006 0.0049 -23.2360 0.0041
# 2 53.8042 176.2148 56.1330 0.0089 -16.2540 0.0058
# 3 37.6006 56.1330 83.2090 0.0290 -7.1547 0.0133
# 4 0.0049 0.0089 0.0290 38.5041 -0.0004 -2.2862
# 5 -23.2360 -16.2540 -7.1547 -0.0004 63.9792 0.0013
# 6 0.0041 0.0058 0.0133 -2.2862 0.0013 4.1718
#
#
#
# Elastic Compliance Matrix: (Units=1/GPa)
#
#
# Indices 1 2 3 4 5 6 
#
# 1 0.010211 -0.001860 -0.003111 0.000002 0.002888 0.000002
# 2 -0.001860 0.007676 -0.004269 0.000002 0.000797 0.000006
# 3 -0.003111 -0.004269 0.016270 -0.000014 -0.000395 -0.000050
# 4 0.000002 0.000002 -0.000014 0.026845 -0.000001 0.014711
# 5 0.002888 0.000797 -0.000395 -0.000001 0.016837 -0.000008
# 6 0.000002 0.000006 -0.000050 0.014711 -0.000008 0.247769
#
#
# Mechanical properties :
#
#
# Convention : Reuss Voigt Hill
#
# Bulk Modulus (GPa) = 63.79121 75.58477 69.68799
# Shear Modulus (GPa) = 14.31373 37.17430 25.74402
#
# Velocity S-wave (km/s) = 2.44048 3.93297 3.27294
# Velocity P-wave (km/s) = 5.87238 7.21632 6.57876
#
# Compressibility (1/GPa) = 0.01567614
#
# Stress axis : x y z
#
# Youngs Moduli (GPa) = 97.93369 130.26840 61.46355
#
# Poissons Ratio (x) = 0.24236 0.19120
# Poissons Ratio (y) = 0.18220 0.26241
# Poissons Ratio (z) = 0.30465 0.55616
#
# Static dielectric constant tensor:
#      x y z
#    x 2.166510 0.000010 0.197790 
#    y 0.000010 2.127500 0.000040 
#    z 0.197790 0.000040 2.086550 
# 
# From -- ./inp_files/296019.got.cif
#   From: 2010.05.17/outbox.cif.g08.bks.cpg/sg15_149_cif.got.tgz:296019.got - 2010.06.03 18:47:42.
