data_PCOD9304175
_publ_section_title
;
Structure prediction by ZEFSAII (Michael W. Deem and Ramdas Pophale) SiO2 
 PCOD9304175
Probable space group: C 2/C
;
_chemical_formula_sum "Si O2"
_cell_formula_units_Z 44
_cell_length_a 18.421677
_cell_length_b 9.009846
_cell_length_c 13.168873
_cell_angle_alpha 90.000000
_cell_angle_beta 108.368526
_cell_angle_gamma 90.000000
_cell_volume 2074.358888
_symmetry_space_group_name_H-M "C 2/C"
_symmetry_group_IT_number 15
_symmetry_cell_setting 'monoclinic'
loop_
_space_group_symop_operation_xyz
x,y,z
-x,y,1/2-z
-x,-y,-z
x,-y,1/2+z
1/2+x,1/2+y,z
1/2-x,1/2+y,1/2-z
1/2-x,1/2-y,-z
1/2+x,1/2-y,1/2+z
loop_
_atom_site_type_symbol
_atom_site_label
_atom_site_fract_x
_atom_site_fract_y
_atom_site_fract_z
Si Si1 0.069044 0.924655 0.591353
Si Si2 0.858656 0.393432 0.073191
Si Si3 0.824323 0.902719 0.222297
Si Si4 0.500000 0.752149 0.250000
Si Si5 0.657401 0.758648 0.961902
Si Si6 0.263669 0.791945 0.855577
O O1 0.116684 0.812167 0.541426
O O2 0.039016 0.844073 0.679183
O O3 0.125458 0.048138 0.660375
O O4 0.000000 0.000000 0.500000
O O5 0.860394 0.569083 0.060104
O O6 0.788701 0.329994 0.110638
O O7 0.935144 0.343846 0.163042
O O8 0.839908 0.320132 0.955596
O O9 0.869194 0.839296 0.146113
O O10 0.775119 0.768469 0.247414
O O11 0.777821 0.048043 0.166767
O O12 0.750000 0.750000 0.000000
#
# Coordination Sequence:
#
# PCOD9304175 Si02
#       6
#     8   8   8   4   8   8
#     4  12  27  46  71 104 149 189 241 294 371 442
#     4  11  25  43  71 102 148 182 245 291 367 426
#     4  12  24  42  74 100 140 185 240 296 359 422
#     4  12  26  46  70 104 146 194 226 298 368 438
#     4  12  26  47  72 107 140 188 248 307 353 435
#     4  11  23  42  71 106 137 192 241 303 353 434
#
# _framework density 21.211372999999998
#
# number of rings (size 3 to 8) (size 9 to 14) (size 15 to 20)
#    0.000    0.364    3.636    5.455    2.545    3.636 
#    0.000    0.000    0.000    0.000    0.000    0.000 
#    0.000    0.000    0.000    0.000    0.000    0.000 
#
# Total GULP energy -123045.459884 kJ/mol
# GULP energy per Si atom -5592.975449 kJ/mol
# Density = 2.116310 g / cm^3
# Si number density = 21.211373 Si / 1000 Ang^3
#
#
#
# Elastic Constant Matrix: (Units=GPa)
#
#
# Indices 1 2 3 4 5 6 
#
# 1 78.3279 55.2055 47.8257 0.0000 2.0114 0.0000
# 2 55.2055 148.4661 72.3427 0.0000 -9.6916 0.0000
# 3 47.8257 72.3427 131.9530 0.0000 -7.3659 0.0000
# 4 0.0000 0.0000 0.0000 53.0745 0.0000 -3.4360
# 5 2.0114 -9.6916 -7.3659 0.0000 63.3790 0.0000
# 6 0.0000 0.0000 0.0000 -3.4360 0.0000 27.1410
#
#
#
# Elastic Compliance Matrix: (Units=1/GPa)
#
#
# Indices 1 2 3 4 5 6 
#
# 1 0.018989 -0.005156 -0.004160 0.000000 -0.001875 0.000000
# 2 -0.005156 0.010634 -0.003886 0.000000 0.001338 0.000000
# 3 -0.004160 -0.003886 0.011264 0.000000 0.000847 0.000000
# 4 0.000000 0.000000 0.000000 0.018997 0.000000 0.002405
# 5 -0.001875 0.001338 0.000847 0.000000 0.016141 0.000000
# 6 0.000000 0.000000 0.000000 0.002405 0.000000 0.037149
#
#
# Mechanical properties :
#
#
# Convention : Reuss Voigt Hill
#
# Bulk Modulus (GPa) = 69.05328 78.83278 73.94303
# Shear Modulus (GPa) = 34.62423 40.94378 37.78401
#
# Velocity S-wave (km/s) = 4.04461 4.39826 4.22513
# Velocity P-wave (km/s) = 7.37817 7.93970 7.66408
#
# Compressibility (1/GPa) = 0.01448157
#
# Stress axis : x y z
#
# Youngs Moduli (GPa) = 52.66134 94.03894 88.77527
#
# Poissons Ratio (x) = 0.48487 0.36934
# Poissons Ratio (y) = 0.27153 0.34502
# Poissons Ratio (z) = 0.21909 0.36548
#
# Static dielectric constant tensor:
#      x y z
#    x 1.833970 0.000000 0.000700 
#    y 0.000000 1.807800 0.000000 
#    z 0.000700 0.000000 1.605050 
# 
# From -- ./inp_files/110089.got.cif
#   From: 2010.05.17/outbox.cif.g08.bks.cpg/sg15_56_cif.got.tgz:110089.got - 2010.06.03 18:47:42.
