data_PCOD9304196
_publ_section_title
;
Structure prediction by ZEFSAII (Michael W. Deem and Ramdas Pophale) SiO2 
 PCOD9304196
Probable space group: C 2/C
;
_chemical_formula_sum "Si O2"
_cell_formula_units_Z 36
_cell_length_a 8.438868
_cell_length_b 12.611757
_cell_length_c 15.292661
_cell_angle_alpha 90.000000
_cell_angle_beta 63.559476
_cell_angle_gamma 90.000000
_cell_volume 1457.332035
_symmetry_space_group_name_H-M "C 2/C"
_symmetry_group_IT_number 15
_symmetry_cell_setting 'monoclinic'
loop_
_space_group_symop_operation_xyz
x,y,z
-x,y,1/2-z
-x,-y,-z
x,-y,1/2+z
1/2+x,1/2+y,z
1/2-x,1/2+y,1/2-z
1/2-x,1/2-y,-z
1/2+x,1/2-y,1/2+z
loop_
_atom_site_type_symbol
_atom_site_label
_atom_site_fract_x
_atom_site_fract_y
_atom_site_fract_z
Si Si1 0.000000 0.560456 0.750000
Si Si2 0.776845 0.738909 0.711932
Si Si3 0.146916 0.530046 0.035255
Si Si4 0.048310 0.244040 0.601217
Si Si5 0.402118 0.341781 0.965052
O O1 0.858576 0.636830 0.738160
O O2 0.908377 0.497924 0.851382
O O3 0.659842 0.706425 0.657018
O O4 0.637184 0.790170 0.812803
O O5 0.940566 0.810883 0.639885
O O6 0.150517 0.656567 0.034611
O O7 0.312200 0.454839 0.972733
O O8 0.000000 0.500000 0.000000
O O9 0.983448 0.165504 0.542052
O O10 0.250000 0.250000 0.000000
#
# Coordination Sequence:
#
# PCOD9304196 Si02
#       5
#     4   8   8   8   8
#     4  12  22  44  74 102 144 208 244 304 402 444
#     4  11  23  42  73 101 151 199 253 315 388 458
#     4  12  25  44  75 107 147 195 256 321 376 468
#     4  11  24  45  69 109 149 195 257 321 384 464
#     4  12  22  44  76 104 148 201 254 313 399 453
#
# _framework density 24.702676
#
# number of rings (size 3 to 8) (size 9 to 14) (size 15 to 20)
#    0.000    0.444    6.667    2.000    0.000    0.889 
#    0.000    0.000    4.889    0.000    0.000    0.000 
#    0.000    0.000    0.000    0.000    0.000    0.000 
#
# Total GULP energy -100862.548514 kJ/mol
# GULP energy per Si atom -5603.474917 kJ/mol
# Density = 2.464645 g / cm^3
# Si number density = 24.702676 Si / 1000 Ang^3
#
#
#
# Elastic Constant Matrix: (Units=GPa)
#
#
# Indices 1 2 3 4 5 6 
#
# 1 155.2960 56.6370 22.4443 0.0000 9.7764 0.0000
# 2 56.6370 121.3184 11.9171 0.0000 17.0355 0.0000
# 3 22.4443 11.9171 126.8656 0.0000 -17.6977 0.0000
# 4 0.0000 0.0000 0.0000 38.8293 0.0000 1.6323
# 5 9.7764 17.0355 -17.6977 0.0000 59.6736 0.0000
# 6 0.0000 0.0000 0.0000 1.6323 0.0000 34.1650
#
#
#
# Elastic Compliance Matrix: (Units=1/GPa)
#
#
# Indices 1 2 3 4 5 6 
#
# 1 0.007922 -0.003494 -0.001163 0.000000 -0.000646 0.000000
# 2 -0.003494 0.010306 -0.000710 0.000000 -0.002580 0.000000
# 3 -0.001163 -0.000710 0.008564 0.000000 0.002933 0.000000
# 4 0.000000 0.000000 0.000000 0.025806 0.000000 -0.001233
# 5 -0.000646 -0.002580 0.002933 0.000000 0.018470 0.000000
# 6 0.000000 0.000000 0.000000 -0.001233 0.000000 0.029329
#
#
# Mechanical properties :
#
#
# Convention : Reuss Voigt Hill
#
# Bulk Modulus (GPa) = 62.27361 65.05300 63.66331
# Shear Modulus (GPa) = 42.92475 47.36569 45.14522
#
# Velocity S-wave (km/s) = 4.17304 4.38360 4.27962
# Velocity P-wave (km/s) = 6.96298 7.21199 7.08858
#
# Compressibility (1/GPa) = 0.01605817
#
# Stress axis : x y z
#
# Youngs Moduli (GPa) = 126.22749 97.03306 116.76709
#
# Poissons Ratio (x) = 0.33899 0.13585
# Poissons Ratio (y) = 0.44098 0.08290
# Poissons Ratio (z) = 0.14686 0.06889
#
# Static dielectric constant tensor:
#      x y z
#    x 2.039160 0.000000 -0.116830 
#    y 0.000000 1.949150 0.000000 
#    z -0.116830 0.000000 2.066630 
# 
# From -- ./inp_files/188356.got.cif
#   From: 2010.05.17/outbox.cif.g08.bks.cpg/sg15_95_cif.got.tgz:188356.got - 2010.06.03 18:47:42.
