data_PCOD9304880
_publ_section_title
;
Structure prediction by ZEFSAII (Michael W. Deem and Ramdas Pophale) SiO2 
 PCOD9304880
Probable space group: C 2/C
;
_chemical_formula_sum "Si O2"
_cell_formula_units_Z 44
_cell_length_a 5.039538
_cell_length_b 26.900877
_cell_length_c 13.558586
_cell_angle_alpha 90.000000
_cell_angle_beta 76.014018
_cell_angle_gamma 90.000000
_cell_volume 1783.619288
_symmetry_space_group_name_H-M "C 2/C"
_symmetry_group_IT_number 15
_symmetry_cell_setting 'monoclinic'
loop_
_space_group_symop_operation_xyz
x,y,z
-x,y,1/2-z
-x,-y,-z
x,-y,1/2+z
1/2+x,1/2+y,z
1/2-x,1/2+y,1/2-z
1/2-x,1/2-y,-z
1/2+x,1/2-y,1/2+z
loop_
_atom_site_type_symbol
_atom_site_label
_atom_site_fract_x
_atom_site_fract_y
_atom_site_fract_z
Si Si1 0.383630 0.883453 0.156282
Si Si2 0.971864 0.837481 0.635034
Si Si3 0.998383 0.273521 0.909284
Si Si4 0.868360 0.013727 0.857818
Si Si5 0.500000 0.304194 0.250000
Si Si6 0.325576 0.572523 0.493687
O O1 0.500000 0.866928 0.250000
O O2 0.287815 0.940054 0.175735
O O3 0.154566 0.842715 0.163099
O O4 0.598064 0.889750 0.051831
O O5 0.230017 0.802277 0.576316
O O6 0.971259 0.891265 0.581802
O O7 0.000000 0.843061 0.750000
O O8 0.686278 0.812059 0.634968
O O9 0.121126 0.232837 0.821347
O O10 0.750000 0.250000 0.000000
O O11 0.000000 0.989104 0.750000
O O12 0.053090 0.042606 0.923124
O O13 0.719299 0.970038 0.929833
#
# Coordination Sequence:
#
# PCOD9304880 Si02
#       6
#     8   8   8   8   4   8
#     4  12  24  43  71 106 144 189 249 307 368 445
#     4  12  26  52  72 111 151 196 251 305 381 453
#     4  12  28  48  76 108 149 195 254 314 375 440
#     4  11  23  48  68 113 144 186 250 299 377 449
#     4  12  26  44  74 100 148 188 248 308 368 430
#     4  11  26  43  78 101 152 196 240 308 376 454
#
# _framework density 24.668939999999999
#
# number of rings (size 3 to 8) (size 9 to 14) (size 15 to 20)
#    0.000    0.364    4.545    2.727   10.182    0.000 
#    0.000    0.000    0.000    0.000    0.000    0.000 
#    0.000    0.000    0.000    0.000    0.000    0.000 
#
# Total GULP energy -122772.088910 kJ/mol
# GULP energy per Si atom -5580.549496 kJ/mol
# Density = 2.461279 g / cm^3
# Si number density = 24.668940 Si / 1000 Ang^3
#
#
#
# Elastic Constant Matrix: (Units=GPa)
#
#
# Indices 1 2 3 4 5 6 
#
# 1 72.7714 24.8273 1.7951 0.0000 -5.8842 0.0000
# 2 24.8273 133.8420 45.3085 0.0000 -12.8028 0.0000
# 3 1.7951 45.3085 100.5228 0.0000 -17.7063 0.0000
# 4 0.0000 0.0000 0.0000 68.5063 0.0000 -14.0331
# 5 -5.8842 -12.8028 -17.7063 0.0000 26.5380 0.0000
# 6 0.0000 0.0000 0.0000 -14.0331 0.0000 11.3748
#
#
#
# Elastic Compliance Matrix: (Units=1/GPa)
#
#
# Indices 1 2 3 4 5 6 
#
# 1 0.014978 -0.003047 0.001623 0.000000 0.002934 0.000000
# 2 -0.003047 0.009515 -0.004017 0.000000 0.001235 0.000000
# 3 0.001623 -0.004017 0.012976 0.000000 0.007080 0.000000
# 4 0.000000 0.000000 0.000000 0.019534 0.000000 0.024099
# 5 0.002934 0.001235 0.007080 0.000000 0.043652 0.000000
# 6 0.000000 0.000000 0.000000 0.024099 0.000000 0.117644
#
#
# Mechanical properties :
#
#
# Convention : Reuss Voigt Hill
#
# Bulk Modulus (GPa) = 37.61176 50.11088 43.86132
# Shear Modulus (GPa) = 21.00457 36.96418 28.98437
#
# Velocity S-wave (km/s) = 2.92114 3.87513 3.43145
# Velocity P-wave (km/s) = 5.16305 6.35450 5.78951
#
# Compressibility (1/GPa) = 0.02658743
#
# Stress axis : x y z
#
# Youngs Moduli (GPa) = 66.76256 105.10230 77.06239
#
# Poissons Ratio (x) = 0.32026 -0.12505
# Poissons Ratio (y) = 0.20344 0.30953
# Poissons Ratio (z) = -0.10834 0.42215
#
# Static dielectric constant tensor:
#      x y z
#    x 2.090310 0.000000 -0.091740 
#    y 0.000000 1.881740 0.000000 
#    z -0.091740 0.000000 2.098970 
# 
# From -- ./inp_files/129361.got.cif
#   From: 2010.05.17/outbox.cif.g08.bks.cpg/sg15_65_cif.got.tgz:129361.got - 2010.06.03 18:47:42.
