data_PCOD9304872
_publ_section_title
;
Structure prediction by ZEFSAII (Michael W. Deem and Ramdas Pophale) SiO2 
 PCOD9304872
Probable space group: C 2/C
;
_chemical_formula_sum "Si O2"
_cell_formula_units_Z 32
_cell_length_a 21.566187
_cell_length_b 4.853792
_cell_length_c 14.218930
_cell_angle_alpha 90.000000
_cell_angle_beta 53.928571
_cell_angle_gamma 90.000000
_cell_volume 1203.054236
_symmetry_space_group_name_H-M "C 2/C"
_symmetry_group_IT_number 15
_symmetry_cell_setting 'monoclinic'
loop_
_space_group_symop_operation_xyz
x,y,z
-x,y,1/2-z
-x,-y,-z
x,-y,1/2+z
1/2+x,1/2+y,z
1/2-x,1/2+y,1/2-z
1/2-x,1/2-y,-z
1/2+x,1/2-y,1/2+z
loop_
_atom_site_type_symbol
_atom_site_label
_atom_site_fract_x
_atom_site_fract_y
_atom_site_fract_z
Si Si1 0.038325 0.047155 0.814907
Si Si2 0.322806 0.297286 0.069957
Si Si3 0.409181 0.793281 0.064112
Si Si4 0.305984 0.456964 0.392873
O O1 0.061508 0.789215 0.859612
O O2 0.000000 0.977584 0.750000
O O3 0.120518 0.186291 0.718132
O O4 0.976469 0.214459 0.930841
O O5 0.337333 0.594535 0.101421
O O6 0.382335 0.099327 0.068001
O O7 0.241662 0.141698 0.138062
O O8 0.337716 0.339295 0.945512
O O9 0.250000 0.250000 0.500000
#
# Coordination Sequence:
#
# PCOD9304872 Si02
#       4
#     8   8   8   8
#     4  11  24  49  73 113 150 204 248 314 380 451
#     4  11  23  49  71 106 148 191 253 307 373 439
#     4  11  26  49  73 110 150 197 255 312 369 460
#     4  11  23  47  78 108 151 196 247 317 378 454
#
# _framework density 26.598966000000001
#
# number of rings (size 3 to 8) (size 9 to 14) (size 15 to 20)
#    0.000    1.000    5.000    0.000    0.000    6.000 
#   31.500    0.000    0.000    0.000    0.000    0.000 
#    0.000    0.000    0.000    0.000    0.000    0.000 
#
# Total GULP energy -89656.331886 kJ/mol
# GULP energy per Si atom -5603.520743 kJ/mol
# Density = 2.653843 g / cm^3
# Si number density = 26.598966 Si / 1000 Ang^3
#
#
#
# Elastic Constant Matrix: (Units=GPa)
#
#
# Indices 1 2 3 4 5 6 
#
# 1 144.4985 18.6609 66.0939 0.0031 17.7134 0.0007
# 2 18.6609 88.1671 15.4793 -0.0110 9.9976 0.0185
# 3 66.0939 15.4793 173.5680 -0.0022 -2.3990 0.0010
# 4 0.0031 -0.0110 -0.0022 18.8735 0.0003 6.3051
# 5 17.7134 9.9976 -2.3990 0.0003 45.8052 0.0027
# 6 0.0007 0.0185 0.0010 6.3051 0.0027 35.5733
#
#
#
# Elastic Compliance Matrix: (Units=1/GPa)
#
#
# Indices 1 2 3 4 5 6 
#
# 1 0.009019 -0.000919 -0.003400 -0.000003 -0.003465 0.000001
# 2 -0.000919 0.011927 -0.000745 0.000010 -0.002287 -0.000008
# 3 -0.003400 -0.000745 0.007148 0.000001 0.001852 0.000000
# 4 -0.000003 0.000010 0.000001 0.056319 -0.000001 -0.009982
# 5 -0.003465 -0.002287 0.001852 -0.000001 0.023768 0.000000
# 6 0.000001 -0.000008 0.000000 -0.009982 0.000000 0.029880
#
#
# Mechanical properties :
#
#
# Convention : Reuss Voigt Hill
#
# Bulk Modulus (GPa) = 55.66405 67.41132 61.53769
# Shear Modulus (GPa) = 32.42971 40.45036 36.44004
#
# Velocity S-wave (km/s) = 3.49551 3.90391 3.70534
# Velocity P-wave (km/s) = 6.10442 6.76160 6.44140
#
# Compressibility (1/GPa) = 0.01796491
#
# Stress axis : x y z
#
# Youngs Moduli (GPa) = 110.87265 83.84496 139.89180
#
# Poissons Ratio (x) = 0.07705 0.47570
# Poissons Ratio (y) = 0.10189 0.10426
# Poissons Ratio (z) = 0.37702 0.06249
#
# Static dielectric constant tensor:
#      x y z
#    x 2.102710 -0.000010 -0.039000 
#    y -0.000010 2.045330 0.000000 
#    z -0.039000 0.000000 2.101890 
# 
# From -- ./inp_files/170377.got.cif
#   From: 2010.05.17/outbox.cif.g08.bks.cpg/sg15_86_cif.got.tgz:170377.got - 2010.06.03 18:47:42.
