data_PCOD9304779
_publ_section_title
;
Structure prediction by ZEFSAII (Michael W. Deem and Ramdas Pophale) SiO2 
 PCOD9304779
Probable space group: C 2/C
;
_chemical_formula_sum "Si O2"
_cell_formula_units_Z 36
_cell_length_a 14.307480
_cell_length_b 7.974028
_cell_length_c 12.313266
_cell_angle_alpha 90.000000
_cell_angle_beta 107.773903
_cell_angle_gamma 90.000000
_cell_volume 1337.745807
_symmetry_space_group_name_H-M "C 2/C"
_symmetry_group_IT_number 15
_symmetry_cell_setting 'monoclinic'
loop_
_space_group_symop_operation_xyz
x,y,z
-x,y,1/2-z
-x,-y,-z
x,-y,1/2+z
1/2+x,1/2+y,z
1/2-x,1/2+y,1/2-z
1/2-x,1/2-y,-z
1/2+x,1/2-y,1/2+z
loop_
_atom_site_type_symbol
_atom_site_label
_atom_site_fract_x
_atom_site_fract_y
_atom_site_fract_z
Si Si1 0.783964 0.337953 0.176596
Si Si2 0.000000 0.510999 0.250000
Si Si3 0.014438 0.243453 0.956780
Si Si4 0.579270 0.611160 0.376258
Si Si5 0.214852 0.197068 0.104688
O O1 0.812659 0.160697 0.129288
O O2 0.735989 0.280666 0.273464
O O3 0.721272 0.496884 0.115588
O O4 0.894239 0.419048 0.212039
O O5 0.999476 0.621558 0.359366
O O6 0.047921 0.072923 0.907390
O O7 0.106166 0.271367 0.068849
O O8 0.931156 0.221839 0.017261
O O9 0.500000 0.635309 0.250000
O O10 0.250000 0.250000 0.000000
#
# Coordination Sequence:
#
# PCOD9304779 Si02
#       5
#     8   4   8   8   8
#     4  12  28  46  75 103 154 188 251 298 370 435
#     4  12  24  46  78 106 142 196 246 302 358 446
#     4  11  25  44  76 105 146 184 248 301 369 434
#     4  11  23  46  74 105 139 195 245 301 359 443
#     4  12  28  47  69 110 148 192 240 308 373 434
#
# _framework density 26.910941999999999
#
# number of rings (size 3 to 8) (size 9 to 14) (size 15 to 20)
#    0.000    0.444    6.667    0.000    6.222    6.222 
#    0.000    0.000    0.000    0.000    0.000    0.000 
#    0.000    0.000    0.000    0.000    0.000    0.000 
#
# Total GULP energy -100615.493928 kJ/mol
# GULP energy per Si atom -5589.749663 kJ/mol
# Density = 2.684969 g / cm^3
# Si number density = 26.910942 Si / 1000 Ang^3
#
#
#
# Elastic Constant Matrix: (Units=GPa)
#
#
# Indices 1 2 3 4 5 6 
#
# 1 65.8729 11.1624 26.9936 0.0000 -21.6223 0.0000
# 2 11.1624 94.8794 64.9198 0.0000 -26.4091 0.0000
# 3 26.9936 64.9198 136.6758 0.0000 -49.3304 0.0000
# 4 0.0000 0.0000 0.0000 65.8227 0.0000 -10.3969
# 5 -21.6223 -26.4091 -49.3304 0.0000 59.2911 0.0000
# 6 0.0000 0.0000 0.0000 -10.3969 0.0000 29.1973
#
#
#
# Elastic Compliance Matrix: (Units=1/GPa)
#
#
# Indices 1 2 3 4 5 6 
#
# 1 0.017531 0.000690 -0.001960 0.000000 0.005070 0.000000
# 2 0.000690 0.015694 -0.007113 0.000000 0.001324 0.000000
# 3 -0.001960 -0.007113 0.013836 0.000000 0.007628 0.000000
# 4 0.000000 0.000000 0.000000 0.016098 0.000000 0.005732
# 5 0.005070 0.001324 0.007628 0.000000 0.025651 0.000000
# 6 0.000000 0.000000 0.000000 0.005732 0.000000 0.036291
#
#
# Mechanical properties :
#
#
# Convention : Reuss Voigt Hill
#
# Bulk Modulus (GPa) = 33.00985 55.95330 44.48157
# Shear Modulus (GPa) = 32.90229 43.81904 38.36067
#
# Velocity S-wave (km/s) = 3.50042 4.03960 3.77963
# Velocity P-wave (km/s) = 5.35072 6.52648 5.96763
#
# Compressibility (1/GPa) = 0.03029399
#
# Stress axis : x y z
#
# Youngs Moduli (GPa) = 57.04111 63.71895 72.27767
#
# Poissons Ratio (x) = -0.04396 0.14169
# Poissons Ratio (y) = -0.03935 0.51410
# Poissons Ratio (z) = 0.11182 0.45322
#
# Static dielectric constant tensor:
#      x y z
#    x 2.637870 0.000000 0.058910 
#    y 0.000000 2.203020 0.000000 
#    z 0.058910 0.000000 2.155870 
# 
# From -- ./inp_files/102437.got.cif
#   From: 2010.05.17/outbox.cif.g08.bks.cpg/sg15_52_cif.got.tgz:102437.got - 2010.06.03 18:47:42.
