data_PCOD9304025
_publ_section_title
;
Structure prediction by ZEFSAII (Michael W. Deem and Ramdas Pophale) SiO2 
 PCOD9304025
Probable space group: C 2/C
;
_chemical_formula_sum "Si O2"
_cell_formula_units_Z 40
_cell_length_a 22.294101
_cell_length_b 5.276406
_cell_length_c 15.471825
_cell_angle_alpha 90.000000
_cell_angle_beta 120.299583
_cell_angle_gamma 90.000000
_cell_volume 1571.380529
_symmetry_space_group_name_H-M "C 2/C"
_symmetry_group_IT_number 15
_symmetry_cell_setting 'monoclinic'
loop_
_space_group_symop_operation_xyz
x,y,z
-x,y,1/2-z
-x,-y,-z
x,-y,1/2+z
1/2+x,1/2+y,z
1/2-x,1/2+y,1/2-z
1/2-x,1/2-y,-z
1/2+x,1/2-y,1/2+z
loop_
_atom_site_type_symbol
_atom_site_label
_atom_site_fract_x
_atom_site_fract_y
_atom_site_fract_z
Si Si1 0.465233 0.695568 0.911923
Si Si2 0.111966 0.582858 0.522216
Si Si3 0.851668 0.656296 0.622523
Si Si4 0.707906 0.289229 0.734003
Si Si5 0.578677 0.357938 0.292983
O O1 0.416769 0.572479 0.804690
O O2 0.417121 0.877612 0.931978
O O3 0.500000 0.500000 0.000000
O O4 0.536936 0.826429 0.927498
O O5 0.161127 0.469797 0.481720
O O6 0.151604 0.773857 0.614355
O O7 0.807445 0.695951 0.677889
O O8 0.905792 0.439834 0.693887
O O9 0.876010 0.943957 0.620582
O O10 0.738842 0.569912 0.758943
O O11 0.500000 0.428755 0.250000
#
# Coordination Sequence:
#
# PCOD9304025 Si02
#       5
#     8   8   8   8   8
#     4  11  23  41  71 109 149 186 224 292 366 449
#     4  11  26  44  72 109 142 189 240 291 365 435
#     4  12  26  46  71 107 143 188 241 294 355 430
#     4  12  29  51  74  98 141 197 254 310 349 408
#     4  12  23  41  70 111 151 183 222 286 371 441
#
# _framework density 25.455324000000001
#
# number of rings (size 3 to 8) (size 9 to 14) (size 15 to 20)
#    0.000    0.400    4.000    4.200    5.600    1.600 
#    0.000    0.000    0.000    0.000    0.000    0.000 
#    0.000    0.000    0.000    0.000    0.000    0.000 
#
# Total GULP energy -111467.218038 kJ/mol
# GULP energy per Si atom -5573.360902 kJ/mol
# Density = 2.539739 g / cm^3
# Si number density = 25.455324 Si / 1000 Ang^3
#
#
#
# Elastic Constant Matrix: (Units=GPa)
#
#
# Indices 1 2 3 4 5 6 
#
# 1 78.3310 -8.1919 19.3995 0.0000 -29.4509 0.0000
# 2 -8.1919 60.0853 -13.2020 -0.0001 14.9304 0.0000
# 3 19.3995 -13.2020 97.8807 0.0000 -4.9475 0.0000
# 4 0.0000 -0.0001 0.0000 22.9918 0.0000 13.7764
# 5 -29.4509 14.9304 -4.9475 0.0000 36.2938 0.0000
# 6 0.0000 0.0000 0.0000 13.7764 0.0000 32.7939
#
#
#
# Elastic Compliance Matrix: (Units=1/GPa)
#
#
# Indices 1 2 3 4 5 6 
#
# 1 0.019462 -0.002103 -0.003322 0.000000 0.016205 0.000000
# 2 -0.002103 0.019217 0.002540 0.000000 -0.009266 0.000000
# 3 -0.003322 0.002540 0.011105 0.000000 -0.002227 0.000000
# 4 0.000000 0.000000 0.000000 0.058124 0.000000 -0.024417
# 5 0.016205 -0.009266 -0.002227 0.000000 0.044211 0.000000
# 6 0.000000 0.000000 0.000000 -0.024417 0.000000 0.040751
#
#
# Mechanical properties :
#
#
# Convention : Reuss Voigt Hill
#
# Bulk Modulus (GPa) = 22.71983 25.81204 24.26594
# Shear Modulus (GPa) = 23.44004 34.30198 28.87101
#
# Velocity S-wave (km/s) = 3.03781 3.67486 3.37142
# Velocity P-wave (km/s) = 4.60968 5.30738 4.97079
#
# Compressibility (1/GPa) = 0.04401442
#
# Stress axis : x y z
#
# Youngs Moduli (GPa) = 51.38291 52.03764 90.04962
#
# Poissons Ratio (x) = 0.10945 0.29913
# Poissons Ratio (y) = 0.10807 -0.22877
# Poissons Ratio (z) = 0.17069 -0.13220
#
# Static dielectric constant tensor:
#      x y z
#    x 2.232810 0.000000 -0.062040 
#    y 0.000000 1.979200 0.000000 
#    z -0.062040 0.000000 1.948820 
# 
# From -- ./inp_files/170918.got.cif
#   From: 2010.05.17/outbox.cif.g08.bks.cpg/sg15_86_cif.got.tgz:170918.got - 2010.06.03 18:47:42.
