data_PCOD9304648
_publ_section_title
;
Structure prediction by ZEFSAII (Michael W. Deem and Ramdas Pophale) SiO2 
 PCOD9304648
Probable space group: C 2/C
;
_chemical_formula_sum "Si O2"
_cell_formula_units_Z 40
_cell_length_a 24.964387
_cell_length_b 14.462266
_cell_length_c 10.872310
_cell_angle_alpha 90.000000
_cell_angle_beta 29.136023
_cell_angle_gamma 90.000000
_cell_volume 1911.195677
_symmetry_space_group_name_H-M "C 2/C"
_symmetry_group_IT_number 15
_symmetry_cell_setting 'monoclinic'
loop_
_space_group_symop_operation_xyz
x,y,z
-x,y,1/2-z
-x,-y,-z
x,-y,1/2+z
1/2+x,1/2+y,z
1/2-x,1/2+y,1/2-z
1/2-x,1/2-y,-z
1/2+x,1/2-y,1/2+z
loop_
_atom_site_type_symbol
_atom_site_label
_atom_site_fract_x
_atom_site_fract_y
_atom_site_fract_z
Si Si1 0.007430 0.366937 0.366805
Si Si2 0.765093 0.357460 0.949516
Si Si3 0.688269 0.986555 0.422942
Si Si4 0.900064 0.668511 0.549226
Si Si5 0.870609 0.131961 0.005342
O O1 0.080256 0.457754 0.187625
O O2 0.058246 0.327409 0.392709
O O3 0.000000 0.313059 0.250000
O O4 0.878967 0.381298 0.652342
O O5 0.776704 0.408126 0.052934
O O6 0.662513 0.379206 0.070256
O O7 0.750000 0.250000 0.000000
O O8 0.668084 0.925642 0.339680
O O9 0.787108 0.059375 0.230703
O O10 0.847830 0.766439 0.610842
O O11 0.000000 0.659064 0.250000
O O12 0.000000 0.115482 0.750000
#
# Coordination Sequence:
#
# PCOD9304648 Si02
#       5
#     8   8   8   8   8
#     4  12  25  41  74 112 135 172 248 299 341 406
#     4  12  23  45  70 101 142 189 227 289 357 412
#     4  12  24  42  76 104 140 181 244 293 344 419
#     4  11  23  45  72 102 143 185 228 292 357 406
#     4  11  25  46  66 100 146 191 229 284 359 428
#
# _framework density 20.929306
#
# number of rings (size 3 to 8) (size 9 to 14) (size 15 to 20)
#    0.000    0.400    6.000    3.600    0.000    1.600 
#    0.000    3.000    0.000    0.000    0.000    0.000 
#    0.000    0.000    0.000    0.000    0.000    0.000 
#
# Total GULP energy -111506.391949 kJ/mol
# GULP energy per Si atom -5575.319597 kJ/mol
# Density = 2.088167 g / cm^3
# Si number density = 20.929306 Si / 1000 Ang^3
#
#
#
# Elastic Constant Matrix: (Units=GPa)
#
#
# Indices 1 2 3 4 5 6 
#
# 1 147.9611 14.2034 38.2067 0.0000 -4.0238 0.0000
# 2 14.2034 122.7427 64.4748 0.0000 -5.8619 0.0000
# 3 38.2067 64.4748 89.0675 0.0000 -31.2023 0.0000
# 4 0.0000 0.0000 0.0000 10.4286 0.0000 -1.4257
# 5 -4.0238 -5.8619 -31.2023 0.0000 38.5849 0.0000
# 6 0.0000 0.0000 0.0000 -1.4257 0.0000 32.5398
#
#
#
# Elastic Compliance Matrix: (Units=1/GPa)
#
#
# Indices 1 2 3 4 5 6 
#
# 1 0.008139 0.002359 -0.006664 0.000000 -0.004182 0.000000
# 2 0.002359 0.015846 -0.016119 0.000000 -0.010382 0.000000
# 3 -0.006664 -0.016119 0.034398 0.000000 0.024673 0.000000
# 4 0.000000 0.000000 0.000000 0.096468 0.000000 0.004227
# 5 -0.004182 -0.010382 0.024673 0.000000 0.043856 0.000000
# 6 0.000000 0.000000 0.000000 0.004227 0.000000 0.030917
#
#
# Mechanical properties :
#
#
# Convention : Reuss Voigt Hill
#
# Bulk Modulus (GPa) = 57.03194 65.94902 61.49048
# Shear Modulus (GPa) = 18.09522 32.50310 25.29916
#
# Velocity S-wave (km/s) = 2.94358 3.94508 3.48054
# Velocity P-wave (km/s) = 6.23392 7.23397 6.75249
#
# Compressibility (1/GPa) = 0.01753404
#
# Stress axis : x y z
#
# Youngs Moduli (GPa) = 122.86311 63.10934 29.07155
#
# Poissons Ratio (x) = -0.14887 0.19373
# Poissons Ratio (y) = -0.28982 0.46861
# Poissons Ratio (z) = 0.81875 1.01727
#
# Static dielectric constant tensor:
#      x y z
#    x 1.819480 0.000000 0.017600 
#    y 0.000000 1.793350 0.000000 
#    z 0.017600 0.000000 1.742300 
# 
# From -- ./inp_files/118674.got.cif
#   From: 2010.05.17/outbox.cif.g08.bks.cpg/sg15_60_cif.got.tgz:118674.got - 2010.06.03 18:47:42.
