data_PCOD9304588
_publ_section_title
;
Structure prediction by ZEFSAII (Michael W. Deem and Ramdas Pophale) SiO2 
 PCOD9304588
Probable space group: C 2/C
;
_chemical_formula_sum "Si O2"
_cell_formula_units_Z 48
_cell_length_a 30.876652
_cell_length_b 13.521194
_cell_length_c 9.774176
_cell_angle_alpha 90.000000
_cell_angle_beta 33.519137
_cell_angle_gamma 90.000000
_cell_volume 2253.377613
_symmetry_space_group_name_H-M "C 2/C"
_symmetry_group_IT_number 15
_symmetry_cell_setting 'monoclinic'
loop_
_space_group_symop_operation_xyz
x,y,z
-x,y,1/2-z
-x,-y,-z
x,-y,1/2+z
1/2+x,1/2+y,z
1/2-x,1/2+y,1/2-z
1/2-x,1/2-y,-z
1/2+x,1/2-y,1/2+z
loop_
_atom_site_type_symbol
_atom_site_label
_atom_site_fract_x
_atom_site_fract_y
_atom_site_fract_z
Si Si1 0.798735 0.592099 0.313786
Si Si2 0.615740 0.584716 0.753416
Si Si3 0.916456 0.236724 0.434729
Si Si4 0.416019 0.726549 0.903308
Si Si5 0.688014 0.092059 0.901279
Si Si6 0.357205 0.357689 0.829206
O O1 0.709350 0.604224 0.500427
O O2 0.847029 0.691728 0.164360
O O3 0.798515 0.566613 0.475214
O O4 0.833859 0.503872 0.130047
O O5 0.588148 0.635637 0.965890
O O6 0.577526 0.641726 0.727800
O O7 0.606187 0.467443 0.774057
O O8 0.905298 0.210623 0.306447
O O9 0.000000 0.283648 0.250000
O O10 0.500000 0.746190 0.750000
O O11 0.376962 0.823111 0.940492
O O12 0.359357 0.687716 0.173206
O O13 0.770215 0.130660 0.621097
#
# Coordination Sequence:
#
# PCOD9304588 Si02
#       6
#     8   8   8   8   8   8
#     4  11  25  45  72  96 128 174 223 281 322 385
#     4  11  23  45  67  94 136 172 221 269 324 386
#     4  12  24  42  67  98 134 175 215 267 337 393
#     4  12  26  43  66 100 140 174 214 272 330 391
#     4  11  25  46  70  97 129 172 228 276 323 384
#     4  11  25  40  70 100 127 178 221 267 325 392
#
# _framework density 21.301356999999999
#
# number of rings (size 3 to 8) (size 9 to 14) (size 15 to 20)
#    0.000    0.667    3.333    4.000    9.333    4.667 
#    0.000    1.667    0.000    0.000    0.000    0.000 
#    0.000    0.000    0.000    0.000    0.000    0.000 
#
# Total GULP energy -134398.806663 kJ/mol
# GULP energy per Si atom -5599.950278 kJ/mol
# Density = 2.125287 g / cm^3
# Si number density = 21.301357 Si / 1000 Ang^3
#
#
#
# Elastic Constant Matrix: (Units=GPa)
#
#
# Indices 1 2 3 4 5 6 
#
# 1 85.0851 22.5869 6.8774 0.0000 2.0647 0.0000
# 2 22.5869 59.3418 14.8713 0.0000 -2.5465 0.0000
# 3 6.8774 14.8713 44.9474 0.0000 2.8271 0.0000
# 4 0.0000 0.0000 0.0000 4.3587 0.0000 7.5675
# 5 2.0647 -2.5465 2.8271 0.0000 36.3218 0.0000
# 6 0.0000 0.0000 0.0000 7.5675 0.0000 27.9599
#
#
#
# Elastic Compliance Matrix: (Units=1/GPa)
#
#
# Indices 1 2 3 4 5 6 
#
# 1 0.013121 -0.004966 -0.000297 0.000000 -0.001071 0.000000
# 2 -0.004966 0.020368 -0.006117 0.000000 0.002186 0.000000
# 3 -0.000297 -0.006117 0.024463 0.000000 -0.002316 0.000000
# 4 0.000000 0.000000 0.000000 0.432809 0.000000 -0.117143
# 5 -0.001071 0.002186 -0.002316 0.000000 0.027926 0.000000
# 6 0.000000 0.000000 0.000000 -0.117143 0.000000 0.067471
#
#
# Mechanical properties :
#
#
# Convention : Reuss Voigt Hill
#
# Bulk Modulus (GPa) = 28.41469 30.89393 29.65431
# Shear Modulus (GPa) = 8.05608 23.39733 15.72670
#
# Velocity S-wave (km/s) = 1.94683 3.31780 2.72011
# Velocity P-wave (km/s) = 4.29207 5.40480 4.88025
#
# Compressibility (1/GPa) = 0.03519306
#
# Stress axis : x y z
#
# Youngs Moduli (GPa) = 76.21282 49.09597 40.87771
#
# Poissons Ratio (x) = 0.24379 0.01216
# Poissons Ratio (y) = 0.37845 0.25004
# Poissons Ratio (z) = 0.02266 0.30031
#
# Static dielectric constant tensor:
#      x y z
#    x 1.733040 0.000000 -0.017030 
#    y 0.000000 1.742590 0.000000 
#    z -0.017030 0.000000 1.795050 
# 
# From -- ./inp_files/66413.got.cif
#   From: 2010.05.17/outbox.cif.g08.bks.cpg/sg15_34_cif.got.tgz:66413.got - 2010.06.03 18:47:42.
