data_PCOD9304592
_publ_section_title
;
Structure prediction by ZEFSAII (Michael W. Deem and Ramdas Pophale) SiO2 
 PCOD9304592
Probable space group: C 2/C
;
_chemical_formula_sum "Si O2"
_cell_formula_units_Z 32
_cell_length_a 14.555580
_cell_length_b 10.272565
_cell_length_c 9.522116
_cell_angle_alpha 90.000000
_cell_angle_beta 113.659564
_cell_angle_gamma 90.000000
_cell_volume 1304.102625
_symmetry_space_group_name_H-M "C 2/C"
_symmetry_group_IT_number 15
_symmetry_cell_setting 'monoclinic'
loop_
_space_group_symop_operation_xyz
x,y,z
-x,y,1/2-z
-x,-y,-z
x,-y,1/2+z
1/2+x,1/2+y,z
1/2-x,1/2+y,1/2-z
1/2-x,1/2-y,-z
1/2+x,1/2-y,1/2+z
loop_
_atom_site_type_symbol
_atom_site_label
_atom_site_fract_x
_atom_site_fract_y
_atom_site_fract_z
Si Si1 0.421896 0.643263 0.882108
Si Si2 0.412609 0.630624 0.296999
Si Si3 0.289125 0.871199 0.140771
Si Si4 0.605746 0.071160 0.092222
O O1 0.400459 0.523894 0.764263
O O2 0.331228 0.622961 0.939213
O O3 0.410332 0.793285 0.834364
O O4 0.532232 0.633750 0.017641
O O5 0.500000 0.683723 0.250000
O O6 0.322639 0.730972 0.224699
O O7 0.326510 0.977052 0.274082
O O8 0.343663 0.899610 0.027558
O O9 0.500000 0.000000 0.000000
#
# Coordination Sequence:
#
# PCOD9304592 Si02
#       4
#     8   8   8   8
#     4  11  25  42  69 100 138 181 231 279 346 412
#     4  11  23  45  67  98 141 183 223 290 343 403
#     4  12  25  46  74 102 139 185 231 283 349 411
#     4  12  24  46  71 104 140 182 228 290 341 411
#
# _framework density 24.537946000000002
#
# number of rings (size 3 to 8) (size 9 to 14) (size 15 to 20)
#    0.000    0.500    5.000    3.000    3.500    2.000 
#    0.000    2.500    0.000    0.000    0.000    0.000 
#    0.000    0.000    0.000    0.000    0.000    0.000 
#
# Total GULP energy -89497.998447 kJ/mol
# GULP energy per Si atom -5593.624903 kJ/mol
# Density = 2.448210 g / cm^3
# Si number density = 24.537946 Si / 1000 Ang^3
#
#
#
# Elastic Constant Matrix: (Units=GPa)
#
#
# Indices 1 2 3 4 5 6 
#
# 1 114.6983 25.8473 30.9797 0.0000 13.4352 0.0000
# 2 25.8473 203.0431 64.0716 0.0000 9.0298 0.0000
# 3 30.9797 64.0716 100.3344 0.0000 11.6631 0.0000
# 4 0.0000 0.0000 0.0000 54.9805 0.0000 7.5026
# 5 13.4352 9.0298 11.6631 0.0000 34.5431 0.0000
# 6 0.0000 0.0000 0.0000 7.5026 0.0000 34.0946
#
#
#
# Elastic Compliance Matrix: (Units=1/GPa)
#
#
# Indices 1 2 3 4 5 6 
#
# 1 0.009801 -0.000338 -0.002474 0.000000 -0.002888 0.000000
# 2 -0.000338 0.006183 -0.003821 0.000000 -0.000194 0.000000
# 3 -0.002474 -0.003821 0.013471 0.000000 -0.002587 0.000000
# 4 0.000000 0.000000 0.000000 0.018751 0.000000 -0.004126
# 5 -0.002888 -0.000194 -0.002587 0.000000 0.030997 0.000000
# 6 0.000000 0.000000 0.000000 -0.004126 0.000000 0.030238
#
#
# Mechanical properties :
#
#
# Convention : Reuss Voigt Hill
#
# Bulk Modulus (GPa) = 61.77536 73.31921 67.54728
# Shear Modulus (GPa) = 39.03032 44.53545 41.78289
#
# Velocity S-wave (km/s) = 3.99257 4.26486 4.13096
# Velocity P-wave (km/s) = 6.81794 7.36185 7.09511
#
# Compressibility (1/GPa) = 0.01618768
#
# Stress axis : x y z
#
# Youngs Moduli (GPa) = 102.02567 161.74651 74.23118
#
# Poissons Ratio (x) = 0.05474 0.18368
# Poissons Ratio (y) = 0.03453 0.28363
# Poissons Ratio (z) = 0.25246 0.61802
#
# Static dielectric constant tensor:
#      x y z
#    x 1.966500 0.000000 -0.024380 
#    y 0.000000 1.965810 0.000000 
#    z -0.024380 0.000000 1.957650 
# 
# From -- ./inp_files/93450.got.cif
#   From: 2010.05.17/outbox.cif.g08.bks.cpg/sg15_47_cif.got.tgz:93450.got - 2010.06.03 18:47:42.
