data_PCOD9304584
_publ_section_title
;
Structure prediction by ZEFSAII (Michael W. Deem and Ramdas Pophale) SiO2 
 PCOD9304584
Probable space group: C 2/C
;
_chemical_formula_sum "Si O2"
_cell_formula_units_Z 64
_cell_length_a 18.234948
_cell_length_b 13.550902
_cell_length_c 12.195792
_cell_angle_alpha 90.000000
_cell_angle_beta 99.292486
_cell_angle_gamma 90.000000
_cell_volume 2974.032612
_symmetry_space_group_name_H-M "C 2/C"
_symmetry_group_IT_number 15
_symmetry_cell_setting 'monoclinic'
loop_
_space_group_symop_operation_xyz
x,y,z
-x,y,1/2-z
-x,-y,-z
x,-y,1/2+z
1/2+x,1/2+y,z
1/2-x,1/2+y,1/2-z
1/2-x,1/2-y,-z
1/2+x,1/2-y,1/2+z
loop_
_atom_site_type_symbol
_atom_site_label
_atom_site_fract_x
_atom_site_fract_y
_atom_site_fract_z
Si Si1 0.591883 0.889546 0.553838
Si Si2 0.235830 0.132915 0.423580
Si Si3 0.287210 0.422134 0.183786
Si Si4 0.834060 0.276602 0.268756
Si Si5 0.508440 0.713778 0.625495
Si Si6 0.138759 0.155284 0.011342
Si Si7 0.963971 0.581858 0.847781
Si Si8 0.876997 0.933056 0.419467
O O1 0.675144 0.857086 0.541552
O O2 0.558532 0.811688 0.632370
O O3 0.532582 0.886448 0.440789
O O4 0.585476 0.000909 0.599631
O O5 0.194498 0.217169 0.343644
O O6 0.188883 0.112273 0.521960
O O7 0.229877 0.033209 0.352077
O O8 0.220336 0.367953 0.226564
O O9 0.306686 0.363940 0.077343
O O10 0.353292 0.426542 0.287032
O O11 0.827847 0.205114 0.372890
O O12 0.915712 0.325245 0.294199
O O13 0.500000 0.682917 0.750000
O O14 0.427443 0.722690 0.552055
O O15 0.550427 0.633964 0.559872
O O16 0.112093 0.045264 0.039240
O O17 0.000000 0.531761 0.750000
#
# Coordination Sequence:
#
# PCOD9304584 Si02
#       8
#     8   8   8   8   8   8   8   8
#     4  11  25  48  69 101 140 181 237 282 343 422
#     4  11  26  42  73 107 136 183 229 290 346 405
#     4  11  23  45  67 100 137 179 228 286 337 408
#     4  12  24  45  71 100 141 180 229 284 345 420
#     4  12  24  43  70  99 136 182 230 280 347 413
#     4  11  24  45  67 102 136 181 230 279 350 404
#     4  11  26  46  70 100 142 184 229 287 347 410
#     4  11  25  45  69 102 142 174 235 285 341 413
#
# _framework density 21.519603
#
# number of rings (size 3 to 8) (size 9 to 14) (size 15 to 20)
#    0.000    0.750    5.000    1.875    3.500    1.000 
#    0.000    0.625    0.000    0.000    0.000    0.000 
#    0.000    0.000    0.000    0.000    0.000    0.000 
#
# Total GULP energy -178833.732919 kJ/mol
# GULP energy per Si atom -5588.554154 kJ/mol
# Density = 2.147062 g / cm^3
# Si number density = 21.519603 Si / 1000 Ang^3
#
#
#
# Elastic Constant Matrix: (Units=GPa)
#
#
# Indices 1 2 3 4 5 6 
#
# 1 101.3203 36.9507 33.2660 0.0000 9.4159 0.0000
# 2 36.9507 93.0789 32.7281 0.0000 -1.3526 0.0000
# 3 33.2660 32.7281 83.5692 0.0000 -6.9110 0.0000
# 4 0.0000 0.0000 0.0000 40.0954 0.0000 1.4549
# 5 9.4159 -1.3526 -6.9110 0.0000 25.4106 0.0000
# 6 0.0000 0.0000 0.0000 1.4549 0.0000 35.2855
#
#
#
# Elastic Compliance Matrix: (Units=1/GPa)
#
#
# Indices 1 2 3 4 5 6 
#
# 1 0.013268 -0.003848 -0.004294 0.000000 -0.006289 0.000000
# 2 -0.003848 0.013587 -0.003694 0.000000 0.001144 0.000000
# 3 -0.004294 -0.003694 0.015588 0.000000 0.005634 0.000000
# 4 0.000000 0.000000 0.000000 0.024978 0.000000 -0.001030
# 5 -0.006289 0.001144 0.005634 0.000000 0.043277 0.000000
# 6 0.000000 0.000000 0.000000 -0.001030 0.000000 0.028383
#
#
# Mechanical properties :
#
#
# Convention : Reuss Voigt Hill
#
# Bulk Modulus (GPa) = 53.28083 53.76202 53.52142
# Shear Modulus (GPa) = 29.58379 31.82654 30.70516
#
# Velocity S-wave (km/s) = 3.71177 3.84989 3.78146
# Velocity P-wave (km/s) = 6.57134 6.69323 6.63256
#
# Compressibility (1/GPa) = 0.01876848
#
# Stress axis : x y z
#
# Youngs Moduli (GPa) = 75.37179 73.59971 64.15050
#
# Poissons Ratio (x) = 0.28324 0.27548
# Poissons Ratio (y) = 0.29006 0.23700
# Poissons Ratio (z) = 0.32367 0.27191
#
# Static dielectric constant tensor:
#      x y z
#    x 1.784200 0.000000 -0.000230 
#    y 0.000000 1.779670 0.000000 
#    z -0.000230 0.000000 1.759390 
# 
# From -- ./inp_files/117577.got.cif
#   From: 2010.05.17/outbox.cif.g08.bks.cpg/sg15_59_cif.got.tgz:117577.got - 2010.06.03 18:47:42.
