data_PCOD9304879
_publ_section_title
;
Structure prediction by ZEFSAII (Michael W. Deem and Ramdas Pophale) SiO2 
 PCOD9304879
Probable space group: C 2/C
;
_chemical_formula_sum "Si O2"
_cell_formula_units_Z 44
_cell_length_a 13.885319
_cell_length_b 6.302045
_cell_length_c 24.168660
_cell_angle_alpha 90.000000
_cell_angle_beta 78.030913
_cell_angle_gamma 90.000000
_cell_volume 2068.921759
_symmetry_space_group_name_H-M "C 2/C"
_symmetry_group_IT_number 15
_symmetry_cell_setting 'monoclinic'
loop_
_space_group_symop_operation_xyz
x,y,z
-x,y,1/2-z
-x,-y,-z
x,-y,1/2+z
1/2+x,1/2+y,z
1/2-x,1/2+y,1/2-z
1/2-x,1/2-y,-z
1/2+x,1/2-y,1/2+z
loop_
_atom_site_type_symbol
_atom_site_label
_atom_site_fract_x
_atom_site_fract_y
_atom_site_fract_z
Si Si1 0.888497 0.776283 0.768664
Si Si2 0.173105 0.521031 0.127757
Si Si3 0.849316 0.721885 0.075159
Si Si4 0.000000 0.000000 0.000000
Si Si5 0.856083 0.364631 0.985936
Si Si6 0.284551 0.907020 0.173316
O O1 0.885742 0.596268 0.816772
O O2 0.848553 0.674721 0.716804
O O3 0.000000 0.857154 0.750000
O O4 0.808726 0.955234 0.794236
O O5 0.247241 0.346680 0.093757
O O6 0.114661 0.603752 0.081505
O O7 0.238003 0.710331 0.145554
O O8 0.934302 0.893432 0.058819
O O9 0.848790 0.556458 0.125564
O O10 0.850744 0.586375 0.018510
O O11 0.070136 0.790541 0.992182
O O12 0.750000 0.250000 0.000000
#
# Coordination Sequence:
#
# PCOD9304879 Si02
#       6
#     8   8   8   4   8   8
#     4  11  26  46  73 100 139 189 241 295 365 418
#     4  11  24  46  73  99 138 190 232 303 353 419
#     4  11  24  45  70 100 145 187 229 295 351 423
#     4  12  26  40  68 106 142 186 234 286 342 436
#     4  12  24  45  68 102 143 182 236 283 358 420
#     4  11  23  48  68 102 142 180 241 303 349 429
#
# _framework density 21.267115
#
# number of rings (size 3 to 8) (size 9 to 14) (size 15 to 20)
#    0.000    0.727    5.455    1.091    2.545    0.727 
#    6.545    0.000    0.000    0.000    0.000    0.000 
#    0.000    0.000    0.000    0.000    0.000    0.000 
#
# Total GULP energy -122481.715426 kJ/mol
# GULP energy per Si atom -5567.350701 kJ/mol
# Density = 2.121871 g / cm^3
# Si number density = 21.267115 Si / 1000 Ang^3
#
#
#
# Elastic Constant Matrix: (Units=GPa)
#
#
# Indices 1 2 3 4 5 6 
#
# 1 59.4111 19.8471 37.0351 0.0000 -7.5150 0.0000
# 2 19.8471 79.4326 40.8342 0.0001 26.4669 0.0001
# 3 37.0351 40.8342 125.5649 0.0000 23.3893 0.0000
# 4 0.0000 0.0001 0.0000 39.4634 0.0000 -8.8310
# 5 -7.5150 26.4669 23.3893 0.0000 24.9995 0.0000
# 6 0.0000 0.0001 0.0000 -8.8310 0.0000 14.8317
#
#
#
# Elastic Compliance Matrix: (Units=1/GPa)
#
#
# Indices 1 2 3 4 5 6 
#
# 1 0.033976 -0.014565 -0.012182 0.000000 0.037031 0.000000
# 2 -0.014565 0.026685 0.002054 0.000000 -0.034552 0.000000
# 3 -0.012182 0.002054 0.014504 0.000000 -0.019406 0.000000
# 4 0.000000 0.000000 0.000000 0.029235 0.000000 0.017407
# 5 0.037031 -0.034552 -0.019406 0.000000 0.105868 0.000000
# 6 0.000000 0.000000 0.000000 0.017407 0.000000 0.077787
#
#
# Mechanical properties :
#
#
# Convention : Reuss Voigt Hill
#
# Bulk Modulus (GPa) = 38.79328 51.09349 44.94338
# Shear Modulus (GPa) = 14.44937 26.97174 20.71055
#
# Velocity S-wave (km/s) = 2.60940 3.56510 3.12401
# Velocity P-wave (km/s) = 5.23060 6.40495 5.84733
#
# Compressibility (1/GPa) = 0.02577766
#
# Stress axis : x y z
#
# Youngs Moduli (GPa) = 29.43283 37.47383 68.94631
#
# Poissons Ratio (x) = 0.54582 0.83992
# Poissons Ratio (y) = 0.42870 -0.14160
# Poissons Ratio (z) = 0.35856 -0.07696
#
# Static dielectric constant tensor:
#      x y z
#    x 1.782020 0.000000 -0.009260 
#    y 0.000000 1.763500 0.000000 
#    z -0.009260 0.000000 1.775350 
# 
# From -- ./inp_files/271879.got.cif
#   From: 2010.05.17/outbox.cif.g08.bks.cpg/sg15_136_cif.got.tgz:271879.got - 2010.06.03 18:47:42.
