data_PCOD9304896
_publ_section_title
;
Structure prediction by ZEFSAII (Michael W. Deem and Ramdas Pophale) SiO2 
 PCOD9304896
Probable space group: C 2/C
;
_chemical_formula_sum "Si O2"
_cell_formula_units_Z 40
_cell_length_a 5.554499
_cell_length_b 29.939733
_cell_length_c 11.164363
_cell_angle_alpha 90.000000
_cell_angle_beta 107.972609
_cell_angle_gamma 90.000000
_cell_volume 1766.039835
_symmetry_space_group_name_H-M "C 2/C"
_symmetry_group_IT_number 15
_symmetry_cell_setting 'monoclinic'
loop_
_space_group_symop_operation_xyz
x,y,z
-x,y,1/2-z
-x,-y,-z
x,-y,1/2+z
1/2+x,1/2+y,z
1/2-x,1/2+y,1/2-z
1/2-x,1/2-y,-z
1/2+x,1/2-y,1/2+z
loop_
_atom_site_type_symbol
_atom_site_label
_atom_site_fract_x
_atom_site_fract_y
_atom_site_fract_z
Si Si1 0.000000 0.255427 0.750000
Si Si2 0.500000 0.797253 0.250000
Si Si3 0.000000 0.915482 0.250000
Si Si4 0.236492 0.631158 0.925076
Si Si5 0.500000 0.093479 0.250000
Si Si6 0.918165 0.551051 0.989482
Si Si7 0.352101 0.671290 0.337784
O O1 0.225702 0.226680 0.726125
O O2 0.154176 0.291774 0.855201
O O3 0.458460 0.828772 0.127395
O O4 0.828972 0.885534 0.309897
O O5 0.827156 0.943404 0.131909
O O6 0.115494 0.587818 0.969062
O O7 0.470138 0.651620 0.033500
O O8 0.604735 0.064889 0.375470
O O9 0.718899 0.128926 0.253637
O O10 0.000000 0.500000 0.000000
O O11 0.500000 0.693393 0.250000
#
# Coordination Sequence:
#
# PCOD9304896 Si02
#       7
#     4   4   4   8   4   8   8
#     4  11  27  48  72 121 146 205 264 340 380 484
#     4  12  26  47  76 112 160 201 267 317 416 468
#     4  12  25  50  71 109 152 206 255 319 394 463
#     4  12  26  46  78 105 153 212 250 323 398 477
#     4  11  24  43  77 106 150 208 252 320 394 467
#     4  12  28  46  75 116 153 200 268 325 391 471
#     4  11  23  48  73 106 153 200 268 317 398 464
#
# _framework density 22.649543999999999
#
# number of rings (size 3 to 8) (size 9 to 14) (size 15 to 20)
#    0.000    0.400    7.000    0.600    2.800    4.000 
#    0.000    0.000    0.000    0.000    0.000    0.000 
#    0.000    0.000    0.000    0.000    0.000    0.000 
#
# Total GULP energy -111657.241336 kJ/mol
# GULP energy per Si atom -5582.862067 kJ/mol
# Density = 2.259799 g / cm^3
# Si number density = 22.649544 Si / 1000 Ang^3
#
#
#
# Elastic Constant Matrix: (Units=GPa)
#
#
# Indices 1 2 3 4 5 6 
#
# 1 107.5820 71.2797 43.4870 0.0000 16.7765 0.0000
# 2 71.2797 157.1567 52.4076 0.0000 19.5191 0.0000
# 3 43.4870 52.4076 134.4277 0.0000 27.2774 0.0000
# 4 0.0000 0.0000 0.0000 -2.3204 0.0000 -27.7669
# 5 16.7765 19.5191 27.2774 0.0000 49.8305 0.0000
# 6 0.0000 0.0000 0.0000 -27.7669 0.0000 -36.8926
#
#
#
# Elastic Compliance Matrix: (Units=1/GPa)
#
#
# Indices 1 2 3 4 5 6 
#
# 1 0.013990 -0.005467 -0.002107 0.000000 -0.001415 0.000000
# 2 -0.005467 0.009547 -0.001764 0.000000 -0.000933 0.000000
# 3 -0.002107 -0.001764 0.009589 0.000000 -0.003849 0.000000
# 4 0.000000 0.000000 0.000000 0.053827 0.000000 -0.040512
# 5 -0.001415 -0.000933 -0.003849 0.000000 0.023017 0.000000
# 6 0.000000 0.000000 0.000000 -0.040512 0.000000 0.003385
#
#
# Mechanical properties :
#
#
# Convention : Reuss Voigt Hill
#
# Bulk Modulus (GPa) = 69.20478 81.50166 75.35322
# Shear Modulus (GPa) = 36.53709 17.58964 27.06337
#
# Velocity S-wave (km/s) = 4.02076 2.78978 3.46045
# Velocity P-wave (km/s) = 7.22332 6.81462 7.02194
#
# Compressibility (1/GPa) = 0.01444987
#
# Stress axis : x y z
#
# Youngs Moduli (GPa) = 71.48106 104.74811 104.28262
#
# Poissons Ratio (x) = 0.57262 0.21975
# Poissons Ratio (y) = 0.39076 0.18395
# Poissons Ratio (z) = 0.15063 0.18477
#
# Static dielectric constant tensor:
#      x y z
#    x 1.928260 0.000000 0.017010 
#    y 0.000000 1.875310 0.000000 
#    z 0.017010 0.000000 1.848450 
# 
# From -- ./inp_files/73174.got.cif
#   From: 2010.05.17/outbox.cif.g08.bks.cpg/sg15_37_cif.got.tgz:73174.got - 2010.06.03 18:47:42.
