data_PCOD9304311
_publ_section_title
;
Structure prediction by ZEFSAII (Michael W. Deem and Ramdas Pophale) SiO2 
 PCOD9304311
Probable space group: C 2/C
;
_chemical_formula_sum "Si O2"
_cell_formula_units_Z 48
_cell_length_a 19.268268
_cell_length_b 6.807532
_cell_length_c 20.638548
_cell_angle_alpha 90.000000
_cell_angle_beta 126.357819
_cell_angle_gamma 90.000000
_cell_volume 2180.146265
_symmetry_space_group_name_H-M "C 2/C"
_symmetry_group_IT_number 15
_symmetry_cell_setting 'monoclinic'
loop_
_space_group_symop_operation_xyz
x,y,z
-x,y,1/2-z
-x,-y,-z
x,-y,1/2+z
1/2+x,1/2+y,z
1/2-x,1/2+y,1/2-z
1/2-x,1/2-y,-z
1/2+x,1/2-y,1/2+z
loop_
_atom_site_type_symbol
_atom_site_label
_atom_site_fract_x
_atom_site_fract_y
_atom_site_fract_z
Si Si1 0.805446 0.311134 0.194525
Si Si2 0.191486 0.129532 0.518358
Si Si3 0.428414 0.310313 0.115289
Si Si4 0.293196 0.058044 0.824566
Si Si5 0.891531 0.918233 0.236455
Si Si6 0.917058 0.499588 0.500037
O O1 0.834937 0.407289 0.277920
O O2 0.696949 0.356994 0.278568
O O3 0.727733 0.169768 0.175660
O O4 0.759512 0.430754 0.112334
O O5 0.250000 0.250000 0.500000
O O6 0.120812 0.285459 0.505480
O O7 0.140841 0.953664 0.456491
O O8 0.403813 0.297361 0.177344
O O9 0.525238 0.397889 0.172562
O O10 0.430636 0.113193 0.074749
O O11 0.124852 0.850535 0.790716
O O12 0.348596 0.117704 0.917134
O O13 0.000000 0.500000 0.500000
#
# Coordination Sequence:
#
# PCOD9304311 Si02
#       6
#     8   8   8   8   8   8
#     4   9  20  39  60  92 126 167 217 264 325 398
#     4  11  23  45  69  98 130 173 225 274 330 406
#     4  11  23  43  69  92 137 174 216 286 329 382
#     4   9  21  39  59  88 131 166 214 268 323 399
#     4   9  22  41  62  95 130 172 222 266 334 395
#     4  11  27  42  64 104 132 170 230 272 331 411
#
# _framework density 22.016870000000001
#
# number of rings (size 3 to 8) (size 9 to 14) (size 15 to 20)
#    1.000    1.000    1.667    0.000    9.333    3.333 
#    0.000    3.333    0.000    0.000    0.000    0.000 
#    0.000    0.000    0.000    0.000    0.000    0.000 
#
# Total GULP energy -133710.966892 kJ/mol
# GULP energy per Si atom -5571.290287 kJ/mol
# Density = 2.196676 g / cm^3
# Si number density = 22.016870 Si / 1000 Ang^3
#
#
#
# Elastic Constant Matrix: (Units=GPa)
#
#
# Indices 1 2 3 4 5 6 
#
# 1 64.7919 -13.9791 -16.0767 0.0000 3.5043 0.0000
# 2 -13.9791 25.3284 -2.3545 0.0000 5.0520 0.0000
# 3 -16.0767 -2.3545 98.6732 0.0000 8.7732 0.0000
# 4 0.0000 0.0000 0.0000 29.8539 0.0000 -8.8521
# 5 3.5043 5.0520 8.7732 0.0000 35.7584 0.0000
# 6 0.0000 0.0000 0.0000 -8.8521 0.0000 23.0138
#
#
#
# Elastic Compliance Matrix: (Units=1/GPa)
#
#
# Indices 1 2 3 4 5 6 
#
# 1 0.019173 0.011830 0.003805 0.000000 -0.004484 0.000000
# 2 0.011830 0.048147 0.003869 0.000000 -0.008911 0.000000
# 3 0.003805 0.003869 0.011172 0.000000 -0.003660 0.000000
# 4 0.000000 0.000000 0.000000 0.037809 0.000000 0.014543
# 5 -0.004484 -0.008911 -0.003660 0.000000 0.030562 0.000000
# 6 0.000000 0.000000 0.000000 0.014543 0.000000 0.049046
#
#
# Mechanical properties :
#
#
# Convention : Reuss Voigt Hill
#
# Bulk Modulus (GPa) = 8.51073 13.77476 11.14275
# Shear Modulus (GPa) = 25.50128 32.47216 28.98672
#
# Velocity S-wave (km/s) = 3.40702 3.84458 3.63239
# Velocity P-wave (km/s) = 4.39897 5.09684 4.76071
#
# Compressibility (1/GPa) = 0.11749869
#
# Stress axis : x y z
#
# Youngs Moduli (GPa) = 52.15684 20.76959 89.50842
#
# Poissons Ratio (x) = -0.24570 -0.34056
# Poissons Ratio (y) = -0.61701 -0.34627
# Poissons Ratio (z) = -0.19844 -0.08035
#
# Static dielectric constant tensor:
#      x y z
#    x 1.809990 0.000000 0.006670 
#    y 0.000000 1.850890 0.000000 
#    z 0.006670 0.000000 1.848150 
# 
# From -- ./inp_files/213541.got.cif
#   From: 2010.05.17/outbox.cif.g08.bks.cpg/sg15_107_cif.got.tgz:213541.got - 2010.06.03 18:47:42.
