data_PCOD9304585
_publ_section_title
;
Structure prediction by ZEFSAII (Michael W. Deem and Ramdas Pophale) SiO2 
 PCOD9304585
Probable space group: C 2/C
;
_chemical_formula_sum "Si O2"
_cell_formula_units_Z 28
_cell_length_a 15.579435
_cell_length_b 9.893169
_cell_length_c 10.957411
_cell_angle_alpha 90.000000
_cell_angle_beta 36.973416
_cell_angle_gamma 90.000000
_cell_volume 1015.758758
_symmetry_space_group_name_H-M "C 2/C"
_symmetry_group_IT_number 15
_symmetry_cell_setting 'monoclinic'
loop_
_space_group_symop_operation_xyz
x,y,z
-x,y,1/2-z
-x,-y,-z
x,-y,1/2+z
1/2+x,1/2+y,z
1/2-x,1/2+y,1/2-z
1/2-x,1/2-y,-z
1/2+x,1/2-y,1/2+z
loop_
_atom_site_type_symbol
_atom_site_label
_atom_site_fract_x
_atom_site_fract_y
_atom_site_fract_z
Si Si1 0.712724 0.264968 0.821645
Si Si2 0.000000 0.314935 0.750000
Si Si3 0.850593 0.995674 0.241205
Si Si4 0.635185 0.919316 0.177606
O O1 0.752272 0.410892 0.727176
O O2 0.654622 0.178708 0.770518
O O3 0.815406 0.160538 0.770488
O O4 0.594394 0.277807 0.058904
O O5 0.918754 0.424615 0.755974
O O6 0.792634 0.058618 0.434856
O O7 0.000000 0.000000 0.000000
O O8 0.500000 0.860632 0.250000
#
# Coordination Sequence:
#
# PCOD9304585 Si02
#       4
#     8   4   8   8
#     4  11  23  45  67 100 142 172 234 282 335 412
#     4   8  20  36  68 100 124 184 216 284 340 376
#     4  11  27  42  69 106 135 182 226 280 348 399
#     4   9  21  42  70  97 136 187 224 270 346 408
#
# _framework density 27.5656
#
# number of rings (size 3 to 8) (size 9 to 14) (size 15 to 20)
#    0.857    1.143    0.000    1.714    4.000    3.429 
#    0.000    5.714    0.000    0.000    0.000    0.000 
#    0.000    0.000    0.000    0.000    0.000    0.000 
#
# Total GULP energy -78041.465317 kJ/mol
# GULP energy per Si atom -5574.390380 kJ/mol
# Density = 2.750286 g / cm^3
# Si number density = 27.565600 Si / 1000 Ang^3
#
#
#
# Elastic Constant Matrix: (Units=GPa)
#
#
# Indices 1 2 3 4 5 6 
#
# 1 99.7667 3.6074 16.8470 0.0000 8.7625 0.0000
# 2 3.6074 124.8117 1.0326 0.0000 6.7626 0.0000
# 3 16.8470 1.0326 180.4487 0.0000 -7.8611 0.0000
# 4 0.0000 0.0000 0.0000 23.8189 0.0000 7.3458
# 5 8.7625 6.7626 -7.8611 0.0000 24.9829 0.0000
# 6 0.0000 0.0000 0.0000 7.3458 0.0000 39.4284
#
#
#
# Elastic Compliance Matrix: (Units=1/GPa)
#
#
# Indices 1 2 3 4 5 6 
#
# 1 0.010579 -0.000076 -0.001164 0.000000 -0.004056 0.000000
# 2 -0.000076 0.008136 -0.000136 0.000000 -0.002218 0.000000
# 3 -0.001164 -0.000136 0.005749 0.000000 0.002254 0.000000
# 4 0.000000 0.000000 0.000000 0.044543 0.000000 -0.008299
# 5 -0.004056 -0.002218 0.002254 0.000000 0.042760 0.000000
# 6 0.000000 0.000000 0.000000 -0.008299 0.000000 0.026909
#
#
# Mechanical properties :
#
#
# Convention : Reuss Voigt Hill
#
# Bulk Modulus (GPa) = 46.05918 49.77790 47.91854
# Shear Modulus (GPa) = 33.63273 43.21539 38.42406
#
# Velocity S-wave (km/s) = 3.49678 3.96375 3.73757
# Velocity P-wave (km/s) = 5.74878 6.24865 6.00392
#
# Compressibility (1/GPa) = 0.02171120
#
# Stress axis : x y z
#
# Youngs Moduli (GPa) = 94.52759 122.91673 173.93160
#
# Poissons Ratio (x) = 0.00939 0.20244
# Poissons Ratio (y) = 0.00722 0.02367
# Poissons Ratio (z) = 0.11002 0.01672
#
# Static dielectric constant tensor:
#      x y z
#    x 2.399120 0.000000 -0.124480 
#    y 0.000000 2.050930 0.000000 
#    z -0.124480 0.000000 2.245240 
# 
# From -- ./inp_files/36480.got.cif
#   From: 2010.05.17/outbox.cif.g08.bks.cpg/sg15_19_cif.got.tgz:36480.got - 2010.06.03 18:47:42.
