data_PCOD9304480
_publ_section_title
;
Structure prediction by ZEFSAII (Michael W. Deem and Ramdas Pophale) SiO2 
 PCOD9304480
Probable space group: C 2/C
;
_chemical_formula_sum "Si O2"
_cell_formula_units_Z 60
_cell_length_a 14.521063
_cell_length_b 18.308402
_cell_length_c 10.887483
_cell_angle_alpha 90.000000
_cell_angle_beta 112.222168
_cell_angle_gamma 90.000000
_cell_volume 2679.526250
_symmetry_space_group_name_H-M "C 2/C"
_symmetry_group_IT_number 15
_symmetry_cell_setting 'monoclinic'
loop_
_space_group_symop_operation_xyz
x,y,z
-x,y,1/2-z
-x,-y,-z
x,-y,1/2+z
1/2+x,1/2+y,z
1/2-x,1/2+y,1/2-z
1/2-x,1/2-y,-z
1/2+x,1/2-y,1/2+z
loop_
_atom_site_type_symbol
_atom_site_label
_atom_site_fract_x
_atom_site_fract_y
_atom_site_fract_z
Si Si1 0.500000 0.894835 0.250000
Si Si2 0.642403 0.768841 0.384287
Si Si3 0.031234 0.196888 0.514874
Si Si4 0.103065 0.958307 0.070857
Si Si5 0.315099 0.307251 0.823748
Si Si6 0.301477 0.455072 0.654397
Si Si7 0.096472 0.320783 0.722859
Si Si8 0.591982 0.986405 0.632548
O O1 0.575219 0.842095 0.364462
O O2 0.421932 0.948217 0.278595
O O3 0.750000 0.750000 0.500000
O O4 0.567486 0.705859 0.393263
O O5 0.665002 0.762936 0.250975
O O6 0.912396 0.187411 0.457455
O O7 0.081871 0.125379 0.592932
O O8 0.080691 0.268725 0.597951
O O9 0.150564 0.995807 0.213695
O O10 0.157075 0.959712 0.963741
O O11 0.000000 0.000000 0.000000
O O12 0.307291 0.374573 0.721370
O O13 0.206684 0.305710 0.830656
O O14 0.189173 0.483676 0.598181
O O15 0.088926 0.406803 0.693044
O O16 0.000000 0.299334 0.750000
O O17 0.500000 0.000000 0.500000
#
# Coordination Sequence:
#
# PCOD9304480 Si02
#       8
#     4   8   8   8   8   8   8   8
#     4  12  26  44  76 112 140 200 252 314 396 452
#     4  12  24  41  74 107 138 177 250 308 371 445
#     4  12  24  44  71 102 144 188 248 314 377 454
#     4  12  26  46  74 109 148 197 256 316 383 459
#     4  11  23  44  70 103 138 194 240 313 370 446
#     4  11  27  46  74 106 151 199 249 315 384 451
#     4  11  26  48  69 100 148 195 243 312 382 455
#     4  11  27  46  70 104 151 192 256 312 378 462
#
# _framework density 22.392019000000001
#
# number of rings (size 3 to 8) (size 9 to 14) (size 15 to 20)
#    0.000    0.533    6.000    1.200    5.600    1.600 
#    0.000    0.000    0.000    0.000    0.000    0.000 
#    0.000    0.000    0.000    0.000    0.000    0.000 
#
# Total GULP energy -167344.042254 kJ/mol
# GULP energy per Si atom -5578.134742 kJ/mol
# Density = 2.234105 g / cm^3
# Si number density = 22.392019 Si / 1000 Ang^3
#
#
#
# Elastic Constant Matrix: (Units=GPa)
#
#
# Indices 1 2 3 4 5 6 
#
# 1 164.7914 26.6777 29.6567 0.0000 25.0656 0.0000
# 2 26.6777 112.2188 19.1991 0.0000 11.0801 0.0000
# 3 29.6567 19.1991 65.5292 0.0000 24.0587 0.0000
# 4 0.0000 0.0000 0.0000 32.1329 0.0000 -3.1512
# 5 25.0656 11.0801 24.0587 0.0000 36.6773 0.0000
# 6 0.0000 0.0000 0.0000 -3.1512 0.0000 27.1207
#
#
#
# Elastic Compliance Matrix: (Units=1/GPa)
#
#
# Indices 1 2 3 4 5 6 
#
# 1 0.007054 -0.001060 -0.001620 0.000000 -0.003438 0.000000
# 2 -0.001060 0.009592 -0.002019 0.000000 -0.000849 0.000000
# 3 -0.001620 -0.002019 0.021016 0.000000 -0.012069 0.000000
# 4 0.000000 0.000000 0.000000 0.031479 0.000000 0.003658
# 5 -0.003438 -0.000849 -0.012069 0.000000 0.037788 0.000000
# 6 0.000000 0.000000 0.000000 0.003658 0.000000 0.037297
#
#
# Mechanical properties :
#
#
# Convention : Reuss Voigt Hill
#
# Bulk Modulus (GPa) = 35.37956 54.84513 45.11235
# Shear Modulus (GPa) = 30.66612 36.98657 33.82635
#
# Velocity S-wave (km/s) = 3.70471 4.06861 3.89092
# Velocity P-wave (km/s) = 5.84245 6.82772 6.35421
#
# Compressibility (1/GPa) = 0.02826491
#
# Stress axis : x y z
#
# Youngs Moduli (GPa) = 141.75546 104.24832 47.58320
#
# Poissons Ratio (x) = 0.11055 0.07706
# Poissons Ratio (y) = 0.15033 0.09606
# Poissons Ratio (z) = 0.22958 0.21046
#
# Static dielectric constant tensor:
#      x y z
#    x 1.798940 0.000000 0.155390 
#    y 0.000000 1.906690 0.000000 
#    z 0.155390 0.000000 1.450740 
# 
# From -- ./inp_files/98805.got.cif
#   From: 2010.05.17/outbox.cif.g08.bks.cpg/sg15_50_cif.got.tgz:98805.got - 2010.06.03 18:47:42.
