data_PCOD9304666
_publ_section_title
;
Structure prediction by ZEFSAII (Michael W. Deem and Ramdas Pophale) SiO2 
 PCOD9304666
Probable space group: C 2/C
;
_chemical_formula_sum "Si O2"
_cell_formula_units_Z 40
_cell_length_a 9.419410
_cell_length_b 23.056417
_cell_length_c 18.655163
_cell_angle_alpha 90.000000
_cell_angle_beta 151.586012
_cell_angle_gamma 90.000000
_cell_volume 1927.855839
_symmetry_space_group_name_H-M "C 2/C"
_symmetry_group_IT_number 15
_symmetry_cell_setting 'monoclinic'
loop_
_space_group_symop_operation_xyz
x,y,z
-x,y,1/2-z
-x,-y,-z
x,-y,1/2+z
1/2+x,1/2+y,z
1/2-x,1/2+y,1/2-z
1/2-x,1/2-y,-z
1/2+x,1/2-y,1/2+z
loop_
_atom_site_type_symbol
_atom_site_label
_atom_site_fract_x
_atom_site_fract_y
_atom_site_fract_z
Si Si1 0.397463 0.404006 0.626412
Si Si2 0.191903 0.778086 0.897001
Si Si3 0.326325 0.714836 0.606087
Si Si4 0.197872 0.905762 0.271691
Si Si5 0.300707 0.506826 0.343377
O O1 0.500000 0.425311 0.750000
O O2 0.486471 0.336625 0.664421
O O3 0.575945 0.441825 0.649930
O O4 0.043751 0.405068 0.450980
O O5 0.000000 0.745197 0.750000
O O6 0.250000 0.750000 0.000000
O O7 0.502559 0.795991 0.997540
O O8 0.500000 0.745567 0.750000
O O9 0.250000 0.750000 0.500000
O O10 0.531520 0.656883 0.682723
O O11 0.000000 0.929423 0.250000
O O12 0.196577 0.948626 0.203564
O O13 0.500000 0.500000 0.500000
O O14 0.000000 0.521354 0.250000
#
# Coordination Sequence:
#
# PCOD9304666 Si02
#       5
#     8   8   8   8   8
#     4  11  25  47  73 101 140 191 238 282 352 435
#     4  11  24  44  69 104 140 183 236 291 352 423
#     4  11  23  45  73 104 140 186 238 292 353 423
#     4  11  24  47  73  99 141 190 234 287 351 431
#     4  12  27  45  71 108 146 182 236 302 359 408
#
# _framework density 20.748439000000001
#
# number of rings (size 3 to 8) (size 9 to 14) (size 15 to 20)
#    0.000    0.800    6.000    1.800    2.800    3.200 
#    0.000    2.000    0.000    0.000    0.000    0.000 
#    0.000    0.000    0.000    0.000    0.000    0.000 
#
# Total GULP energy -111450.920707 kJ/mol
# GULP energy per Si atom -5572.546035 kJ/mol
# Density = 2.070121 g / cm^3
# Si number density = 20.748439 Si / 1000 Ang^3
#
#
#
# Elastic Constant Matrix: (Units=GPa)
#
#
# Indices 1 2 3 4 5 6 
#
# 1 192.3642 88.2598 92.8046 0.0100 -18.4696 -0.0066
# 2 88.2598 90.8609 53.9130 -0.0022 -15.6026 -0.0005
# 3 92.8046 53.9130 183.4343 -0.0044 -17.3352 0.0149
# 4 0.0100 -0.0022 -0.0044 15.7551 0.0113 2.5984
# 5 -18.4696 -15.6026 -17.3352 0.0113 57.8191 -0.0102
# 6 -0.0066 -0.0005 0.0149 2.5984 -0.0102 1.2727
#
#
#
# Elastic Compliance Matrix: (Units=1/GPa)
#
#
# Indices 1 2 3 4 5 6 
#
# 1 0.010437 -0.008454 -0.002775 -0.000034 0.000221 0.000155
# 2 -0.008454 0.020537 -0.001534 0.000009 0.002382 -0.000017
# 3 -0.002775 -0.001534 0.007393 0.000028 0.000916 -0.000151
# 4 -0.000034 0.000009 0.000028 0.095694 -0.000053 -0.195375
# 5 0.000221 0.002382 0.000916 -0.000053 0.018283 0.000248
# 6 0.000155 -0.000017 -0.000151 -0.195375 0.000248 1.184629
#
#
# Mechanical properties :
#
#
# Convention : Reuss Voigt Hill
#
# Bulk Modulus (GPa) = 77.87255 104.06827 90.97041
# Shear Modulus (GPa) = 3.65824 30.41483 17.03654
#
# Velocity S-wave (km/s) = 1.32927 3.83284 2.86859
# Velocity P-wave (km/s) = 6.32212 8.35785 7.41022
#
# Compressibility (1/GPa) = 0.01284150
#
# Stress axis : x y z
#
# Youngs Moduli (GPa) = 95.81035 48.69285 135.26581
#
# Poissons Ratio (x) = 0.41165 0.37536
# Poissons Ratio (y) = 0.80999 0.20747
# Poissons Ratio (z) = 0.26587 0.07468
#
# Static dielectric constant tensor:
#      x y z
#    x 1.711620 0.000000 0.005060 
#    y 0.000000 1.780690 -0.000030 
#    z 0.005060 -0.000030 1.866990 
# 
# From -- ./inp_files/193462.got.cif
#   From: 2010.05.17/outbox.cif.g08.bks.cpg/sg15_97_cif.got.tgz:193462.got - 2010.06.03 18:47:42.
