data_PCOD9304410
_publ_section_title
;
Structure prediction by ZEFSAII (Michael W. Deem and Ramdas Pophale) SiO2 
 PCOD9304410
Probable space group: C 2/C
;
_chemical_formula_sum "Si O2"
_cell_formula_units_Z 48
_cell_length_a 16.670083
_cell_length_b 9.118409
_cell_length_c 14.470433
_cell_angle_alpha 90.000000
_cell_angle_beta 61.471025
_cell_angle_gamma 90.000000
_cell_volume 1932.491279
_symmetry_space_group_name_H-M "C 2/C"
_symmetry_group_IT_number 15
_symmetry_cell_setting 'monoclinic'
loop_
_space_group_symop_operation_xyz
x,y,z
-x,y,1/2-z
-x,-y,-z
x,-y,1/2+z
1/2+x,1/2+y,z
1/2-x,1/2+y,1/2-z
1/2-x,1/2-y,-z
1/2+x,1/2-y,1/2+z
loop_
_atom_site_type_symbol
_atom_site_label
_atom_site_fract_x
_atom_site_fract_y
_atom_site_fract_z
Si Si1 0.483548 0.015511 0.652134
Si Si2 0.745927 0.325003 0.785312
Si Si3 0.789653 0.136435 0.404694
Si Si4 0.627200 0.592531 0.849844
Si Si5 0.470272 0.642319 0.403009
Si Si6 0.360000 0.085434 0.562628
O O1 0.500000 0.976682 0.750000
O O2 0.391258 0.005321 0.641221
O O3 0.502962 0.190500 0.634181
O O4 0.555595 0.924086 0.552343
O O5 0.715944 0.301754 0.695311
O O6 0.718220 0.494255 0.818798
O O7 0.675651 0.243561 0.892054
O O8 0.750000 0.250000 0.500000
O O9 0.891341 0.096818 0.376077
O O10 0.722023 0.000211 0.439488
O O11 0.551474 0.475525 0.856742
O O12 0.661266 0.724882 0.764288
O O13 0.580043 0.649353 0.969400
#
# Coordination Sequence:
#
# PCOD9304410 Si02
#       6
#     8   8   8   8   8   8
#     4  11  23  43  76 108 149 198 264 312 377 463
#     4  12  23  45  72 107 147 198 249 317 380 448
#     4  12  23  42  77 107 143 205 265 300 375 474
#     4  11  25  43  74 107 151 194 251 315 380 446
#     4  11  24  44  74 106 142 198 263 306 368 464
#     4  11  24  40  70 114 149 191 256 320 373 449
#
# _framework density 24.838405999999999
#
# number of rings (size 3 to 8) (size 9 to 14) (size 15 to 20)
#    0.000    0.667    6.667    1.000    0.000    0.000 
#    0.000    0.833    0.000    1.000    4.333    0.000 
#    0.000    0.000    0.000    0.000    0.000    0.000 
#
# Total GULP energy -134224.854444 kJ/mol
# GULP energy per Si atom -5592.702268 kJ/mol
# Density = 2.478187 g / cm^3
# Si number density = 24.838406 Si / 1000 Ang^3
#
#
#
# Elastic Constant Matrix: (Units=GPa)
#
#
# Indices 1 2 3 4 5 6 
#
# 1 76.1243 -14.8460 -8.5336 0.0000 -15.5643 0.0000
# 2 -14.8460 76.1522 2.6591 0.0000 -11.4148 0.0000
# 3 -8.5336 2.6591 103.7546 0.0000 -2.5335 0.0000
# 4 0.0000 0.0000 0.0000 31.8454 0.0000 7.8945
# 5 -15.5643 -11.4148 -2.5335 0.0000 45.7934 0.0000
# 6 0.0000 0.0000 0.0000 7.8945 0.0000 26.8699
#
#
#
# Elastic Compliance Matrix: (Units=1/GPa)
#
#
# Indices 1 2 3 4 5 6 
#
# 1 0.015316 0.003876 0.001313 0.000000 0.006245 0.000000
# 2 0.003876 0.014630 0.000065 0.000000 0.004968 0.000000
# 3 0.001313 0.000065 0.009769 0.000000 0.001003 0.000000
# 4 0.000000 0.000000 0.000000 0.033869 0.000000 -0.009951
# 5 0.006245 0.004968 0.001003 0.000000 0.025253 0.000000
# 6 0.000000 0.000000 0.000000 -0.009951 0.000000 0.040140
#
#
# Mechanical properties :
#
#
# Convention : Reuss Voigt Hill
#
# Bulk Modulus (GPa) = 19.91120 23.84337 21.87728
# Shear Modulus (GPa) = 34.43303 39.35184 36.89243
#
# Velocity S-wave (km/s) = 3.72732 3.98466 3.85814
# Velocity P-wave (km/s) = 5.15340 5.54890 5.35480
#
# Compressibility (1/GPa) = 0.05022300
#
# Stress axis : x y z
#
# Youngs Moduli (GPa) = 65.29017 68.35462 102.36536
#
# Poissons Ratio (x) = -0.26495 -0.13439
# Poissons Ratio (y) = -0.25307 -0.00667
# Poissons Ratio (z) = -0.08572 -0.00445
#
# Static dielectric constant tensor:
#      x y z
#    x 2.040060 0.000000 -0.052600 
#    y 0.000000 1.984470 0.000000 
#    z -0.052600 0.000000 1.914190 
# 
# From -- ./inp_files/167136.got.cif
#   From: 2010.05.17/outbox.cif.g08.bks.cpg/sg15_84_cif.got.tgz:167136.got - 2010.06.03 18:47:42.
