data_PCOD9304792
_publ_section_title
;
Structure prediction by ZEFSAII (Michael W. Deem and Ramdas Pophale) SiO2 
 PCOD9304792
Probable space group: C 2/C
;
_chemical_formula_sum "Si O2"
_cell_formula_units_Z 40
_cell_length_a 21.488737
_cell_length_b 11.743937
_cell_length_c 12.963679
_cell_angle_alpha 90.000000
_cell_angle_beta 151.210425
_cell_angle_gamma 90.000000
_cell_volume 1575.557073
_symmetry_space_group_name_H-M "C 2/C"
_symmetry_group_IT_number 15
_symmetry_cell_setting 'monoclinic'
loop_
_space_group_symop_operation_xyz
x,y,z
-x,y,1/2-z
-x,-y,-z
x,-y,1/2+z
1/2+x,1/2+y,z
1/2-x,1/2+y,1/2-z
1/2-x,1/2-y,-z
1/2+x,1/2-y,1/2+z
loop_
_atom_site_type_symbol
_atom_site_label
_atom_site_fract_x
_atom_site_fract_y
_atom_site_fract_z
Si Si1 0.613882 0.790159 0.354277
Si Si2 0.472556 0.581069 0.558959
Si Si3 0.986473 0.347550 0.511700
Si Si4 0.697939 0.992366 0.622712
Si Si5 0.754564 0.884052 0.990098
O O1 0.500000 0.717565 0.250000
O O2 0.750000 0.750000 0.500000
O O3 0.650435 0.877185 0.497930
O O4 0.551317 0.846531 0.162400
O O5 0.500000 0.500000 0.500000
O O6 0.471688 0.715221 0.525781
O O7 0.327785 0.540587 0.372657
O O8 0.598747 0.574174 0.815254
O O9 0.105265 0.574350 0.552484
O O10 0.130809 0.396405 0.736867
O O11 0.725628 0.064665 0.559774
O O12 0.750000 0.750000 0.000000
#
# Coordination Sequence:
#
# PCOD9304792 Si02
#       5
#     8   8   8   8   8
#     4  12  28  50  79 118 165 218 285 348 429 512
#     4   9  20  43  75 112 157 204 276 349 413 495
#     4  11  23  46  80 113 157 223 273 352 425 507
#     4  11  23  46  75 114 163 209 278 340 424 505
#     4   9  20  40  73 108 156 205 275 339 411 501
#
# _framework density 25.387846
#
# number of rings (size 3 to 8) (size 9 to 14) (size 15 to 20)
#    0.000    1.600    2.000    1.800    0.000    8.000 
#    3.600    0.000    4.400    0.000    0.000    0.000 
#    0.000    0.000    0.000    0.000    0.000    0.000 
#
# Total GULP energy -111647.637266 kJ/mol
# GULP energy per Si atom -5582.381863 kJ/mol
# Density = 2.533006 g / cm^3
# Si number density = 25.387846 Si / 1000 Ang^3
#
#
#
# Elastic Constant Matrix: (Units=GPa)
#
#
# Indices 1 2 3 4 5 6 
#
# 1 166.7553 45.7250 105.0165 0.0000 49.2760 0.0000
# 2 45.7250 124.4477 53.3828 0.0000 23.8175 0.0000
# 3 105.0165 53.3828 291.9239 0.0000 10.8639 0.0000
# 4 0.0000 0.0000 0.0000 33.4299 0.0000 20.7501
# 5 49.2760 23.8175 10.8639 0.0000 60.9208 0.0000
# 6 0.0000 0.0000 0.0000 20.7501 0.0000 20.9337
#
#
#
# Elastic Compliance Matrix: (Units=1/GPa)
#
#
# Indices 1 2 3 4 5 6 
#
# 1 0.010638 -0.001011 -0.003359 0.000000 -0.007610 0.000000
# 2 -0.001011 0.009459 -0.001267 0.000000 -0.002654 0.000000
# 3 -0.003359 -0.001267 0.004778 0.000000 0.002360 0.000000
# 4 0.000000 0.000000 0.000000 0.077750 0.000000 -0.077068
# 5 -0.007610 -0.002654 0.002360 0.000000 0.023187 0.000000
# 6 0.000000 0.000000 0.000000 -0.077068 0.000000 0.124162
#
#
# Mechanical properties :
#
#
# Convention : Reuss Voigt Hill
#
# Bulk Modulus (GPa) = 73.52967 110.15284 91.84126
# Shear Modulus (GPa) = 18.81242 48.32372 33.56807
#
# Velocity S-wave (km/s) = 2.72509 4.36755 3.64017
# Velocity P-wave (km/s) = 6.23914 8.30158 7.34313
#
# Compressibility (1/GPa) = 0.01359995
#
# Stress axis : x y z
#
# Youngs Moduli (GPa) = 94.00000 105.72466 209.30502
#
# Poissons Ratio (x) = 0.10693 0.70302
# Poissons Ratio (y) = 0.09508 0.26519
# Poissons Ratio (z) = 0.31573 0.13396
#
# Static dielectric constant tensor:
#      x y z
#    x 2.048440 0.000000 0.079990 
#    y 0.000000 1.998790 0.000000 
#    z 0.079990 0.000000 2.199300 
# 
# From -- ./inp_files/173390.got.cif
#   From: 2010.05.17/outbox.cif.g08.bks.cpg/sg15_87_cif.got.tgz:173390.got - 2010.06.03 18:47:42.
