data_PCOD9304358
_publ_section_title
;
Structure prediction by ZEFSAII (Michael W. Deem and Ramdas Pophale) SiO2 
 PCOD9304358
Probable space group: C 2/C
;
_chemical_formula_sum "Si O2"
_cell_formula_units_Z 44
_cell_length_a 8.802968
_cell_length_b 11.622310
_cell_length_c 25.226296
_cell_angle_alpha 90.000000
_cell_angle_beta 126.309232
_cell_angle_gamma 90.000000
_cell_volume 2079.792703
_symmetry_space_group_name_H-M "C 2/C"
_symmetry_group_IT_number 15
_symmetry_cell_setting 'monoclinic'
loop_
_space_group_symop_operation_xyz
x,y,z
-x,y,1/2-z
-x,-y,-z
x,-y,1/2+z
1/2+x,1/2+y,z
1/2-x,1/2+y,1/2-z
1/2-x,1/2-y,-z
1/2+x,1/2-y,1/2+z
loop_
_atom_site_type_symbol
_atom_site_label
_atom_site_fract_x
_atom_site_fract_y
_atom_site_fract_z
Si Si1 0.188156 0.355863 0.950952
Si Si2 0.780206 0.876364 0.217952
Si Si3 0.254666 0.897958 0.848700
Si Si4 0.228959 0.577269 0.030797
Si Si5 0.944289 0.742701 0.923238
Si Si6 0.000000 0.709312 0.750000
O O1 0.299475 0.329370 0.920641
O O2 0.967900 0.354139 0.893080
O O3 0.250000 0.250000 0.000000
O O4 0.240835 0.475125 0.990832
O O5 0.651508 0.816593 0.146628
O O6 0.667123 0.852837 0.250014
O O7 0.000000 0.841484 0.250000
O O8 0.775147 0.012407 0.204692
O O9 0.236727 0.961086 0.901742
O O10 0.112848 0.792589 0.813366
O O11 0.381868 0.676199 0.054854
O O12 0.030242 0.643206 0.979647
#
# Coordination Sequence:
#
# PCOD9304358 Si02
#       6
#     8   8   8   8   8   4
#     4  12  23  40  71 108 141 185 229 291 374 433
#     4  12  26  51  77 101 145 198 243 299 363 428
#     4  12  24  49  70 102 147 183 242 302 353 433
#     4  11  23  43  72 103 146 180 231 302 360 427
#     4  11  23  44  70 107 140 183 239 293 362 433
#     4  12  28  52  72 104 144 196 248 298 354 430
#
# _framework density 21.155956
#
# number of rings (size 3 to 8) (size 9 to 14) (size 15 to 20)
#    0.000    0.364    6.364    3.273    0.000    0.000 
#   11.455    0.000    0.000    0.000    0.000    0.000 
#    0.000    0.000    0.000    0.000    0.000    0.000 
#
# Total GULP energy -122790.568520 kJ/mol
# GULP energy per Si atom -5581.389478 kJ/mol
# Density = 2.110780 g / cm^3
# Si number density = 21.155956 Si / 1000 Ang^3
#
#
#
# Elastic Constant Matrix: (Units=GPa)
#
#
# Indices 1 2 3 4 5 6 
#
# 1 94.1631 19.7870 19.2624 0.0000 -3.1533 0.0000
# 2 19.7870 82.2900 12.6916 0.0000 -0.3547 0.0000
# 3 19.2624 12.6916 62.5246 0.0000 10.4361 0.0000
# 4 0.0000 0.0000 0.0000 31.7893 0.0000 6.7064
# 5 -3.1533 -0.3547 10.4361 0.0000 37.4399 0.0000
# 6 0.0000 0.0000 0.0000 6.7064 0.0000 37.6545
#
#
#
# Elastic Compliance Matrix: (Units=1/GPa)
#
#
# Indices 1 2 3 4 5 6 
#
# 1 0.011891 -0.002308 -0.003522 0.000000 0.001961 0.000000
# 2 -0.002308 0.013020 -0.002014 0.000000 0.000490 0.000000
# 3 -0.003522 -0.002014 0.018396 0.000000 -0.005444 0.000000
# 4 0.000000 0.000000 0.000000 0.032685 0.000000 -0.005821
# 5 0.001961 0.000490 -0.005444 0.000000 0.028397 0.000000
# 6 0.000000 0.000000 0.000000 -0.005821 0.000000 0.027594
#
#
# Mechanical properties :
#
#
# Convention : Reuss Voigt Hill
#
# Bulk Modulus (GPa) = 36.20610 38.05107 37.12858
# Shear Modulus (GPa) = 31.87219 33.85920 32.86569
#
# Velocity S-wave (km/s) = 3.88562 4.00491 3.94572
# Velocity P-wave (km/s) = 6.10588 6.27780 6.19244
#
# Compressibility (1/GPa) = 0.02761965
#
# Stress axis : x y z
#
# Youngs Moduli (GPa) = 84.09726 76.80667 54.35900
#
# Poissons Ratio (x) = 0.17723 0.19147
# Poissons Ratio (y) = 0.19406 0.10947
# Poissons Ratio (z) = 0.29622 0.15467
#
# Static dielectric constant tensor:
#      x y z
#    x 1.889520 0.000000 -0.029150 
#    y 0.000000 1.750460 0.000000 
#    z -0.029150 0.000000 1.745610 
# 
# From -- ./inp_files/230218.got.cif
#   From: 2010.05.17/outbox.cif.g08.bks.cpg/sg15_116_cif.got.tgz:230218.got - 2010.06.03 18:47:42.
