data_PCOD9304407
_publ_section_title
;
Structure prediction by ZEFSAII (Michael W. Deem and Ramdas Pophale) SiO2 
 PCOD9304407
Probable space group: C 2/C
;
_chemical_formula_sum "Si O2"
_cell_formula_units_Z 48
_cell_length_a 31.568840
_cell_length_b 14.960505
_cell_length_c 15.885179
_cell_angle_alpha 90.000000
_cell_angle_beta 17.911667
_cell_angle_gamma 90.000000
_cell_volume 2307.348855
_symmetry_space_group_name_H-M "C 2/C"
_symmetry_group_IT_number 15
_symmetry_cell_setting 'monoclinic'
loop_
_space_group_symop_operation_xyz
x,y,z
-x,y,1/2-z
-x,-y,-z
x,-y,1/2+z
1/2+x,1/2+y,z
1/2-x,1/2+y,1/2-z
1/2-x,1/2-y,-z
1/2+x,1/2-y,1/2+z
loop_
_atom_site_type_symbol
_atom_site_label
_atom_site_fract_x
_atom_site_fract_y
_atom_site_fract_z
Si Si1 0.544092 0.687567 0.081496
Si Si2 0.648366 0.121697 0.427125
Si Si3 0.593720 0.587077 0.814777
Si Si4 0.076069 0.827314 0.016986
Si Si5 0.846895 0.493809 0.751585
Si Si6 0.756468 0.697269 0.900979
O O1 0.500000 0.632966 0.250000
O O2 0.392407 0.724090 0.351034
O O3 0.640450 0.773668 0.913229
O O4 0.587952 0.635942 0.915504
O O5 0.658027 0.057069 0.328441
O O6 0.500000 0.103312 0.750000
O O7 0.783920 0.114824 0.230128
O O8 0.524515 0.637267 0.866064
O O9 0.748633 0.561659 0.499197
O O10 0.500000 0.500000 0.000000
O O11 0.000000 0.821253 0.250000
O O12 0.130387 0.734043 0.876923
O O13 0.780926 0.592573 0.867904
O O14 0.000000 0.500000 0.500000
O O15 0.750000 0.750000 0.000000
#
# Coordination Sequence:
#
# PCOD9304407 Si02
#       6
#     8   8   8   8   8   8
#     4  11  23  43  76 102 139 190 245 284 366 436
#     4  11  25  46  70 106 144 191 233 303 363 430
#     4  12  26  45  74 106 143 196 241 298 357 438
#     4  12  25  46  74 106 147 189 246 296 357 437
#     4  12  28  46  70 110 143 181 245 311 367 425
#     4  12  23  47  73 101 143 193 233 293 369 436
#
# _framework density 20.803097000000001
#
# number of rings (size 3 to 8) (size 9 to 14) (size 15 to 20)
#    0.000    0.333    8.333    1.000    2.333    4.667 
#    0.000    0.000    0.000    0.000    0.000    0.000 
#    0.000    0.000    0.000    0.000    0.000    0.000 
#
# Total GULP energy -133932.562727 kJ/mol
# GULP energy per Si atom -5580.523447 kJ/mol
# Density = 2.075575 g / cm^3
# Si number density = 20.803097 Si / 1000 Ang^3
#
#
#
# Elastic Constant Matrix: (Units=GPa)
#
#
# Indices 1 2 3 4 5 6 
#
# 1 139.6424 46.0013 52.1450 0.0000 22.2303 -0.0001
# 2 46.0013 86.5028 28.0771 0.0000 24.8358 -0.0001
# 3 52.1450 28.0771 135.6024 0.0000 17.7152 0.0000
# 4 0.0000 0.0000 0.0000 36.8791 0.0000 10.5620
# 5 22.2303 24.8358 17.7152 0.0000 58.7982 0.0001
# 6 -0.0001 -0.0001 0.0000 10.5620 0.0001 30.2565
#
#
#
# Elastic Compliance Matrix: (Units=1/GPa)
#
#
# Indices 1 2 3 4 5 6 
#
# 1 0.009664 -0.003908 -0.002754 0.000000 -0.001173 0.000000
# 2 -0.003908 0.015325 -0.001059 0.000000 -0.004676 0.000000
# 3 -0.002754 -0.001059 0.008805 0.000000 -0.001164 0.000000
# 4 0.000000 0.000000 0.000000 0.030128 0.000000 -0.010517
# 5 -0.001173 -0.004676 -0.001164 0.000000 0.019777 0.000000
# 6 0.000000 0.000000 0.000000 -0.010517 0.000000 0.036722
#
#
# Mechanical properties :
#
#
# Convention : Reuss Voigt Hill
#
# Bulk Modulus (GPa) = 54.49263 68.24383 61.36823
# Shear Modulus (GPa) = 35.21625 40.88837 38.05231
#
# Velocity S-wave (km/s) = 4.11887 4.43820 4.28151
# Velocity P-wave (km/s) = 6.99082 7.69021 7.34884
#
# Compressibility (1/GPa) = 0.01835111
#
# Stress axis : x y z
#
# Youngs Moduli (GPa) = 103.48030 65.25168 113.57437
#
# Poissons Ratio (x) = 0.25503 0.31274
# Poissons Ratio (y) = 0.40445 0.12031
# Poissons Ratio (z) = 0.28494 0.06912
#
# Static dielectric constant tensor:
#      x y z
#    x 1.733160 0.000000 -0.002010 
#    y 0.000000 1.738410 0.000000 
#    z -0.002010 0.000000 1.743120 
# 
# From -- ./inp_files/182446.got.cif
#   From: 2010.05.17/outbox.cif.g08.bks.cpg/sg15_92_cif.got.tgz:182446.got - 2010.06.03 18:47:42.
