data_PCOD9304029
_publ_section_title
;
Structure prediction by ZEFSAII (Michael W. Deem and Ramdas Pophale) SiO2 
 PCOD9304029
Probable space group: C 2/C
;
_chemical_formula_sum "Si O2"
_cell_formula_units_Z 32
_cell_length_a 11.653869
_cell_length_b 7.951795
_cell_length_c 15.104671
_cell_angle_alpha 90.000000
_cell_angle_beta 62.020437
_cell_angle_gamma 90.000000
_cell_volume 1236.129116
_symmetry_space_group_name_H-M "C 2/C"
_symmetry_group_IT_number 15
_symmetry_cell_setting 'monoclinic'
loop_
_space_group_symop_operation_xyz
x,y,z
-x,y,1/2-z
-x,-y,-z
x,-y,1/2+z
1/2+x,1/2+y,z
1/2-x,1/2+y,1/2-z
1/2-x,1/2-y,-z
1/2+x,1/2-y,1/2+z
loop_
_atom_site_type_symbol
_atom_site_label
_atom_site_fract_x
_atom_site_fract_y
_atom_site_fract_z
Si Si1 0.547291 0.889305 0.870960
Si Si2 0.246936 0.176437 0.730852
Si Si3 0.855284 0.316041 0.389813
Si Si4 0.957342 0.166380 0.062858
O O1 0.676825 0.008625 0.829563
O O2 0.429450 0.004936 0.877689
O O3 0.496689 0.185823 0.019329
O O4 0.596960 0.728730 0.795710
O O5 0.296269 0.187438 0.814505
O O6 0.308020 0.312561 0.640850
O O7 0.750000 0.250000 0.500000
O O8 0.971200 0.187001 0.369364
O O9 0.000000 0.000000 0.000000
#
# Coordination Sequence:
#
# PCOD9304029 Si02
#       4
#     8   8   8   8
#     4  11  23  44  70 104 144 189 246 296 372 439
#     4  11  23  41  71  98 143 191 235 304 363 431
#     4  11  23  43  71 100 144 188 237 305 366 432
#     4  11  23  43  68 103 141 186 245 297 366 440
#
# _framework density 25.887262
#
# number of rings (size 3 to 8) (size 9 to 14) (size 15 to 20)
#    0.000    1.000    2.500    7.500    0.000    0.000 
#    0.000   11.250    0.000    1.500    0.000    0.000 
#    0.000    0.000    0.000    0.000    0.000    0.000 
#
# Total GULP energy -89334.510824 kJ/mol
# GULP energy per Si atom -5583.406926 kJ/mol
# Density = 2.582834 g / cm^3
# Si number density = 25.887262 Si / 1000 Ang^3
#
#
#
# Elastic Constant Matrix: (Units=GPa)
#
#
# Indices 1 2 3 4 5 6 
#
# 1 89.8325 55.2749 30.0102 0.0000 5.6170 0.0000
# 2 55.2749 149.7884 66.0148 0.0000 9.0563 0.0000
# 3 30.0102 66.0148 191.0722 0.0000 -23.4697 0.0000
# 4 0.0000 0.0000 0.0000 64.2576 0.0000 -22.6288
# 5 5.6170 9.0563 -23.4697 0.0000 48.4727 0.0000
# 6 0.0000 0.0000 0.0000 -22.6288 0.0000 44.5134
#
#
#
# Elastic Compliance Matrix: (Units=1/GPa)
#
#
# Indices 1 2 3 4 5 6 
#
# 1 0.014494 -0.004979 -0.000689 0.000000 -0.001083 0.000000
# 2 -0.004979 0.010008 -0.003014 0.000000 -0.002752 0.000000
# 3 -0.000689 -0.003014 0.006871 0.000000 0.003970 0.000000
# 4 0.000000 0.000000 0.000000 0.018956 0.000000 0.009636
# 5 -0.001083 -0.002752 0.003970 0.000000 0.023192 0.000000
# 6 0.000000 0.000000 0.000000 0.009636 0.000000 0.027364
#
#
# Mechanical properties :
#
#
# Convention : Reuss Voigt Hill
#
# Bulk Modulus (GPa) = 71.38691 81.47700 76.43196
# Shear Modulus (GPa) = 40.67767 50.07496 45.37631
#
# Velocity S-wave (km/s) = 3.96831 4.40289 4.19124
# Velocity P-wave (km/s) = 6.97371 7.57558 7.28087
#
# Compressibility (1/GPa) = 0.01400817
#
# Stress axis : x y z
#
# Youngs Moduli (GPa) = 68.99639 99.91857 145.54564
#
# Poissons Ratio (x) = 0.49752 0.10029
# Poissons Ratio (y) = 0.34355 0.43864
# Poissons Ratio (z) = 0.04754 0.30113
#
# Static dielectric constant tensor:
#      x y z
#    x 2.153860 0.000000 -0.077490 
#    y 0.000000 2.227770 0.000000 
#    z -0.077490 0.000000 2.023800 
# 
# From -- ./inp_files/141197.got.cif
#   From: 2010.05.17/outbox.cif.g08.bks.cpg/sg15_71_cif.got.tgz:141197.got - 2010.06.03 18:47:42.
