data_PCOD9304842
_publ_section_title
;
Structure prediction by ZEFSAII (Michael W. Deem and Ramdas Pophale) SiO2 
 PCOD9304842
Probable space group: C 2/C
;
_chemical_formula_sum "Si O2"
_cell_formula_units_Z 60
_cell_length_a 10.634030
_cell_length_b 21.041536
_cell_length_c 14.573498
_cell_angle_alpha 90.000000
_cell_angle_beta 61.757051
_cell_angle_gamma 90.000000
_cell_volume 2872.697413
_symmetry_space_group_name_H-M "C 2/C"
_symmetry_group_IT_number 15
_symmetry_cell_setting 'monoclinic'
loop_
_space_group_symop_operation_xyz
x,y,z
-x,y,1/2-z
-x,-y,-z
x,-y,1/2+z
1/2+x,1/2+y,z
1/2-x,1/2+y,1/2-z
1/2-x,1/2-y,-z
1/2+x,1/2-y,1/2+z
loop_
_atom_site_type_symbol
_atom_site_label
_atom_site_fract_x
_atom_site_fract_y
_atom_site_fract_z
Si Si1 0.040726 0.102752 0.000814
Si Si2 0.000000 0.261009 0.750000
Si Si3 0.615142 0.453481 0.789742
Si Si4 0.753530 0.682961 0.226943
Si Si5 0.900734 0.776229 0.477792
Si Si6 0.800971 0.321737 0.499325
Si Si7 0.902216 0.305795 0.156066
Si Si8 0.148977 0.909493 0.257829
O O1 0.166918 0.134094 0.017962
O O2 0.108815 0.092188 0.878399
O O3 0.921827 0.155922 0.016688
O O4 0.968804 0.046988 0.084264
O O5 0.136597 0.302505 0.728684
O O6 0.016180 0.223880 0.648213
O O7 0.500000 0.448689 0.750000
O O8 0.690501 0.385950 0.765331
O O9 0.701344 0.516983 0.732766
O O10 0.648917 0.745191 0.265002
O O11 0.819814 0.675360 0.102822
O O12 0.750000 0.750000 0.500000
O O13 0.934841 0.727470 0.547169
O O14 0.750000 0.250000 0.500000
O O15 0.939518 0.335764 0.386483
O O16 0.771632 0.356618 0.195697
O O17 0.000000 0.903579 0.250000
#
# Coordination Sequence:
#
# PCOD9304842 Si02
#       8
#     8   4   8   8   8   8   8   8
#     4  12  23  42  69  99 137 184 236 285 346 423
#     4  12  22  38  60  98 134 184 224 290 350 406
#     4  11  23  47  72  98 134 188 235 285 345 423
#     4  12  24  40  68  96 137 177 236 282 346 418
#     4  12  22  36  63  96 138 172 225 290 342 401
#     4  12  23  40  64 104 140 177 225 288 352 411
#     4  12  24  40  66 105 140 179 229 294 350 409
#     4  11  27  45  71 100 141 181 239 290 349 415
#
# _framework density 20.886292999999998
#
# number of rings (size 3 to 8) (size 9 to 14) (size 15 to 20)
#    0.000    0.267    6.667    2.800    1.867    1.600 
#    0.000    2.000    0.000    0.000    0.000    0.000 
#    0.000    0.000    0.000    0.000    0.000    0.000 
#
# Total GULP energy -167138.633406 kJ/mol
# GULP energy per Si atom -5571.287780 kJ/mol
# Density = 2.083876 g / cm^3
# Si number density = 20.886293 Si / 1000 Ang^3
#
#
#
# Elastic Constant Matrix: (Units=GPa)
#
#
# Indices 1 2 3 4 5 6 
#
# 1 55.6295 18.2394 9.2841 0.0000 -5.0787 0.0000
# 2 18.2394 114.2289 29.5141 0.0000 -5.1171 0.0000
# 3 9.2841 29.5141 118.4234 0.0000 6.1216 0.0000
# 4 0.0000 0.0000 0.0000 25.6092 0.0000 -8.3483
# 5 -5.0787 -5.1171 6.1216 0.0000 39.3773 0.0000
# 6 0.0000 0.0000 0.0000 -8.3483 0.0000 2.2076
#
#
#
# Elastic Compliance Matrix: (Units=1/GPa)
#
#
# Indices 1 2 3 4 5 6 
#
# 1 0.019235 -0.002725 -0.000946 0.000000 0.002274 0.000000
# 2 -0.002725 0.009843 -0.002306 0.000000 0.001286 0.000000
# 3 -0.000946 -0.002306 0.009189 0.000000 -0.001850 0.000000
# 4 0.000000 0.000000 0.000000 -0.167746 0.000000 -0.634362
# 5 0.002274 0.001286 -0.001850 0.000000 0.026143 0.000000
# 6 0.000000 0.000000 0.000000 -0.634362 0.000000 -1.945961
#
#
# Mechanical properties :
#
#
# Convention : Reuss Voigt Hill
#
# Bulk Modulus (GPa) = 38.00524 44.70632 41.35578
# Shear Modulus (GPa) = -2.46479 28.85509 13.19515
#
# Velocity S-wave (km/s) = -1.08750 3.72093 2.51621
# Velocity P-wave (km/s) = 4.08153 6.31756 5.31838
#
# Compressibility (1/GPa) = 0.02631216
#
# Stress axis : x y z
#
# Youngs Moduli (GPa) = 51.98842 101.59631 108.82798
#
# Poissons Ratio (x) = 0.27684 0.10299
# Poissons Ratio (y) = 0.14167 0.25095
# Poissons Ratio (z) = 0.04920 0.23428
#
# Static dielectric constant tensor:
#      x y z
#    x 1.771860 0.000000 0.006090 
#    y 0.000000 1.811820 0.000000 
#    z 0.006090 0.000000 1.866740 
# 
# From -- ./inp_files/147110.got.cif
#   From: 2010.05.17/outbox.cif.g08.bks.cpg/sg15_74_cif.got.tgz:147110.got - 2010.06.03 18:47:42.
