data_PCOD9304208
_publ_section_title
;
Structure prediction by ZEFSAII (Michael W. Deem and Ramdas Pophale) SiO2 
 PCOD9304208
Probable space group: C 2/C
;
_chemical_formula_sum "Si O2"
_cell_formula_units_Z 40
_cell_length_a 18.215577
_cell_length_b 7.610164
_cell_length_c 19.749901
_cell_angle_alpha 90.000000
_cell_angle_beta 39.007466
_cell_angle_gamma 90.000000
_cell_volume 1723.231205
_symmetry_space_group_name_H-M "C 2/C"
_symmetry_group_IT_number 15
_symmetry_cell_setting 'monoclinic'
loop_
_space_group_symop_operation_xyz
x,y,z
-x,y,1/2-z
-x,-y,-z
x,-y,1/2+z
1/2+x,1/2+y,z
1/2-x,1/2+y,1/2-z
1/2-x,1/2-y,-z
1/2+x,1/2-y,1/2+z
loop_
_atom_site_type_symbol
_atom_site_label
_atom_site_fract_x
_atom_site_fract_y
_atom_site_fract_z
Si Si1 0.295109 0.374739 0.280084
Si Si2 0.382219 0.068114 0.477929
Si Si3 0.131094 0.462505 0.273528
Si Si4 0.727634 0.092047 0.566396
Si Si5 0.029963 0.042880 0.555402
O O1 0.219290 0.458831 0.394575
O O2 0.217612 0.385831 0.267709
O O3 0.330187 0.169009 0.265580
O O4 0.414122 0.480810 0.182605
O O5 0.497991 0.948108 0.394548
O O6 0.434371 0.254836 0.461504
O O7 0.327887 0.058420 0.441790
O O8 0.145975 0.377619 0.189343
O O9 0.750000 0.250000 0.500000
O O10 0.854569 0.053953 0.504861
O O11 0.000000 0.000000 0.500000
#
# Coordination Sequence:
#
# PCOD9304208 Si02
#       5
#     8   8   8   8   8
#     4  11  23  42  76 104 145 190 246 287 368 432
#     4  11  25  45  73 105 147 190 240 300 371 425
#     4  11  25  45  71 106 148 192 238 302 359 443
#     4  12  27  48  71 105 149 188 249 304 366 427
#     4  11  23  47  75 104 145 189 242 295 359 445
#
# _framework density 23.212209000000001
#
# number of rings (size 3 to 8) (size 9 to 14) (size 15 to 20)
#    0.000    0.800    4.000    1.800    2.800    4.000 
#    3.600    0.000    0.000    0.000    0.000    0.000 
#    0.000    0.000    0.000    0.000    0.000    0.000 
#
# Total GULP energy -111961.918251 kJ/mol
# GULP energy per Si atom -5598.095913 kJ/mol
# Density = 2.315938 g / cm^3
# Si number density = 23.212209 Si / 1000 Ang^3
#
#
#
# Elastic Constant Matrix: (Units=GPa)
#
#
# Indices 1 2 3 4 5 6 
#
# 1 137.2406 14.2542 27.2163 0.0000 -0.4293 0.0001
# 2 14.2542 44.5672 11.2509 0.0002 2.5625 -0.0002
# 3 27.2163 11.2509 193.6037 -0.0001 -3.2640 0.0001
# 4 0.0000 0.0002 -0.0001 20.6510 0.0000 0.6398
# 5 -0.4293 2.5625 -3.2640 0.0000 48.7784 0.0000
# 6 0.0001 -0.0002 0.0001 0.6398 0.0000 40.1953
#
#
#
# Elastic Compliance Matrix: (Units=1/GPa)
#
#
# Indices 1 2 3 4 5 6 
#
# 1 0.007707 -0.002232 -0.000952 0.000000 0.000121 0.000000
# 2 -0.002232 0.023499 -0.001074 0.000000 -0.001326 0.000000
# 3 -0.000952 -0.001074 0.005368 0.000000 0.000407 0.000000
# 4 0.000000 0.000000 0.000000 0.048448 0.000000 -0.000771
# 5 0.000121 -0.001326 0.000407 0.000000 0.020599 0.000000
# 6 0.000000 0.000000 0.000000 -0.000771 0.000000 0.024891
#
#
# Mechanical properties :
#
#
# Convention : Reuss Voigt Hill
#
# Bulk Modulus (GPa) = 35.63873 53.42826 44.53349
# Shear Modulus (GPa) = 33.69702 43.43761 38.56731
#
# Velocity S-wave (km/s) = 3.81424 4.33058 4.08058
# Velocity P-wave (km/s) = 5.89786 6.93343 6.43650
#
# Compressibility (1/GPa) = 0.02805937
#
# Stress axis : x y z
#
# Youngs Moduli (GPa) = 129.74547 42.55450 186.27949
#
# Poissons Ratio (x) = 0.09497 0.17729
# Poissons Ratio (y) = 0.28957 0.20011
# Poissons Ratio (z) = 0.12348 0.04571
#
# Static dielectric constant tensor:
#      x y z
#    x 1.743650 0.000000 -0.041400 
#    y 0.000000 1.927610 0.000000 
#    z -0.041400 0.000000 1.879300 
# 
# From -- ./inp_files/221963.got.cif
#   From: 2010.05.17/outbox.cif.g08.bks.cpg/sg15_111_cif.got.tgz:221963.got - 2010.06.03 18:47:42.
