data_PCOD9304504
_publ_section_title
;
Structure prediction by ZEFSAII (Michael W. Deem and Ramdas Pophale) SiO2 
 PCOD9304504
Probable space group: C 2/C
;
_chemical_formula_sum "Si O2"
_cell_formula_units_Z 40
_cell_length_a 18.127931
_cell_length_b 16.615117
_cell_length_c 12.885052
_cell_angle_alpha 90.000000
_cell_angle_beta 27.464703
_cell_angle_gamma 90.000000
_cell_volume 1789.901284
_symmetry_space_group_name_H-M "C 2/C"
_symmetry_group_IT_number 15
_symmetry_cell_setting 'monoclinic'
loop_
_space_group_symop_operation_xyz
x,y,z
-x,y,1/2-z
-x,-y,-z
x,-y,1/2+z
1/2+x,1/2+y,z
1/2-x,1/2+y,1/2-z
1/2-x,1/2-y,-z
1/2+x,1/2-y,1/2+z
loop_
_atom_site_type_symbol
_atom_site_label
_atom_site_fract_x
_atom_site_fract_y
_atom_site_fract_z
Si Si1 0.165179 0.402278 0.103677
Si Si2 0.420231 0.917404 0.737501
Si Si3 0.542335 0.409556 0.920041
Si Si4 0.293127 0.845732 0.232495
Si Si5 0.858162 0.192029 0.007504
O O1 0.156858 0.493656 0.160648
O O2 0.182643 0.338295 0.174657
O O3 0.000000 0.389170 0.250000
O O4 0.308359 0.400626 0.842977
O O5 0.500000 0.902887 0.750000
O O6 0.570369 0.909035 0.473098
O O7 0.289845 0.850682 0.866858
O O8 0.578544 0.368395 0.984196
O O9 0.500000 0.500000 0.000000
O O10 0.385710 0.374362 0.062124
O O11 0.313739 0.769998 0.130574
O O12 0.000000 0.209062 0.750000
#
# Coordination Sequence:
#
# PCOD9304504 Si02
#       5
#     8   8   8   8   8
#     4  11  24  45  72 101 137 181 230 286 344 406
#     4  11  23  44  71 101 137 177 229 286 344 406
#     4  12  25  44  72 104 137 180 233 286 344 409
#     4  12  25  43  68 101 141 182 223 279 346 412
#     4  12  26  45  70 102 140 180 227 283 344 413
#
# _framework density 22.3476
#
# number of rings (size 3 to 8) (size 9 to 14) (size 15 to 20)
#    0.000    0.400    0.000   10.200    0.000    3.200 
#    0.000    4.000    0.000    0.000    0.000    0.000 
#    0.000    0.000    0.000    0.000    0.000    0.000 
#
# Total GULP energy -112045.771372 kJ/mol
# GULP energy per Si atom -5602.288569 kJ/mol
# Density = 2.229674 g / cm^3
# Si number density = 22.347600 Si / 1000 Ang^3
#
#
#
# Elastic Constant Matrix: (Units=GPa)
#
#
# Indices 1 2 3 4 5 6 
#
# 1 146.0784 61.2133 81.2885 -0.0009 0.4382 0.0005
# 2 61.2133 81.2588 49.5051 -0.0012 -1.3857 0.0007
# 3 81.2885 49.5051 200.1789 -0.0012 -5.1071 0.0009
# 4 -0.0009 -0.0012 -0.0012 7.2781 0.0007 23.0216
# 5 0.4382 -1.3857 -5.1071 0.0007 46.8069 -0.0003
# 6 0.0005 0.0007 0.0009 23.0216 -0.0003 13.2404
#
#
#
# Elastic Compliance Matrix: (Units=1/GPa)
#
#
# Indices 1 2 3 4 5 6 
#
# 1 0.011307 -0.006736 -0.002942 0.000000 -0.000626 0.000000
# 2 -0.006736 0.018503 -0.001830 -0.000001 0.000411 0.000001
# 3 -0.002942 -0.001830 0.006660 0.000000 0.000700 0.000000
# 4 0.000000 -0.000001 0.000000 -0.030534 0.000001 0.053091
# 5 -0.000626 0.000411 0.000700 0.000001 0.021459 -0.000001
# 6 0.000000 0.000001 0.000000 0.053091 -0.000001 -0.016784
#
#
# Mechanical properties :
#
#
# Convention : Reuss Voigt Hill
#
# Bulk Modulus (GPa) = 74.32355 90.17000 82.24677
# Shear Modulus (GPa) = 131.19178 29.16570 80.17874
#
# Velocity S-wave (km/s) = 7.67024 3.61653 5.99632
# Velocity P-wave (km/s) = 10.57230 7.60759 9.21002
#
# Compressibility (1/GPa) = 0.01345469
#
# Stress axis : x y z
#
# Youngs Moduli (GPa) = 88.43780 54.04588 150.13956
#
# Poissons Ratio (x) = 0.36408 0.44167
# Poissons Ratio (y) = 0.59576 0.27472
# Poissons Ratio (z) = 0.26016 0.09889
#
# Static dielectric constant tensor:
#      x y z
#    x 1.790980 0.000000 0.052370 
#    y 0.000000 1.807080 0.000000 
#    z 0.052370 0.000000 1.759320 
# 
# From -- ./inp_files/29076.got.cif
#   From: 2010.05.17/outbox.cif.g08.bks.cpg/sg15_15_cif.got.tgz:29076.got - 2010.06.03 18:47:42.
