data_PCOD9304066
_publ_section_title
;
Structure prediction by ZEFSAII (Michael W. Deem and Ramdas Pophale) SiO2 
 PCOD9304066
Probable space group: C 2/C
;
_chemical_formula_sum "Si O2"
_cell_formula_units_Z 48
_cell_length_a 23.494244
_cell_length_b 22.952458
_cell_length_c 9.994930
_cell_angle_alpha 90.000000
_cell_angle_beta 24.914234
_cell_angle_gamma 90.000000
_cell_volume 2270.501688
_symmetry_space_group_name_H-M "C 2/C"
_symmetry_group_IT_number 15
_symmetry_cell_setting 'monoclinic'
loop_
_space_group_symop_operation_xyz
x,y,z
-x,y,1/2-z
-x,-y,-z
x,-y,1/2+z
1/2+x,1/2+y,z
1/2-x,1/2+y,1/2-z
1/2-x,1/2-y,-z
1/2+x,1/2-y,1/2+z
loop_
_atom_site_type_symbol
_atom_site_label
_atom_site_fract_x
_atom_site_fract_y
_atom_site_fract_z
Si Si1 0.106086 0.549999 0.283994
Si Si2 0.500000 0.394586 0.750000
Si Si3 0.120473 0.998966 0.845245
Si Si4 0.500000 0.871149 0.250000
Si Si5 0.767044 0.191839 0.277013
Si Si6 0.500000 0.886370 0.750000
Si Si7 0.000000 0.110650 0.750000
Si Si8 0.230383 0.822819 0.412314
O O1 0.069625 0.591048 0.485098
O O2 0.000000 0.500000 0.500000
O O3 0.084598 0.581467 0.187109
O O4 0.240963 0.512675 0.021698
O O5 0.601164 0.441693 0.469343
O O6 0.599946 0.355877 0.628161
O O7 0.097628 0.937146 0.966988
O O8 0.000000 0.000000 0.000000
O O9 0.378707 0.834425 0.445083
O O10 0.798991 0.184332 0.367076
O O11 0.753558 0.261125 0.288182
O O12 0.884523 0.156552 0.946221
O O13 0.623120 0.853227 0.413646
#
# Coordination Sequence:
#
# PCOD9304066 Si02
#       8
#     8   4   8   4   8   4   4   8
#     4  12  26  43  70 104 142 186 231 290 355 428
#     4  11  23  42  67 101 136 186 238 284 354 421
#     4  11  24  40  66  96 137 180 227 288 348 420
#     4  12  24  44  69 107 142 180 240 290 354 426
#     4  11  24  44  70 102 141 187 239 297 351 415
#     4  12  24  48  69 101 142 188 238 284 360 422
#     4  11  23  42  65  95 136 180 232 278 352 409
#     4  11  24  45  70 100 141 189 239 295 353 417
#
# _framework density 21.140702000000001
#
# number of rings (size 3 to 8) (size 9 to 14) (size 15 to 20)
#    0.000    0.667    3.333    4.500    2.333    1.333 
#    0.000    0.833    0.000    0.000    0.000    0.000 
#    0.000    0.000    0.000    0.000    0.000    0.000 
#
# Total GULP energy -133691.241728 kJ/mol
# GULP energy per Si atom -5570.468405 kJ/mol
# Density = 2.109259 g / cm^3
# Si number density = 21.140702 Si / 1000 Ang^3
#
#
#
# Elastic Constant Matrix: (Units=GPa)
#
#
# Indices 1 2 3 4 5 6 
#
# 1 62.4253 20.5482 3.9762 0.0059 -14.0264 -0.0053
# 2 20.5482 112.9566 22.7164 0.0033 -12.5171 -0.0027
# 3 3.9762 22.7164 111.9395 0.0002 -33.0807 -0.0006
# 4 0.0059 0.0033 0.0002 -98.4923 -0.0038 100.1701
# 5 -14.0264 -12.5171 -33.0807 -0.0038 38.1788 0.0041
# 6 -0.0053 -0.0027 -0.0006 100.1701 0.0041 -58.9342
#
#
#
# Elastic Compliance Matrix: (Units=1/GPa)
#
#
# Indices 1 2 3 4 5 6 
#
# 1 0.018610 -0.002972 0.002251 0.000000 0.007813 0.000000
# 2 -0.002972 0.009806 -0.001690 0.000000 0.000659 0.000000
# 3 0.002251 -0.001690 0.012470 0.000000 0.011078 0.000000
# 4 0.000000 0.000000 0.000000 0.013934 -0.000001 0.023684
# 5 0.007813 0.000659 0.011078 -0.000001 0.038878 0.000000
# 6 0.000000 0.000000 0.000000 0.023684 0.000000 0.023287
#
#
# Mechanical properties :
#
#
# Convention : Reuss Voigt Hill
#
# Bulk Modulus (GPa) = 27.72821 42.42258 35.07539
# Shear Modulus (GPa) = 37.36122 -7.84417 14.75852
#
# Velocity S-wave (km/s) = 4.20845 -1.92835 2.64504
# Velocity P-wave (km/s) = 6.06294 3.89260 5.09468
#
# Compressibility (1/GPa) = 0.03606435
#
# Stress axis : x y z
#
# Youngs Moduli (GPa) = 53.73566 101.97321 80.19145
#
# Poissons Ratio (x) = 0.30309 -0.18051
# Poissons Ratio (y) = 0.15972 0.13550
# Poissons Ratio (z) = -0.12096 0.17231
#
# Static dielectric constant tensor:
#      x y z
#    x 1.877740 0.000000 0.616470 
#    y 0.000000 2.899180 0.000000 
#    z 0.616470 0.000000 4.169520 
# 
# From -- ./inp_files/124338.got.cif
#   From: 2010.05.17/outbox.cif.g08.bks.cpg/sg15_63_cif.got.tgz:124338.got - 2010.06.03 18:47:42.
