data_PCOD9304320
_publ_section_title
;
Structure prediction by ZEFSAII (Michael W. Deem and Ramdas Pophale) SiO2 
 PCOD9304320
Probable space group: C 2/C
;
_chemical_formula_sum "Si O2"
_cell_formula_units_Z 48
_cell_length_a 19.876320
_cell_length_b 11.279050
_cell_length_c 10.644861
_cell_angle_alpha 90.000000
_cell_angle_beta 114.068750
_cell_angle_gamma 90.000000
_cell_volume 2178.945003
_symmetry_space_group_name_H-M "C 2/C"
_symmetry_group_IT_number 15
_symmetry_cell_setting 'monoclinic'
loop_
_space_group_symop_operation_xyz
x,y,z
-x,y,1/2-z
-x,-y,-z
x,-y,1/2+z
1/2+x,1/2+y,z
1/2-x,1/2+y,1/2-z
1/2-x,1/2-y,-z
1/2+x,1/2-y,1/2+z
loop_
_atom_site_type_symbol
_atom_site_label
_atom_site_fract_x
_atom_site_fract_y
_atom_site_fract_z
Si Si1 0.688667 0.673830 0.526218
Si Si2 0.198545 0.039781 0.200445
Si Si3 0.830639 0.223563 0.507737
Si Si4 0.912837 0.000632 0.194001
Si Si5 0.650545 0.091783 0.098565
Si Si6 0.587276 0.950494 0.827904
O O1 0.750000 0.750000 0.500000
O O2 0.721883 0.556236 0.614780
O O3 0.623269 0.619797 0.391612
O O4 0.656496 0.765824 0.603482
O O5 0.119948 0.998486 0.191278
O O6 0.266209 0.040236 0.348124
O O7 0.187175 0.173383 0.143800
O O8 0.750000 0.250000 0.500000
O O9 0.878999 0.337838 0.572351
O O10 0.874648 0.112645 0.600291
O O11 0.000000 0.997796 0.250000
O O12 0.618783 0.048604 0.208858
O O13 0.607794 0.056156 0.939554
O O14 0.500000 0.940701 0.750000
#
# Coordination Sequence:
#
# PCOD9304320 Si02
#       6
#     8   8   8   8   8   8
#     4  11  24  43  67 101 139 184 243 294 359 438
#     4  11  24  41  72 102 138 190 242 298 359 431
#     4  11  23  43  70 101 137 185 243 287 354 438
#     4  11  25  43  67 103 142 182 237 305 366 421
#     4  12  25  44  73 102 144 190 243 296 361 442
#     4  12  27  45  70 105 146 189 238 300 365 433
#
# _framework density 22.02901
#
# number of rings (size 3 to 8) (size 9 to 14) (size 15 to 20)
#    0.000    0.667    3.333    4.000    2.333    6.000 
#    0.000    0.000    0.000    0.000    0.000    0.000 
#    0.000    0.000    0.000    0.000    0.000    0.000 
#
# Total GULP energy -134028.508949 kJ/mol
# GULP energy per Si atom -5584.521206 kJ/mol
# Density = 2.197887 g / cm^3
# Si number density = 22.029010 Si / 1000 Ang^3
#
#
#
# Elastic Constant Matrix: (Units=GPa)
#
#
# Indices 1 2 3 4 5 6 
#
# 1 152.9006 24.8325 49.1711 0.0000 28.4830 0.0000
# 2 24.8325 66.7062 25.1711 0.0000 14.0238 0.0000
# 3 49.1711 25.1711 91.7175 0.0000 16.5459 0.0000
# 4 0.0000 0.0000 0.0000 41.8262 0.0000 1.5518
# 5 28.4830 14.0238 16.5459 0.0000 50.1114 0.0000
# 6 0.0000 0.0000 0.0000 1.5518 0.0000 27.4840
#
#
#
# Elastic Compliance Matrix: (Units=1/GPa)
#
#
# Indices 1 2 3 4 5 6 
#
# 1 0.008515 -0.001087 -0.003667 0.000000 -0.003325 0.000000
# 2 -0.001087 0.017413 -0.003645 0.000000 -0.003051 0.000000
# 3 -0.003667 -0.003645 0.014152 0.000000 -0.001568 0.000000
# 4 0.000000 0.000000 0.000000 0.023959 0.000000 -0.001353
# 5 -0.003325 -0.003051 -0.001568 0.000000 0.023217 0.000000
# 6 0.000000 0.000000 0.000000 -0.001353 0.000000 0.036461
#
#
# Mechanical properties :
#
#
# Convention : Reuss Voigt Hill
#
# Bulk Modulus (GPa) = 42.95293 56.63043 49.79168
# Shear Modulus (GPa) = 33.72045 38.02760 35.87402
#
# Velocity S-wave (km/s) = 3.91670 4.15933 4.03983
# Velocity P-wave (km/s) = 6.32414 6.98782 6.66425
#
# Compressibility (1/GPa) = 0.02328130
#
# Stress axis : x y z
#
# Youngs Moduli (GPa) = 117.43340 57.42854 70.65934
#
# Poissons Ratio (x) = 0.06244 0.25911
# Poissons Ratio (y) = 0.12768 0.25759
# Poissons Ratio (z) = 0.43063 0.20935
#
# Static dielectric constant tensor:
#      x y z
#    x 1.823310 0.000000 -0.073690 
#    y 0.000000 1.824430 0.000000 
#    z -0.073690 0.000000 1.866340 
# 
# From -- ./inp_files/111211.got.cif
#   From: 2010.05.17/outbox.cif.g08.bks.cpg/sg15_56_cif.got.tgz:111211.got - 2010.06.03 18:47:42.
