data_PCOD9304607
_publ_section_title
;
Structure prediction by ZEFSAII (Michael W. Deem and Ramdas Pophale) SiO2 
 PCOD9304607
Probable space group: C 2/C
;
_chemical_formula_sum "Si O2"
_cell_formula_units_Z 40
_cell_length_a 22.201562
_cell_length_b 5.735221
_cell_length_c 13.969430
_cell_angle_alpha 90.000000
_cell_angle_beta 71.514870
_cell_angle_gamma 90.000000
_cell_volume 1686.967262
_symmetry_space_group_name_H-M "C 2/C"
_symmetry_group_IT_number 15
_symmetry_cell_setting 'monoclinic'
loop_
_space_group_symop_operation_xyz
x,y,z
-x,y,1/2-z
-x,-y,-z
x,-y,1/2+z
1/2+x,1/2+y,z
1/2-x,1/2+y,1/2-z
1/2-x,1/2-y,-z
1/2+x,1/2-y,1/2+z
loop_
_atom_site_type_symbol
_atom_site_label
_atom_site_fract_x
_atom_site_fract_y
_atom_site_fract_z
Si Si1 0.599102 0.294275 0.091896
Si Si2 0.185295 0.603826 0.538605
Si Si3 0.886866 0.894636 0.086947
Si Si4 0.019978 0.532501 0.380034
Si Si5 0.382445 0.324251 0.755585
O O1 0.545372 0.101850 0.138656
O O2 0.600689 0.480481 0.174760
O O3 0.667457 0.170695 0.039880
O O4 0.580433 0.430705 0.004718
O O5 0.250000 0.750000 0.500000
O O6 0.147431 0.715742 0.467295
O O7 0.160348 0.655494 0.658707
O O8 0.932659 0.750080 0.133268
O O9 0.848664 0.055352 0.181246
O O10 0.057258 0.314313 0.317468
O O11 0.000000 0.500000 0.500000
#
# Coordination Sequence:
#
# PCOD9304607 Si02
#       5
#     8   8   8   8   8
#     4  11  25  45  72 107 150 195 249 309 382 457
#     4  11  26  50  69 101 145 196 257 316 368 451
#     4  11  23  45  69 103 146 196 239 308 382 446
#     4  12  23  45  72 106 157 188 240 309 385 464
#     4  11  26  43  70 110 141 196 246 305 382 450
#
# _framework density 23.711189999999998
#
# number of rings (size 3 to 8) (size 9 to 14) (size 15 to 20)
#    0.000    0.800    4.000    1.800    0.000    8.000 
#   10.800    0.000    0.000    0.000    0.000    0.000 
#    0.000    0.000    0.000    0.000    0.000    0.000 
#
# Total GULP energy -111666.451873 kJ/mol
# GULP energy per Si atom -5583.322594 kJ/mol
# Density = 2.365722 g / cm^3
# Si number density = 23.711190 Si / 1000 Ang^3
#
#
#
# Elastic Constant Matrix: (Units=GPa)
#
#
# Indices 1 2 3 4 5 6 
#
# 1 63.8491 29.6876 7.5522 0.0000 -12.3537 0.0000
# 2 29.6876 115.1791 38.4724 0.0000 -0.6729 0.0000
# 3 7.5522 38.4724 127.3387 0.0000 16.9153 0.0000
# 4 0.0000 0.0000 0.0000 62.2911 0.0000 11.5906
# 5 -12.3537 -0.6729 16.9153 0.0000 27.9177 0.0000
# 6 0.0000 0.0000 0.0000 11.5906 0.0000 21.4168
#
#
#
# Elastic Compliance Matrix: (Units=1/GPa)
#
#
# Indices 1 2 3 4 5 6 
#
# 1 0.019751 -0.004712 -0.000972 0.000000 0.009215 0.000000
# 2 -0.004712 0.010904 -0.003016 0.000000 0.000005 0.000000
# 3 -0.000972 -0.003016 0.009667 0.000000 -0.006360 0.000000
# 4 0.000000 0.000000 0.000000 0.017851 0.000000 -0.009661
# 5 0.009215 0.000005 -0.006360 0.000000 0.043751 0.000000
# 6 0.000000 0.000000 0.000000 -0.009661 0.000000 0.051921
#
#
# Mechanical properties :
#
#
# Convention : Reuss Voigt Hill
#
# Bulk Modulus (GPa) = 43.62590 50.86568 47.24579
# Shear Modulus (GPa) = 27.95101 37.70210 32.82655
#
# Velocity S-wave (km/s) = 3.43711 3.99188 3.72483
# Velocity P-wave (km/s) = 5.84726 6.53801 6.20225
#
# Compressibility (1/GPa) = 0.02292216
#
# Stress axis : x y z
#
# Youngs Moduli (GPa) = 50.63053 91.70913 103.44924
#
# Poissons Ratio (x) = 0.43217 0.10053
# Poissons Ratio (y) = 0.23859 0.31195
# Poissons Ratio (z) = 0.04920 0.27655
#
# Static dielectric constant tensor:
#      x y z
#    x 1.954940 0.000000 -0.045510 
#    y 0.000000 2.026290 0.000000 
#    z -0.045510 0.000000 1.936550 
# 
# From -- ./inp_files/170727.got.cif
#   From: 2010.05.17/outbox.cif.g08.bks.cpg/sg15_86_cif.got.tgz:170727.got - 2010.06.03 18:47:42.
