data_PCOD9304318
_publ_section_title
;
Structure prediction by ZEFSAII (Michael W. Deem and Ramdas Pophale) SiO2 
 PCOD9304318
Probable space group: C 2/C
;
_chemical_formula_sum "Si O2"
_cell_formula_units_Z 40
_cell_length_a 19.551999
_cell_length_b 10.241416
_cell_length_c 19.724626
_cell_angle_alpha 90.000000
_cell_angle_beta 150.918034
_cell_angle_gamma 90.000000
_cell_volume 1919.774117
_symmetry_space_group_name_H-M "C 2/C"
_symmetry_group_IT_number 15
_symmetry_cell_setting 'monoclinic'
loop_
_space_group_symop_operation_xyz
x,y,z
-x,y,1/2-z
-x,-y,-z
x,-y,1/2+z
1/2+x,1/2+y,z
1/2-x,1/2+y,1/2-z
1/2-x,1/2-y,-z
1/2+x,1/2-y,1/2+z
loop_
_atom_site_type_symbol
_atom_site_label
_atom_site_fract_x
_atom_site_fract_y
_atom_site_fract_z
Si Si1 0.873609 0.883598 0.449109
Si Si2 0.921934 0.408025 0.986114
Si Si3 0.353362 0.743137 0.654291
Si Si4 0.911614 0.456120 0.237219
Si Si5 0.358117 0.460703 0.280499
O O1 0.950735 0.745439 0.506629
O O2 0.730605 0.879129 0.368354
O O3 0.832114 0.922628 0.336471
O O4 0.982660 0.984413 0.578459
O O5 0.755617 0.428804 0.834814
O O6 0.000000 0.500000 0.000000
O O7 0.979402 0.453310 0.107362
O O8 0.500000 0.695206 0.750000
O O9 0.250000 0.750000 0.500000
O O10 0.328415 0.652942 0.699192
O O11 0.369104 0.893011 0.690512
O O12 0.000000 0.406978 0.250000
#
# Coordination Sequence:
#
# PCOD9304318 Si02
#       5
#     8   8   8   8   8
#     4  11  25  43  65 104 137 180 231 284 350 416
#     4  12  24  43  67  96 135 180 228 281 350 414
#     4  11  23  43  70 100 134 178 233 286 345 411
#     4  11  24  44  68  99 138 183 229 285 347 414
#     4  11  24  40  70  99 136 177 227 294 342 414
#
# _framework density 20.835784
#
# number of rings (size 3 to 8) (size 9 to 14) (size 15 to 20)
#    0.000    0.800    2.000    6.000    0.000    2.400 
#    0.000    4.000    0.000    0.000    0.000    0.000 
#    0.000    0.000    0.000    0.000    0.000    0.000 
#
# Total GULP energy -111682.812538 kJ/mol
# GULP energy per Si atom -5584.140627 kJ/mol
# Density = 2.078836 g / cm^3
# Si number density = 20.835784 Si / 1000 Ang^3
#
#
#
# Elastic Constant Matrix: (Units=GPa)
#
#
# Indices 1 2 3 4 5 6 
#
# 1 119.6662 11.4996 55.7870 0.0000 1.9062 0.0000
# 2 11.4996 65.7999 17.3166 0.0000 -10.8528 0.0000
# 3 55.7870 17.3166 156.7079 0.0000 -27.2110 0.0000
# 4 0.0000 0.0000 0.0000 33.1509 0.0000 -0.1276
# 5 1.9062 -10.8528 -27.2110 0.0000 44.2327 0.0000
# 6 0.0000 0.0000 0.0000 -0.1276 0.0000 27.7244
#
#
#
# Elastic Compliance Matrix: (Units=1/GPa)
#
#
# Indices 1 2 3 4 5 6 
#
# 1 0.010475 -0.001283 -0.004165 0.000000 -0.003329 0.000000
# 2 -0.001283 0.016201 -0.000709 0.000000 0.003594 0.000000
# 3 -0.004165 -0.000709 0.008893 0.000000 0.005476 0.000000
# 4 0.000000 0.000000 0.000000 0.030166 0.000000 0.000139
# 5 -0.003329 0.003594 0.005476 0.000000 0.027002 0.000000
# 6 0.000000 0.000000 0.000000 0.000139 0.000000 0.036070
#
#
# Mechanical properties :
#
#
# Convention : Reuss Voigt Hill
#
# Bulk Modulus (GPa) = 43.00395 56.82005 49.91200
# Shear Modulus (GPa) = 33.58550 38.19300 35.88925
#
# Velocity S-wave (km/s) = 4.01922 4.28606 4.15478
# Velocity P-wave (km/s) = 6.49793 7.19884 6.85735
#
# Compressibility (1/GPa) = 0.02325368
#
# Stress axis : x y z
#
# Youngs Moduli (GPa) = 95.46867 61.72320 112.44354
#
# Poissons Ratio (x) = 0.07922 0.46833
# Poissons Ratio (y) = 0.12253 0.07975
# Poissons Ratio (z) = 0.39763 0.04378
#
# Static dielectric constant tensor:
#      x y z
#    x 1.734260 0.000000 0.011930 
#    y 0.000000 2.050210 0.000000 
#    z 0.011930 0.000000 1.787440 
# 
# From -- ./inp_files/69228.got.cif
#   From: 2010.05.17/outbox.cif.g08.bks.cpg/sg15_35_cif.got.tgz:69228.got - 2010.06.03 18:47:42.
