data_PCOD9304941
_publ_section_title
;
Structure prediction by ZEFSAII (Michael W. Deem and Ramdas Pophale) SiO2 
 PCOD9304941
Probable space group: C 2/C
;
_chemical_formula_sum "Si O2"
_cell_formula_units_Z 32
_cell_length_a 12.671745
_cell_length_b 10.558915
_cell_length_c 13.577706
_cell_angle_alpha 90.000000
_cell_angle_beta 135.080801
_cell_angle_gamma 90.000000
_cell_volume 1282.784772
_symmetry_space_group_name_H-M "C 2/C"
_symmetry_group_IT_number 15
_symmetry_cell_setting 'monoclinic'
loop_
_space_group_symop_operation_xyz
x,y,z
-x,y,1/2-z
-x,-y,-z
x,-y,1/2+z
1/2+x,1/2+y,z
1/2-x,1/2+y,1/2-z
1/2-x,1/2-y,-z
1/2+x,1/2-y,1/2+z
loop_
_atom_site_type_symbol
_atom_site_label
_atom_site_fract_x
_atom_site_fract_y
_atom_site_fract_z
Si Si1 0.227560 0.546618 0.579873
Si Si2 0.973374 0.347283 0.385218
Si Si3 0.584099 0.573431 0.142509
Si Si4 0.338965 0.070000 0.174751
O O1 0.115484 0.633176 0.570240
O O2 0.370178 0.518296 0.739549
O O3 0.256273 0.585842 0.487205
O O4 0.129644 0.419112 0.499940
O O5 0.995721 0.201003 0.377357
O O6 0.879238 0.427897 0.241776
O O7 0.743785 0.620667 0.202352
O O8 0.500000 0.500000 0.000000
O O9 0.500000 0.125298 0.250000
#
# Coordination Sequence:
#
# PCOD9304941 Si02
#       4
#     8   8   8   8
#     4   9  20  40  62  88 125 166 206 249 317 369
#     4   9  20  39  64  89 124 167 200 260 313 364
#     4  11  24  38  62  96 130 158 212 259 308 365
#     4   9  20  43  63  93 120 168 208 245 314 377
#
# _framework density 24.945727999999999
#
# number of rings (size 3 to 8) (size 9 to 14) (size 15 to 20)
#    0.000    2.500    0.000    1.500    7.000    3.000 
#    9.000    0.000    0.000    0.000    0.000    0.000 
#    0.000    0.000    0.000    0.000    0.000    0.000 
#
# Total GULP energy -89386.765338 kJ/mol
# GULP energy per Si atom -5586.672834 kJ/mol
# Density = 2.488895 g / cm^3
# Si number density = 24.945728 Si / 1000 Ang^3
#
#
#
# Elastic Constant Matrix: (Units=GPa)
#
#
# Indices 1 2 3 4 5 6 
#
# 1 95.7045 -31.1108 -4.7034 0.0000 -15.7552 0.0000
# 2 -31.1108 55.4134 5.9281 0.0000 14.2538 0.0000
# 3 -4.7034 5.9281 153.5422 0.0000 -28.4192 0.0000
# 4 0.0000 0.0000 0.0000 21.7809 0.0000 6.4785
# 5 -15.7552 14.2538 -28.4192 0.0000 43.8469 0.0000
# 6 0.0000 0.0000 0.0000 6.4785 0.0000 0.0992
#
#
#
# Elastic Compliance Matrix: (Units=1/GPa)
#
#
# Indices 1 2 3 4 5 6 
#
# 1 0.013098 0.006489 0.000717 0.000000 0.003062 0.000000
# 2 0.006489 0.023591 -0.001932 0.000000 -0.006589 0.000000
# 3 0.000717 -0.001932 0.007697 0.000000 0.005874 0.000000
# 4 0.000000 0.000000 0.000000 -0.002491 0.000000 0.162731
# 5 0.003062 -0.006589 0.005874 0.000000 0.029856 0.000000
# 6 0.000000 0.000000 0.000000 0.162731 0.000000 -0.547110
#
#
# Mechanical properties :
#
#
# Convention : Reuss Voigt Hill
#
# Bulk Modulus (GPa) = 18.20341 27.20975 22.70658
# Shear Modulus (GPa) = -10.69297 35.44849 12.37776
#
# Velocity S-wave (km/s) = -2.07263 3.77374 2.22994
# Velocity P-wave (km/s) = 1.25909 5.46986 3.96892
#
# Compressibility (1/GPa) = 0.05493476
#
# Stress axis : x y z
#
# Youngs Moduli (GPa) = 76.35026 42.38914 129.92582
#
# Poissons Ratio (x) = -0.27507 -0.09321
# Poissons Ratio (y) = -0.49544 0.25097
# Poissons Ratio (z) = -0.05477 0.08188
#
# Static dielectric constant tensor:
#      x y z
#    x 2.025780 0.000000 0.033160 
#    y 0.000000 1.986400 0.000000 
#    z 0.033160 0.000000 2.001550 
# 
# From -- ./inp_files/36754.got.cif
#   From: 2010.05.17/outbox.cif.g08.bks.cpg/sg15_19_cif.got.tgz:36754.got - 2010.06.03 18:47:42.
