data_PCOD9304961
_publ_section_title
;
Structure prediction by ZEFSAII (Michael W. Deem and Ramdas Pophale) SiO2 
 PCOD9304961
Probable space group: C 2/C
;
_chemical_formula_sum "Si O2"
_cell_formula_units_Z 32
_cell_length_a 11.913524
_cell_length_b 7.975558
_cell_length_c 22.333864
_cell_angle_alpha 90.000000
_cell_angle_beta 143.393599
_cell_angle_gamma 90.000000
_cell_volume 1265.437217
_symmetry_space_group_name_H-M "C 2/C"
_symmetry_group_IT_number 15
_symmetry_cell_setting 'monoclinic'
loop_
_space_group_symop_operation_xyz
x,y,z
-x,y,1/2-z
-x,-y,-z
x,-y,1/2+z
1/2+x,1/2+y,z
1/2-x,1/2+y,1/2-z
1/2-x,1/2-y,-z
1/2+x,1/2-y,1/2+z
loop_
_atom_site_type_symbol
_atom_site_label
_atom_site_fract_x
_atom_site_fract_y
_atom_site_fract_z
Si Si1 0.469432 0.797249 0.107687
Si Si2 0.831739 0.851498 0.210421
Si Si3 0.710834 0.977650 0.886441
Si Si4 0.537208 0.575661 0.609900
O O1 0.610628 0.899235 0.123723
O O2 0.458570 0.909505 0.162287
O O3 0.559719 0.612761 0.146417
O O4 0.250000 0.750000 0.000000
O O5 0.821639 0.689386 0.164053
O O6 0.000000 0.956816 0.250000
O O7 0.902585 0.814692 0.308360
O O8 0.841172 0.090353 0.898580
O O9 0.826320 0.918228 0.994645
#
# Coordination Sequence:
#
# PCOD9304961 Si02
#       4
#     8   8   8   8
#     4   9  20  42  71  99 136 186 228 279 349 408
#     4  11  24  39  65 108 140 173 237 290 342 409
#     4   9  20  42  70  95 139 185 224 286 346 405
#     4   9  20  42  67 103 137 178 236 279 340 416
#
# _framework density 25.287701999999999
#
# number of rings (size 3 to 8) (size 9 to 14) (size 15 to 20)
#    0.000    2.500    0.000    1.500    7.000    1.000 
#    9.000    5.000    0.000    0.000    0.000    1.750 
#    0.000    0.000    0.000    0.000    0.000    0.000 
#
# Total GULP energy -89099.568366 kJ/mol
# GULP energy per Si atom -5568.723023 kJ/mol
# Density = 2.523015 g / cm^3
# Si number density = 25.287702 Si / 1000 Ang^3
#
#
#
# Elastic Constant Matrix: (Units=GPa)
#
#
# Indices 1 2 3 4 5 6 
#
# 1 199.0432 30.3014 24.9874 0.0000 25.0780 0.0000
# 2 30.3014 58.3803 15.0809 0.0000 -15.6583 0.0000
# 3 24.9874 15.0809 139.9284 0.0000 -6.7314 0.0000
# 4 0.0000 0.0000 0.0000 30.4887 0.0000 -16.8062
# 5 25.0780 -15.6583 -6.7314 0.0000 52.6769 0.0000
# 6 0.0000 0.0000 0.0000 -16.8062 0.0000 46.3878
#
#
#
# Elastic Compliance Matrix: (Units=1/GPa)
#
#
# Indices 1 2 3 4 5 6 
#
# 1 0.006333 -0.004235 -0.000885 0.000000 -0.004387 0.000000
# 2 -0.004235 0.021881 -0.001200 0.000000 0.008367 0.000000
# 3 -0.000885 -0.001200 0.007483 0.000000 0.001021 0.000000
# 4 0.000000 0.000000 0.000000 0.040984 0.000000 0.014848
# 5 -0.004387 0.008367 0.001021 0.000000 0.023690 0.000000
# 6 0.000000 0.000000 0.000000 0.014848 0.000000 0.026937
#
#
# Mechanical properties :
#
#
# Convention : Reuss Voigt Hill
#
# Bulk Modulus (GPa) = 43.37029 59.78793 51.57911
# Shear Modulus (GPa) = 33.86806 47.70949 40.78878
#
# Velocity S-wave (km/s) = 3.66363 4.34829 4.02056
# Velocity P-wave (km/s) = 5.92319 6.99318 6.48031
#
# Compressibility (1/GPa) = 0.02305726
#
# Stress axis : x y z
#
# Youngs Moduli (GPa) = 157.91460 45.70187 133.63555
#
# Poissons Ratio (x) = 0.19353 0.11833
# Poissons Ratio (y) = 0.66871 0.16030
# Poissons Ratio (z) = 0.13983 0.05482
#
# Static dielectric constant tensor:
#      x y z
#    x 2.126160 0.000000 0.109380 
#    y 0.000000 2.063660 0.000000 
#    z 0.109380 0.000000 2.094140 
# 
# From -- ./inp_files/272977.got.cif
#   From: 2010.05.17/outbox.cif.g08.bks.cpg/sg15_137_cif.got.tgz:272977.got - 2010.06.03 18:47:42.
