data_PCOD9304966
_publ_section_title
;
Structure prediction by ZEFSAII (Michael W. Deem and Ramdas Pophale) SiO2 
 PCOD9304966
Probable space group: C 2/C
;
_chemical_formula_sum "Si O2"
_cell_formula_units_Z 64
_cell_length_a 8.860711
_cell_length_b 14.559862
_cell_length_c 30.757455
_cell_angle_alpha 90.000000
_cell_angle_beta 54.818618
_cell_angle_gamma 90.000000
_cell_volume 3243.208113
_symmetry_space_group_name_H-M "C 2/C"
_symmetry_group_IT_number 15
_symmetry_cell_setting 'monoclinic'
loop_
_space_group_symop_operation_xyz
x,y,z
-x,y,1/2-z
-x,-y,-z
x,-y,1/2+z
1/2+x,1/2+y,z
1/2-x,1/2+y,1/2-z
1/2-x,1/2-y,-z
1/2+x,1/2-y,1/2+z
loop_
_atom_site_type_symbol
_atom_site_label
_atom_site_fract_x
_atom_site_fract_y
_atom_site_fract_z
Si Si1 0.083720 0.101689 0.992647
Si Si2 0.369116 0.138847 0.099895
Si Si3 0.554308 0.101689 0.507353
Si Si4 0.544035 0.277795 0.192996
Si Si5 0.816018 0.277795 0.307004
Si Si6 0.178796 0.425824 0.375835
Si Si7 0.182134 0.425824 0.124165
Si Si8 0.731305 0.861153 0.599895
O O1 0.258757 0.098156 0.995622
O O2 0.921173 0.157577 0.042708
O O3 0.164982 0.124223 0.931726
O O4 0.000000 0.000000 0.000000
O O5 0.407993 0.157577 0.042708
O O6 0.226799 0.205582 0.147432
O O7 0.563689 0.144876 0.093156
O O8 0.300394 0.033516 0.116756
O O9 0.391887 0.124223 0.568274
O O10 0.500000 0.000000 0.500000
O O11 0.500000 0.256524 0.250000
O O12 0.356689 0.275403 0.196656
O O13 0.641422 0.376439 0.171883
O O14 0.683473 0.205582 0.147432
O O15 0.828953 0.376439 0.328117
O O16 0.000000 0.256524 0.250000
O O17 0.012879 0.418034 0.368561
O O18 0.232581 0.533516 0.116756
#
# Coordination Sequence:
#
# PCOD9304966 Si02
#       8
#     8   8   8   8   8   8   8   8
#     4   9  17  31  55  85 115 145 178 219 269 326
#     4   9  20  38  58  82 113 146 180 222 273 327
#     4   9  17  31  55  85 115 145 178 219 269 326
#     4  11  24  40  57  79 108 144 188 233 274 322
#     4  11  24  40  57  79 108 144 188 233 274 322
#     4   9  19  37  58  82 113 145 179 221 270 324
#     4   9  19  37  58  82 113 145 179 221 270 324
#     4   9  20  38  58  82 113 146 180 222 273 327
#
# _framework density 19.733547999999999
#
# number of rings (size 3 to 8) (size 9 to 14) (size 15 to 20)
#    0.000    2.500    0.000    3.000    0.000    9.000 
#    0.000    7.500    0.000    0.000    0.000    0.000 
#    0.000    0.000    0.000    0.000    0.000    0.000 
#
# Total GULP energy -178593.827525 kJ/mol
# GULP energy per Si atom -5581.057110 kJ/mol
# Density = 1.968863 g / cm^3
# Si number density = 19.733548 Si / 1000 Ang^3
#
#
#
# Elastic Constant Matrix: (Units=GPa)
#
#
# Indices 1 2 3 4 5 6 
#
# 1 23.7361 10.1953 35.3672 0.0000 -5.2888 0.0000
# 2 10.1953 47.2607 24.0285 0.0000 -0.8083 0.0000
# 3 35.3672 24.0285 119.9150 0.0000 -0.3312 0.0000
# 4 0.0000 0.0000 0.0000 29.1813 0.0000 -0.8967
# 5 -5.2888 -0.8083 -0.3312 0.0000 39.1497 0.0000
# 6 0.0000 0.0000 0.0000 -0.8967 0.0000 13.8355
#
#
#
# Elastic Compliance Matrix: (Units=1/GPa)
#
#
# Indices 1 2 3 4 5 6 
#
# 1 0.080624 -0.005719 -0.022604 0.000000 0.010582 0.000000
# 2 -0.005719 0.023973 -0.003118 0.000000 -0.000304 0.000000
# 3 -0.022604 -0.003118 0.015622 0.000000 -0.002986 0.000000
# 4 0.000000 0.000000 0.000000 0.034337 0.000000 0.002225
# 5 0.010582 -0.000304 -0.002986 0.000000 0.026941 0.000000
# 6 0.000000 0.000000 0.000000 0.002225 0.000000 0.072422
#
#
# Mechanical properties :
#
#
# Convention : Reuss Voigt Hill
#
# Bulk Modulus (GPa) = 17.44040 36.67710 27.05875
# Shear Modulus (GPa) = 14.88478 24.52137 19.70307
#
# Velocity S-wave (km/s) = 2.74941 3.52891 3.16326
# Velocity P-wave (km/s) = 4.35157 5.93555 5.20418
#
# Compressibility (1/GPa) = 0.05733814
#
# Stress axis : x y z
#
# Youngs Moduli (GPa) = 12.40320 41.71374 64.01079
#
# Poissons Ratio (x) = 0.23857 1.44688
# Poissons Ratio (y) = 0.07094 0.19957
# Poissons Ratio (z) = 0.28036 0.13005
#
# Static dielectric constant tensor:
#      x y z
#    x 1.653990 0.000000 -0.001360 
#    y 0.000000 1.698270 0.000000 
#    z -0.001360 0.000000 1.677210 
# 
# From -- ./inp_files/308008.got.cif
#   From: 2010.05.17/outbox.cif.g08.bks.cpg/sg15_155_cif.got.tgz:308008.got - 2010.06.03 18:47:42.
