data_PCOD9304907
_publ_section_title
;
Structure prediction by ZEFSAII (Michael W. Deem and Ramdas Pophale) SiO2 
 PCOD9304907
Probable space group: C 2/C
;
_chemical_formula_sum "Si O2"
_cell_formula_units_Z 32
_cell_length_a 13.011907
_cell_length_b 6.653166
_cell_length_c 16.114323
_cell_angle_alpha 90.000000
_cell_angle_beta 134.182930
_cell_angle_gamma 90.000000
_cell_volume 1000.396510
_symmetry_space_group_name_H-M "C 2/C"
_symmetry_group_IT_number 15
_symmetry_cell_setting 'monoclinic'
loop_
_space_group_symop_operation_xyz
x,y,z
-x,y,1/2-z
-x,-y,-z
x,-y,1/2+z
1/2+x,1/2+y,z
1/2-x,1/2+y,1/2-z
1/2-x,1/2-y,-z
1/2+x,1/2-y,1/2+z
loop_
_atom_site_type_symbol
_atom_site_label
_atom_site_fract_x
_atom_site_fract_y
_atom_site_fract_z
Si Si1 0.278512 0.149078 0.721693
Si Si2 0.732785 0.087847 0.438866
Si Si3 0.076030 0.672634 0.984167
Si Si4 0.503745 0.513120 0.847286
O O1 0.310212 0.954102 0.681597
O O2 0.219034 0.314702 0.625645
O O3 0.137858 0.112203 0.697666
O O4 0.419002 0.237257 0.844952
O O5 0.644602 0.932807 0.442645
O O6 0.856535 0.194379 0.582271
O O7 0.893106 0.940574 0.517453
O O8 0.000000 0.500000 0.000000
O O9 0.500000 0.448762 0.750000
#
# Coordination Sequence:
#
# PCOD9304907 Si02
#       4
#     8   8   8   8
#     4  11  25  47  76 111 153 204 257 309 386 466
#     4  11  24  43  69 107 145 188 249 320 381 449
#     4  11  23  48  78 109 151 203 251 313 388 464
#     4  11  24  44  70 103 147 201 254 308 373 455
#
# _framework density 31.987318999999999
#
# number of rings (size 3 to 8) (size 9 to 14) (size 15 to 20)
#    0.000    1.000    0.000    9.750    0.000    8.000 
#    0.000   12.500    0.000    0.000    0.000    0.000 
#    0.000    0.000    0.000    0.000    0.000    0.000 
#
# Total GULP energy -89315.918789 kJ/mol
# GULP energy per Si atom -5582.244924 kJ/mol
# Density = 3.191451 g / cm^3
# Si number density = 31.987319 Si / 1000 Ang^3
#
#
#
# Elastic Constant Matrix: (Units=GPa)
#
#
# Indices 1 2 3 4 5 6 
#
# 1 210.1127 8.9037 63.6414 0.0000 11.9186 0.0000
# 2 8.9037 124.3311 64.7072 0.0000 10.8369 0.0000
# 3 63.6414 64.7072 240.5963 0.0000 42.8547 0.0000
# 4 0.0000 0.0000 0.0000 85.8083 0.0000 -30.2006
# 5 11.9186 10.8369 42.8547 0.0000 78.0448 0.0000
# 6 0.0000 0.0000 0.0000 -30.2006 0.0000 -55.3151
#
#
#
# Elastic Compliance Matrix: (Units=1/GPa)
#
#
# Indices 1 2 3 4 5 6 
#
# 1 0.005191 0.000398 -0.001473 0.000000 -0.000039 0.000000
# 2 0.000398 0.009383 -0.002645 0.000000 0.000088 0.000000
# 3 -0.001473 -0.002645 0.005710 0.000000 -0.002543 0.000000
# 4 0.000000 0.000000 0.000000 0.009775 0.000000 -0.005337
# 5 -0.000039 0.000088 -0.002543 0.000000 0.014203 0.000000
# 6 0.000000 0.000000 0.000000 -0.005337 0.000000 -0.015164
#
#
# Mechanical properties :
#
#
# Convention : Reuss Voigt Hill
#
# Bulk Modulus (GPa) = 77.84914 94.39383 86.12149
# Shear Modulus (GPa) = 122.48907 50.89345 86.69126
#
# Velocity S-wave (km/s) = 6.19485 3.99313 5.21158
# Velocity P-wave (km/s) = 8.69244 7.12979 7.94960
#
# Compressibility (1/GPa) = 0.01284536
#
# Stress axis : x y z
#
# Youngs Moduli (GPa) = 192.64388 106.57321 175.12077
#
# Poissons Ratio (x) = -0.04246 0.25800
# Poissons Ratio (y) = -0.07675 0.46315
# Poissons Ratio (z) = 0.28382 0.28186
#
# Static dielectric constant tensor:
#      x y z
#    x 2.668660 0.000000 -0.129280 
#    y 0.000000 2.470830 0.000000 
#    z -0.129280 0.000000 2.424300 
# 
# From -- ./inp_files/36572.got.cif
#   From: 2010.05.17/outbox.cif.g08.bks.cpg/sg15_19_cif.got.tgz:36572.got - 2010.06.03 18:47:42.
