data_PCOD9304264
_publ_section_title
;
Structure prediction by ZEFSAII (Michael W. Deem and Ramdas Pophale) SiO2 
 PCOD9304264
Probable space group: C 2/C
;
_chemical_formula_sum "Si O2"
_cell_formula_units_Z 60
_cell_length_a 9.378602
_cell_length_b 16.767561
_cell_length_c 20.575089
_cell_angle_alpha 90.000000
_cell_angle_beta 63.437407
_cell_angle_gamma 90.000000
_cell_volume 2894.036691
_symmetry_space_group_name_H-M "C 2/C"
_symmetry_group_IT_number 15
_symmetry_cell_setting 'monoclinic'
loop_
_space_group_symop_operation_xyz
x,y,z
-x,y,1/2-z
-x,-y,-z
x,-y,1/2+z
1/2+x,1/2+y,z
1/2-x,1/2+y,1/2-z
1/2-x,1/2-y,-z
1/2+x,1/2-y,1/2+z
loop_
_atom_site_type_symbol
_atom_site_label
_atom_site_fract_x
_atom_site_fract_y
_atom_site_fract_z
Si Si1 0.983700 0.372034 0.899922
Si Si2 0.593072 0.496347 0.413227
Si Si3 0.209878 0.744278 0.295919
Si Si4 0.392523 0.829595 0.061084
Si Si5 0.958103 0.884892 0.329158
Si Si6 0.000000 0.354813 0.250000
Si Si7 0.553517 0.053043 0.616783
Si Si8 0.200779 0.169253 0.360827
O O1 0.866812 0.348897 0.864253
O O2 0.145570 0.323715 0.856545
O O3 0.007322 0.466947 0.893963
O O4 0.899275 0.344119 0.983092
O O5 0.500000 0.500000 0.500000
O O6 0.507953 0.441431 0.377898
O O7 0.612398 0.584930 0.380454
O O8 0.767411 0.461432 0.394801
O O9 0.352325 0.797438 0.295055
O O10 0.265542 0.703885 0.217346
O O11 0.064954 0.805097 0.312222
O O12 0.226366 0.862375 0.124454
O O13 0.532016 0.881690 0.065186
O O14 0.394273 0.737097 0.080174
O O15 0.000000 0.920240 0.250000
O O16 0.040069 0.410887 0.302558
#
# Coordination Sequence:
#
# PCOD9304264 Si02
#       8
#     8   8   8   8   8   4   8   8
#     4  11  25  41  73  99 136 180 226 283 340 410
#     4  11  27  47  70 100 141 186 230 279 357 420
#     4  12  24  44  68 104 134 182 235 278 342 409
#     4  12  24  45  71 106 137 174 234 289 341 406
#     4  12  22  43  73 102 136 181 233 289 345 405
#     4  12  24  46  68  96 138 188 224 286 342 410
#     4  11  25  45  70  97 141 180 224 279 347 408
#     4  11  23  43  68 100 133 178 230 279 330 422
#
# _framework density 20.732288
#
# number of rings (size 3 to 8) (size 9 to 14) (size 15 to 20)
#    0.000    0.533    5.333    2.800    5.600    0.000 
#    6.000    1.333    0.000    0.000    0.000    0.000 
#    0.000    0.000    0.000    0.000    0.000    0.000 
#
# Total GULP energy -167846.099391 kJ/mol
# GULP energy per Si atom -5594.869980 kJ/mol
# Density = 2.068510 g / cm^3
# Si number density = 20.732288 Si / 1000 Ang^3
#
#
#
# Elastic Constant Matrix: (Units=GPa)
#
#
# Indices 1 2 3 4 5 6 
#
# 1 34.3081 13.1161 -5.0942 0.0000 5.4464 0.0000
# 2 13.1161 95.3662 2.5226 0.0000 2.4816 0.0000
# 3 -5.0942 2.5226 89.3846 0.0000 3.6960 0.0000
# 4 0.0000 0.0000 0.0000 23.2893 0.0000 9.8764
# 5 5.4464 2.4816 3.6960 0.0000 17.2569 0.0000
# 6 0.0000 0.0000 0.0000 9.8764 0.0000 14.2348
#
#
#
# Elastic Compliance Matrix: (Units=1/GPa)
#
#
# Indices 1 2 3 4 5 6 
#
# 1 0.032778 -0.004305 0.002413 0.000000 -0.010243 0.000000
# 2 -0.004305 0.011096 -0.000554 0.000000 -0.000118 0.000000
# 3 0.002413 -0.000554 0.011471 0.000000 -0.003139 0.000000
# 4 0.000000 0.000000 0.000000 0.060839 0.000000 -0.042211
# 5 -0.010243 -0.000118 -0.003139 0.000000 0.061870 0.000000
# 6 0.000000 0.000000 0.000000 -0.042211 0.000000 0.099537
#
#
# Mechanical properties :
#
#
# Convention : Reuss Voigt Hill
#
# Bulk Modulus (GPa) = 19.82065 26.68309 23.25187
# Shear Modulus (GPa) = 16.70571 24.85717 20.78144
#
# Velocity S-wave (km/s) = 2.84171 3.46636 3.16946
# Velocity P-wave (km/s) = 4.51089 5.37765 4.96322
#
# Compressibility (1/GPa) = 0.05045242
#
# Stress axis : x y z
#
# Youngs Moduli (GPa) = 30.50838 90.12464 87.17983
#
# Poissons Ratio (x) = 0.38802 -0.21037
# Poissons Ratio (y) = 0.13135 0.04826
# Poissons Ratio (z) = -0.07362 0.04989
#
# Static dielectric constant tensor:
#      x y z
#    x 1.743130 0.000000 0.003030 
#    y 0.000000 1.736440 0.000000 
#    z 0.003030 0.000000 1.740920 
# 
# From -- ./inp_files/232649.got.cif
#   From: 2010.05.17/outbox.cif.g08.bks.cpg/sg15_117_cif.got.tgz:232649.got - 2010.06.03 18:47:42.
