data_PCOD9304445
_publ_section_title
;
Structure prediction by ZEFSAII (Michael W. Deem and Ramdas Pophale) SiO2 
 PCOD9304445
Probable space group: C 2/C
;
_chemical_formula_sum "Si O2"
_cell_formula_units_Z 40
_cell_length_a 4.833770
_cell_length_b 25.113952
_cell_length_c 13.993636
_cell_angle_alpha 90.000000
_cell_angle_beta 72.215402
_cell_angle_gamma 90.000000
_cell_volume 1617.577333
_symmetry_space_group_name_H-M "C 2/C"
_symmetry_group_IT_number 15
_symmetry_cell_setting 'monoclinic'
loop_
_space_group_symop_operation_xyz
x,y,z
-x,y,1/2-z
-x,-y,-z
x,-y,1/2+z
1/2+x,1/2+y,z
1/2-x,1/2+y,1/2-z
1/2-x,1/2-y,-z
1/2+x,1/2-y,1/2+z
loop_
_atom_site_type_symbol
_atom_site_label
_atom_site_fract_x
_atom_site_fract_y
_atom_site_fract_z
Si Si1 0.044098 0.137918 0.533916
Si Si2 0.500000 0.609564 0.750000
Si Si3 0.376420 0.800616 0.541353
Si Si4 0.377325 0.964129 0.927630
Si Si5 0.000000 0.605079 0.250000
Si Si6 0.500000 0.327274 0.750000
Si Si7 0.500000 0.963518 0.250000
O O1 0.287029 0.183622 0.488882
O O2 0.155263 0.078773 0.494082
O O3 0.976502 0.140765 0.653654
O O4 0.759232 0.150104 0.503300
O O5 0.217248 0.572493 0.786928
O O6 0.250000 0.750000 0.500000
O O7 0.230434 0.797195 0.660622
O O8 0.579716 0.926629 0.838668
O O9 0.301298 0.003548 0.846713
O O10 0.500000 0.000000 0.000000
O O11 0.290748 0.638473 0.203145
#
# Coordination Sequence:
#
# PCOD9304445 Si02
#       7
#     8   4   8   8   4   4   4
#     4  12  26  47  70 103 143 183 234 294 355 419
#     4  12  26  45  67  99 148 191 227 279 352 428
#     4  12  27  48  76 104 136 182 236 301 364 419
#     4  11  23  44  68 105 142 186 234 285 340 417
#     4  11  24  42  71 103 138 189 229 290 344 417
#     4  12  22  47  73 103 136 179 241 291 356 424
#     4  11  26  40  67 103 138 195 239 270 344 421
#
# _framework density 24.728339999999999
#
# number of rings (size 3 to 8) (size 9 to 14) (size 15 to 20)
#    0.000    0.400    6.000    1.800    0.000    7.200 
#    0.000    0.000    0.000    0.000    0.000    0.000 
#    0.000    0.000    0.000    0.000    0.000    0.000 
#
# Total GULP energy -111731.136758 kJ/mol
# GULP energy per Si atom -5586.556838 kJ/mol
# Density = 2.467206 g / cm^3
# Si number density = 24.728340 Si / 1000 Ang^3
#
#
#
# Elastic Constant Matrix: (Units=GPa)
#
#
# Indices 1 2 3 4 5 6 
#
# 1 83.1739 13.6715 -5.5283 0.0000 6.4324 0.0000
# 2 13.6715 67.2087 20.7020 0.0000 3.3745 0.0000
# 3 -5.5283 20.7020 161.9875 0.0000 13.4313 0.0000
# 4 0.0000 0.0000 0.0000 21.2623 0.0000 7.3681
# 5 6.4324 3.3745 13.4313 0.0000 40.3064 0.0000
# 6 0.0000 0.0000 0.0000 7.3681 0.0000 13.6524
#
#
#
# Elastic Compliance Matrix: (Units=1/GPa)
#
#
# Indices 1 2 3 4 5 6 
#
# 1 0.012707 -0.002775 0.000964 0.000000 -0.002117 0.000000
# 2 -0.002775 0.016112 -0.002138 0.000000 -0.000194 0.000000
# 3 0.000964 -0.002138 0.006661 0.000000 -0.002195 0.000000
# 4 0.000000 0.000000 0.000000 0.057851 0.000000 -0.031222
# 5 -0.002117 -0.000194 -0.002195 0.000000 0.025895 0.000000
# 6 0.000000 0.000000 0.000000 -0.031222 0.000000 0.090097
#
#
# Mechanical properties :
#
#
# Convention : Reuss Voigt Hill
#
# Bulk Modulus (GPa) = 36.25621 41.11785 38.68703
# Shear Modulus (GPa) = 22.08320 33.94588 28.01454
#
# Velocity S-wave (km/s) = 2.99161 3.70909 3.36950
# Velocity P-wave (km/s) = 5.16009 5.91667 5.55129
#
# Compressibility (1/GPa) = 0.02758148
#
# Stress axis : x y z
#
# Youngs Moduli (GPa) = 78.69697 62.06627 150.11893
#
# Poissons Ratio (x) = 0.17226 -0.14470
# Poissons Ratio (y) = 0.21842 0.32092
# Poissons Ratio (z) = -0.07585 0.13268
#
# Static dielectric constant tensor:
#      x y z
#    x 1.916260 0.000000 -0.016540 
#    y 0.000000 2.135300 0.000000 
#    z -0.016540 0.000000 1.979850 
# 
# From -- ./inp_files/129320.got.cif
#   From: 2010.05.17/outbox.cif.g08.bks.cpg/sg15_65_cif.got.tgz:129320.got - 2010.06.03 18:47:42.
