data_PCOD9304687
_publ_section_title
;
Structure prediction by ZEFSAII (Michael W. Deem and Ramdas Pophale) SiO2 
 PCOD9304687
Probable space group: C 2/C
;
_chemical_formula_sum "Si O2"
_cell_formula_units_Z 40
_cell_length_a 11.316453
_cell_length_b 17.773597
_cell_length_c 8.085488
_cell_angle_alpha 90.000000
_cell_angle_beta 97.153393
_cell_angle_gamma 90.000000
_cell_volume 1613.608815
_symmetry_space_group_name_H-M "C 2/C"
_symmetry_group_IT_number 15
_symmetry_cell_setting 'monoclinic'
loop_
_space_group_symop_operation_xyz
x,y,z
-x,y,1/2-z
-x,-y,-z
x,-y,1/2+z
1/2+x,1/2+y,z
1/2-x,1/2+y,1/2-z
1/2-x,1/2-y,-z
1/2+x,1/2-y,1/2+z
loop_
_atom_site_type_symbol
_atom_site_label
_atom_site_fract_x
_atom_site_fract_y
_atom_site_fract_z
Si Si1 0.825775 0.199591 0.137663
Si Si2 0.436839 0.720454 0.489304
Si Si3 0.513511 0.110013 0.440608
Si Si4 0.777821 0.903471 0.134486
Si Si5 0.733549 0.060371 0.002229
O O1 0.851645 0.238160 0.316798
O O2 0.950118 0.180098 0.072230
O O3 0.750000 0.250000 0.000000
O O4 0.759781 0.121249 0.150453
O O5 0.493460 0.798307 0.562540
O O6 0.364113 0.664169 0.593274
O O7 0.500000 0.083720 0.250000
O O8 0.643103 0.102356 0.542527
O O9 0.410888 0.066634 0.524788
O O10 0.774428 0.910944 0.330895
O O11 0.804242 0.985308 0.060562
#
# Coordination Sequence:
#
# PCOD9304687 Si02
#       5
#     8   8   8   8   8
#     4  11  23  45  75 102 146 188 243 298 363 434
#     4  11  26  44  72 109 143 189 242 301 360 434
#     4  12  25  44  73 105 146 190 246 302 361 432
#     4  12  27  45  71 108 144 192 247 299 370 435
#     4  12  26  47  73 101 149 194 240 303 366 439
#
# _framework density 24.789156999999999
#
# number of rings (size 3 to 8) (size 9 to 14) (size 15 to 20)
#    0.000    0.400    2.000    6.600    5.600    0.800 
#    0.000    0.000    0.000    0.000    0.000    0.000 
#    0.000    0.000    0.000    0.000    0.000    0.000 
#
# Total GULP energy -111866.982427 kJ/mol
# GULP energy per Si atom -5593.349121 kJ/mol
# Density = 2.473274 g / cm^3
# Si number density = 24.789157 Si / 1000 Ang^3
#
#
#
# Elastic Constant Matrix: (Units=GPa)
#
#
# Indices 1 2 3 4 5 6 
#
# 1 82.0982 25.6879 26.6353 0.0000 -18.4983 0.0000
# 2 25.6879 94.8125 18.1013 0.0000 -9.3741 0.0000
# 3 26.6353 18.1013 139.8532 0.0000 -13.9340 0.0000
# 4 0.0000 0.0000 0.0000 44.8184 0.0000 5.8511
# 5 -18.4983 -9.3741 -13.9340 0.0000 39.4305 0.0000
# 6 0.0000 0.0000 0.0000 5.8511 0.0000 34.5061
#
#
#
# Elastic Compliance Matrix: (Units=1/GPa)
#
#
# Indices 1 2 3 4 5 6 
#
# 1 0.015055 -0.003159 -0.001896 0.000000 0.005642 0.000000
# 2 -0.003159 0.011656 -0.000807 0.000000 0.001004 0.000000
# 3 -0.001896 -0.000807 0.007782 0.000000 0.001669 0.000000
# 4 0.000000 0.000000 0.000000 0.022817 0.000000 -0.003869
# 5 0.005642 0.001004 0.001669 0.000000 0.028836 0.000000
# 6 0.000000 0.000000 0.000000 -0.003869 0.000000 0.029636
#
#
# Mechanical properties :
#
#
# Convention : Reuss Voigt Hill
#
# Bulk Modulus (GPa) = 43.91925 50.84587 47.38256
# Shear Modulus (GPa) = 37.00993 40.17362 38.59177
#
# Velocity S-wave (km/s) = 3.86811 4.03005 3.94991
# Velocity P-wave (km/s) = 6.14047 6.49699 6.32124
#
# Compressibility (1/GPa) = 0.02276906
#
# Stress axis : x y z
#
# Youngs Moduli (GPa) = 66.42093 85.78981 128.49819
#
# Poissons Ratio (x) = 0.27103 0.24367
# Poissons Ratio (y) = 0.20984 0.10370
# Poissons Ratio (z) = 0.12596 0.06923
#
# Static dielectric constant tensor:
#      x y z
#    x 1.993270 0.000000 0.007670 
#    y 0.000000 2.098180 0.000000 
#    z 0.007670 0.000000 1.919820 
# 
# From -- ./inp_files/29357.got.cif
#   From: 2010.05.17/outbox.cif.g08.bks.cpg/sg15_15_cif.got.tgz:29357.got - 2010.06.03 18:47:42.
