data_PCOD9304515
_publ_section_title
;
Structure prediction by ZEFSAII (Michael W. Deem and Ramdas Pophale) SiO2 
 PCOD9304515
Probable space group: C 2/C
;
_chemical_formula_sum "Si O2"
_cell_formula_units_Z 40
_cell_length_a 13.711877
_cell_length_b 17.645019
_cell_length_c 7.640941
_cell_angle_alpha 90.000000
_cell_angle_beta 63.195236
_cell_angle_gamma 90.000000
_cell_volume 1650.051979
_symmetry_space_group_name_H-M "C 2/C"
_symmetry_group_IT_number 15
_symmetry_cell_setting 'monoclinic'
loop_
_space_group_symop_operation_xyz
x,y,z
-x,y,1/2-z
-x,-y,-z
x,-y,1/2+z
1/2+x,1/2+y,z
1/2-x,1/2+y,1/2-z
1/2-x,1/2-y,-z
1/2+x,1/2-y,1/2+z
loop_
_atom_site_type_symbol
_atom_site_label
_atom_site_fract_x
_atom_site_fract_y
_atom_site_fract_z
Si Si1 0.704996 0.027913 0.413630
Si Si2 0.796109 0.793937 0.138447
Si Si3 0.075344 0.063183 0.846866
Si Si4 0.410803 0.150204 0.170863
Si Si5 0.609959 0.106977 0.832015
O O1 0.878499 0.132604 0.570161
O O2 0.675880 0.072294 0.613466
O O3 0.820060 0.984740 0.310040
O O4 0.614514 0.963588 0.459812
O O5 0.815366 0.587935 0.226782
O O6 0.688737 0.824822 0.322420
O O7 0.750000 0.750000 0.000000
O O8 0.142763 0.268883 0.800291
O O9 0.000000 0.094334 0.750000
O O10 0.000000 0.000000 0.000000
O O11 0.500000 0.145696 0.250000
O O12 0.487535 0.136283 0.937713
#
# Coordination Sequence:
#
# PCOD9304515 Si02
#       5
#     8   8   8   8   8
#     4  11  23  44  71 106 147 185 249 310 371 455
#     4  11  25  46  70 105 155 198 251 313 383 461
#     4  11  25  47  78 113 148 204 261 315 384 468
#     4  12  26  44  73 110 147 198 248 316 390 458
#     4  11  24  46  73 104 148 193 247 306 383 457
#
# _framework density 24.241661000000001
#
# number of rings (size 3 to 8) (size 9 to 14) (size 15 to 20)
#    0.000    0.800    2.000    5.400    0.000    4.000 
#    3.600    0.000    0.000    0.000    0.000    0.000 
#    0.000    0.000    0.000    0.000    0.000    0.000 
#
# Total GULP energy -111629.448925 kJ/mol
# GULP energy per Si atom -5581.472446 kJ/mol
# Density = 2.418649 g / cm^3
# Si number density = 24.241661 Si / 1000 Ang^3
#
#
#
# Elastic Constant Matrix: (Units=GPa)
#
#
# Indices 1 2 3 4 5 6 
#
# 1 155.0813 75.5354 34.1059 0.0000 3.3431 0.0000
# 2 75.5354 168.0116 26.0487 0.0000 -8.1795 0.0000
# 3 34.1059 26.0487 65.1659 0.0000 6.2064 0.0000
# 4 0.0000 0.0000 0.0000 28.0317 0.0000 3.2287
# 5 3.3431 -8.1795 6.2064 0.0000 53.6197 0.0000
# 6 0.0000 0.0000 0.0000 3.2287 0.0000 66.1982
#
#
#
# Elastic Compliance Matrix: (Units=1/GPa)
#
#
# Indices 1 2 3 4 5 6 
#
# 1 0.008884 -0.003539 -0.003166 0.000000 -0.000727 0.000000
# 2 -0.003539 0.007842 -0.001434 0.000000 0.001583 0.000000
# 3 -0.003166 -0.001434 0.017773 0.000000 -0.002079 0.000000
# 4 0.000000 0.000000 0.000000 0.035875 0.000000 -0.001750
# 5 -0.000727 0.001583 -0.002079 0.000000 0.019177 0.000000
# 6 0.000000 0.000000 0.000000 -0.001750 0.000000 0.015191
#
#
# Mechanical properties :
#
#
# Convention : Reuss Voigt Hill
#
# Bulk Modulus (GPa) = 54.87413 73.29319 64.08366
# Shear Modulus (GPa) = 39.34117 46.40784 42.87451
#
# Velocity S-wave (km/s) = 4.03286 4.38011 4.21007
# Velocity P-wave (km/s) = 6.66114 7.47533 7.07995
#
# Compressibility (1/GPa) = 0.01822352
#
# Stress axis : x y z
#
# Youngs Moduli (GPa) = 112.56654 127.51593 56.26424
#
# Poissons Ratio (x) = 0.45122 0.17812
# Poissons Ratio (y) = 0.39832 0.08066
# Poissons Ratio (z) = 0.35635 0.18280
#
# Static dielectric constant tensor:
#      x y z
#    x 1.996590 0.000000 0.169970 
#    y 0.000000 1.944450 0.000000 
#    z 0.169970 0.000000 2.148320 
# 
# From -- ./inp_files/46933.got.cif
#   From: 2010.05.17/outbox.cif.g08.bks.cpg/sg15_24_cif.got.tgz:46933.got - 2010.06.03 18:47:42.
