data_PCOD9304948
_publ_section_title
;
Structure prediction by ZEFSAII (Michael W. Deem and Ramdas Pophale) SiO2 
 PCOD9304948
Probable space group: C 2/C
;
_chemical_formula_sum "Si O2"
_cell_formula_units_Z 52
_cell_length_a 14.378841
_cell_length_b 17.053199
_cell_length_c 8.845369
_cell_angle_alpha 90.000000
_cell_angle_beta 108.950806
_cell_angle_gamma 90.000000
_cell_volume 2051.369892
_symmetry_space_group_name_H-M "C 2/C"
_symmetry_group_IT_number 15
_symmetry_cell_setting 'monoclinic'
loop_
_space_group_symop_operation_xyz
x,y,z
-x,y,1/2-z
-x,-y,-z
x,-y,1/2+z
1/2+x,1/2+y,z
1/2-x,1/2+y,1/2-z
1/2-x,1/2-y,-z
1/2+x,1/2-y,1/2+z
loop_
_atom_site_type_symbol
_atom_site_label
_atom_site_fract_x
_atom_site_fract_y
_atom_site_fract_z
Si Si1 0.382995 0.695813 0.936684
Si Si2 0.500000 0.226640 0.750000
Si Si3 0.671559 0.614408 0.865848
Si Si4 0.647834 0.908053 0.269477
Si Si5 0.788046 0.941239 0.587008
Si Si6 0.718155 0.828004 0.796147
Si Si7 0.500000 0.129019 0.250000
Si Si8 0.000000 0.500000 0.000000
O O1 0.405332 0.652839 0.790081
O O2 0.299795 0.760484 0.841997
O O3 0.474488 0.728552 0.081029
O O4 0.340967 0.629253 0.026767
O O5 0.405184 0.172476 0.721193
O O6 0.767120 0.604165 0.807120
O O7 0.653195 0.522661 0.893322
O O8 0.705742 0.669816 0.022321
O O9 0.686017 0.949371 0.442618
O O10 0.571044 0.967778 0.166539
O O11 0.755563 0.906883 0.730418
O O12 0.606901 0.830694 0.798283
O O13 0.493636 0.084506 0.087441
#
# Coordination Sequence:
#
# PCOD9304948 Si02
#       8
#     8   4   8   8   8   8   4   4
#     4  11  26  47  70 100 139 193 240 292 356 424
#     4  12  25  44  70 101 144 192 232 284 350 443
#     4  11  24  43  69 104 140 180 241 295 348 418
#     4  11  24  38  67 101 146 184 224 278 362 433
#     4  11  24  45  72  98 140 192 241 286 352 432
#     4  12  23  41  65 102 143 184 230 294 348 424
#     4  12  25  34  60  99 150 182 234 276 360 419
#     4  12  22  36  54  96 148 190 216 274 340 436
#
# _framework density 25.348915999999999
#
# number of rings (size 3 to 8) (size 9 to 14) (size 15 to 20)
#    0.000    0.615    3.077    6.000    6.462    0.000 
#    0.000    0.769    0.000    0.923    0.000    0.000 
#    0.000    0.000    0.000    0.000    0.000    0.000 
#
# Total GULP energy -144914.417276 kJ/mol
# GULP energy per Si atom -5573.631434 kJ/mol
# Density = 2.529122 g / cm^3
# Si number density = 25.348916 Si / 1000 Ang^3
#
#
#
# Elastic Constant Matrix: (Units=GPa)
#
#
# Indices 1 2 3 4 5 6 
#
# 1 42.7795 4.9463 5.6573 0.0000 -13.6831 0.0000
# 2 4.9463 125.0697 34.5342 0.0000 1.6458 0.0000
# 3 5.6573 34.5342 142.8821 0.0000 7.0026 0.0000
# 4 0.0000 0.0000 0.0000 51.9968 0.0000 -1.4623
# 5 -13.6831 1.6458 7.0026 0.0000 19.7448 0.0000
# 6 0.0000 0.0000 0.0000 -1.4623 0.0000 7.7046
#
#
#
# Elastic Compliance Matrix: (Units=1/GPa)
#
#
# Indices 1 2 3 4 5 6 
#
# 1 0.030862 -0.000937 -0.002084 0.000000 0.022204 0.000000
# 2 -0.000937 0.008596 -0.002008 0.000000 -0.000654 0.000000
# 3 -0.002084 -0.002008 0.007764 0.000000 -0.004030 0.000000
# 4 0.000000 0.000000 0.000000 0.019335 0.000000 0.003670
# 5 0.022204 -0.000654 -0.004030 0.000000 0.067517 0.000000
# 6 0.000000 0.000000 0.000000 0.003670 0.000000 0.130490
#
#
# Mechanical properties :
#
#
# Convention : Reuss Voigt Hill
#
# Bulk Modulus (GPa) = 26.90860 44.55632 35.73246
# Shear Modulus (GPa) = 17.42097 33.59547 25.50822
#
# Velocity S-wave (km/s) = 2.62438 3.64445 3.17564
# Velocity P-wave (km/s) = 4.45214 5.94346 5.25101
#
# Compressibility (1/GPa) = 0.03716284
#
# Stress axis : x y z
#
# Youngs Moduli (GPa) = 32.40269 116.33611 128.79594
#
# Poissons Ratio (x) = 0.10905 0.26836
# Poissons Ratio (y) = 0.03037 0.25868
# Poissons Ratio (z) = 0.06751 0.23365
#
# Static dielectric constant tensor:
#      x y z
#    x 2.009530 0.000000 0.065740 
#    y 0.000000 2.102510 0.000000 
#    z 0.065740 0.000000 2.010380 
# 
# From -- ./inp_files/48677.got.cif
#   From: 2010.05.17/outbox.cif.g08.bks.cpg/sg15_25_cif.got.tgz:48677.got - 2010.06.03 18:47:42.
