data_PCOD9304139
_publ_section_title
;
Structure prediction by ZEFSAII (Michael W. Deem and Ramdas Pophale) SiO2 
 PCOD9304139
Probable space group: C 2/C
;
_chemical_formula_sum "Si O2"
_cell_formula_units_Z 56
_cell_length_a 15.908740
_cell_length_b 20.467602
_cell_length_c 13.790972
_cell_angle_alpha 90.000000
_cell_angle_beta 143.338947
_cell_angle_gamma 90.000000
_cell_volume 2681.205785
_symmetry_space_group_name_H-M "C 2/C"
_symmetry_group_IT_number 15
_symmetry_cell_setting 'monoclinic'
loop_
_space_group_symop_operation_xyz
x,y,z
-x,y,1/2-z
-x,-y,-z
x,-y,1/2+z
1/2+x,1/2+y,z
1/2-x,1/2+y,1/2-z
1/2-x,1/2-y,-z
1/2+x,1/2-y,1/2+z
loop_
_atom_site_type_symbol
_atom_site_label
_atom_site_fract_x
_atom_site_fract_y
_atom_site_fract_z
Si Si1 0.943366 0.735982 0.405935
Si Si2 0.632297 0.031265 0.028976
Si Si3 0.908955 0.136902 0.968466
Si Si4 0.103331 0.396802 0.105313
Si Si5 0.857888 0.037297 0.069932
Si Si6 0.819578 0.074743 0.384589
Si Si7 0.302923 0.707987 0.458400
O O1 0.941486 0.786351 0.492758
O O2 0.787851 0.728406 0.219810
O O3 0.017952 0.667322 0.494273
O O4 0.036220 0.772886 0.410715
O O5 0.731840 0.037796 0.029088
O O6 0.711841 0.063068 0.196247
O O7 0.607857 0.954853 0.030094
O O8 0.484147 0.069194 0.888125
O O9 0.761216 0.123245 0.778065
O O10 0.892431 0.108404 0.059861
O O11 0.035030 0.098481 0.030506
O O12 0.000000 0.010523 0.250000
O O13 0.829493 0.992673 0.950534
O O14 0.784423 0.129784 0.433743
O O15 0.250000 0.750000 0.500000
#
# Coordination Sequence:
#
# PCOD9304139 Si02
#       7
#     8   8   8   8   8   8   8
#     4  11  23  42  69  90 139 181 220 280 343 400
#     4  11  24  43  71 101 139 178 226 293 352 399
#     4  11  23  43  70  96 135 182 226 279 345 410
#     4  11  23  44  68  98 138 178 222 287 353 396
#     4  12  24  41  73 102 133 178 235 277 339 425
#     4  11  23  43  70 101 137 178 227 283 344 408
#     4  11  24  40  64 100 134 177 226 271 340 418
#
# _framework density 20.886126000000001
#
# number of rings (size 3 to 8) (size 9 to 14) (size 15 to 20)
#    0.000    0.857    5.714    1.714    2.000    2.857 
#    0.000    0.714    0.000    0.000    0.000    0.000 
#    0.000    0.000    0.000    0.000    0.000    0.000 
#
# Total GULP energy -156379.873186 kJ/mol
# GULP energy per Si atom -5584.995471 kJ/mol
# Density = 2.083859 g / cm^3
# Si number density = 20.886126 Si / 1000 Ang^3
#
#
#
# Elastic Constant Matrix: (Units=GPa)
#
#
# Indices 1 2 3 4 5 6 
#
# 1 93.4834 37.4212 3.1624 0.0000 9.7595 0.0000
# 2 37.4212 131.0836 16.9700 0.0000 -3.2646 0.0000
# 3 3.1624 16.9700 67.6963 0.0000 11.6061 0.0000
# 4 0.0000 0.0000 0.0000 26.9896 0.0000 -2.7129
# 5 9.7595 -3.2646 11.6061 0.0000 27.3839 0.0000
# 6 0.0000 0.0000 0.0000 -2.7129 0.0000 24.9679
#
#
#
# Elastic Compliance Matrix: (Units=1/GPa)
#
#
# Indices 1 2 3 4 5 6 
#
# 1 0.012831 -0.003979 0.001363 0.000000 -0.005625 0.000000
# 2 -0.003979 0.009213 -0.002755 0.000000 0.003684 0.000000
# 3 0.001363 -0.002755 0.016756 0.000000 -0.007916 0.000000
# 4 0.000000 0.000000 0.000000 0.037460 0.000000 0.004070
# 5 -0.005625 0.003684 -0.007916 0.000000 0.042317 0.000000
# 6 0.000000 0.000000 0.000000 0.004070 0.000000 0.040494
#
#
# Mechanical properties :
#
#
# Convention : Reuss Voigt Hill
#
# Bulk Modulus (GPa) = 35.64315 45.26339 40.45327
# Shear Modulus (GPa) = 27.90681 31.51561 29.71121
#
# Velocity S-wave (km/s) = 3.65929 3.88870 3.77574
# Velocity P-wave (km/s) = 5.91239 6.47157 6.19829
#
# Compressibility (1/GPa) = 0.02805588
#
# Stress axis : x y z
#
# Youngs Moduli (GPa) = 77.93505 108.53963 59.68004
#
# Poissons Ratio (x) = 0.43193 -0.08132
# Poissons Ratio (y) = 0.31014 0.16444
# Poissons Ratio (z) = -0.10619 0.29906
#
# Static dielectric constant tensor:
#      x y z
#    x 1.731250 0.000000 0.017360 
#    y 0.000000 1.791200 0.000000 
#    z 0.017360 0.000000 1.765020 
# 
# From -- ./inp_files/156229.got.cif
#   From: 2010.05.17/outbox.cif.g08.bks.cpg/sg15_79_cif.got.tgz:156229.got - 2010.06.03 18:47:42.
