data_PCOD9304069
_publ_section_title
;
Structure prediction by ZEFSAII (Michael W. Deem and Ramdas Pophale) SiO2 
 PCOD9304069
Probable space group: C 2/C
;
_chemical_formula_sum "Si O2"
_cell_formula_units_Z 48
_cell_length_a 17.891434
_cell_length_b 8.874633
_cell_length_c 31.299833
_cell_angle_alpha 90.000000
_cell_angle_beta 30.506693
_cell_angle_gamma 90.000000
_cell_volume 2522.856581
_symmetry_space_group_name_H-M "C 2/C"
_symmetry_group_IT_number 15
_symmetry_cell_setting 'monoclinic'
loop_
_space_group_symop_operation_xyz
x,y,z
-x,y,1/2-z
-x,-y,-z
x,-y,1/2+z
1/2+x,1/2+y,z
1/2-x,1/2+y,1/2-z
1/2-x,1/2-y,-z
1/2+x,1/2-y,1/2+z
loop_
_atom_site_type_symbol
_atom_site_label
_atom_site_fract_x
_atom_site_fract_y
_atom_site_fract_z
Si Si1 0.417052 0.550142 0.835470
Si Si2 0.406638 0.911170 0.510439
Si Si3 0.572555 0.953993 0.339920
Si Si4 0.109998 0.894661 0.814484
Si Si5 0.066336 0.938455 0.511119
Si Si6 0.817130 0.653939 0.426439
O O1 0.500000 0.528463 0.750000
O O2 0.256453 0.476278 0.912941
O O3 0.511803 0.480949 0.827689
O O4 0.384450 0.724205 0.861194
O O5 0.499644 0.937393 0.422029
O O6 0.387727 0.731682 0.523395
O O7 0.500000 0.000000 0.500000
O O8 0.601869 0.784135 0.309432
O O9 0.724305 0.044617 0.268074
O O10 0.449955 0.045396 0.374537
O O11 0.045229 0.924707 0.893780
O O12 0.193003 0.050089 0.465911
O O13 0.000000 0.000000 0.500000
O O14 0.750000 0.750000 0.500000
#
# Coordination Sequence:
#
# PCOD9304069 Si02
#       6
#     8   8   8   8   8   8
#     4  12  25  42  67  98 133 174 227 277 345 409
#     4  11  23  42  65  96 134 176 226 276 342 411
#     4  11  24  41  68  94 131 178 224 273 345 403
#     4  11  24  43  65 100 133 173 228 285 333 412
#     4  11  25  42  68  99 132 178 229 276 340 418
#     4  12  23  44  70  94 136 183 222 282 349 403
#
# _framework density 19.026053000000001
#
# number of rings (size 3 to 8) (size 9 to 14) (size 15 to 20)
#    0.000    0.667    3.333    4.000    0.000    8.000 
#    0.000    1.667    0.000    0.000    0.000    0.000 
#    0.000    0.000    0.000    0.000    0.000    0.000 
#
# Total GULP energy -134134.805093 kJ/mol
# GULP energy per Si atom -5588.950212 kJ/mol
# Density = 1.898275 g / cm^3
# Si number density = 19.026053 Si / 1000 Ang^3
#
#
#
# Elastic Constant Matrix: (Units=GPa)
#
#
# Indices 1 2 3 4 5 6 
#
# 1 159.7906 97.8253 68.1230 0.0001 -29.0891 0.0009
# 2 97.8253 190.1954 74.5170 0.0000 -21.9558 -0.0004
# 3 68.1230 74.5170 90.4761 -0.0001 -25.3966 0.0005
# 4 0.0001 0.0000 -0.0001 30.4242 -0.0001 7.0131
# 5 -29.0891 -21.9558 -25.3966 -0.0001 40.5443 -0.0001
# 6 0.0009 -0.0004 0.0005 7.0131 -0.0001 21.9411
#
#
#
# Elastic Compliance Matrix: (Units=1/GPa)
#
#
# Indices 1 2 3 4 5 6 
#
# 1 0.010845 -0.003487 -0.004416 0.000000 0.003126 0.000000
# 2 -0.003487 0.008886 -0.004907 0.000000 -0.000764 0.000000
# 3 -0.004416 -0.004907 0.020365 0.000000 0.006931 0.000000
# 4 0.000000 0.000000 0.000000 0.035483 0.000000 -0.011341
# 5 0.003126 -0.000764 0.006931 0.000000 0.030835 0.000000
# 6 0.000000 0.000000 0.000000 -0.011341 0.000000 0.049202
#
#
# Mechanical properties :
#
#
# Convention : Reuss Voigt Hill
#
# Bulk Modulus (GPa) = 69.08604 102.37696 85.73150
# Shear Modulus (GPa) = 26.87305 31.91503 29.39404
#
# Velocity S-wave (km/s) = 3.76231 4.10010 3.93483
# Velocity P-wave (km/s) = 7.43394 8.73728 8.11183
#
# Compressibility (1/GPa) = 0.01447470
#
# Stress axis : x y z
#
# Youngs Moduli (GPa) = 92.21138 112.54113 49.10425
#
# Poissons Ratio (x) = 0.39241 0.21685
# Poissons Ratio (y) = 0.32152 0.24097
# Poissons Ratio (z) = 0.40721 0.55228
#
# Static dielectric constant tensor:
#      x y z
#    x 1.603550 0.000000 0.020850 
#    y 0.000000 1.750220 0.000000 
#    z 0.020850 0.000000 1.631290 
# 
# From -- ./inp_files/176855.got.cif
#   From: 2010.05.17/outbox.cif.g08.bks.cpg/sg15_89_cif.got.tgz:176855.got - 2010.06.03 18:47:42.
