data_PCOD9304481
_publ_section_title
;
Structure prediction by ZEFSAII (Michael W. Deem and Ramdas Pophale) SiO2 
 PCOD9304481
Probable space group: C 2/C
;
_chemical_formula_sum "Si O2"
_cell_formula_units_Z 52
_cell_length_a 12.600895
_cell_length_b 10.519822
_cell_length_c 21.216205
_cell_angle_alpha 90.000000
_cell_angle_beta 58.732831
_cell_angle_gamma 90.000000
_cell_volume 2403.919043
_symmetry_space_group_name_H-M "C 2/C"
_symmetry_group_IT_number 15
_symmetry_cell_setting 'monoclinic'
loop_
_space_group_symop_operation_xyz
x,y,z
-x,y,1/2-z
-x,-y,-z
x,-y,1/2+z
1/2+x,1/2+y,z
1/2-x,1/2+y,1/2-z
1/2-x,1/2-y,-z
1/2+x,1/2-y,1/2+z
loop_
_atom_site_type_symbol
_atom_site_label
_atom_site_fract_x
_atom_site_fract_y
_atom_site_fract_z
Si Si1 0.923073 0.400637 0.564869
Si Si2 0.761726 0.568599 0.808048
Si Si3 0.939809 0.595184 0.205057
Si Si4 0.857248 0.101859 0.400219
Si Si5 0.993492 0.123310 0.680874
Si Si6 0.406383 0.620186 0.527755
Si Si7 0.000000 0.741695 0.750000
O O1 0.938637 0.445451 0.632642
O O2 0.779424 0.400361 0.587292
O O3 0.958747 0.251223 0.542835
O O4 0.000000 0.500000 0.500000
O O5 0.798653 0.428731 0.771119
O O6 0.643526 0.609333 0.804200
O O7 0.713866 0.577857 0.894355
O O8 0.876625 0.665455 0.763989
O O9 0.012198 0.727164 0.178230
O O10 0.000000 0.536196 0.250000
O O11 0.867511 0.151372 0.468276
O O12 0.947219 0.179423 0.325675
O O13 0.908984 0.958146 0.387448
O O14 0.000000 0.074945 0.750000
O O15 0.500000 0.500000 0.500000
#
# Coordination Sequence:
#
# PCOD9304481 Si02
#       7
#     8   8   8   8   8   8   4
#     4  12  28  49  73 112 149 196 256 313 379 452
#     4  12  25  45  71 105 145 190 255 298 374 444
#     4  11  25  45  69 101 147 188 241 306 372 444
#     4  12  25  47  77 103 147 197 247 313 373 444
#     4  11  23  44  70 103 141 188 243 305 369 437
#     4  12  26  49  73 106 151 196 248 306 382 452
#     4  12  26  44  76 106 138 192 260 300 358 448
#
# _framework density 21.631345
#
# number of rings (size 3 to 8) (size 9 to 14) (size 15 to 20)
#    0.000    0.308    6.154    1.385    6.462    0.000 
#    5.538    1.538    0.000    0.000    0.000    0.000 
#    0.000    0.000    0.000    0.000    0.000    0.000 
#
# Total GULP energy -144873.177440 kJ/mol
# GULP energy per Si atom -5572.045286 kJ/mol
# Density = 2.158211 g / cm^3
# Si number density = 21.631345 Si / 1000 Ang^3
#
#
#
# Elastic Constant Matrix: (Units=GPa)
#
#
# Indices 1 2 3 4 5 6 
#
# 1 123.8993 26.1957 65.0813 0.0000 18.6615 0.0000
# 2 26.1957 97.2530 49.2688 0.0000 -14.6078 0.0000
# 3 65.0813 49.2688 168.7058 0.0000 22.8589 0.0000
# 4 0.0000 0.0000 0.0000 45.4277 0.0000 -5.8635
# 5 18.6615 -14.6078 22.8589 0.0000 52.1847 0.0000
# 6 0.0000 0.0000 0.0000 -5.8635 0.0000 16.5375
#
#
#
# Elastic Compliance Matrix: (Units=1/GPa)
#
#
# Indices 1 2 3 4 5 6 
#
# 1 0.010522 -0.001637 -0.003199 0.000000 -0.002820 0.000000
# 2 -0.001637 0.013835 -0.004266 0.000000 0.006327 0.000000
# 3 -0.003199 -0.004266 0.008945 0.000000 -0.003969 0.000000
# 4 0.000000 0.000000 0.000000 0.023069 0.000000 0.008179
# 5 -0.002820 0.006327 -0.003969 0.000000 0.023680 0.000000
# 6 0.000000 0.000000 0.000000 0.008179 0.000000 0.063368
#
#
# Mechanical properties :
#
#
# Convention : Reuss Voigt Hill
#
# Bulk Modulus (GPa) = 66.23414 74.54998 70.39206
# Shear Modulus (GPa) = 30.00171 39.45080 34.72626
#
# Velocity S-wave (km/s) = 3.72823 4.27521 4.01105
# Velocity P-wave (km/s) = 7.01562 7.67519 7.35280
#
# Compressibility (1/GPa) = 0.01509795
#
# Stress axis : x y z
#
# Youngs Moduli (GPa) = 95.03648 72.28055 111.79290
#
# Poissons Ratio (x) = 0.11834 0.35762
# Poissons Ratio (y) = 0.15559 0.47692
# Poissons Ratio (z) = 0.30402 0.30835
#
# Static dielectric constant tensor:
#      x y z
#    x 1.815840 0.000000 0.041810 
#    y 0.000000 1.883610 0.000000 
#    z 0.041810 0.000000 1.788430 
# 
# From -- ./inp_files/237505.got.cif
#   From: 2010.05.17/outbox.cif.g08.bks.cpg/sg15_119_cif.got.tgz:237505.got - 2010.06.03 18:47:42.
