data_PCOD9304013
_publ_section_title
;
Structure prediction by ZEFSAII (Michael W. Deem and Ramdas Pophale) SiO2 
 PCOD9304013
Probable space group: C 2/C
;
_chemical_formula_sum "Si O2"
_cell_formula_units_Z 52
_cell_length_a 19.209058
_cell_length_b 8.101976
_cell_length_c 22.116610
_cell_angle_alpha 90.000000
_cell_angle_beta 40.607781
_cell_angle_gamma 90.000000
_cell_volume 2240.344064
_symmetry_space_group_name_H-M "C 2/C"
_symmetry_group_IT_number 15
_symmetry_cell_setting 'monoclinic'
loop_
_space_group_symop_operation_xyz
x,y,z
-x,y,1/2-z
-x,-y,-z
x,-y,1/2+z
1/2+x,1/2+y,z
1/2-x,1/2+y,1/2-z
1/2-x,1/2-y,-z
1/2+x,1/2-y,1/2+z
loop_
_atom_site_type_symbol
_atom_site_label
_atom_site_fract_x
_atom_site_fract_y
_atom_site_fract_z
Si Si1 0.709402 0.873666 0.910465
Si Si2 0.087727 0.814315 0.779373
Si Si3 0.466813 0.312610 0.026948
Si Si4 0.327755 0.147887 0.662969
Si Si5 0.000000 0.403527 0.750000
Si Si6 0.860492 0.359239 0.420022
Si Si7 0.906022 0.203085 0.700235
O O1 0.835527 0.833446 0.829791
O O2 0.639287 0.713584 0.942633
O O3 0.693536 0.980521 0.859924
O O4 0.657980 0.956452 0.003505
O O5 0.150708 0.682185 0.780384
O O6 0.967609 0.751502 0.853398
O O7 0.083224 0.003050 0.805529
O O8 0.452212 0.252911 0.104837
O O9 0.500000 0.500000 0.000000
O O10 0.562152 0.210672 0.936011
O O11 0.219946 0.246877 0.717901
O O12 0.899806 0.512967 0.841889
O O13 0.960909 0.290697 0.720286
O O14 0.750000 0.250000 0.500000
#
# Coordination Sequence:
#
# PCOD9304013 Si02
#       7
#     8   8   8   8   4   8   8
#     4  11  24  42  72 105 144 185 243 305 361 436
#     4  11  24  45  72 104 146 189 239 311 370 436
#     4  12  22  40  70 110 142 182 236 304 370 423
#     4  11  23  41  70 108 141 186 232 308 374 423
#     4  12  30  48  76 102 150 206 242 300 364 452
#     4  12  27  50  72 106 145 200 253 297 365 448
#     4  11  26  46  71 110 151 190 245 301 372 446
#
# _framework density 23.210722000000001
#
# number of rings (size 3 to 8) (size 9 to 14) (size 15 to 20)
#    0.000    0.615    4.615    2.308    2.154    6.769 
#    0.000    4.615    0.000    0.000    0.000    0.000 
#    0.000    0.000    0.000    0.000    0.000    0.000 
#
# Total GULP energy -145002.873977 kJ/mol
# GULP energy per Si atom -5577.033615 kJ/mol
# Density = 2.315789 g / cm^3
# Si number density = 23.210722 Si / 1000 Ang^3
#
#
#
# Elastic Constant Matrix: (Units=GPa)
#
#
# Indices 1 2 3 4 5 6 
#
# 1 99.8532 13.9691 35.8525 0.0000 -7.5785 0.0001
# 2 13.9691 44.3537 9.4096 -0.0002 2.0002 0.0004
# 3 35.8525 9.4096 189.0769 0.0000 4.1936 0.0001
# 4 0.0000 -0.0002 0.0000 18.6777 0.0000 0.3453
# 5 -7.5785 2.0002 4.1936 0.0000 53.1543 -0.0001
# 6 0.0001 0.0004 0.0001 0.3453 -0.0001 33.1076
#
#
#
# Elastic Compliance Matrix: (Units=1/GPa)
#
#
# Indices 1 2 3 4 5 6 
#
# 1 0.011340 -0.003226 -0.002032 0.000000 0.001898 0.000000
# 2 -0.003226 0.023736 -0.000540 0.000000 -0.001310 0.000000
# 3 -0.002032 -0.000540 0.005717 0.000000 -0.000720 0.000000
# 4 0.000000 0.000000 0.000000 0.053550 0.000000 -0.000558
# 5 0.001898 -0.001310 -0.000720 0.000000 0.019190 0.000000
# 6 0.000000 0.000000 0.000000 -0.000558 0.000000 0.030210
#
#
# Mechanical properties :
#
#
# Convention : Reuss Voigt Hill
#
# Bulk Modulus (GPa) = 34.25127 50.19402 42.22265
# Shear Modulus (GPa) = 30.28997 39.25811 34.77404
#
# Velocity S-wave (km/s) = 3.61640 4.11710 3.87484
# Velocity P-wave (km/s) = 5.67684 6.65379 6.18464
#
# Compressibility (1/GPa) = 0.02919599
#
# Stress axis : x y z
#
# Youngs Moduli (GPa) = 88.18660 42.13046 174.91733
#
# Poissons Ratio (x) = 0.13591 0.35539
# Poissons Ratio (y) = 0.28449 0.09454
# Poissons Ratio (z) = 0.17917 0.02277
#
# Static dielectric constant tensor:
#      x y z
#    x 1.920840 0.000000 0.097090 
#    y 0.000000 1.924670 0.000000 
#    z 0.097090 0.000000 1.905240 
# 
# From -- ./inp_files/279525.got.cif
#   From: 2010.05.17/outbox.cif.g08.bks.cpg/sg15_140_cif.got.tgz:279525.got - 2010.06.03 18:47:42.
