data_PCOD9304975
_publ_section_title
;
Structure prediction by ZEFSAII (Michael W. Deem and Ramdas Pophale) SiO2 
 PCOD9304975
Probable space group: C 2/C
;
_chemical_formula_sum "Si O2"
_cell_formula_units_Z 40
_cell_length_a 12.784973
_cell_length_b 23.685381
_cell_length_c 9.828390
_cell_angle_alpha 90.000000
_cell_angle_beta 142.676604
_cell_angle_gamma 90.000000
_cell_volume 1804.511169
_symmetry_space_group_name_H-M "C 2/C"
_symmetry_group_IT_number 15
_symmetry_cell_setting 'monoclinic'
loop_
_space_group_symop_operation_xyz
x,y,z
-x,y,1/2-z
-x,-y,-z
x,-y,1/2+z
1/2+x,1/2+y,z
1/2-x,1/2+y,1/2-z
1/2-x,1/2-y,-z
1/2+x,1/2-y,1/2+z
loop_
_atom_site_type_symbol
_atom_site_label
_atom_site_fract_x
_atom_site_fract_y
_atom_site_fract_z
Si Si1 0.083199 0.438591 0.100768
Si Si2 0.500000 0.857317 0.250000
Si Si3 0.320328 0.303800 0.989038
Si Si4 0.500000 0.122406 0.250000
Si Si5 0.860245 0.173952 0.219499
Si Si6 0.026940 0.949431 0.925168
O O1 0.986354 0.397913 0.104750
O O2 0.273939 0.435285 0.356088
O O3 0.088129 0.414202 0.956084
O O4 0.000000 0.500000 0.000000
O O5 0.676972 0.823109 0.451544
O O6 0.156389 0.344813 0.838473
O O7 0.354437 0.295863 0.861974
O O8 0.500000 0.321480 0.250000
O O9 0.250000 0.250000 0.000000
O O10 0.000000 0.191857 0.250000
O O11 0.916256 0.108522 0.316019
O O12 0.000000 0.974945 0.750000
O O13 0.000000 0.000000 0.000000
#
# Coordination Sequence:
#
# PCOD9304975 Si02
#       6
#     8   4   8   4   8   8
#     4  12  25  41  69 104 150 199 248 296 366 447
#     4  12  21  44  68 100 146 188 248 293 364 438
#     4  12  27  50  81 107 147 190 254 318 381 446
#     4  12  27  48  76 110 148 200 246 313 376 438
#     4  11  24  47  74 104 143 195 241 310 371 444
#     4  11  24  40  63 101 151 197 248 296 360 443
#
# _framework density 22.166665999999999
#
# number of rings (size 3 to 8) (size 9 to 14) (size 15 to 20)
#    0.000    0.400    7.000    3.000    2.800    0.800 
#    0.000    1.000    2.200    0.000    0.000    0.000 
#    0.000    0.000    0.000    0.000    0.000    0.000 
#
# Total GULP energy -111684.770520 kJ/mol
# GULP energy per Si atom -5584.238526 kJ/mol
# Density = 2.211621 g / cm^3
# Si number density = 22.166666 Si / 1000 Ang^3
#
#
#
# Elastic Constant Matrix: (Units=GPa)
#
#
# Indices 1 2 3 4 5 6 
#
# 1 157.9943 32.2155 66.0734 0.0000 -17.3712 0.0000
# 2 32.2155 48.9434 18.5066 0.0000 -7.5793 0.0000
# 3 66.0734 18.5066 182.0976 0.0000 7.2035 0.0000
# 4 0.0000 0.0000 0.0000 11.7325 0.0000 -17.1553
# 5 -17.3712 -7.5793 7.2035 0.0000 71.7726 0.0000
# 6 0.0000 0.0000 0.0000 -17.1553 0.0000 15.7795
#
#
#
# Elastic Compliance Matrix: (Units=1/GPa)
#
#
# Indices 1 2 3 4 5 6 
#
# 1 0.008563 -0.004305 -0.002744 0.000000 0.001893 0.000000
# 2 -0.004305 0.023859 -0.000925 0.000000 0.001570 0.000000
# 3 -0.002744 -0.000925 0.006638 0.000000 -0.001428 0.000000
# 4 0.000000 0.000000 0.000000 -0.144538 0.000000 -0.157140
# 5 0.001893 0.001570 -0.001428 0.000000 0.014700 0.000000
# 6 0.000000 0.000000 0.000000 -0.157140 0.000000 -0.107468
#
#
# Mechanical properties :
#
#
# Convention : Reuss Voigt Hill
#
# Bulk Modulus (GPa) = 43.27063 69.18071 56.22567
# Shear Modulus (GPa) = -28.63804 38.00625 4.68410
#
# Velocity S-wave (km/s) = -3.59826 4.14523 1.45524
# Velocity P-wave (km/s) = 1.51647 7.36122 5.31448
#
# Compressibility (1/GPa) = 0.02311037
#
# Stress axis : x y z
#
# Youngs Moduli (GPa) = 116.77964 41.91378 150.65160
#
# Poissons Ratio (x) = 0.18046 0.41345
# Poissons Ratio (y) = 0.50279 0.13930
# Poissons Ratio (z) = 0.32049 0.03875
#
# Static dielectric constant tensor:
#      x y z
#    x 2.396270 0.000000 0.489330 
#    y 0.000000 2.013320 0.000000 
#    z 0.489330 0.000000 2.180550 
# 
# From -- ./inp_files/35474.got.cif
#   From: 2010.05.17/outbox.cif.g08.bks.cpg/sg15_18_cif.got.tgz:35474.got - 2010.06.03 18:47:42.
