data_PCOD9304621
_publ_section_title
;
Structure prediction by ZEFSAII (Michael W. Deem and Ramdas Pophale) SiO2 
 PCOD9304621
Probable space group: C 2/C
;
_chemical_formula_sum "Si O2"
_cell_formula_units_Z 40
_cell_length_a 13.219612
_cell_length_b 12.093721
_cell_length_c 21.739800
_cell_angle_alpha 90.000000
_cell_angle_beta 144.116763
_cell_angle_gamma 90.000000
_cell_volume 2037.192666
_symmetry_space_group_name_H-M "C 2/C"
_symmetry_group_IT_number 15
_symmetry_cell_setting 'monoclinic'
loop_
_space_group_symop_operation_xyz
x,y,z
-x,y,1/2-z
-x,-y,-z
x,-y,1/2+z
1/2+x,1/2+y,z
1/2-x,1/2+y,1/2-z
1/2-x,1/2-y,-z
1/2+x,1/2-y,1/2+z
loop_
_atom_site_type_symbol
_atom_site_label
_atom_site_fract_x
_atom_site_fract_y
_atom_site_fract_z
Si Si1 0.608905 0.172181 0.899980
Si Si2 0.701998 0.522517 0.608762
Si Si3 0.242966 0.759641 0.194471
Si Si4 0.994414 0.374266 0.017448
Si Si5 0.824513 0.277333 0.697206
O O1 0.697514 0.088133 0.896102
O O2 0.451385 0.245345 0.795923
O O3 0.750000 0.250000 0.000000
O O4 0.535252 0.114841 0.924252
O O5 0.500000 0.500000 0.500000
O O6 0.710843 0.609926 0.668420
O O7 0.787433 0.404618 0.661969
O O8 0.149761 0.691420 0.094041
O O9 0.173547 0.727598 0.227497
O O10 0.000000 0.500000 0.000000
O O11 0.167856 0.300770 0.097328
O O12 0.000000 0.242882 0.750000
#
# Coordination Sequence:
#
# PCOD9304621 Si02
#       5
#     8   8   8   8   8
#     4  11  23  45  70 104 130 181 236 277 343 412
#     4  12  23  45  72  99 136 183 230 288 343 415
#     4  11  24  44  69  97 140 176 232 285 339 408
#     4  11  26  46  65 101 143 177 230 287 342 415
#     4  11  26  44  68 101 137 184 231 280 356 410
#
# _framework density 19.634864
#
# number of rings (size 3 to 8) (size 9 to 14) (size 15 to 20)
#    0.000    0.800    4.000    3.000    8.400    2.400 
#    3.600    0.000    0.000    0.000    0.000    0.000 
#    0.000    0.000    0.000    0.000    0.000    0.000 
#
# Total GULP energy -111632.637017 kJ/mol
# GULP energy per Si atom -5581.631851 kJ/mol
# Density = 1.959017 g / cm^3
# Si number density = 19.634864 Si / 1000 Ang^3
#
#
#
# Elastic Constant Matrix: (Units=GPa)
#
#
# Indices 1 2 3 4 5 6 
#
# 1 169.9540 57.5681 67.6793 0.0000 -1.8356 0.0000
# 2 57.5681 143.6014 48.9715 0.0000 -2.5776 0.0000
# 3 67.6793 48.9715 143.1515 0.0000 4.4476 0.0000
# 4 0.0000 0.0000 0.0000 38.4954 0.0000 -8.7970
# 5 -1.8356 -2.5776 4.4476 0.0000 30.8048 0.0000
# 6 0.0000 0.0000 0.0000 -8.7970 0.0000 27.8448
#
#
#
# Elastic Compliance Matrix: (Units=1/GPa)
#
#
# Indices 1 2 3 4 5 6 
#
# 1 0.007791 -0.002090 -0.002991 0.000000 0.000721 0.000000
# 2 -0.002090 0.008479 -0.001939 0.000000 0.000865 0.000000
# 3 -0.002991 -0.001939 0.009114 0.000000 -0.001656 0.000000
# 4 0.000000 0.000000 0.000000 0.027999 0.000000 0.008846
# 5 0.000721 0.000865 -0.001656 0.000000 0.032817 0.000000
# 6 0.000000 0.000000 0.000000 0.008846 0.000000 0.038708
#
#
# Mechanical properties :
#
#
# Convention : Reuss Voigt Hill
#
# Bulk Modulus (GPa) = 88.15632 89.46053 88.80842
# Shear Modulus (GPa) = 35.03162 38.26153 36.64657
#
# Velocity S-wave (km/s) = 4.22851 4.41914 4.32488
# Velocity P-wave (km/s) = 8.29673 8.46755 8.38257
#
# Compressibility (1/GPa) = 0.01134349
#
# Stress axis : x y z
#
# Youngs Moduli (GPa) = 128.35762 117.94508 109.71764
#
# Poissons Ratio (x) = 0.24655 0.32812
# Poissons Ratio (y) = 0.26832 0.21275
# Poissons Ratio (z) = 0.38387 0.22870
#
# Static dielectric constant tensor:
#      x y z
#    x 1.213040 0.000000 -0.291820 
#    y 0.000000 1.726520 0.000000 
#    z -0.291820 0.000000 1.610280 
# 
# From -- ./inp_files/237375.got.cif
#   From: 2010.05.17/outbox.cif.g08.bks.cpg/sg15_119_cif.got.tgz:237375.got - 2010.06.03 18:47:42.
