data_PCOD9304839
_publ_section_title
;
Structure prediction by ZEFSAII (Michael W. Deem and Ramdas Pophale) SiO2 
 PCOD9304839
Probable space group: C 2/C
;
_chemical_formula_sum "Si O2"
_cell_formula_units_Z 44
_cell_length_a 8.605731
_cell_length_b 22.213971
_cell_length_c 12.673378
_cell_angle_alpha 90.000000
_cell_angle_beta 112.071635
_cell_angle_gamma 90.000000
_cell_volume 2245.186600
_symmetry_space_group_name_H-M "C 2/C"
_symmetry_group_IT_number 15
_symmetry_cell_setting 'monoclinic'
loop_
_space_group_symop_operation_xyz
x,y,z
-x,y,1/2-z
-x,-y,-z
x,-y,1/2+z
1/2+x,1/2+y,z
1/2-x,1/2+y,1/2-z
1/2-x,1/2-y,-z
1/2+x,1/2-y,1/2+z
loop_
_atom_site_type_symbol
_atom_site_label
_atom_site_fract_x
_atom_site_fract_y
_atom_site_fract_z
Si Si1 0.297229 0.338032 0.927130
Si Si2 0.079858 0.936811 0.984929
Si Si3 0.663938 0.988573 0.614407
Si Si4 0.690422 0.099328 0.760788
Si Si5 0.191997 0.788250 0.332528
Si Si6 0.000000 0.408768 0.750000
O O1 0.293570 0.273970 0.866910
O O2 0.121204 0.369402 0.854147
O O3 0.441011 0.385322 0.931939
O O4 0.309827 0.320524 0.053435
O O5 0.193690 0.915013 0.110658
O O6 0.197173 0.952775 0.915904
O O7 0.000000 0.000000 0.000000
O O8 0.609778 0.950451 0.702031
O O9 0.500000 0.000000 0.500000
O O10 0.726722 0.052338 0.675496
O O11 0.500000 0.091462 0.750000
O O12 0.725671 0.165694 0.727668
O O13 0.000000 0.776271 0.250000
#
# Coordination Sequence:
#
# PCOD9304839 Si02
#       6
#     8   8   8   8   8   4
#     4  11  25  44  70 104 133 185 234 283 352 414
#     4  12  25  42  69 107 140 179 234 286 357 422
#     4  12  23  42  68 101 141 180 226 290 351 415
#     4  12  24  43  67 100 136 184 234 285 349 412
#     4  11  23  47  72  95 138 185 234 287 338 422
#     4  12  24  44  68  98 140 180 230 288 358 410
#
# _framework density 19.597480000000001
#
# number of rings (size 3 to 8) (size 9 to 14) (size 15 to 20)
#    0.000    0.364    5.455    4.364    0.000    2.182 
#    3.273    0.909    0.000    0.000    0.000    0.000 
#    0.000    0.000    0.000    0.000    0.000    0.000 
#
# Total GULP energy -123098.705109 kJ/mol
# GULP energy per Si atom -5595.395687 kJ/mol
# Density = 1.955288 g / cm^3
# Si number density = 19.597480 Si / 1000 Ang^3
#
#
#
# Elastic Constant Matrix: (Units=GPa)
#
#
# Indices 1 2 3 4 5 6 
#
# 1 103.1724 71.9927 45.7073 0.0000 3.4674 0.0000
# 2 71.9927 163.4742 49.6974 0.0000 -5.9729 0.0000
# 3 45.7073 49.6974 94.0141 0.0000 9.8443 0.0000
# 4 0.0000 0.0000 0.0000 44.2080 0.0000 5.5997
# 5 3.4674 -5.9729 9.8443 0.0000 38.8952 0.0000
# 6 0.0000 0.0000 0.0000 5.5997 0.0000 36.0109
#
#
#
# Elastic Compliance Matrix: (Units=1/GPa)
#
#
# Indices 1 2 3 4 5 6 
#
# 1 0.015602 -0.005528 -0.004549 0.000000 -0.001088 0.000000
# 2 -0.005528 0.009426 -0.002567 0.000000 0.002590 0.000000
# 3 -0.004549 -0.002567 0.014591 0.000000 -0.003682 0.000000
# 4 0.000000 0.000000 0.000000 0.023075 0.000000 -0.003588
# 5 -0.001088 0.002590 -0.003682 0.000000 0.027137 0.000000
# 6 0.000000 0.000000 0.000000 -0.003588 0.000000 0.028327
#
#
# Mechanical properties :
#
#
# Convention : Reuss Voigt Hill
#
# Bulk Modulus (GPa) = 69.77564 77.27283 73.52423
# Shear Modulus (GPa) = 33.73324 36.70704 35.22014
#
# Velocity S-wave (km/s) = 4.15336 4.33257 4.24391
# Velocity P-wave (km/s) = 7.66043 8.03391 7.84940
#
# Compressibility (1/GPa) = 0.01433165
#
# Stress axis : x y z
#
# Youngs Moduli (GPa) = 64.09636 106.08474 68.53663
#
# Poissons Ratio (x) = 0.58639 0.31178
# Poissons Ratio (y) = 0.35430 0.17592
# Poissons Ratio (z) = 0.29158 0.27230
#
# Static dielectric constant tensor:
#      x y z
#    x 1.682240 0.000000 0.014560 
#    y 0.000000 1.691890 0.000000 
#    z 0.014560 0.000000 1.673620 
# 
# From -- ./inp_files/78110.got.cif
#   From: 2010.05.17/outbox.cif.g08.bks.cpg/sg15_40_cif.got.tgz:78110.got - 2010.06.03 18:47:42.
