data_PCOD9304998
_publ_section_title
;
Structure prediction by ZEFSAII (Michael W. Deem and Ramdas Pophale) SiO2 
 PCOD9304998
Probable space group: C 2/C
;
_chemical_formula_sum "Si O2"
_cell_formula_units_Z 44
_cell_length_a 22.054898
_cell_length_b 5.283621
_cell_length_c 23.193191
_cell_angle_alpha 90.000000
_cell_angle_beta 40.156417
_cell_angle_gamma 90.000000
_cell_volume 1742.905223
_symmetry_space_group_name_H-M "C 2/C"
_symmetry_group_IT_number 15
_symmetry_cell_setting 'monoclinic'
loop_
_space_group_symop_operation_xyz
x,y,z
-x,y,1/2-z
-x,-y,-z
x,-y,1/2+z
1/2+x,1/2+y,z
1/2-x,1/2+y,1/2-z
1/2-x,1/2-y,-z
1/2+x,1/2-y,1/2+z
loop_
_atom_site_type_symbol
_atom_site_label
_atom_site_fract_x
_atom_site_fract_y
_atom_site_fract_z
Si Si1 0.867446 0.635687 0.638135
Si Si2 0.881067 0.349938 0.993646
Si Si3 0.837013 0.833948 0.360406
Si Si4 0.140318 0.866384 0.291269
Si Si5 0.500000 0.059824 0.750000
Si Si6 0.422879 0.361820 0.897786
O O1 0.898264 0.639908 0.549433
O O2 0.897203 0.389887 0.652383
O O3 0.753603 0.633838 0.720149
O O4 0.898072 0.887609 0.648530
O O5 0.772542 0.266818 0.060881
O O6 0.889014 0.634753 0.963314
O O7 0.937506 0.124581 0.921001
O O8 0.863944 0.876799 0.274360
O O9 0.908991 0.613199 0.325810
O O10 0.854692 0.056821 0.393751
O O11 0.507422 0.233547 0.800665
#
# Coordination Sequence:
#
# PCOD9304998 Si02
#       6
#     8   8   8   8   4   8
#     4   9  18  36  58  99 120 165 196 272 315 373
#     4  11  24  40  72  96 136 157 220 267 329 373
#     4  11  25  43  66 100 128 177 210 272 316 384
#     4   9  19  34  63  88 132 155 214 251 323 374
#     4  12  28  44  62  92 136 176 220 248 336 382
#     4  12  25  43  64  99 129 174 210 272 319 388
#
# _framework density 25.245206
#
# number of rings (size 3 to 8) (size 9 to 14) (size 15 to 20)
#    0.000    1.455    1.818    2.727    5.091    2.909 
#    0.000    0.000    0.000    6.545    0.000    0.000 
#    0.000    0.000    0.000    0.000    0.000    0.000 
#
# Total GULP energy -123248.423918 kJ/mol
# GULP energy per Si atom -5602.201087 kJ/mol
# Density = 2.518775 g / cm^3
# Si number density = 25.245206 Si / 1000 Ang^3
#
#
#
# Elastic Constant Matrix: (Units=GPa)
#
#
# Indices 1 2 3 4 5 6 
#
# 1 120.8440 91.1663 40.1669 -0.1431 36.4061 -0.0965
# 2 91.1663 222.9666 71.4981 -0.1487 41.7052 -0.1920
# 3 40.1669 71.4981 106.8325 -0.0858 34.1653 -0.0124
# 4 -0.1431 -0.1487 -0.0858 35.4363 -0.0392 19.7470
# 5 36.4061 41.7052 34.1653 -0.0392 67.2009 0.2431
# 6 -0.0965 -0.1920 -0.0124 19.7470 0.2431 43.2854
#
#
#
# Elastic Compliance Matrix: (Units=1/GPa)
#
#
# Indices 1 2 3 4 5 6 
#
# 1 0.012981 -0.004337 -0.000704 0.000014 -0.003983 0.000026
# 2 -0.004337 0.007373 -0.003095 -0.000012 -0.000653 0.000031
# 3 -0.000704 -0.003095 0.013088 0.000005 -0.004352 0.000011
# 4 0.000014 -0.000012 0.000005 0.037840 0.000082 -0.017263
# 5 -0.003983 -0.000653 -0.004352 0.000082 0.019657 -0.000161
# 6 0.000026 0.000031 0.000011 -0.017263 -0.000161 0.030979
#
#
# Mechanical properties :
#
#
# Convention : Reuss Voigt Hill
#
# Bulk Modulus (GPa) = 58.24174 95.14507 76.69340
# Shear Modulus (GPa) = 34.74321 45.70532 40.22427
#
# Velocity S-wave (km/s) = 3.71378 4.25956 3.99600
# Velocity P-wave (km/s) = 6.44283 7.87159 7.19278
#
# Compressibility (1/GPa) = 0.01716982
#
# Stress axis : x y z
#
# Youngs Moduli (GPa) = 77.03618 135.63493 76.40376
#
# Poissons Ratio (x) = 0.58821 0.05382
# Poissons Ratio (y) = 0.33408 0.23647
# Poissons Ratio (z) = 0.05427 0.41979
#
# Static dielectric constant tensor:
#      x y z
#    x 2.050180 -0.000070 -0.064640 
#    y -0.000070 1.943160 0.000060 
#    z -0.064640 0.000060 1.976760 
# 
# From -- ./inp_files/281125.got.cif
#   From: 2010.05.17/outbox.cif.g08.bks.cpg/sg15_141_cif.got.tgz:281125.got - 2010.06.03 18:47:42.
