data_PCOD9304546
_publ_section_title
;
Structure prediction by ZEFSAII (Michael W. Deem and Ramdas Pophale) SiO2 
 PCOD9304546
Probable space group: C 2/C
;
_chemical_formula_sum "Si O2"
_cell_formula_units_Z 36
_cell_length_a 10.609025
_cell_length_b 23.243911
_cell_length_c 5.745684
_cell_angle_alpha 90.000000
_cell_angle_beta 100.923981
_cell_angle_gamma 90.000000
_cell_volume 1391.184077
_symmetry_space_group_name_H-M "C 2/C"
_symmetry_group_IT_number 15
_symmetry_cell_setting 'monoclinic'
loop_
_space_group_symop_operation_xyz
x,y,z
-x,y,1/2-z
-x,-y,-z
x,-y,1/2+z
1/2+x,1/2+y,z
1/2-x,1/2+y,1/2-z
1/2-x,1/2-y,-z
1/2+x,1/2-y,1/2+z
loop_
_atom_site_type_symbol
_atom_site_label
_atom_site_fract_x
_atom_site_fract_y
_atom_site_fract_z
Si Si1 0.275617 0.475516 0.406093
Si Si2 0.377008 0.857317 0.562717
Si Si3 0.500000 0.946008 0.250000
Si Si4 0.854209 0.880481 0.706796
Si Si5 0.354261 0.753587 0.243437
O O1 0.324660 0.502144 0.671971
O O2 0.303412 0.406865 0.445093
O O3 0.122449 0.482163 0.368976
O O4 0.500000 0.833515 0.750000
O O5 0.445046 0.903164 0.423361
O O6 0.268369 0.892095 0.668943
O O7 0.314060 0.801729 0.415626
O O8 0.871562 0.814204 0.784994
O O9 0.000000 0.903185 0.750000
O O10 0.500000 0.774503 0.250000
O O11 0.250000 0.750000 0.000000
#
# Coordination Sequence:
#
# PCOD9304546 Si02
#       5
#     8   8   4   8   8
#     4  12  27  49  78 112 152 208 271 333 390 457
#     4  12  23  46  81 113 156 201 255 323 391 478
#     4  12  24  46  78 118 152 186 266 326 406 444
#     4  11  26  47  72 111 156 202 255 315 390 468
#     4  11  23  44  73 113 156 200 256 314 391 479
#
# _framework density 25.877236
#
# number of rings (size 3 to 8) (size 9 to 14) (size 15 to 20)
#    0.000    0.444    3.333    5.333    0.000    0.889 
#    0.000   17.778    0.000    0.000    0.000    0.000 
#    0.000    0.000    0.000    0.000    0.000    0.000 
#
# Total GULP energy -100332.287971 kJ/mol
# GULP energy per Si atom -5574.015998 kJ/mol
# Density = 2.581834 g / cm^3
# Si number density = 25.877236 Si / 1000 Ang^3
#
#
#
# Elastic Constant Matrix: (Units=GPa)
#
#
# Indices 1 2 3 4 5 6 
#
# 1 158.1719 11.9193 42.6230 0.0000 18.6703 0.0000
# 2 11.9193 132.1677 55.4897 0.0000 0.5237 0.0000
# 3 42.6230 55.4897 137.8602 0.0000 13.3628 0.0000
# 4 0.0000 0.0000 0.0000 60.9516 0.0000 -3.2642
# 5 18.6703 0.5237 13.3628 0.0000 28.9593 0.0000
# 6 0.0000 0.0000 0.0000 -3.2642 0.0000 45.0777
#
#
#
# Elastic Compliance Matrix: (Units=1/GPa)
#
#
# Indices 1 2 3 4 5 6 
#
# 1 0.007284 0.000179 -0.001956 0.000000 -0.003797 0.000000
# 2 0.000179 0.009180 -0.003898 0.000000 0.001517 0.000000
# 3 -0.001956 -0.003898 0.009734 0.000000 -0.003160 0.000000
# 4 0.000000 0.000000 0.000000 0.016470 0.000000 0.001193
# 5 -0.003797 0.001517 -0.003160 0.000000 0.038410 0.000000
# 6 0.000000 0.000000 0.000000 0.001193 0.000000 0.022270
#
#
# Mechanical properties :
#
#
# Convention : Reuss Voigt Hill
#
# Bulk Modulus (GPa) = 67.34410 72.02931 69.68670
# Shear Modulus (GPa) = 41.78965 48.20891 44.99928
#
# Velocity S-wave (km/s) = 4.02297 4.32091 4.17460
# Velocity P-wave (km/s) = 6.90362 7.26562 7.08693
#
# Compressibility (1/GPa) = 0.01484911
#
# Stress axis : x y z
#
# Youngs Moduli (GPa) = 137.28682 108.92818 102.73608
#
# Poissons Ratio (x) = -0.01955 0.20098
# Poissons Ratio (y) = -0.02464 0.40043
# Poissons Ratio (z) = 0.26857 0.42457
#
# Static dielectric constant tensor:
#      x y z
#    x 1.835690 0.000000 0.074970 
#    y 0.000000 2.065400 0.000000 
#    z 0.074970 0.000000 2.189990 
# 
# From -- ./inp_files/4391.got.cif
#   From: 2010.05.17/outbox.cif.g08.bks.cpg/sg15_3_cif.got.tgz:4391.got - 2010.06.03 18:47:42.
