data_PCOD9304113
_publ_section_title
;
Structure prediction by ZEFSAII (Michael W. Deem and Ramdas Pophale) SiO2 
 PCOD9304113
Probable space group: C 2/C
;
_chemical_formula_sum "Si O2"
_cell_formula_units_Z 52
_cell_length_a 24.499718
_cell_length_b 12.164369
_cell_length_c 11.180536
_cell_angle_alpha 90.000000
_cell_angle_beta 48.120244
_cell_angle_gamma 90.000000
_cell_volume 2480.879570
_symmetry_space_group_name_H-M "C 2/C"
_symmetry_group_IT_number 15
_symmetry_cell_setting 'monoclinic'
loop_
_space_group_symop_operation_xyz
x,y,z
-x,y,1/2-z
-x,-y,-z
x,-y,1/2+z
1/2+x,1/2+y,z
1/2-x,1/2+y,1/2-z
1/2-x,1/2-y,-z
1/2+x,1/2-y,1/2+z
loop_
_atom_site_type_symbol
_atom_site_label
_atom_site_fract_x
_atom_site_fract_y
_atom_site_fract_z
Si Si1 0.958944 0.886885 0.193170
Si Si2 0.797052 0.470223 0.345590
Si Si3 0.928523 0.132660 0.189363
Si Si4 0.500000 0.185965 0.750000
Si Si5 0.855547 0.430764 0.517519
Si Si6 0.214787 0.222647 0.215957
Si Si7 0.692978 0.325037 0.015733
O O1 0.881225 0.827865 0.299843
O O2 0.000000 0.846593 0.250000
O O3 0.938902 0.015730 0.237763
O O4 0.014121 0.872379 0.003850
O O5 0.840436 0.484310 0.408159
O O6 0.839621 0.500958 0.161009
O O7 0.778485 0.342008 0.353333
O O8 0.727897 0.552989 0.451601
O O9 0.953913 0.234528 0.231255
O O10 0.845782 0.151238 0.266136
O O11 0.562016 0.113154 0.597142
O O12 0.793886 0.334530 0.609059
O O13 0.183623 0.224048 0.396861
O O14 0.750000 0.250000 0.000000
#
# Coordination Sequence:
#
# PCOD9304113 Si02
#       7
#     8   8   8   4   8   8   8
#     4  11  23  42  68 103 136 175 217 287 348 394
#     4  11  24  45  69  97 135 185 226 275 337 411
#     4  11  24  42  69 101 135 173 227 280 346 402
#     4  12  26  44  68  98 134 180 224 284 332 402
#     4  11  26  44  70  99 137 179 231 282 341 406
#     4  11  23  44  70  98 134 180 226 281 338 412
#     4  11  25  43  68 102 139 177 226 276 341 408
#
# _framework density 20.960308999999999
#
# number of rings (size 3 to 8) (size 9 to 14) (size 15 to 20)
#    0.000    0.923    3.846    2.308    6.462    1.846 
#    0.000    0.000    0.000    0.000    0.000    0.000 
#    0.000    0.000    0.000    0.000    0.000    0.000 
#
# Total GULP energy -145312.712902 kJ/mol
# GULP energy per Si atom -5588.950496 kJ/mol
# Density = 2.091260 g / cm^3
# Si number density = 20.960309 Si / 1000 Ang^3
#
#
#
# Elastic Constant Matrix: (Units=GPa)
#
#
# Indices 1 2 3 4 5 6 
#
# 1 59.2650 1.6158 20.5488 0.0000 -7.9594 0.0000
# 2 1.6158 54.2701 25.7807 0.0000 -8.4718 0.0000
# 3 20.5488 25.7807 97.1609 0.0000 -18.8712 0.0000
# 4 0.0000 0.0000 0.0000 53.3107 0.0000 -3.6164
# 5 -7.9594 -8.4718 -18.8712 0.0000 51.8417 0.0000
# 6 0.0000 0.0000 0.0000 -3.6164 0.0000 30.9635
#
#
#
# Elastic Compliance Matrix: (Units=1/GPa)
#
#
# Indices 1 2 3 4 5 6 
#
# 1 0.018439 0.001611 -0.004010 0.000000 0.001635 0.000000
# 2 0.001611 0.021336 -0.005678 0.000000 0.001667 0.000000
# 3 -0.004010 -0.005678 0.013286 0.000000 0.003293 0.000000
# 4 0.000000 0.000000 0.000000 0.018908 0.000000 0.002208
# 5 0.001635 0.001667 0.003293 0.000000 0.021012 0.000000
# 6 0.000000 0.000000 0.000000 0.002208 0.000000 0.032554
#
#
# Mechanical properties :
#
#
# Convention : Reuss Voigt Hill
#
# Bulk Modulus (GPa) = 27.09452 34.06517 30.57985
# Shear Modulus (GPa) = 32.46928 38.07324 35.27126
#
# Velocity S-wave (km/s) = 3.94011 4.26660 4.10660
# Velocity P-wave (km/s) = 5.80120 6.36862 6.09152
#
# Compressibility (1/GPa) = 0.03690783
#
# Stress axis : x y z
#
# Youngs Moduli (GPa) = 54.23205 46.86903 75.26443
#
# Poissons Ratio (x) = -0.07551 0.30179
# Poissons Ratio (y) = -0.08737 0.42737
# Poissons Ratio (z) = 0.21746 0.26613
#
# Static dielectric constant tensor:
#      x y z
#    x 1.735760 0.000000 0.025110 
#    y 0.000000 1.753500 0.000000 
#    z 0.025110 0.000000 1.827590 
# 
# From -- ./inp_files/117965.got.cif
#   From: 2010.05.17/outbox.cif.g08.bks.cpg/sg15_59_cif.got.tgz:117965.got - 2010.06.03 18:47:42.
