data_PCOD9304992
_publ_section_title
;
Structure prediction by ZEFSAII (Michael W. Deem and Ramdas Pophale) SiO2 
 PCOD9304992
Probable space group: C 2/C
;
_chemical_formula_sum "Si O2"
_cell_formula_units_Z 40
_cell_length_a 19.617845
_cell_length_b 12.654824
_cell_length_c 12.147429
_cell_angle_alpha 90.000000
_cell_angle_beta 144.362979
_cell_angle_gamma 90.000000
_cell_volume 1757.106984
_symmetry_space_group_name_H-M "C 2/C"
_symmetry_group_IT_number 15
_symmetry_cell_setting 'monoclinic'
loop_
_space_group_symop_operation_xyz
x,y,z
-x,y,1/2-z
-x,-y,-z
x,-y,1/2+z
1/2+x,1/2+y,z
1/2-x,1/2+y,1/2-z
1/2-x,1/2-y,-z
1/2+x,1/2-y,1/2+z
loop_
_atom_site_type_symbol
_atom_site_label
_atom_site_fract_x
_atom_site_fract_y
_atom_site_fract_z
Si Si1 0.210449 0.897816 0.245617
Si Si2 0.017997 0.745985 0.086330
Si Si3 0.155601 0.444594 0.868865
Si Si4 0.832838 0.320666 0.184860
Si Si5 0.108174 0.928974 0.463371
O O1 0.129277 0.818118 0.205983
O O2 0.314111 0.927870 0.464093
O O3 0.260262 0.846827 0.200317
O O4 0.137756 0.999712 0.108391
O O5 0.061680 0.636671 0.196338
O O6 0.933226 0.813429 0.053687
O O7 0.949911 0.733360 0.882294
O O8 0.130353 0.567812 0.818891
O O9 0.275594 0.425087 0.957332
O O10 0.750000 0.250000 0.000000
O O11 0.000000 0.974710 0.250000
#
# Coordination Sequence:
#
# PCOD9304992 Si02
#       5
#     8   8   8   8   8
#     4  11  25  42  70  97 135 178 231 278 339 409
#     4  12  24  42  72  99 137 184 222 289 342 398
#     4  11  25  45  65 104 135 179 232 279 343 416
#     4  11  27  46  68 100 141 177 229 282 343 409
#     4  11  24  40  69  99 136 178 234 280 339 410
#
# _framework density 22.764693000000001
#
# number of rings (size 3 to 8) (size 9 to 14) (size 15 to 20)
#    0.000    0.800    2.000    4.200    8.400    1.600 
#    0.000    2.000    0.000    0.000    0.000    0.000 
#    0.000    0.000    0.000    0.000    0.000    0.000 
#
# Total GULP energy -112025.541008 kJ/mol
# GULP energy per Si atom -5601.277050 kJ/mol
# Density = 2.271288 g / cm^3
# Si number density = 22.764693 Si / 1000 Ang^3
#
#
#
# Elastic Constant Matrix: (Units=GPa)
#
#
# Indices 1 2 3 4 5 6 
#
# 1 45.2458 0.0266 -10.2403 0.0000 -5.1229 0.0000
# 2 0.0266 99.9372 34.7175 0.0000 -17.5180 0.0000
# 3 -10.2403 34.7175 129.5067 0.0000 -28.5374 0.0000
# 4 0.0000 0.0000 0.0000 58.0877 0.0000 -6.3486
# 5 -5.1229 -17.5180 -28.5374 0.0000 39.8087 0.0000
# 6 0.0000 0.0000 0.0000 -6.3486 0.0000 19.3158
#
#
#
# Elastic Compliance Matrix: (Units=1/GPa)
#
#
# Indices 1 2 3 4 5 6 
#
# 1 0.023360 -0.000160 0.003013 0.000000 0.005096 0.000000
# 2 -0.000160 0.011400 -0.002337 0.000000 0.003321 0.000000
# 3 0.003013 -0.002337 0.010029 0.000000 0.006549 0.000000
# 4 0.000000 0.000000 0.000000 0.017857 0.000000 0.005869
# 5 0.005096 0.003321 0.006549 0.000000 0.031932 0.000000
# 6 0.000000 0.000000 0.000000 0.005869 0.000000 0.053700
#
#
# Mechanical properties :
#
#
# Convention : Reuss Voigt Hill
#
# Bulk Modulus (GPa) = 21.82330 35.96635 28.89483
# Shear Modulus (GPa) = 30.76526 40.12149 35.44337
#
# Velocity S-wave (km/s) = 3.68019 4.20270 3.95009
# Velocity P-wave (km/s) = 5.25982 6.27565 5.79005
#
# Compressibility (1/GPa) = 0.04582258
#
# Stress axis : x y z
#
# Youngs Moduli (GPa) = 42.80747 87.71695 99.70657
#
# Poissons Ratio (x) = 0.01400 -0.30040
# Poissons Ratio (y) = 0.00683 0.23301
# Poissons Ratio (z) = -0.12897 0.20499
#
# Static dielectric constant tensor:
#      x y z
#    x 1.846520 0.000000 0.002110 
#    y 0.000000 1.853660 0.000000 
#    z 0.002110 0.000000 1.856670 
# 
# From -- ./inp_files/111863.got.cif
#   From: 2010.05.17/outbox.cif.g08.bks.cpg/sg15_56_cif.got.tgz:111863.got - 2010.06.03 18:47:42.
