data_PCOD9304909
_publ_section_title
;
Structure prediction by ZEFSAII (Michael W. Deem and Ramdas Pophale) SiO2 
 PCOD9304909
Probable space group: C 2/C
;
_chemical_formula_sum "Si O2"
_cell_formula_units_Z 44
_cell_length_a 5.282486
_cell_length_b 29.343360
_cell_length_c 12.391170
_cell_angle_alpha 90.000000
_cell_angle_beta 91.709508
_cell_angle_gamma 90.000000
_cell_volume 1919.849453
_symmetry_space_group_name_H-M "C 2/C"
_symmetry_group_IT_number 15
_symmetry_cell_setting 'monoclinic'
loop_
_space_group_symop_operation_xyz
x,y,z
-x,y,1/2-z
-x,-y,-z
x,-y,1/2+z
1/2+x,1/2+y,z
1/2-x,1/2+y,1/2-z
1/2-x,1/2-y,-z
1/2+x,1/2-y,1/2+z
loop_
_atom_site_type_symbol
_atom_site_label
_atom_site_fract_x
_atom_site_fract_y
_atom_site_fract_z
Si Si1 0.500000 0.811387 0.250000
Si Si2 0.475908 0.121140 0.935367
Si Si3 0.500000 0.663508 0.250000
Si Si4 0.500000 0.748736 0.750000
Si Si5 0.204497 0.704421 0.433564
Si Si6 0.691098 0.919039 0.656718
Si Si7 0.500000 0.494203 0.750000
Si Si8 0.000000 0.448625 0.250000
O O1 0.403287 0.843027 0.149131
O O2 0.750689 0.781958 0.228816
O O3 0.401645 0.082061 0.849294
O O4 0.306136 0.158347 0.996785
O O5 0.600385 0.093699 0.036108
O O6 0.411709 0.693518 0.347343
O O7 0.708956 0.628189 0.293881
O O8 0.531477 0.781154 0.645807
O O9 0.250000 0.750000 0.500000
O O10 0.500000 0.934393 0.750000
O O11 0.900401 0.958927 0.657211
O O12 0.255361 0.523477 0.782780
#
# Coordination Sequence:
#
# PCOD9304909 Si02
#       8
#     4   8   4   4   8   8   4   4
#     4  11  27  48  71 106 155 202 255 311 384 439
#     4  11  26  47  74 112 155 204 249 319 384 454
#     4  11  25  43  72 111 150 200 263 321 382 448
#     4  12  26  47  67 105 149 200 266 319 357 436
#     4  12  25  43  73 108 153 210 265 316 377 445
#     4  11  23  48  79 109 150 193 257 316 387 466
#     4  11  26  53  79 119 148 195 254 315 395 483
#     4  11  28  51  77 115 160 193 252 316 398 472
#
# _framework density 22.918464
#
# number of rings (size 3 to 8) (size 9 to 14) (size 15 to 20)
#    0.000    0.727    4.545    1.636    2.545    6.545 
#    0.000    0.000    0.000    0.000    0.000    0.000 
#    0.000    0.000    0.000    0.000    0.000    0.000 
#
# Total GULP energy -122525.366046 kJ/mol
# GULP energy per Si atom -5569.334820 kJ/mol
# Density = 2.286630 g / cm^3
# Si number density = 22.918464 Si / 1000 Ang^3
#
#
#
# Elastic Constant Matrix: (Units=GPa)
#
#
# Indices 1 2 3 4 5 6 
#
# 1 81.1112 71.0310 58.3659 0.0000 3.3085 0.0000
# 2 71.0310 158.4735 63.6474 0.0000 -2.5155 0.0000
# 3 58.3659 63.6474 152.3335 0.0000 -8.7584 0.0000
# 4 0.0000 0.0000 0.0000 24.3240 0.0000 -10.0976
# 5 3.3085 -2.5155 -8.7584 0.0000 27.2765 0.0000
# 6 0.0000 0.0000 0.0000 -10.0976 0.0000 24.9825
#
#
#
# Elastic Compliance Matrix: (Units=1/GPa)
#
#
# Indices 1 2 3 4 5 6 
#
# 1 0.024518 -0.008622 -0.006121 0.000000 -0.005735 0.000000
# 2 -0.008622 0.010617 -0.001035 0.000000 0.001693 0.000000
# 3 -0.006121 -0.001035 0.009556 0.000000 0.003715 0.000000
# 4 0.000000 0.000000 0.000000 0.049400 0.000000 0.019967
# 5 -0.005735 0.001693 0.003715 0.000000 0.038706 0.000000
# 6 0.000000 0.000000 0.000000 0.019967 0.000000 0.048098
#
#
# Mechanical properties :
#
#
# Convention : Reuss Voigt Hill
#
# Bulk Modulus (GPa) = 76.13672 86.44518 81.29095
# Shear Modulus (GPa) = 23.05938 28.57487 25.81712
#
# Velocity S-wave (km/s) = 3.17543 3.53484 3.35994
# Velocity P-wave (km/s) = 6.83646 7.37974 7.11329
#
# Compressibility (1/GPa) = 0.01313427
#
# Stress axis : x y z
#
# Youngs Moduli (GPa) = 40.78677 94.18488 104.64557
#
# Poissons Ratio (x) = 0.81205 0.64056
# Poissons Ratio (y) = 0.35166 0.10835
# Poissons Ratio (z) = 0.24966 0.09752
#
# Static dielectric constant tensor:
#      x y z
#    x 1.984810 0.000000 0.018060 
#    y 0.000000 1.915030 0.000000 
#    z 0.018060 0.000000 1.910500 
# 
# From -- ./inp_files/74067.got.cif
#   From: 2010.05.17/outbox.cif.g08.bks.cpg/sg15_38_cif.got.tgz:74067.got - 2010.06.03 18:47:42.
