data_PCOD9304123
_publ_section_title
;
Structure prediction by ZEFSAII (Michael W. Deem and Ramdas Pophale) SiO2 
 PCOD9304123
Probable space group: C 2/C
;
_chemical_formula_sum "Si O2"
_cell_formula_units_Z 40
_cell_length_a 16.432022
_cell_length_b 7.746415
_cell_length_c 32.686554
_cell_angle_alpha 90.000000
_cell_angle_beta 155.163340
_cell_angle_gamma 90.000000
_cell_volume 1747.608458
_symmetry_space_group_name_H-M "C 2/C"
_symmetry_group_IT_number 15
_symmetry_cell_setting 'monoclinic'
loop_
_space_group_symop_operation_xyz
x,y,z
-x,y,1/2-z
-x,-y,-z
x,-y,1/2+z
1/2+x,1/2+y,z
1/2-x,1/2+y,1/2-z
1/2-x,1/2-y,-z
1/2+x,1/2-y,1/2+z
loop_
_atom_site_type_symbol
_atom_site_label
_atom_site_fract_x
_atom_site_fract_y
_atom_site_fract_z
Si Si1 0.516022 0.876403 0.968339
Si Si2 0.312185 0.219448 0.635770
Si Si3 0.362466 0.053663 0.818396
Si Si4 0.702255 0.090199 0.431115
Si Si5 0.553525 0.579709 0.382578
O O1 0.364740 0.732033 0.913610
O O2 0.423557 0.986571 0.890259
O O3 0.705905 0.773258 0.039673
O O4 0.500000 0.000000 0.000000
O O5 0.500000 0.233088 0.750000
O O6 0.336330 0.360754 0.609293
O O7 0.285726 0.039097 0.601134
O O8 0.457193 0.239516 0.853456
O O9 0.477134 0.921798 0.840787
O O10 0.132997 0.039839 0.709761
O O11 0.819047 0.004348 0.522880
#
# Coordination Sequence:
#
# PCOD9304123 Si02
#       5
#     8   8   8   8   8
#     4  12  24  43  66 101 136 172 224 287 345 396
#     4  11  23  44  66  98 139 174 222 285 350 401
#     4  11  23  42  68  98 134 176 232 283 333 414
#     4  11  25  44  70  94 134 186 228 274 342 420
#     4  11  23  44  69  98 132 186 231 277 344 409
#
# _framework density 22.888421999999998
#
# number of rings (size 3 to 8) (size 9 to 14) (size 15 to 20)
#    0.000    0.800    2.000    7.200    2.800    1.600 
#    0.000    0.000    0.000    0.000    0.000    0.000 
#    0.000    0.000    0.000    0.000    0.000    0.000 
#
# Total GULP energy -111782.736738 kJ/mol
# GULP energy per Si atom -5589.136837 kJ/mol
# Density = 2.283633 g / cm^3
# Si number density = 22.888422 Si / 1000 Ang^3
#
#
#
# Elastic Constant Matrix: (Units=GPa)
#
#
# Indices 1 2 3 4 5 6 
#
# 1 89.7625 28.0557 1.9321 0.0012 5.3756 -0.0012
# 2 28.0557 111.7308 2.2642 0.0018 -15.9672 -0.0016
# 3 1.9321 2.2642 35.4549 0.0015 0.5346 -0.0013
# 4 0.0012 0.0018 0.0015 9.7790 -0.0011 16.4719
# 5 5.3756 -15.9672 0.5346 -0.0011 37.7782 0.0012
# 6 -0.0012 -0.0016 -0.0013 16.4719 0.0012 28.6428
#
#
#
# Elastic Compliance Matrix: (Units=1/GPa)
#
#
# Indices 1 2 3 4 5 6 
#
# 1 0.012469 -0.003593 -0.000400 -0.000061 -0.003287 0.000036
# 2 -0.003593 0.010576 -0.000555 -0.000038 0.004989 0.000022
# 3 -0.000400 -0.000555 0.028271 -0.000209 -0.000578 0.000122
# 4 -0.000061 -0.000038 -0.000209 3.263610 0.000153 -1.876832
# 5 -0.003287 0.004989 -0.000578 0.000153 0.029055 -0.000089
# 6 0.000036 0.000022 0.000122 -1.876832 -0.000089 1.114239
#
#
# Mechanical properties :
#
#
# Convention : Reuss Voigt Hill
#
# Bulk Modulus (GPa) = 23.68533 33.49469 28.59001
# Shear Modulus (GPa) = 1.11573 28.88641 15.00107
#
# Velocity S-wave (km/s) = 0.69894 3.55639 2.56286
# Velocity P-wave (km/s) = 3.31994 5.61512 4.61257
#
# Compressibility (1/GPa) = 0.04222023
#
# Stress axis : x y z
#
# Youngs Moduli (GPa) = 80.19985 94.54988 35.37217
#
# Poissons Ratio (x) = 0.33968 0.01417
# Poissons Ratio (y) = 0.28812 0.01963
# Poissons Ratio (z) = 0.03212 0.05246
#
# Static dielectric constant tensor:
#      x y z
#    x 4.656110 -0.000010 0.375470 
#    y -0.000010 1.922310 0.000000 
#    z 0.375470 0.000000 1.906030 
# 
# From -- ./inp_files/150568.got.cif
#   From: 2010.05.17/outbox.cif.g08.bks.cpg/sg15_76_cif.got.tgz:150568.got - 2010.06.03 18:47:42.
