data_PCOD9304635
_publ_section_title
;
Structure prediction by ZEFSAII (Michael W. Deem and Ramdas Pophale) SiO2 
 PCOD9304635
Probable space group: C 2/C
;
_chemical_formula_sum "Si O2"
_cell_formula_units_Z 56
_cell_length_a 20.019699
_cell_length_b 18.465635
_cell_length_c 18.873997
_cell_angle_alpha 90.000000
_cell_angle_beta 22.021634
_cell_angle_gamma 90.000000
_cell_volume 2616.174694
_symmetry_space_group_name_H-M "C 2/C"
_symmetry_group_IT_number 15
_symmetry_cell_setting 'monoclinic'
loop_
_space_group_symop_operation_xyz
x,y,z
-x,y,1/2-z
-x,-y,-z
x,-y,1/2+z
1/2+x,1/2+y,z
1/2-x,1/2+y,1/2-z
1/2-x,1/2-y,-z
1/2+x,1/2-y,1/2+z
loop_
_atom_site_type_symbol
_atom_site_label
_atom_site_fract_x
_atom_site_fract_y
_atom_site_fract_z
Si Si1 0.476767 0.189401 0.474582
Si Si2 0.137576 0.970758 0.671474
Si Si3 0.982865 0.570728 0.346588
Si Si4 0.292705 0.166712 0.939810
Si Si5 0.380652 0.663050 0.096338
Si Si6 0.335470 0.510268 0.070413
Si Si7 0.711120 0.359593 0.355031
O O1 0.450951 0.132601 0.436527
O O2 0.450841 0.272601 0.476415
O O3 0.672899 0.175550 0.312397
O O4 0.339805 0.179785 0.673458
O O5 0.187944 0.891922 0.590939
O O6 0.000000 0.005944 0.750000
O O7 0.318204 0.014749 0.507117
O O8 0.010184 0.973956 0.864375
O O9 0.000000 0.600399 0.250000
O O10 0.169784 0.531110 0.182243
O O11 0.500000 0.153740 0.750000
O O12 0.254617 0.152571 0.894338
O O13 0.250000 0.250000 0.000000
O O14 0.393875 0.583785 0.049854
O O15 0.511357 0.665892 0.034364
O O16 0.263421 0.444674 0.188459
#
# Coordination Sequence:
#
# PCOD9304635 Si02
#       7
#     8   8   8   8   8   8   8
#     4  11  26  45  71 102 144 183 232 292 354 417
#     4  12  22  44  70 102 139 181 229 294 343 411
#     4  11  23  45  71 104 141 179 236 294 350 413
#     4  12  29  46  70 109 144 186 240 285 353 420
#     4  11  25  46  69 101 140 182 234 287 350 423
#     4  11  25  44  72 102 134 186 240 285 348 424
#     4  12  25  46  70 101 139 186 229 290 348 415
#
# _framework density 21.405297999999998
#
# number of rings (size 3 to 8) (size 9 to 14) (size 15 to 20)
#    0.000    0.571    4.286    3.000    2.000    4.571 
#    0.000    3.571    0.000    0.000    0.000    0.000 
#    0.000    0.000    0.000    0.000    0.000    0.000 
#
# Total GULP energy -156470.323187 kJ/mol
# GULP energy per Si atom -5588.225828 kJ/mol
# Density = 2.135658 g / cm^3
# Si number density = 21.405298 Si / 1000 Ang^3
#
#
#
# Elastic Constant Matrix: (Units=GPa)
#
#
# Indices 1 2 3 4 5 6 
#
# 1 105.6450 63.3251 59.5713 -0.0152 -26.6874 0.0004
# 2 63.3251 158.2852 50.0732 -0.0264 -2.2016 0.0046
# 3 59.5713 50.0732 105.6442 -0.0248 -24.5123 0.0039
# 4 -0.0152 -0.0264 -0.0248 30.5401 0.0135 -4.4660
# 5 -26.6874 -2.2016 -24.5123 0.0135 36.8557 -0.0055
# 6 0.0004 0.0046 0.0039 -4.4660 -0.0055 24.6065
#
#
#
# Elastic Compliance Matrix: (Units=1/GPa)
#
#
# Indices 1 2 3 4 5 6 
#
# 1 0.018113 -0.005360 -0.005563 -0.000004 0.009096 0.000003
# 2 -0.005360 0.009179 -0.002485 0.000005 -0.004986 -0.000001
# 3 -0.005563 -0.002485 0.015149 0.000005 0.005899 0.000000
# 4 -0.000004 0.000005 0.000005 0.033637 -0.000011 0.006105
# 5 0.009096 -0.004986 0.005899 -0.000011 0.037345 0.000006
# 6 0.000003 -0.000001 0.000000 0.006105 0.000006 0.041748
#
#
# Mechanical properties :
#
#
# Convention : Reuss Voigt Hill
#
# Bulk Modulus (GPa) = 63.99787 79.50153 71.74970
# Shear Modulus (GPa) = 26.71031 31.50747 29.10889
#
# Velocity S-wave (km/s) = 3.53630 3.84076 3.69167
# Velocity P-wave (km/s) = 6.82913 7.54256 7.19469
#
# Compressibility (1/GPa) = 0.01562552
#
# Stress axis : x y z
#
# Youngs Moduli (GPa) = 55.20884 108.94529 66.01143
#
# Poissons Ratio (x) = 0.58397 0.36719
# Poissons Ratio (y) = 0.29593 0.16403
# Poissons Ratio (z) = 0.30710 0.27071
#
# Static dielectric constant tensor:
#      x y z
#    x 1.790510 -0.000010 0.012200 
#    y -0.000010 1.809950 0.000020 
#    z 0.012200 0.000020 1.790550 
# 
# From -- ./inp_files/253356.got.cif
#   From: 2010.05.17/outbox.cif.g08.bks.cpg/sg15_127_cif.got.tgz:253356.got - 2010.06.03 18:47:42.
