data_PCOD9304439
_publ_section_title
;
Structure prediction by ZEFSAII (Michael W. Deem and Ramdas Pophale) SiO2 
 PCOD9304439
Probable space group: C 2/C
;
_chemical_formula_sum "Si O2"
_cell_formula_units_Z 40
_cell_length_a 13.652988
_cell_length_b 18.476249
_cell_length_c 13.904449
_cell_angle_alpha 90.000000
_cell_angle_beta 31.411971
_cell_angle_gamma 90.000000
_cell_volume 1828.056732
_symmetry_space_group_name_H-M "C 2/C"
_symmetry_group_IT_number 15
_symmetry_cell_setting 'monoclinic'
loop_
_space_group_symop_operation_xyz
x,y,z
-x,y,1/2-z
-x,-y,-z
x,-y,1/2+z
1/2+x,1/2+y,z
1/2-x,1/2+y,1/2-z
1/2-x,1/2-y,-z
1/2+x,1/2-y,1/2+z
loop_
_atom_site_type_symbol
_atom_site_label
_atom_site_fract_x
_atom_site_fract_y
_atom_site_fract_z
Si Si1 0.182540 0.648627 0.753412
Si Si2 0.794347 0.307125 0.664055
Si Si3 0.970855 0.085275 0.659913
Si Si4 0.525698 0.419525 0.614486
Si Si5 0.810483 0.690159 0.368161
O O1 0.238400 0.728939 0.670736
O O2 0.293202 0.622597 0.757437
O O3 0.266170 0.596714 0.600809
O O4 0.965298 0.655005 0.964716
O O5 0.616975 0.360469 0.809199
O O6 0.854656 0.284805 0.722538
O O7 0.151132 0.132167 0.482295
O O8 0.000000 0.087277 0.750000
O O9 0.972482 0.001222 0.631307
O O10 0.500000 0.413187 0.750000
O O11 0.750000 0.750000 0.500000
O O12 0.000000 0.655912 0.250000
#
# Coordination Sequence:
#
# PCOD9304439 Si02
#       5
#     8   8   8   8   8
#     4  12  23  44  72  98 135 179 231 287 340 402
#     4  12  24  43  71 103 132 181 233 277 343 410
#     4  11  23  44  68 101 144 176 222 285 347 416
#     4  11  27  48  67  97 140 183 231 285 339 402
#     4  12  23  39  70 106 142 176 220 279 349 413
#
# _framework density 21.881160000000001
#
# number of rings (size 3 to 8) (size 9 to 14) (size 15 to 20)
#    0.000    0.400    4.000    6.000    0.000    2.400 
#    7.200    0.000    0.000    0.000    0.000    0.000 
#    0.000    0.000    0.000    0.000    0.000    0.000 
#
# Total GULP energy -111616.989819 kJ/mol
# GULP energy per Si atom -5580.849491 kJ/mol
# Density = 2.183136 g / cm^3
# Si number density = 21.881160 Si / 1000 Ang^3
#
#
#
# Elastic Constant Matrix: (Units=GPa)
#
#
# Indices 1 2 3 4 5 6 
#
# 1 63.4244 7.8871 10.1070 0.0023 25.0278 -0.0057
# 2 7.8871 121.6224 12.8622 -0.0001 -6.5518 -0.0018
# 3 10.1070 12.8622 107.3965 -0.0085 12.8892 0.0053
# 4 0.0023 -0.0001 -0.0085 19.1520 0.0051 -3.1498
# 5 25.0278 -6.5518 12.8892 0.0051 43.2007 -0.0024
# 6 -0.0057 -0.0018 0.0053 -3.1498 -0.0024 21.2273
#
#
#
# Elastic Compliance Matrix: (Units=1/GPa)
#
#
# Indices 1 2 3 4 5 6 
#
# 1 0.020930 -0.001997 -0.000248 0.000001 -0.012354 0.000004
# 2 -0.001997 0.008629 -0.001184 -0.000001 0.002819 0.000001
# 3 -0.000248 -0.001184 0.009833 0.000005 -0.002970 -0.000002
# 4 0.000001 -0.000001 0.000005 0.053520 -0.000008 0.007942
# 5 -0.012354 0.002819 -0.002970 -0.000008 0.031618 0.000000
# 6 0.000004 0.000001 -0.000002 0.007942 0.000000 0.048288
#
#
# Mechanical properties :
#
#
# Convention : Reuss Voigt Hill
#
# Bulk Modulus (GPa) = 30.73644 39.35064 35.04354
# Shear Modulus (GPa) = 26.24416 34.15512 30.19964
#
# Velocity S-wave (km/s) = 3.46699 3.95516 3.71909
# Velocity P-wave (km/s) = 5.48672 6.23542 5.87302
#
# Compressibility (1/GPa) = 0.03253467
#
# Stress axis : x y z
#
# Youngs Moduli (GPa) = 47.77913 115.89275 101.70056
#
# Poissons Ratio (x) = 0.23139 0.02521
# Poissons Ratio (y) = 0.09539 0.12039
# Poissons Ratio (z) = 0.01184 0.13719
#
# Static dielectric constant tensor:
#      x y z
#    x 1.923650 0.000010 0.154500 
#    y 0.000010 1.791330 0.000010 
#    z 0.154500 0.000010 1.918540 
# 
# From -- ./inp_files/155364.got.cif
#   From: 2010.05.17/outbox.cif.g08.bks.cpg/sg15_78_cif.got.tgz:155364.got - 2010.06.03 18:47:42.
