data_PCOD9304920
_publ_section_title
;
Structure prediction by ZEFSAII (Michael W. Deem and Ramdas Pophale) SiO2 
 PCOD9304920
Probable space group: C 2/C
;
_chemical_formula_sum "Si O2"
_cell_formula_units_Z 60
_cell_length_a 27.731675
_cell_length_b 8.173613
_cell_length_c 22.777237
_cell_angle_alpha 90.000000
_cell_angle_beta 150.399346
_cell_angle_gamma 90.000000
_cell_volume 2550.209026
_symmetry_space_group_name_H-M "C 2/C"
_symmetry_group_IT_number 15
_symmetry_cell_setting 'monoclinic'
loop_
_space_group_symop_operation_xyz
x,y,z
-x,y,1/2-z
-x,-y,-z
x,-y,1/2+z
1/2+x,1/2+y,z
1/2-x,1/2+y,1/2-z
1/2-x,1/2-y,-z
1/2+x,1/2-y,1/2+z
loop_
_atom_site_type_symbol
_atom_site_label
_atom_site_fract_x
_atom_site_fract_y
_atom_site_fract_z
Si Si1 0.000000 0.286711 0.250000
Si Si2 0.724644 0.544861 0.863045
Si Si3 0.040604 0.291840 0.083895
Si Si4 0.039742 0.762328 0.195148
Si Si5 0.222512 0.342744 0.355859
Si Si6 0.945005 0.086390 0.077101
Si Si7 0.338776 0.051093 0.098479
Si Si8 0.407658 0.076751 0.976017
O O1 0.992407 0.184354 0.182153
O O2 0.906069 0.401428 0.148790
O O3 0.627626 0.651692 0.752049
O O4 0.710091 0.350142 0.857998
O O5 0.772113 0.603593 0.974297
O O6 0.801479 0.565522 0.891632
O O7 0.134328 0.369335 0.216757
O O8 0.005057 0.135072 0.082438
O O9 0.946356 0.411189 0.986977
O O10 0.075931 0.280476 0.054385
O O11 0.091244 0.697289 0.307608
O O12 0.985883 0.608369 0.109989
O O13 0.957536 0.900031 0.109654
O O14 0.332447 0.365864 0.449398
O O15 0.213029 0.469825 0.399737
#
# Coordination Sequence:
#
# PCOD9304920 Si02
#       8
#     4   8   8   8   8   8   8   8
#     4  12  22  44  74  94 146 192 232 278 358 432
#     4  12  25  46  70 108 141 187 240 287 359 433
#     4  11  23  51  72  98 140 192 244 292 355 425
#     4  12  27  45  68 109 151 175 236 298 366 417
#     4  12  24  46  73 104 138 189 242 290 351 435
#     4  12  26  42  72 107 140 189 242 290 356 437
#     4  12  24  44  71 104 148 188 224 294 361 431
#     4  11  26  47  74  97 143 193 235 302 358 416
#
# _framework density 23.527484000000001
#
# number of rings (size 3 to 8) (size 9 to 14) (size 15 to 20)
#    0.000    0.267    6.667    1.600    3.733    3.200 
#    2.400    0.000    0.000    0.000    0.000    0.000 
#    0.000    0.000    0.000    0.000    0.000    0.000 
#
# Total GULP energy -167802.978297 kJ/mol
# GULP energy per Si atom -5593.432610 kJ/mol
# Density = 2.347393 g / cm^3
# Si number density = 23.527484 Si / 1000 Ang^3
#
#
#
# Elastic Constant Matrix: (Units=GPa)
#
#
# Indices 1 2 3 4 5 6 
#
# 1 82.6667 1.0949 23.6177 0.0000 8.1856 0.0000
# 2 1.0949 53.2501 -15.9073 0.0000 6.5830 0.0000
# 3 23.6177 -15.9073 50.3127 0.0000 23.1062 0.0000
# 4 0.0000 0.0000 0.0000 35.8763 0.0000 13.9250
# 5 8.1856 6.5830 23.1062 0.0000 34.1628 0.0000
# 6 0.0000 0.0000 0.0000 13.9250 0.0000 -11.3359
#
#
#
# Elastic Compliance Matrix: (Units=1/GPa)
#
#
# Indices 1 2 3 4 5 6 
#
# 1 0.014553 -0.003683 -0.009748 0.000000 0.003816 0.000000
# 2 -0.003683 0.025913 0.017131 0.000000 -0.015697 0.000000
# 3 -0.009748 0.017131 0.043969 0.000000 -0.030704 0.000000
# 4 0.000000 0.000000 0.000000 0.018874 0.000000 0.023185
# 5 0.003816 -0.015697 -0.030704 0.000000 0.052149 0.000000
# 6 0.000000 0.000000 0.000000 0.023185 0.000000 -0.059734
#
#
# Mechanical properties :
#
#
# Convention : Reuss Voigt Hill
#
# Bulk Modulus (GPa) = 10.88928 22.64891 16.76910
# Shear Modulus (GPa) = 42.03937 23.56892 32.80414
#
# Velocity S-wave (km/s) = 4.23166 3.16849 3.73807
# Velocity P-wave (km/s) = 5.33988 4.79930 5.07679
#
# Compressibility (1/GPa) = 0.09183344
#
# Stress axis : x y z
#
# Youngs Moduli (GPa) = 68.71534 38.59049 22.74336
#
# Poissons Ratio (x) = 0.14213 0.22171
# Poissons Ratio (y) = 0.25309 -0.38962
# Poissons Ratio (z) = 0.66987 -0.66109
#
# Static dielectric constant tensor:
#      x y z
#    x 1.925560 0.000000 0.003080 
#    y 0.000000 1.900630 0.000000 
#    z 0.003080 0.000000 1.866640 
# 
# From -- ./inp_files/283413.got.cif
#   From: 2010.05.17/outbox.cif.g08.bks.cpg/sg15_142_cif.got.tgz:283413.got - 2010.06.03 18:47:42.
