data_PCOD9304044
_publ_section_title
;
Structure prediction by ZEFSAII (Michael W. Deem and Ramdas Pophale) SiO2 
 PCOD9304044
Probable space group: C 2/C
;
_chemical_formula_sum "Si O2"
_cell_formula_units_Z 48
_cell_length_a 18.469009
_cell_length_b 8.317009
_cell_length_c 25.157604
_cell_angle_alpha 90.000000
_cell_angle_beta 32.802430
_cell_angle_gamma 90.000000
_cell_volume 2093.505174
_symmetry_space_group_name_H-M "C 2/C"
_symmetry_group_IT_number 15
_symmetry_cell_setting 'monoclinic'
loop_
_space_group_symop_operation_xyz
x,y,z
-x,y,1/2-z
-x,-y,-z
x,-y,1/2+z
1/2+x,1/2+y,z
1/2-x,1/2+y,1/2-z
1/2-x,1/2-y,-z
1/2+x,1/2-y,1/2+z
loop_
_atom_site_type_symbol
_atom_site_label
_atom_site_fract_x
_atom_site_fract_y
_atom_site_fract_z
Si Si1 0.737431 0.457012 0.561441
Si Si2 0.467442 0.847534 0.877891
Si Si3 0.860039 0.124263 0.778813
Si Si4 0.145858 0.131126 0.005701
Si Si5 0.602249 0.591978 0.858512
Si Si6 0.303009 0.016508 0.321957
O O1 0.823115 0.602741 0.484469
O O2 0.660657 0.503113 0.661627
O O3 0.845347 0.319585 0.510239
O O4 0.651665 0.389796 0.565551
O O5 0.490135 0.699228 0.822522
O O6 0.544573 0.769968 0.881107
O O7 0.552347 0.986377 0.795938
O O8 0.825457 0.053226 0.742421
O O9 0.778048 0.290230 0.838532
O O10 0.020593 0.031946 0.061116
O O11 0.276697 0.054308 0.896234
O O12 0.699979 0.572384 0.846933
#
# Coordination Sequence:
#
# PCOD9304044 Si02
#       6
#     8   8   8   8   8   8
#     4  11  23  42  55  96 122 159 212 239 331 349
#     4   8  22  39  64  87 118 166 203 256 297 372
#     4   8  22  39  64  87 118 166 203 256 297 372
#     4  11  24  36  64  86 130 157 194 270 297 372
#     4   9  20  41  60  91 119 162 204 252 305 358
#     4   9  20  41  60  91 119 162 204 252 305 358
#
# _framework density 22.928052000000001
#
# number of rings (size 3 to 8) (size 9 to 14) (size 15 to 20)
#    2.000    0.333    0.000    1.500    0.000   10.667 
#    6.000    5.833    0.000    0.000    0.000    0.000 
#    0.000    0.000    0.000    0.000    0.000    0.000 
#
# Total GULP energy -133732.486268 kJ/mol
# GULP energy per Si atom -5572.186928 kJ/mol
# Density = 2.287587 g / cm^3
# Si number density = 22.928052 Si / 1000 Ang^3
#
#
#
# Elastic Constant Matrix: (Units=GPa)
#
#
# Indices 1 2 3 4 5 6 
#
# 1 49.9857 2.4790 10.7197 0.0000 14.2882 -0.0007
# 2 2.4790 57.7336 32.4797 0.0001 10.3662 -0.0014
# 3 10.7197 32.4797 92.2440 0.0000 24.3649 0.0002
# 4 0.0000 0.0001 0.0000 34.2920 0.0002 11.0033
# 5 14.2882 10.3662 24.3649 0.0002 27.5355 0.0005
# 6 -0.0007 -0.0014 0.0002 11.0033 0.0005 21.6053
#
#
#
# Elastic Compliance Matrix: (Units=1/GPa)
#
#
# Indices 1 2 3 4 5 6 
#
# 1 0.023581 0.001158 0.000260 0.000000 -0.012902 0.000001
# 2 0.001158 0.021727 -0.007133 -0.000001 -0.002469 0.000002
# 3 0.000260 -0.007133 0.016506 0.000000 -0.012055 0.000000
# 4 0.000000 -0.000001 0.000000 0.034858 0.000000 -0.017752
# 5 -0.012902 -0.002469 -0.012055 0.000000 0.054608 -0.000002
# 6 0.000001 0.000002 0.000000 -0.017752 -0.000002 0.055326
#
#
# Mechanical properties :
#
#
# Convention : Reuss Voigt Hill
#
# Bulk Modulus (GPa) = 19.84757 32.36891 26.10824
# Shear Modulus (GPa) = 21.29196 26.97222 24.13209
#
# Velocity S-wave (km/s) = 3.05067 3.43357 3.24777
# Velocity P-wave (km/s) = 4.59173 5.46511 5.04735
#
# Compressibility (1/GPa) = 0.05038401
#
# Stress axis : x y z
#
# Youngs Moduli (GPa) = 42.40791 46.02517 60.58284
#
# Poissons Ratio (x) = -0.05329 -0.01574
# Poissons Ratio (y) = -0.04910 0.43212
# Poissons Ratio (z) = -0.01102 0.32828
#
# Static dielectric constant tensor:
#      x y z
#    x 1.857410 0.000000 -0.005630 
#    y 0.000000 1.897320 0.000000 
#    z -0.005630 0.000000 1.895320 
# 
# From -- ./inp_files/301875.got.cif
#   From: 2010.05.17/outbox.cif.g08.bks.cpg/sg15_151_cif.got.tgz:301875.got - 2010.06.03 18:47:42.
