data_PCOD9304404
_publ_section_title
;
Structure prediction by ZEFSAII (Michael W. Deem and Ramdas Pophale) SiO2 
 PCOD9304404
Probable space group: C 2/C
;
_chemical_formula_sum "Si O2"
_cell_formula_units_Z 56
_cell_length_a 30.433611
_cell_length_b 12.170013
_cell_length_c 15.633459
_cell_angle_alpha 90.000000
_cell_angle_beta 27.237075
_cell_angle_gamma 90.000000
_cell_volume 2650.057127
_symmetry_space_group_name_H-M "C 2/C"
_symmetry_group_IT_number 15
_symmetry_cell_setting 'monoclinic'
loop_
_space_group_symop_operation_xyz
x,y,z
-x,y,1/2-z
-x,-y,-z
x,-y,1/2+z
1/2+x,1/2+y,z
1/2-x,1/2+y,1/2-z
1/2-x,1/2-y,-z
1/2+x,1/2-y,1/2+z
loop_
_atom_site_type_symbol
_atom_site_label
_atom_site_fract_x
_atom_site_fract_y
_atom_site_fract_z
Si Si1 0.067466 0.686850 0.711759
Si Si2 0.923979 0.910265 0.160839
Si Si3 0.251647 0.678823 0.655138
Si Si4 0.241486 0.794926 0.158186
Si Si5 0.104738 0.450701 0.691677
Si Si6 0.038076 0.695670 0.962064
Si Si7 0.256961 0.454350 0.572292
O O1 0.162424 0.761680 0.543932
O O2 0.089734 0.557623 0.660119
O O3 0.024622 0.689938 0.882269
O O4 0.000000 0.723323 0.750000
O O5 0.847623 0.867428 0.222025
O O6 0.858609 0.957137 0.349194
O O7 0.981602 0.803288 0.089811
O O8 0.000000 0.000000 0.000000
O O9 0.257210 0.715278 0.743035
O O10 0.149451 0.707596 0.791127
O O11 0.258717 0.546291 0.641300
O O12 0.235755 0.671828 0.131323
O O13 0.337285 0.855716 0.958319
O O14 0.175377 0.488126 0.645833
O O15 0.009842 0.403891 0.901885
#
# Coordination Sequence:
#
# PCOD9304404 Si02
#       7
#     8   8   8   8   8   8   8
#     4  12  28  45  72 103 145 180 238 292 357 419
#     4  11  23  43  75  98 138 188 236 289 359 419
#     4  12  29  42  72 106 145 181 234 299 352 415
#     4  11  25  46  70 104 144 188 241 285 360 422
#     4  11  24  44  74 103 136 188 235 290 350 429
#     4  12  24  45  68 106 136 184 237 283 355 419
#     4  11  23  49  69  98 143 187 231 292 356 426
#
# _framework density 21.131620999999999
#
# number of rings (size 3 to 8) (size 9 to 14) (size 15 to 20)
#    0.000    0.571    4.286    3.429    8.000    0.000 
#    0.000    1.429    0.000    0.000    0.000    0.000 
#    0.000    0.000    0.000    0.000    0.000    0.000 
#
# Total GULP energy -156611.425108 kJ/mol
# GULP energy per Si atom -5593.265182 kJ/mol
# Density = 2.108352 g / cm^3
# Si number density = 21.131621 Si / 1000 Ang^3
#
#
#
# Elastic Constant Matrix: (Units=GPa)
#
#
# Indices 1 2 3 4 5 6 
#
# 1 44.0006 2.4165 26.2880 0.0000 -6.1026 0.0000
# 2 2.4165 48.5417 21.6734 0.0000 -16.2887 0.0000
# 3 26.2880 21.6734 93.4854 0.0000 -19.1810 0.0000
# 4 0.0000 0.0000 0.0000 28.8469 0.0000 0.6420
# 5 -6.1026 -16.2887 -19.1810 0.0000 31.7281 0.0000
# 6 0.0000 0.0000 0.0000 0.6420 0.0000 28.4494
#
#
#
# Elastic Compliance Matrix: (Units=1/GPa)
#
#
# Indices 1 2 3 4 5 6 
#
# 1 0.027641 0.002860 -0.008041 0.000000 0.001923 0.000000
# 2 0.002860 0.026289 -0.004586 0.000000 0.011274 0.000000
# 3 -0.008041 -0.004586 0.015093 0.000000 0.005223 0.000000
# 4 0.000000 0.000000 0.000000 0.034683 0.000000 -0.000783
# 5 0.001923 0.011274 0.005223 0.000000 0.040834 0.000000
# 6 0.000000 0.000000 0.000000 -0.000783 0.000000 0.035168
#
#
# Mechanical properties :
#
#
# Convention : Reuss Voigt Hill
#
# Bulk Modulus (GPa) = 20.20664 31.86484 26.03574
# Shear Modulus (GPa) = 23.17633 26.84819 25.01226
#
# Velocity S-wave (km/s) = 3.31533 3.56831 3.44414
# Velocity P-wave (km/s) = 4.92324 5.66472 5.30694
#
# Compressibility (1/GPa) = 0.04948867
#
# Stress axis : x y z
#
# Youngs Moduli (GPa) = 36.17858 38.03851 66.25678
#
# Poissons Ratio (x) = -0.10877 0.53276
# Poissons Ratio (y) = -0.10346 0.30383
# Poissons Ratio (z) = 0.29091 0.17443
#
# Static dielectric constant tensor:
#      x y z
#    x 1.740870 0.000000 0.006250 
#    y 0.000000 1.770880 0.000000 
#    z 0.006250 0.000000 1.766520 
# 
# From -- ./inp_files/181920.got.cif
#   From: 2010.05.17/outbox.cif.g08.bks.cpg/sg15_91_cif.got.tgz:181920.got - 2010.06.03 18:47:42.
