data_PCOD9304438
_publ_section_title
;
Structure prediction by ZEFSAII (Michael W. Deem and Ramdas Pophale) SiO2 
 PCOD9304438
Probable space group: C 2/C
;
_chemical_formula_sum "Si O2"
_cell_formula_units_Z 32
_cell_length_a 11.361198
_cell_length_b 16.535331
_cell_length_c 9.757179
_cell_angle_alpha 90.000000
_cell_angle_beta 61.673457
_cell_angle_gamma 90.000000
_cell_volume 1613.507888
_symmetry_space_group_name_H-M "C 2/C"
_symmetry_group_IT_number 15
_symmetry_cell_setting 'monoclinic'
loop_
_space_group_symop_operation_xyz
x,y,z
-x,y,1/2-z
-x,-y,-z
x,-y,1/2+z
1/2+x,1/2+y,z
1/2-x,1/2+y,1/2-z
1/2-x,1/2-y,-z
1/2+x,1/2-y,1/2+z
loop_
_atom_site_type_symbol
_atom_site_label
_atom_site_fract_x
_atom_site_fract_y
_atom_site_fract_z
Si Si1 0.285710 0.482341 0.156411
Si Si2 0.909106 0.263462 0.930542
Si Si3 0.116405 0.549555 0.008202
Si Si4 0.508462 0.371680 0.906758
O O1 0.236924 0.452972 0.331469
O O2 0.377290 0.561590 0.125939
O O3 0.166895 0.508744 0.120417
O O4 0.372978 0.412790 0.036795
O O5 0.000000 0.239230 0.750000
O O6 0.750000 0.250000 0.000000
O O7 0.927665 0.358751 0.943667
O O8 0.957230 0.209129 0.030265
O O9 0.000000 0.500000 0.000000
O O10 0.500000 0.357765 0.750000
#
# Coordination Sequence:
#
# PCOD9304438 Si02
#       4
#     8   8   8   8
#     4  11  23  44  68 101 135 180 233 275 341 412
#     4  12  26  46  71 103 141 185 229 284 351 413
#     4  12  25  44  69 100 141 182 224 280 352 412
#     4  11  24  42  72 101 133 177 234 288 329 407
#
# _framework density 19.832566
#
# number of rings (size 3 to 8) (size 9 to 14) (size 15 to 20)
#    0.000    0.500    5.000    3.750    0.000    2.000 
#    0.000    3.750    0.000    0.000    0.000    0.000 
#    0.000    0.000    0.000    0.000    0.000    0.000 
#
# Total GULP energy -89543.745678 kJ/mol
# GULP energy per Si atom -5596.484105 kJ/mol
# Density = 1.978743 g / cm^3
# Si number density = 19.832566 Si / 1000 Ang^3
#
#
#
# Elastic Constant Matrix: (Units=GPa)
#
#
# Indices 1 2 3 4 5 6 
#
# 1 97.8773 45.3510 16.0373 0.0000 15.1861 0.0000
# 2 45.3510 97.9862 12.6136 0.0000 16.3051 0.0000
# 3 16.0373 12.6136 114.6104 0.0000 4.2225 0.0000
# 4 0.0000 0.0000 0.0000 35.1313 0.0000 11.0320
# 5 15.1861 16.3051 4.2225 0.0000 39.1186 0.0000
# 6 0.0000 0.0000 0.0000 11.0320 0.0000 23.8363
#
#
#
# Elastic Compliance Matrix: (Units=1/GPa)
#
#
# Indices 1 2 3 4 5 6 
#
# 1 0.013433 -0.005610 -0.001161 0.000000 -0.002751 0.000000
# 2 -0.005610 0.013435 -0.000570 0.000000 -0.003360 0.000000
# 3 -0.001161 -0.000570 0.008961 0.000000 -0.000279 0.000000
# 4 0.000000 0.000000 0.000000 0.033305 0.000000 -0.015414
# 5 -0.002751 -0.003360 -0.000279 0.000000 0.028062 0.000000
# 6 0.000000 0.000000 0.000000 -0.015414 0.000000 0.049087
#
#
# Mechanical properties :
#
#
# Convention : Reuss Voigt Hill
#
# Bulk Modulus (GPa) = 47.28801 50.94196 49.11499
# Shear Modulus (GPa) = 29.75954 35.38205 32.57079
#
# Velocity S-wave (km/s) = 3.87788 4.22837 4.05691
# Velocity P-wave (km/s) = 6.62918 7.04135 6.83837
#
# Compressibility (1/GPa) = 0.02114701
#
# Stress axis : x y z
#
# Youngs Moduli (GPa) = 74.44138 74.43494 111.59914
#
# Poissons Ratio (x) = 0.41759 0.12956
# Poissons Ratio (y) = 0.41763 0.06358
# Poissons Ratio (z) = 0.08642 0.04241
#
# Static dielectric constant tensor:
#      x y z
#    x 1.685200 0.000000 -0.034520 
#    y 0.000000 1.636720 0.000000 
#    z -0.034520 0.000000 1.691680 
# 
# From -- ./inp_files/27842.got.cif
#   From: 2010.05.17/outbox.cif.g08.bks.cpg/sg15_14_cif.got.tgz:27842.got - 2010.06.03 18:47:42.
