data_PCOD9304959
_publ_section_title
;
Structure prediction by ZEFSAII (Michael W. Deem and Ramdas Pophale) SiO2 
 PCOD9304959
Probable space group: C 2/C
;
_chemical_formula_sum "Si O2"
_cell_formula_units_Z 32
_cell_length_a 26.113672
_cell_length_b 9.376251
_cell_length_c 14.779264
_cell_angle_alpha 90.000000
_cell_angle_beta 20.104013
_cell_angle_gamma 90.000000
_cell_volume 1243.831894
_symmetry_space_group_name_H-M "C 2/C"
_symmetry_group_IT_number 15
_symmetry_cell_setting 'monoclinic'
loop_
_space_group_symop_operation_xyz
x,y,z
-x,y,1/2-z
-x,-y,-z
x,-y,1/2+z
1/2+x,1/2+y,z
1/2-x,1/2+y,1/2-z
1/2-x,1/2-y,-z
1/2+x,1/2-y,1/2+z
loop_
_atom_site_type_symbol
_atom_site_label
_atom_site_fract_x
_atom_site_fract_y
_atom_site_fract_z
Si Si1 0.892033 0.418936 0.287271
Si Si2 0.430447 0.654466 0.450122
Si Si3 0.136590 0.874672 0.225857
Si Si4 0.904740 0.678529 0.557820
O O1 0.725109 0.478815 0.567194
O O2 0.907719 0.371847 0.157211
O O3 0.949778 0.283678 0.245181
O O4 0.996530 0.549945 0.146567
O O5 0.406674 0.624355 0.596697
O O6 0.259462 0.687177 0.707577
O O7 0.500000 0.564591 0.250000
O O8 0.990087 0.828943 0.413490
O O9 0.250000 0.750000 0.000000
#
# Coordination Sequence:
#
# PCOD9304959 Si02
#       4
#     8   8   8   8
#     4   9  20  41  69  93 134 179 214 278 337 383
#     4  11  24  39  64 104 137 167 226 280 321 403
#     4   9  20  41  68  97 132 179 222 269 332 400
#     4   9  20  42  65  99 136 169 228 272 324 403
#
# _framework density 25.726946999999999
#
# number of rings (size 3 to 8) (size 9 to 14) (size 15 to 20)
#    0.000    2.500    0.000    1.500    3.500    7.000 
#    4.500    2.500    0.000    0.000    0.000    0.000 
#    0.000    0.000    0.000    0.000    0.000    0.000 
#
# Total GULP energy -89269.442233 kJ/mol
# GULP energy per Si atom -5579.340140 kJ/mol
# Density = 2.566839 g / cm^3
# Si number density = 25.726947 Si / 1000 Ang^3
#
#
#
# Elastic Constant Matrix: (Units=GPa)
#
#
# Indices 1 2 3 4 5 6 
#
# 1 89.1010 37.5188 21.1026 0.0000 6.4588 0.0000
# 2 37.5188 105.4225 49.9397 0.0000 0.9879 0.0000
# 3 21.1026 49.9397 117.9082 0.0000 -1.3588 0.0000
# 4 0.0000 0.0000 0.0000 48.6781 0.0000 3.3351
# 5 6.4588 0.9879 -1.3588 0.0000 66.6227 0.0000
# 6 0.0000 0.0000 0.0000 3.3351 0.0000 18.0693
#
#
#
# Elastic Compliance Matrix: (Units=1/GPa)
#
#
# Indices 1 2 3 4 5 6 
#
# 1 0.013323 -0.004496 -0.000495 0.000000 -0.001235 0.000000
# 2 -0.004496 0.013389 -0.004865 0.000000 0.000138 0.000000
# 3 -0.000495 -0.004865 0.010634 0.000000 0.000337 0.000000
# 4 0.000000 0.000000 0.000000 0.020806 0.000000 -0.003840
# 5 -0.001235 0.000138 0.000337 0.000000 0.015134 0.000000
# 6 0.000000 0.000000 0.000000 -0.003840 0.000000 0.056051
#
#
# Mechanical properties :
#
#
# Convention : Reuss Voigt Hill
#
# Bulk Modulus (GPa) = 56.70216 58.83932 57.77074
# Shear Modulus (GPa) = 32.27356 40.26540 36.26948
#
# Velocity S-wave (km/s) = 3.54569 3.96043 3.75878
# Velocity P-wave (km/s) = 6.23300 6.62070 6.42978
#
# Compressibility (1/GPa) = 0.01763601
#
# Stress axis : x y z
#
# Youngs Moduli (GPa) = 75.05871 74.69000 94.03858
#
# Poissons Ratio (x) = 0.33578 0.04651
# Poissons Ratio (y) = 0.33744 0.45745
# Poissons Ratio (z) = 0.03712 0.36333
#
# Static dielectric constant tensor:
#      x y z
#    x 2.058340 0.000000 0.015530 
#    y 0.000000 2.116970 0.000000 
#    z 0.015530 0.000000 2.080670 
# 
# From -- ./inp_files/177461.got.cif
#   From: 2010.05.17/outbox.cif.g08.bks.cpg/sg15_89_cif.got.tgz:177461.got - 2010.06.03 18:47:42.
