data_PCOD9304836
_publ_section_title
;
Structure prediction by ZEFSAII (Michael W. Deem and Ramdas Pophale) SiO2 
 PCOD9304836
Probable space group: C 2/C
;
_chemical_formula_sum "Si O2"
_cell_formula_units_Z 56
_cell_length_a 13.349350
_cell_length_b 14.001375
_cell_length_c 19.819001
_cell_angle_alpha 90.000000
_cell_angle_beta 137.019896
_cell_angle_gamma 90.000000
_cell_volume 2525.422922
_symmetry_space_group_name_H-M "C 2/C"
_symmetry_group_IT_number 15
_symmetry_cell_setting 'monoclinic'
loop_
_space_group_symop_operation_xyz
x,y,z
-x,y,1/2-z
-x,-y,-z
x,-y,1/2+z
1/2+x,1/2+y,z
1/2-x,1/2+y,1/2-z
1/2-x,1/2-y,-z
1/2+x,1/2-y,1/2+z
loop_
_atom_site_type_symbol
_atom_site_label
_atom_site_fract_x
_atom_site_fract_y
_atom_site_fract_z
Si Si1 0.398757 0.783256 0.897685
Si Si2 0.587381 0.130013 0.961110
Si Si3 0.335510 0.015191 0.304484
Si Si4 0.675394 0.493030 0.582761
Si Si5 0.353981 0.340808 0.040978
Si Si6 0.158642 0.000611 0.350673
Si Si7 0.154593 0.680177 0.859116
O O1 0.377816 0.875514 0.841162
O O2 0.488019 0.700852 0.904178
O O3 0.244740 0.747340 0.852950
O O4 0.480428 0.820482 0.005823
O O5 0.615884 0.207129 0.916813
O O6 0.479504 0.050512 0.877412
O O7 0.733432 0.075392 0.058997
O O8 0.246902 0.012129 0.191638
O O9 0.239129 0.978313 0.319956
O O10 0.500000 0.500000 0.500000
O O11 0.708798 0.403880 0.551376
O O12 0.742903 0.587678 0.583456
O O13 0.361745 0.410054 0.109851
O O14 0.250000 0.250000 0.000000
O O15 0.000000 0.040306 0.250000
O O16 0.000000 0.656264 0.750000
#
# Coordination Sequence:
#
# PCOD9304836 Si02
#       7
#     8   8   8   8   8   8   8
#     4  11  26  43  68 109 142 182 240 298 360 425
#     4  11  23  47  71  98 140 189 236 287 359 430
#     4  11  25  47  73  99 141 189 236 292 363 431
#     4  12  25  48  72 101 145 192 239 297 369 432
#     4  12  25  44  72 105 142 183 241 297 358 425
#     4  11  24  41  71 100 134 180 233 283 354 421
#     4  12  25  44  74 105 143 189 244 294 364 437
#
# _framework density 22.174503000000001
#
# number of rings (size 3 to 8) (size 9 to 14) (size 15 to 20)
#    0.000    0.571    4.286    4.714    0.000    4.571 
#    0.000    0.000    0.000    0.000    0.000    0.000 
#    0.000    0.000    0.000    0.000    0.000    0.000 
#
# Total GULP energy -156618.630118 kJ/mol
# GULP energy per Si atom -5593.522504 kJ/mol
# Density = 2.212403 g / cm^3
# Si number density = 22.174503 Si / 1000 Ang^3
#
#
#
# Elastic Constant Matrix: (Units=GPa)
#
#
# Indices 1 2 3 4 5 6 
#
# 1 81.9991 33.7723 47.5658 0.0000 -10.7983 0.0000
# 2 33.7723 71.8847 10.9140 0.0000 4.0074 0.0000
# 3 47.5658 10.9140 130.6466 0.0000 -2.3389 0.0000
# 4 0.0000 0.0000 0.0000 -17.2518 0.0000 12.3165
# 5 -10.7983 4.0074 -2.3389 0.0000 50.7012 0.0000
# 6 0.0000 0.0000 0.0000 12.3165 0.0000 50.7635
#
#
#
# Elastic Compliance Matrix: (Units=1/GPa)
#
#
# Indices 1 2 3 4 5 6 
#
# 1 0.020223 -0.008769 -0.006546 0.000000 0.004698 0.000000
# 2 -0.008769 0.017962 0.001635 0.000000 -0.003212 0.000000
# 3 -0.006546 0.001635 0.009882 0.000000 -0.001068 0.000000
# 4 0.000000 0.000000 0.000000 -0.049407 0.000000 0.011987
# 5 0.004698 -0.003212 -0.001068 0.000000 0.020929 0.000000
# 6 0.000000 0.000000 0.000000 0.011987 0.000000 0.016791
#
#
# Mechanical properties :
#
#
# Convention : Reuss Voigt Hill
#
# Bulk Modulus (GPa) = 48.29606 52.11497 50.20551
# Shear Modulus (GPa) = 70.77985 29.66113 50.22049
#
# Velocity S-wave (km/s) = 5.65586 3.66132 4.76414
# Velocity P-wave (km/s) = 8.02988 6.43637 7.27688
#
# Compressibility (1/GPa) = 0.02070562
#
# Stress axis : x y z
#
# Youngs Moduli (GPa) = 49.44924 55.67369 101.19554
#
# Poissons Ratio (x) = 0.48820 0.66243
# Poissons Ratio (y) = 0.43362 -0.16541
# Poissons Ratio (z) = 0.32370 -0.09100
#
# Static dielectric constant tensor:
#      x y z
#    x 1.873000 0.000000 0.000530 
#    y 0.000000 1.824340 0.000000 
#    z 0.000530 0.000000 1.798860 
# 
# From -- ./inp_files/244576.got.cif
#   From: 2010.05.17/outbox.cif.g08.bks.cpg/sg15_123_cif.got.tgz:244576.got - 2010.06.03 18:47:42.
