data_PCOD9304770
_publ_section_title
;
Structure prediction by ZEFSAII (Michael W. Deem and Ramdas Pophale) SiO2 
 PCOD9304770
Probable space group: C 2/C
;
_chemical_formula_sum "Si O2"
_cell_formula_units_Z 32
_cell_length_a 12.432644
_cell_length_b 7.323752
_cell_length_c 21.996318
_cell_angle_alpha 90.000000
_cell_angle_beta 145.212150
_cell_angle_gamma 90.000000
_cell_volume 1142.701445
_symmetry_space_group_name_H-M "C 2/C"
_symmetry_group_IT_number 15
_symmetry_cell_setting 'monoclinic'
loop_
_space_group_symop_operation_xyz
x,y,z
-x,y,1/2-z
-x,-y,-z
x,-y,1/2+z
1/2+x,1/2+y,z
1/2-x,1/2+y,1/2-z
1/2-x,1/2-y,-z
1/2+x,1/2-y,1/2+z
loop_
_atom_site_type_symbol
_atom_site_label
_atom_site_fract_x
_atom_site_fract_y
_atom_site_fract_z
Si Si1 0.421751 0.778215 0.145520
Si Si2 0.073220 0.121229 0.898761
Si Si3 0.910221 0.221412 0.939994
Si Si4 0.306331 0.115901 0.838690
O O1 0.500000 0.787022 0.250000
O O2 0.220147 0.862227 0.068026
O O3 0.821883 0.596587 0.366115
O O4 0.556945 0.857730 0.156640
O O5 0.905261 0.183125 0.774301
O O6 0.250000 0.250000 0.000000
O O7 0.131206 0.928077 0.898045
O O8 0.947719 0.094190 0.900779
O O9 0.100894 0.283292 0.061292
#
# Coordination Sequence:
#
# PCOD9304770 Si02
#       4
#     8   8   8   8
#     4  12  24  46  74 103 147 186 238 299 356 427
#     4  12  25  41  72 108 142 192 237 293 362 424
#     4  11  25  46  74 100 144 189 236 305 348 423
#     4  11  23  46  73 104 142 191 242 290 364 423
#
# _framework density 28.003816
#
# number of rings (size 3 to 8) (size 9 to 14) (size 15 to 20)
#    0.000    0.500    5.000    3.750    0.000    1.000 
#    0.000    3.750    0.000    0.000    0.000    0.000 
#    0.000    0.000    0.000    0.000    0.000    0.000 
#
# Total GULP energy -89589.994881 kJ/mol
# GULP energy per Si atom -5599.374680 kJ/mol
# Density = 2.794008 g / cm^3
# Si number density = 28.003816 Si / 1000 Ang^3
#
#
#
# Elastic Constant Matrix: (Units=GPa)
#
#
# Indices 1 2 3 4 5 6 
#
# 1 194.6528 17.1015 22.9938 0.0000 -20.5583 0.0000
# 2 17.1015 68.3691 11.6621 0.0000 4.9743 0.0000
# 3 22.9938 11.6621 210.1111 0.0000 12.3531 0.0000
# 4 0.0000 0.0000 0.0000 45.6091 0.0000 6.7758
# 5 -20.5583 4.9743 12.3531 0.0000 49.0361 0.0000
# 6 0.0000 0.0000 0.0000 6.7758 0.0000 34.7162
#
#
#
# Elastic Compliance Matrix: (Units=1/GPa)
#
#
# Indices 1 2 3 4 5 6 
#
# 1 0.005633 -0.001487 -0.000692 0.000000 0.002687 0.000000
# 2 -0.001487 0.015242 -0.000564 0.000000 -0.002027 0.000000
# 3 -0.000692 -0.000564 0.004953 0.000000 -0.001481 0.000000
# 4 0.000000 0.000000 0.000000 0.022580 0.000000 -0.004407
# 5 0.002687 -0.002027 -0.001481 0.000000 0.022098 0.000000
# 6 0.000000 0.000000 0.000000 -0.004407 0.000000 0.029665
#
#
# Mechanical properties :
#
#
# Convention : Reuss Voigt Hill
#
# Bulk Modulus (GPa) = 49.15537 64.07201 56.61369
# Shear Modulus (GPa) = 44.46844 53.96398 49.21621
#
# Velocity S-wave (km/s) = 3.98922 4.39455 4.19678
# Velocity P-wave (km/s) = 6.22975 6.97702 6.61395
#
# Compressibility (1/GPa) = 0.02034366
#
# Stress axis : x y z
#
# Youngs Moduli (GPa) = 177.51016 65.60788 201.87818
#
# Poissons Ratio (x) = 0.09753 0.13969
# Poissons Ratio (y) = 0.26389 0.11388
# Poissons Ratio (z) = 0.12283 0.03701
#
# Static dielectric constant tensor:
#      x y z
#    x 2.137830 0.000000 0.150220 
#    y 0.000000 2.163640 0.000000 
#    z 0.150220 0.000000 2.356310 
# 
# From -- ./inp_files/165264.got.cif
#   From: 2010.05.17/outbox.cif.g08.bks.cpg/sg15_83_cif.got.tgz:165264.got - 2010.06.03 18:47:42.
