data_PCOD9304630
_publ_section_title
;
Structure prediction by ZEFSAII (Michael W. Deem and Ramdas Pophale) SiO2 
 PCOD9304630
Probable space group: C 2/C
;
_chemical_formula_sum "Si O2"
_cell_formula_units_Z 56
_cell_length_a 19.496385
_cell_length_b 12.818214
_cell_length_c 14.259263
_cell_angle_alpha 90.000000
_cell_angle_beta 46.300789
_cell_angle_gamma 90.000000
_cell_volume 2576.338755
_symmetry_space_group_name_H-M "C 2/C"
_symmetry_group_IT_number 15
_symmetry_cell_setting 'monoclinic'
loop_
_space_group_symop_operation_xyz
x,y,z
-x,y,1/2-z
-x,-y,-z
x,-y,1/2+z
1/2+x,1/2+y,z
1/2-x,1/2+y,1/2-z
1/2-x,1/2-y,-z
1/2+x,1/2-y,1/2+z
loop_
_atom_site_type_symbol
_atom_site_label
_atom_site_fract_x
_atom_site_fract_y
_atom_site_fract_z
Si Si1 0.321153 0.042077 0.556443
Si Si2 0.142396 0.032786 0.617774
Si Si3 0.178938 0.406691 0.764901
Si Si4 0.510332 0.231101 0.504368
Si Si5 0.986885 0.949622 0.911003
Si Si6 0.148684 0.216468 0.490325
Si Si7 0.027088 0.450554 0.326366
O O1 0.246656 0.999476 0.551044
O O2 0.315373 0.165351 0.545970
O O3 0.292598 0.991098 0.682652
O O4 0.430798 0.011716 0.442849
O O5 0.107906 0.982658 0.553448
O O6 0.229696 0.148928 0.362866
O O7 0.928895 0.992519 0.734693
O O8 0.108994 0.319728 0.877137
O O9 0.113384 0.468237 0.751714
O O10 0.517736 0.326379 0.569100
O O11 0.448720 0.274750 0.476197
O O12 0.458008 0.138180 0.610032
O O13 0.133439 0.843095 0.103358
O O14 0.000000 0.000000 0.000000
O O15 0.000000 0.406702 0.250000
#
# Coordination Sequence:
#
# PCOD9304630 Si02
#       7
#     8   8   8   8   8   8   8
#     4  11  23  46  65 101 144 178 245 299 353 431
#     4  11  26  42  69 106 140 183 241 293 354 432
#     4  11  24  43  73 102 139 193 240 297 361 430
#     4  11  23  47  70 100 141 197 234 292 368 426
#     4  11  25  46  69  99 149 188 231 294 360 432
#     4  12  23  42  75 103 139 186 241 300 360 419
#     4  11  23  45  70  98 142 186 242 297 352 429
#
# _framework density 21.736272
#
# number of rings (size 3 to 8) (size 9 to 14) (size 15 to 20)
#    0.000    0.857    4.286    3.000    4.000    0.000 
#    5.143    1.429    0.000    0.000    0.000    0.000 
#    0.000    0.000    0.000    0.000    0.000    0.000 
#
# Total GULP energy -156466.103509 kJ/mol
# GULP energy per Si atom -5588.075125 kJ/mol
# Density = 2.168680 g / cm^3
# Si number density = 21.736272 Si / 1000 Ang^3
#
#
#
# Elastic Constant Matrix: (Units=GPa)
#
#
# Indices 1 2 3 4 5 6 
#
# 1 143.8079 33.5356 10.0503 0.0000 3.8023 0.0000
# 2 33.5356 115.8915 41.9392 0.0000 -10.4737 0.0000
# 3 10.0503 41.9392 77.8781 0.0000 5.4624 0.0000
# 4 0.0000 0.0000 0.0000 9.0227 0.0000 29.0432
# 5 3.8023 -10.4737 5.4624 0.0000 26.7411 0.0000
# 6 0.0000 0.0000 0.0000 29.0432 0.0000 17.0108
#
#
#
# Elastic Compliance Matrix: (Units=1/GPa)
#
#
# Indices 1 2 3 4 5 6 
#
# 1 0.007579 -0.002603 0.000579 0.000000 -0.002215 0.000000
# 2 -0.002603 0.012457 -0.006839 0.000000 0.006646 0.000000
# 3 0.000579 -0.006839 0.016884 0.000000 -0.006210 0.000000
# 4 0.000000 0.000000 0.000000 -0.024652 0.000000 0.042090
# 5 -0.002215 0.006646 -0.006210 0.000000 0.041582 0.000000
# 6 0.000000 0.000000 0.000000 0.042090 0.000000 -0.013076
#
#
# Mechanical properties :
#
#
# Convention : Reuss Voigt Hill
#
# Bulk Modulus (GPa) = 52.09650 56.51420 54.30535
# Shear Modulus (GPa) = 77.04343 27.35842 52.20092
#
# Velocity S-wave (km/s) = 5.96000 3.55160 4.90589
# Velocity P-wave (km/s) = 8.44877 6.54789 7.55832
#
# Compressibility (1/GPa) = 0.01919515
#
# Stress axis : x y z
#
# Youngs Moduli (GPa) = 131.94699 80.27299 59.22648
#
# Poissons Ratio (x) = 0.20894 -0.03429
# Poissons Ratio (y) = 0.34344 0.40505
# Poissons Ratio (z) = -0.07640 0.54898
#
# Static dielectric constant tensor:
#      x y z
#    x 1.806160 0.000000 0.015400 
#    y 0.000000 1.826970 0.000000 
#    z 0.015400 0.000000 1.818400 
# 
# From -- ./inp_files/162192.got.cif
#   From: 2010.05.17/outbox.cif.g08.bks.cpg/sg15_82_cif.got.tgz:162192.got - 2010.06.03 18:47:42.
