data_PCOD9304437
_publ_section_title
;
Structure prediction by ZEFSAII (Michael W. Deem and Ramdas Pophale) SiO2 
 PCOD9304437
Probable space group: C 2/C
;
_chemical_formula_sum "Si O2"
_cell_formula_units_Z 40
_cell_length_a 10.288810
_cell_length_b 13.765053
_cell_length_c 24.289618
_cell_angle_alpha 90.000000
_cell_angle_beta 150.355375
_cell_angle_gamma 90.000000
_cell_volume 1701.509780
_symmetry_space_group_name_H-M "C 2/C"
_symmetry_group_IT_number 15
_symmetry_cell_setting 'monoclinic'
loop_
_space_group_symop_operation_xyz
x,y,z
-x,y,1/2-z
-x,-y,-z
x,-y,1/2+z
1/2+x,1/2+y,z
1/2-x,1/2+y,1/2-z
1/2-x,1/2-y,-z
1/2+x,1/2-y,1/2+z
loop_
_atom_site_type_symbol
_atom_site_label
_atom_site_fract_x
_atom_site_fract_y
_atom_site_fract_z
Si Si1 0.883859 0.353059 0.537516
Si Si2 0.061819 0.100306 0.833368
Si Si3 0.601699 0.540796 0.480040
Si Si4 0.470540 0.168344 0.804220
Si Si5 0.085557 0.884599 0.698480
O O1 0.750000 0.250000 0.500000
O O2 0.849050 0.364542 0.459006
O O3 0.708706 0.444701 0.490386
O O4 0.144803 0.368822 0.668528
O O5 0.823629 0.143623 0.783177
O O6 0.000000 0.136406 0.750000
O O7 0.044509 0.983035 0.826915
O O8 0.500000 0.500000 0.500000
O O9 0.408588 0.594040 0.365370
O O10 0.839600 0.609373 0.585682
O O11 0.500000 0.142692 0.750000
O O12 0.546784 0.281266 0.838992
#
# Coordination Sequence:
#
# PCOD9304437 Si02
#       5
#     8   8   8   8   8
#     4  11  23  44  68 100 143 183 236 297 364 427
#     4  11  25  46  69 104 140 187 237 303 361 433
#     4  11  26  45  72 105 147 189 245 303 363 433
#     4  12  24  47  73 103 144 192 244 297 367 436
#     4  11  24  46  69 102 142 190 239 296 366 438
#
# _framework density 23.508533
#
# number of rings (size 3 to 8) (size 9 to 14) (size 15 to 20)
#    0.000    0.800    4.000    3.600    0.000    2.400 
#    3.600    0.000    0.000    0.000    0.000    0.000 
#    0.000    0.000    0.000    0.000    0.000    0.000 
#
# Total GULP energy -111666.136106 kJ/mol
# GULP energy per Si atom -5583.306805 kJ/mol
# Density = 2.345503 g / cm^3
# Si number density = 23.508533 Si / 1000 Ang^3
#
#
#
# Elastic Constant Matrix: (Units=GPa)
#
#
# Indices 1 2 3 4 5 6 
#
# 1 70.6065 4.0111 43.2089 0.0002 -23.1053 0.0001
# 2 4.0111 139.1848 70.3850 0.0000 2.7793 0.0000
# 3 43.2089 70.3850 245.9223 0.0001 -29.4131 0.0003
# 4 0.0002 0.0000 0.0001 53.1186 0.0003 -2.0780
# 5 -23.1053 2.7793 -29.4131 0.0003 42.0885 0.0004
# 6 0.0001 0.0000 0.0003 -2.0780 0.0004 18.7760
#
#
#
# Elastic Compliance Matrix: (Units=1/GPa)
#
#
# Indices 1 2 3 4 5 6 
#
# 1 0.018319 0.000498 -0.002360 0.000000 0.008375 0.000000
# 2 0.000498 0.008650 -0.002836 0.000000 -0.002280 0.000000
# 3 -0.002360 -0.002836 0.005631 0.000000 0.002827 0.000000
# 4 0.000000 0.000000 0.000000 0.018908 0.000000 0.002093
# 5 0.008375 -0.002280 0.002827 0.000000 0.030483 -0.000001
# 6 0.000000 0.000000 0.000000 0.002093 -0.000001 0.053491
#
#
# Mechanical properties :
#
#
# Convention : Reuss Voigt Hill
#
# Bulk Modulus (GPa) = 43.09393 76.76928 59.93161
# Shear Modulus (GPa) = 32.76291 45.33717 39.05004
#
# Velocity S-wave (km/s) = 3.73723 4.39628 4.08008
# Velocity P-wave (km/s) = 6.08222 7.64830 6.90977
#
# Compressibility (1/GPa) = 0.02320512
#
# Stress axis : x y z
#
# Youngs Moduli (GPa) = 54.58722 115.60786 177.59927
#
# Poissons Ratio (x) = -0.05758 0.41907
# Poissons Ratio (y) = -0.02719 0.50364
# Poissons Ratio (z) = 0.12881 0.32785
#
# Static dielectric constant tensor:
#      x y z
#    x 2.007990 0.000000 -0.089430 
#    y 0.000000 1.865320 0.000000 
#    z -0.089430 0.000000 1.965180 
# 
# From -- ./inp_files/197576.got.cif
#   From: 2010.05.17/outbox.cif.g08.bks.cpg/sg15_99_cif.got.tgz:197576.got - 2010.06.03 18:47:42.
