data_PCOD9304596
_publ_section_title
;
Structure prediction by ZEFSAII (Michael W. Deem and Ramdas Pophale) SiO2 
 PCOD9304596
Probable space group: C 2/C
;
_chemical_formula_sum "Si O2"
_cell_formula_units_Z 52
_cell_length_a 17.151359
_cell_length_b 7.993830
_cell_length_c 14.738091
_cell_angle_alpha 90.000000
_cell_angle_beta 68.991033
_cell_angle_gamma 90.000000
_cell_volume 1886.341503
_symmetry_space_group_name_H-M "C 2/C"
_symmetry_group_IT_number 15
_symmetry_cell_setting 'monoclinic'
loop_
_space_group_symop_operation_xyz
x,y,z
-x,y,1/2-z
-x,-y,-z
x,-y,1/2+z
1/2+x,1/2+y,z
1/2-x,1/2+y,1/2-z
1/2-x,1/2-y,-z
1/2+x,1/2-y,1/2+z
loop_
_atom_site_type_symbol
_atom_site_label
_atom_site_fract_x
_atom_site_fract_y
_atom_site_fract_z
Si Si1 0.340843 0.843653 0.860850
Si Si2 0.554395 0.727831 0.946358
Si Si3 0.500000 0.051683 0.750000
Si Si4 0.769954 0.780515 0.749524
Si Si5 0.587901 0.467260 0.245648
Si Si6 0.089994 0.614377 0.897878
Si Si7 0.713062 0.603447 0.954639
O O1 0.306679 0.859646 0.771728
O O2 0.371856 0.652865 0.848142
O O3 0.426052 0.948399 0.830156
O O4 0.266863 0.934437 0.947490
O O5 0.562787 0.642709 0.844738
O O6 0.612773 0.621845 0.991210
O O7 0.584226 0.923203 0.933494
O O8 0.459965 0.755228 0.018686
O O9 0.546731 0.129906 0.816810
O O10 0.816034 0.673724 0.652670
O O11 0.737622 0.667420 0.843641
O O12 0.839191 0.906838 0.757529
O O13 0.500000 0.541916 0.250000
O O14 0.750000 0.750000 0.000000
#
# Coordination Sequence:
#
# PCOD9304596 Si02
#       7
#     8   8   4   8   8   8   8
#     4  12  22  45  71  98 140 189 230 288 355 427
#     4  11  23  45  68 104 137 190 236 293 348 428
#     4  12  20  42  72 100 126 190 238 278 350 430
#     4  12  25  45  71 104 142 187 231 296 360 420
#     4  12  25  43  71 103 143 187 235 290 360 427
#     4  11  25  42  74  99 142 185 239 286 360 421
#     4  12  25  44  73 105 140 183 243 296 347 427
#
# _framework density 27.566590999999999
#
# number of rings (size 3 to 8) (size 9 to 14) (size 15 to 20)
#    0.000    0.308    6.923    0.923    3.231    1.846 
#    2.769    0.769    0.000    0.000    0.000    0.000 
#    0.000    0.000    0.000    0.000    0.000    0.000 
#
# Total GULP energy -145680.177144 kJ/mol
# GULP energy per Si atom -5603.083736 kJ/mol
# Density = 2.750385 g / cm^3
# Si number density = 27.566591 Si / 1000 Ang^3
#
#
#
# Elastic Constant Matrix: (Units=GPa)
#
#
# Indices 1 2 3 4 5 6 
#
# 1 139.3464 31.1699 3.4044 0.0000 -6.0167 0.0000
# 2 31.1699 91.0991 0.1521 0.0000 1.1519 0.0000
# 3 3.4044 0.1521 66.8458 0.0000 -9.9658 0.0000
# 4 0.0000 0.0000 0.0000 39.8548 0.0000 -2.9300
# 5 -6.0167 1.1519 -9.9658 0.0000 41.4526 0.0000
# 6 0.0000 0.0000 0.0000 -2.9300 0.0000 46.7038
#
#
#
# Elastic Compliance Matrix: (Units=1/GPa)
#
#
# Indices 1 2 3 4 5 6 
#
# 1 0.007835 -0.002695 -0.000220 0.000000 0.001159 0.000000
# 2 -0.002695 0.011908 0.000003 0.000000 -0.000721 0.000000
# 3 -0.000220 0.000003 0.015523 0.000000 0.003700 0.000000
# 4 0.000000 0.000000 0.000000 0.025207 0.000000 0.001581
# 5 0.001159 -0.000721 0.003700 0.000000 0.025202 0.000000
# 6 0.000000 0.000000 0.000000 0.001581 0.000000 0.021511
#
#
# Mechanical properties :
#
#
# Convention : Reuss Voigt Hill
#
# Bulk Modulus (GPa) = 33.96660 40.74933 37.35796
# Shear Modulus (GPa) = 40.70878 43.10656 41.90767
#
# Velocity S-wave (km/s) = 3.84701 3.95869 3.90325
# Velocity P-wave (km/s) = 5.66401 5.97571 5.82195
#
# Compressibility (1/GPa) = 0.02944069
#
# Stress axis : x y z
#
# Youngs Moduli (GPa) = 127.63885 83.97539 64.42215
#
# Poissons Ratio (x) = 0.22631 0.01418
# Poissons Ratio (y) = 0.34398 -0.00017
# Poissons Ratio (z) = 0.02809 -0.00022
#
# Static dielectric constant tensor:
#      x y z
#    x 2.072830 0.000000 -0.005780 
#    y 0.000000 2.203170 0.000000 
#    z -0.005780 0.000000 2.176340 
# 
# From -- ./inp_files/209475.got.cif
#   From: 2010.05.17/outbox.cif.g08.bks.cpg/sg15_105_cif.got.tgz:209475.got - 2010.06.03 18:47:42.
