data_PCOD9304442
_publ_section_title
;
Structure prediction by ZEFSAII (Michael W. Deem and Ramdas Pophale) SiO2 
 PCOD9304442
Probable space group: C 2/C
;
_chemical_formula_sum "Si O2"
_cell_formula_units_Z 48
_cell_length_a 22.394416
_cell_length_b 5.578614
_cell_length_c 23.213512
_cell_angle_alpha 90.000000
_cell_angle_beta 134.038554
_cell_angle_gamma 90.000000
_cell_volume 2084.772150
_symmetry_space_group_name_H-M "C 2/C"
_symmetry_group_IT_number 15
_symmetry_cell_setting 'monoclinic'
loop_
_space_group_symop_operation_xyz
x,y,z
-x,y,1/2-z
-x,-y,-z
x,-y,1/2+z
1/2+x,1/2+y,z
1/2-x,1/2+y,1/2-z
1/2-x,1/2-y,-z
1/2+x,1/2-y,1/2+z
loop_
_atom_site_type_symbol
_atom_site_label
_atom_site_fract_x
_atom_site_fract_y
_atom_site_fract_z
Si Si1 0.188682 0.902405 0.919434
Si Si2 0.073163 0.925621 0.669257
Si Si3 0.645155 0.435745 0.600875
Si Si4 0.591124 0.705524 0.937807
Si Si5 0.743265 0.054407 0.161563
Si Si6 0.968801 0.411180 0.170770
O O1 0.233824 0.959700 0.890511
O O2 0.100650 0.767796 0.849905
O O3 0.158468 0.125707 0.936421
O O4 0.250000 0.750000 0.000000
O O5 0.072440 0.923816 0.599508
O O6 0.168983 0.965557 0.747435
O O7 0.046693 0.698374 0.689312
O O8 0.001880 0.112753 0.639489
O O9 0.615205 0.398054 0.515310
O O10 0.695138 0.690584 0.639049
O O11 0.695074 0.187921 0.645925
O O12 0.581009 0.982459 0.917657
O O13 0.000000 0.546023 0.250000
#
# Coordination Sequence:
#
# PCOD9304442 Si02
#       6
#     8   8   8   8   8   8
#     4  11  23  44  68 103 141 182 240 294 358 420
#     4  11  27  47  72 105 147 190 246 299 362 437
#     4  12  28  49  73 108 147 195 244 295 365 435
#     4  11  27  43  74 106 145 197 237 307 363 431
#     4  12  27  46  76 106 147 194 243 300 360 432
#     4  11  25  43  71 105 142 188 241 301 364 423
#
# _framework density 23.024100000000001
#
# number of rings (size 3 to 8) (size 9 to 14) (size 15 to 20)
#    0.000    0.667    3.333    2.500   11.667    2.000 
#    0.000    0.000    0.000    0.000    0.000    0.000 
#    0.000    0.000    0.000    0.000    0.000    0.000 
#
# Total GULP energy -133843.484403 kJ/mol
# GULP energy per Si atom -5576.811850 kJ/mol
# Density = 2.297170 g / cm^3
# Si number density = 23.024100 Si / 1000 Ang^3
#
#
#
# Elastic Constant Matrix: (Units=GPa)
#
#
# Indices 1 2 3 4 5 6 
#
# 1 149.9441 34.4447 12.3336 0.0009 -12.7374 0.0093
# 2 34.4447 77.1220 20.5911 -0.0020 17.1084 0.0183
# 3 12.3336 20.5911 84.7930 -0.0002 -1.4603 0.0034
# 4 0.0009 -0.0020 -0.0002 21.2264 -0.0016 -11.1434
# 5 -12.7374 17.1084 -1.4603 -0.0016 41.9792 0.0003
# 6 0.0093 0.0183 0.0034 -11.1434 0.0003 -12.0881
#
#
#
# Elastic Compliance Matrix: (Units=1/GPa)
#
#
# Indices 1 2 3 4 5 6 
#
# 1 0.008085 -0.004571 0.000008 -0.000001 0.004316 0.000000
# 2 -0.004571 0.018003 -0.003860 0.000009 -0.008858 0.000014
# 3 0.000008 -0.003860 0.012764 -0.000001 0.002020 -0.000001
# 4 -0.000001 0.000009 -0.000001 0.031747 -0.000002 -0.029266
# 5 0.004316 -0.008858 0.002020 -0.000002 0.028811 -0.000007
# 6 0.000000 0.000014 -0.000001 -0.029266 -0.000007 -0.055747
#
#
# Mechanical properties :
#
#
# Convention : Reuss Voigt Hill
#
# Bulk Modulus (GPa) = 45.43681 49.62198 47.52940
# Shear Modulus (GPa) = 73.69779 26.52282 50.11031
#
# Velocity S-wave (km/s) = 5.66379 3.39773 4.67028
# Velocity P-wave (km/s) = 7.90877 6.08209 7.05480
#
# Compressibility (1/GPa) = 0.02200859
#
# Stress axis : x y z
#
# Youngs Moduli (GPa) = 123.68430 55.54482 78.34358
#
# Poissons Ratio (x) = 0.25388 -0.00065
# Poissons Ratio (y) = 0.56533 0.30238
# Poissons Ratio (z) = -0.00102 0.21439
#
# Static dielectric constant tensor:
#      x y z
#    x 1.827380 0.000020 -0.013660 
#    y 0.000020 2.475290 0.000000 
#    z -0.013660 0.000000 1.951930 
# 
# From -- ./inp_files/279029.got.cif
#   From: 2010.05.17/outbox.cif.g08.bks.cpg/sg15_140_cif.got.tgz:279029.got - 2010.06.03 18:47:42.
