data_PCOD9304750
_publ_section_title
;
Structure prediction by ZEFSAII (Michael W. Deem and Ramdas Pophale) SiO2 
 PCOD9304750
Probable space group: C 2/C
;
_chemical_formula_sum "Si O2"
_cell_formula_units_Z 40
_cell_length_a 11.851933
_cell_length_b 7.369035
_cell_length_c 19.940446
_cell_angle_alpha 90.000000
_cell_angle_beta 102.250087
_cell_angle_gamma 90.000000
_cell_volume 1701.891284
_symmetry_space_group_name_H-M "C 2/C"
_symmetry_group_IT_number 15
_symmetry_cell_setting 'monoclinic'
loop_
_space_group_symop_operation_xyz
x,y,z
-x,y,1/2-z
-x,-y,-z
x,-y,1/2+z
1/2+x,1/2+y,z
1/2-x,1/2+y,1/2-z
1/2-x,1/2-y,-z
1/2+x,1/2-y,1/2+z
loop_
_atom_site_type_symbol
_atom_site_label
_atom_site_fract_x
_atom_site_fract_y
_atom_site_fract_z
Si Si1 0.441459 0.134437 0.820809
Si Si2 0.180927 0.478825 0.810476
Si Si3 0.568177 0.466360 0.194218
Si Si4 0.648698 0.354458 0.410585
Si Si5 0.387697 0.107249 0.965417
O O1 0.575896 0.087498 0.831619
O O2 0.368895 0.978054 0.772933
O O3 0.408630 0.324548 0.782956
O O4 0.415034 0.167443 0.894092
O O5 0.304914 0.578145 0.818968
O O6 0.182883 0.294911 0.856318
O O7 0.500000 0.382547 0.250000
O O8 0.468694 0.448993 0.126376
O O9 0.626729 0.253129 0.477778
O O10 0.760218 0.479351 0.438949
O O11 0.500000 0.000000 0.000000
#
# Coordination Sequence:
#
# PCOD9304750 Si02
#       5
#     8   8   8   8   8
#     4  11  24  45  67 101 138 176 227 281 334 401
#     4  11  24  45  69  98 135 175 229 280 329 403
#     4  12  26  42  69 103 135 174 230 284 336 393
#     4  11  26  43  71 100 135 181 229 273 337 411
#     4  11  23  46  70  98 140 182 220 278 343 396
#
# _framework density 23.503261999999999
#
# number of rings (size 3 to 8) (size 9 to 14) (size 15 to 20)
#    0.000    0.800    6.000    1.200    2.800    2.400 
#    0.000    2.000    0.000    0.000    0.000    0.000 
#    0.000    0.000    0.000    0.000    0.000    0.000 
#
# Total GULP energy -111345.908836 kJ/mol
# GULP energy per Si atom -5567.295442 kJ/mol
# Density = 2.344977 g / cm^3
# Si number density = 23.503262 Si / 1000 Ang^3
#
#
#
# Elastic Constant Matrix: (Units=GPa)
#
#
# Indices 1 2 3 4 5 6 
#
# 1 240.5881 32.2348 49.3911 0.0000 34.5399 0.0000
# 2 32.2348 36.3759 17.3674 0.0000 -0.4500 0.0000
# 3 49.3911 17.3674 133.2762 0.0000 -5.5578 0.0000
# 4 0.0000 0.0000 0.0000 17.7504 0.0000 10.6128
# 5 34.5399 -0.4500 -5.5578 0.0000 31.2760 0.0000
# 6 0.0000 0.0000 0.0000 10.6128 0.0000 35.3045
#
#
#
# Elastic Compliance Matrix: (Units=1/GPa)
#
#
# Indices 1 2 3 4 5 6 
#
# 1 0.006246 -0.004665 -0.002012 0.000000 -0.007322 0.000000
# 2 -0.004665 0.032800 -0.002328 0.000000 0.005210 0.000000
# 3 -0.002012 -0.002328 0.008708 0.000000 0.003736 0.000000
# 4 0.000000 0.000000 0.000000 0.068680 0.000000 -0.020646
# 5 -0.007322 0.005210 0.003736 0.000000 0.040799 0.000000
# 6 0.000000 0.000000 0.000000 -0.020646 0.000000 0.034531
#
#
# Mechanical properties :
#
#
# Convention : Reuss Voigt Hill
#
# Bulk Modulus (GPa) = 33.62011 67.58076 50.60044
# Shear Modulus (GPa) = 22.75940 37.61598 30.18769
#
# Velocity S-wave (km/s) = 3.11521 4.00491 3.58775
# Velocity P-wave (km/s) = 5.22253 7.08533 6.22402
#
# Compressibility (1/GPa) = 0.02974410
#
# Stress axis : x y z
#
# Youngs Moduli (GPa) = 160.10899 30.48736 114.83571
#
# Poissons Ratio (x) = 0.14221 0.23106
# Poissons Ratio (y) = 0.74685 0.26738
# Poissons Ratio (z) = 0.32216 0.07099
#
# Static dielectric constant tensor:
#      x y z
#    x 1.928530 0.000000 0.060120 
#    y 0.000000 1.939680 0.000000 
#    z 0.060120 0.000000 1.782900 
# 
# From -- ./inp_files/235718.got.cif
#   From: 2010.05.17/outbox.cif.g08.bks.cpg/sg15_118_cif.got.tgz:235718.got - 2010.06.03 18:47:42.
