data_PCOD9304298
_publ_section_title
;
Structure prediction by ZEFSAII (Michael W. Deem and Ramdas Pophale) SiO2 
 PCOD9304298
Probable space group: C 2/C
;
_chemical_formula_sum "Si O2"
_cell_formula_units_Z 56
_cell_length_a 8.954666
_cell_length_b 28.423081
_cell_length_c 12.104695
_cell_angle_alpha 90.000000
_cell_angle_beta 70.870583
_cell_angle_gamma 90.000000
_cell_volume 2910.753632
_symmetry_space_group_name_H-M "C 2/C"
_symmetry_group_IT_number 15
_symmetry_cell_setting 'monoclinic'
loop_
_space_group_symop_operation_xyz
x,y,z
-x,y,1/2-z
-x,-y,-z
x,-y,1/2+z
1/2+x,1/2+y,z
1/2-x,1/2+y,1/2-z
1/2-x,1/2-y,-z
1/2+x,1/2-y,1/2+z
loop_
_atom_site_type_symbol
_atom_site_label
_atom_site_fract_x
_atom_site_fract_y
_atom_site_fract_z
Si Si1 0.531100 0.151975 0.369537
Si Si2 0.738217 0.394033 0.061696
Si Si3 0.950255 0.835375 0.030303
Si Si4 0.593683 0.762010 0.467302
Si Si5 0.586018 0.504958 0.603784
Si Si6 0.842716 0.902176 0.862813
Si Si7 0.668323 0.834596 0.262994
O O1 0.500000 0.162493 0.250000
O O2 0.388974 0.119805 0.451362
O O3 0.517564 0.200947 0.440121
O O4 0.693551 0.123480 0.344201
O O5 0.594452 0.360441 0.058675
O O6 0.686255 0.447675 0.066992
O O7 0.780831 0.378812 0.175159
O O8 0.806789 0.823938 0.145384
O O9 0.010087 0.787043 0.962927
O O10 0.885337 0.872284 0.959272
O O11 0.750000 0.750000 0.500000
O O12 0.646807 0.789971 0.347104
O O13 0.500000 0.509894 0.750000
O O14 0.500000 0.500000 0.500000
O O15 0.681793 0.456429 0.597267
O O16 0.000000 0.901182 0.750000
O O17 0.500000 0.844507 0.250000
#
# Coordination Sequence:
#
# PCOD9304298 Si02
#       7
#     8   8   8   8   8   8   8
#     4  11  25  43  67  97 142 178 227 289 345 413
#     4  11  23  43  69 101 132 182 230 284 351 408
#     4  12  22  41  71  92 131 180 224 279 346 407
#     4  11  25  41  64  99 131 179 229 276 343 417
#     4  11  24  45  75 108 141 184 240 289 351 430
#     4  11  26  44  69 103 135 178 229 286 350 416
#     4  11  25  42  63  99 138 172 232 282 341 418
#
# _framework density 19.239004999999999
#
# number of rings (size 3 to 8) (size 9 to 14) (size 15 to 20)
#    0.000    0.857    4.286    3.857    4.000    3.429 
#    0.000    0.714    0.000    0.000    0.000    0.000 
#    0.000    0.000    0.000    0.000    0.000    0.000 
#
# Total GULP energy -156290.191258 kJ/mol
# GULP energy per Si atom -5581.792545 kJ/mol
# Density = 1.919522 g / cm^3
# Si number density = 19.239005 Si / 1000 Ang^3
#
#
#
# Elastic Constant Matrix: (Units=GPa)
#
#
# Indices 1 2 3 4 5 6 
#
# 1 97.7121 31.7655 4.6244 0.0000 3.7899 0.0000
# 2 31.7655 157.5562 9.5275 0.0000 2.0754 0.0000
# 3 4.6244 9.5275 40.0939 0.0000 11.5022 0.0000
# 4 0.0000 0.0000 0.0000 6.4347 0.0000 10.9968
# 5 3.7899 2.0754 11.5022 0.0000 29.7265 0.0000
# 6 0.0000 0.0000 0.0000 10.9968 0.0000 31.5367
#
#
#
# Elastic Compliance Matrix: (Units=1/GPa)
#
#
# Indices 1 2 3 4 5 6 
#
# 1 0.011005 -0.002178 -0.000442 0.000000 -0.001080 0.000000
# 2 -0.002178 0.006871 -0.001489 0.000000 0.000374 0.000000
# 3 -0.000442 -0.001489 0.028459 0.000000 -0.010852 0.000000
# 4 0.000000 0.000000 0.000000 0.384591 0.000000 -0.134106
# 5 -0.001080 0.000374 -0.010852 0.000000 0.037950 0.000000
# 6 0.000000 0.000000 0.000000 -0.134106 0.000000 0.078472
#
#
# Mechanical properties :
#
#
# Convention : Reuss Voigt Hill
#
# Bulk Modulus (GPa) = 26.23424 43.02186 34.62805
# Shear Modulus (GPa) = 8.79861 30.16926 19.48394
#
# Velocity S-wave (km/s) = 2.14085 3.96426 3.18580
# Velocity P-wave (km/s) = 4.44708 6.58514 5.61875
#
# Compressibility (1/GPa) = 0.03811813
#
# Stress axis : x y z
#
# Youngs Moduli (GPa) = 90.86830 145.53660 35.13781
#
# Poissons Ratio (x) = 0.31695 0.01553
# Poissons Ratio (y) = 0.19789 0.05232
# Poissons Ratio (z) = 0.04016 0.21669
#
# Static dielectric constant tensor:
#      x y z
#    x 1.602510 0.000000 0.069560 
#    y 0.000000 1.641490 0.000000 
#    z 0.069560 0.000000 1.658190 
# 
# From -- ./inp_files/81234.got.cif
#   From: 2010.05.17/outbox.cif.g08.bks.cpg/sg15_41_cif.got.tgz:81234.got - 2010.06.03 18:47:42.
