data_PCOD9304049
_publ_section_title
;
Structure prediction by ZEFSAII (Michael W. Deem and Ramdas Pophale) SiO2 
 PCOD9304049
Probable space group: C 2/C
;
_chemical_formula_sum "Si O2"
_cell_formula_units_Z 44
_cell_length_a 25.384764
_cell_length_b 9.145501
_cell_length_c 9.398099
_cell_angle_alpha 90.000000
_cell_angle_beta 52.056485
_cell_angle_gamma 90.000000
_cell_volume 1720.627891
_symmetry_space_group_name_H-M "C 2/C"
_symmetry_group_IT_number 15
_symmetry_cell_setting 'monoclinic'
loop_
_space_group_symop_operation_xyz
x,y,z
-x,y,1/2-z
-x,-y,-z
x,-y,1/2+z
1/2+x,1/2+y,z
1/2-x,1/2+y,1/2-z
1/2-x,1/2-y,-z
1/2+x,1/2-y,1/2+z
loop_
_atom_site_type_symbol
_atom_site_label
_atom_site_fract_x
_atom_site_fract_y
_atom_site_fract_z
Si Si1 0.161384 0.769718 0.993297
Si Si2 0.102444 0.934208 0.591054
Si Si3 0.853282 0.495418 0.282445
Si Si4 0.301290 0.169323 0.115868
Si Si5 0.448205 0.758762 0.067092
Si Si6 0.500000 0.500000 0.000000
O O1 0.232630 0.778279 0.796766
O O2 0.106077 0.742717 0.964938
O O3 0.154560 0.648539 0.123922
O O4 0.148757 0.934674 0.065213
O O5 0.146951 0.801151 0.466303
O O6 0.063751 0.877696 0.797815
O O7 0.052878 0.977956 0.548783
O O8 0.830906 0.536633 0.161231
O O9 0.802965 0.387569 0.450495
O O10 0.926543 0.413912 0.173045
O O11 0.516724 0.683918 0.909836
#
# Coordination Sequence:
#
# PCOD9304049 Si02
#       6
#     8   8   8   8   8   4
#     4  12  23  38  68 105 147 193 250 306 384 446
#     4   9  23  40  67  97 140 192 243 309 362 441
#     4  11  23  42  64 104 148 197 245 307 376 441
#     4  11  24  40  68 105 155 195 244 311 377 458
#     4   9  22  42  66  96 138 193 249 307 355 438
#     4   8  20  46  66  94 134 190 260 300 352 448
#
# _framework density 25.57206
#
# number of rings (size 3 to 8) (size 9 to 14) (size 15 to 20)
#    1.091    0.727    1.818    1.636    5.091    2.182 
#    0.000    0.909    0.000    0.000    0.000    0.000 
#    0.000    0.000    0.000    0.000    0.000    0.000 
#
# Total GULP energy -122641.087111 kJ/mol
# GULP energy per Si atom -5574.594869 kJ/mol
# Density = 2.551386 g / cm^3
# Si number density = 25.572060 Si / 1000 Ang^3
#
#
#
# Elastic Constant Matrix: (Units=GPa)
#
#
# Indices 1 2 3 4 5 6 
#
# 1 42.9225 9.3734 24.2748 0.0000 17.5094 0.0000
# 2 9.3734 142.0292 40.5173 0.0000 -2.9735 0.0000
# 3 24.2748 40.5173 110.5222 0.0000 -1.6712 0.0000
# 4 0.0000 0.0000 0.0000 65.1980 0.0000 6.0861
# 5 17.5094 -2.9735 -1.6712 0.0000 30.6899 0.0000
# 6 0.0000 0.0000 0.0000 6.0861 0.0000 37.4958
#
#
#
# Elastic Compliance Matrix: (Units=1/GPa)
#
#
# Indices 1 2 3 4 5 6 
#
# 1 0.036843 -0.000537 -0.008221 0.000000 -0.021519 0.000000
# 2 -0.000537 0.007882 -0.002758 0.000000 0.000920 0.000000
# 3 -0.008221 -0.002758 0.011941 0.000000 0.005073 0.000000
# 4 0.000000 0.000000 0.000000 0.015574 0.000000 -0.002528
# 5 -0.021519 0.000920 0.005073 0.000000 0.045227 0.000000
# 6 0.000000 0.000000 0.000000 -0.002528 0.000000 0.027080
#
#
# Mechanical properties :
#
#
# Convention : Reuss Voigt Hill
#
# Bulk Modulus (GPa) = 29.73043 49.31166 39.52104
# Shear Modulus (GPa) = 27.96591 41.43063 34.69827
#
# Velocity S-wave (km/s) = 3.31057 4.02948 3.68758
# Velocity P-wave (km/s) = 5.12489 6.40111 5.79822
#
# Compressibility (1/GPa) = 0.03363557
#
# Stress axis : x y z
#
# Youngs Moduli (GPa) = 27.14244 126.86780 83.74349
#
# Poissons Ratio (x) = 0.06811 0.68842
# Poissons Ratio (y) = 0.01457 0.23095
# Poissons Ratio (z) = 0.22313 0.34987
#
# Static dielectric constant tensor:
#      x y z
#    x 1.921380 0.000000 0.015530 
#    y 0.000000 2.209270 0.000000 
#    z 0.015530 0.000000 2.311950 
# 
# From -- ./inp_files/121768.got.cif
#   From: 2010.05.17/outbox.cif.g08.bks.cpg/sg15_61_cif.got.tgz:121768.got - 2010.06.03 18:47:42.
