data_PCOD9304685
_publ_section_title
;
Structure prediction by ZEFSAII (Michael W. Deem and Ramdas Pophale) SiO2 
 PCOD9304685
Probable space group: C 2/C
;
_chemical_formula_sum "Si O2"
_cell_formula_units_Z 40
_cell_length_a 19.096882
_cell_length_b 16.226559
_cell_length_c 13.393310
_cell_angle_alpha 90.000000
_cell_angle_beta 154.754987
_cell_angle_gamma 90.000000
_cell_volume 1770.050621
_symmetry_space_group_name_H-M "C 2/C"
_symmetry_group_IT_number 15
_symmetry_cell_setting 'monoclinic'
loop_
_space_group_symop_operation_xyz
x,y,z
-x,y,1/2-z
-x,-y,-z
x,-y,1/2+z
1/2+x,1/2+y,z
1/2-x,1/2+y,1/2-z
1/2-x,1/2-y,-z
1/2+x,1/2-y,1/2+z
loop_
_atom_site_type_symbol
_atom_site_label
_atom_site_fract_x
_atom_site_fract_y
_atom_site_fract_z
Si Si1 0.155132 0.491062 0.375080
Si Si2 0.116907 0.077751 0.170424
Si Si3 0.438016 0.121092 0.474702
Si Si4 0.866689 0.672257 0.165346
Si Si5 0.066774 0.779658 0.736066
O O1 0.287211 0.438061 0.602366
O O2 0.222998 0.583446 0.455768
O O3 0.000000 0.495857 0.250000
O O4 0.078472 0.446787 0.179691
O O5 0.256267 0.086665 0.265108
O O6 0.039717 0.165389 0.101507
O O7 0.000000 0.000000 0.000000
O O8 0.450257 0.160557 0.381251
O O9 0.467022 0.195241 0.589431
O O10 0.000000 0.676799 0.250000
O O11 0.750000 0.750000 0.000000
O O12 0.000000 0.822079 0.750000
O O13 0.250000 0.750000 0.000000
#
# Coordination Sequence:
#
# PCOD9304685 Si02
#       5
#     8   8   8   8   8
#     4   9  20  45  68  97 137 185 239 292 368 448
#     4  11  25  43  73 113 146 185 242 310 373 446
#     4  11  23  45  74  99 149 197 246 305 375 448
#     4  11  27  43  66  99 142 192 246 304 371 437
#     4  12  23  44  74 109 145 188 250 306 367 450
#
# _framework density 22.598223999999998
#
# number of rings (size 3 to 8) (size 9 to 14) (size 15 to 20)
#    0.000    1.200    4.000    1.200    5.600    1.600 
#    7.200    0.000    0.000    0.000    0.000    0.000 
#    0.000    0.000    0.000    0.000    0.000    0.000 
#
# Total GULP energy -111640.935127 kJ/mol
# GULP energy per Si atom -5582.046756 kJ/mol
# Density = 2.254679 g / cm^3
# Si number density = 22.598224 Si / 1000 Ang^3
#
#
#
# Elastic Constant Matrix: (Units=GPa)
#
#
# Indices 1 2 3 4 5 6 
#
# 1 134.3416 40.2342 52.0916 0.0000 -14.6474 0.0000
# 2 40.2342 147.1064 41.9316 0.0000 1.4720 0.0000
# 3 52.0916 41.9316 76.7872 0.0000 -9.3069 0.0000
# 4 0.0000 0.0000 0.0000 50.7046 0.0000 -6.0779
# 5 -14.6474 1.4720 -9.3069 0.0000 36.8841 0.0000
# 6 0.0000 0.0000 0.0000 -6.0779 0.0000 31.1335
#
#
#
# Elastic Compliance Matrix: (Units=1/GPa)
#
#
# Indices 1 2 3 4 5 6 
#
# 1 0.010458 -0.001132 -0.006156 0.000000 0.002645 0.000000
# 2 -0.001132 0.008252 -0.003954 0.000000 -0.001777 0.000000
# 3 -0.006156 -0.003954 0.019683 0.000000 0.002680 0.000000
# 4 0.000000 0.000000 0.000000 0.020195 0.000000 0.003942
# 5 0.002645 -0.001777 0.002680 0.000000 0.028909 0.000000
# 6 0.000000 0.000000 0.000000 0.003942 0.000000 0.032889
#
#
# Mechanical properties :
#
#
# Convention : Reuss Voigt Hill
#
# Bulk Modulus (GPa) = 62.85383 69.63889 66.24636
# Shear Modulus (GPa) = 33.74432 38.67631 36.21032
#
# Velocity S-wave (km/s) = 3.86842 4.14149 4.00728
# Velocity P-wave (km/s) = 6.91570 7.33159 7.12668
#
# Compressibility (1/GPa) = 0.01590993
#
# Stress axis : x y z
#
# Youngs Moduli (GPa) = 95.61937 121.18029 50.80560
#
# Poissons Ratio (x) = 0.13719 0.31275
# Poissons Ratio (y) = 0.10825 0.20087
# Poissons Ratio (z) = 0.58862 0.47910
#
# Static dielectric constant tensor:
#      x y z
#    x 1.955810 0.000000 -0.123970 
#    y 0.000000 1.916460 0.000000 
#    z -0.123970 0.000000 2.062310 
# 
# From -- ./inp_files/106895.got.cif
#   From: 2010.05.17/outbox.cif.g08.bks.cpg/sg15_54_cif.got.tgz:106895.got - 2010.06.03 18:47:42.
