data_PCOD9304805
_publ_section_title
;
Structure prediction by ZEFSAII (Michael W. Deem and Ramdas Pophale) SiO2 
 PCOD9304805
Probable space group: C 2/C
;
_chemical_formula_sum "Si O2"
_cell_formula_units_Z 40
_cell_length_a 9.606176
_cell_length_b 17.933663
_cell_length_c 8.975511
_cell_angle_alpha 90.000000
_cell_angle_beta 95.593979
_cell_angle_gamma 90.000000
_cell_volume 1538.882723
_symmetry_space_group_name_H-M "C 2/C"
_symmetry_group_IT_number 15
_symmetry_cell_setting 'monoclinic'
loop_
_space_group_symop_operation_xyz
x,y,z
-x,y,1/2-z
-x,-y,-z
x,-y,1/2+z
1/2+x,1/2+y,z
1/2-x,1/2+y,1/2-z
1/2-x,1/2-y,-z
1/2+x,1/2-y,1/2+z
loop_
_atom_site_type_symbol
_atom_site_label
_atom_site_fract_x
_atom_site_fract_y
_atom_site_fract_z
Si Si1 0.694625 0.923981 0.374214
Si Si2 0.383843 0.779597 0.628903
Si Si3 0.714620 0.069960 0.524946
Si Si4 0.500896 0.621321 0.571569
Si Si5 0.645334 0.763043 0.342756
O O1 0.711791 0.938783 0.201110
O O2 0.606468 0.848909 0.374481
O O3 0.845130 0.901089 0.462266
O O4 0.643630 0.999386 0.442359
O O5 0.500000 0.811407 0.750000
O O6 0.337331 0.848684 0.526378
O O7 0.457754 0.708879 0.555778
O O8 0.241196 0.751343 0.279392
O O9 0.877596 0.072831 0.489924
O O10 0.500000 0.610104 0.750000
O O11 0.500000 0.730252 0.250000
O O12 0.750000 0.750000 0.500000
#
# Coordination Sequence:
#
# PCOD9304805 Si02
#       5
#     8   8   8   8   8
#     4  11  25  45  69 111 152 200 251 326 393 469
#     4  11  23  46  79 105 142 207 264 309 387 479
#     4  11  24  41  74 105 151 196 257 318 400 465
#     4   9  18  40  72 100 136 187 262 300 366 461
#     4  12  30  48  77 117 160 198 265 337 389 460
#
# _framework density 25.992885999999999
#
# number of rings (size 3 to 8) (size 9 to 14) (size 15 to 20)
#    0.000    1.200    6.000    1.200    8.400    0.800 
#    0.000    2.000    0.000    0.000    0.000    0.000 
#    0.000    0.000    0.000    0.000    0.000    0.000 
#
# Total GULP energy -111662.711690 kJ/mol
# GULP energy per Si atom -5583.135584 kJ/mol
# Density = 2.593372 g / cm^3
# Si number density = 25.992886 Si / 1000 Ang^3
#
#
#
# Elastic Constant Matrix: (Units=GPa)
#
#
# Indices 1 2 3 4 5 6 
#
# 1 137.7371 18.9590 55.2001 0.0000 30.0903 0.0000
# 2 18.9590 151.6715 56.7277 0.0000 2.6503 0.0000
# 3 55.2001 56.7277 141.1827 0.0000 23.7103 0.0000
# 4 0.0000 0.0000 0.0000 47.6270 0.0000 7.3633
# 5 30.0903 2.6503 23.7103 0.0000 35.6348 0.0000
# 6 0.0000 0.0000 0.0000 7.3633 0.0000 12.7809
#
#
#
# Elastic Compliance Matrix: (Units=1/GPa)
#
#
# Indices 1 2 3 4 5 6 
#
# 1 0.009761 -0.000100 -0.002694 0.000000 -0.006442 0.000000
# 2 -0.000100 0.007851 -0.003413 0.000000 0.001771 0.000000
# 3 -0.002694 -0.003413 0.010226 0.000000 -0.004275 0.000000
# 4 0.000000 0.000000 0.000000 0.023050 0.000000 -0.013279
# 5 -0.006442 0.001771 -0.004275 0.000000 0.036215 0.000000
# 6 0.000000 0.000000 0.000000 -0.013279 0.000000 0.085892
#
#
# Mechanical properties :
#
#
# Convention : Reuss Voigt Hill
#
# Bulk Modulus (GPa) = 64.83606 76.92944 70.88275
# Shear Modulus (GPa) = 26.23968 39.18883 32.71426
#
# Velocity S-wave (km/s) = 3.18070 3.88709 3.55150
# Velocity P-wave (km/s) = 6.20379 7.05738 6.64431
#
# Compressibility (1/GPa) = 0.01542352
#
# Stress axis : x y z
#
# Youngs Moduli (GPa) = 102.44691 127.36756 97.79147
#
# Poissons Ratio (x) = 0.01271 0.26349
# Poissons Ratio (y) = 0.01023 0.33378
# Poissons Ratio (z) = 0.27604 0.43472
#
# Static dielectric constant tensor:
#      x y z
#    x 2.208650 0.000000 0.038980 
#    y 0.000000 2.042810 0.000000 
#    z 0.038980 0.000000 2.030180 
# 
# From -- ./inp_files/39390.got.cif
#   From: 2010.05.17/outbox.cif.g08.bks.cpg/sg15_20_cif.got.tgz:39390.got - 2010.06.03 18:47:42.
