data_PCOD9304092
_publ_section_title
;
Structure prediction by ZEFSAII (Michael W. Deem and Ramdas Pophale) SiO2 
 PCOD9304092
Probable space group: C 2/C
;
_chemical_formula_sum "Si O2"
_cell_formula_units_Z 56
_cell_length_a 19.218375
_cell_length_b 9.462932
_cell_length_c 31.626862
_cell_angle_alpha 90.000000
_cell_angle_beta 152.442344
_cell_angle_gamma 90.000000
_cell_volume 2660.985898
_symmetry_space_group_name_H-M "C 2/C"
_symmetry_group_IT_number 15
_symmetry_cell_setting 'monoclinic'
loop_
_space_group_symop_operation_xyz
x,y,z
-x,y,1/2-z
-x,-y,-z
x,-y,1/2+z
1/2+x,1/2+y,z
1/2-x,1/2+y,1/2-z
1/2-x,1/2-y,-z
1/2+x,1/2-y,1/2+z
loop_
_atom_site_type_symbol
_atom_site_label
_atom_site_fract_x
_atom_site_fract_y
_atom_site_fract_z
Si Si1 0.129831 0.890155 0.125521
Si Si2 0.545119 0.980392 0.725175
Si Si3 0.139781 0.790708 0.226548
Si Si4 0.104681 0.361174 0.553248
Si Si5 0.032041 0.798036 0.591161
Si Si6 0.436117 0.463324 0.756535
Si Si7 0.401998 0.763427 0.107842
O O1 0.145526 0.813225 0.179414
O O2 0.055504 0.772394 0.055612
O O3 0.292129 0.939874 0.193573
O O4 0.037741 0.036290 0.082456
O O5 0.500000 0.955822 0.750000
O O6 0.554060 0.842578 0.700248
O O7 0.423080 0.083025 0.638504
O O8 0.308036 0.769262 0.334972
O O9 0.072739 0.932042 0.209431
O O10 0.271367 0.402258 0.658109
O O11 0.000000 0.500000 0.500000
O O12 0.092863 0.293236 0.500322
O O13 0.021076 0.773766 0.635167
O O14 0.500000 0.542244 0.750000
O O15 0.555175 0.342113 0.831587
O O16 0.250000 0.750000 0.000000
#
# Coordination Sequence:
#
# PCOD9304092 Si02
#       7
#     8   8   8   8   8   8   8
#     4  11  24  44  71  96 139 179 228 288 343 410
#     4  11  25  44  68 102 142 180 226 285 352 407
#     4  11  23  45  71  99 135 182 228 283 347 411
#     4  12  25  41  70 104 137 173 236 286 345 413
#     4  11  23  42  67 103 130 179 229 281 339 415
#     4  12  24  46  67  99 141 178 223 289 349 409
#     4  12  25  43  70  98 134 178 233 276 345 415
#
# _framework density 21.044833000000001
#
# number of rings (size 3 to 8) (size 9 to 14) (size 15 to 20)
#    0.000    0.571    5.714    2.143    6.000    0.000 
#    0.000    0.714    0.000    0.000    0.000    0.000 
#    0.000    0.000    0.000    0.000    0.000    0.000 
#
# Total GULP energy -156346.915580 kJ/mol
# GULP energy per Si atom -5583.818414 kJ/mol
# Density = 2.099693 g / cm^3
# Si number density = 21.044833 Si / 1000 Ang^3
#
#
#
# Elastic Constant Matrix: (Units=GPa)
#
#
# Indices 1 2 3 4 5 6 
#
# 1 101.3908 27.8430 10.0125 -0.0001 -22.2869 0.0000
# 2 27.8430 114.4045 38.0343 -0.0001 -4.3603 0.0000
# 3 10.0125 38.0343 81.0724 0.0000 -1.5867 0.0000
# 4 -0.0001 -0.0001 0.0000 28.3231 0.0000 -17.1774
# 5 -22.2869 -4.3603 -1.5867 0.0000 33.3289 0.0000
# 6 0.0000 0.0000 0.0000 -17.1774 0.0000 25.6170
#
#
#
# Elastic Compliance Matrix: (Units=1/GPa)
#
#
# Indices 1 2 3 4 5 6 
#
# 1 0.012342 -0.002663 -0.000121 0.000000 0.007899 0.000000
# 2 -0.002663 0.010973 -0.004830 0.000000 -0.000575 0.000000
# 3 -0.000121 -0.004830 0.014615 0.000000 -0.000017 0.000000
# 4 0.000000 0.000000 0.000000 0.059507 0.000000 0.039902
# 5 0.007899 -0.000575 -0.000017 0.000000 0.035210 0.000000
# 6 0.000000 0.000000 0.000000 0.039902 0.000000 0.065793
#
#
# Mechanical properties :
#
#
# Convention : Reuss Voigt Hill
#
# Bulk Modulus (GPa) = 44.04590 49.84969 46.94780
# Shear Modulus (GPa) = 22.60045 32.18567 27.39306
#
# Velocity S-wave (km/s) = 3.28063 3.91498 3.61176
# Velocity P-wave (km/s) = 5.94348 6.64642 6.30476
#
# Compressibility (1/GPa) = 0.02270359
#
# Stress axis : x y z
#
# Youngs Moduli (GPa) = 81.02257 91.13409 68.42168
#
# Poissons Ratio (x) = 0.24266 0.00825
# Poissons Ratio (y) = 0.21573 0.33049
# Poissons Ratio (z) = 0.00976 0.44020
#
# Static dielectric constant tensor:
#      x y z
#    x 1.817770 0.000000 0.024890 
#    y 0.000000 1.749450 0.000000 
#    z 0.024890 0.000000 1.744950 
# 
# From -- ./inp_files/317584.got.cif
#   From: 2010.05.17/outbox.cif.g08.bks.cpg/sg15_159_cif.got.tgz:317584.got - 2010.06.03 18:47:42.
