data_PCOD9304822
_publ_section_title
;
Structure prediction by ZEFSAII (Michael W. Deem and Ramdas Pophale) SiO2 
 PCOD9304822
Probable space group: C 2/C
;
_chemical_formula_sum "Si O2"
_cell_formula_units_Z 32
_cell_length_a 6.345257
_cell_length_b 21.322123
_cell_length_c 11.099692
_cell_angle_alpha 90.000000
_cell_angle_beta 105.893773
_cell_angle_gamma 90.000000
_cell_volume 1444.316266
_symmetry_space_group_name_H-M "C 2/C"
_symmetry_group_IT_number 15
_symmetry_cell_setting 'monoclinic'
loop_
_space_group_symop_operation_xyz
x,y,z
-x,y,1/2-z
-x,-y,-z
x,-y,1/2+z
1/2+x,1/2+y,z
1/2-x,1/2+y,1/2-z
1/2-x,1/2-y,-z
1/2+x,1/2-y,1/2+z
loop_
_atom_site_type_symbol
_atom_site_label
_atom_site_fract_x
_atom_site_fract_y
_atom_site_fract_z
Si Si1 0.000000 0.350828 0.250000
Si Si2 0.736831 0.754531 0.851287
Si Si3 0.000000 0.994373 0.750000
Si Si4 0.760548 0.607456 0.150686
Si Si5 0.594459 0.937592 0.074263
O O1 0.848090 0.303721 0.301291
O O2 0.071933 0.399093 0.367200
O O3 0.500000 0.756960 0.750000
O O4 0.831753 0.823628 0.836124
O O5 0.750000 0.750000 0.000000
O O6 0.904612 0.947198 0.836288
O O7 0.800838 0.038292 0.681515
O O8 0.000000 0.597626 0.250000
O O9 0.815147 0.604470 0.018882
O O10 0.500000 0.000000 0.000000
#
# Coordination Sequence:
#
# PCOD9304822 Si02
#       5
#     4   8   4   8   8
#     4  12  27  48  74 104 151 186 240 310 354 428
#     4  11  26  48  74 108 142 193 247 301 363 429
#     4  12  25  42  74 104 141 196 228 296 372 420
#     4  11  23  47  69 104 144 182 245 296 357 438
#     4  12  25  45  71 106 147 186 239 293 362 438
#
# _framework density 22.155815
#
# number of rings (size 3 to 8) (size 9 to 14) (size 15 to 20)
#    0.000    0.500    5.000    3.000    1.750    3.000 
#    0.000    0.000    0.000    0.000    0.000    0.000 
#    0.000    0.000    0.000    0.000    0.000    0.000 
#
# Total GULP energy -89276.642918 kJ/mol
# GULP energy per Si atom -5579.790182 kJ/mol
# Density = 2.210539 g / cm^3
# Si number density = 22.155815 Si / 1000 Ang^3
#
#
#
# Elastic Constant Matrix: (Units=GPa)
#
#
# Indices 1 2 3 4 5 6 
#
# 1 56.3091 37.2207 51.1535 0.0000 -26.0579 0.0000
# 2 37.2207 139.6160 53.5504 0.0000 -15.6607 0.0000
# 3 51.1535 53.5504 129.3567 0.0000 -25.6556 0.0000
# 4 0.0000 0.0000 0.0000 136.9578 0.0000 71.2227
# 5 -26.0579 -15.6607 -25.6556 0.0000 43.9342 0.0000
# 6 0.0000 0.0000 0.0000 71.2227 0.0000 139.3242
#
#
#
# Elastic Compliance Matrix: (Units=1/GPa)
#
#
# Indices 1 2 3 4 5 6 
#
# 1 0.035856 -0.004292 -0.009600 0.000000 0.014131 0.000000
# 2 -0.004292 0.009076 -0.002175 0.000000 -0.000581 0.000000
# 3 -0.009600 -0.002175 0.012604 0.000000 0.000891 0.000000
# 4 0.000000 0.000000 0.000000 0.009945 0.000000 -0.005084
# 5 0.014131 -0.000581 0.000891 0.000000 0.031456 0.000000
# 6 0.000000 0.000000 0.000000 -0.005084 0.000000 0.009777
#
#
# Mechanical properties :
#
#
# Convention : Reuss Voigt Hill
#
# Bulk Modulus (GPa) = 39.36635 67.68121 53.52378
# Shear Modulus (GPa) = 33.48625 76.26706 54.87666
#
# Velocity S-wave (km/s) = 3.89189 5.87348 4.98220
# Velocity P-wave (km/s) = 6.16460 8.75278 7.57012
#
# Compressibility (1/GPa) = 0.02540240
#
# Stress axis : x y z
#
# Youngs Moduli (GPa) = 27.88913 110.18261 79.34041
#
# Poissons Ratio (x) = 0.47289 0.76165
# Poissons Ratio (y) = 0.11970 0.17257
# Poissons Ratio (z) = 0.26773 0.23966
#
# Static dielectric constant tensor:
#      x y z
#    x 1.795180 0.000000 -0.029920 
#    y 0.000000 1.870530 0.000000 
#    z -0.029920 0.000000 1.797960 
# 
# From -- ./inp_files/72322.got.cif
#   From: 2010.05.17/outbox.cif.g08.bks.cpg/sg15_37_cif.got.tgz:72322.got - 2010.06.03 18:47:42.
