data_PCOD9304949
_publ_section_title
;
Structure prediction by ZEFSAII (Michael W. Deem and Ramdas Pophale) SiO2 
 PCOD9304949
Probable space group: C 2/C
;
_chemical_formula_sum "Si O2"
_cell_formula_units_Z 36
_cell_length_a 24.370331
_cell_length_b 8.828343
_cell_length_c 9.090578
_cell_angle_alpha 90.000000
_cell_angle_beta 130.455922
_cell_angle_gamma 90.000000
_cell_volume 1488.205036
_symmetry_space_group_name_H-M "C 2/C"
_symmetry_group_IT_number 15
_symmetry_cell_setting 'monoclinic'
loop_
_space_group_symop_operation_xyz
x,y,z
-x,y,1/2-z
-x,-y,-z
x,-y,1/2+z
1/2+x,1/2+y,z
1/2-x,1/2+y,1/2-z
1/2-x,1/2-y,-z
1/2+x,1/2-y,1/2+z
loop_
_atom_site_type_symbol
_atom_site_label
_atom_site_fract_x
_atom_site_fract_y
_atom_site_fract_z
Si Si1 0.176787 0.690756 0.439705
Si Si2 0.000000 0.439043 0.250000
Si Si3 0.602855 0.706772 0.274980
Si Si4 0.415887 0.450036 0.059618
Si Si5 0.361141 0.043876 0.855714
O O1 0.250000 0.750000 0.500000
O O2 0.128472 0.820534 0.430780
O O3 0.189476 0.567510 0.591834
O O4 0.139324 0.607471 0.238772
O O5 0.039670 0.324996 0.207003
O O6 0.059363 0.543197 0.431884
O O7 0.617656 0.609713 0.445747
O O8 0.657122 0.821258 0.289200
O O9 0.586425 0.587050 0.117107
O O10 0.500000 0.452650 0.250000
#
# Coordination Sequence:
#
# PCOD9304949 Si02
#       5
#     8   4   8   8   8
#     4  11  27  47  70 101 144 189 239 289 352 434
#     4  12  22  42  76 108 140 180 250 288 354 412
#     4  11  24  38  67 105 137 182 221 301 347 413
#     4  11  24  41  65 104 140 175 234 291 355 398
#     4  11  25  46  72 102 139 193 238 289 353 418
#
# _framework density 24.190213
#
# number of rings (size 3 to 8) (size 9 to 14) (size 15 to 20)
#    0.000    0.889    3.333    2.667    9.333    3.556 
#    0.000    2.222    0.000    0.000    0.000    0.000 
#    0.000    0.000    0.000    0.000    0.000    0.000 
#
# Total GULP energy -100589.059459 kJ/mol
# GULP energy per Si atom -5588.281081 kJ/mol
# Density = 2.413516 g / cm^3
# Si number density = 24.190213 Si / 1000 Ang^3
#
#
#
# Elastic Constant Matrix: (Units=GPa)
#
#
# Indices 1 2 3 4 5 6 
#
# 1 101.2490 24.7385 34.8069 0.0000 -38.4145 0.0000
# 2 24.7385 97.2939 31.7937 0.0000 -20.0529 0.0000
# 3 34.8069 31.7937 40.8111 0.0000 -24.3350 0.0000
# 4 0.0000 0.0000 0.0000 48.3641 0.0000 -31.2368
# 5 -38.4145 -20.0529 -24.3350 0.0000 37.7653 0.0000
# 6 0.0000 0.0000 0.0000 -31.2368 0.0000 49.8267
#
#
#
# Elastic Compliance Matrix: (Units=1/GPa)
#
#
# Indices 1 2 3 4 5 6 
#
# 1 0.017238 0.000763 -0.007470 0.000000 0.013127 0.000000
# 2 0.000763 0.013832 -0.010693 0.000000 0.001231 0.000000
# 3 -0.007470 -0.010693 0.050811 0.000000 0.019465 0.000000
# 4 0.000000 0.000000 0.000000 0.034745 0.000000 0.021782
# 5 0.013127 0.001231 0.019465 0.000000 0.053028 0.000000
# 6 0.000000 0.000000 0.000000 0.021782 0.000000 0.033725
#
#
# Mechanical properties :
#
#
# Convention : Reuss Voigt Hill
#
# Bulk Modulus (GPa) = 21.23904 46.89247 34.06575
# Shear Modulus (GPa) = 19.69501 37.05887 28.37694
#
# Velocity S-wave (km/s) = 2.85647 3.91829 3.42873
# Velocity P-wave (km/s) = 4.43602 6.31646 5.45784
#
# Compressibility (1/GPa) = 0.04708310
#
# Stress axis : x y z
#
# Youngs Moduli (GPa) = 58.00990 72.29650 19.68082
#
# Poissons Ratio (x) = -0.05518 0.14701
# Poissons Ratio (y) = -0.04428 0.21044
# Poissons Ratio (z) = 0.43331 0.77305
#
# Static dielectric constant tensor:
#      x y z
#    x 1.925130 0.000000 -0.077970 
#    y 0.000000 1.978920 0.000000 
#    z -0.077970 0.000000 1.785580 
# 
# From -- ./inp_files/59745.got.cif
#   From: 2010.05.17/outbox.cif.g08.bks.cpg/sg15_30_cif.got.tgz:59745.got - 2010.06.03 18:47:42.
