data_PCOD9304393
_publ_section_title
;
Structure prediction by ZEFSAII (Michael W. Deem and Ramdas Pophale) SiO2 
 PCOD9304393
Probable space group: C 2/C
;
_chemical_formula_sum "Si O2"
_cell_formula_units_Z 40
_cell_length_a 14.704938
_cell_length_b 11.215408
_cell_length_c 14.141726
_cell_angle_alpha 90.000000
_cell_angle_beta 53.212077
_cell_angle_gamma 90.000000
_cell_volume 1867.824227
_symmetry_space_group_name_H-M "C 2/C"
_symmetry_group_IT_number 15
_symmetry_cell_setting 'monoclinic'
loop_
_space_group_symop_operation_xyz
x,y,z
-x,y,1/2-z
-x,-y,-z
x,-y,1/2+z
1/2+x,1/2+y,z
1/2-x,1/2+y,1/2-z
1/2-x,1/2-y,-z
1/2+x,1/2-y,1/2+z
loop_
_atom_site_type_symbol
_atom_site_label
_atom_site_fract_x
_atom_site_fract_y
_atom_site_fract_z
Si Si1 0.619754 0.937516 0.944164
Si Si2 0.282968 0.283124 0.215598
Si Si3 0.017009 0.728456 0.842964
Si Si4 0.708870 0.633515 0.583059
Si Si5 0.591551 0.548734 0.014918
O O1 0.580957 0.836985 0.039753
O O2 0.679747 0.854837 0.827404
O O3 0.500000 0.000000 0.000000
O O4 0.698006 0.036875 0.941451
O O5 0.144920 0.286665 0.301537
O O6 0.333423 0.322071 0.286493
O O7 0.322864 0.373969 0.106510
O O8 0.000000 0.679598 0.750000
O O9 0.977786 0.864179 0.872953
O O10 0.750000 0.750000 0.500000
O O11 0.638183 0.557494 0.550721
O O12 0.500000 0.500000 0.000000
#
# Coordination Sequence:
#
# PCOD9304393 Si02
#       5
#     8   8   8   8   8
#     4  11  25  47  70 107 148 185 243 298 359 432
#     4  11  26  47  74 103 150 193 237 304 364 426
#     4  11  23  43  74 102 139 198 235 291 369 425
#     4  12  27  46  77 110 142 192 248 296 363 438
#     4  11  27  45  70 109 146 186 244 298 357 432
#
# _framework density 21.415291
#
# number of rings (size 3 to 8) (size 9 to 14) (size 15 to 20)
#    0.000    0.800    2.000    3.600   11.200    4.800 
#    0.000    0.000    0.000    0.000    0.000    0.000 
#    0.000    0.000    0.000    0.000    0.000    0.000 
#
# Total GULP energy -111463.649500 kJ/mol
# GULP energy per Si atom -5573.182475 kJ/mol
# Density = 2.136655 g / cm^3
# Si number density = 21.415291 Si / 1000 Ang^3
#
#
#
# Elastic Constant Matrix: (Units=GPa)
#
#
# Indices 1 2 3 4 5 6 
#
# 1 100.8015 72.7660 38.9126 0.0000 23.6126 0.0000
# 2 72.7660 139.5417 39.9503 0.0000 6.6859 0.0000
# 3 38.9126 39.9503 101.8237 0.0000 15.5219 0.0000
# 4 0.0000 0.0000 0.0000 33.4510 0.0000 4.8013
# 5 23.6126 6.6859 15.5219 0.0000 35.7403 0.0000
# 6 0.0000 0.0000 0.0000 4.8013 0.0000 41.2745
#
#
#
# Elastic Compliance Matrix: (Units=1/GPa)
#
#
# Indices 1 2 3 4 5 6 
#
# 1 0.019935 -0.009204 -0.002422 0.000000 -0.010397 0.000000
# 2 -0.009204 0.012323 -0.002027 0.000000 0.004656 0.000000
# 3 -0.002422 -0.002027 0.012037 0.000000 -0.003248 0.000000
# 4 0.000000 0.000000 0.000000 0.030402 0.000000 -0.003537
# 5 -0.010397 0.004656 -0.003248 0.000000 0.035388 0.000000
# 6 0.000000 0.000000 0.000000 -0.003537 0.000000 0.024639
#
#
# Mechanical properties :
#
#
# Convention : Reuss Voigt Hill
#
# Bulk Modulus (GPa) = 58.86417 71.71388 65.28903
# Shear Modulus (GPa) = 29.81613 34.79569 32.30591
#
# Velocity S-wave (km/s) = 3.73538 4.03526 3.88821
# Velocity P-wave (km/s) = 6.79343 7.43445 7.12116
#
# Compressibility (1/GPa) = 0.01698826
#
# Stress axis : x y z
#
# Youngs Moduli (GPa) = 50.16324 81.14856 83.07582
#
# Poissons Ratio (x) = 0.74687 0.20124
# Poissons Ratio (y) = 0.46169 0.16843
# Poissons Ratio (z) = 0.12151 0.16452
#
# Static dielectric constant tensor:
#      x y z
#    x 1.647550 0.000000 -0.093410 
#    y 0.000000 1.747940 0.000000 
#    z -0.093410 0.000000 1.934440 
# 
# From -- ./inp_files/94882.got.cif
#   From: 2010.05.17/outbox.cif.g08.bks.cpg/sg15_48_cif.got.tgz:94882.got - 2010.06.03 18:47:42.
