data_PCOD9304706
_publ_section_title
;
Structure prediction by ZEFSAII (Michael W. Deem and Ramdas Pophale) SiO2 
 PCOD9304706
Probable space group: C 2/C
;
_chemical_formula_sum "Si O2"
_cell_formula_units_Z 36
_cell_length_a 19.631243
_cell_length_b 7.257910
_cell_length_c 9.850909
_cell_angle_alpha 90.000000
_cell_angle_beta 91.713963
_cell_angle_gamma 90.000000
_cell_volume 1402.947237
_symmetry_space_group_name_H-M "C 2/C"
_symmetry_group_IT_number 15
_symmetry_cell_setting 'monoclinic'
loop_
_space_group_symop_operation_xyz
x,y,z
-x,y,1/2-z
-x,-y,-z
x,-y,1/2+z
1/2+x,1/2+y,z
1/2-x,1/2+y,1/2-z
1/2-x,1/2-y,-z
1/2+x,1/2-y,1/2+z
loop_
_atom_site_type_symbol
_atom_site_label
_atom_site_fract_x
_atom_site_fract_y
_atom_site_fract_z
Si Si1 0.907315 0.512380 0.062638
Si Si2 0.571858 0.597890 0.536234
Si Si3 0.829010 0.627618 0.801633
Si Si4 0.208237 0.088003 0.415147
Si Si5 0.000000 0.743457 0.250000
O O1 0.850118 0.509105 0.178375
O O2 0.970495 0.615512 0.131631
O O3 0.921949 0.297480 0.035775
O O4 0.885983 0.605541 0.920516
O O5 0.500000 0.500000 0.500000
O O6 0.643773 0.513717 0.495985
O O7 0.561904 0.636923 0.695133
O O8 0.818265 0.818160 0.724719
O O9 0.761194 0.564917 0.873499
O O10 0.250000 0.250000 0.500000
#
# Coordination Sequence:
#
# PCOD9304706 Si02
#       5
#     8   8   8   8   4
#     4  11  23  47  76 102 144 208 256 304 384 470
#     4  11  26  45  70 110 151 193 248 323 379 440
#     4  11  23  45  77 106 146 200 254 315 375 450
#     4  11  23  48  74 108 152 191 254 317 378 456
#     4  12  24  48  74 100 152 208 256 294 388 480
#
# _framework density 25.660267999999999
#
# number of rings (size 3 to 8) (size 9 to 14) (size 15 to 20)
#    0.000    0.889    6.667    0.667    0.000    5.333 
#    8.000    0.000    0.000    0.000    0.000    0.000 
#    0.000    0.000    0.000    0.000    0.000    0.000 
#
# Total GULP energy -100782.021897 kJ/mol
# GULP energy per Si atom -5599.001216 kJ/mol
# Density = 2.560186 g / cm^3
# Si number density = 25.660268 Si / 1000 Ang^3
#
#
#
# Elastic Constant Matrix: (Units=GPa)
#
#
# Indices 1 2 3 4 5 6 
#
# 1 165.9768 31.3685 63.5498 0.0000 -35.9854 0.0000
# 2 31.3685 64.2121 28.8729 0.0000 6.5227 0.0000
# 3 63.5498 28.8729 157.1865 0.0000 7.9935 0.0000
# 4 0.0000 0.0000 0.0000 31.5269 0.0000 -0.8146
# 5 -35.9854 6.5227 7.9935 0.0000 76.3672 0.0000
# 6 0.0000 0.0000 0.0000 -0.8146 0.0000 41.3128
#
#
#
# Elastic Compliance Matrix: (Units=1/GPa)
#
#
# Indices 1 2 3 4 5 6 
#
# 1 0.008965 -0.003414 -0.003244 0.000000 0.004856 0.000000
# 2 -0.003414 0.018373 -0.001843 0.000000 -0.002985 0.000000
# 3 -0.003244 -0.001843 0.008125 0.000000 -0.002222 0.000000
# 4 0.000000 0.000000 0.000000 0.031735 0.000000 0.000626
# 5 0.004856 -0.002985 -0.002222 0.000000 0.015870 0.000000
# 6 0.000000 0.000000 0.000000 0.000626 0.000000 0.024218
#
#
# Mechanical properties :
#
#
# Convention : Reuss Voigt Hill
#
# Bulk Modulus (GPa) = 54.16875 70.55088 62.35981
# Shear Modulus (GPa) = 38.33108 47.41367 42.87238
#
# Velocity S-wave (km/s) = 3.86915 4.30321 4.09194
# Velocity P-wave (km/s) = 6.41220 7.22800 6.83229
#
# Compressibility (1/GPa) = 0.01846083
#
# Stress axis : x y z
#
# Youngs Moduli (GPa) = 111.54295 54.42768 123.07617
#
# Poissons Ratio (x) = 0.18582 0.39931
# Poissons Ratio (y) = 0.38081 0.22680
# Poissons Ratio (z) = 0.36189 0.10030
#
# Static dielectric constant tensor:
#      x y z
#    x 2.105430 0.000000 -0.048490 
#    y 0.000000 2.163320 0.000000 
#    z -0.048490 0.000000 2.045880 
# 
# From -- ./inp_files/53637.got.cif
#   From: 2010.05.17/outbox.cif.g08.bks.cpg/sg15_27_cif.got.tgz:53637.got - 2010.06.03 18:47:42.
