data_PCOD9304005
_publ_section_title
;
Structure prediction by ZEFSAII (Michael W. Deem and Ramdas Pophale) SiO2 
 PCOD9304005
Probable space group: C 2/C
;
_chemical_formula_sum "Si O2"
_cell_formula_units_Z 56
_cell_length_a 19.346523
_cell_length_b 5.390140
_cell_length_c 25.005597
_cell_angle_alpha 90.000000
_cell_angle_beta 121.362268
_cell_angle_gamma 90.000000
_cell_volume 2226.609294
_symmetry_space_group_name_H-M "C 2/C"
_symmetry_group_IT_number 15
_symmetry_cell_setting 'monoclinic'
loop_
_space_group_symop_operation_xyz
x,y,z
-x,y,1/2-z
-x,-y,-z
x,-y,1/2+z
1/2+x,1/2+y,z
1/2-x,1/2+y,1/2-z
1/2-x,1/2-y,-z
1/2+x,1/2-y,1/2+z
loop_
_atom_site_type_symbol
_atom_site_label
_atom_site_fract_x
_atom_site_fract_y
_atom_site_fract_z
Si Si1 0.956601 0.060449 0.335761
Si Si2 0.378348 0.796756 0.082914
Si Si3 0.632065 0.039545 0.524271
Si Si4 0.709146 0.520677 0.864250
Si Si5 0.714693 0.244207 0.761857
Si Si6 0.435493 0.813393 0.689495
Si Si7 0.023358 0.201571 0.553939
O O1 0.881869 0.222159 0.286057
O O2 0.028699 0.221574 0.390216
O O3 0.930770 0.890929 0.375236
O O4 0.004092 0.892318 0.311578
O O5 0.333365 0.593149 0.100453
O O6 0.389656 0.030140 0.126425
O O7 0.338842 0.851893 0.010090
O O8 0.709432 0.156071 0.583999
O O9 0.579062 0.904565 0.547949
O O10 0.566669 0.205877 0.467225
O O11 0.730295 0.305865 0.830523
O O12 0.639666 0.689562 0.809947
O O13 0.755423 0.477122 0.746459
O O14 0.500000 0.971648 0.750000
O O15 0.000000 0.000000 0.500000
#
# Coordination Sequence:
#
# PCOD9304005 Si02
#       7
#     8   8   8   8   8   8   8
#     4  11  24  45  69 101 138 181 241 286 359 426
#     4  11  25  42  72  97 135 184 233 298 353 431
#     4  11  24  44  67  99 138 179 239 289 362 429
#     4  11  27  44  68 105 136 185 233 301 360 427
#     4  12  30  48  75 109 147 191 240 303 363 428
#     4  11  24  44  70  96 135 183 235 293 354 427
#     4  11  23  41  69  96 132 183 225 290 350 428
#
# _framework density 25.15035
#
# number of rings (size 3 to 8) (size 9 to 14) (size 15 to 20)
#    0.000    0.857    4.286    1.286    8.000    1.714 
#    0.000    0.000    0.000    0.000    0.000    0.000 
#    0.000    0.000    0.000    0.000    0.000    0.000 
#
# Total GULP energy -156631.558511 kJ/mol
# GULP energy per Si atom -5593.984233 kJ/mol
# Density = 2.509311 g / cm^3
# Si number density = 25.150350 Si / 1000 Ang^3
#
#
#
# Elastic Constant Matrix: (Units=GPa)
#
#
# Indices 1 2 3 4 5 6 
#
# 1 97.0854 17.6533 25.3718 0.0000 13.7875 0.0003
# 2 17.6533 46.8304 -15.3235 -0.0019 7.4264 0.0015
# 3 25.3718 -15.3235 80.4530 0.0000 21.9594 0.0001
# 4 0.0000 -0.0019 0.0000 21.7275 0.0001 -10.7495
# 5 13.7875 7.4264 21.9594 0.0001 52.9223 -0.0001
# 6 0.0003 0.0015 0.0001 -10.7495 -0.0001 35.1067
#
#
#
# Elastic Compliance Matrix: (Units=1/GPa)
#
#
# Indices 1 2 3 4 5 6 
#
# 1 0.012895 -0.006532 -0.005237 -0.000001 -0.000270 0.000000
# 2 -0.006532 0.027675 0.008939 0.000002 -0.005891 -0.000001
# 3 -0.005237 0.008939 0.017766 0.000001 -0.007262 0.000000
# 4 -0.000001 0.000002 0.000001 0.054241 0.000000 0.016608
# 5 -0.000270 -0.005891 -0.007262 0.000000 0.022806 0.000000
# 6 0.000000 -0.000001 0.000000 0.016608 0.000000 0.033570
#
#
# Mechanical properties :
#
#
# Convention : Reuss Voigt Hill
#
# Bulk Modulus (GPa) = 18.98401 31.08579 25.03490
# Shear Modulus (GPa) = 26.01857 35.06246 30.54051
#
# Velocity S-wave (km/s) = 3.21989 3.73783 3.48849
# Velocity P-wave (km/s) = 4.62473 5.56914 5.11876
#
# Compressibility (1/GPa) = 0.05267592
#
# Stress axis : x y z
#
# Youngs Moduli (GPa) = 77.55073 36.13387 56.28819
#
# Poissons Ratio (x) = 0.23601 0.29478
# Poissons Ratio (y) = 0.50653 -0.50315
# Poissons Ratio (z) = 0.40613 -0.32299
#
# Static dielectric constant tensor:
#      x y z
#    x 2.035450 0.000000 -0.096870 
#    y 0.000000 2.132990 0.000000 
#    z -0.096870 0.000000 2.055940 
# 
# From -- ./inp_files/299970.got.cif
#   From: 2010.05.17/outbox.cif.g08.bks.cpg/sg15_150_cif.got.tgz:299970.got - 2010.06.03 18:47:42.
