data_PCOD9304194
_publ_section_title
;
Structure prediction by ZEFSAII (Michael W. Deem and Ramdas Pophale) SiO2 
 PCOD9304194
Probable space group: C 2/C
;
_chemical_formula_sum "Si O2"
_cell_formula_units_Z 44
_cell_length_a 16.735331
_cell_length_b 9.509146
_cell_length_c 13.595130
_cell_angle_alpha 90.000000
_cell_angle_beta 83.888028
_cell_angle_gamma 90.000000
_cell_volume 2151.213386
_symmetry_space_group_name_H-M "C 2/C"
_symmetry_group_IT_number 15
_symmetry_cell_setting 'monoclinic'
loop_
_space_group_symop_operation_xyz
x,y,z
-x,y,1/2-z
-x,-y,-z
x,-y,1/2+z
1/2+x,1/2+y,z
1/2-x,1/2+y,1/2-z
1/2-x,1/2-y,-z
1/2+x,1/2-y,1/2+z
loop_
_atom_site_type_symbol
_atom_site_label
_atom_site_fract_x
_atom_site_fract_y
_atom_site_fract_z
Si Si1 0.282205 0.858775 0.294884
Si Si2 0.706595 0.695751 0.602865
Si Si3 0.904806 0.611516 0.263877
Si Si4 0.388243 0.645572 0.621644
Si Si5 0.500000 0.471884 0.750000
Si Si6 0.139073 0.119255 0.099209
O O1 0.265390 0.794827 0.189480
O O2 0.196894 0.925615 0.338155
O O3 0.301552 0.740906 0.373028
O O4 0.352779 0.971354 0.279363
O O5 0.750000 0.750000 0.500000
O O6 0.628053 0.786345 0.644559
O O7 0.680580 0.533603 0.595445
O O8 0.884422 0.698095 0.167439
O O9 0.000000 0.587794 0.250000
O O10 0.458097 0.567779 0.672329
O O11 0.395680 0.644381 0.504499
O O12 0.432012 0.382984 0.812090
#
# Coordination Sequence:
#
# PCOD9304194 Si02
#       6
#     8   8   8   8   4   8
#     4  11  25  44  69  98 142 177 232 282 342 417
#     4  11  23  42  73 100 133 182 235 282 346 412
#     4  11  23  45  66  98 142 180 220 290 351 407
#     4  11  23  45  71  96 135 184 232 280 350 406
#     4  12  24  44  68 102 140 178 228 296 334 418
#     4  12  25  43  72 103 134 183 235 285 341 417
#
# _framework density 20.453572999999999
#
# number of rings (size 3 to 8) (size 9 to 14) (size 15 to 20)
#    0.000    0.727    4.545    4.364    3.818    1.455 
#    0.000    1.818    0.000    0.000    0.000    0.000 
#    0.000    0.000    0.000    0.000    0.000    0.000 
#
# Total GULP energy -123031.712416 kJ/mol
# GULP energy per Si atom -5592.350564 kJ/mol
# Density = 2.040702 g / cm^3
# Si number density = 20.453573 Si / 1000 Ang^3
#
#
#
# Elastic Constant Matrix: (Units=GPa)
#
#
# Indices 1 2 3 4 5 6 
#
# 1 112.7111 32.9876 8.0413 0.0000 4.2385 0.0000
# 2 32.9876 57.6679 0.8519 0.0000 -4.1579 0.0000
# 3 8.0413 0.8519 106.8873 0.0000 18.1506 0.0000
# 4 0.0000 0.0000 0.0000 19.5876 0.0000 -0.3712
# 5 4.2385 -4.1579 18.1506 0.0000 33.0916 0.0000
# 6 0.0000 0.0000 0.0000 -0.3712 0.0000 29.4622
#
#
#
# Elastic Compliance Matrix: (Units=1/GPa)
#
#
# Indices 1 2 3 4 5 6 
#
# 1 0.010828 -0.006328 -0.000434 0.000000 -0.001944 0.000000
# 2 -0.006328 0.021228 -0.000313 0.000000 0.003649 0.000000
# 3 -0.000434 -0.000313 0.010352 0.000000 -0.005662 0.000000
# 4 0.000000 0.000000 0.000000 0.051065 0.000000 0.000643
# 5 -0.001944 0.003649 -0.005662 0.000000 0.034032 0.000000
# 6 0.000000 0.000000 0.000000 0.000643 0.000000 0.033950
#
#
# Mechanical properties :
#
#
# Convention : Reuss Voigt Hill
#
# Bulk Modulus (GPa) = 35.38680 40.11420 37.75050
# Shear Modulus (GPa) = 27.02338 32.12063 29.57201
#
# Velocity S-wave (km/s) = 3.63878 3.96715 3.80651
# Velocity P-wave (km/s) = 5.91548 6.37489 6.14948
#
# Compressibility (1/GPa) = 0.02825912
#
# Stress axis : x y z
#
# Youngs Moduli (GPa) = 92.35058 47.10741 96.59743
#
# Poissons Ratio (x) = 0.29809 0.04193
# Poissons Ratio (y) = 0.58438 0.03022
# Poissons Ratio (z) = 0.04009 0.01474
#
# Static dielectric constant tensor:
#      x y z
#    x 1.740750 0.000000 -0.006020 
#    y 0.000000 1.743300 0.000000 
#    z -0.006020 0.000000 1.713090 
# 
# From -- ./inp_files/159262.got.cif
#   From: 2010.05.17/outbox.cif.g08.bks.cpg/sg15_80_cif.got.tgz:159262.got - 2010.06.03 18:47:42.
