data_PCOD9304346
_publ_section_title
;
Structure prediction by ZEFSAII (Michael W. Deem and Ramdas Pophale) SiO2 
 PCOD9304346
Probable space group: C 2/C
;
_chemical_formula_sum "Si O2"
_cell_formula_units_Z 60
_cell_length_a 23.688486
_cell_length_b 8.084508
_cell_length_c 25.945746
_cell_angle_alpha 90.000000
_cell_angle_beta 146.065706
_cell_angle_gamma 90.000000
_cell_volume 2773.827312
_symmetry_space_group_name_H-M "C 2/C"
_symmetry_group_IT_number 15
_symmetry_cell_setting 'monoclinic'
loop_
_space_group_symop_operation_xyz
x,y,z
-x,y,1/2-z
-x,-y,-z
x,-y,1/2+z
1/2+x,1/2+y,z
1/2-x,1/2+y,1/2-z
1/2-x,1/2-y,-z
1/2+x,1/2-y,1/2+z
loop_
_atom_site_type_symbol
_atom_site_label
_atom_site_fract_x
_atom_site_fract_y
_atom_site_fract_z
Si Si1 0.494438 0.358976 0.586736
Si Si2 0.371778 0.820501 0.390345
Si Si3 0.705241 0.807178 0.521189
Si Si4 0.689995 0.931359 0.736090
Si Si5 0.483239 0.269399 0.073803
Si Si6 0.131418 0.714971 0.771518
Si Si7 0.000000 0.507775 0.750000
Si Si8 0.352624 0.840385 0.564053
O O1 0.533400 0.226939 0.574393
O O2 0.388450 0.303384 0.530651
O O3 0.492293 0.541931 0.562233
O O4 0.577389 0.349389 0.694923
O O5 0.289898 0.674109 0.321852
O O6 0.416416 0.827906 0.481128
O O7 0.318475 0.982236 0.326347
O O8 0.750000 0.750000 0.500000
O O9 0.790447 0.789600 0.629067
O O10 0.669572 0.993596 0.484907
O O11 0.590974 0.816019 0.664131
O O12 0.681348 0.078747 0.771429
O O13 0.424264 0.270989 0.083058
O O14 0.045407 0.619884 0.739065
O O15 0.088831 0.397207 0.840588
O O16 0.250000 0.750000 0.500000
#
# Coordination Sequence:
#
# PCOD9304346 Si02
#       8
#     8   8   8   8   8   8   4   8
#     4  11  24  43  66 103 130 180 231 281 347 406
#     4  11  25  43  68  96 136 181 226 283 342 408
#     4  12  23  43  70  96 133 179 233 277 345 418
#     4  11  24  44  66  99 132 183 226 279 349 409
#     4  12  25  43  68  99 140 172 229 286 342 409
#     4  11  23  43  71  93 133 182 224 287 340 409
#     4  12  22  48  70  92 146 176 222 282 344 410
#     4  12  27  42  70 106 136 181 226 286 347 409
#
# _framework density 21.630763000000002
#
# number of rings (size 3 to 8) (size 9 to 14) (size 15 to 20)
#    0.000    0.533    4.000    4.000    1.867    6.400 
#    0.000    0.000    0.000    0.000    0.000    0.000 
#    0.000    0.000    0.000    0.000    0.000    0.000 
#
# Total GULP energy -167989.414851 kJ/mol
# GULP energy per Si atom -5599.647162 kJ/mol
# Density = 2.158153 g / cm^3
# Si number density = 21.630763 Si / 1000 Ang^3
#
#
#
# Elastic Constant Matrix: (Units=GPa)
#
#
# Indices 1 2 3 4 5 6 
#
# 1 70.9098 -3.7403 22.5801 0.0000 0.1886 0.0000
# 2 -3.7403 55.2265 21.7242 -0.0001 4.1652 0.0000
# 3 22.5801 21.7242 108.2887 0.0000 -2.4899 0.0000
# 4 0.0000 -0.0001 0.0000 24.8599 0.0000 3.6514
# 5 0.1886 4.1652 -2.4899 0.0000 33.2689 0.0000
# 6 0.0000 0.0000 0.0000 3.6514 0.0000 29.1467
#
#
#
# Elastic Compliance Matrix: (Units=1/GPa)
#
#
# Indices 1 2 3 4 5 6 
#
# 1 0.015434 0.002573 -0.003750 0.000000 -0.000690 0.000000
# 2 0.002573 0.020344 -0.004685 0.000000 -0.002912 0.000000
# 3 -0.003750 -0.004685 0.010989 0.000000 0.001430 0.000000
# 4 0.000000 0.000000 0.000000 0.040979 0.000000 -0.005134
# 5 -0.000690 -0.002912 0.001430 0.000000 0.030534 0.000000
# 6 0.000000 0.000000 0.000000 -0.005134 0.000000 0.034952
#
#
# Mechanical properties :
#
#
# Convention : Reuss Voigt Hill
#
# Bulk Modulus (GPa) = 28.53667 35.06145 31.79906
# Shear Modulus (GPa) = 28.30644 30.37918 29.34281
#
# Velocity S-wave (km/s) = 3.62141 3.75166 3.68711
# Velocity P-wave (km/s) = 5.54143 5.91699 5.73229
#
# Compressibility (1/GPa) = 0.03504263
#
# Stress axis : x y z
#
# Youngs Moduli (GPa) = 64.79131 49.15482 90.99791
#
# Poissons Ratio (x) = -0.12645 0.34127
# Poissons Ratio (y) = -0.16668 0.42629
# Poissons Ratio (z) = 0.24298 0.23027
#
# Static dielectric constant tensor:
#      x y z
#    x 1.787260 0.000000 -0.001160 
#    y 0.000000 1.776450 0.000000 
#    z -0.001160 0.000000 1.757630 
# 
# From -- ./inp_files/302072.got.cif
#   From: 2010.05.17/outbox.cif.g08.bks.cpg/sg15_152_cif.got.tgz:302072.got - 2010.06.03 18:47:42.
