data_PCOD9304164
_publ_section_title
;
Structure prediction by ZEFSAII (Michael W. Deem and Ramdas Pophale) SiO2 
 PCOD9304164
Probable space group: C 2/C
;
_chemical_formula_sum "Si O2"
_cell_formula_units_Z 48
_cell_length_a 19.146763
_cell_length_b 16.839810
_cell_length_c 15.958023
_cell_angle_alpha 90.000000
_cell_angle_beta 152.520002
_cell_angle_gamma 90.000000
_cell_volume 2374.246826
_symmetry_space_group_name_H-M "C 2/C"
_symmetry_group_IT_number 15
_symmetry_cell_setting 'monoclinic'
loop_
_space_group_symop_operation_xyz
x,y,z
-x,y,1/2-z
-x,-y,-z
x,-y,1/2+z
1/2+x,1/2+y,z
1/2-x,1/2+y,1/2-z
1/2-x,1/2-y,-z
1/2+x,1/2-y,1/2+z
loop_
_atom_site_type_symbol
_atom_site_label
_atom_site_fract_x
_atom_site_fract_y
_atom_site_fract_z
Si Si1 0.268758 0.586757 0.857971
Si Si2 0.181915 0.662722 0.939923
Si Si3 0.078562 0.292178 0.058225
Si Si4 0.801217 0.412358 0.737430
Si Si5 0.650112 0.298920 0.459289
Si Si6 0.900222 0.868784 0.823861
O O1 0.228008 0.614045 0.907424
O O2 0.216440 0.653737 0.736345
O O3 0.176160 0.505989 0.743814
O O4 0.450378 0.583964 0.044157
O O5 0.000000 0.665108 0.750000
O O6 0.250000 0.750000 0.000000
O O7 0.269064 0.630624 0.114393
O O8 0.057844 0.222074 0.104681
O O9 0.111131 0.252479 0.002013
O O10 0.937078 0.352335 0.904563
O O11 0.736853 0.376777 0.582756
O O12 0.672008 0.403553 0.669458
O O13 0.500000 0.320530 0.250000
O O14 0.750000 0.250000 0.500000
#
# Coordination Sequence:
#
# PCOD9304164 Si02
#       6
#     8   8   8   8   8   8
#     4  12  25  43  67 101 137 173 220 281 334 390
#     4  12  25  43  69 100 134 177 226 271 327 402
#     4  11  23  42  70  94 133 179 223 268 331 405
#     4  11  25  44  65 102 134 172 222 279 339 386
#     4  11  23  44  69  95 127 173 226 271 325 401
#     4  11  23  43  70  98 135 179 224 267 334 403
#
# _framework density 20.216937999999999
#
# number of rings (size 3 to 8) (size 9 to 14) (size 15 to 20)
#    0.000    0.667    3.333    5.500    2.333    1.333 
#    6.000    0.000    0.000    0.000    0.000    0.000 
#    0.000    0.000    0.000    0.000    0.000    0.000 
#
# Total GULP energy -134117.584679 kJ/mol
# GULP energy per Si atom -5588.232695 kJ/mol
# Density = 2.017092 g / cm^3
# Si number density = 20.216938 Si / 1000 Ang^3
#
#
#
# Elastic Constant Matrix: (Units=GPa)
#
#
# Indices 1 2 3 4 5 6 
#
# 1 93.4039 10.6687 22.4035 0.0000 3.2187 -0.0001
# 2 10.6687 83.1573 4.0644 0.0002 -11.2698 0.0000
# 3 22.4035 4.0644 123.4076 0.0005 -4.2734 0.0000
# 4 0.0000 0.0002 0.0005 20.1402 0.0004 0.7456
# 5 3.2187 -11.2698 -4.2734 0.0004 39.0368 0.0000
# 6 -0.0001 0.0000 0.0000 0.7456 0.0000 13.3427
#
#
#
# Elastic Compliance Matrix: (Units=1/GPa)
#
#
# Indices 1 2 3 4 5 6 
#
# 1 0.011443 -0.001587 -0.002082 0.000000 -0.001630 0.000000
# 2 -0.001587 0.012745 0.000000 0.000000 0.003810 0.000000
# 3 -0.002082 0.000000 0.008519 0.000000 0.001104 0.000000
# 4 0.000000 0.000000 0.000000 0.049755 -0.000001 -0.002780
# 5 -0.001630 0.003810 0.001104 -0.000001 0.026972 0.000000
# 6 0.000000 0.000000 0.000000 -0.002780 0.000000 0.075103
#
#
# Mechanical properties :
#
#
# Convention : Reuss Voigt Hill
#
# Bulk Modulus (GPa) = 39.41521 41.58246 40.49883
# Shear Modulus (GPa) = 24.95868 32.02609 28.49238
#
# Velocity S-wave (km/s) = 3.51742 3.98442 3.75818
# Velocity P-wave (km/s) = 6.00290 6.46376 6.23759
#
# Compressibility (1/GPa) = 0.02537092
#
# Stress axis : x y z
#
# Youngs Moduli (GPa) = 87.39046 78.45952 117.38003
#
# Poissons Ratio (x) = 0.12453 0.24433
# Poissons Ratio (y) = 0.13870 -0.00004
# Poissons Ratio (z) = 0.18190 -0.00003
#
# Static dielectric constant tensor:
#      x y z
#    x 1.695260 0.000000 0.008650 
#    y 0.000000 1.759900 0.000000 
#    z 0.008650 0.000000 1.754100 
# 
# From -- ./inp_files/163313.got.cif
#   From: 2010.05.17/outbox.cif.g08.bks.cpg/sg15_82_cif.got.tgz:163313.got - 2010.06.03 18:47:42.
