data_PCOD9304423
_publ_section_title
;
Structure prediction by ZEFSAII (Michael W. Deem and Ramdas Pophale) SiO2 
 PCOD9304423
Probable space group: C 2/C
;
_chemical_formula_sum "Si O2"
_cell_formula_units_Z 40
_cell_length_a 9.180591
_cell_length_b 8.480122
_cell_length_c 22.007144
_cell_angle_alpha 90.000000
_cell_angle_beta 82.441540
_cell_angle_gamma 90.000000
_cell_volume 1698.425195
_symmetry_space_group_name_H-M "C 2/C"
_symmetry_group_IT_number 15
_symmetry_cell_setting 'monoclinic'
loop_
_space_group_symop_operation_xyz
x,y,z
-x,y,1/2-z
-x,-y,-z
x,-y,1/2+z
1/2+x,1/2+y,z
1/2-x,1/2+y,1/2-z
1/2-x,1/2-y,-z
1/2+x,1/2-y,1/2+z
loop_
_atom_site_type_symbol
_atom_site_label
_atom_site_fract_x
_atom_site_fract_y
_atom_site_fract_z
Si Si1 0.459308 0.167797 0.407597
Si Si2 0.449047 0.168374 0.864459
Si Si3 0.788231 0.837406 0.317540
Si Si4 0.730873 0.176416 0.299943
Si Si5 0.419110 0.329578 0.985871
O O1 0.351630 0.286135 0.378614
O O2 0.608035 0.174570 0.359125
O O3 0.490347 0.214256 0.474555
O O4 0.406101 0.989461 0.403073
O O5 0.613141 0.162180 0.831761
O O6 0.340161 0.186947 0.814717
O O7 0.443422 0.310143 0.912900
O O8 0.831709 0.715891 0.262479
O O9 0.823127 0.015297 0.296489
O O10 0.500000 0.500000 0.000000
O O11 0.250000 0.250000 0.000000
#
# Coordination Sequence:
#
# PCOD9304423 Si02
#       5
#     8   8   8   8   8
#     4  11  25  44  69  99 139 182 236 291 360 433
#     4  11  25  44  69  99 139 181 235 291 361 432
#     4  11  25  40  69 100 135 185 230 294 355 432
#     4  11  23  44  65 101 140 179 235 287 359 429
#     4  12  27  47  76 104 142 189 242 301 371 446
#
# _framework density 23.551228999999999
#
# number of rings (size 3 to 8) (size 9 to 14) (size 15 to 20)
#    0.000    0.800    2.000    4.200    5.600   10.400 
#    0.000    0.000    0.000    0.000    0.000    0.000 
#    0.000    0.000    0.000    0.000    0.000    0.000 
#
# Total GULP energy -111592.613552 kJ/mol
# GULP energy per Si atom -5579.630678 kJ/mol
# Density = 2.349763 g / cm^3
# Si number density = 23.551229 Si / 1000 Ang^3
#
#
#
# Elastic Constant Matrix: (Units=GPa)
#
#
# Indices 1 2 3 4 5 6 
#
# 1 69.9946 13.2121 -5.5440 0.0000 12.6841 0.0000
# 2 13.2121 96.6767 -7.3665 0.0000 2.0548 0.0000
# 3 -5.5440 -7.3665 70.8981 0.0000 13.5951 0.0000
# 4 0.0000 0.0000 0.0000 37.3986 0.0000 10.4979
# 5 12.6841 2.0548 13.5951 0.0000 35.2101 0.0000
# 6 0.0000 0.0000 0.0000 10.4979 0.0000 22.7671
#
#
#
# Elastic Compliance Matrix: (Units=1/GPa)
#
#
# Indices 1 2 3 4 5 6 
#
# 1 0.016011 -0.001873 0.002314 0.000000 -0.006552 0.000000
# 2 -0.001873 0.010686 0.001030 0.000000 -0.000347 0.000000
# 3 0.002314 0.001030 0.015729 0.000000 -0.006967 0.000000
# 4 0.000000 0.000000 0.000000 0.030714 0.000000 -0.014162
# 5 -0.006552 -0.000347 -0.006967 0.000000 0.033471 0.000000
# 6 0.000000 0.000000 0.000000 -0.014162 0.000000 0.050453
#
#
# Mechanical properties :
#
#
# Convention : Reuss Voigt Hill
#
# Bulk Modulus (GPa) = 22.04185 26.46363 24.25274
# Shear Modulus (GPa) = 29.54318 34.89301 32.21809
#
# Velocity S-wave (km/s) = 3.54562 3.85330 3.70266
# Velocity P-wave (km/s) = 5.11286 5.57300 5.34788
#
# Compressibility (1/GPa) = 0.04536825
#
# Stress axis : x y z
#
# Youngs Moduli (GPa) = 62.45770 93.58440 63.57822
#
# Poissons Ratio (x) = 0.17524 -0.14711
# Poissons Ratio (y) = 0.11695 -0.06551
# Poissons Ratio (z) = -0.14451 -0.09642
#
# Static dielectric constant tensor:
#      x y z
#    x 1.916800 0.000000 -0.042610 
#    y 0.000000 2.005530 0.000000 
#    z -0.042610 0.000000 1.790120 
# 
# From -- ./inp_files/262468.got.cif
#   From: 2010.05.17/outbox.cif.g08.bks.cpg/sg15_132_cif.got.tgz:262468.got - 2010.06.03 18:47:42.
