data_PCOD9304299
_publ_section_title
;
Structure prediction by ZEFSAII (Michael W. Deem and Ramdas Pophale) SiO2 
 PCOD9304299
Probable space group: C 2/C
;
_chemical_formula_sum "Si O2"
_cell_formula_units_Z 44
_cell_length_a 7.258970
_cell_length_b 17.762817
_cell_length_c 16.924769
_cell_angle_alpha 90.000000
_cell_angle_beta 106.561249
_cell_angle_gamma 90.000000
_cell_volume 2091.745134
_symmetry_space_group_name_H-M "C 2/C"
_symmetry_group_IT_number 15
_symmetry_cell_setting 'monoclinic'
loop_
_space_group_symop_operation_xyz
x,y,z
-x,y,1/2-z
-x,-y,-z
x,-y,1/2+z
1/2+x,1/2+y,z
1/2-x,1/2+y,1/2-z
1/2-x,1/2-y,-z
1/2+x,1/2-y,1/2+z
loop_
_atom_site_type_symbol
_atom_site_label
_atom_site_fract_x
_atom_site_fract_y
_atom_site_fract_z
Si Si1 0.500000 0.187000 0.750000
Si Si2 0.952555 0.422758 0.390758
Si Si3 0.678646 0.475795 0.574373
Si Si4 0.351539 0.171706 0.032932
Si Si5 0.159265 0.304532 0.700910
Si Si6 0.721788 0.970339 0.743852
O O1 0.493436 0.134801 0.672251
O O2 0.312451 0.238899 0.726489
O O3 0.893432 0.375384 0.459160
O O4 0.786375 0.474293 0.331323
O O5 0.133107 0.477282 0.429867
O O6 0.500000 0.500000 0.500000
O O7 0.727007 0.387054 0.570337
O O8 0.655696 0.492523 0.664860
O O9 0.543467 0.191134 0.104871
O O10 0.250000 0.250000 0.000000
O O11 0.259769 0.385335 0.723790
O O12 0.000000 0.295731 0.750000
O O13 0.500000 0.970607 0.750000
#
# Coordination Sequence:
#
# PCOD9304299 Si02
#       6
#     4   8   8   8   8   8
#     4  12  26  42  74 102 134 196 236 284 356 422
#     4  11  23  46  68  98 138 186 237 287 346 424
#     4  11  23  43  69 101 136 180 235 289 350 417
#     4  12  26  43  69 106 145 184 230 300 359 413
#     4  11  23  46  69  97 146 185 232 290 354 417
#     4   9  18  43  68  85 132 189 220 283 349 404
#
# _framework density 21.035066
#
# number of rings (size 3 to 8) (size 9 to 14) (size 15 to 20)
#    0.000    1.091    8.182    1.636    2.545    2.182 
#    0.000    0.000    0.000    0.000    0.000    0.000 
#    0.000    0.000    0.000    0.000    0.000    0.000 
#
# Total GULP energy -123045.058452 kJ/mol
# GULP energy per Si atom -5592.957202 kJ/mol
# Density = 2.098719 g / cm^3
# Si number density = 21.035066 Si / 1000 Ang^3
#
#
#
# Elastic Constant Matrix: (Units=GPa)
#
#
# Indices 1 2 3 4 5 6 
#
# 1 63.0708 48.3892 44.8540 0.0000 11.8469 0.0000
# 2 48.3892 149.3379 51.8904 0.0000 11.3443 0.0000
# 3 44.8540 51.8904 158.2208 0.0000 19.1580 0.0000
# 4 0.0000 0.0000 0.0000 40.2455 0.0000 6.1855
# 5 11.8469 11.3443 19.1580 0.0000 34.1950 0.0000
# 6 0.0000 0.0000 0.0000 6.1855 0.0000 11.5318
#
#
#
# Elastic Compliance Matrix: (Units=1/GPa)
#
#
# Indices 1 2 3 4 5 6 
#
# 1 0.024418 -0.006064 -0.004455 0.000000 -0.003952 0.000000
# 2 -0.006064 0.009109 -0.001241 0.000000 -0.000226 0.000000
# 3 -0.004455 -0.001241 0.008318 0.000000 -0.002705 0.000000
# 4 0.000000 0.000000 0.000000 0.027080 0.000000 -0.014525
# 5 -0.003952 -0.000226 -0.002705 0.000000 0.032204 0.000000
# 6 0.000000 0.000000 0.000000 -0.014525 0.000000 0.094508
#
#
# Mechanical properties :
#
#
# Convention : Reuss Voigt Hill
#
# Bulk Modulus (GPa) = 54.56943 73.43297 64.00120
# Shear Modulus (GPa) = 22.19605 32.22753 27.21179
#
# Velocity S-wave (km/s) = 3.25190 3.91843 3.60062
# Velocity P-wave (km/s) = 6.33232 7.44700 6.91216
#
# Compressibility (1/GPa) = 0.01832528
#
# Stress axis : x y z
#
# Youngs Moduli (GPa) = 40.95313 109.77555 120.22381
#
# Poissons Ratio (x) = 0.66567 0.53560
# Poissons Ratio (y) = 0.24833 0.14922
# Poissons Ratio (z) = 0.18245 0.13625
#
# Static dielectric constant tensor:
#      x y z
#    x 1.778550 0.000000 0.001040 
#    y 0.000000 1.738560 0.000000 
#    z 0.001040 0.000000 2.171130 
# 
# From -- ./inp_files/189319.got.cif
#   From: 2010.05.17/outbox.cif.g08.bks.cpg/sg15_95_cif.got.tgz:189319.got - 2010.06.03 18:47:42.
