data_PCOD9304818
_publ_section_title
;
Structure prediction by ZEFSAII (Michael W. Deem and Ramdas Pophale) SiO2 
 PCOD9304818
Probable space group: C 2/C
;
_chemical_formula_sum "Si O2"
_cell_formula_units_Z 60
_cell_length_a 23.172956
_cell_length_b 8.651438
_cell_length_c 14.597077
_cell_angle_alpha 90.000000
_cell_angle_beta 69.208939
_cell_angle_gamma 90.000000
_cell_volume 2735.848224
_symmetry_space_group_name_H-M "C 2/C"
_symmetry_group_IT_number 15
_symmetry_cell_setting 'monoclinic'
loop_
_space_group_symop_operation_xyz
x,y,z
-x,y,1/2-z
-x,-y,-z
x,-y,1/2+z
1/2+x,1/2+y,z
1/2-x,1/2+y,1/2-z
1/2-x,1/2-y,-z
1/2+x,1/2-y,1/2+z
loop_
_atom_site_type_symbol
_atom_site_label
_atom_site_fract_x
_atom_site_fract_y
_atom_site_fract_z
Si Si1 0.712819 0.142739 0.453310
Si Si2 0.833846 0.709019 0.205291
Si Si3 0.263640 0.801836 0.096179
Si Si4 0.455802 0.363663 0.134256
Si Si5 0.000000 0.372883 0.750000
Si Si6 0.876163 0.357423 0.160268
Si Si7 0.896542 0.377207 0.348039
Si Si8 0.495093 0.302698 0.907933
O O1 0.750000 0.250000 0.500000
O O2 0.695759 0.246464 0.375655
O O3 0.653067 0.087074 0.545472
O O4 0.746373 0.987737 0.399374
O O5 0.783367 0.709985 0.312520
O O6 0.886088 0.830269 0.201971
O O7 0.863762 0.541280 0.168313
O O8 0.330789 0.785667 0.108889
O O9 0.250000 0.750000 0.000000
O O10 0.495983 0.238066 0.164995
O O11 0.476982 0.536106 0.141419
O O12 0.461652 0.333759 0.022881
O O13 0.939071 0.477648 0.794631
O O14 0.864705 0.312772 0.273569
O O15 0.947573 0.312633 0.105941
O O16 0.946279 0.262033 0.363819
#
# Coordination Sequence:
#
# PCOD9304818 Si02
#       8
#     8   8   8   8   4   8   8   8
#     4  11  26  46  75 103 139 187 237 296 358 429
#     4  11  23  47  69 101 140 186 239 291 352 422
#     4  11  27  47  72 104 138 184 243 301 356 419
#     4  11  26  43  67 109 143 187 234 303 346 427
#     4  12  26  40  76 106 148 184 244 290 352 432
#     4  11  24  43  74 103 139 192 234 291 353 434
#     4  12  22  45  73 107 140 192 233 286 360 432
#     4  11  25  45  70 105 152 187 235 286 372 419
#
# _framework density 21.931041
#
# number of rings (size 3 to 8) (size 9 to 14) (size 15 to 20)
#    0.000    0.800    4.000    1.600    5.600    6.400 
#    0.000    0.000    0.000    0.000    0.000    0.000 
#    0.000    0.000    0.000    0.000    0.000    0.000 
#
# Total GULP energy -167703.288367 kJ/mol
# GULP energy per Si atom -5590.109612 kJ/mol
# Density = 2.188112 g / cm^3
# Si number density = 21.931041 Si / 1000 Ang^3
#
#
#
# Elastic Constant Matrix: (Units=GPa)
#
#
# Indices 1 2 3 4 5 6 
#
# 1 108.0630 40.5027 39.2859 0.0000 29.7028 0.0000
# 2 40.5027 81.8023 6.5274 0.0000 7.6920 0.0000
# 3 39.2859 6.5274 84.8794 0.0000 17.9560 0.0000
# 4 0.0000 0.0000 0.0000 27.7932 0.0000 13.1844
# 5 29.7028 7.6920 17.9560 0.0000 52.7047 0.0000
# 6 0.0000 0.0000 0.0000 13.1844 0.0000 10.9995
#
#
#
# Elastic Compliance Matrix: (Units=1/GPa)
#
#
# Indices 1 2 3 4 5 6 
#
# 1 0.015257 -0.006582 -0.005323 0.000000 -0.005824 0.000000
# 2 -0.006582 0.015264 0.001680 0.000000 0.000909 0.000000
# 3 -0.005323 0.001680 0.014584 0.000000 -0.002214 0.000000
# 4 0.000000 0.000000 0.000000 0.083404 0.000000 -0.099971
# 5 -0.005824 0.000909 -0.002214 0.000000 0.022878 0.000000
# 6 0.000000 0.000000 0.000000 -0.099971 0.000000 0.210743
#
#
# Mechanical properties :
#
#
# Convention : Reuss Voigt Hill
#
# Bulk Modulus (GPa) = 40.55909 49.70853 45.13381
# Shear Modulus (GPa) = 12.79435 30.86139 21.82787
#
# Velocity S-wave (km/s) = 2.41797 3.75534 3.15825
# Velocity P-wave (km/s) = 5.13123 6.44348 5.82443
#
# Compressibility (1/GPa) = 0.02465538
#
# Stress axis : x y z
#
# Youngs Moduli (GPa) = 65.54434 65.51437 68.56629
#
# Poissons Ratio (x) = 0.43119 0.36500
# Poissons Ratio (y) = 0.43139 -0.11520
# Poissons Ratio (z) = 0.34891 -0.11007
#
# Static dielectric constant tensor:
#      x y z
#    x 1.848070 0.000000 0.024590 
#    y 0.000000 1.792960 0.000000 
#    z 0.024590 0.000000 1.804910 
# 
# From -- ./inp_files/172335.got.cif
#   From: 2010.05.17/outbox.cif.g08.bks.cpg/sg15_87_cif.got.tgz:172335.got - 2010.06.03 18:47:42.
