data_PCOD9304534
_publ_section_title
;
Structure prediction by ZEFSAII (Michael W. Deem and Ramdas Pophale) SiO2 
 PCOD9304534
Probable space group: C 2/C
;
_chemical_formula_sum "Si O2"
_cell_formula_units_Z 40
_cell_length_a 8.838111
_cell_length_b 12.264665
_cell_length_c 17.205747
_cell_angle_alpha 90.000000
_cell_angle_beta 118.383353
_cell_angle_gamma 90.000000
_cell_volume 1640.839415
_symmetry_space_group_name_H-M "C 2/C"
_symmetry_group_IT_number 15
_symmetry_cell_setting 'monoclinic'
loop_
_space_group_symop_operation_xyz
x,y,z
-x,y,1/2-z
-x,-y,-z
x,-y,1/2+z
1/2+x,1/2+y,z
1/2-x,1/2+y,1/2-z
1/2-x,1/2-y,-z
1/2+x,1/2-y,1/2+z
loop_
_atom_site_type_symbol
_atom_site_label
_atom_site_fract_x
_atom_site_fract_y
_atom_site_fract_z
Si Si1 0.389815 0.168422 0.292587
Si Si2 0.494427 0.060928 0.879903
Si Si3 0.009303 0.199143 0.138668
Si Si4 0.289076 0.498353 0.074195
Si Si5 0.559303 0.301225 0.465814
O O1 0.500000 0.221886 0.250000
O O2 0.195210 0.170805 0.217456
O O3 0.430942 0.230786 0.382356
O O4 0.461794 0.046332 0.321901
O O5 0.531431 0.176159 0.849472
O O6 0.319515 0.068213 0.888475
O O7 0.650301 0.035129 0.976269
O O8 0.877896 0.105041 0.130292
O O9 0.013843 0.197828 0.045241
O O10 0.427771 0.421857 0.066544
O O11 0.750000 0.250000 0.500000
#
# Coordination Sequence:
#
# PCOD9304534 Si02
#       5
#     8   8   8   8   8
#     4  12  25  44  69 101 138 186 242 295 360 436
#     4  11  23  45  67  98 148 182 233 307 357 427
#     4  12  26  44  73 106 139 189 241 295 367 438
#     4  11  23  44  73 101 137 188 238 293 370 430
#     4  12  21  46  75  97 135 192 237 292 362 432
#
# _framework density 24.377765
#
# number of rings (size 3 to 8) (size 9 to 14) (size 15 to 20)
#    0.000    0.400    6.000    2.400    2.800    0.800 
#    3.600    0.000    0.000    0.000    0.000    0.000 
#    0.000    0.000    0.000    0.000    0.000    0.000 
#
# Total GULP energy -112176.678081 kJ/mol
# GULP energy per Si atom -5608.833904 kJ/mol
# Density = 2.432228 g / cm^3
# Si number density = 24.377765 Si / 1000 Ang^3
#
#
#
# Elastic Constant Matrix: (Units=GPa)
#
#
# Indices 1 2 3 4 5 6 
#
# 1 55.0447 43.3883 37.7951 0.0000 20.3406 0.0000
# 2 43.3883 159.5154 32.9874 0.0000 21.8056 0.0000
# 3 37.7951 32.9874 143.0017 0.0000 11.8989 0.0000
# 4 0.0000 0.0000 0.0000 18.7722 0.0000 6.7971
# 5 20.3406 21.8056 11.8989 0.0000 45.7162 0.0000
# 6 0.0000 0.0000 0.0000 6.7971 0.0000 38.8679
#
#
#
# Elastic Compliance Matrix: (Units=1/GPa)
#
#
# Indices 1 2 3 4 5 6 
#
# 1 0.030080 -0.005720 -0.005871 0.000000 -0.009127 0.000000
# 2 -0.005720 0.008043 -0.000241 0.000000 -0.001228 0.000000
# 3 -0.005871 -0.000241 0.008559 0.000000 0.000500 0.000000
# 4 0.000000 0.000000 0.000000 0.056871 0.000000 -0.009946
# 5 -0.009127 -0.001228 0.000500 0.000000 0.026391 0.000000
# 6 0.000000 0.000000 0.000000 -0.009946 0.000000 0.027467
#
#
# Mechanical properties :
#
#
# Convention : Reuss Voigt Hill
#
# Bulk Modulus (GPa) = 43.44724 65.10037 54.27381
# Shear Modulus (GPa) = 26.49044 36.89733 31.69389
#
# Velocity S-wave (km/s) = 3.30004 3.89468 3.60962
# Velocity P-wave (km/s) = 5.69047 6.85474 6.29956
#
# Compressibility (1/GPa) = 0.02301642
#
# Stress axis : x y z
#
# Youngs Moduli (GPa) = 33.24512 124.33774 116.83983
#
# Poissons Ratio (x) = 0.71120 0.68598
# Poissons Ratio (y) = 0.19016 0.02819
# Poissons Ratio (z) = 0.19519 0.03000
#
# Static dielectric constant tensor:
#      x y z
#    x 2.109220 0.000000 -0.098180 
#    y 0.000000 1.946690 0.000000 
#    z -0.098180 0.000000 1.934630 
# 
# From -- ./inp_files/187908.got.cif
#   From: 2010.05.17/outbox.cif.g08.bks.cpg/sg15_94_cif.got.tgz:187908.got - 2010.06.03 18:47:42.
