data_PCOD9304967
_publ_section_title
;
Structure prediction by ZEFSAII (Michael W. Deem and Ramdas Pophale) SiO2 
 PCOD9304967
Probable space group: C 2/C
;
_chemical_formula_sum "Si O2"
_cell_formula_units_Z 56
_cell_length_a 20.900889
_cell_length_b 13.188677
_cell_length_c 11.484599
_cell_angle_alpha 90.000000
_cell_angle_beta 79.871035
_cell_angle_gamma 90.000000
_cell_volume 3116.447283
_symmetry_space_group_name_H-M "C 2/C"
_symmetry_group_IT_number 15
_symmetry_cell_setting 'monoclinic'
loop_
_space_group_symop_operation_xyz
x,y,z
-x,y,1/2-z
-x,-y,-z
x,-y,1/2+z
1/2+x,1/2+y,z
1/2-x,1/2+y,1/2-z
1/2-x,1/2-y,-z
1/2+x,1/2-y,1/2+z
loop_
_atom_site_type_symbol
_atom_site_label
_atom_site_fract_x
_atom_site_fract_y
_atom_site_fract_z
Si Si1 0.933750 0.249837 0.318630
Si Si2 0.843297 0.228636 0.127442
Si Si3 0.694176 0.710749 0.724631
Si Si4 0.799199 0.940665 0.488950
Si Si5 0.348195 0.878168 0.913537
Si Si6 0.687371 0.323997 0.494254
Si Si7 0.466958 0.975298 0.384036
O O1 0.890665 0.256702 0.215977
O O2 0.880796 0.206805 0.425476
O O3 0.957403 0.355297 0.368238
O O4 0.000000 0.196676 0.250000
O O5 0.769775 0.256377 0.188719
O O6 0.840913 0.113440 0.078706
O O7 0.861122 0.300181 0.013908
O O8 0.684617 0.622013 0.633125
O O9 0.652314 0.809042 0.701599
O O10 0.680361 0.676444 0.857964
O O11 0.724786 0.916615 0.545008
O O12 0.802346 0.060058 0.470779
O O13 0.397906 0.968988 0.903637
O O14 0.750000 0.250000 0.500000
O O15 0.500000 0.009583 0.250000
O O16 0.500000 0.000000 0.500000
#
# Coordination Sequence:
#
# PCOD9304967 Si02
#       7
#     8   8   8   8   8   8   8
#     4  11  24  40  57  85 125 161 190 245 308 364
#     4   9  18  41  60  83 124 158 193 235 311 364
#     4   9  20  36  60  91 117 151 196 249 302 357
#     4   9  21  37  63  87 117 158 192 252 310 353
#     4   9  18  37  61  86 118 155 192 243 299 361
#     4  12  23  36  60  94 117 149 205 257 293 349
#     4  11  24  40  60  89 124 164 203 242 309 376
#
# _framework density 17.969180000000001
#
# number of rings (size 3 to 8) (size 9 to 14) (size 15 to 20)
#    0.000    2.000    1.429    4.286    4.000    0.000 
#    2.571    0.714    0.000    0.000    0.000    0.000 
#    0.000    0.000    0.000    0.000    0.000    0.000 
#
# Total GULP energy -155896.362998 kJ/mol
# GULP energy per Si atom -5567.727250 kJ/mol
# Density = 1.792828 g / cm^3
# Si number density = 17.969180 Si / 1000 Ang^3
#
#
#
# Elastic Constant Matrix: (Units=GPa)
#
#
# Indices 1 2 3 4 5 6 
#
# 1 46.3035 26.4011 50.4607 0.0000 -0.6535 0.0000
# 2 26.4011 88.2234 26.2734 0.0000 -3.8061 0.0000
# 3 50.4607 26.2734 102.3353 0.0000 2.7053 0.0000
# 4 0.0000 0.0000 0.0000 14.8003 0.0000 2.2506
# 5 -0.6535 -3.8061 2.7053 0.0000 35.9933 0.0000
# 6 0.0000 0.0000 0.0000 2.2506 0.0000 26.4407
#
#
#
# Elastic Compliance Matrix: (Units=1/GPa)
#
#
# Indices 1 2 3 4 5 6 
#
# 1 0.052194 -0.008513 -0.023599 0.000000 0.001821 0.000000
# 2 -0.008513 0.013747 0.000635 0.000000 0.001251 0.000000
# 3 -0.023599 0.000635 0.021297 0.000000 -0.001962 0.000000
# 4 0.000000 0.000000 0.000000 0.068452 0.000000 -0.005826
# 5 0.001821 0.001251 -0.001962 0.000000 0.028096 0.000000
# 6 0.000000 0.000000 0.000000 -0.005826 0.000000 0.038316
#
#
# Mechanical properties :
#
#
# Convention : Reuss Voigt Hill
#
# Bulk Modulus (GPa) = 41.17799 49.23698 45.20748
# Shear Modulus (GPa) = 17.05609 24.36198 20.70903
#
# Velocity S-wave (km/s) = 3.08423 3.68607 3.39850
# Velocity P-wave (km/s) = 5.97067 6.75103 6.37281
#
# Compressibility (1/GPa) = 0.02428482
#
# Stress axis : x y z
#
# Youngs Moduli (GPa) = 19.15942 72.74222 46.95488
#
# Poissons Ratio (x) = 0.61923 1.10808
# Poissons Ratio (y) = 0.16310 -0.02982
# Poissons Ratio (z) = 0.45214 -0.04619
#
# Static dielectric constant tensor:
#      x y z
#    x 1.621690 0.000000 -0.000450 
#    y 0.000000 1.624290 0.000000 
#    z -0.000450 0.000000 1.637050 
# 
# From -- ./inp_files/111052.got.cif
#   From: 2010.05.17/outbox.cif.g08.bks.cpg/sg15_56_cif.got.tgz:111052.got - 2010.06.03 18:47:42.
