data_PCOD9304213
_publ_section_title
;
Structure prediction by ZEFSAII (Michael W. Deem and Ramdas Pophale) SiO2 
 PCOD9304213
Probable space group: C 2/C
;
_chemical_formula_sum "Si O2"
_cell_formula_units_Z 64
_cell_length_a 19.571021
_cell_length_b 14.199090
_cell_length_c 18.261165
_cell_angle_alpha 90.000000
_cell_angle_beta 37.871727
_cell_angle_gamma 90.000000
_cell_volume 3115.280091
_symmetry_space_group_name_H-M "C 2/C"
_symmetry_group_IT_number 15
_symmetry_cell_setting 'monoclinic'
loop_
_space_group_symop_operation_xyz
x,y,z
-x,y,1/2-z
-x,-y,-z
x,-y,1/2+z
1/2+x,1/2+y,z
1/2-x,1/2+y,1/2-z
1/2-x,1/2-y,-z
1/2+x,1/2-y,1/2+z
loop_
_atom_site_type_symbol
_atom_site_label
_atom_site_fract_x
_atom_site_fract_y
_atom_site_fract_z
Si Si1 0.139151 0.284479 0.144001
Si Si2 0.181953 0.137602 0.230983
Si Si3 0.261726 0.466166 0.073740
Si Si4 0.459245 0.601464 0.506948
Si Si5 0.708905 0.150092 0.211459
Si Si6 0.830717 0.726113 0.498532
Si Si7 0.712040 0.453531 0.105752
Si Si8 0.555528 0.692391 0.821730
O O1 0.170541 0.227498 0.189811
O O2 0.163236 0.395073 0.134737
O O3 0.000000 0.269559 0.250000
O O4 0.250000 0.250000 0.000000
O O5 0.272101 0.141438 0.218930
O O6 0.063525 0.134701 0.371817
O O7 0.208022 0.045424 0.160434
O O8 0.226555 0.553060 0.154634
O O9 0.354118 0.410122 0.042572
O O10 0.309805 0.509279 0.957673
O O11 0.500000 0.500000 0.500000
O O12 0.438160 0.659317 0.599011
O O13 0.791892 0.229687 0.108686
O O14 0.595180 0.199540 0.287400
O O15 0.750000 0.750000 0.500000
O O16 0.823471 0.612533 0.510266
O O17 0.934035 0.792514 0.394493
O O18 0.623419 0.381477 0.216100
#
# Coordination Sequence:
#
# PCOD9304213 Si02
#       8
#     8   8   8   8   8   8   8   8
#     4  12  28  51  77 109 150 205 255 315 374 445
#     4  12  24  45  72 102 141 184 249 298 368 433
#     4  12  24  46  68 106 146 185 249 302 373 433
#     4  12  22  42  73 102 139 187 247 309 359 436
#     4  11  24  43  67 100 140 184 224 295 363 448
#     4  11  23  43  63 100 140 173 226 291 361 434
#     4  11  25  40  72 103 139 185 237 298 365 442
#     4  11  24  44  69 102 139 185 235 294 372 438
#
# _framework density 20.543900000000001
#
# number of rings (size 3 to 8) (size 9 to 14) (size 15 to 20)
#    0.000    0.500    6.250    1.500    0.000    5.000 
#    0.000    0.625    0.000    0.000    0.000    0.000 
#    0.000    0.000    0.000    0.000    0.000    0.000 
#
# Total GULP energy -178268.348932 kJ/mol
# GULP energy per Si atom -5570.885904 kJ/mol
# Density = 2.049714 g / cm^3
# Si number density = 20.543900 Si / 1000 Ang^3
#
#
#
# Elastic Constant Matrix: (Units=GPa)
#
#
# Indices 1 2 3 4 5 6 
#
# 1 109.3876 41.6544 33.2341 0.0000 20.3200 0.0000
# 2 41.6544 82.2550 30.0043 0.0000 5.1900 0.0000
# 3 33.2341 30.0043 68.1427 0.0000 22.0890 0.0000
# 4 0.0000 0.0000 0.0000 29.5848 0.0000 2.5020
# 5 20.3200 5.1900 22.0890 0.0000 25.6147 0.0000
# 6 0.0000 0.0000 0.0000 2.5020 0.0000 31.7595
#
#
#
# Elastic Compliance Matrix: (Units=1/GPa)
#
#
# Indices 1 2 3 4 5 6 
#
# 1 0.013237 -0.005723 -0.001260 0.000000 -0.008255 0.000000
# 2 -0.005723 0.017196 -0.007110 0.000000 0.007187 0.000000
# 3 -0.001260 -0.007110 0.024470 0.000000 -0.018661 0.000000
# 4 0.000000 0.000000 0.000000 0.034028 0.000000 -0.002681
# 5 -0.008255 0.007187 -0.018661 0.000000 0.060225 0.000000
# 6 0.000000 0.000000 0.000000 -0.002681 0.000000 0.031698
#
#
# Mechanical properties :
#
#
# Convention : Reuss Voigt Hill
#
# Bulk Modulus (GPa) = 37.43111 52.17454 44.80282
# Shear Modulus (GPa) = 22.94157 27.71796 25.32977
#
# Velocity S-wave (km/s) = 3.34535 3.67714 3.51516
# Velocity P-wave (km/s) = 5.76033 6.59395 6.19119
#
# Compressibility (1/GPa) = 0.02671575
#
# Stress axis : x y z
#
# Youngs Moduli (GPa) = 75.54349 58.15468 40.86707
#
# Poissons Ratio (x) = 0.33282 0.05150
# Poissons Ratio (y) = 0.43233 0.29057
# Poissons Ratio (z) = 0.09521 0.41349
#
# Static dielectric constant tensor:
#      x y z
#    x 1.696900 0.000000 -0.022440 
#    y 0.000000 1.828990 0.000000 
#    z -0.022440 0.000000 1.914960 
# 
# From -- ./inp_files/211371.got.cif
#   From: 2010.05.17/outbox.cif.g08.bks.cpg/sg15_106_cif.got.tgz:211371.got - 2010.06.03 18:47:42.
