data_PCOD9304718
_publ_section_title
;
Structure prediction by ZEFSAII (Michael W. Deem and Ramdas Pophale) SiO2 
 PCOD9304718
Probable space group: C 2/C
;
_chemical_formula_sum "Si O2"
_cell_formula_units_Z 52
_cell_length_a 28.393906
_cell_length_b 6.322299
_cell_length_c 14.104781
_cell_angle_alpha 90.000000
_cell_angle_beta 106.005484
_cell_angle_gamma 90.000000
_cell_volume 2433.863592
_symmetry_space_group_name_H-M "C 2/C"
_symmetry_group_IT_number 15
_symmetry_cell_setting 'monoclinic'
loop_
_space_group_symop_operation_xyz
x,y,z
-x,y,1/2-z
-x,-y,-z
x,-y,1/2+z
1/2+x,1/2+y,z
1/2-x,1/2+y,1/2-z
1/2-x,1/2-y,-z
1/2+x,1/2-y,1/2+z
loop_
_atom_site_type_symbol
_atom_site_label
_atom_site_fract_x
_atom_site_fract_y
_atom_site_fract_z
Si Si1 0.683254 0.967575 0.285441
Si Si2 0.790803 0.211171 0.858615
Si Si3 0.000000 0.368271 0.750000
Si Si4 0.644359 0.028869 0.971230
Si Si5 0.446323 0.253616 0.632137
Si Si6 0.133461 0.835729 0.606592
Si Si7 0.457571 0.510397 0.336029
O O1 0.733879 0.843343 0.331585
O O2 0.649285 0.821810 0.200505
O O3 0.696304 0.178424 0.234274
O O4 0.657545 0.013243 0.370185
O O5 0.822452 0.998602 0.885804
O O6 0.808707 0.378851 0.947113
O O7 0.963389 0.521776 0.674749
O O8 0.972511 0.223322 0.811710
O O9 0.603135 0.212345 0.951325
O O10 0.626381 0.817658 0.013254
O O11 0.492503 0.366087 0.608012
O O12 0.440125 0.383978 0.726353
O O13 0.084896 0.957391 0.612447
#
# Coordination Sequence:
#
# PCOD9304718 Si02
#       7
#     8   8   4   8   8   8   8
#     4  11  23  46  66  89 131 165 206 268 314 378
#     4  11  25  43  67  94 123 167 213 256 325 376
#     4   8  18  32  62  88 118 174 206 244 320 360
#     4  11  25  40  65  98 127 163 209 264 319 371
#     4   9  19  38  61  92 126 163 208 262 310 364
#     4  11  24  40  64  97 125 170 213 254 321 374
#     4   9  19  37  62  89 125 167 213 252 305 378
#
# _framework density 21.365209
#
# number of rings (size 3 to 8) (size 9 to 14) (size 15 to 20)
#    0.000    2.154    3.077    0.462    2.154    6.154 
#    0.000    1.538    0.000    0.000    0.000    0.000 
#    0.000    0.000    0.000    0.000    0.000    0.000 
#
# Total GULP energy -145375.633073 kJ/mol
# GULP energy per Si atom -5591.370503 kJ/mol
# Density = 2.131658 g / cm^3
# Si number density = 21.365209 Si / 1000 Ang^3
#
#
#
# Elastic Constant Matrix: (Units=GPa)
#
#
# Indices 1 2 3 4 5 6 
#
# 1 79.2900 -3.5744 25.6665 0.0000 -7.9155 0.0000
# 2 -3.5744 57.5577 20.8424 0.0000 -10.9137 0.0000
# 3 25.6665 20.8424 62.6400 0.0000 -5.5539 0.0000
# 4 0.0000 0.0000 0.0000 19.6175 0.0000 4.6611
# 5 -7.9155 -10.9137 -5.5539 0.0000 33.7017 0.0000
# 6 0.0000 0.0000 0.0000 4.6611 0.0000 14.4249
#
#
#
# Elastic Compliance Matrix: (Units=1/GPa)
#
#
# Indices 1 2 3 4 5 6 
#
# 1 0.015639 0.004435 -0.007541 0.000000 0.003867 0.000000
# 2 0.004435 0.022027 -0.008546 0.000000 0.006766 0.000000
# 3 -0.007541 -0.008546 0.021814 0.000000 -0.000944 0.000000
# 4 0.000000 0.000000 0.000000 0.055214 0.000000 -0.017841
# 5 0.003867 0.006766 -0.000944 0.000000 0.032616 0.000000
# 6 0.000000 0.000000 0.000000 -0.017841 0.000000 0.075089
#
#
# Mechanical properties :
#
#
# Convention : Reuss Voigt Hill
#
# Bulk Modulus (GPa) = 27.64305 31.70630 29.67468
# Shear Modulus (GPa) = 19.39776 23.98572 21.69174
#
# Velocity S-wave (km/s) = 3.01643 3.35424 3.18981
# Velocity P-wave (km/s) = 5.00981 5.46567 5.24270
#
# Compressibility (1/GPa) = 0.03617546
#
# Stress axis : x y z
#
# Youngs Moduli (GPa) = 63.94333 45.39881 45.84206
#
# Poissons Ratio (x) = -0.20134 0.34569
# Poissons Ratio (y) = -0.28359 0.39178
# Poissons Ratio (z) = 0.48218 0.38800
#
# Static dielectric constant tensor:
#      x y z
#    x 1.765370 0.000000 0.033260 
#    y 0.000000 1.755500 0.000000 
#    z 0.033260 0.000000 1.789440 
# 
# From -- ./inp_files/180176.got.cif
#   From: 2010.05.17/outbox.cif.g08.bks.cpg/sg15_91_cif.got.tgz:180176.got - 2010.06.03 18:47:42.
