data_PCOD9304735
_publ_section_title
;
Structure prediction by ZEFSAII (Michael W. Deem and Ramdas Pophale) SiO2 
 PCOD9304735
Probable space group: C 2/C
;
_chemical_formula_sum "Si O2"
_cell_formula_units_Z 48
_cell_length_a 19.035499
_cell_length_b 9.259121
_cell_length_c 23.869460
_cell_angle_alpha 90.000000
_cell_angle_beta 147.224872
_cell_angle_gamma 90.000000
_cell_volume 2277.452680
_symmetry_space_group_name_H-M "C 2/C"
_symmetry_group_IT_number 15
_symmetry_cell_setting 'monoclinic'
loop_
_space_group_symop_operation_xyz
x,y,z
-x,y,1/2-z
-x,-y,-z
x,-y,1/2+z
1/2+x,1/2+y,z
1/2-x,1/2+y,1/2-z
1/2-x,1/2-y,-z
1/2+x,1/2-y,1/2+z
loop_
_atom_site_type_symbol
_atom_site_label
_atom_site_fract_x
_atom_site_fract_y
_atom_site_fract_z
Si Si1 0.273314 0.269573 0.401345
Si Si2 0.729722 0.007831 0.453336
Si Si3 0.557055 0.947925 0.190597
Si Si4 0.287765 0.208885 0.167357
Si Si5 0.140517 0.014909 0.844909
Si Si6 0.471982 0.842786 0.455035
O O1 0.288979 0.358648 0.469255
O O2 0.152532 0.345242 0.290042
O O3 0.405817 0.264583 0.455409
O O4 0.240911 0.103961 0.391411
O O5 0.581233 0.977471 0.372541
O O6 0.736014 0.118236 0.405716
O O7 0.810564 0.059789 0.560987
O O8 0.541000 0.875173 0.119710
O O9 0.631630 0.102012 0.238684
O O10 0.366609 0.349039 0.200734
O O11 0.155748 0.268279 0.105656
O O12 0.000000 0.943522 0.750000
O O13 0.500000 0.000000 0.500000
#
# Coordination Sequence:
#
# PCOD9304735 Si02
#       6
#     8   8   8   8   8   8
#     4  11  24  43  71  99 134 180 226 283 347 408
#     4  11  23  46  69 102 138 174 231 298 337 401
#     4  11  25  46  72  97 142 177 231 288 343 406
#     4  11  25  44  69  98 137 185 224 279 352 407
#     4  12  23  39  70 102 132 176 235 280 343 405
#     4  12  26  46  66 102 144 181 226 282 346 414
#
# _framework density 21.076179
#
# number of rings (size 3 to 8) (size 9 to 14) (size 15 to 20)
#    0.000    0.667    3.333    5.000    4.667    4.000 
#    0.000    0.000    0.000    0.000    0.000    0.000 
#    0.000    0.000    0.000    0.000    0.000    0.000 
#
# Total GULP energy -134191.295110 kJ/mol
# GULP energy per Si atom -5591.303963 kJ/mol
# Density = 2.102821 g / cm^3
# Si number density = 21.076179 Si / 1000 Ang^3
#
#
#
# Elastic Constant Matrix: (Units=GPa)
#
#
# Indices 1 2 3 4 5 6 
#
# 1 119.9678 25.8029 45.2310 0.0000 26.0207 0.0000
# 2 25.8029 87.1802 8.4346 0.0000 5.6516 0.0000
# 3 45.2310 8.4346 85.3849 -0.0001 20.6429 0.0000
# 4 0.0000 0.0000 -0.0001 26.8324 0.0000 4.8160
# 5 26.0207 5.6516 20.6429 0.0000 36.7498 0.0000
# 6 0.0000 0.0000 0.0000 4.8160 0.0000 45.5734
#
#
#
# Elastic Compliance Matrix: (Units=1/GPa)
#
#
# Indices 1 2 3 4 5 6 
#
# 1 0.011854 -0.002706 -0.004725 0.000000 -0.005323 0.000000
# 2 -0.002706 0.012254 0.000249 0.000000 -0.000108 0.000000
# 3 -0.004725 0.000249 0.015495 0.000000 -0.005396 0.000000
# 4 0.000000 0.000000 0.000000 0.037989 0.000000 -0.004014
# 5 -0.005323 -0.000108 -0.005396 0.000000 0.034028 0.000000
# 6 0.000000 0.000000 0.000000 -0.004014 0.000000 0.022367
#
#
# Mechanical properties :
#
#
# Convention : Reuss Voigt Hill
#
# Bulk Modulus (GPa) = 39.62176 50.16333 44.89255
# Shear Modulus (GPa) = 31.89532 36.03540 33.96536
#
# Velocity S-wave (km/s) = 3.89438 4.13942 4.01877
# Velocity P-wave (km/s) = 6.24994 6.83367 6.54831
#
# Compressibility (1/GPa) = 0.02523866
#
# Stress axis : x y z
#
# Youngs Moduli (GPa) = 84.36303 81.60363 64.53819
#
# Poissons Ratio (x) = 0.22083 0.30495
# Poissons Ratio (y) = 0.22830 -0.01608
# Poissons Ratio (z) = 0.39862 -0.02034
#
# Static dielectric constant tensor:
#      x y z
#    x 1.755810 0.000000 -0.023680 
#    y 0.000000 1.764760 0.000000 
#    z -0.023680 0.000000 1.751980 
# 
# From -- ./inp_files/300545.got.cif
#   From: 2010.05.17/outbox.cif.g08.bks.cpg/sg15_151_cif.got.tgz:300545.got - 2010.06.03 18:47:42.
