data_PCOD9304035
_publ_section_title
;
Structure prediction by ZEFSAII (Michael W. Deem and Ramdas Pophale) SiO2 
 PCOD9304035
Probable space group: C 2/C
;
_chemical_formula_sum "Si O2"
_cell_formula_units_Z 40
_cell_length_a 10.384315
_cell_length_b 14.829955
_cell_length_c 10.715252
_cell_angle_alpha 90.000000
_cell_angle_beta 84.451564
_cell_angle_gamma 90.000000
_cell_volume 1642.406086
_symmetry_space_group_name_H-M "C 2/C"
_symmetry_group_IT_number 15
_symmetry_cell_setting 'monoclinic'
loop_
_space_group_symop_operation_xyz
x,y,z
-x,y,1/2-z
-x,-y,-z
x,-y,1/2+z
1/2+x,1/2+y,z
1/2-x,1/2+y,1/2-z
1/2-x,1/2-y,-z
1/2+x,1/2-y,1/2+z
loop_
_atom_site_type_symbol
_atom_site_label
_atom_site_fract_x
_atom_site_fract_y
_atom_site_fract_z
Si Si1 0.915981 0.999941 0.132309
Si Si2 0.578402 0.971655 0.870225
Si Si3 0.712379 0.130213 0.738947
Si Si4 0.387235 0.799569 0.491954
Si Si5 0.604614 0.302248 0.854350
O O1 0.831867 0.909786 0.150720
O O2 0.000000 0.000363 0.250000
O O3 0.842214 0.096801 0.133497
O O4 0.000000 0.000000 0.000000
O O5 0.500000 0.968236 0.750000
O O6 0.683746 0.049255 0.836957
O O7 0.623221 0.871060 0.897125
O O8 0.500000 0.000000 0.000000
O O9 0.606241 0.145211 0.639827
O O10 0.709033 0.225550 0.810202
O O11 0.250000 0.750000 0.500000
O O12 0.513460 0.735930 0.474795
O O13 0.500000 0.309536 0.750000
#
# Coordination Sequence:
#
# PCOD9304035 Si02
#       5
#     8   8   8   8   8
#     4  11  26  46  70 100 143 191 243 304 370 439
#     4  12  23  43  71 111 146 186 244 307 366 442
#     4  11  23  41  74 104 139 188 248 300 364 438
#     4  11  23  42  74 102 143 194 238 295 374 441
#     4   9  20  42  67 101 134 186 240 283 354 452
#
# _framework density 24.354513000000001
#
# number of rings (size 3 to 8) (size 9 to 14) (size 15 to 20)
#    0.000    1.200    4.000    1.800   11.200    0.000 
#    0.000    5.000    0.000    0.000    0.000    0.000 
#    0.000    0.000    0.000    0.000    0.000    0.000 
#
# Total GULP energy -111754.420062 kJ/mol
# GULP energy per Si atom -5587.721003 kJ/mol
# Density = 2.429908 g / cm^3
# Si number density = 24.354513 Si / 1000 Ang^3
#
#
#
# Elastic Constant Matrix: (Units=GPa)
#
#
# Indices 1 2 3 4 5 6 
#
# 1 46.1361 47.6497 29.0199 0.0000 -18.8949 0.0000
# 2 47.6497 175.9740 38.8261 0.0000 -11.7098 0.0000
# 3 29.0199 38.8261 131.0655 0.0000 -20.9218 0.0000
# 4 0.0000 0.0000 0.0000 27.6030 0.0000 1.3538
# 5 -18.8949 -11.7098 -20.9218 0.0000 38.6142 0.0000
# 6 0.0000 0.0000 0.0000 1.3538 0.0000 45.8649
#
#
#
# Elastic Compliance Matrix: (Units=1/GPa)
#
#
# Indices 1 2 3 4 5 6 
#
# 1 0.038978 -0.008773 -0.003735 0.000000 0.014389 0.000000
# 2 -0.008773 0.008087 -0.000818 0.000000 -0.002283 0.000000
# 3 -0.003735 -0.000818 0.009160 0.000000 0.002888 0.000000
# 4 0.000000 0.000000 0.000000 0.036281 0.000000 -0.001071
# 5 0.014389 -0.002283 0.002888 0.000000 0.033810 0.000000
# 6 0.000000 0.000000 0.000000 -0.001071 0.000000 0.021835
#
#
# Mechanical properties :
#
#
# Convention : Reuss Voigt Hill
#
# Bulk Modulus (GPa) = 33.81338 64.90743 49.36041
# Shear Modulus (GPa) = 27.07719 38.26173 32.66946
#
# Velocity S-wave (km/s) = 3.33797 3.96793 3.66650
# Velocity P-wave (km/s) = 5.36377 6.90663 6.18351
#
# Compressibility (1/GPa) = 0.02957409
#
# Stress axis : x y z
#
# Youngs Moduli (GPa) = 25.65577 123.66195 109.17264
#
# Poissons Ratio (x) = 1.08486 0.40771
# Poissons Ratio (y) = 0.22507 0.08926
# Poissons Ratio (z) = 0.09581 0.10111
#
# Static dielectric constant tensor:
#      x y z
#    x 2.008470 0.000000 -0.046590 
#    y 0.000000 2.016390 0.000000 
#    z -0.046590 0.000000 1.953440 
# 
# From -- ./inp_files/85513.got.cif
#   From: 2010.05.17/outbox.cif.g08.bks.cpg/sg15_43_cif.got.tgz:85513.got - 2010.06.03 18:47:42.
