data_PCOD9304753
_publ_section_title
;
Structure prediction by ZEFSAII (Michael W. Deem and Ramdas Pophale) SiO2 
 PCOD9304753
Probable space group: C 2/C
;
_chemical_formula_sum "Si O2"
_cell_formula_units_Z 56
_cell_length_a 12.619984
_cell_length_b 23.431599
_cell_length_c 8.666814
_cell_angle_alpha 90.000000
_cell_angle_beta 64.340113
_cell_angle_gamma 90.000000
_cell_volume 2310.086917
_symmetry_space_group_name_H-M "C 2/C"
_symmetry_group_IT_number 15
_symmetry_cell_setting 'monoclinic'
loop_
_space_group_symop_operation_xyz
x,y,z
-x,y,1/2-z
-x,-y,-z
x,-y,1/2+z
1/2+x,1/2+y,z
1/2-x,1/2+y,1/2-z
1/2-x,1/2-y,-z
1/2+x,1/2-y,1/2+z
loop_
_atom_site_type_symbol
_atom_site_label
_atom_site_fract_x
_atom_site_fract_y
_atom_site_fract_z
Si Si1 0.248407 0.557379 0.036851
Si Si2 0.722551 0.131537 0.764220
Si Si3 0.482236 0.658803 0.576235
Si Si4 0.405700 0.867989 0.676830
Si Si5 0.479776 0.779225 0.079667
Si Si6 0.096169 0.057339 0.304757
Si Si7 0.343670 0.944102 0.468899
O O1 0.209880 0.612808 0.159183
O O2 0.349832 0.528065 0.075717
O O3 0.148553 0.509478 0.084561
O O4 0.266667 0.583560 0.858047
O O5 0.842588 0.160452 0.633406
O O6 0.631640 0.179264 0.879183
O O7 0.653718 0.097502 0.676315
O O8 0.500000 0.647773 0.750000
O O9 0.535858 0.719545 0.496059
O O10 0.535660 0.612058 0.425002
O O11 0.500000 0.861313 0.750000
O O12 0.409947 0.812406 0.568021
O O13 0.429393 0.920807 0.546187
O O14 0.500000 0.771995 0.250000
O O15 0.000000 0.031594 0.250000
O O16 0.212553 0.063152 0.125147
#
# Coordination Sequence:
#
# PCOD9304753 Si02
#       7
#     8   8   8   8   8   8   8
#     4  11  25  45  70 106 144 186 233 288 351 419
#     4  12  24  46  72 104 144 180 238 294 344 432
#     4  12  27  47  73 105 138 188 235 292 365 416
#     4  11  23  46  71 102 145 180 237 290 349 422
#     4  12  27  47  73 105 138 188 235 292 365 416
#     4  11  23  46  71 102 145 180 237 290 349 422
#     4  11  25  45  70 106 144 186 233 288 351 419
#
# _framework density 24.241512
#
# number of rings (size 3 to 8) (size 9 to 14) (size 15 to 20)
#    0.000    0.571    5.714    2.571    0.000    4.571 
#    5.143    0.000    0.000    0.000    0.000    0.000 
#    0.000    0.000    0.000    0.000    0.000    0.000 
#
# Total GULP energy -156378.364352 kJ/mol
# GULP energy per Si atom -5584.941584 kJ/mol
# Density = 2.418634 g / cm^3
# Si number density = 24.241512 Si / 1000 Ang^3
#
#
#
# Elastic Constant Matrix: (Units=GPa)
#
#
# Indices 1 2 3 4 5 6 
#
# 1 54.9295 -5.7034 32.0354 0.0000 24.5576 0.0000
# 2 -5.7034 68.2010 33.1495 0.0000 -1.3068 0.0000
# 3 32.0354 33.1495 119.0112 0.0000 10.8589 0.0000
# 4 0.0000 0.0000 0.0000 44.9347 0.0000 -4.9086
# 5 24.5576 -1.3068 10.8589 0.0000 51.5762 0.0000
# 6 0.0000 0.0000 0.0000 -4.9086 0.0000 16.4850
#
#
#
# Elastic Compliance Matrix: (Units=1/GPa)
#
#
# Indices 1 2 3 4 5 6 
#
# 1 0.029181 0.006362 -0.008538 0.000000 -0.011936 0.000000
# 2 0.006362 0.018453 -0.006748 0.000000 -0.001141 0.000000
# 3 -0.008538 -0.006748 0.012465 0.000000 0.001270 0.000000
# 4 0.000000 0.000000 0.000000 0.023003 0.000000 0.006849
# 5 -0.011936 -0.001141 0.001270 0.000000 0.024776 0.000000
# 6 0.000000 0.000000 0.000000 0.006849 0.000000 0.062701
#
#
# Mechanical properties :
#
#
# Convention : Reuss Voigt Hill
#
# Bulk Modulus (GPa) = 23.66900 40.12273 31.89586
# Shear Modulus (GPa) = 24.69019 34.77651 29.73335
#
# Velocity S-wave (km/s) = 3.19487 3.79170 3.50601
# Velocity P-wave (km/s) = 4.83680 5.97967 5.43834
#
# Compressibility (1/GPa) = 0.04224936
#
# Stress axis : x y z
#
# Youngs Moduli (GPa) = 34.26869 54.19275 80.22750
#
# Poissons Ratio (x) = -0.34475 0.68497
# Poissons Ratio (y) = -0.21800 0.54139
# Poissons Ratio (z) = 0.29258 0.36570
#
# Static dielectric constant tensor:
#      x y z
#    x 1.991150 0.000000 -0.049500 
#    y 0.000000 1.911620 0.000000 
#    z -0.049500 0.000000 1.971900 
# 
# From -- ./inp_files/42533.got.cif
#   From: 2010.05.17/outbox.cif.g08.bks.cpg/sg15_22_cif.got.tgz:42533.got - 2010.06.03 18:47:42.
