data_PCOD9304869
_publ_section_title
;
Structure prediction by ZEFSAII (Michael W. Deem and Ramdas Pophale) SiO2 
 PCOD9304869
Probable space group: C 2/C
;
_chemical_formula_sum "Si O2"
_cell_formula_units_Z 40
_cell_length_a 11.781873
_cell_length_b 7.615066
_cell_length_c 17.279333
_cell_angle_alpha 90.000000
_cell_angle_beta 77.321464
_cell_angle_gamma 90.000000
_cell_volume 1512.496117
_symmetry_space_group_name_H-M "C 2/C"
_symmetry_group_IT_number 15
_symmetry_cell_setting 'monoclinic'
loop_
_space_group_symop_operation_xyz
x,y,z
-x,y,1/2-z
-x,-y,-z
x,-y,1/2+z
1/2+x,1/2+y,z
1/2-x,1/2+y,1/2-z
1/2-x,1/2-y,-z
1/2+x,1/2-y,1/2+z
loop_
_atom_site_type_symbol
_atom_site_label
_atom_site_fract_x
_atom_site_fract_y
_atom_site_fract_z
Si Si1 0.568064 0.545020 0.668700
Si Si2 0.261765 0.444610 0.126359
Si Si3 0.993073 0.339962 0.378936
Si Si4 0.303793 0.083633 0.205507
Si Si5 0.380304 0.689017 0.998569
O O1 0.512758 0.352595 0.660092
O O2 0.700425 0.512863 0.673951
O O3 0.563712 0.655420 0.592016
O O4 0.354879 0.488931 0.550619
O O5 0.500000 0.371571 0.250000
O O6 0.139353 0.405810 0.102731
O O7 0.234585 0.584032 0.198799
O O8 0.303846 0.273113 0.165845
O O9 0.079589 0.470242 0.321215
O O10 0.046326 0.312196 0.456083
O O11 0.250000 0.750000 0.000000
#
# Coordination Sequence:
#
# PCOD9304869 Si02
#       5
#     8   8   8   8   8
#     4  11  24  47  79 106 152 205 256 326 394 460
#     4  11  26  47  78 111 157 208 253 329 394 459
#     4  11  24  50  76 114 154 203 262 320 390 473
#     4  11  23  47  77 113 155 200 267 322 387 474
#     4  12  26  51  76 113 161 202 266 326 386 477
#
# _framework density 26.446351
#
# number of rings (size 3 to 8) (size 9 to 14) (size 15 to 20)
#    0.000    0.800    2.000    6.000    0.000    4.000 
#   10.800    4.000    0.000    0.000    0.000    0.000 
#    0.000    0.000    0.000    0.000    0.000    0.000 
#
# Total GULP energy -112422.199809 kJ/mol
# GULP energy per Si atom -5621.109990 kJ/mol
# Density = 2.638616 g / cm^3
# Si number density = 26.446351 Si / 1000 Ang^3
#
#
#
# Elastic Constant Matrix: (Units=GPa)
#
#
# Indices 1 2 3 4 5 6 
#
# 1 161.2956 31.7066 55.9604 0.0000 22.7903 0.0000
# 2 31.7066 98.9270 47.3339 0.0000 -4.3615 0.0000
# 3 55.9604 47.3339 194.4414 0.0000 -2.9190 0.0000
# 4 0.0000 0.0000 0.0000 40.3189 0.0000 2.7033
# 5 22.7903 -4.3615 -2.9190 0.0000 65.4958 0.0000
# 6 0.0000 0.0000 0.0000 2.7033 0.0000 44.9859
#
#
#
# Elastic Compliance Matrix: (Units=1/GPa)
#
#
# Indices 1 2 3 4 5 6 
#
# 1 0.007556 -0.001681 -0.001808 0.000000 -0.002822 0.000000
# 2 -0.001681 0.011842 -0.002380 0.000000 0.001268 0.000000
# 3 -0.001808 -0.002380 0.006254 0.000000 0.000749 0.000000
# 4 0.000000 0.000000 0.000000 0.024903 0.000000 -0.001496
# 5 -0.002822 0.001268 0.000749 0.000000 0.016368 0.000000
# 6 0.000000 0.000000 0.000000 -0.001496 0.000000 0.022319
#
#
# Mechanical properties :
#
#
# Convention : Reuss Voigt Hill
#
# Bulk Modulus (GPa) = 71.86913 80.51841 76.19377
# Shear Modulus (GPa) = 47.34078 51.47099 49.40588
#
# Velocity S-wave (km/s) = 4.23551 4.41641 4.32690
# Velocity P-wave (km/s) = 7.15219 7.51786 7.33731
#
# Compressibility (1/GPa) = 0.01391418
#
# Stress axis : x y z
#
# Youngs Moduli (GPa) = 132.34182 84.44607 159.90275
#
# Poissons Ratio (x) = 0.14197 0.28907
# Poissons Ratio (y) = 0.22250 0.38054
# Poissons Ratio (z) = 0.23924 0.20097
#
# Static dielectric constant tensor:
#      x y z
#    x 2.049070 0.000000 0.022260 
#    y 0.000000 2.104220 0.000000 
#    z 0.022260 0.000000 2.011970 
# 
# From -- ./inp_files/235884.got.cif
#   From: 2010.05.17/outbox.cif.g08.bks.cpg/sg15_118_cif.got.tgz:235884.got - 2010.06.03 18:47:42.
