data_PCOD9304691
_publ_section_title
;
Structure prediction by ZEFSAII (Michael W. Deem and Ramdas Pophale) SiO2 
 PCOD9304691
Probable space group: C 2/C
;
_chemical_formula_sum "Si O2"
_cell_formula_units_Z 64
_cell_length_a 26.292440
_cell_length_b 5.498175
_cell_length_c 28.536488
_cell_angle_alpha 90.000000
_cell_angle_beta 137.565170
_cell_angle_gamma 90.000000
_cell_volume 2783.515339
_symmetry_space_group_name_H-M "C 2/C"
_symmetry_group_IT_number 15
_symmetry_cell_setting 'monoclinic'
loop_
_space_group_symop_operation_xyz
x,y,z
-x,y,1/2-z
-x,-y,-z
x,-y,1/2+z
1/2+x,1/2+y,z
1/2-x,1/2+y,1/2-z
1/2-x,1/2-y,-z
1/2+x,1/2-y,1/2+z
loop_
_atom_site_type_symbol
_atom_site_label
_atom_site_fract_x
_atom_site_fract_y
_atom_site_fract_z
Si Si1 0.544125 0.617605 0.823490
Si Si2 0.778439 0.822682 0.071278
Si Si3 0.974637 0.141495 0.365210
Si Si4 0.297450 0.160364 0.341293
Si Si5 0.423322 0.008754 0.258123
Si Si6 0.669125 0.314876 0.239642
Si Si7 0.281310 0.829838 0.125273
Si Si8 0.537449 0.248543 0.006728
O O1 0.500000 0.495298 0.750000
O O2 0.631074 0.653864 0.872085
O O3 0.524944 0.485751 0.859189
O O4 0.502581 0.878264 0.798703
O O5 0.755176 0.582601 0.084701
O O6 0.755993 0.084171 0.080051
O O7 0.750000 0.750000 0.000000
O O8 0.937895 0.372891 0.316226
O O9 0.024287 0.222419 0.442521
O O10 0.900303 0.984060 0.326758
O O11 0.309238 0.180474 0.293638
O O12 0.242655 0.326150 0.336225
O O13 0.376698 0.210291 0.419640
O O14 0.249478 0.914965 0.311644
O O15 0.369348 0.226138 0.238409
O O16 0.372680 0.848151 0.189336
O O17 0.500000 0.500000 0.000000
O O18 0.500000 0.000000 0.000000
#
# Coordination Sequence:
#
# PCOD9304691 Si02
#       8
#     8   8   8   8   8   8   8   8
#     4  11  25  45  79 110 147 205 254 325 392 442
#     4  12  29  51  75 108 156 195 256 319 382 453
#     4  11  25  46  74 109 154 196 261 314 384 465
#     4  12  26  45  79 105 157 200 254 306 394 448
#     4  11  23  45  75 111 149 191 261 318 374 457
#     4  11  24  44  70 114 147 203 248 321 370 466
#     4  12  26  48  74 110 146 198 256 312 374 462
#     4  12  29  50  74 111 157 204 249 312 382 465
#
# _framework density 22.992508000000001
#
# number of rings (size 3 to 8) (size 9 to 14) (size 15 to 20)
#    0.000    0.500    3.750    3.375    7.000    3.500 
#    0.000    0.000    0.000    0.000    0.000    0.000 
#    0.000    0.000    0.000    0.000    0.000    0.000 
#
# Total GULP energy -178447.060770 kJ/mol
# GULP energy per Si atom -5576.470649 kJ/mol
# Density = 2.294018 g / cm^3
# Si number density = 22.992508 Si / 1000 Ang^3
#
#
#
# Elastic Constant Matrix: (Units=GPa)
#
#
# Indices 1 2 3 4 5 6 
#
# 1 75.5401 25.1748 -9.5947 0.0041 -5.3619 0.0185
# 2 25.1748 89.5718 21.7710 -0.0050 -5.6338 0.0134
# 3 -9.5947 21.7710 95.7719 0.0181 -14.1973 0.0221
# 4 0.0041 -0.0050 0.0181 45.0290 -0.0077 19.8093
# 5 -5.3619 -5.6338 -14.1973 -0.0077 56.2971 -0.0040
# 6 0.0185 0.0134 0.0221 19.8093 -0.0040 48.5790
#
#
#
# Elastic Compliance Matrix: (Units=1/GPa)
#
#
# Indices 1 2 3 4 5 6 
#
# 1 0.015368 -0.004920 0.002911 0.000000 0.001705 -0.000006
# 2 -0.004920 0.013407 -0.003544 0.000004 -0.000021 -0.000002
# 3 0.002911 -0.003544 0.011975 -0.000003 0.002942 -0.000004
# 4 0.000000 0.000004 -0.000003 0.027063 0.000002 -0.011035
# 5 0.001705 -0.000021 0.002942 0.000002 0.018665 -0.000001
# 6 -0.000006 -0.000002 -0.000004 -0.011035 -0.000001 0.025085
#
#
# Mechanical properties :
#
#
# Convention : Reuss Voigt Hill
#
# Bulk Modulus (GPa) = 33.73221 37.28733 35.50977
# Shear Modulus (GPa) = 37.72176 44.88321 41.30249
#
# Velocity S-wave (km/s) = 4.05484 4.42303 4.24293
# Velocity P-wave (km/s) = 6.05187 6.50666 6.28338
#
# Compressibility (1/GPa) = 0.02964525
#
# Stress axis : x y z
#
# Youngs Moduli (GPa) = 65.06910 74.58843 83.50867
#
# Poissons Ratio (x) = 0.36694 -0.24308
# Poissons Ratio (y) = 0.32011 0.29592
# Poissons Ratio (z) = -0.18940 0.26431
#
# Static dielectric constant tensor:
#      x y z
#    x 1.931850 -0.000030 0.012430 
#    y -0.000030 2.034620 -0.000020 
#    z 0.012430 -0.000020 1.865070 
# 
# From -- ./inp_files/319322.got.cif
#   From: 2010.05.17/outbox.cif.g08.bks.cpg/sg15_160_cif.got.tgz:319322.got - 2010.06.03 18:47:42.
