data_PCOD9304468
_publ_section_title
;
Structure prediction by ZEFSAII (Michael W. Deem and Ramdas Pophale) SiO2 
 PCOD9304468
Probable space group: C 2/C
;
_chemical_formula_sum "Si O2"
_cell_formula_units_Z 52
_cell_length_a 8.318612
_cell_length_b 27.599516
_cell_length_c 11.620806
_cell_angle_alpha 90.000000
_cell_angle_beta 120.716870
_cell_angle_gamma 90.000000
_cell_volume 2293.699278
_symmetry_space_group_name_H-M "C 2/C"
_symmetry_group_IT_number 15
_symmetry_cell_setting 'monoclinic'
loop_
_space_group_symop_operation_xyz
x,y,z
-x,y,1/2-z
-x,-y,-z
x,-y,1/2+z
1/2+x,1/2+y,z
1/2-x,1/2+y,1/2-z
1/2-x,1/2-y,-z
1/2+x,1/2-y,1/2+z
loop_
_atom_site_type_symbol
_atom_site_label
_atom_site_fract_x
_atom_site_fract_y
_atom_site_fract_z
Si Si1 0.147345 0.893151 0.066851
Si Si2 0.510353 0.793473 0.999910
Si Si3 0.443810 0.694852 0.595324
Si Si4 0.512247 0.887339 0.623173
Si Si5 0.641776 0.561225 0.903903
Si Si6 0.000000 0.333021 0.250000
Si Si7 0.792331 0.951903 0.629444
O O1 0.322634 0.869232 0.197414
O O2 0.001412 0.848951 0.031645
O O3 0.012697 0.937952 0.052552
O O4 0.238073 0.914906 0.986162
O O5 0.721274 0.799487 0.027031
O O6 0.496085 0.800409 0.132543
O O7 0.457671 0.741858 0.926267
O O8 0.406638 0.840108 0.910739
O O9 0.500000 0.688703 0.750000
O O10 0.500000 0.872461 0.750000
O O11 0.317940 0.904718 0.493917
O O12 0.644588 0.934292 0.668488
O O13 0.500000 0.577722 0.750000
O O14 0.720048 0.508152 0.906189
O O15 0.000000 0.943731 0.750000
#
# Coordination Sequence:
#
# PCOD9304468 Si02
#       7
#     8   8   8   8   8   4   8
#     4  12  23  43  69  98 139 175 230 290 351 407
#     4  11  24  44  68 102 134 180 235 282 352 415
#     4  11  23  44  69  95 136 184 229 283 349 423
#     4  12  24  46  72 103 143 187 233 290 351 422
#     4  11  24  45  72  98 138 187 237 286 352 418
#     4  12  24  44  70 106 136 178 236 296 342 428
#     4  11  26  45  65 103 141 180 237 289 350 416
#
# _framework density 22.670801999999998
#
# number of rings (size 3 to 8) (size 9 to 14) (size 15 to 20)
#    0.000    0.615    4.615    3.692    0.000    1.846 
#    2.769    0.000    0.000    0.000    0.000    0.000 
#    0.000    0.000    0.000    0.000    0.000    0.000 
#
# Total GULP energy -144952.862150 kJ/mol
# GULP energy per Si atom -5575.110083 kJ/mol
# Density = 2.261920 g / cm^3
# Si number density = 22.670802 Si / 1000 Ang^3
#
#
#
# Elastic Constant Matrix: (Units=GPa)
#
#
# Indices 1 2 3 4 5 6 
#
# 1 30.0076 5.2985 -18.6032 0.0000 1.8782 0.0000
# 2 5.2985 123.6306 37.1598 0.0000 -10.4676 0.0000
# 3 -18.6032 37.1598 65.5370 0.0000 -20.1429 0.0000
# 4 0.0000 0.0000 0.0000 14.3008 0.0000 -11.2829
# 5 1.8782 -10.4676 -20.1429 0.0000 39.5713 0.0000
# 6 0.0000 0.0000 0.0000 -11.2829 0.0000 45.2933
#
#
#
# Elastic Compliance Matrix: (Units=1/GPa)
#
#
# Indices 1 2 3 4 5 6 
#
# 1 0.045867 -0.007138 0.018751 0.000000 0.005480 0.000000
# 2 -0.007138 0.010864 -0.008534 0.000000 -0.001131 0.000000
# 3 0.018751 -0.008534 0.028988 0.000000 0.011608 0.000000
# 4 0.000000 0.000000 0.000000 0.087031 0.000000 0.021680
# 5 0.005480 -0.001131 0.011608 0.000000 0.030620 0.000000
# 6 0.000000 0.000000 0.000000 0.021680 0.000000 0.027479
#
#
# Mechanical properties :
#
#
# Convention : Reuss Voigt Hill
#
# Bulk Modulus (GPa) = 10.88404 29.65392 20.26898
# Shear Modulus (GPa) = 19.58361 32.85443 26.21902
#
# Velocity S-wave (km/s) = 2.94228 3.81096 3.40444
# Velocity P-wave (km/s) = 4.04401 5.69852 4.94101
#
# Compressibility (1/GPa) = 0.09187761
#
# Stress axis : x y z
#
# Youngs Moduli (GPa) = 21.80217 92.04970 34.49750
#
# Poissons Ratio (x) = 0.65703 -0.64687
# Poissons Ratio (y) = 0.15562 0.29439
# Poissons Ratio (z) = -0.40881 0.78552
#
# Static dielectric constant tensor:
#      x y z
#    x 1.971300 0.000000 -0.091050 
#    y 0.000000 1.903790 0.000000 
#    z -0.091050 0.000000 1.931670 
# 
# From -- ./inp_files/81492.got.cif
#   From: 2010.05.17/outbox.cif.g08.bks.cpg/sg15_41_cif.got.tgz:81492.got - 2010.06.03 18:47:42.
