data_PCOD9304295
_publ_section_title
;
Structure prediction by ZEFSAII (Michael W. Deem and Ramdas Pophale) SiO2 
 PCOD9304295
Probable space group: C 2/C
;
_chemical_formula_sum "Si O2"
_cell_formula_units_Z 40
_cell_length_a 13.066600
_cell_length_b 8.299127
_cell_length_c 16.577732
_cell_angle_alpha 90.000000
_cell_angle_beta 109.844136
_cell_angle_gamma 90.000000
_cell_volume 1690.963075
_symmetry_space_group_name_H-M "C 2/C"
_symmetry_group_IT_number 15
_symmetry_cell_setting 'monoclinic'
loop_
_space_group_symop_operation_xyz
x,y,z
-x,y,1/2-z
-x,-y,-z
x,-y,1/2+z
1/2+x,1/2+y,z
1/2-x,1/2+y,1/2-z
1/2-x,1/2-y,-z
1/2+x,1/2-y,1/2+z
loop_
_atom_site_type_symbol
_atom_site_label
_atom_site_fract_x
_atom_site_fract_y
_atom_site_fract_z
Si Si1 0.713845 0.399370 0.063534
Si Si2 0.308790 0.693811 0.337126
Si Si3 0.639260 0.384319 0.399445
Si Si4 0.005780 0.307743 0.994287
Si Si5 0.607546 0.709410 0.313847
O O1 0.708598 0.511788 0.140184
O O2 0.609669 0.283061 0.037454
O O3 0.825618 0.303550 0.100883
O O4 0.709068 0.523000 0.987252
O O5 0.215365 0.799799 0.354277
O O6 0.421111 0.747713 0.410713
O O7 0.314585 0.698537 0.242973
O O8 0.566633 0.257695 0.429695
O O9 0.578325 0.532964 0.340386
O O10 0.000000 0.500000 0.000000
O O11 0.500000 0.791399 0.250000
#
# Coordination Sequence:
#
# PCOD9304295 Si02
#       5
#     8   8   8   8   8
#     4  11  23  43  69 100 136 178 224 275 336 404
#     4  11  24  43  68 103 136 175 226 279 337 399
#     4  11  24  44  69  98 139 179 224 277 335 406
#     4  11  23  43  73 104 133 176 227 276 334 407
#     4  12  25  43  66  97 136 180 226 283 338 392
#
# _framework density 23.655159999999999
#
# number of rings (size 3 to 8) (size 9 to 14) (size 15 to 20)
#    0.000    0.800    0.000   10.200    0.000    4.800 
#    0.000    1.000    0.000    2.400    0.000    0.000 
#    0.000    0.000    0.000    0.000    0.000    0.000 
#
# Total GULP energy -112023.084923 kJ/mol
# GULP energy per Si atom -5601.154246 kJ/mol
# Density = 2.360132 g / cm^3
# Si number density = 23.655160 Si / 1000 Ang^3
#
#
#
# Elastic Constant Matrix: (Units=GPa)
#
#
# Indices 1 2 3 4 5 6 
#
# 1 97.6783 49.5703 28.6422 0.0000 -7.3210 0.0000
# 2 49.5703 144.2480 8.6927 0.0000 -13.7083 0.0000
# 3 28.6422 8.6927 74.4220 0.0000 -37.1050 0.0000
# 4 0.0000 0.0000 0.0000 36.7620 0.0000 -8.5766
# 5 -7.3210 -13.7083 -37.1050 0.0000 49.9034 0.0000
# 6 0.0000 0.0000 0.0000 -8.5766 0.0000 37.5545
#
#
#
# Elastic Compliance Matrix: (Units=1/GPa)
#
#
# Indices 1 2 3 4 5 6 
#
# 1 0.014599 -0.005021 -0.007392 0.000000 -0.004734 0.000000
# 2 -0.005021 0.008848 0.002771 0.000000 0.003754 0.000000
# 3 -0.007392 0.002771 0.025103 0.000000 0.018342 0.000000
# 4 0.000000 0.000000 0.000000 0.028733 0.000000 0.006562
# 5 -0.004734 0.003754 0.018342 0.000000 0.034013 0.000000
# 6 0.000000 0.000000 0.000000 0.006562 0.000000 0.028127
#
#
# Mechanical properties :
#
#
# Convention : Reuss Voigt Hill
#
# Bulk Modulus (GPa) = 34.17200 54.46208 44.31704
# Shear Modulus (GPa) = 29.68023 40.14018 34.91020
#
# Velocity S-wave (km/s) = 3.54602 4.12380 3.84578
# Velocity P-wave (km/s) = 5.58954 6.76370 6.20446
#
# Compressibility (1/GPa) = 0.02926372
#
# Stress axis : x y z
#
# Youngs Moduli (GPa) = 68.49923 113.02236 39.83594
#
# Poissons Ratio (x) = 0.56751 0.29448
# Poissons Ratio (y) = 0.34395 -0.11037
# Poissons Ratio (z) = 0.50637 -0.31314
#
# Static dielectric constant tensor:
#      x y z
#    x 1.933300 0.000000 -0.012570 
#    y 0.000000 1.891200 0.000000 
#    z -0.012570 0.000000 1.891530 
# 
# From -- ./inp_files/195246.got.cif
#   From: 2010.05.17/outbox.cif.g08.bks.cpg/sg15_98_cif.got.tgz:195246.got - 2010.06.03 18:47:42.
