data_PCOD9304807
_publ_section_title
;
Structure prediction by ZEFSAII (Michael W. Deem and Ramdas Pophale) SiO2 
 PCOD9304807
Probable space group: C 2/C
;
_chemical_formula_sum "Si O2"
_cell_formula_units_Z 40
_cell_length_a 24.461847
_cell_length_b 9.725924
_cell_length_c 11.609389
_cell_angle_alpha 90.000000
_cell_angle_beta 143.886511
_cell_angle_gamma 90.000000
_cell_volume 1627.907454
_symmetry_space_group_name_H-M "C 2/C"
_symmetry_group_IT_number 15
_symmetry_cell_setting 'monoclinic'
loop_
_space_group_symop_operation_xyz
x,y,z
-x,y,1/2-z
-x,-y,-z
x,-y,1/2+z
1/2+x,1/2+y,z
1/2-x,1/2+y,1/2-z
1/2-x,1/2-y,-z
1/2+x,1/2-y,1/2+z
loop_
_atom_site_type_symbol
_atom_site_label
_atom_site_fract_x
_atom_site_fract_y
_atom_site_fract_z
Si Si1 0.106036 0.749994 0.879049
Si Si2 0.891264 0.030166 0.314128
Si Si3 0.391263 0.030159 0.814119
Si Si4 0.103813 0.749997 0.479503
Si Si5 0.705817 0.250006 0.290325
O O1 0.125087 0.880178 0.828465
O O2 0.125090 0.619797 0.828487
O O3 0.000000 0.749994 0.750000
O O4 0.172767 0.750009 0.100980
O O5 0.878508 0.120614 0.407086
O O6 0.000000 0.000000 0.500000
O O7 0.835873 0.889870 0.230141
O O8 0.378506 0.120624 0.907066
O O9 0.335872 0.889864 0.730150
O O10 0.500000 0.000000 0.000000
O O11 0.183580 0.749991 0.521057
O O12 0.000000 0.749991 0.250000
#
# Coordination Sequence:
#
# PCOD9304807 Si02
#       5
#     8   8   8   8   8
#     4  11  23  46  80 108 155 197 238 312 380 449
#     4  11  24  47  76 114 146 196 252 303 381 454
#     4  11  24  47  76 114 146 196 252 303 381 454
#     4  11  28  50  74 106 158 200 250 315 371 437
#     4  12  25  51  78 114 149 200 253 307 375 446
#
# _framework density 24.571421999999998
#
# number of rings (size 3 to 8) (size 9 to 14) (size 15 to 20)
#    0.000    0.800    4.000    2.400    5.600    3.200 
#    7.200    3.000    0.000    0.000    0.000    0.000 
#    0.000    0.000    0.000    0.000    0.000    0.000 
#
# Total GULP energy -112263.338137 kJ/mol
# GULP energy per Si atom -5613.166907 kJ/mol
# Density = 2.451550 g / cm^3
# Si number density = 24.571422 Si / 1000 Ang^3
#
#
#
# Elastic Constant Matrix: (Units=GPa)
#
#
# Indices 1 2 3 4 5 6 
#
# 1 173.0133 142.8227 92.0183 0.0000 13.2178 0.0000
# 2 142.8227 241.9776 80.9553 0.0000 -4.2038 0.0000
# 3 92.0183 80.9553 176.2202 0.0000 -14.5513 0.0000
# 4 0.0000 0.0000 0.0000 16.4437 0.0000 3.7562
# 5 13.2178 -4.2038 -14.5513 0.0000 75.8705 0.0000
# 6 0.0000 0.0000 0.0000 3.7562 0.0000 26.7687
#
#
#
# Elastic Compliance Matrix: (Units=1/GPa)
#
#
# Indices 1 2 3 4 5 6 
#
# 1 0.014195 -0.006924 -0.004539 0.000000 -0.003727 0.000000
# 2 -0.006924 0.008263 -0.000043 0.000000 0.001656 0.000000
# 3 -0.004539 -0.000043 0.008261 0.000000 0.002373 0.000000
# 4 0.000000 0.000000 0.000000 0.062827 0.000000 -0.008816
# 5 -0.003727 0.001656 0.002373 0.000000 0.014376 0.000000
# 6 0.000000 0.000000 0.000000 -0.008816 0.000000 0.038594
#
#
# Mechanical properties :
#
#
# Convention : Reuss Voigt Hill
#
# Bulk Modulus (GPa) = 129.78827 135.86707 132.82767
# Shear Modulus (GPa) = 29.05311 42.17757 35.61534
#
# Velocity S-wave (km/s) = 3.44233 4.14760 3.81131
# Velocity P-wave (km/s) = 8.29066 8.85164 8.57574
#
# Compressibility (1/GPa) = 0.00770486
#
# Stress axis : x y z
#
# Youngs Moduli (GPa) = 70.44797 121.02195 121.05479
#
# Poissons Ratio (x) = 0.83801 0.54946
# Poissons Ratio (y) = 0.48782 0.00526
# Poissons Ratio (z) = 0.31976 0.00526
#
# Static dielectric constant tensor:
#      x y z
#    x 2.014860 0.000000 -0.028540 
#    y 0.000000 -0.408230 0.000000 
#    z -0.028540 0.000000 1.948210 
# 
# From -- ./inp_files/122854.got.cif
#   From: 2010.05.17/outbox.cif.g08.bks.cpg/sg15_62_cif.got.tgz:122854.got - 2010.06.03 18:47:42.
