data_PCOD9304868
_publ_section_title
;
Structure prediction by ZEFSAII (Michael W. Deem and Ramdas Pophale) SiO2 
 PCOD9304868
Probable space group: C 2/C
;
_chemical_formula_sum "Si O2"
_cell_formula_units_Z 36
_cell_length_a 8.920908
_cell_length_b 11.954410
_cell_length_c 13.363691
_cell_angle_alpha 90.000000
_cell_angle_beta 106.961987
_cell_angle_gamma 90.000000
_cell_volume 1363.163456
_symmetry_space_group_name_H-M "C 2/C"
_symmetry_group_IT_number 15
_symmetry_cell_setting 'monoclinic'
loop_
_space_group_symop_operation_xyz
x,y,z
-x,y,1/2-z
-x,-y,-z
x,-y,1/2+z
1/2+x,1/2+y,z
1/2-x,1/2+y,1/2-z
1/2-x,1/2-y,-z
1/2+x,1/2-y,1/2+z
loop_
_atom_site_type_symbol
_atom_site_label
_atom_site_fract_x
_atom_site_fract_y
_atom_site_fract_z
Si Si1 0.480941 0.422346 0.627716
Si Si2 0.358298 0.881028 0.891725
Si Si3 0.555508 0.173804 0.601724
Si Si4 0.142101 0.851683 0.202427
Si Si5 0.000000 0.520800 0.750000
O O1 0.500000 0.399507 0.750000
O O2 0.292819 0.431511 0.581699
O O3 0.538340 0.306966 0.590330
O O4 0.419182 0.464090 0.366730
O O5 0.388341 0.939383 0.791277
O O6 0.516809 0.879280 0.987688
O O7 0.436553 0.892949 0.153468
O O8 0.715322 0.145177 0.689968
O O9 0.326676 0.248437 0.363824
O O10 0.000000 0.823836 0.250000
#
# Coordination Sequence:
#
# PCOD9304868 Si02
#       5
#     8   8   8   8   4
#     4  11  23  47  77 108 158 200 254 325 381 452
#     4  12  26  49  78 115 154 206 260 315 395 459
#     4  12  26  48  80 108 154 211 254 316 397 458
#     4  11  25  47  74 114 158 197 260 326 373 460
#     4  12  24  46  70 110 156 196 250 320 370 460
#
# _framework density 26.409158999999999
#
# number of rings (size 3 to 8) (size 9 to 14) (size 15 to 20)
#    0.000    0.444    4.444    4.000    0.000    1.778 
#    4.000    0.000    0.000    1.333    0.000    0.000 
#    0.000    0.000    0.000    0.000    0.000    0.000 
#
# Total GULP energy -100592.930733 kJ/mol
# GULP energy per Si atom -5588.496152 kJ/mol
# Density = 2.634905 g / cm^3
# Si number density = 26.409159 Si / 1000 Ang^3
#
#
#
# Elastic Constant Matrix: (Units=GPa)
#
#
# Indices 1 2 3 4 5 6 
#
# 1 136.6675 68.0028 47.8356 0.0000 35.0969 0.0000
# 2 68.0028 228.4349 22.6633 0.0000 13.6920 0.0000
# 3 47.8356 22.6633 77.1879 0.0000 33.2728 0.0000
# 4 0.0000 0.0000 0.0000 21.9142 0.0000 5.3168
# 5 35.0969 13.6920 33.2728 0.0000 41.8879 0.0000
# 6 0.0000 0.0000 0.0000 5.3168 0.0000 45.3326
#
#
#
# Elastic Compliance Matrix: (Units=1/GPa)
#
#
# Indices 1 2 3 4 5 6 
#
# 1 0.011463 -0.002689 -0.003882 0.000000 -0.005641 0.000000
# 2 -0.002689 0.005151 -0.000139 0.000000 0.000680 0.000000
# 3 -0.003882 -0.000139 0.021260 0.000000 -0.013589 0.000000
# 4 0.000000 0.000000 0.000000 0.046969 0.000000 -0.005509
# 5 -0.005641 0.000680 -0.013589 0.000000 0.039172 0.000000
# 6 0.000000 0.000000 0.000000 -0.005509 0.000000 0.022705
#
#
# Mechanical properties :
#
#
# Convention : Reuss Voigt Hill
#
# Bulk Modulus (GPa) = 40.89477 79.92149 60.40813
# Shear Modulus (GPa) = 29.71029 42.07954 35.89491
#
# Velocity S-wave (km/s) = 3.35774 3.99603 3.69071
# Velocity P-wave (km/s) = 5.52732 7.18467 6.40979
#
# Compressibility (1/GPa) = 0.02445300
#
# Stress axis : x y z
#
# Youngs Moduli (GPa) = 87.23972 194.13128 47.03681
#
# Poissons Ratio (x) = 0.52202 0.18262
# Poissons Ratio (y) = 0.23459 0.00654
# Poissons Ratio (z) = 0.33870 0.02698
#
# Static dielectric constant tensor:
#      x y z
#    x 2.269200 0.000000 -0.003970 
#    y 0.000000 2.081350 0.000000 
#    z -0.003970 0.000000 2.040930 
# 
# From -- ./inp_files/23865.got.cif
#   From: 2010.05.17/outbox.cif.g08.bks.cpg/sg15_12_cif.got.tgz:23865.got - 2010.06.03 18:47:42.
