data_PCOD9304071
_publ_section_title
;
Structure prediction by ZEFSAII (Michael W. Deem and Ramdas Pophale) SiO2 
 PCOD9304071
Probable space group: C 2/C
;
_chemical_formula_sum "Si O2"
_cell_formula_units_Z 40
_cell_length_a 11.726881
_cell_length_b 27.057414
_cell_length_c 9.429853
_cell_angle_alpha 90.000000
_cell_angle_beta 39.676971
_cell_angle_gamma 90.000000
_cell_volume 1910.321283
_symmetry_space_group_name_H-M "C 2/C"
_symmetry_group_IT_number 15
_symmetry_cell_setting 'monoclinic'
loop_
_space_group_symop_operation_xyz
x,y,z
-x,y,1/2-z
-x,-y,-z
x,-y,1/2+z
1/2+x,1/2+y,z
1/2-x,1/2+y,1/2-z
1/2-x,1/2-y,-z
1/2+x,1/2-y,1/2+z
loop_
_atom_site_type_symbol
_atom_site_label
_atom_site_fract_x
_atom_site_fract_y
_atom_site_fract_z
Si Si1 0.178555 0.953518 0.662044
Si Si2 0.500000 0.886263 0.250000
Si Si3 0.500000 0.870911 0.750000
Si Si4 0.324122 0.443367 0.498508
Si Si5 0.854427 0.784951 0.788835
Si Si6 0.492769 0.187838 0.527168
O O1 0.349627 0.919792 0.465591
O O2 0.147047 0.955600 0.862132
O O3 0.000000 0.936155 0.750000
O O4 0.216303 0.007041 0.554104
O O5 0.588234 0.848482 0.277141
O O6 0.660591 0.905851 0.645314
O O7 0.562594 0.834818 0.566456
O O8 0.500000 0.422821 0.250000
O O9 0.706981 0.815967 0.847865
O O10 0.000000 0.811014 0.750000
O O11 0.943556 0.744782 0.598963
O O12 0.750000 0.750000 0.000000
#
# Coordination Sequence:
#
# PCOD9304071 Si02
#       6
#     8   4   4   8   8   8
#     4  11  25  42  69  99 135 177 216 268 331 393
#     4  12  23  40  68 104 126 176 226 266 321 386
#     4  12  27  44  64 100 140 166 224 276 323 392
#     4  11  25  45  66  98 137 178 214 269 332 389
#     4   9  18  40  65  90 122 167 211 269 321 388
#     4  11  23  42  65  98 129 172 220 272 331 389
#
# _framework density 20.938886
#
# number of rings (size 3 to 8) (size 9 to 14) (size 15 to 20)
#    0.000    1.200    5.000    3.000    5.600    3.200 
#    7.200    0.000    0.000    0.000    0.000    0.000 
#    0.000    0.000    0.000    0.000    0.000    0.000 
#
# Total GULP energy -111627.965585 kJ/mol
# GULP energy per Si atom -5581.398279 kJ/mol
# Density = 2.089123 g / cm^3
# Si number density = 20.938886 Si / 1000 Ang^3
#
#
#
# Elastic Constant Matrix: (Units=GPa)
#
#
# Indices 1 2 3 4 5 6 
#
# 1 100.6494 31.9125 37.5156 0.0000 24.1398 0.0000
# 2 31.9125 64.4875 26.9679 0.0000 -0.6003 0.0000
# 3 37.5156 26.9679 92.1315 0.0000 19.7587 0.0000
# 4 0.0000 0.0000 0.0000 34.2030 0.0000 8.8157
# 5 24.1398 -0.6003 19.7587 0.0000 50.7384 0.0000
# 6 0.0000 0.0000 0.0000 8.8157 0.0000 22.9062
#
#
#
# Elastic Compliance Matrix: (Units=1/GPa)
#
#
# Indices 1 2 3 4 5 6 
#
# 1 0.014247 -0.005917 -0.002838 0.000000 -0.005743 0.000000
# 2 -0.005917 0.020405 -0.004603 0.000000 0.004849 0.000000
# 3 -0.002838 -0.004603 0.014271 0.000000 -0.004262 0.000000
# 4 0.000000 0.000000 0.000000 0.032457 0.000000 -0.012491
# 5 -0.005743 0.004849 -0.004262 0.000000 0.024158 0.000000
# 6 0.000000 0.000000 0.000000 -0.012491 0.000000 0.048464
#
#
# Mechanical properties :
#
#
# Convention : Reuss Voigt Hill
#
# Bulk Modulus (GPa) = 45.03096 50.00672 47.51884
# Shear Modulus (GPa) = 26.57882 32.29437 29.43659
#
# Velocity S-wave (km/s) = 3.56666 3.93149 3.75351
# Velocity P-wave (km/s) = 6.20597 6.67405 6.44426
#
# Compressibility (1/GPa) = 0.02220694
#
# Stress axis : x y z
#
# Youngs Moduli (GPa) = 70.19206 49.00711 70.07231
#
# Poissons Ratio (x) = 0.28997 0.19883
# Poissons Ratio (y) = 0.41532 0.32257
# Poissons Ratio (z) = 0.19917 0.22560
#
# Static dielectric constant tensor:
#      x y z
#    x 1.763960 0.000000 -0.042320 
#    y 0.000000 1.747020 0.000000 
#    z -0.042320 0.000000 1.728690 
# 
# From -- ./inp_files/35012.got.cif
#   From: 2010.05.17/outbox.cif.g08.bks.cpg/sg15_18_cif.got.tgz:35012.got - 2010.06.03 18:47:42.
