data_PCOD9304161
_publ_section_title
;
Structure prediction by ZEFSAII (Michael W. Deem and Ramdas Pophale) SiO2 
 PCOD9304161
Probable space group: C 2/C
;
_chemical_formula_sum "Si O2"
_cell_formula_units_Z 56
_cell_length_a 8.678459
_cell_length_b 14.876088
_cell_length_c 21.267679
_cell_angle_alpha 90.000000
_cell_angle_beta 113.570965
_cell_angle_gamma 90.000000
_cell_volume 2516.604412
_symmetry_space_group_name_H-M "C 2/C"
_symmetry_group_IT_number 15
_symmetry_cell_setting 'monoclinic'
loop_
_space_group_symop_operation_xyz
x,y,z
-x,y,1/2-z
-x,-y,-z
x,-y,1/2+z
1/2+x,1/2+y,z
1/2-x,1/2+y,1/2-z
1/2-x,1/2-y,-z
1/2+x,1/2-y,1/2+z
loop_
_atom_site_type_symbol
_atom_site_label
_atom_site_fract_x
_atom_site_fract_y
_atom_site_fract_z
Si Si1 0.962058 0.690848 0.909275
Si Si2 0.304054 0.037453 0.576284
Si Si3 0.500000 0.139498 0.250000
Si Si4 0.031986 0.646387 0.446993
Si Si5 0.658873 0.371765 0.927000
Si Si6 0.000000 0.931203 0.250000
Si Si7 0.165791 0.971728 0.677358
Si Si8 0.095466 0.777263 0.355695
O O1 0.785123 0.733058 0.860612
O O2 0.042690 0.606857 0.886473
O O3 0.095635 0.771328 0.932559
O O4 0.924189 0.651482 0.972280
O O5 0.204695 0.076323 0.499359
O O6 0.373227 0.938056 0.569409
O O7 0.192014 0.034438 0.620410
O O8 0.662293 0.083256 0.292638
O O9 0.470080 0.206844 0.302590
O O10 0.830913 0.631647 0.415313
O O11 0.083130 0.741879 0.424416
O O12 0.505657 0.418348 0.865469
O O13 0.950943 0.872893 0.180733
O O14 0.851632 0.988074 0.255776
#
# Coordination Sequence:
#
# PCOD9304161 Si02
#       8
#     8   8   4   8   8   4   8   8
#     4  11  23  42  70 109 137 177 220 281 348 415
#     4  11  24  43  74 104 139 178 226 290 351 411
#     4  11  24  50  64  95 132 188 229 276 342 404
#     4  11  23  42  73 102 142 176 219 289 345 416
#     4  11  24  43  71 109 134 178 225 289 355 404
#     4  11  32  42  68 101 126 192 235 288 328 420
#     4  12  27  46  71  95 140 179 242 285 342 415
#     4  11  25  46  67  95 141 180 230 275 345 405
#
# _framework density 22.252206999999999
#
# number of rings (size 3 to 8) (size 9 to 14) (size 15 to 20)
#    0.000    0.857    2.857    4.286   12.000    0.000 
#    0.000    0.000    0.000    0.000    0.000    0.000 
#    0.000    0.000    0.000    0.000    0.000    0.000 
#
# Total GULP energy -156271.738871 kJ/mol
# GULP energy per Si atom -5581.133531 kJ/mol
# Density = 2.220156 g / cm^3
# Si number density = 22.252207 Si / 1000 Ang^3
#
#
#
# Elastic Constant Matrix: (Units=GPa)
#
#
# Indices 1 2 3 4 5 6 
#
# 1 90.0208 36.4380 29.9139 0.0000 -8.3554 0.0000
# 2 36.4380 79.2040 22.5732 0.0000 -16.5386 0.0000
# 3 29.9139 22.5732 47.4480 0.0000 -2.3111 0.0000
# 4 0.0000 0.0000 0.0000 26.2389 0.0000 0.2310
# 5 -8.3554 -16.5386 -2.3111 0.0000 48.3883 0.0000
# 6 0.0000 0.0000 0.0000 0.2310 0.0000 33.2256
#
#
#
# Elastic Compliance Matrix: (Units=1/GPa)
#
#
# Indices 1 2 3 4 5 6 
#
# 1 0.015655 -0.004929 -0.007493 0.000000 0.000661 0.000000
# 2 -0.004929 0.017293 -0.004885 0.000000 0.004826 0.000000
# 3 -0.007493 -0.004885 0.028044 0.000000 -0.001624 0.000000
# 4 0.000000 0.000000 0.000000 0.038114 0.000000 -0.000265
# 5 0.000661 0.004826 -0.001624 0.000000 0.022352 0.000000
# 6 0.000000 0.000000 0.000000 -0.000265 0.000000 0.030099
#
#
# Mechanical properties :
#
#
# Convention : Reuss Voigt Hill
#
# Bulk Modulus (GPa) = 37.90751 43.83587 40.87169
# Shear Modulus (GPa) = 25.64601 30.08707 27.86654
#
# Velocity S-wave (km/s) = 3.39855 3.68107 3.54263
# Velocity P-wave (km/s) = 5.69847 6.14893 5.92798
#
# Compressibility (1/GPa) = 0.02638000
#
# Stress axis : x y z
#
# Youngs Moduli (GPa) = 63.87887 57.82713 35.65790
#
# Poissons Ratio (x) = 0.28500 0.26717
# Poissons Ratio (y) = 0.31483 0.17418
# Poissons Ratio (z) = 0.47862 0.28247
#
# Static dielectric constant tensor:
#      x y z
#    x 1.837170 0.000000 -0.036660 
#    y 0.000000 1.861600 0.000000 
#    z -0.036660 0.000000 2.134820 
# 
# From -- ./inp_files/264426.got.cif
#   From: 2010.05.17/outbox.cif.g08.bks.cpg/sg15_133_cif.got.tgz:264426.got - 2010.06.03 18:47:42.
