data_PCOD9304830
_publ_section_title
;
Structure prediction by ZEFSAII (Michael W. Deem and Ramdas Pophale) SiO2 
 PCOD9304830
Probable space group: C 2/C
;
_chemical_formula_sum "Si O2"
_cell_formula_units_Z 40
_cell_length_a 25.216640
_cell_length_b 11.175146
_cell_length_c 11.463420
_cell_angle_alpha 90.000000
_cell_angle_beta 147.648082
_cell_angle_gamma 90.000000
_cell_volume 1728.638708
_symmetry_space_group_name_H-M "C 2/C"
_symmetry_group_IT_number 15
_symmetry_cell_setting 'monoclinic'
loop_
_space_group_symop_operation_xyz
x,y,z
-x,y,1/2-z
-x,-y,-z
x,-y,1/2+z
1/2+x,1/2+y,z
1/2-x,1/2+y,1/2-z
1/2-x,1/2-y,-z
1/2+x,1/2-y,1/2+z
loop_
_atom_site_type_symbol
_atom_site_label
_atom_site_fract_x
_atom_site_fract_y
_atom_site_fract_z
Si Si1 0.975517 0.176698 0.088112
Si Si2 0.604922 0.913646 0.987929
Si Si3 0.147766 0.217878 0.249130
Si Si4 0.144857 0.776314 0.358404
Si Si5 0.675917 0.473000 0.598448
O O1 0.000000 0.250504 0.250000
O O2 0.079550 0.152453 0.217746
O O3 0.921132 0.234304 0.878482
O O4 0.902515 0.073502 0.003210
O O5 0.600374 0.835761 0.099344
O O6 0.709079 0.985220 0.192761
O O7 0.500000 0.970920 0.750000
O O8 0.621281 0.818393 0.914283
O O9 0.250000 0.250000 0.500000
O O10 0.169327 0.127478 0.185185
O O11 0.250000 0.750000 0.500000
O O12 0.142973 0.905477 0.418483
#
# Coordination Sequence:
#
# PCOD9304830 Si02
#       5
#     8   8   8   8   8
#     4  12  26  42  75 103 138 185 241 292 351 412
#     4  11  23  47  71 102 143 189 228 291 362 423
#     4  11  26  46  68 105 146 182 236 298 355 422
#     4  11  25  48  69 102 148 183 233 299 355 416
#     4  11  27  44  75 106 136 189 243 292 353 425
#
# _framework density 23.139593999999999
#
# number of rings (size 3 to 8) (size 9 to 14) (size 15 to 20)
#    0.000    0.800    4.000    1.800   11.200    0.000 
#    3.600    2.000    0.000    0.000    0.000    0.000 
#    0.000    0.000    0.000    0.000    0.000    0.000 
#
# Total GULP energy -111632.375648 kJ/mol
# GULP energy per Si atom -5581.618782 kJ/mol
# Density = 2.308693 g / cm^3
# Si number density = 23.139594 Si / 1000 Ang^3
#
#
#
# Elastic Constant Matrix: (Units=GPa)
#
#
# Indices 1 2 3 4 5 6 
#
# 1 134.6801 21.4646 47.7148 0.0000 -5.0131 0.0000
# 2 21.4646 36.6943 2.8252 0.0000 4.1258 0.0000
# 3 47.7148 2.8252 131.1879 0.0000 -8.9127 0.0000
# 4 0.0000 0.0000 0.0000 214.6441 0.0000 -335.8273
# 5 -5.0131 4.1258 -8.9127 0.0000 64.9040 0.0000
# 6 0.0000 0.0000 0.0000 -335.8273 0.0000 479.0738
#
#
#
# Elastic Compliance Matrix: (Units=1/GPa)
#
#
# Indices 1 2 3 4 5 6 
#
# 1 0.009465 -0.005354 -0.003285 0.000000 0.000620 0.000000
# 2 -0.005354 0.030543 0.001140 0.000000 -0.002198 0.000000
# 3 -0.003285 0.001140 0.008853 0.000000 0.000890 0.000000
# 4 0.000000 0.000000 0.000000 -0.048150 0.000000 -0.033753
# 5 0.000620 -0.002198 0.000890 0.000000 0.015717 0.000000
# 6 0.000000 0.000000 0.000000 -0.033753 0.000000 -0.021573
#
#
# Mechanical properties :
#
#
# Convention : Reuss Voigt Hill
#
# Bulk Modulus (GPa) = 29.52956 49.61906 39.57431
# Shear Modulus (GPa) = 236.50494 167.09488 201.79991
#
# Velocity S-wave (km/s) = 10.12076 8.50696 9.34875
# Velocity P-wave (km/s) = 12.22138 10.86191 11.56165
#
# Compressibility (1/GPa) = 0.03386438
#
# Stress axis : x y z
#
# Youngs Moduli (GPa) = 105.65027 32.74055 112.95087
#
# Poissons Ratio (x) = 0.17528 0.37106
# Poissons Ratio (y) = 0.56560 -0.12877
# Poissons Ratio (z) = 0.34708 -0.03732
#
# Static dielectric constant tensor:
#      x y z
#    x 1.839220 0.000000 0.072360 
#    y 0.000000 1.873320 0.000000 
#    z 0.072360 0.000000 1.785190 
# 
# From -- ./inp_files/122829.got.cif
#   From: 2010.05.17/outbox.cif.g08.bks.cpg/sg15_62_cif.got.tgz:122829.got - 2010.06.03 18:47:42.
