data_PCOD9304355
_publ_section_title
;
Structure prediction by ZEFSAII (Michael W. Deem and Ramdas Pophale) SiO2 
 PCOD9304355
Probable space group: C 2/C
;
_chemical_formula_sum "Si O2"
_cell_formula_units_Z 48
_cell_length_a 11.338108
_cell_length_b 11.410369
_cell_length_c 17.649685
_cell_angle_alpha 90.000000
_cell_angle_beta 69.140549
_cell_angle_gamma 90.000000
_cell_volume 2133.715067
_symmetry_space_group_name_H-M "C 2/C"
_symmetry_group_IT_number 15
_symmetry_cell_setting 'monoclinic'
loop_
_space_group_symop_operation_xyz
x,y,z
-x,y,1/2-z
-x,-y,-z
x,-y,1/2+z
1/2+x,1/2+y,z
1/2-x,1/2+y,1/2-z
1/2-x,1/2-y,-z
1/2+x,1/2-y,1/2+z
loop_
_atom_site_type_symbol
_atom_site_label
_atom_site_fract_x
_atom_site_fract_y
_atom_site_fract_z
Si Si1 0.709125 0.083377 0.538719
Si Si2 0.304924 0.667561 0.793545
Si Si3 0.142337 0.314878 0.572951
Si Si4 0.574067 0.336444 0.397597
Si Si5 0.484558 0.214659 0.666340
Si Si6 0.898418 0.964483 0.872228
O O1 0.823849 0.128295 0.564512
O O2 0.588715 0.160085 0.587252
O O3 0.770318 0.079936 0.441641
O O4 0.671319 0.950746 0.567019
O O5 0.356662 0.760516 0.842871
O O6 0.355220 0.685271 0.697859
O O7 0.354749 0.541273 0.810537
O O8 0.154737 0.681109 0.828284
O O9 0.250000 0.250000 0.500000
O O10 0.010070 0.277184 0.566179
O O11 0.474363 0.443018 0.407652
O O12 0.500000 0.172558 0.750000
O O13 0.512209 0.353686 0.660945
#
# Coordination Sequence:
#
# PCOD9304355 Si02
#       6
#     8   8   8   8   8   8
#     4  12  25  43  69 105 135 179 231 286 348 412
#     4  11  24  46  70  99 138 183 231 282 349 420
#     4  11  23  43  72 102 132 176 234 289 343 410
#     4  11  23  44  71  97 137 180 231 283 348 413
#     4  12  26  45  65 102 143 179 230 283 353 419
#     4  11  24  43  71  97 134 184 230 282 346 416
#
# _framework density 22.495975000000001
#
# number of rings (size 3 to 8) (size 9 to 14) (size 15 to 20)
#    0.000    0.667    5.000    5.000    2.333    3.333 
#    3.000    0.000    0.000    0.000    0.000    0.000 
#    0.000    0.000    0.000    0.000    0.000    0.000 
#
# Total GULP energy -134426.096439 kJ/mol
# GULP energy per Si atom -5601.087352 kJ/mol
# Density = 2.244477 g / cm^3
# Si number density = 22.495975 Si / 1000 Ang^3
#
#
#
# Elastic Constant Matrix: (Units=GPa)
#
#
# Indices 1 2 3 4 5 6 
#
# 1 149.9433 48.6654 3.3660 0.0000 -21.8690 0.0000
# 2 48.6654 97.9414 6.7573 0.0000 1.1845 0.0000
# 3 3.3660 6.7573 71.6358 0.0000 -11.9523 0.0000
# 4 0.0000 0.0000 0.0000 24.8921 0.0000 -10.1103
# 5 -21.8690 1.1845 -11.9523 0.0000 35.2525 0.0000
# 6 0.0000 0.0000 0.0000 -10.1103 0.0000 22.7712
#
#
#
# Elastic Compliance Matrix: (Units=1/GPa)
#
#
# Indices 1 2 3 4 5 6 
#
# 1 0.009044 -0.004639 0.001033 0.000000 0.006116 0.000000
# 2 -0.004639 0.012674 -0.001620 0.000000 -0.003853 0.000000
# 3 0.001033 -0.001620 0.015030 0.000000 0.005791 0.000000
# 4 0.000000 0.000000 0.000000 0.049012 0.000000 0.021761
# 5 0.006116 -0.003853 0.005791 0.000000 0.034254 0.000000
# 6 0.000000 0.000000 0.000000 0.021761 0.000000 0.053577
#
#
# Mechanical properties :
#
#
# Convention : Reuss Voigt Hill
#
# Bulk Modulus (GPa) = 38.02993 48.56645 43.29819
# Shear Modulus (GPa) = 25.93256 33.96526 29.94891
#
# Velocity S-wave (km/s) = 3.39892 3.88988 3.65266
# Velocity P-wave (km/s) = 5.68731 6.46612 6.08918
#
# Compressibility (1/GPa) = 0.02629508
#
# Stress axis : x y z
#
# Youngs Moduli (GPa) = 110.57464 78.90442 66.53326
#
# Poissons Ratio (x) = 0.36603 -0.06874
# Poissons Ratio (y) = 0.51294 0.10781
# Poissons Ratio (z) = -0.11424 0.12785
#
# Static dielectric constant tensor:
#      x y z
#    x 1.813480 0.000000 0.003020 
#    y 0.000000 1.826040 0.000000 
#    z 0.003020 0.000000 1.838030 
# 
# From -- ./inp_files/196517.got.cif
#   From: 2010.05.17/outbox.cif.g08.bks.cpg/sg15_99_cif.got.tgz:196517.got - 2010.06.03 18:47:42.
