data_PCOD9304934
_publ_section_title
;
Structure prediction by ZEFSAII (Michael W. Deem and Ramdas Pophale) SiO2 
 PCOD9304934
Probable space group: C 2/C
;
_chemical_formula_sum "Si O2"
_cell_formula_units_Z 44
_cell_length_a 19.233487
_cell_length_b 23.802007
_cell_length_c 5.187677
_cell_angle_alpha 90.000000
_cell_angle_beta 65.358772
_cell_angle_gamma 90.000000
_cell_volume 2158.628956
_symmetry_space_group_name_H-M "C 2/C"
_symmetry_group_IT_number 15
_symmetry_cell_setting 'monoclinic'
loop_
_space_group_symop_operation_xyz
x,y,z
-x,y,1/2-z
-x,-y,-z
x,-y,1/2+z
1/2+x,1/2+y,z
1/2-x,1/2+y,1/2-z
1/2-x,1/2-y,-z
1/2+x,1/2-y,1/2+z
loop_
_atom_site_type_symbol
_atom_site_label
_atom_site_fract_x
_atom_site_fract_y
_atom_site_fract_z
Si Si1 0.145431 0.461203 0.490741
Si Si2 0.073833 0.288279 0.976769
Si Si3 0.446208 0.336948 0.087667
Si Si4 0.282196 0.627975 0.803865
Si Si5 0.733834 0.190526 0.391356
Si Si6 0.500000 0.115734 0.250000
O O1 0.144527 0.505706 0.261114
O O2 0.221456 0.422685 0.399275
O O3 0.069203 0.424244 0.554055
O O4 0.000000 0.273493 0.250000
O O5 0.090881 0.226826 0.830991
O O6 0.142407 0.311092 0.041628
O O7 0.046745 0.340302 0.851400
O O8 0.500000 0.344128 0.250000
O O9 0.373028 0.378191 0.206880
O O10 0.500000 0.343201 0.750000
O O11 0.275246 0.649147 0.521455
O O12 0.254475 0.673380 0.065637
O O13 0.750000 0.250000 0.500000
#
# Coordination Sequence:
#
# PCOD9304934 Si02
#       6
#     8   8   8   8   8   4
#     4  12  28  48  70  97 131 186 250 298 334 386
#     4  11  24  37  62  97 145 183 217 265 336 432
#     4  11  24  41  65 103 139 174 213 271 348 435
#     4  12  25  45  70  94 138 186 226 293 349 399
#     4  12  24  39  66 101 139 185 227 266 340 431
#     4  12  24  44  68  98 144 184 226 284 350 392
#
# _framework density 20.383310999999999
#
# number of rings (size 3 to 8) (size 9 to 14) (size 15 to 20)
#    0.000    0.364    4.545    4.364    5.091    0.000 
#    0.000    0.000    0.000    3.273    0.000    0.000 
#    0.000    0.000    0.000    0.000    0.000    0.000 
#
# Total GULP energy -122606.519528 kJ/mol
# GULP energy per Si atom -5573.023615 kJ/mol
# Density = 2.033692 g / cm^3
# Si number density = 20.383311 Si / 1000 Ang^3
#
#
#
# Elastic Constant Matrix: (Units=GPa)
#
#
# Indices 1 2 3 4 5 6 
#
# 1 112.2834 10.3873 20.7777 0.0000 8.4867 0.0000
# 2 10.3873 70.8234 21.8991 0.0000 -5.1377 0.0000
# 3 20.7777 21.8991 68.6727 0.0000 4.7602 0.0000
# 4 0.0000 0.0000 0.0000 18.5155 0.0000 -26.7564
# 5 8.4867 -5.1377 4.7602 0.0000 39.2223 0.0000
# 6 0.0000 0.0000 0.0000 -26.7564 0.0000 -3.8732
#
#
#
# Elastic Compliance Matrix: (Units=1/GPa)
#
#
# Indices 1 2 3 4 5 6 
#
# 1 0.009585 -0.000759 -0.002529 0.000000 -0.001867 0.000000
# 2 -0.000759 0.016009 -0.005075 0.000000 0.002877 0.000000
# 3 -0.002529 -0.005075 0.017097 0.000000 -0.002193 0.000000
# 4 0.000000 0.000000 0.000000 0.004918 0.000000 -0.033971
# 5 -0.001867 0.002877 -0.002193 0.000000 0.026543 0.000000
# 6 0.000000 0.000000 0.000000 -0.033971 0.000000 -0.023508
#
#
# Mechanical properties :
#
#
# Convention : Reuss Voigt Hill
#
# Bulk Modulus (GPa) = 38.51213 39.76754 39.13984
# Shear Modulus (GPa) = 65.76874 24.02062 44.89468
#
# Velocity S-wave (km/s) = 5.68648 3.43657 4.69819
# Velocity P-wave (km/s) = 7.87716 5.94129 6.97670
#
# Compressibility (1/GPa) = 0.02596584
#
# Stress axis : x y z
#
# Youngs Moduli (GPa) = 104.32665 62.46540 58.48926
#
# Poissons Ratio (x) = 0.04743 0.14790
# Poissons Ratio (y) = 0.07922 0.29682
# Poissons Ratio (z) = 0.26380 0.31700
#
# Static dielectric constant tensor:
#      x y z
#    x 1.632650 0.000000 -0.017250 
#    y 0.000000 1.876280 0.000000 
#    z -0.017250 0.000000 1.752000 
# 
# From -- ./inp_files/10292.got.cif
#   From: 2010.05.17/outbox.cif.g08.bks.cpg/sg15_6_cif.got.tgz:10292.got - 2010.06.03 18:47:42.
