data_PCOD9304006
_publ_section_title
;
Structure prediction by ZEFSAII (Michael W. Deem and Ramdas Pophale) SiO2 
 PCOD9304006
Probable space group: C 2/C
;
_chemical_formula_sum "Si O2"
_cell_formula_units_Z 40
_cell_length_a 9.247623
_cell_length_b 12.961095
_cell_length_c 20.261242
_cell_angle_alpha 90.000000
_cell_angle_beta 40.146045
_cell_angle_gamma 90.000000
_cell_volume 1565.745732
_symmetry_space_group_name_H-M "C 2/C"
_symmetry_group_IT_number 15
_symmetry_cell_setting 'monoclinic'
loop_
_space_group_symop_operation_xyz
x,y,z
-x,y,1/2-z
-x,-y,-z
x,-y,1/2+z
1/2+x,1/2+y,z
1/2-x,1/2+y,1/2-z
1/2-x,1/2-y,-z
1/2+x,1/2-y,1/2+z
loop_
_atom_site_type_symbol
_atom_site_label
_atom_site_fract_x
_atom_site_fract_y
_atom_site_fract_z
Si Si1 0.966098 0.651274 0.880474
Si Si2 0.305983 0.082809 0.074628
Si Si3 0.426254 0.291780 0.078796
Si Si4 0.262458 0.329764 0.652015
Si Si5 0.128939 0.971108 0.309136
O O1 0.113403 0.753240 0.840438
O O2 0.143756 0.559128 0.807986
O O3 0.796628 0.662834 0.879264
O O4 0.821744 0.637256 0.997051
O O5 0.367599 0.170904 0.106027
O O6 0.070187 0.025997 0.160584
O O7 0.500000 0.000000 0.000000
O O8 0.462914 0.364160 0.128417
O O9 0.632525 0.304658 0.956127
O O10 0.311537 0.447669 0.654173
O O11 0.000000 0.310692 0.750000
#
# Coordination Sequence:
#
# PCOD9304006 Si02
#       5
#     8   8   8   8   8
#     4  11  24  45  67 101 140 176 231 293 347 412
#     4  11  26  46  67 101 144 184 225 297 354 413
#     4  11  23  48  69  97 140 179 234 292 349 413
#     4  11  23  41  69  99 134 179 229 291 346 418
#     4  12  25  42  75 100 133 189 237 282 355 425
#
# _framework density 25.546932000000002
#
# number of rings (size 3 to 8) (size 9 to 14) (size 15 to 20)
#    0.000    0.800    4.000    3.600    8.400    2.400 
#    3.600    0.000    0.000    0.000    0.000    0.000 
#    0.000    0.000    0.000    0.000    0.000    0.000 
#
# Total GULP energy -112188.447859 kJ/mol
# GULP energy per Si atom -5609.422393 kJ/mol
# Density = 2.548879 g / cm^3
# Si number density = 25.546932 Si / 1000 Ang^3
#
#
#
# Elastic Constant Matrix: (Units=GPa)
#
#
# Indices 1 2 3 4 5 6 
#
# 1 42.9552 47.7865 46.4854 0.0000 -20.5432 0.0001
# 2 47.7865 175.0849 54.5427 0.0001 -10.5453 -0.0001
# 3 46.4854 54.5427 170.7689 0.0002 -29.1643 0.0006
# 4 0.0000 0.0001 0.0002 50.7844 0.0003 -12.4174
# 5 -20.5432 -10.5453 -29.1643 0.0003 48.5215 0.0000
# 6 0.0001 -0.0001 0.0006 -12.4174 0.0000 21.6080
#
#
#
# Elastic Compliance Matrix: (Units=1/GPa)
#
#
# Indices 1 2 3 4 5 6 
#
# 1 0.050207 -0.010378 -0.007920 0.000000 0.014241 0.000000
# 2 -0.010378 0.008489 -0.000358 0.000000 -0.002764 0.000000
# 3 -0.007920 -0.000358 0.008403 0.000000 0.001619 0.000000
# 4 0.000000 0.000000 0.000000 0.022910 0.000000 0.013166
# 5 0.014241 -0.002764 0.001619 0.000000 0.027011 0.000000
# 6 0.000000 0.000000 0.000000 0.013166 0.000000 0.053845
#
#
# Mechanical properties :
#
#
# Convention : Reuss Voigt Hill
#
# Bulk Modulus (GPa) = 33.57309 76.27092 54.92201
# Shear Modulus (GPa) = 22.92434 40.18240 31.55337
#
# Velocity S-wave (km/s) = 2.99882 3.97026 3.51823
# Velocity P-wave (km/s) = 5.01605 7.13704 6.16839
#
# Compressibility (1/GPa) = 0.02978576
#
# Stress axis : x y z
#
# Youngs Moduli (GPa) = 19.91735 117.79604 119.00634
#
# Poissons Ratio (x) = 1.22252 0.94256
# Poissons Ratio (y) = 0.20671 0.04266
# Poissons Ratio (z) = 0.15775 0.04222
#
# Static dielectric constant tensor:
#      x y z
#    x 2.018620 0.000000 0.020100 
#    y 0.000000 2.007800 0.000000 
#    z 0.020100 0.000000 1.966040 
# 
# From -- ./inp_files/141829.got.cif
#   From: 2010.05.17/outbox.cif.g08.bks.cpg/sg15_71_cif.got.tgz:141829.got - 2010.06.03 18:47:42.
