data_PCOD9304128
_publ_section_title
;
Structure prediction by ZEFSAII (Michael W. Deem and Ramdas Pophale) SiO2 
 PCOD9304128
Probable space group: C 2/C
;
_chemical_formula_sum "Si O2"
_cell_formula_units_Z 48
_cell_length_a 24.597794
_cell_length_b 9.344704
_cell_length_c 14.528109
_cell_angle_alpha 90.000000
_cell_angle_beta 134.638284
_cell_angle_gamma 90.000000
_cell_volume 2376.185406
_symmetry_space_group_name_H-M "C 2/C"
_symmetry_group_IT_number 15
_symmetry_cell_setting 'monoclinic'
loop_
_space_group_symop_operation_xyz
x,y,z
-x,y,1/2-z
-x,-y,-z
x,-y,1/2+z
1/2+x,1/2+y,z
1/2-x,1/2+y,1/2-z
1/2-x,1/2-y,-z
1/2+x,1/2-y,1/2+z
loop_
_atom_site_type_symbol
_atom_site_label
_atom_site_fract_x
_atom_site_fract_y
_atom_site_fract_z
Si Si1 0.962327 0.476038 0.555060
Si Si2 0.000000 0.760688 0.250000
Si Si3 0.312919 0.125995 0.785365
Si Si4 0.335174 0.693869 0.135498
Si Si5 0.766781 0.679568 0.166862
Si Si6 0.000000 0.713603 0.750000
Si Si7 0.347427 0.365023 0.132363
O O1 0.874567 0.439522 0.428749
O O2 0.000000 0.500000 0.500000
O O3 0.989697 0.342914 0.649851
O O4 0.978787 0.613346 0.637631
O O5 0.930665 0.862192 0.190590
O O6 0.348783 0.219956 0.746346
O O7 0.256424 0.229692 0.772540
O O8 0.274374 0.986763 0.696319
O O9 0.415849 0.714971 0.174417
O O10 0.324340 0.523722 0.135072
O O11 0.250000 0.750000 0.000000
O O12 0.839704 0.753179 0.206680
O O13 0.703123 0.691537 0.012415
#
# Coordination Sequence:
#
# PCOD9304128 Si02
#       7
#     8   4   8   8   8   4   8
#     4  11  23  42  69 101 138 182 236 289 348 416
#     4  11  23  44  68  94 144 184 224 288 352 420
#     4  12  24  44  69 103 135 181 237 288 346 424
#     4  12  26  46  70 102 145 182 233 293 352 417
#     4  11  25  41  70  99 136 179 230 285 343 420
#     4  11  27  42  72 106 140 188 234 292 354 418
#     4  11  24  44  66  98 138 182 224 281 355 416
#
# _framework density 20.200444000000001
#
# number of rings (size 3 to 8) (size 9 to 14) (size 15 to 20)
#    0.000    0.667    5.000    2.500    7.000    0.000 
#    0.000    0.833    0.000    0.000    0.000    0.000 
#    0.000    0.000    0.000    0.000    0.000    0.000 
#
# Total GULP energy -133809.390919 kJ/mol
# GULP energy per Si atom -5575.391288 kJ/mol
# Density = 2.015447 g / cm^3
# Si number density = 20.200444 Si / 1000 Ang^3
#
#
#
# Elastic Constant Matrix: (Units=GPa)
#
#
# Indices 1 2 3 4 5 6 
#
# 1 131.5779 37.0792 15.5480 0.0000 -4.5619 0.0000
# 2 37.0792 -48.0403 -101.2639 0.0000 -34.7234 0.0000
# 3 15.5480 -101.2639 -4.5647 0.0000 -14.9308 0.0000
# 4 0.0000 0.0000 0.0000 24.4686 0.0000 3.4136
# 5 -4.5619 -34.7234 -14.9308 0.0000 37.9841 0.0000
# 6 0.0000 0.0000 0.0000 3.4136 0.0000 20.4534
#
#
#
# Elastic Compliance Matrix: (Units=1/GPa)
#
#
# Indices 1 2 3 4 5 6 
#
# 1 0.007283 0.000728 0.001580 0.000000 0.002162 0.000000
# 2 0.000728 0.000916 -0.009130 0.000000 -0.002664 0.000000
# 3 0.001580 -0.009130 0.006791 0.000000 -0.005487 0.000000
# 4 0.000000 0.000000 0.000000 0.041843 0.000000 -0.006983
# 5 0.002162 -0.002664 -0.005487 0.000000 0.021995 0.000000
# 6 0.000000 0.000000 0.000000 -0.006983 0.000000 0.050057
#
#
# Mechanical properties :
#
#
# Convention : Reuss Voigt Hill
#
# Bulk Modulus (GPa) = 742.02577 -2.03339 369.99619
# Shear Modulus (GPa) = 34.97065 25.08852 30.02958
#
# Velocity S-wave (km/s) = 4.16526 3.52799 3.85980
# Velocity P-wave (km/s) = 19.78033 3.94802 14.26268
#
# Compressibility (1/GPa) = 0.00134766
#
# Stress axis : x y z
#
# Youngs Moduli (GPa) = 137.30499 1091.55901 147.24975
#
# Poissons Ratio (x) = -0.79498 -0.23267
# Poissons Ratio (y) = -0.10000 1.34435
# Poissons Ratio (z) = -0.21695 9.96563
#
# Static dielectric constant tensor:
#      x y z
#    x 1.790420 0.000000 0.053520 
#    y 0.000000 1.695610 0.000000 
#    z 0.053520 0.000000 1.766710 
# 
# From -- ./inp_files/176919.got.cif
#   From: 2010.05.17/outbox.cif.g08.bks.cpg/sg15_89_cif.got.tgz:176919.got - 2010.06.03 18:47:42.
