data_PCOD9304103
_publ_section_title
;
Structure prediction by ZEFSAII (Michael W. Deem and Ramdas Pophale) SiO2 
 PCOD9304103
Probable space group: C 2/C
;
_chemical_formula_sum "Si O2"
_cell_formula_units_Z 64
_cell_length_a 24.546612
_cell_length_b 6.343398
_cell_length_c 28.427762
_cell_angle_alpha 90.000000
_cell_angle_beta 139.299012
_cell_angle_gamma 90.000000
_cell_volume 2886.543013
_symmetry_space_group_name_H-M "C 2/C"
_symmetry_group_IT_number 15
_symmetry_cell_setting 'monoclinic'
loop_
_space_group_symop_operation_xyz
x,y,z
-x,y,1/2-z
-x,-y,-z
x,-y,1/2+z
1/2+x,1/2+y,z
1/2-x,1/2+y,1/2-z
1/2-x,1/2-y,-z
1/2+x,1/2-y,1/2+z
loop_
_atom_site_type_symbol
_atom_site_label
_atom_site_fract_x
_atom_site_fract_y
_atom_site_fract_z
Si Si1 0.646318 0.004141 0.051994
Si Si2 0.770436 0.732494 0.567454
Si Si3 0.458106 0.728886 0.178183
Si Si4 0.806676 0.822915 0.340552
Si Si5 0.505775 0.006254 0.617374
Si Si6 0.771082 0.375189 0.636306
Si Si7 0.650424 0.668473 0.195062
Si Si8 0.921374 0.871772 0.275655
O O1 0.705976 0.133586 0.055515
O O2 0.646033 0.143166 0.099387
O O3 0.694747 0.786439 0.092023
O O4 0.559169 0.979808 0.967749
O O5 0.750000 0.750000 0.500000
O O6 0.864512 0.813361 0.633241
O O7 0.767941 0.493500 0.584618
O O8 0.500000 0.846097 0.250000
O O9 0.508362 0.513205 0.202640
O O10 0.464738 0.862069 0.134253
O O11 0.747293 0.736277 0.260096
O O12 0.742957 0.941505 0.334329
O O13 0.864234 0.003652 0.356374
O O14 0.536245 0.787519 0.659611
O O15 0.585802 0.140532 0.652876
O O16 0.858527 0.260415 0.702264
O O17 0.634999 0.538826 0.232798
#
# Coordination Sequence:
#
# PCOD9304103 Si02
#       8
#     8   8   8   8   8   8   8   8
#     4  11  25  44  67 102 135 178 222 278 346 404
#     4  11  24  43  65  94 135 178 225 276 330 404
#     4  11  24  41  65  95 135 176 232 281 332 388
#     4  11  24  43  74 100 131 174 228 277 337 414
#     4  11  25  43  66 100 140 174 221 284 344 402
#     4  11  23  42  71  95 134 179 228 279 335 405
#     4  11  24  43  72 101 131 173 225 277 336 412
#     4  11  23  42  67  98 134 178 226 282 333 401
#
# _framework density 22.171849000000002
#
# number of rings (size 3 to 8) (size 9 to 14) (size 15 to 20)
#    0.000    1.000    3.750    2.250    5.250    4.500 
#    0.000    1.250    0.000    0.000    0.000    0.000 
#    0.000    0.000    0.000    0.000    0.000    0.000 
#
# Total GULP energy -179086.669500 kJ/mol
# GULP energy per Si atom -5596.458422 kJ/mol
# Density = 2.212139 g / cm^3
# Si number density = 22.171849 Si / 1000 Ang^3
#
#
#
# Elastic Constant Matrix: (Units=GPa)
#
#
# Indices 1 2 3 4 5 6 
#
# 1 43.0555 13.6644 3.8315 -0.0026 -6.9732 0.0009
# 2 13.6644 107.0973 39.9910 0.0006 -4.0134 -0.0021
# 3 3.8315 39.9910 132.4218 -0.0010 1.1072 -0.0016
# 4 -0.0026 0.0006 -0.0010 28.2373 -0.0006 -6.9532
# 5 -6.9732 -4.0134 1.1072 -0.0006 27.1191 0.0004
# 6 0.0009 -0.0021 -0.0016 -6.9532 0.0004 34.8531
#
#
#
# Elastic Compliance Matrix: (Units=1/GPa)
#
#
# Indices 1 2 3 4 5 6 
#
# 1 0.025151 -0.003035 0.000139 0.000002 0.006012 0.000000
# 2 -0.003035 0.010968 -0.003233 -0.000001 0.000975 0.000000
# 3 0.000139 -0.003233 0.008530 0.000000 -0.000791 0.000000
# 4 0.000002 -0.000001 0.000000 0.037244 0.000001 0.007430
# 5 0.006012 0.000975 -0.000791 0.000001 0.038597 0.000000
# 6 0.000000 0.000000 0.000000 0.007430 0.000000 0.030174
#
#
# Mechanical properties :
#
#
# Convention : Reuss Voigt Hill
#
# Bulk Modulus (GPa) = 30.87327 44.17205 37.52266
# Shear Modulus (GPa) = 28.78200 33.04775 30.91488
#
# Velocity S-wave (km/s) = 3.60687 3.86492 3.73812
# Velocity P-wave (km/s) = 5.59471 6.31527 5.96588
#
# Compressibility (1/GPa) = 0.03239047
#
# Stress axis : x y z
#
# Youngs Moduli (GPa) = 39.76053 91.17243 117.22654
#
# Poissons Ratio (x) = 0.27675 -0.01626
# Poissons Ratio (y) = 0.12069 0.37896
# Poissons Ratio (z) = -0.00551 0.29473
#
# Static dielectric constant tensor:
#      x y z
#    x 1.853270 -0.000010 0.062150 
#    y -0.000010 1.806800 -0.000010 
#    z 0.062150 -0.000010 2.041430 
# 
# From -- ./inp_files/319314.got.cif
#   From: 2010.05.17/outbox.cif.g08.bks.cpg/sg15_160_cif.got.tgz:319314.got - 2010.06.03 18:47:42.
