data_PCOD9304917
_publ_section_title
;
Structure prediction by ZEFSAII (Michael W. Deem and Ramdas Pophale) SiO2 
 PCOD9304917
Probable space group: C 2/C
;
_chemical_formula_sum "Si O2"
_cell_formula_units_Z 32
_cell_length_a 16.500907
_cell_length_b 7.387290
_cell_length_c 10.783906
_cell_angle_alpha 90.000000
_cell_angle_beta 120.843741
_cell_angle_gamma 90.000000
_cell_volume 1128.610615
_symmetry_space_group_name_H-M "C 2/C"
_symmetry_group_IT_number 15
_symmetry_cell_setting 'monoclinic'
loop_
_space_group_symop_operation_xyz
x,y,z
-x,y,1/2-z
-x,-y,-z
x,-y,1/2+z
1/2+x,1/2+y,z
1/2-x,1/2+y,1/2-z
1/2-x,1/2-y,-z
1/2+x,1/2-y,1/2+z
loop_
_atom_site_type_symbol
_atom_site_label
_atom_site_fract_x
_atom_site_fract_y
_atom_site_fract_z
Si Si1 0.339651 0.016158 0.357086
Si Si2 0.610873 0.154737 0.348749
Si Si3 0.144724 0.077890 0.322877
Si Si4 0.465873 0.322510 0.543560
O O1 0.333515 0.020968 0.201594
O O2 0.429759 0.148351 0.445540
O O3 0.356746 0.868886 0.481924
O O4 0.240751 0.101460 0.325450
O O5 0.500000 0.114104 0.250000
O O6 0.625162 0.360974 0.312698
O O7 0.126935 0.129077 0.450413
O O8 0.061391 0.198160 0.196549
O O9 0.500000 0.500000 0.500000
#
# Coordination Sequence:
#
# PCOD9304917 Si02
#       4
#     8   8   8   8
#     4  12  28  47  84 118 154 209 274 321 397 479
#     4  12  26  53  75 119 163 209 257 336 395 476
#     4  11  25  48  76 112 162 206 264 327 401 465
#     4  11  23  49  78 109 160 208 258 326 400 466
#
# _framework density 28.353445000000001
#
# number of rings (size 3 to 8) (size 9 to 14) (size 15 to 20)
#    0.000    0.500    5.000    2.250    7.000    2.000 
#    4.500    0.000    0.000    0.000    0.000    0.000 
#    0.000    0.000    0.000    0.000    0.000    0.000 
#
# Total GULP energy -89456.445629 kJ/mol
# GULP energy per Si atom -5591.027852 kJ/mol
# Density = 2.828891 g / cm^3
# Si number density = 28.353445 Si / 1000 Ang^3
#
#
#
# Elastic Constant Matrix: (Units=GPa)
#
#
# Indices 1 2 3 4 5 6 
#
# 1 228.0020 2.7236 42.7129 0.0000 -17.0630 0.0000
# 2 2.7236 65.8091 27.7227 0.0000 -14.9945 0.0000
# 3 42.7129 27.7227 80.0617 0.0000 -11.2955 0.0000
# 4 0.0000 0.0000 0.0000 38.4846 0.0000 11.1635
# 5 -17.0630 -14.9945 -11.2955 0.0000 63.5309 0.0000
# 6 0.0000 0.0000 0.0000 11.1635 0.0000 36.2649
#
#
#
# Elastic Compliance Matrix: (Units=1/GPa)
#
#
# Indices 1 2 3 4 5 6 
#
# 1 0.005010 0.001297 -0.002963 0.000000 0.001125 0.000000
# 2 0.001297 0.018777 -0.006687 0.000000 0.003591 0.000000
# 3 -0.002963 -0.006687 0.016465 0.000000 0.000553 0.000000
# 4 0.000000 0.000000 0.000000 0.028532 0.000000 -0.008783
# 5 0.001125 0.003591 0.000553 0.000000 0.016988 0.000000
# 6 0.000000 0.000000 0.000000 -0.008783 0.000000 0.030279
#
#
# Mechanical properties :
#
#
# Convention : Reuss Voigt Hill
#
# Bulk Modulus (GPa) = 42.47149 57.79901 50.13525
# Shear Modulus (GPa) = 35.56043 47.70366 41.63205
#
# Velocity S-wave (km/s) = 3.54529 4.10624 3.83603
# Velocity P-wave (km/s) = 5.63654 6.55065 6.11071
#
# Compressibility (1/GPa) = 0.02354521
#
# Stress axis : x y z
#
# Youngs Moduli (GPa) = 199.61211 53.25633 60.73549
#
# Poissons Ratio (x) = -0.06909 0.17997
# Poissons Ratio (y) = -0.25894 0.40616
# Poissons Ratio (z) = 0.59148 0.35614
#
# Static dielectric constant tensor:
#      x y z
#    x 2.267260 0.000000 -0.202810 
#    y 0.000000 2.370530 0.000000 
#    z -0.202810 0.000000 2.614670 
# 
# From -- ./inp_files/93394.got.cif
#   From: 2010.05.17/outbox.cif.g08.bks.cpg/sg15_47_cif.got.tgz:93394.got - 2010.06.03 18:47:42.
