data_PCOD9304544
_publ_section_title
;
Structure prediction by ZEFSAII (Michael W. Deem and Ramdas Pophale) SiO2 
 PCOD9304544
Probable space group: C 2/C
;
_chemical_formula_sum "Si O2"
_cell_formula_units_Z 40
_cell_length_a 10.612639
_cell_length_b 9.358931
_cell_length_c 15.909871
_cell_angle_alpha 90.000000
_cell_angle_beta 91.789207
_cell_angle_gamma 90.000000
_cell_volume 1579.445000
_symmetry_space_group_name_H-M "C 2/C"
_symmetry_group_IT_number 15
_symmetry_cell_setting 'monoclinic'
loop_
_space_group_symop_operation_xyz
x,y,z
-x,y,1/2-z
-x,-y,-z
x,-y,1/2+z
1/2+x,1/2+y,z
1/2-x,1/2+y,1/2-z
1/2-x,1/2-y,-z
1/2+x,1/2-y,1/2+z
loop_
_atom_site_type_symbol
_atom_site_label
_atom_site_fract_x
_atom_site_fract_y
_atom_site_fract_z
Si Si1 0.294037 0.422991 0.427757
Si Si2 0.618219 0.036307 0.561479
Si Si3 0.458605 0.380874 0.152184
Si Si4 0.291210 0.343042 0.654596
Si Si5 0.786278 0.210499 0.342759
O O1 0.241478 0.509060 0.505430
O O2 0.436340 0.370842 0.417895
O O3 0.207438 0.285171 0.411753
O O4 0.289738 0.541789 0.354814
O O5 0.657953 0.928178 0.638224
O O6 0.500000 0.000000 0.500000
O O7 0.617370 0.194090 0.601100
O O8 0.500000 0.354717 0.250000
O O9 0.400232 0.540172 0.151139
O O10 0.349043 0.268585 0.132075
O O11 0.299525 0.266039 0.744228
#
# Coordination Sequence:
#
# PCOD9304544 Si02
#       5
#     8   8   8   8   8
#     4  12  25  45  74 105 149 195 243 314 376 428
#     4  11  28  48  72 114 154 191 249 315 381 435
#     4  11  23  44  73 107 147 192 252 306 366 446
#     4  11  24  47  73 108 147 199 250 298 371 454
#     4  11  24  47  73 108 147 199 250 298 371 454
#
# _framework density 25.325353
#
# number of rings (size 3 to 8) (size 9 to 14) (size 15 to 20)
#    0.000    0.800    4.000    2.400    5.600    3.200 
#    0.000    3.000    0.000    0.000    0.000    0.000 
#    0.000    0.000    0.000    0.000    0.000    0.000 
#
# Total GULP energy -111912.807705 kJ/mol
# GULP energy per Si atom -5595.640385 kJ/mol
# Density = 2.526771 g / cm^3
# Si number density = 25.325353 Si / 1000 Ang^3
#
#
#
# Elastic Constant Matrix: (Units=GPa)
#
#
# Indices 1 2 3 4 5 6 
#
# 1 112.2857 -3.8464 18.9486 0.0000 4.0059 0.0000
# 2 -3.8464 87.5419 -19.3233 0.0000 18.4794 0.0000
# 3 18.9486 -19.3233 93.6290 0.0000 13.3125 0.0000
# 4 0.0000 0.0000 0.0000 41.8673 0.0000 3.6968
# 5 4.0059 18.4794 13.3125 0.0000 46.0602 0.0000
# 6 0.0000 0.0000 0.0000 3.6968 0.0000 32.9373
#
#
#
# Elastic Compliance Matrix: (Units=1/GPa)
#
#
# Indices 1 2 3 4 5 6 
#
# 1 0.009224 0.000071 -0.001808 0.000000 -0.000308 0.000000
# 2 0.000071 0.013633 0.003731 0.000000 -0.006554 0.000000
# 3 -0.001808 0.003731 0.012522 0.000000 -0.004959 0.000000
# 4 0.000000 0.000000 0.000000 0.024124 0.000000 -0.002708
# 5 -0.000308 -0.006554 -0.004959 0.000000 0.025800 0.000000
# 6 0.000000 0.000000 0.000000 -0.002708 0.000000 0.030665
#
#
# Mechanical properties :
#
#
# Convention : Reuss Voigt Hill
#
# Bulk Modulus (GPa) = 25.40168 31.66825 28.53497
# Shear Modulus (GPa) = 39.96716 44.01814 41.99265
#
# Velocity S-wave (km/s) = 3.97690 4.17358 4.07643
# Velocity P-wave (km/s) = 5.58028 5.97970 5.78344
#
# Compressibility (1/GPa) = 0.03936748
#
# Stress axis : x y z
#
# Youngs Moduli (GPa) = 108.40758 73.34940 79.86251
#
# Poissons Ratio (x) = -0.00522 0.14442
# Poissons Ratio (y) = -0.00772 -0.29798
# Poissons Ratio (z) = 0.19604 -0.27368
#
# Static dielectric constant tensor:
#      x y z
#    x 2.019820 0.000000 0.031030 
#    y 0.000000 1.996240 0.000000 
#    z 0.031030 0.000000 2.086920 
# 
# From -- ./inp_files/195703.got.cif
#   From: 2010.05.17/outbox.cif.g08.bks.cpg/sg15_98_cif.got.tgz:195703.got - 2010.06.03 18:47:42.
