data_PCOD9304693
_publ_section_title
;
Structure prediction by ZEFSAII (Michael W. Deem and Ramdas Pophale) SiO2 
 PCOD9304693
Probable space group: C 2/C
;
_chemical_formula_sum "Si O2"
_cell_formula_units_Z 48
_cell_length_a 30.719321
_cell_length_b 11.613026
_cell_length_c 22.004334
_cell_angle_alpha 90.000000
_cell_angle_beta 17.019050
_cell_angle_gamma 90.000000
_cell_volume 2297.590347
_symmetry_space_group_name_H-M "C 2/C"
_symmetry_group_IT_number 15
_symmetry_cell_setting 'monoclinic'
loop_
_space_group_symop_operation_xyz
x,y,z
-x,y,1/2-z
-x,-y,-z
x,-y,1/2+z
1/2+x,1/2+y,z
1/2-x,1/2+y,1/2-z
1/2-x,1/2-y,-z
1/2+x,1/2-y,1/2+z
loop_
_atom_site_type_symbol
_atom_site_label
_atom_site_fract_x
_atom_site_fract_y
_atom_site_fract_z
Si Si1 0.346940 0.341292 0.229153
Si Si2 0.181356 0.442013 0.895933
Si Si3 0.269208 0.395174 0.641345
Si Si4 0.854623 0.460555 0.295364
Si Si5 0.086862 0.012151 0.741667
Si Si6 0.367950 0.298018 0.732153
O O1 0.282429 0.447726 0.276579
O O2 0.234131 0.235152 0.377858
O O3 0.378682 0.391399 0.253275
O O4 0.499246 0.298424 0.994584
O O5 0.222381 0.396651 0.774374
O O6 0.224105 0.347493 0.889177
O O7 0.009298 0.475086 0.124166
O O8 0.152923 0.466309 0.756216
O O9 0.428663 0.456236 0.424355
O O10 0.718035 0.502986 0.518274
O O11 0.842225 0.326357 0.294644
O O12 0.084771 0.890540 0.780069
#
# Coordination Sequence:
#
# PCOD9304693 Si02
#       6
#     8   8   8   8   8   8
#     4  11  24  44  75  97 136 195 232 286 347 420
#     4  11  24  44  71 102 140 181 242 291 343 423
#     4  12  25  43  72  98 140 187 235 282 348 426
#     4  12  28  42  70 108 139 179 236 294 355 413
#     4  11  25  50  66 103 145 182 230 292 363 414
#     4  11  23  45  75  99 136 187 229 298 351 409
#
# _framework density 20.891452000000001
#
# number of rings (size 3 to 8) (size 9 to 14) (size 15 to 20)
#    0.000    0.667    5.000    2.500    7.000    3.333 
#    6.000    0.000    0.000    0.000    0.000    0.000 
#    0.000    0.000    0.000    0.000    0.000    0.000 
#
# Total GULP energy -134330.939596 kJ/mol
# GULP energy per Si atom -5597.122483 kJ/mol
# Density = 2.084390 g / cm^3
# Si number density = 20.891452 Si / 1000 Ang^3
#
#
#
# Elastic Constant Matrix: (Units=GPa)
#
#
# Indices 1 2 3 4 5 6 
#
# 1 67.0740 20.5048 10.6783 0.0000 -12.7886 0.0000
# 2 20.5048 61.8641 -17.2013 0.0000 -4.0627 0.0000
# 3 10.6783 -17.2013 50.4602 0.0001 -0.2959 -0.0001
# 4 0.0000 0.0000 0.0001 17.3868 0.0000 -2.6760
# 5 -12.7886 -4.0627 -0.2959 0.0000 34.2759 0.0000
# 6 0.0000 0.0000 -0.0001 -2.6760 0.0000 8.9926
#
#
#
# Elastic Compliance Matrix: (Units=1/GPa)
#
#
# Indices 1 2 3 4 5 6 
#
# 1 0.019652 -0.008003 -0.006850 0.000000 0.006324 0.000000
# 2 -0.008003 0.021279 0.008945 0.000000 -0.000387 0.000000
# 3 -0.006850 0.008945 0.024309 0.000000 -0.001286 0.000000
# 4 0.000000 0.000000 0.000000 0.060276 0.000000 0.017937
# 5 0.006324 -0.000387 -0.001286 0.000000 0.031478 0.000000
# 6 0.000000 0.000000 0.000000 0.017937 0.000000 0.116540
#
#
# Mechanical properties :
#
#
# Convention : Reuss Voigt Hill
#
# Bulk Modulus (GPa) = 18.71805 23.04020 20.87912
# Shear Modulus (GPa) = 16.49316 23.15882 19.82599
#
# Velocity S-wave (km/s) = 2.81280 3.33307 3.08393
# Velocity P-wave (km/s) = 4.41908 5.08576 4.76410
#
# Compressibility (1/GPa) = 0.05342437
#
# Stress axis : x y z
#
# Youngs Moduli (GPa) = 50.88627 46.99537 41.13741
#
# Poissons Ratio (x) = 0.37609 0.28177
# Poissons Ratio (y) = 0.40723 -0.36797
# Poissons Ratio (z) = 0.34855 -0.42037
#
# Static dielectric constant tensor:
#      x y z
#    x 1.734620 0.000000 0.002450 
#    y 0.000000 1.725600 0.000000 
#    z 0.002450 0.000000 1.757190 
# 
# From -- ./inp_files/103760.got.cif
#   From: 2010.05.17/outbox.cif.g08.bks.cpg/sg15_52_cif.got.tgz:103760.got - 2010.06.03 18:47:42.
