data_PCOD9304306
_publ_section_title
;
Structure prediction by ZEFSAII (Michael W. Deem and Ramdas Pophale) SiO2 
 PCOD9304306
Probable space group: C 2/C
;
_chemical_formula_sum "Si O2"
_cell_formula_units_Z 40
_cell_length_a 5.486855
_cell_length_b 27.787210
_cell_length_c 12.147766
_cell_angle_alpha 90.000000
_cell_angle_beta 96.951170
_cell_angle_gamma 90.000000
_cell_volume 1838.488169
_symmetry_space_group_name_H-M "C 2/C"
_symmetry_group_IT_number 15
_symmetry_cell_setting 'monoclinic'
loop_
_space_group_symop_operation_xyz
x,y,z
-x,y,1/2-z
-x,-y,-z
x,-y,1/2+z
1/2+x,1/2+y,z
1/2-x,1/2+y,1/2-z
1/2-x,1/2-y,-z
1/2+x,1/2-y,1/2+z
loop_
_atom_site_type_symbol
_atom_site_label
_atom_site_fract_x
_atom_site_fract_y
_atom_site_fract_z
Si Si1 0.000000 0.607774 0.750000
Si Si2 0.111908 0.540432 0.369671
Si Si3 0.260665 0.449398 0.459149
Si Si4 0.000000 0.167858 0.750000
Si Si5 0.002775 0.779906 0.015111
Si Si6 0.566011 0.624064 0.123098
O O1 0.906201 0.576727 0.641773
O O2 0.755071 0.637552 0.771600
O O3 0.325663 0.501330 0.407529
O O4 0.175508 0.596758 0.367385
O O5 0.000000 0.525046 0.250000
O O6 0.901922 0.536726 0.446398
O O7 0.434122 0.409053 0.521831
O O8 0.026236 0.198220 0.639185
O O9 0.750000 0.750000 0.000000
O O10 0.966824 0.822518 0.923688
O O11 0.250000 0.750000 0.000000
O O12 0.500000 0.620162 0.250000
#
# Coordination Sequence:
#
# PCOD9304306 Si02
#       6
#     4   8   8   4   8   8
#     4  12  24  46  76 109 144 205 238 310 360 440
#     4  11  23  43  69 105 149 193 247 296 364 439
#     4  11  24  44  68 106 149 193 248 293 364 438
#     4  12  26  50  78 103 152 189 256 304 378 440
#     4  12  30  50  77 110 144 192 248 313 380 445
#     4  12  26  46  73 104 146 190 244 310 372 443
#
# _framework density 21.757006000000001
#
# number of rings (size 3 to 8) (size 9 to 14) (size 15 to 20)
#    0.000    0.400    5.000    3.000    5.600    0.000 
#    1.800    0.000    0.000    0.000    0.000    0.000 
#    0.000    0.000    0.000    0.000    0.000    0.000 
#
# Total GULP energy -111456.086840 kJ/mol
# GULP energy per Si atom -5572.804342 kJ/mol
# Density = 2.170749 g / cm^3
# Si number density = 21.757006 Si / 1000 Ang^3
#
#
#
# Elastic Constant Matrix: (Units=GPa)
#
#
# Indices 1 2 3 4 5 6 
#
# 1 93.7354 46.6684 17.2702 0.0000 3.3063 0.0000
# 2 46.6684 130.7902 27.8748 0.0000 3.0985 0.0000
# 3 17.2702 27.8748 148.2135 0.0000 10.4994 0.0000
# 4 0.0000 0.0000 0.0000 70.9545 0.0000 3.7472
# 5 3.3063 3.0985 10.4994 0.0000 39.8641 0.0000
# 6 0.0000 0.0000 0.0000 3.7472 0.0000 38.8490
#
#
#
# Elastic Compliance Matrix: (Units=1/GPa)
#
#
# Indices 1 2 3 4 5 6 
#
# 1 0.013049 -0.004508 -0.000633 0.000000 -0.000565 0.000000
# 2 -0.004508 0.009524 -0.001264 0.000000 -0.000034 0.000000
# 3 -0.000633 -0.001264 0.007182 0.000000 -0.001741 0.000000
# 4 0.000000 0.000000 0.000000 0.014166 0.000000 -0.001366
# 5 -0.000565 -0.000034 -0.001741 0.000000 0.025593 0.000000
# 6 0.000000 0.000000 0.000000 -0.001366 0.000000 0.025872
#
#
# Mechanical properties :
#
#
# Convention : Reuss Voigt Hill
#
# Bulk Modulus (GPa) = 59.00788 61.81843 60.41316
# Shear Modulus (GPa) = 43.91962 48.66190 46.29076
#
# Velocity S-wave (km/s) = 4.49781 4.73441 4.61762
# Velocity P-wave (km/s) = 7.35893 7.63944 7.50049
#
# Compressibility (1/GPa) = 0.01694689
#
# Stress axis : x y z
#
# Youngs Moduli (GPa) = 76.63285 104.99268 139.24245
#
# Poissons Ratio (x) = 0.47331 0.08809
# Poissons Ratio (y) = 0.34546 0.17595
# Poissons Ratio (z) = 0.04848 0.13267
#
# Static dielectric constant tensor:
#      x y z
#    x 1.865080 0.000000 0.128510 
#    y 0.000000 1.944980 0.000000 
#    z 0.128510 0.000000 1.870470 
# 
# From -- ./inp_files/73097.got.cif
#   From: 2010.05.17/outbox.cif.g08.bks.cpg/sg15_37_cif.got.tgz:73097.got - 2010.06.03 18:47:42.
