data_PCOD9304889
_publ_section_title
;
Structure prediction by ZEFSAII (Michael W. Deem and Ramdas Pophale) SiO2 
 PCOD9304889
Probable space group: C 2/C
;
_chemical_formula_sum "Si O2"
_cell_formula_units_Z 40
_cell_length_a 14.140239
_cell_length_b 7.177811
_cell_length_c 32.180663
_cell_angle_alpha 90.000000
_cell_angle_beta 153.061314
_cell_angle_gamma 90.000000
_cell_volume 1479.711965
_symmetry_space_group_name_H-M "C 2/C"
_symmetry_group_IT_number 15
_symmetry_cell_setting 'monoclinic'
loop_
_space_group_symop_operation_xyz
x,y,z
-x,y,1/2-z
-x,-y,-z
x,-y,1/2+z
1/2+x,1/2+y,z
1/2-x,1/2+y,1/2-z
1/2-x,1/2-y,-z
1/2+x,1/2-y,1/2+z
loop_
_atom_site_type_symbol
_atom_site_label
_atom_site_fract_x
_atom_site_fract_y
_atom_site_fract_z
Si Si1 0.583815 0.005758 0.237550
Si Si2 0.838708 0.063560 0.473886
Si Si3 0.583341 0.009574 0.486405
Si Si4 0.494770 0.581314 0.123648
Si Si5 0.661063 0.563115 0.275756
O O1 0.500000 0.058354 0.250000
O O2 0.662945 0.790768 0.271643
O O3 0.391950 0.006696 0.130812
O O4 0.771424 0.140892 0.298182
O O5 0.823634 0.284147 0.476604
O O6 0.000000 0.000000 0.500000
O O7 0.924032 0.998085 0.551501
O O8 0.392153 0.002773 0.379648
O O9 0.500000 0.000000 0.500000
O O10 0.762289 0.857955 0.548030
O O11 0.569146 0.490145 0.196589
O O12 0.500000 0.522608 0.250000
#
# Coordination Sequence:
#
# PCOD9304889 Si02
#       5
#     8   8   8   8   8
#     4  11  24  46  72 100 149 193 241 303 368 435
#     4  12  25  49  74 107 144 194 245 306 368 433
#     4  12  26  50  75 106 152 195 242 303 373 438
#     4  12  25  43  76 104 142 195 239 301 362 438
#     4  11  23  48  71 103 148 195 238 304 367 435
#
# _framework density 27.032288999999999
#
# number of rings (size 3 to 8) (size 9 to 14) (size 15 to 20)
#    0.000    0.400    6.000    3.000    2.800    0.800 
#    7.200    0.000    0.000    0.000    0.000    0.000 
#    0.000    0.000    0.000    0.000    0.000    0.000 
#
# Total GULP energy -111768.967022 kJ/mol
# GULP energy per Si atom -5588.448351 kJ/mol
# Density = 2.697076 g / cm^3
# Si number density = 27.032289 Si / 1000 Ang^3
#
#
#
# Elastic Constant Matrix: (Units=GPa)
#
#
# Indices 1 2 3 4 5 6 
#
# 1 209.8743 18.0440 84.4341 -0.0002 -12.3048 0.0003
# 2 18.0440 107.6749 68.2079 -0.0017 0.5405 0.0000
# 3 84.4341 68.2079 295.5845 -0.0008 4.5855 0.0002
# 4 -0.0002 -0.0017 -0.0008 -17.3415 0.0004 -20.4928
# 5 -12.3048 0.5405 4.5855 0.0004 80.4833 -0.0004
# 6 0.0003 0.0000 0.0002 -20.4928 -0.0004 -0.1422
#
#
#
# Elastic Compliance Matrix: (Units=1/GPa)
#
#
# Indices 1 2 3 4 5 6 
#
# 1 0.005452 0.000091 -0.001593 0.000000 0.000924 0.000000
# 2 0.000091 0.010879 -0.002538 0.000000 0.000085 -0.000001
# 3 -0.001593 -0.002538 0.004431 0.000000 -0.000479 0.000000
# 4 0.000000 0.000000 0.000000 0.000341 0.000000 -0.049086
# 5 0.000924 0.000085 -0.000479 0.000000 0.012593 0.000000
# 6 0.000000 -0.000001 0.000000 -0.049086 0.000000 0.041538
#
#
# Mechanical properties :
#
#
# Convention : Reuss Voigt Hill
#
# Bulk Modulus (GPa) = 78.84715 106.05621 92.45168
# Shear Modulus (GPa) = 57.11672 42.09642 49.60657
#
# Velocity S-wave (km/s) = 4.60162 3.95050 4.28844
# Velocity P-wave (km/s) = 7.58052 7.75416 7.66783
#
# Compressibility (1/GPa) = 0.01268277
#
# Stress axis : x y z
#
# Youngs Moduli (GPa) = 183.42514 91.91949 225.68076
#
# Poissons Ratio (x) = -0.00833 0.35941
# Poissons Ratio (y) = -0.01661 0.57269
# Poissons Ratio (z) = 0.29211 0.23326
#
# Static dielectric constant tensor:
#      x y z
#    x 2.264930 0.000000 0.137890 
#    y 0.000000 2.275600 0.000000 
#    z 0.137890 0.000000 2.031750 
# 
# From -- ./inp_files/313252.got.cif
#   From: 2010.05.17/outbox.cif.g08.bks.cpg/sg15_157_cif.got.tgz:313252.got - 2010.06.03 18:47:42.
