data_PCOD9304924
_publ_section_title
;
Structure prediction by ZEFSAII (Michael W. Deem and Ramdas Pophale) SiO2 
 PCOD9304924
Probable space group: C 2/C
;
_chemical_formula_sum "Si O2"
_cell_formula_units_Z 40
_cell_length_a 27.550348
_cell_length_b 11.649094
_cell_length_c 14.895964
_cell_angle_alpha 90.000000
_cell_angle_beta 18.403991
_cell_angle_gamma 90.000000
_cell_volume 1509.326681
_symmetry_space_group_name_H-M "C 2/C"
_symmetry_group_IT_number 15
_symmetry_cell_setting 'monoclinic'
loop_
_space_group_symop_operation_xyz
x,y,z
-x,y,1/2-z
-x,-y,-z
x,-y,1/2+z
1/2+x,1/2+y,z
1/2-x,1/2+y,1/2-z
1/2-x,1/2-y,-z
1/2+x,1/2-y,1/2+z
loop_
_atom_site_type_symbol
_atom_site_label
_atom_site_fract_x
_atom_site_fract_y
_atom_site_fract_z
Si Si1 0.112310 0.088476 0.721878
Si Si2 0.761234 0.206480 0.687970
Si Si3 0.000000 0.588317 0.250000
Si Si4 0.805003 0.410345 0.475079
Si Si5 0.000000 0.990634 0.750000
Si Si6 0.090676 0.697302 0.389700
O O1 0.078537 0.192290 0.847690
O O2 0.271936 0.122713 0.392152
O O3 0.992058 0.065254 0.853671
O O4 0.156803 0.971425 0.694170
O O5 0.768153 0.297504 0.596580
O O6 0.853928 0.261200 0.609303
O O7 0.853544 0.091913 0.499644
O O8 0.595791 0.167078 0.013879
O O9 0.884138 0.506481 0.399346
O O10 0.933168 0.371855 0.177997
#
# Coordination Sequence:
#
# PCOD9304924 Si02
#       6
#     8   8   4   8   4   8
#     4  11  28  48  81 117 164 213 268 332 404 469
#     4  12  26  50  81 118 159 207 270 326 407 488
#     4  12  25  49  82 118 160 214 254 330 410 474
#     4  12  24  54  82 115 166 208 261 335 405 481
#     4  12  27  55  76 116 160 216 274 340 388 472
#     4  11  23  52  77 126 156 205 277 324 403 498
#
# _framework density 26.501882999999999
#
# number of rings (size 3 to 8) (size 9 to 14) (size 15 to 20)
#    0.000    0.400    6.000    1.800    0.000    2.400 
#    7.200    0.000    0.000    0.000    0.000    0.000 
#    0.000    0.000    0.000    0.000    0.000    0.000 
#
# Total GULP energy -112569.290499 kJ/mol
# GULP energy per Si atom -5628.464525 kJ/mol
# Density = 2.644156 g / cm^3
# Si number density = 26.501883 Si / 1000 Ang^3
#
#
#
# Elastic Constant Matrix: (Units=GPa)
#
#
# Indices 1 2 3 4 5 6 
#
# 1 121.0066 50.9145 -5.9978 -0.0001 -9.8841 0.0001
# 2 50.9145 153.0816 45.5824 -0.0001 2.6428 0.0001
# 3 -5.9978 45.5824 115.1922 -0.0001 6.5554 0.0002
# 4 -0.0001 -0.0001 -0.0001 64.4654 0.0001 10.0570
# 5 -9.8841 2.6428 6.5554 0.0001 38.6890 0.0000
# 6 0.0001 0.0001 0.0002 10.0570 0.0000 49.8874
#
#
#
# Elastic Compliance Matrix: (Units=1/GPa)
#
#
# Indices 1 2 3 4 5 6 
#
# 1 0.010280 -0.004057 0.001995 0.000000 0.002565 0.000000
# 2 -0.004057 0.009006 -0.003717 0.000000 -0.001022 0.000000
# 3 0.001995 -0.003717 0.010312 0.000000 -0.000984 0.000000
# 4 0.000000 0.000000 0.000000 0.016016 0.000000 -0.003229
# 5 0.002565 -0.001022 -0.000984 0.000000 0.026739 0.000000
# 6 0.000000 0.000000 0.000000 -0.003229 0.000000 0.020696
#
#
# Mechanical properties :
#
#
# Convention : Reuss Voigt Hill
#
# Bulk Modulus (GPa) = 55.43619 63.36429 59.40024
# Shear Modulus (GPa) = 45.19966 50.52711 47.86338
#
# Velocity S-wave (km/s) = 4.13428 4.37114 4.25436
# Velocity P-wave (km/s) = 6.61460 7.03115 6.82605
#
# Compressibility (1/GPa) = 0.01803876
#
# Stress axis : x y z
#
# Youngs Moduli (GPa) = 97.28087 111.03355 96.97624
#
# Poissons Ratio (x) = 0.45048 -0.19344
# Poissons Ratio (y) = 0.39469 0.36046
# Poissons Ratio (z) = -0.19405 0.41271
#
# Static dielectric constant tensor:
#      x y z
#    x 2.077180 0.000000 0.016730 
#    y 0.000000 2.003450 0.000000 
#    z 0.016730 0.000000 2.103290 
# 
# From -- ./inp_files/142820.got.cif
#   From: 2010.05.17/outbox.cif.g08.bks.cpg/sg15_72_cif.got.tgz:142820.got - 2010.06.03 18:47:42.
