data_PCOD9304576
_publ_section_title
;
Structure prediction by ZEFSAII (Michael W. Deem and Ramdas Pophale) SiO2 
 PCOD9304576
Probable space group: C 2/C
;
_chemical_formula_sum "Si O2"
_cell_formula_units_Z 44
_cell_length_a 6.716750
_cell_length_b 30.626208
_cell_length_c 10.134126
_cell_angle_alpha 90.000000
_cell_angle_beta 70.927953
_cell_angle_gamma 90.000000
_cell_volume 1970.245540
_symmetry_space_group_name_H-M "C 2/C"
_symmetry_group_IT_number 15
_symmetry_cell_setting 'monoclinic'
loop_
_space_group_symop_operation_xyz
x,y,z
-x,y,1/2-z
-x,-y,-z
x,-y,1/2+z
1/2+x,1/2+y,z
1/2-x,1/2+y,1/2-z
1/2-x,1/2-y,-z
1/2+x,1/2-y,1/2+z
loop_
_atom_site_type_symbol
_atom_site_label
_atom_site_fract_x
_atom_site_fract_y
_atom_site_fract_z
Si Si1 0.000000 0.981874 0.250000
Si Si2 0.779848 0.313871 0.374042
Si Si3 0.500000 0.894131 0.750000
Si Si4 0.882930 0.539875 0.090991
Si Si5 0.500000 0.742100 0.750000
Si Si6 0.264580 0.916709 0.359869
Si Si7 0.745243 0.684636 0.194275
O O1 0.918844 0.947057 0.158655
O O2 0.803210 0.015102 0.293961
O O3 0.581322 0.287889 0.353264
O O4 0.736207 0.364911 0.353674
O O5 0.810330 0.307166 0.525990
O O6 0.000000 0.302548 0.250000
O O7 0.447988 0.929080 0.874126
O O8 0.669468 0.861366 0.771784
O O9 0.776151 0.571115 0.009089
O O10 0.000000 0.500000 0.000000
O O11 0.686384 0.778090 0.715296
O O12 0.500000 0.927066 0.250000
O O13 0.500000 0.683255 0.250000
#
# Coordination Sequence:
#
# PCOD9304576 Si02
#       7
#     4   8   4   8   4   8   8
#     4  12  25  40  69 100 132 192 225 290 347 396
#     4  11  25  45  71 105 141 181 232 283 346 423
#     4  11  26  46  69 100 140 186 225 298 346 401
#     4  12  24  44  68  98 139 180 239 286 339 412
#     4  11  25  46  76 106 140 184 224 290 349 415
#     4  11  23  45  65 100 140 178 228 285 343 410
#     4  11  26  47  73 104 143 181 232 284 350 424
#
# _framework density 22.332243999999999
#
# number of rings (size 3 to 8) (size 9 to 14) (size 15 to 20)
#    0.000    0.727    3.636    3.273    1.273    5.818 
#    0.000    0.000    0.000    0.000    0.000    0.000 
#    0.000    0.000    0.000    0.000    0.000    0.000 
#
# Total GULP energy -122507.754139 kJ/mol
# GULP energy per Si atom -5568.534279 kJ/mol
# Density = 2.228141 g / cm^3
# Si number density = 22.332244 Si / 1000 Ang^3
#
#
#
# Elastic Constant Matrix: (Units=GPa)
#
#
# Indices 1 2 3 4 5 6 
#
# 1 120.4438 63.0710 42.0949 0.0000 22.1637 0.0000
# 2 63.0710 162.7862 34.3487 0.0000 16.3701 0.0000
# 3 42.0949 34.3487 60.8849 0.0000 16.0275 0.0000
# 4 0.0000 0.0000 0.0000 19.6080 0.0000 31.1811
# 5 22.1637 16.3701 16.0275 0.0000 35.8967 0.0000
# 6 0.0000 0.0000 0.0000 31.1811 0.0000 47.0716
#
#
#
# Elastic Compliance Matrix: (Units=1/GPa)
#
#
# Indices 1 2 3 4 5 6 
#
# 1 0.012832 -0.003329 -0.006015 0.000000 -0.003719 0.000000
# 2 -0.003329 0.007920 -0.001991 0.000000 -0.000668 0.000000
# 3 -0.006015 -0.001991 0.023219 0.000000 -0.005745 0.000000
# 4 0.000000 0.000000 0.000000 -0.955225 0.000000 0.632758
# 5 -0.003719 -0.000668 -0.005745 0.000000 0.033024 0.000000
# 6 0.000000 0.000000 0.000000 0.632758 0.000000 -0.397906
#
#
# Mechanical properties :
#
#
# Convention : Reuss Voigt Hill
#
# Bulk Modulus (GPa) = 46.94476 69.23821 58.09149
# Shear Modulus (GPa) = -4.01166 34.15529 15.07181
#
# Velocity S-wave (km/s) = -1.34174 3.91502 2.60068
# Velocity P-wave (km/s) = 4.32046 7.17687 5.92342
#
# Compressibility (1/GPa) = 0.02130163
#
# Stress axis : x y z
#
# Youngs Moduli (GPa) = 77.92774 126.26367 43.06849
#
# Poissons Ratio (x) = 0.42028 0.25906
# Poissons Ratio (y) = 0.25939 0.08575
# Poissons Ratio (z) = 0.46875 0.25139
#
# Static dielectric constant tensor:
#      x y z
#    x 1.789840 0.000000 0.098750 
#    y 0.000000 1.975180 0.000000 
#    z 0.098750 0.000000 1.982000 
# 
# From -- ./inp_files/73938.got.cif
#   From: 2010.05.17/outbox.cif.g08.bks.cpg/sg15_37_cif.got.tgz:73938.got - 2010.06.03 18:47:42.
