data_PCOD9304305
_publ_section_title
;
Structure prediction by ZEFSAII (Michael W. Deem and Ramdas Pophale) SiO2 
 PCOD9304305
Probable space group: C 2/C
;
_chemical_formula_sum "Si O2"
_cell_formula_units_Z 64
_cell_length_a 24.915906
_cell_length_b 11.621997
_cell_length_c 14.768378
_cell_angle_alpha 90.000000
_cell_angle_beta 135.348315
_cell_angle_gamma 90.000000
_cell_volume 3005.515326
_symmetry_space_group_name_H-M "C 2/C"
_symmetry_group_IT_number 15
_symmetry_cell_setting 'monoclinic'
loop_
_space_group_symop_operation_xyz
x,y,z
-x,y,1/2-z
-x,-y,-z
x,-y,1/2+z
1/2+x,1/2+y,z
1/2-x,1/2+y,1/2-z
1/2-x,1/2-y,-z
1/2+x,1/2-y,1/2+z
loop_
_atom_site_type_symbol
_atom_site_label
_atom_site_fract_x
_atom_site_fract_y
_atom_site_fract_z
Si Si1 0.320553 0.767011 0.978522
Si Si2 0.176872 0.222753 0.974468
Si Si3 0.198452 0.002399 0.603068
Si Si4 0.936470 0.261189 0.813728
Si Si5 0.894954 0.318351 0.445343
Si Si6 0.354178 0.299337 0.707488
Si Si7 0.866481 0.429229 0.872403
Si Si8 0.086041 0.985697 0.136339
O O1 0.307045 0.633945 0.935241
O O2 0.236848 0.820015 0.896005
O O3 0.358404 0.837681 0.943493
O O4 0.366722 0.765299 0.127970
O O5 0.103127 0.265280 0.830989
O O6 0.250000 0.250000 0.000000
O O7 0.175946 0.088027 0.998122
O O8 0.173547 0.285702 0.068151
O O9 0.283061 0.968193 0.737040
O O10 0.142336 0.987739 0.620853
O O11 0.909626 0.367599 0.842429
O O12 0.903976 0.143897 0.818367
O O13 0.027777 0.258507 0.927111
O O14 0.877771 0.273387 0.323882
O O15 0.905328 0.454744 0.454060
O O16 0.396878 0.420381 0.766371
O O17 0.000000 0.000000 0.000000
#
# Coordination Sequence:
#
# PCOD9304305 Si02
#       8
#     8   8   8   8   8   8   8   8
#     4  11  24  42  70 106 140 184 239 297 355 417
#     4  12  26  44  75 108 135 184 245 293 352 421
#     4  12  23  44  71 105 141 182 242 301 349 426
#     4  12  26  47  72 104 143 189 234 291 362 432
#     4  12  26  47  70 102 151 187 232 296 361 430
#     4  11  23  43  69 104 142 182 232 299 356 420
#     4  12  25  43  74 104 142 191 236 291 360 435
#     4  12  23  42  74  99 140 186 230 291 365 418
#
# _framework density 21.294184000000001
#
# number of rings (size 3 to 8) (size 9 to 14) (size 15 to 20)
#    0.000    0.250    7.500    1.500    1.750    3.000 
#    0.000    5.000    0.000    0.000    0.000    0.000 
#    0.000    0.000    0.000    0.000    0.000    0.000 
#
# Total GULP energy -179108.840613 kJ/mol
# GULP energy per Si atom -5597.151269 kJ/mol
# Density = 2.124572 g / cm^3
# Si number density = 21.294184 Si / 1000 Ang^3
#
#
#
# Elastic Constant Matrix: (Units=GPa)
#
#
# Indices 1 2 3 4 5 6 
#
# 1 85.1643 24.1779 33.8654 0.0000 -12.8012 0.0000
# 2 24.1779 133.1795 22.8101 0.0000 -17.1287 0.0000
# 3 33.8654 22.8101 109.2120 0.0000 -16.5901 0.0000
# 4 0.0000 0.0000 0.0000 31.2661 0.0000 6.0419
# 5 -12.8012 -17.1287 -16.5901 0.0000 33.2549 0.0000
# 6 0.0000 0.0000 0.0000 6.0419 0.0000 25.4607
#
#
#
# Elastic Compliance Matrix: (Units=1/GPa)
#
#
# Indices 1 2 3 4 5 6 
#
# 1 0.014041 -0.001572 -0.003600 0.000000 0.002799 0.000000
# 2 -0.001572 0.008350 -0.000752 0.000000 0.003320 0.000000
# 3 -0.003600 -0.000752 0.010994 0.000000 0.003711 0.000000
# 4 0.000000 0.000000 0.000000 0.033521 0.000000 -0.007955
# 5 0.002799 0.003320 0.003711 0.000000 0.034710 0.000000
# 6 0.000000 0.000000 0.000000 -0.007955 0.000000 0.041164
#
#
# Mechanical properties :
#
#
# Convention : Reuss Voigt Hill
#
# Bulk Modulus (GPa) = 46.43590 54.36251 50.39921
# Shear Modulus (GPa) = 30.90107 34.44316 32.67211
#
# Velocity S-wave (km/s) = 3.81353 4.02617 3.92129
# Velocity P-wave (km/s) = 6.42222 6.87009 6.64992
#
# Compressibility (1/GPa) = 0.02153506
#
# Stress axis : x y z
#
# Youngs Moduli (GPa) = 71.22116 119.76087 90.96073
#
# Poissons Ratio (x) = 0.18831 0.32749
# Poissons Ratio (y) = 0.11199 0.06840
# Poissons Ratio (z) = 0.25642 0.09006
#
# Static dielectric constant tensor:
#      x y z
#    x 1.766920 0.000000 -0.014350 
#    y 0.000000 1.771000 0.000000 
#    z -0.014350 0.000000 1.783910 
# 
# From -- ./inp_files/177841.got.cif
#   From: 2010.05.17/outbox.cif.g08.bks.cpg/sg15_89_cif.got.tgz:177841.got - 2010.06.03 18:47:42.
