data_PCOD9304796
_publ_section_title
;
Structure prediction by ZEFSAII (Michael W. Deem and Ramdas Pophale) SiO2 
 PCOD9304796
Probable space group: C 2/C
;
_chemical_formula_sum "Si O2"
_cell_formula_units_Z 32
_cell_length_a 9.607035
_cell_length_b 14.678705
_cell_length_c 9.811084
_cell_angle_alpha 90.000000
_cell_angle_beta 104.947050
_cell_angle_gamma 90.000000
_cell_volume 1336.734729
_symmetry_space_group_name_H-M "C 2/C"
_symmetry_group_IT_number 15
_symmetry_cell_setting 'monoclinic'
loop_
_space_group_symop_operation_xyz
x,y,z
-x,y,1/2-z
-x,-y,-z
x,-y,1/2+z
1/2+x,1/2+y,z
1/2-x,1/2+y,1/2-z
1/2-x,1/2-y,-z
1/2+x,1/2-y,1/2+z
loop_
_atom_site_type_symbol
_atom_site_label
_atom_site_fract_x
_atom_site_fract_y
_atom_site_fract_z
Si Si1 0.558413 0.402659 0.963421
Si Si2 0.164105 0.164988 0.755033
Si Si3 0.773667 0.134153 0.275476
Si Si4 0.591505 0.964820 0.153169
O O1 0.641424 0.392951 0.842210
O O2 0.406450 0.350824 0.912631
O O3 0.500000 0.500000 0.000000
O O4 0.670690 0.365718 0.100088
O O5 0.188870 0.272096 0.761538
O O6 0.283238 0.104879 0.861950
O O7 0.000000 0.141275 0.750000
O O8 0.665366 0.049187 0.253683
O O9 0.500000 0.916735 0.250000
O O10 0.500000 0.000000 0.000000
#
# Coordination Sequence:
#
# PCOD9304796 Si02
#       4
#     8   8   8   8
#     4  11  23  46  76 105 146 194 248 303 378 446
#     4  12  27  46  76 106 149 199 246 306 374 452
#     4  11  26  45  73 107 146 193 249 308 372 449
#     4  12  28  47  73 110 152 196 254 319 380 444
#
# _framework density 23.938931
#
# number of rings (size 3 to 8) (size 9 to 14) (size 15 to 20)
#    0.000    0.500    2.500    4.500   10.500    1.000 
#    0.000    0.000    0.000    0.000    0.000    0.000 
#    0.000    0.000    0.000    0.000    0.000    0.000 
#
# Total GULP energy -89403.044720 kJ/mol
# GULP energy per Si atom -5587.690295 kJ/mol
# Density = 2.388444 g / cm^3
# Si number density = 23.938931 Si / 1000 Ang^3
#
#
#
# Elastic Constant Matrix: (Units=GPa)
#
#
# Indices 1 2 3 4 5 6 
#
# 1 136.7563 22.1488 21.5973 0.0000 5.3327 0.0000
# 2 22.1488 108.5368 -15.0209 0.0000 12.1476 0.0000
# 3 21.5973 -15.0209 69.5966 0.0000 11.5958 0.0000
# 4 0.0000 0.0000 0.0000 28.9538 0.0000 16.9756
# 5 5.3327 12.1476 11.5958 0.0000 31.7348 0.0000
# 6 0.0000 0.0000 0.0000 16.9756 0.0000 46.4613
#
#
#
# Elastic Compliance Matrix: (Units=1/GPa)
#
#
# Indices 1 2 3 4 5 6 
#
# 1 0.008125 -0.002150 -0.003083 0.000000 0.000584 0.000000
# 2 -0.002150 0.010763 0.003851 0.000000 -0.005166 0.000000
# 3 -0.003083 0.003851 0.017373 0.000000 -0.007304 0.000000
# 4 0.000000 0.000000 0.000000 0.043953 0.000000 -0.016059
# 5 0.000584 -0.005166 -0.007304 0.000000 0.036059 0.000000
# 6 0.000000 0.000000 0.000000 -0.016059 0.000000 0.027391
#
#
# Mechanical properties :
#
#
# Convention : Reuss Voigt Hill
#
# Bulk Modulus (GPa) = 29.85262 41.37112 35.61187
# Shear Modulus (GPa) = 31.72717 40.50760 36.11739
#
# Velocity S-wave (km/s) = 3.64447 4.11800 3.88845
# Velocity P-wave (km/s) = 5.49608 6.31902 5.92187
#
# Compressibility (1/GPa) = 0.03349790
#
# Stress axis : x y z
#
# Youngs Moduli (GPa) = 123.08430 92.90822 57.55987
#
# Poissons Ratio (x) = 0.19975 0.17743
# Poissons Ratio (y) = 0.26462 -0.22166
# Poissons Ratio (z) = 0.37941 -0.35778
#
# Static dielectric constant tensor:
#      x y z
#    x 2.015910 0.000000 -0.003100 
#    y 0.000000 1.837900 0.000000 
#    z -0.003100 0.000000 2.028040 
# 
# From -- ./inp_files/75542.got.cif
#   From: 2010.05.17/outbox.cif.g08.bks.cpg/sg15_38_cif.got.tgz:75542.got - 2010.06.03 18:47:42.
