data_PCOD9304983
_publ_section_title
;
Structure prediction by ZEFSAII (Michael W. Deem and Ramdas Pophale) SiO2 
 PCOD9304983
Probable space group: C 2/C
;
_chemical_formula_sum "Si O2"
_cell_formula_units_Z 44
_cell_length_a 27.300014
_cell_length_b 9.196793
_cell_length_c 9.389701
_cell_angle_alpha 90.000000
_cell_angle_beta 120.842936
_cell_angle_gamma 90.000000
_cell_volume 2024.089726
_symmetry_space_group_name_H-M "C 2/C"
_symmetry_group_IT_number 15
_symmetry_cell_setting 'monoclinic'
loop_
_space_group_symop_operation_xyz
x,y,z
-x,y,1/2-z
-x,-y,-z
x,-y,1/2+z
1/2+x,1/2+y,z
1/2-x,1/2+y,1/2-z
1/2-x,1/2-y,-z
1/2+x,1/2-y,1/2+z
loop_
_atom_site_type_symbol
_atom_site_label
_atom_site_fract_x
_atom_site_fract_y
_atom_site_fract_z
Si Si1 0.588850 0.896830 0.644047
Si Si2 0.500000 0.824487 0.750000
Si Si3 0.663182 0.478568 0.578673
Si Si4 0.098860 0.269852 0.107998
Si Si5 0.305622 0.677699 0.647794
Si Si6 0.438181 0.323625 0.633795
O O1 0.542938 0.905307 0.704014
O O2 0.643561 0.796737 0.765152
O O3 0.559271 0.814127 0.467762
O O4 0.607381 0.056884 0.624965
O O5 0.455263 0.743704 0.578360
O O6 0.652722 0.321607 0.632948
O O7 0.704368 0.591118 0.719870
O O8 0.676153 0.447433 0.435178
O O9 0.603073 0.561010 0.500087
O O10 0.085578 0.221437 0.248404
O O11 0.250000 0.750000 0.500000
O O12 0.500000 0.387435 0.750000
#
# Coordination Sequence:
#
# PCOD9304983 Si02
#       6
#     8   4   8   8   8   8
#     4  11  25  41  68 101 138 181 226 280 335 406
#     4  12  22  38  68 102 144 182 220 274 340 406
#     4  11  25  47  70 101 133 178 229 283 341 407
#     4  12  24  40  66 102 143 179 227 274 339 404
#     4  11  26  51  72  98 135 176 234 285 342 400
#     4  11  24  40  65 101 142 182 220 274 340 410
#
# _framework density 21.738167000000001
#
# number of rings (size 3 to 8) (size 9 to 14) (size 15 to 20)
#    0.000    0.727    5.455    1.636    3.818    2.182 
#    3.273    1.818    0.000    0.000    0.000    0.000 
#    0.000    0.000    0.000    0.000    0.000    0.000 
#
# Total GULP energy -122927.849291 kJ/mol
# GULP energy per Si atom -5587.629513 kJ/mol
# Density = 2.168869 g / cm^3
# Si number density = 21.738167 Si / 1000 Ang^3
#
#
#
# Elastic Constant Matrix: (Units=GPa)
#
#
# Indices 1 2 3 4 5 6 
#
# 1 19.7407 6.2917 11.5528 0.0000 6.5234 0.0000
# 2 6.2917 105.7853 31.8764 0.0000 7.8560 0.0000
# 3 11.5528 31.8764 102.4498 0.0000 7.1467 0.0000
# 4 0.0000 0.0000 0.0000 32.3578 0.0000 -0.7654
# 5 6.5234 7.8560 7.1467 0.0000 42.2380 0.0000
# 6 0.0000 0.0000 0.0000 -0.7654 0.0000 23.3022
#
#
#
# Elastic Compliance Matrix: (Units=1/GPa)
#
#
# Indices 1 2 3 4 5 6 
#
# 1 0.056767 -0.001149 -0.005512 0.000000 -0.007621 0.000000
# 2 -0.001149 0.010538 -0.003061 0.000000 -0.001265 0.000000
# 3 -0.005512 -0.003061 0.011370 0.000000 -0.000503 0.000000
# 4 0.000000 0.000000 0.000000 0.030929 0.000000 0.001016
# 5 -0.007621 -0.001265 -0.000503 0.000000 0.025173 0.000000
# 6 0.000000 0.000000 0.000000 0.001016 0.000000 0.042948
#
#
# Mechanical properties :
#
#
# Convention : Reuss Voigt Hill
#
# Bulk Modulus (GPa) = 16.88327 36.37971 26.63149
# Shear Modulus (GPa) = 23.05080 31.46326 27.25703
#
# Velocity S-wave (km/s) = 3.25989 3.80856 3.54486
# Velocity P-wave (km/s) = 4.68537 6.00932 5.38816
#
# Compressibility (1/GPa) = 0.05923022
#
# Stress axis : x y z
#
# Youngs Moduli (GPa) = 17.61575 94.89717 87.95122
#
# Poissons Ratio (x) = 0.10907 0.48480
# Poissons Ratio (y) = 0.02025 0.26921
# Poissons Ratio (z) = 0.09710 0.29047
#
# Static dielectric constant tensor:
#      x y z
#    x 1.773910 0.000000 -0.006450 
#    y 0.000000 1.827620 0.000000 
#    z -0.006450 0.000000 1.826570 
# 
# From -- ./inp_files/68523.got.cif
#   From: 2010.05.17/outbox.cif.g08.bks.cpg/sg15_35_cif.got.tgz:68523.got - 2010.06.03 18:47:42.
