data_PCOD9304313
_publ_section_title
;
Structure prediction by ZEFSAII (Michael W. Deem and Ramdas Pophale) SiO2 
 PCOD9304313
Probable space group: C 2/C
;
_chemical_formula_sum "Si O2"
_cell_formula_units_Z 48
_cell_length_a 14.142347
_cell_length_b 11.751273
_cell_length_c 13.463585
_cell_angle_alpha 90.000000
_cell_angle_beta 58.468612
_cell_angle_gamma 90.000000
_cell_volume 1907.159530
_symmetry_space_group_name_H-M "C 2/C"
_symmetry_group_IT_number 15
_symmetry_cell_setting 'monoclinic'
loop_
_space_group_symop_operation_xyz
x,y,z
-x,y,1/2-z
-x,-y,-z
x,-y,1/2+z
1/2+x,1/2+y,z
1/2-x,1/2+y,1/2-z
1/2-x,1/2-y,-z
1/2+x,1/2-y,1/2+z
loop_
_atom_site_type_symbol
_atom_site_label
_atom_site_fract_x
_atom_site_fract_y
_atom_site_fract_z
Si Si1 0.959230 0.419040 0.880481
Si Si2 0.319221 0.358210 0.732767
Si Si3 0.519482 0.167130 0.912186
Si Si4 0.728398 0.531996 0.440873
Si Si5 0.477411 0.427211 0.154096
Si Si6 0.331350 0.292986 0.071298
O O1 0.006477 0.547017 0.866847
O O2 0.824871 0.420615 0.956738
O O3 0.000000 0.378383 0.750000
O O4 0.991531 0.355085 0.963502
O O5 0.371612 0.238220 0.670604
O O6 0.254225 0.411541 0.675927
O O7 0.411237 0.453616 0.706169
O O8 0.235591 0.319433 0.863002
O O9 0.420904 0.254233 0.941387
O O10 0.599386 0.555182 0.539058
O O11 0.741931 0.397001 0.425785
O O12 0.500000 0.377419 0.250000
O O13 0.399481 0.352107 0.125452
#
# Coordination Sequence:
#
# PCOD9304313 Si02
#       6
#     8   8   8   8   8   8
#     4  11  26  43  66 101 137 174 223 277 340 399
#     4  11  23  43  69  94 131 177 223 273 335 398
#     4  11  24  45  66  96 138 173 224 279 332 402
#     4  11  23  46  66  95 137 169 221 283 326 398
#     4  11  25  43  66 101 135 172 226 280 330 395
#     4  11  23  43  69  94 131 177 223 273 335 398
#
# _framework density 25.168320000000001
#
# number of rings (size 3 to 8) (size 9 to 14) (size 15 to 20)
#    0.000    1.000    3.333    3.000    4.667    8.000 
#    0.000    0.000    0.000    0.000    0.000    0.000 
#    0.000    0.000    0.000    0.000    0.000    0.000 
#
# Total GULP energy -134406.420437 kJ/mol
# GULP energy per Si atom -5600.267518 kJ/mol
# Density = 2.511104 g / cm^3
# Si number density = 25.168320 Si / 1000 Ang^3
#
#
#
# Elastic Constant Matrix: (Units=GPa)
#
#
# Indices 1 2 3 4 5 6 
#
# 1 110.5231 37.7845 27.3659 0.0000 -3.1249 0.0000
# 2 37.7845 96.4421 12.0966 0.0000 -4.0674 0.0000
# 3 27.3659 12.0966 71.7870 0.0000 4.0680 0.0000
# 4 0.0000 0.0000 0.0000 7.1277 0.0000 -18.6168
# 5 -3.1249 -4.0674 4.0680 0.0000 40.6278 0.0000
# 6 0.0000 0.0000 0.0000 -18.6168 0.0000 17.8424
#
#
#
# Elastic Compliance Matrix: (Units=1/GPa)
#
#
# Indices 1 2 3 4 5 6 
#
# 1 0.011337 -0.003941 -0.003706 0.000000 0.000848 0.000000
# 2 -0.003941 0.012026 -0.000578 0.000000 0.000959 0.000000
# 3 -0.003706 -0.000578 0.015548 0.000000 -0.001900 0.000000
# 4 0.000000 0.000000 0.000000 -0.081320 0.000000 -0.084850
# 5 0.000848 0.000959 -0.001900 0.000000 0.024965 0.000000
# 6 0.000000 0.000000 0.000000 -0.084850 0.000000 -0.032486
#
#
# Mechanical properties :
#
#
# Convention : Reuss Voigt Hill
#
# Bulk Modulus (GPa) = 44.52292 48.13845 46.33068
# Shear Modulus (GPa) = -192.35221 26.55327 -82.89947
#
# Velocity S-wave (km/s) = -8.75170 3.25164 -5.74539
# Velocity P-wave (km/s) = 9.18665 5.76764 5.05613
#
# Compressibility (1/GPa) = 0.02246034
#
# Stress axis : x y z
#
# Youngs Moduli (GPa) = 88.20912 83.15377 64.31755
#
# Poissons Ratio (x) = 0.32771 0.23834
# Poissons Ratio (y) = 0.34763 0.03720
# Poissons Ratio (z) = 0.32687 0.04810
#
# Static dielectric constant tensor:
#      x y z
#    x 1.954320 0.000000 0.005120 
#    y 0.000000 1.945740 0.000000 
#    z 0.005120 0.000000 1.975460 
# 
# From -- ./inp_files/152434.got.cif
#   From: 2010.05.17/outbox.cif.g08.bks.cpg/sg15_77_cif.got.tgz:152434.got - 2010.06.03 18:47:42.
