data_PCOD9304522
_publ_section_title
;
Structure prediction by ZEFSAII (Michael W. Deem and Ramdas Pophale) SiO2 
 PCOD9304522
Probable space group: C 2/C
;
_chemical_formula_sum "Si O2"
_cell_formula_units_Z 48
_cell_length_a 14.629311
_cell_length_b 15.127935
_cell_length_c 31.366494
_cell_angle_alpha 90.000000
_cell_angle_beta 159.640574
_cell_angle_gamma 90.000000
_cell_volume 2415.094868
_symmetry_space_group_name_H-M "C 2/C"
_symmetry_group_IT_number 15
_symmetry_cell_setting 'monoclinic'
loop_
_space_group_symop_operation_xyz
x,y,z
-x,y,1/2-z
-x,-y,-z
x,-y,1/2+z
1/2+x,1/2+y,z
1/2-x,1/2+y,1/2-z
1/2-x,1/2-y,-z
1/2+x,1/2-y,1/2+z
loop_
_atom_site_type_symbol
_atom_site_label
_atom_site_fract_x
_atom_site_fract_y
_atom_site_fract_z
Si Si1 0.832286 0.832982 0.005748
Si Si2 0.391173 0.753733 0.248667
Si Si3 0.212475 0.918915 0.605206
Si Si4 0.594316 0.554448 0.242901
Si Si5 0.685740 0.670319 0.505496
Si Si6 0.818542 0.503093 0.507214
O O1 0.737017 0.861064 0.916216
O O2 0.773743 0.916079 0.009281
O O3 0.750000 0.750000 0.000000
O O4 0.135976 0.812041 0.132774
O O5 0.500000 0.736040 0.250000
O O6 0.348993 0.654880 0.248882
O O7 0.603734 0.808509 0.366658
O O8 0.500000 0.948899 0.750000
O O9 0.077575 0.855309 0.582548
O O10 0.000000 0.000000 0.500000
O O11 0.500000 0.555178 0.250000
O O12 0.869004 0.502901 0.361970
O O13 0.357858 0.514802 0.111862
O O14 0.750000 0.750000 0.500000
O O15 0.751835 0.583979 0.508144
#
# Coordination Sequence:
#
# PCOD9304522 Si02
#       6
#     8   8   8   8   8   8
#     4  12  26  46  75 105 151 192 252 309 373 448
#     4  11  23  44  72 101 136 196 235 297 373 442
#     4  12  30  50  78 115 154 199 256 317 384 456
#     4  11  25  46  70  99 144 186 249 293 373 440
#     4  12  26  46  75 105 151 192 252 309 373 448
#     4  12  25  45  72 104 138 194 240 308 362 452
#
# _framework density 19.874995999999999
#
# number of rings (size 3 to 8) (size 9 to 14) (size 15 to 20)
#    0.000    0.333    6.667    1.500    7.000    0.000 
#    3.000    0.000    0.000    0.000    0.000    0.000 
#    0.000    0.000    0.000    0.000    0.000    0.000 
#
# Total GULP energy -133697.014267 kJ/mol
# GULP energy per Si atom -5570.708928 kJ/mol
# Density = 1.982976 g / cm^3
# Si number density = 19.874996 Si / 1000 Ang^3
#
#
#
# Elastic Constant Matrix: (Units=GPa)
#
#
# Indices 1 2 3 4 5 6 
#
# 1 88.5551 40.3197 25.0892 0.0097 -24.0481 -0.0101
# 2 40.3197 114.1270 16.5463 -0.0006 -19.1885 -0.0116
# 3 25.0892 16.5463 133.6478 -0.0021 -15.2656 -0.0130
# 4 0.0097 -0.0006 -0.0021 32.0047 -0.0116 -0.4854
# 5 -24.0481 -19.1885 -15.2656 -0.0116 15.8437 -0.0025
# 6 -0.0101 -0.0116 -0.0130 -0.4854 -0.0025 27.3932
#
#
#
# Elastic Compliance Matrix: (Units=1/GPa)
#
#
# Indices 1 2 3 4 5 6 
#
# 1 0.019749 -0.002440 -0.000358 0.000004 0.026675 0.000009
# 2 -0.002440 0.011308 0.000224 0.000005 0.010207 0.000005
# 3 -0.000358 0.000224 0.008417 0.000004 0.007837 0.000005
# 4 0.000004 0.000005 0.000004 0.031254 0.000038 0.000554
# 5 0.026675 0.010207 0.007837 0.000038 0.123518 0.000030
# 6 0.000009 0.000005 0.000005 0.000554 0.000030 0.036515
#
#
# Mechanical properties :
#
#
# Convention : Reuss Voigt Hill
#
# Bulk Modulus (GPa) = 29.13350 55.58224 42.35787
# Shear Modulus (GPa) = 20.21415 32.00662 26.11038
#
# Velocity S-wave (km/s) = 3.19260 4.01733 3.62847
# Velocity P-wave (km/s) = 5.31794 7.03883 6.23802
#
# Compressibility (1/GPa) = 0.03432475
#
# Stress axis : x y z
#
# Youngs Moduli (GPa) = 50.63606 88.43332 118.80578
#
# Poissons Ratio (x) = 0.21579 0.04258
# Poissons Ratio (y) = 0.12356 -0.02661
# Poissons Ratio (z) = 0.01815 -0.01981
#
# Static dielectric constant tensor:
#      x y z
#    x 1.727240 0.000000 0.005100 
#    y 0.000000 1.710560 -0.000010 
#    z 0.005100 -0.000010 1.738710 
# 
# From -- ./inp_files/314128.got.cif
#   From: 2010.05.17/outbox.cif.g08.bks.cpg/sg15_158_cif.got.tgz:314128.got - 2010.06.03 18:47:42.
