data_PCOD9304614
_publ_section_title
;
Structure prediction by ZEFSAII (Michael W. Deem and Ramdas Pophale) SiO2 
 PCOD9304614
Probable space group: C 2/C
;
_chemical_formula_sum "Si O2"
_cell_formula_units_Z 52
_cell_length_a 19.408748
_cell_length_b 8.186793
_cell_length_c 14.886428
_cell_angle_alpha 90.000000
_cell_angle_beta 78.524480
_cell_angle_gamma 90.000000
_cell_volume 2318.100438
_symmetry_space_group_name_H-M "C 2/C"
_symmetry_group_IT_number 15
_symmetry_cell_setting 'monoclinic'
loop_
_space_group_symop_operation_xyz
x,y,z
-x,y,1/2-z
-x,-y,-z
x,-y,1/2+z
1/2+x,1/2+y,z
1/2-x,1/2+y,1/2-z
1/2-x,1/2-y,-z
1/2+x,1/2-y,1/2+z
loop_
_atom_site_type_symbol
_atom_site_label
_atom_site_fract_x
_atom_site_fract_y
_atom_site_fract_z
Si Si1 0.868503 0.046810 0.712958
Si Si2 0.814615 0.847702 0.897159
Si Si3 0.452718 0.284488 0.937550
Si Si4 0.983462 0.149931 0.901215
Si Si5 0.000000 0.606681 0.750000
Si Si6 0.624636 0.858207 0.688202
Si Si7 0.235982 0.972885 0.415298
O O1 0.950533 0.079523 0.671992
O O2 0.846525 0.229722 0.746740
O O3 0.827260 0.984930 0.636116
O O4 0.850824 0.927486 0.800751
O O5 0.872383 0.742523 0.938132
O O6 0.755081 0.717067 0.890589
O O7 0.785570 0.980292 0.974893
O O8 0.449050 0.481643 0.942342
O O9 0.494365 0.214064 0.841753
O O10 0.486115 0.243095 0.024407
O O11 0.926875 0.253764 0.862552
O O12 0.070572 0.496128 0.738196
O O13 0.693358 0.929653 0.623938
#
# Coordination Sequence:
#
# PCOD9304614 Si02
#       7
#     8   8   8   8   4   8   8
#     4  12  23  45  71  99 138 185 234 289 358 426
#     4  11  23  45  71  93 138 191 226 295 351 441
#     4  11  23  45  70 100 135 189 234 291 360 431
#     4  11  24  44  74 100 138 182 241 294 357 428
#     4  12  24  42  70 106 140 182 242 300 364 418
#     4  12  25  44  68 107 143 184 237 309 349 425
#     4  11  26  46  65 102 142 183 241 287 367 425
#
# _framework density 22.432158000000001
#
# number of rings (size 3 to 8) (size 9 to 14) (size 15 to 20)
#    0.000    0.615    6.154    1.846    0.000    1.231 
#    8.308    0.000    0.000    0.000    0.000    0.000 
#    0.000    0.000    0.000    0.000    0.000    0.000 
#
# Total GULP energy -145253.690799 kJ/mol
# GULP energy per Si atom -5586.680415 kJ/mol
# Density = 2.238110 g / cm^3
# Si number density = 22.432158 Si / 1000 Ang^3
#
#
#
# Elastic Constant Matrix: (Units=GPa)
#
#
# Indices 1 2 3 4 5 6 
#
# 1 115.6843 14.7756 49.7908 0.0000 4.1632 0.0000
# 2 14.7756 45.7810 13.6329 0.0000 2.0860 0.0000
# 3 49.7908 13.6329 99.1941 0.0000 0.7269 0.0000
# 4 0.0000 0.0000 0.0000 20.6134 0.0000 0.4446
# 5 4.1632 2.0860 0.7269 0.0000 44.5379 0.0000
# 6 0.0000 0.0000 0.0000 0.4446 0.0000 31.2533
#
#
#
# Elastic Compliance Matrix: (Units=1/GPa)
#
#
# Indices 1 2 3 4 5 6 
#
# 1 0.011237 -0.001991 -0.005360 0.000000 -0.000870 0.000000
# 2 -0.001991 0.023174 -0.002179 0.000000 -0.000864 0.000000
# 3 -0.005360 -0.002179 0.013069 0.000000 0.000390 0.000000
# 4 0.000000 0.000000 0.000000 0.048527 0.000000 -0.000690
# 5 -0.000870 -0.000864 0.000390 0.000000 0.022568 0.000000
# 6 0.000000 0.000000 0.000000 -0.000690 0.000000 0.032006
#
#
# Mechanical properties :
#
#
# Convention : Reuss Voigt Hill
#
# Bulk Modulus (GPa) = 35.18852 46.33979 40.76416
# Shear Modulus (GPa) = 27.91501 31.44492 29.67996
#
# Velocity S-wave (km/s) = 3.53146 3.74810 3.64139
# Velocity P-wave (km/s) = 5.68762 6.27961 5.99093
#
# Compressibility (1/GPa) = 0.02841836
#
# Stress axis : x y z
#
# Youngs Moduli (GPa) = 88.99226 43.15188 76.51929
#
# Poissons Ratio (x) = 0.08591 0.41018
# Poissons Ratio (y) = 0.17716 0.16676
# Poissons Ratio (z) = 0.47704 0.09404
#
# Static dielectric constant tensor:
#      x y z
#    x 1.881420 0.000000 0.001800 
#    y 0.000000 1.873540 0.000000 
#    z 0.001800 0.000000 1.892470 
# 
# From -- ./inp_files/166230.got.cif
#   From: 2010.05.17/outbox.cif.g08.bks.cpg/sg15_84_cif.got.tgz:166230.got - 2010.06.03 18:47:42.
