data_PCOD9304397
_publ_section_title
;
Structure prediction by ZEFSAII (Michael W. Deem and Ramdas Pophale) SiO2 
 PCOD9304397
Probable space group: C 2/C
;
_chemical_formula_sum "Si O2"
_cell_formula_units_Z 48
_cell_length_a 19.104619
_cell_length_b 18.018381
_cell_length_c 16.241502
_cell_angle_alpha 90.000000
_cell_angle_beta 159.487834
_cell_angle_gamma 90.000000
_cell_volume 1959.080118
_symmetry_space_group_name_H-M "C 2/C"
_symmetry_group_IT_number 15
_symmetry_cell_setting 'monoclinic'
loop_
_space_group_symop_operation_xyz
x,y,z
-x,y,1/2-z
-x,-y,-z
x,-y,1/2+z
1/2+x,1/2+y,z
1/2-x,1/2+y,1/2-z
1/2-x,1/2-y,-z
1/2+x,1/2-y,1/2+z
loop_
_atom_site_type_symbol
_atom_site_label
_atom_site_fract_x
_atom_site_fract_y
_atom_site_fract_z
Si Si1 0.468321 0.438033 0.812865
Si Si2 0.393544 0.155583 0.310342
Si Si3 0.067346 0.819225 0.183324
Si Si4 0.317882 0.801114 0.000127
Si Si5 0.154193 0.558760 0.486190
Si Si6 0.241176 0.832616 0.189837
O O1 0.500000 0.450074 0.750000
O O2 0.338383 0.364852 0.689152
O O3 0.336770 0.503782 0.705882
O O4 0.677511 0.411037 0.080476
O O5 0.432070 0.231291 0.300508
O O6 0.505052 0.086245 0.392667
O O7 0.520593 0.167660 0.533682
O O8 0.157167 0.150169 0.059107
O O9 0.223554 0.867390 0.408272
O O10 0.145412 0.827196 0.175261
O O11 0.500000 0.839710 0.250000
O O12 0.250000 0.750000 0.000000
O O13 0.323837 0.738886 0.935240
O O14 0.000000 0.527472 0.250000
#
# Coordination Sequence:
#
# PCOD9304397 Si02
#       6
#     8   8   8   8   8   8
#     4  12  26  46  68 106 153 195 244 298 361 438
#     4  11  24  46  73 112 137 188 242 308 369 434
#     4  11  24  46  77 108 145 182 248 306 369 438
#     4  12  22  39  67 108 141 194 241 287 353 434
#     4  11  28  50  72 103 146 194 244 309 377 429
#     4  11  23  43  74 106 148 187 238 297 361 439
#
# _framework density 24.501297000000001
#
# number of rings (size 3 to 8) (size 9 to 14) (size 15 to 20)
#    0.000    0.667    6.667    1.500    2.333    3.333 
#    3.000    1.667    0.000    0.000    0.000    0.000 
#    0.000    0.000    0.000    0.000    0.000    0.000 
#
# Total GULP energy -134033.336645 kJ/mol
# GULP energy per Si atom -5584.722360 kJ/mol
# Density = 2.444553 g / cm^3
# Si number density = 24.501297 Si / 1000 Ang^3
#
#
#
# Elastic Constant Matrix: (Units=GPa)
#
#
# Indices 1 2 3 4 5 6 
#
# 1 77.5278 21.2447 4.4858 -0.0002 22.8599 -0.0001
# 2 21.2447 83.6777 4.7547 -0.0002 5.5244 -0.0002
# 3 4.4858 4.7547 113.5139 -0.0003 23.9601 -0.0003
# 4 -0.0002 -0.0002 -0.0003 41.3992 -0.0002 16.9313
# 5 22.8599 5.5244 23.9601 -0.0002 30.9886 -0.0001
# 6 -0.0001 -0.0002 -0.0003 16.9313 -0.0001 19.1137
#
#
#
# Elastic Compliance Matrix: (Units=1/GPa)
#
#
# Indices 1 2 3 4 5 6 
#
# 1 0.018103 -0.003773 0.002533 0.000000 -0.014640 0.000000
# 2 -0.003773 0.012880 -0.000589 0.000000 0.000943 0.000000
# 3 0.002533 -0.000589 0.010882 0.000000 -0.010177 0.000000
# 4 0.000000 0.000000 0.000000 0.037877 0.000000 -0.033552
# 5 -0.014640 0.000943 -0.010177 0.000000 0.050770 0.000000
# 6 0.000000 0.000000 0.000000 -0.033552 0.000000 0.082040
#
#
# Mechanical properties :
#
#
# Convention : Reuss Voigt Hill
#
# Bulk Modulus (GPa) = 26.17483 37.29888 31.73686
# Shear Modulus (GPa) = 21.83906 34.58258 28.21082
#
# Velocity S-wave (km/s) = 2.98878 3.76102 3.39691
# Velocity P-wave (km/s) = 4.75569 5.84094 5.32603
#
# Compressibility (1/GPa) = 0.03820464
#
# Stress axis : x y z
#
# Youngs Moduli (GPa) = 55.24009 77.64057 91.89226
#
# Poissons Ratio (x) = 0.29297 -0.23274
# Poissons Ratio (y) = 0.20845 0.05417
# Poissons Ratio (z) = -0.13991 0.04577
#
# Static dielectric constant tensor:
#      x y z
#    x 1.903430 0.000000 0.074910 
#    y 0.000000 1.960660 0.000000 
#    z 0.074910 0.000000 1.770890 
# 
# From -- ./inp_files/216288.got.cif
#   From: 2010.05.17/outbox.cif.g08.bks.cpg/sg15_109_cif.got.tgz:216288.got - 2010.06.03 18:47:42.
