data_PCOD9304910
_publ_section_title
;
Structure prediction by ZEFSAII (Michael W. Deem and Ramdas Pophale) SiO2 
 PCOD9304910
Probable space group: C 2/C
;
_chemical_formula_sum "Si O2"
_cell_formula_units_Z 36
_cell_length_a 22.936277
_cell_length_b 5.504705
_cell_length_c 16.458511
_cell_angle_alpha 90.000000
_cell_angle_beta 136.610090
_cell_angle_gamma 90.000000
_cell_volume 1427.508427
_symmetry_space_group_name_H-M "C 2/C"
_symmetry_group_IT_number 15
_symmetry_cell_setting 'monoclinic'
loop_
_space_group_symop_operation_xyz
x,y,z
-x,y,1/2-z
-x,-y,-z
x,-y,1/2+z
1/2+x,1/2+y,z
1/2-x,1/2+y,1/2-z
1/2-x,1/2-y,-z
1/2+x,1/2-y,1/2+z
loop_
_atom_site_type_symbol
_atom_site_label
_atom_site_fract_x
_atom_site_fract_y
_atom_site_fract_z
Si Si1 0.500000 0.287888 0.250000
Si Si2 0.875688 0.185083 0.174457
Si Si3 0.294950 0.063529 0.985601
Si Si4 0.951397 0.475186 0.865352
Si Si5 0.762265 0.313323 0.718853
O O1 0.418619 0.465718 0.171000
O O2 0.503899 0.158237 0.165603
O O3 0.931379 0.259311 0.307838
O O4 0.780931 0.128701 0.108097
O O5 0.866678 0.414175 0.104550
O O6 0.305994 0.211325 0.914975
O O7 0.250000 0.250000 0.000000
O O8 0.858206 0.352500 0.782598
O O9 0.000000 0.500000 0.000000
O O10 0.733554 0.579989 0.717832
#
# Coordination Sequence:
#
# PCOD9304910 Si02
#       5
#     4   8   8   8   8
#     4  12  26  52  84 116 162 224 278 340 442 498
#     4  11  24  47  81 115 152 215 276 342 418 500
#     4  11  23  48  81 105 157 203 277 341 405 487
#     4  12  29  56  77 123 173 216 278 349 426 510
#     4  12  28  52  83 124 167 219 283 347 418 496
#
# _framework density 25.218767
#
# number of rings (size 3 to 8) (size 9 to 14) (size 15 to 20)
#    0.000    0.444    4.444    2.000    3.111    6.222 
#    8.000    0.000    0.000    0.000    0.000    0.000 
#    0.000    0.000    0.000    0.000    0.000    0.000 
#
# Total GULP energy -100688.791331 kJ/mol
# GULP energy per Si atom -5593.821741 kJ/mol
# Density = 2.516137 g / cm^3
# Si number density = 25.218767 Si / 1000 Ang^3
#
#
#
# Elastic Constant Matrix: (Units=GPa)
#
#
# Indices 1 2 3 4 5 6 
#
# 1 138.8392 64.9245 48.3193 0.0001 -7.6176 0.0000
# 2 64.9245 111.3269 30.6820 0.0006 -22.1424 0.0001
# 3 48.3193 30.6820 166.8316 0.0002 -22.3879 0.0001
# 4 0.0001 0.0006 0.0002 51.0043 0.0000 0.8079
# 5 -7.6176 -22.1424 -22.3879 0.0000 38.7401 0.0000
# 6 0.0000 0.0001 0.0001 0.8079 0.0000 64.1494
#
#
#
# Elastic Compliance Matrix: (Units=1/GPa)
#
#
# Indices 1 2 3 4 5 6 
#
# 1 0.010758 -0.006177 -0.002352 0.000000 -0.002775 0.000000
# 2 -0.006177 0.013900 0.000147 0.000000 0.006815 0.000000
# 3 -0.002352 0.000147 0.007152 0.000000 0.003755 0.000000
# 4 0.000000 0.000000 0.000000 0.019610 0.000000 -0.000247
# 5 -0.002775 0.006815 0.003755 0.000000 0.031333 0.000000
# 6 0.000000 0.000000 0.000000 -0.000247 0.000000 0.015592
#
#
# Mechanical properties :
#
#
# Convention : Reuss Voigt Hill
#
# Bulk Modulus (GPa) = 66.46415 78.31660 72.39037
# Shear Modulus (GPa) = 41.62392 48.98355 45.30374
#
# Velocity S-wave (km/s) = 4.06706 4.41199 4.24303
# Velocity P-wave (km/s) = 6.96182 7.55490 7.26441
#
# Compressibility (1/GPa) = 0.01504571
#
# Stress axis : x y z
#
# Youngs Moduli (GPa) = 92.95805 71.94252 139.81990
#
# Poissons Ratio (x) = 0.44441 0.32885
# Poissons Ratio (y) = 0.57423 -0.02060
# Poissons Ratio (z) = 0.21863 -0.01060
#
# Static dielectric constant tensor:
#      x y z
#    x 2.043410 0.000000 0.014350 
#    y 0.000000 2.051470 0.000000 
#    z 0.014350 0.000000 2.071800 
# 
# From -- ./inp_files/221058.got.cif
#   From: 2010.05.17/outbox.cif.g08.bks.cpg/sg15_111_cif.got.tgz:221058.got - 2010.06.03 18:47:42.
