data_PCOD9304772
_publ_section_title
;
Structure prediction by ZEFSAII (Michael W. Deem and Ramdas Pophale) SiO2 
 PCOD9304772
Probable space group: C 2/C
;
_chemical_formula_sum "Si O2"
_cell_formula_units_Z 56
_cell_length_a 11.875341
_cell_length_b 13.358031
_cell_length_c 19.086294
_cell_angle_alpha 90.000000
_cell_angle_beta 62.358639
_cell_angle_gamma 90.000000
_cell_volume 2682.128627
_symmetry_space_group_name_H-M "C 2/C"
_symmetry_group_IT_number 15
_symmetry_cell_setting 'monoclinic'
loop_
_space_group_symop_operation_xyz
x,y,z
-x,y,1/2-z
-x,-y,-z
x,-y,1/2+z
1/2+x,1/2+y,z
1/2-x,1/2+y,1/2-z
1/2-x,1/2-y,-z
1/2+x,1/2-y,1/2+z
loop_
_atom_site_type_symbol
_atom_site_label
_atom_site_fract_x
_atom_site_fract_y
_atom_site_fract_z
Si Si1 0.426312 0.469828 0.429365
Si Si2 0.775029 0.421982 0.412262
Si Si3 0.571939 0.268547 0.430818
Si Si4 0.199790 0.934305 0.184077
Si Si5 0.619847 0.776632 0.760775
Si Si6 0.512831 0.906206 0.443393
Si Si7 0.687476 0.560954 0.320000
O O1 0.317760 0.515013 0.509650
O O2 0.481375 0.364206 0.441321
O O3 0.369305 0.452923 0.369153
O O4 0.545368 0.545991 0.389948
O O5 0.704799 0.316602 0.418346
O O6 0.909083 0.412992 0.411630
O O7 0.772840 0.482908 0.340114
O O8 0.593775 0.211921 0.350749
O O9 0.514488 0.193438 0.503805
O O10 0.137806 0.840645 0.241565
O O11 0.345984 0.909970 0.127358
O O12 0.186575 0.026985 0.239831
O O13 0.500000 0.812436 0.750000
O O14 0.744972 0.832844 0.697559
O O15 0.500000 0.000000 0.500000
#
# Coordination Sequence:
#
# PCOD9304772 Si02
#       7
#     8   8   8   8   8   8   8
#     4  11  23  46  73  95 135 183 228 279 338 415
#     4  11  25  46  69  97 139 183 225 282 344 410
#     4  11  24  47  67  99 138 177 226 282 342 409
#     4  12  24  46  69 101 139 178 230 279 343 411
#     4  12  25  43  71 101 136 176 226 289 341 408
#     4  12  27  43  67 102 137 180 227 283 342 406
#     4  11  25  43  71 101 132 176 229 281 344 408
#
# _framework density 20.878938999999999
#
# number of rings (size 3 to 8) (size 9 to 14) (size 15 to 20)
#    0.000    0.571    5.714    3.429    8.000    0.571 
#    0.000    0.000    0.000    0.000    0.000    0.000 
#    0.000    0.000    0.000    0.000    0.000    0.000 
#
# Total GULP energy -156714.056030 kJ/mol
# GULP energy per Si atom -5596.930572 kJ/mol
# Density = 2.083142 g / cm^3
# Si number density = 20.878939 Si / 1000 Ang^3
#
#
#
# Elastic Constant Matrix: (Units=GPa)
#
#
# Indices 1 2 3 4 5 6 
#
# 1 151.9344 12.2029 27.9521 0.0000 9.5670 0.0000
# 2 12.2029 43.6724 -9.4671 0.0000 -3.7172 0.0000
# 3 27.9521 -9.4671 42.9518 0.0000 4.3073 0.0000
# 4 0.0000 0.0000 0.0000 33.5871 0.0000 -7.9403
# 5 9.5670 -3.7172 4.3073 0.0000 40.4122 0.0000
# 6 0.0000 0.0000 0.0000 -7.9403 0.0000 16.2807
#
#
#
# Elastic Compliance Matrix: (Units=1/GPa)
#
#
# Indices 1 2 3 4 5 6 
#
# 1 0.008062 -0.003668 -0.005893 0.000000 -0.001618 0.000000
# 2 -0.003668 0.025827 0.007838 0.000000 0.002409 0.000000
# 3 -0.005893 0.007838 0.028942 0.000000 -0.000969 0.000000
# 4 0.000000 0.000000 0.000000 0.033654 0.000000 0.016413
# 5 -0.001618 0.002409 -0.000969 0.000000 0.025453 0.000000
# 6 0.000000 0.000000 0.000000 0.016413 0.000000 0.069427
#
#
# Mechanical properties :
#
#
# Convention : Reuss Voigt Hill
#
# Bulk Modulus (GPa) = 16.83928 33.32604 25.08266
# Shear Modulus (GPa) = 23.29854 31.91406 27.60630
#
# Velocity S-wave (km/s) = 3.34411 3.91388 3.64016
# Velocity P-wave (km/s) = 4.79515 6.03497 5.45043
#
# Compressibility (1/GPa) = 0.05938498
#
# Stress axis : x y z
#
# Youngs Moduli (GPa) = 124.03179 38.71952 34.55211
#
# Poissons Ratio (x) = 0.14202 0.20362
# Poissons Ratio (y) = 0.45495 -0.27082
# Poissons Ratio (z) = 0.73093 -0.30349
#
# Static dielectric constant tensor:
#      x y z
#    x 1.738850 0.000000 0.005230 
#    y 0.000000 1.730590 0.000000 
#    z 0.005230 0.000000 1.735400 
# 
# From -- ./inp_files/198218.got.cif
#   From: 2010.05.17/outbox.cif.g08.bks.cpg/sg15_100_cif.got.tgz:198218.got - 2010.06.03 18:47:42.
