data_PCOD9304050
_publ_section_title
;
Structure prediction by ZEFSAII (Michael W. Deem and Ramdas Pophale) SiO2 
 PCOD9304050
Probable space group: C 2/C
;
_chemical_formula_sum "Si O2"
_cell_formula_units_Z 40
_cell_length_a 4.882750
_cell_length_b 15.967071
_cell_length_c 22.500158
_cell_angle_alpha 90.000000
_cell_angle_beta 85.105091
_cell_angle_gamma 90.000000
_cell_volume 1747.786958
_symmetry_space_group_name_H-M "C 2/C"
_symmetry_group_IT_number 15
_symmetry_cell_setting 'monoclinic'
loop_
_space_group_symop_operation_xyz
x,y,z
-x,y,1/2-z
-x,-y,-z
x,-y,1/2+z
1/2+x,1/2+y,z
1/2-x,1/2+y,1/2-z
1/2-x,1/2-y,-z
1/2+x,1/2-y,1/2+z
loop_
_atom_site_type_symbol
_atom_site_label
_atom_site_fract_x
_atom_site_fract_y
_atom_site_fract_z
Si Si1 0.646419 0.387267 0.412807
Si Si2 0.445755 0.062838 0.392874
Si Si3 0.256792 0.706950 0.708409
Si Si4 0.464545 0.389605 0.818392
Si Si5 0.609104 0.162908 0.986113
O O1 0.795589 0.476415 0.410303
O O2 0.641908 0.351329 0.346543
O O3 0.346657 0.388378 0.447249
O O4 0.845906 0.328642 0.448790
O O5 0.741254 0.054980 0.356875
O O6 0.473716 0.115642 0.452351
O O7 0.246845 0.108883 0.349350
O O8 0.500000 0.723808 0.750000
O O9 0.149934 0.794995 0.683852
O O10 0.000000 0.669631 0.750000
O O11 0.500000 0.419083 0.750000
O O12 0.750000 0.250000 0.000000
#
# Coordination Sequence:
#
# PCOD9304050 Si02
#       5
#     8   8   8   8   8
#     4  12  25  42  64  96 130 165 210 265 321 374
#     4  12  24  41  65  95 130 165 208 265 321 377
#     4  11  23  42  64  90 124 166 212 260 310 376
#     4  11  23  42  65  92 124 167 212 256 310 379
#     4  12  24  43  67  93 127 171 216 260 314 382
#
# _framework density 22.886084
#
# number of rings (size 3 to 8) (size 9 to 14) (size 15 to 20)
#    0.000    0.400    0.000   10.800    0.000    2.400 
#    0.000    0.000    0.000    0.000    0.000    0.000 
#    0.000    0.000    0.000    0.000    0.000    0.000 
#
# Total GULP energy -112170.211357 kJ/mol
# GULP energy per Si atom -5608.510568 kJ/mol
# Density = 2.283399 g / cm^3
# Si number density = 22.886084 Si / 1000 Ang^3
#
#
#
# Elastic Constant Matrix: (Units=GPa)
#
#
# Indices 1 2 3 4 5 6 
#
# 1 100.2404 -23.1362 27.3086 0.0000 -5.3802 0.0000
# 2 -23.1362 52.5009 12.2289 0.0000 -0.6964 0.0000
# 3 27.3086 12.2289 129.3563 0.0000 -16.1993 0.0000
# 4 0.0000 0.0000 0.0000 53.0825 0.0000 -6.4583
# 5 -5.3802 -0.6964 -16.1993 0.0000 60.9735 0.0000
# 6 0.0000 0.0000 0.0000 -6.4583 0.0000 25.3513
#
#
#
# Elastic Compliance Matrix: (Units=1/GPa)
#
#
# Indices 1 2 3 4 5 6 
#
# 1 0.012262 0.006137 -0.003129 0.000000 0.000321 0.000000
# 2 0.006137 0.022552 -0.003442 0.000000 -0.000115 0.000000
# 3 -0.003129 -0.003442 0.008976 0.000000 0.002069 0.000000
# 4 0.000000 0.000000 0.000000 0.019441 0.000000 0.004953
# 5 0.000321 -0.000115 0.002069 0.000000 0.016977 0.000000
# 6 0.000000 0.000000 0.000000 0.004953 0.000000 0.040707
#
#
# Mechanical properties :
#
#
# Convention : Reuss Voigt Hill
#
# Bulk Modulus (GPa) = 23.29836 34.98889 29.14363
# Shear Modulus (GPa) = 36.74035 45.59455 41.16745
#
# Velocity S-wave (km/s) = 4.01104 4.46829 4.24583
# Velocity P-wave (km/s) = 5.62614 6.47629 6.06613
#
# Compressibility (1/GPa) = 0.04292148
#
# Stress axis : x y z
#
# Youngs Moduli (GPa) = 81.55317 44.34243 111.41328
#
# Poissons Ratio (x) = -0.27211 0.34857
# Poissons Ratio (y) = -0.50046 0.38348
# Poissons Ratio (z) = 0.25515 0.15262
#
# Static dielectric constant tensor:
#      x y z
#    x 1.829560 0.000000 -0.007310 
#    y 0.000000 1.856940 0.000000 
#    z -0.007310 0.000000 1.810760 
# 
# From -- ./inp_files/184245.got.cif
#   From: 2010.05.17/outbox.cif.g08.bks.cpg/sg15_93_cif.got.tgz:184245.got - 2010.06.03 18:47:42.
