data_PCOD9304232
_publ_section_title
;
Structure prediction by ZEFSAII (Michael W. Deem and Ramdas Pophale) SiO2 
 PCOD9304232
Probable space group: C 2/C
;
_chemical_formula_sum "Si O2"
_cell_formula_units_Z 52
_cell_length_a 9.919907
_cell_length_b 14.866009
_cell_length_c 18.868353
_cell_angle_alpha 90.000000
_cell_angle_beta 131.374625
_cell_angle_gamma 90.000000
_cell_volume 2088.002688
_symmetry_space_group_name_H-M "C 2/C"
_symmetry_group_IT_number 15
_symmetry_cell_setting 'monoclinic'
loop_
_space_group_symop_operation_xyz
x,y,z
-x,y,1/2-z
-x,-y,-z
x,-y,1/2+z
1/2+x,1/2+y,z
1/2-x,1/2+y,1/2-z
1/2-x,1/2-y,-z
1/2+x,1/2-y,1/2+z
loop_
_atom_site_type_symbol
_atom_site_label
_atom_site_fract_x
_atom_site_fract_y
_atom_site_fract_z
Si Si1 0.200665 0.124937 0.260929
Si Si2 0.710807 0.339049 0.036837
Si Si3 0.757206 0.830959 0.090033
Si Si4 0.000000 0.283504 0.250000
Si Si5 0.700801 0.367757 0.559937
Si Si6 0.500000 0.471003 0.250000
Si Si7 0.500000 0.905538 0.750000
Si Si8 0.107944 0.590618 0.025340
O O1 0.364399 0.127553 0.264820
O O2 0.274192 0.114100 0.366151
O O3 0.090921 0.217121 0.223604
O O4 0.075467 0.036283 0.214227
O O5 0.839468 0.332027 0.151173
O O6 0.782484 0.414132 0.008028
O O7 0.750000 0.250000 0.000000
O O8 0.503699 0.362021 0.983437
O O9 0.803564 0.726700 0.116384
O O10 0.846768 0.903137 0.171932
O O11 0.545737 0.834564 0.029504
O O12 0.800541 0.861819 0.025286
O O13 0.833724 0.440842 0.641367
O O14 0.000000 0.500000 0.000000
#
# Coordination Sequence:
#
# PCOD9304232 Si02
#       8
#     8   8   8   4   8   4   4   8
#     4  11  24  44  69 101 139 190 243 289 361 448
#     4  12  24  45  73 109 143 190 241 305 362 432
#     4  11  23  43  66 102 137 178 230 300 356 432
#     4  11  24  44  76 106 141 186 252 304 361 438
#     4  11  25  43  70 106 139 174 243 299 365 417
#     4  11  25  44  70  98 142 196 234 284 379 445
#     4  12  25  42  68 102 141 184 228 308 350 425
#     4  12  24  47  71  96 143 191 238 295 365 438
#
# _framework density 24.904181999999999
#
# number of rings (size 3 to 8) (size 9 to 14) (size 15 to 20)
#    0.000    0.615    6.154    1.385    4.308    1.231 
#    2.769    1.538    0.000    0.000    0.000    0.000 
#    0.000    0.000    0.000    0.000    0.000    0.000 
#
# Total GULP energy -145186.185144 kJ/mol
# GULP energy per Si atom -5584.084044 kJ/mol
# Density = 2.484750 g / cm^3
# Si number density = 24.904182 Si / 1000 Ang^3
#
#
#
# Elastic Constant Matrix: (Units=GPa)
#
#
# Indices 1 2 3 4 5 6 
#
# 1 220.9078 13.8514 34.0868 0.0000 -2.9630 0.0000
# 2 13.8514 67.1427 12.2527 0.0000 -1.2722 0.0000
# 3 34.0868 12.2527 111.4604 0.0000 1.5555 0.0000
# 4 0.0000 0.0000 0.0000 8.8538 0.0000 -2.3237
# 5 -2.9630 -1.2722 1.5555 0.0000 40.9449 0.0000
# 6 0.0000 0.0000 0.0000 -2.3237 0.0000 19.3669
#
#
#
# Elastic Compliance Matrix: (Units=1/GPa)
#
#
# Indices 1 2 3 4 5 6 
#
# 1 0.004792 -0.000728 -0.001391 0.000000 0.000377 0.000000
# 2 -0.000728 0.015321 -0.001468 0.000000 0.000479 0.000000
# 3 -0.001391 -0.001468 0.009566 0.000000 -0.000510 0.000000
# 4 0.000000 0.000000 0.000000 0.116618 0.000000 0.013992
# 5 0.000377 0.000479 -0.000510 0.000000 0.024485 0.000000
# 6 0.000000 0.000000 0.000000 0.013992 0.000000 0.053313
#
#
# Mechanical properties :
#
#
# Convention : Reuss Voigt Hill
#
# Bulk Modulus (GPa) = 44.43467 57.76584 51.10025
# Shear Modulus (GPa) = 20.94073 36.45446 28.69759
#
# Velocity S-wave (km/s) = 2.90289 3.83010 3.39827
# Velocity P-wave (km/s) = 5.39599 6.54256 5.99674
#
# Compressibility (1/GPa) = 0.02250495
#
# Stress axis : x y z
#
# Youngs Moduli (GPa) = 208.67854 65.27078 104.54074
#
# Poissons Ratio (x) = 0.04749 0.14539
# Poissons Ratio (y) = 0.15184 0.15350
# Poissons Ratio (z) = 0.29023 0.09584
#
# Static dielectric constant tensor:
#      x y z
#    x 3.038900 0.000000 0.562970 
#    y 0.000000 2.143160 0.000000 
#    z 0.562970 0.000000 2.245650 
# 
# From -- ./inp_files/191157.got.cif
#   From: 2010.05.17/outbox.cif.g08.bks.cpg/sg15_96_cif.got.tgz:191157.got - 2010.06.03 18:47:42.
