data_PCOD9304428
_publ_section_title
;
Structure prediction by ZEFSAII (Michael W. Deem and Ramdas Pophale) SiO2 
 PCOD9304428
Probable space group: C 2/C
;
_chemical_formula_sum "Si O2"
_cell_formula_units_Z 60
_cell_length_a 21.007976
_cell_length_b 9.087427
_cell_length_c 19.297668
_cell_angle_alpha 90.000000
_cell_angle_beta 44.387567
_cell_angle_gamma 90.000000
_cell_volume 2577.049979
_symmetry_space_group_name_H-M "C 2/C"
_symmetry_group_IT_number 15
_symmetry_cell_setting 'monoclinic'
loop_
_space_group_symop_operation_xyz
x,y,z
-x,y,1/2-z
-x,-y,-z
x,-y,1/2+z
1/2+x,1/2+y,z
1/2-x,1/2+y,1/2-z
1/2-x,1/2-y,-z
1/2+x,1/2-y,1/2+z
loop_
_atom_site_type_symbol
_atom_site_label
_atom_site_fract_x
_atom_site_fract_y
_atom_site_fract_z
Si Si1 0.349605 0.576391 0.395133
Si Si2 0.772069 0.792700 0.647432
Si Si3 0.703900 0.602121 0.815056
Si Si4 0.413053 0.743857 0.478850
Si Si5 0.611201 0.096869 0.191083
Si Si6 0.500000 0.353497 0.250000
Si Si7 0.655605 0.055116 0.000791
Si Si8 0.104528 0.705531 0.766300
O O1 0.353328 0.676131 0.461311
O O2 0.428151 0.456112 0.344121
O O3 0.257400 0.494557 0.445020
O O4 0.375911 0.680119 0.310188
O O5 0.708464 0.674719 0.736320
O O6 0.714289 0.877910 0.634442
O O7 0.844257 0.694331 0.550323
O O8 0.799440 0.925287 0.677529
O O9 0.801379 0.661377 0.769201
O O10 0.622525 0.663716 0.925146
O O11 0.520032 0.736350 0.377459
O O12 0.387966 0.915364 0.502701
O O13 0.557336 0.243186 0.253041
O O14 0.575967 0.948350 0.252805
O O15 0.609465 0.086306 0.109937
#
# Coordination Sequence:
#
# PCOD9304428 Si02
#       8
#     8   8   8   8   8   4   8   8
#     4  12  22  39  65 102 137 169 215 281 336 403
#     4  11  25  45  68  94 135 181 230 284 334 403
#     4  11  26  46  69  94 136 184 232 280 335 402
#     4  12  23  41  72 101 134 180 226 270 346 413
#     4  11  24  42  65 103 137 174 219 283 341 405
#     4  12  24  34  62  98 148 162 210 278 340 378
#     4  12  23  41  71  99 134 177 224 273 348 407
#     4  11  23  44  67 101 137 175 226 278 335 409
#
# _framework density 23.282436000000001
#
# number of rings (size 3 to 8) (size 9 to 14) (size 15 to 20)
#    0.000    0.533    5.333    4.000    1.867    0.000 
#    0.000    8.000    0.000    0.000    0.000    0.000 
#    0.000    0.000    0.000    0.000    0.000    0.000 
#
# Total GULP energy -167819.364739 kJ/mol
# GULP energy per Si atom -5593.978825 kJ/mol
# Density = 2.322944 g / cm^3
# Si number density = 23.282436 Si / 1000 Ang^3
#
#
#
# Elastic Constant Matrix: (Units=GPa)
#
#
# Indices 1 2 3 4 5 6 
#
# 1 28.5142 22.9108 20.1689 0.0000 0.2117 0.0000
# 2 22.9108 130.5631 24.1027 0.0000 1.4322 0.0001
# 3 20.1689 24.1027 88.2214 0.0000 -0.0403 0.0000
# 4 0.0000 0.0000 0.0000 50.7520 0.0000 -1.4737
# 5 0.2117 1.4322 -0.0403 0.0000 24.6756 0.0000
# 6 0.0000 0.0001 0.0000 -1.4737 0.0000 33.7447
#
#
#
# Elastic Compliance Matrix: (Units=1/GPa)
#
#
# Indices 1 2 3 4 5 6 
#
# 1 0.046596 -0.006539 -0.008866 0.000000 -0.000035 0.000000
# 2 -0.006539 0.008989 -0.000961 0.000000 -0.000467 0.000000
# 3 -0.008866 -0.000961 0.013625 0.000000 0.000154 0.000000
# 4 0.000000 0.000000 0.000000 0.019729 0.000000 0.000862
# 5 -0.000035 -0.000467 0.000154 0.000000 0.040554 0.000000
# 6 0.000000 0.000000 0.000000 0.000862 0.000000 0.029672
#
#
# Mechanical properties :
#
#
# Convention : Reuss Voigt Hill
#
# Bulk Modulus (GPa) = 27.41471 42.40707 34.91089
# Shear Modulus (GPa) = 24.50308 33.84222 29.17265
#
# Velocity S-wave (km/s) = 3.24763 3.81668 3.54360
# Velocity P-wave (km/s) = 5.08559 6.13812 5.63648
#
# Compressibility (1/GPa) = 0.03647677
#
# Stress axis : x y z
#
# Youngs Moduli (GPa) = 21.46109 111.24474 73.39612
#
# Poissons Ratio (x) = 0.72747 0.65073
# Poissons Ratio (y) = 0.14034 0.07054
# Poissons Ratio (z) = 0.19027 0.10692
#
# Static dielectric constant tensor:
#      x y z
#    x 1.907870 0.000000 -0.030940 
#    y 0.000000 1.862030 0.000000 
#    z -0.030940 0.000000 1.861760 
# 
# From -- ./inp_files/255169.got.cif
#   From: 2010.05.17/outbox.cif.g08.bks.cpg/sg15_128_cif.got.tgz:255169.got - 2010.06.03 18:47:42.
