data_PCOD9304632
_publ_section_title
;
Structure prediction by ZEFSAII (Michael W. Deem and Ramdas Pophale) SiO2 
 PCOD9304632
Probable space group: C 2/C
;
_chemical_formula_sum "Si O2"
_cell_formula_units_Z 36
_cell_length_a 14.172009
_cell_length_b 7.258254
_cell_length_c 25.556902
_cell_angle_alpha 90.000000
_cell_angle_beta 151.603342
_cell_angle_gamma 90.000000
_cell_volume 1250.227039
_symmetry_space_group_name_H-M "C 2/C"
_symmetry_group_IT_number 15
_symmetry_cell_setting 'monoclinic'
loop_
_space_group_symop_operation_xyz
x,y,z
-x,y,1/2-z
-x,-y,-z
x,-y,1/2+z
1/2+x,1/2+y,z
1/2-x,1/2+y,1/2-z
1/2-x,1/2-y,-z
1/2+x,1/2-y,1/2+z
loop_
_atom_site_type_symbol
_atom_site_label
_atom_site_fract_x
_atom_site_fract_y
_atom_site_fract_z
Si Si1 0.028175 0.698343 0.373281
Si Si2 0.021346 0.263472 0.374770
Si Si3 0.264888 0.659696 0.349810
Si Si4 0.500000 0.581098 0.250000
Si Si5 0.636779 0.745064 0.597819
O O1 0.250000 0.750000 0.500000
O O2 0.992797 0.481008 0.355637
O O3 0.942826 0.752278 0.273469
O O4 0.891245 0.766070 0.353604
O O5 0.250000 0.250000 0.500000
O O6 0.899195 0.178646 0.363183
O O7 0.995023 0.160142 0.307554
O O8 0.415310 0.733089 0.466916
O O9 0.246635 0.445752 0.359028
O O10 0.746529 0.580278 0.368210
#
# Coordination Sequence:
#
# PCOD9304632 Si02
#       5
#     8   8   8   4   8
#     4  12  26  43  67 105 142 179 231 282 343 408
#     4  12  25  44  70 100 138 179 227 283 343 408
#     4  11  23  45  71 100 139 180 232 280 344 404
#     4  12  22  44  74 100 130 184 230 274 350 408
#     4  11  25  43  76 101 135 183 230 280 344 413
#
# _framework density 28.794768999999999
#
# number of rings (size 3 to 8) (size 9 to 14) (size 15 to 20)
#    0.000    0.444    6.667    1.333    3.111    1.778 
#    0.000    0.000    0.000    2.667    0.000    0.000 
#    0.000    0.000    0.000    0.000    0.000    0.000 
#
# Total GULP energy -100481.907198 kJ/mol
# GULP energy per Si atom -5582.328178 kJ/mol
# Density = 2.872923 g / cm^3
# Si number density = 28.794769 Si / 1000 Ang^3
#
#
#
# Elastic Constant Matrix: (Units=GPa)
#
#
# Indices 1 2 3 4 5 6 
#
# 1 127.7242 -49.2824 8.7087 0.0000 -27.8151 0.0001
# 2 -49.2824 95.3905 20.6345 0.0000 -2.4091 0.0001
# 3 8.7087 20.6345 201.8502 -0.0001 -8.7763 0.0000
# 4 0.0000 0.0000 -0.0001 55.9637 0.0000 9.5990
# 5 -27.8151 -2.4091 -8.7763 0.0000 65.6713 0.0000
# 6 0.0001 0.0001 0.0000 9.5990 0.0000 0.0433
#
#
#
# Elastic Compliance Matrix: (Units=1/GPa)
#
#
# Indices 1 2 3 4 5 6 
#
# 1 0.011346 0.006182 -0.000908 0.000000 0.004911 0.000001
# 2 0.006182 0.014093 -0.001580 0.000000 0.002924 0.000001
# 3 -0.000908 -0.001580 0.005166 0.000000 0.000248 0.000000
# 4 0.000000 0.000000 0.000000 -0.000482 0.000000 0.106990
# 5 0.004911 0.002924 0.000248 0.000000 0.017448 0.000000
# 6 0.000001 0.000001 0.000000 0.106990 0.000000 -0.623765
#
#
# Mechanical properties :
#
#
# Convention : Reuss Voigt Hill
#
# Bulk Modulus (GPa) = 26.32055 42.78739 34.55397
# Shear Modulus (GPa) = -8.75782 53.99590 22.61904
#
# Velocity S-wave (km/s) = -1.74587 4.33505 2.80576
# Velocity P-wave (km/s) = 2.25754 6.32049 4.74579
#
# Compressibility (1/GPa) = 0.03799312
#
# Stress axis : x y z
#
# Youngs Moduli (GPa) = 88.13461 70.95739 193.58595
#
# Poissons Ratio (x) = -0.43868 0.17578
# Poissons Ratio (y) = -0.54488 0.30592
# Poissons Ratio (z) = 0.08003 0.11213
#
# Static dielectric constant tensor:
#      x y z
#    x 2.148150 0.000000 0.064560 
#    y 0.000000 2.890110 0.000000 
#    z 0.064560 0.000000 2.543190 
# 
# From -- ./inp_files/295495.got.cif
#   From: 2010.05.17/outbox.cif.g08.bks.cpg/sg15_148_cif.got.tgz:295495.got - 2010.06.03 18:47:42.
