data_PCOD9304603
_publ_section_title
;
Structure prediction by ZEFSAII (Michael W. Deem and Ramdas Pophale) SiO2 
 PCOD9304603
Probable space group: C 2/C
;
_chemical_formula_sum "Si O2"
_cell_formula_units_Z 48
_cell_length_a 18.699727
_cell_length_b 13.264654
_cell_length_c 19.342537
_cell_angle_alpha 90.000000
_cell_angle_beta 154.946164
_cell_angle_gamma 90.000000
_cell_volume 2031.734357
_symmetry_space_group_name_H-M "C 2/C"
_symmetry_group_IT_number 15
_symmetry_cell_setting 'monoclinic'
loop_
_space_group_symop_operation_xyz
x,y,z
-x,y,1/2-z
-x,-y,-z
x,-y,1/2+z
1/2+x,1/2+y,z
1/2-x,1/2+y,1/2-z
1/2-x,1/2-y,-z
1/2+x,1/2-y,1/2+z
loop_
_atom_site_type_symbol
_atom_site_label
_atom_site_fract_x
_atom_site_fract_y
_atom_site_fract_z
Si Si1 0.000164 0.389161 0.331834
Si Si2 0.518288 0.720681 0.924856
Si Si3 0.618866 0.331321 0.786703
Si Si4 0.056093 0.896779 0.583596
Si Si5 0.663272 0.198259 0.359230
Si Si6 0.066780 0.436924 0.622382
O O1 0.191077 0.365356 0.526765
O O2 0.000000 0.409737 0.250000
O O3 0.890958 0.286663 0.243578
O O4 0.926909 0.483093 0.309993
O O5 0.400755 0.722076 0.754538
O O6 0.547899 0.841149 0.958341
O O7 0.466260 0.684958 0.955291
O O8 0.677926 0.652174 0.041697
O O9 0.500000 0.342328 0.750000
O O10 0.539334 0.388636 0.651080
O O11 0.256909 0.889362 0.747201
O O12 0.000000 0.000000 0.500000
O O13 0.500000 0.145985 0.250000
O O14 0.750000 0.250000 0.500000
O O15 0.000000 0.500000 0.500000
#
# Coordination Sequence:
#
# PCOD9304603 Si02
#       6
#     8   8   8   8   8   8
#     4  11  25  45  77 107 147 191 243 306 360 443
#     4  11  23  45  69 101 142 192 233 296 368 424
#     4  11  25  49  75 108 142 195 243 307 375 426
#     4  12  29  45  73 107 145 190 245 309 364 445
#     4   9  20  40  67  98 135 185 236 274 344 439
#     4  12  26  47  70 107 142 186 240 297 371 429
#
# _framework density 23.625136000000001
#
# number of rings (size 3 to 8) (size 9 to 14) (size 15 to 20)
#    0.000    1.000    3.333    3.000    7.000    2.000 
#    0.000    3.333    0.000    0.000    0.000    0.000 
#    0.000    0.000    0.000    0.000    0.000    0.000 
#
# Total GULP energy -133906.505277 kJ/mol
# GULP energy per Si atom -5579.437720 kJ/mol
# Density = 2.357136 g / cm^3
# Si number density = 23.625136 Si / 1000 Ang^3
#
#
#
# Elastic Constant Matrix: (Units=GPa)
#
#
# Indices 1 2 3 4 5 6 
#
# 1 122.6492 44.9541 47.8260 -0.0007 -41.0096 -0.0003
# 2 44.9541 114.8372 36.3938 -0.0011 -20.2575 -0.0005
# 3 47.8260 36.3938 112.5140 -0.0011 -35.3556 -0.0005
# 4 -0.0007 -0.0011 -0.0011 38.1249 -0.0004 -10.7039
# 5 -41.0096 -20.2575 -35.3556 -0.0004 65.2718 -0.0002
# 6 -0.0003 -0.0005 -0.0005 -10.7039 -0.0002 40.0823
#
#
#
# Elastic Compliance Matrix: (Units=1/GPa)
#
#
# Indices 1 2 3 4 5 6 
#
# 1 0.011964 -0.002973 -0.002473 0.000000 0.005255 0.000000
# 2 -0.002973 0.010578 -0.002065 0.000000 0.000297 0.000000
# 3 -0.002473 -0.002065 0.011951 0.000000 0.004279 0.000000
# 4 0.000000 0.000000 0.000000 0.028356 0.000001 0.007572
# 5 0.005255 0.000297 0.004279 0.000001 0.021032 0.000000
# 6 0.000000 0.000000 0.000000 0.007572 0.000000 0.026971
#
#
# Mechanical properties :
#
#
# Convention : Reuss Voigt Hill
#
# Bulk Modulus (GPa) = 51.35199 67.59425 59.47312
# Shear Modulus (GPa) = 37.77441 43.41756 40.59599
#
# Velocity S-wave (km/s) = 4.00297 4.29157 4.14978
# Velocity P-wave (km/s) = 6.56874 7.29589 6.94185
#
# Compressibility (1/GPa) = 0.01947344
#
# Stress axis : x y z
#
# Youngs Moduli (GPa) = 83.58210 94.53162 83.67207
#
# Poissons Ratio (x) = 0.28103 0.20690
# Poissons Ratio (y) = 0.24848 0.17276
# Poissons Ratio (z) = 0.20667 0.19518
#
# Static dielectric constant tensor:
#      x y z
#    x 2.166280 0.000000 0.196240 
#    y 0.000000 1.864850 0.000000 
#    z 0.196240 0.000000 2.100290 
# 
# From -- ./inp_files/211458.got.cif
#   From: 2010.05.17/outbox.cif.g08.bks.cpg/sg15_106_cif.got.tgz:211458.got - 2010.06.03 18:47:42.
