data_PCOD9304963
_publ_section_title
;
Structure prediction by ZEFSAII (Michael W. Deem and Ramdas Pophale) SiO2 
 PCOD9304963
Probable space group: C 2/C
;
_chemical_formula_sum "Si O2"
_cell_formula_units_Z 60
_cell_length_a 8.417688
_cell_length_b 12.030679
_cell_length_c 23.997059
_cell_angle_alpha 90.000000
_cell_angle_beta 85.106146
_cell_angle_gamma 90.000000
_cell_volume 2421.334830
_symmetry_space_group_name_H-M "C 2/C"
_symmetry_group_IT_number 15
_symmetry_cell_setting 'monoclinic'
loop_
_space_group_symop_operation_xyz
x,y,z
-x,y,1/2-z
-x,-y,-z
x,-y,1/2+z
1/2+x,1/2+y,z
1/2-x,1/2+y,1/2-z
1/2-x,1/2-y,-z
1/2+x,1/2-y,1/2+z
loop_
_atom_site_type_symbol
_atom_site_label
_atom_site_fract_x
_atom_site_fract_y
_atom_site_fract_z
Si Si1 0.998908 0.300915 0.949146
Si Si2 0.585933 0.171032 0.930270
Si Si3 0.468447 0.660978 0.351615
Si Si4 0.683745 0.486924 0.302025
Si Si5 0.620566 0.254174 0.331951
Si Si6 0.213232 0.503777 0.573253
Si Si7 0.800726 0.968820 0.952769
Si Si8 0.000000 0.419621 0.750000
O O1 0.854545 0.380615 0.935313
O O2 0.047722 0.226026 0.895680
O O3 0.150897 0.383081 0.951522
O O4 0.953647 0.259955 0.012081
O O5 0.581884 0.246090 0.875763
O O6 0.435679 0.087826 0.928779
O O7 0.735354 0.090209 0.936271
O O8 0.559969 0.587485 0.304135
O O9 0.304260 0.715045 0.334748
O O10 0.422152 0.579456 0.404443
O O11 0.615705 0.364886 0.295829
O O12 0.734114 0.485611 0.365506
O O13 0.840479 0.509480 0.261655
O O14 0.525031 0.157206 0.303508
O O15 0.330467 0.529967 0.518224
#
# Coordination Sequence:
#
# PCOD9304963 Si02
#       8
#     8   8   8   8   8   8   8   4
#     4   8  16  35  66  97 137 180 215 250 318 398
#     4   9  17  35  64 100 142 182 204 249 319 401
#     4  11  24  39  67 107 135 168 214 265 328 403
#     4  12  27  45  72 100 126 170 227 280 329 395
#     4  11  25  47  72  95 130 173 218 283 335 379
#     4   9  16  37  63  95 137 180 217 248 316 394
#     4   8  18  32  59 100 144 178 207 254 306 396
#     4  12  30  52  70  90 122 174 232 286 338 384
#
# _framework density 24.779720000000001
#
# number of rings (size 3 to 8) (size 9 to 14) (size 15 to 20)
#    0.000    2.133    2.667    1.600    1.867    5.867 
#    0.000    1.333    0.000    0.000    0.000    0.000 
#    0.000    0.000    0.000    0.000    0.000    0.000 
#
# Total GULP energy -167933.561975 kJ/mol
# GULP energy per Si atom -5597.785399 kJ/mol
# Density = 2.472332 g / cm^3
# Si number density = 24.779720 Si / 1000 Ang^3
#
#
#
# Elastic Constant Matrix: (Units=GPa)
#
#
# Indices 1 2 3 4 5 6 
#
# 1 46.5931 22.0446 22.5968 0.0000 -13.9839 0.0000
# 2 22.0446 97.9735 25.0369 0.0000 -15.7366 0.0000
# 3 22.5968 25.0369 92.1520 0.0000 9.7963 0.0000
# 4 0.0000 0.0000 0.0000 -11.6873 0.0000 -8.0594
# 5 -13.9839 -15.7366 9.7963 0.0000 40.4430 0.0000
# 6 0.0000 0.0000 0.0000 -8.0594 0.0000 27.8658
#
#
#
# Elastic Compliance Matrix: (Units=1/GPa)
#
#
# Indices 1 2 3 4 5 6 
#
# 1 0.029929 -0.002991 -0.007701 0.000000 0.011050 0.000000
# 2 -0.002991 0.012408 -0.003121 0.000000 0.004550 0.000000
# 3 -0.007701 -0.003121 0.014370 0.000000 -0.007358 0.000000
# 4 0.000000 0.000000 0.000000 -0.071336 0.000000 -0.020632
# 5 0.011050 0.004550 -0.007358 0.000000 0.032100 0.000000
# 6 0.000000 0.000000 0.000000 -0.020632 0.000000 0.029919
#
#
# Mechanical properties :
#
#
# Convention : Reuss Voigt Hill
#
# Bulk Modulus (GPa) = 34.38768 41.78612 38.08690
# Shear Modulus (GPa) = 59.02412 22.46032 40.74222
#
# Velocity S-wave (km/s) = 4.88582 3.01391 4.05924
# Velocity P-wave (km/s) = 6.76282 5.38620 6.11339
#
# Compressibility (1/GPa) = 0.02908018
#
# Stress axis : x y z
#
# Youngs Moduli (GPa) = 33.41259 80.59049 69.58818
#
# Poissons Ratio (x) = 0.24108 0.53589
# Poissons Ratio (y) = 0.09995 0.21721
# Poissons Ratio (z) = 0.25731 0.25156
#
# Static dielectric constant tensor:
#      x y z
#    x 1.979750 0.000000 0.022120 
#    y 0.000000 1.974750 0.000000 
#    z 0.022120 0.000000 1.843930 
# 
# From -- ./inp_files/288012.got.cif
#   From: 2010.05.17/outbox.cif.g08.bks.cpg/sg15_145_cif.got.tgz:288012.got - 2010.06.03 18:47:42.
