data_PCOD9304387
_publ_section_title
;
Structure prediction by ZEFSAII (Michael W. Deem and Ramdas Pophale) SiO2 
 PCOD9304387
Probable space group: C 2/C
;
_chemical_formula_sum "Si O2"
_cell_formula_units_Z 40
_cell_length_a 10.413881
_cell_length_b 10.752178
_cell_length_c 19.569859
_cell_angle_alpha 90.000000
_cell_angle_beta 45.726365
_cell_angle_gamma 90.000000
_cell_volume 1568.983187
_symmetry_space_group_name_H-M "C 2/C"
_symmetry_group_IT_number 15
_symmetry_cell_setting 'monoclinic'
loop_
_space_group_symop_operation_xyz
x,y,z
-x,y,1/2-z
-x,-y,-z
x,-y,1/2+z
1/2+x,1/2+y,z
1/2-x,1/2+y,1/2-z
1/2-x,1/2-y,-z
1/2+x,1/2-y,1/2+z
loop_
_atom_site_type_symbol
_atom_site_label
_atom_site_fract_x
_atom_site_fract_y
_atom_site_fract_z
Si Si1 0.692330 0.690414 0.816532
Si Si2 0.536105 0.723065 0.387867
Si Si3 0.708375 0.609443 0.537969
Si Si4 0.312116 0.034729 0.353131
Si Si5 0.715028 0.879807 0.918298
O O1 0.818520 0.694435 0.704889
O O2 0.503601 0.625540 0.872100
O O3 0.785452 0.604974 0.838423
O O4 0.681637 0.827478 0.854602
O O5 0.650569 0.619323 0.385083
O O6 0.421362 0.801929 0.483768
O O7 0.407812 0.659969 0.378784
O O8 0.750000 0.750000 0.500000
O O9 0.783750 0.535316 0.444456
O O10 0.789632 0.528529 0.569437
O O11 0.500000 0.080275 0.250000
#
# Coordination Sequence:
#
# PCOD9304387 Si02
#       5
#     8   8   8   8   8
#     4  12  24  45  74 106 141 189 250 297 368 441
#     4  11  23  43  73 108 138 188 242 302 362 438
#     4  12  26  46  68 106 147 187 239 306 365 445
#     4  12  23  45  71 102 144 189 242 306 366 433
#     4  11  23  45  74 104 141 188 244 294 370 437
#
# _framework density 25.494216000000002
#
# number of rings (size 3 to 8) (size 9 to 14) (size 15 to 20)
#    0.000    0.400    4.000    7.200    0.000    0.800 
#    3.600    0.000    0.000    0.000    0.000    0.000 
#    0.000    0.000    0.000    0.000    0.000    0.000 
#
# Total GULP energy -112076.040872 kJ/mol
# GULP energy per Si atom -5603.802044 kJ/mol
# Density = 2.543619 g / cm^3
# Si number density = 25.494216 Si / 1000 Ang^3
#
#
#
# Elastic Constant Matrix: (Units=GPa)
#
#
# Indices 1 2 3 4 5 6 
#
# 1 77.6566 29.3051 20.2183 0.0000 -21.4317 0.0000
# 2 29.3051 117.1989 15.7875 0.0000 -12.6116 0.0000
# 3 20.2183 15.7875 146.2580 0.0000 -19.0357 0.0000
# 4 0.0000 0.0000 0.0000 11.3111 0.0000 27.7633
# 5 -21.4317 -12.6116 -19.0357 0.0000 39.0008 0.0000
# 6 0.0000 0.0000 0.0000 27.7633 0.0000 36.1133
#
#
#
# Elastic Compliance Matrix: (Units=1/GPa)
#
#
# Indices 1 2 3 4 5 6 
#
# 1 0.016393 -0.003162 -0.000946 0.000000 0.007524 0.000000
# 2 -0.003162 0.009503 -0.000443 0.000000 0.001119 0.000000
# 3 -0.000946 -0.000443 0.007400 0.000000 0.002949 0.000000
# 4 0.000000 0.000000 0.000000 -0.099673 0.000000 0.076627
# 5 0.007524 0.001119 0.002949 0.000000 0.031576 0.000000
# 6 0.000000 0.000000 0.000000 0.076627 0.000000 -0.031219
#
#
# Mechanical properties :
#
#
# Convention : Reuss Voigt Hill
#
# Bulk Modulus (GPa) = 41.33098 52.41504 46.87301
# Shear Modulus (GPa) = -102.34739 35.67189 -33.33775
#
# Velocity S-wave (km/s) = -6.34291 3.74467 -3.62008
# Velocity P-wave (km/s) = 6.11524 6.26904 0.97588
#
# Compressibility (1/GPa) = 0.02419492
#
# Stress axis : x y z
#
# Youngs Moduli (GPa) = 61.00085 105.22702 135.14335
#
# Poissons Ratio (x) = 0.33273 0.12778
# Poissons Ratio (y) = 0.19288 0.05987
# Poissons Ratio (z) = 0.05768 0.04662
#
# Static dielectric constant tensor:
#      x y z
#    x 2.050110 0.000000 -0.031210 
#    y 0.000000 2.085710 0.000000 
#    z -0.031210 0.000000 2.096500 
# 
# From -- ./inp_files/142099.got.cif
#   From: 2010.05.17/outbox.cif.g08.bks.cpg/sg15_72_cif.got.tgz:142099.got - 2010.06.03 18:47:42.
