data_PCOD9304591
_publ_section_title
;
Structure prediction by ZEFSAII (Michael W. Deem and Ramdas Pophale) SiO2 
 PCOD9304591
Probable space group: C 2/C
;
_chemical_formula_sum "Si O2"
_cell_formula_units_Z 36
_cell_length_a 12.183526
_cell_length_b 6.651209
_cell_length_c 18.661613
_cell_angle_alpha 90.000000
_cell_angle_beta 108.625278
_cell_angle_gamma 90.000000
_cell_volume 1433.047113
_symmetry_space_group_name_H-M "C 2/C"
_symmetry_group_IT_number 15
_symmetry_cell_setting 'monoclinic'
loop_
_space_group_symop_operation_xyz
x,y,z
-x,y,1/2-z
-x,-y,-z
x,-y,1/2+z
1/2+x,1/2+y,z
1/2-x,1/2+y,1/2-z
1/2-x,1/2-y,-z
1/2+x,1/2-y,1/2+z
loop_
_atom_site_type_symbol
_atom_site_label
_atom_site_fract_x
_atom_site_fract_y
_atom_site_fract_z
Si Si1 0.000000 0.000000 0.500000
Si Si2 0.202364 0.899869 0.654433
Si Si3 0.195973 0.100697 0.930922
Si Si4 0.097490 0.556320 0.710740
Si Si5 0.610191 0.200737 0.073272
O O1 0.076960 0.973499 0.438500
O O2 0.993357 0.739979 0.502482
O O3 0.290481 0.740342 0.636748
O O4 0.108128 0.773567 0.677261
O O5 0.279278 0.028774 0.724022
O O6 0.139591 0.052926 0.584857
O O7 0.280172 0.912572 0.934409
O O8 0.250000 0.250000 0.000000
O O9 0.083417 0.393185 0.644474
O O10 0.000000 0.542382 0.750000
#
# Coordination Sequence:
#
# PCOD9304591 Si02
#       5
#     4   8   8   8   8
#     4  12  24  44  70  98 136 182 224 272 342 410
#     4  11  23  45  67  98 137 171 227 286 334 406
#     4  11  25  45  67  99 138 178 224 283 338 402
#     4  11  24  44  69  97 134 180 223 280 348 404
#     4  11  25  45  69 102 137 179 227 285 338 406
#
# _framework density 25.121295
#
# number of rings (size 3 to 8) (size 9 to 14) (size 15 to 20)
#    0.000    0.889    4.444    2.000    0.000    3.556 
#    0.000    0.000    0.000    0.000    0.000    0.000 
#    0.000    0.000    0.000    0.000    0.000    0.000 
#
# Total GULP energy -100404.879908 kJ/mol
# GULP energy per Si atom -5578.048884 kJ/mol
# Density = 2.506412 g / cm^3
# Si number density = 25.121295 Si / 1000 Ang^3
#
#
#
# Elastic Constant Matrix: (Units=GPa)
#
#
# Indices 1 2 3 4 5 6 
#
# 1 154.0768 67.9859 55.7488 0.0000 -43.2221 0.0000
# 2 67.9859 146.6530 47.0203 0.0000 -14.3027 0.0000
# 3 55.7488 47.0203 110.0919 0.0000 -10.9559 0.0000
# 4 0.0000 0.0000 0.0000 63.3517 0.0000 9.9971
# 5 -43.2221 -14.3027 -10.9559 0.0000 58.4048 0.0000
# 6 0.0000 0.0000 0.0000 9.9971 0.0000 33.4560
#
#
#
# Elastic Compliance Matrix: (Units=1/GPa)
#
#
# Indices 1 2 3 4 5 6 
#
# 1 0.011159 -0.003380 -0.003533 0.000000 0.006767 0.000000
# 2 -0.003380 0.009027 -0.002214 0.000000 -0.000706 0.000000
# 3 -0.003533 -0.002214 0.011723 0.000000 -0.000958 0.000000
# 4 0.000000 0.000000 0.000000 0.016566 0.000000 -0.004950
# 5 0.006767 -0.000706 -0.000958 0.000000 0.021777 0.000000
# 6 0.000000 0.000000 0.000000 -0.004950 0.000000 0.031369
#
#
# Mechanical properties :
#
#
# Convention : Reuss Voigt Hill
#
# Bulk Modulus (GPa) = 73.24295 83.59243 78.41769
# Shear Modulus (GPa) = 40.18428 47.04693 43.61561
#
# Velocity S-wave (km/s) = 4.00385 4.33227 4.17129
# Velocity P-wave (km/s) = 7.11291 7.64019 7.38126
#
# Compressibility (1/GPa) = 0.01365319
#
# Stress axis : x y z
#
# Youngs Moduli (GPa) = 89.61725 110.78203 85.30332
#
# Poissons Ratio (x) = 0.37445 0.30142
# Poissons Ratio (y) = 0.30291 0.18886
# Poissons Ratio (z) = 0.31666 0.24527
#
# Static dielectric constant tensor:
#      x y z
#    x 2.144000 0.000000 0.194390 
#    y 0.000000 2.124550 0.000000 
#    z 0.194390 0.000000 2.195770 
# 
# From -- ./inp_files/241454.got.cif
#   From: 2010.05.17/outbox.cif.g08.bks.cpg/sg15_121_cif.got.tgz:241454.got - 2010.06.03 18:47:42.
