data_PCOD9304568
_publ_section_title
;
Structure prediction by ZEFSAII (Michael W. Deem and Ramdas Pophale) SiO2 
 PCOD9304568
Probable space group: C 2/C
;
_chemical_formula_sum "Si O2"
_cell_formula_units_Z 44
_cell_length_a 10.094132
_cell_length_b 23.838342
_cell_length_c 11.194080
_cell_angle_alpha 90.000000
_cell_angle_beta 138.663577
_cell_angle_gamma 90.000000
_cell_volume 1779.067889
_symmetry_space_group_name_H-M "C 2/C"
_symmetry_group_IT_number 15
_symmetry_cell_setting 'monoclinic'
loop_
_space_group_symop_operation_xyz
x,y,z
-x,y,1/2-z
-x,-y,-z
x,-y,1/2+z
1/2+x,1/2+y,z
1/2-x,1/2+y,1/2-z
1/2-x,1/2-y,-z
1/2+x,1/2-y,1/2+z
loop_
_atom_site_type_symbol
_atom_site_label
_atom_site_fract_x
_atom_site_fract_y
_atom_site_fract_z
Si Si1 0.175707 0.335136 0.173647
Si Si2 0.405923 0.563110 0.802450
Si Si3 0.778843 0.044019 0.141284
Si Si4 0.389318 0.228054 0.295329
Si Si5 0.795158 0.609974 0.188217
Si Si6 0.500000 0.079600 0.750000
O O1 0.307776 0.380012 0.191315
O O2 0.294863 0.280628 0.298242
O O3 0.114334 0.376927 0.239249
O O4 0.029237 0.305007 0.981944
O O5 0.500000 0.534536 0.750000
O O6 0.259688 0.510304 0.719806
O O7 0.590841 0.577843 0.011550
O O8 0.677774 0.091318 0.156679
O O9 0.000000 0.066425 0.250000
O O10 0.650787 0.042759 0.932255
O O11 0.500000 0.248740 0.250000
O O12 0.251831 0.176782 0.154337
O O13 0.000000 0.599917 0.250000
#
# Coordination Sequence:
#
# PCOD9304568 Si02
#       6
#     8   8   8   8   8   4
#     4  12  25  47  71 114 149 200 250 313 384 453
#     4  11  24  45  73 111 149 194 250 316 380 449
#     4  11  26  52  73 111 155 203 253 311 378 462
#     4  11  23  44  76 112 146 191 252 315 380 446
#     4  11  23  47  79 115 147 196 255 319 383 445
#     4  12  28  50  76 106 158 206 258 304 380 470
#
# _framework density 24.732051999999999
#
# number of rings (size 3 to 8) (size 9 to 14) (size 15 to 20)
#    0.000    0.727    1.818    6.000    0.000    2.909 
#   21.273    0.000    0.000    0.000    0.000    0.000 
#    0.000    0.000    0.000    0.000    0.000    0.000 
#
# Total GULP energy -122660.493438 kJ/mol
# GULP energy per Si atom -5575.476974 kJ/mol
# Density = 2.467576 g / cm^3
# Si number density = 24.732052 Si / 1000 Ang^3
#
#
#
# Elastic Constant Matrix: (Units=GPa)
#
#
# Indices 1 2 3 4 5 6 
#
# 1 65.4112 13.9417 11.8829 0.0000 6.8687 0.0000
# 2 13.9417 143.9418 33.5944 0.0000 18.1711 0.0000
# 3 11.8829 33.5944 157.0177 0.0000 14.7690 0.0000
# 4 0.0000 0.0000 0.0000 50.3336 0.0000 -5.2283
# 5 6.8687 18.1711 14.7690 0.0000 25.4681 0.0000
# 6 0.0000 0.0000 0.0000 -5.2283 0.0000 16.7959
#
#
#
# Elastic Compliance Matrix: (Units=1/GPa)
#
#
# Indices 1 2 3 4 5 6 
#
# 1 0.015959 -0.000979 -0.000697 0.000000 -0.003201 0.000000
# 2 -0.000979 0.007910 -0.001176 0.000000 -0.004697 0.000000
# 3 -0.000697 -0.001176 0.006956 0.000000 -0.003006 0.000000
# 4 0.000000 0.000000 0.000000 0.020531 0.000000 0.006391
# 5 -0.003201 -0.004697 -0.003006 0.000000 0.045223 0.000000
# 6 0.000000 0.000000 0.000000 0.006391 0.000000 0.061528
#
#
# Mechanical properties :
#
#
# Convention : Reuss Voigt Hill
#
# Bulk Modulus (GPa) = 39.80905 53.91207 46.86056
# Shear Modulus (GPa) = 29.03846 38.98298 34.01072
#
# Velocity S-wave (km/s) = 3.43026 3.97446 3.71235
# Velocity P-wave (km/s) = 5.64093 6.55039 6.11259
#
# Compressibility (1/GPa) = 0.02511991
#
# Stress axis : x y z
#
# Youngs Moduli (GPa) = 62.65909 126.42892 143.76194
#
# Poissons Ratio (x) = 0.12376 0.10023
# Poissons Ratio (y) = 0.06134 0.16912
# Poissons Ratio (z) = 0.04369 0.14873
#
# Static dielectric constant tensor:
#      x y z
#    x 2.128280 0.000000 -0.214780 
#    y 0.000000 1.999490 0.000000 
#    z -0.214780 0.000000 2.217700 
# 
# From -- ./inp_files/91353.got.cif
#   From: 2010.05.17/outbox.cif.g08.bks.cpg/sg15_46_cif.got.tgz:91353.got - 2010.06.03 18:47:42.
