data_PCOD9304231
_publ_section_title
;
Structure prediction by ZEFSAII (Michael W. Deem and Ramdas Pophale) SiO2 
 PCOD9304231
Probable space group: C 2/C
;
_chemical_formula_sum "Si O2"
_cell_formula_units_Z 40
_cell_length_a 23.322971
_cell_length_b 6.497815
_cell_length_c 20.919229
_cell_angle_alpha 90.000000
_cell_angle_beta 36.775192
_cell_angle_gamma 90.000000
_cell_volume 1897.970015
_symmetry_space_group_name_H-M "C 2/C"
_symmetry_group_IT_number 15
_symmetry_cell_setting 'monoclinic'
loop_
_space_group_symop_operation_xyz
x,y,z
-x,y,1/2-z
-x,-y,-z
x,-y,1/2+z
1/2+x,1/2+y,z
1/2-x,1/2+y,1/2-z
1/2-x,1/2-y,-z
1/2+x,1/2-y,1/2+z
loop_
_atom_site_type_symbol
_atom_site_label
_atom_site_fract_x
_atom_site_fract_y
_atom_site_fract_z
Si Si1 0.202515 0.339042 0.850980
Si Si2 0.256829 0.947561 0.541696
Si Si3 0.906012 0.779579 0.373024
Si Si4 0.601485 0.224255 0.887927
Si Si5 0.552404 0.528052 0.037331
O O1 0.244869 0.414233 0.880839
O O2 0.291154 0.302517 0.724577
O O3 0.125330 0.491551 0.887082
O O4 0.145319 0.139453 0.925355
O O5 0.250000 0.750000 0.500000
O O6 0.170715 0.099513 0.601123
O O7 0.354990 0.071649 0.441717
O O8 0.000000 0.729703 0.250000
O O9 0.931423 0.934667 0.407820
O O10 0.533843 0.306866 0.890899
O O11 0.545990 0.331162 0.996496
#
# Coordination Sequence:
#
# PCOD9304231 Si02
#       5
#     8   8   8   8   8
#     4  12  22  44  66  98 135 174 227 278 346 404
#     4  11  24  43  68  97 135 176 225 284 337 401
#     4  11  24  45  67  97 134 180 228 279 339 404
#     4  11  24  40  67  98 130 180 218 282 346 401
#     4  11  23  43  65  97 137 167 231 281 329 409
#
# _framework density 21.075150000000001
#
# number of rings (size 3 to 8) (size 9 to 14) (size 15 to 20)
#    0.000    0.800    6.000    1.800    0.000    0.800 
#    3.600    0.000    0.000    0.000    0.000    0.000 
#    0.000    0.000    0.000    0.000    0.000    0.000 
#
# Total GULP energy -111583.938461 kJ/mol
# GULP energy per Si atom -5579.196923 kJ/mol
# Density = 2.102718 g / cm^3
# Si number density = 21.075150 Si / 1000 Ang^3
#
#
#
# Elastic Constant Matrix: (Units=GPa)
#
#
# Indices 1 2 3 4 5 6 
#
# 1 89.7025 25.7292 14.5117 0.0055 4.7128 -0.0048
# 2 25.7292 58.7121 14.5536 0.0144 16.7435 -0.0110
# 3 14.5117 14.5536 81.1153 0.0000 -6.3487 0.0010
# 4 0.0055 0.0144 0.0000 26.6320 0.0011 -10.4352
# 5 4.7128 16.7435 -6.3487 0.0011 17.6510 -0.0017
# 6 -0.0048 -0.0110 0.0010 -10.4352 -0.0017 35.6210
#
#
#
# Elastic Compliance Matrix: (Units=1/GPa)
#
#
# Indices 1 2 3 4 5 6 
#
# 1 0.012925 -0.005876 -0.001124 0.000000 0.001718 0.000000
# 2 -0.005876 0.029367 -0.006457 -0.000012 -0.028611 0.000004
# 3 -0.001124 -0.006457 0.014602 0.000003 0.011677 -0.000001
# 4 0.000000 -0.000012 0.000003 0.042418 0.000011 0.012426
# 5 0.001718 -0.028611 0.011677 0.000011 0.087535 -0.000002
# 6 0.000000 0.000004 -0.000001 0.012426 -0.000002 0.031714
#
#
# Mechanical properties :
#
#
# Convention : Reuss Voigt Hill
#
# Bulk Modulus (GPa) = 33.35470 37.67989 35.51730
# Shear Modulus (GPa) = 19.57208 27.62983 23.60095
#
# Velocity S-wave (km/s) = 3.05073 3.62472 3.35004
# Velocity P-wave (km/s) = 5.31697 5.95280 5.64385
#
# Compressibility (1/GPa) = 0.02998078
#
# Stress axis : x y z
#
# Youngs Moduli (GPa) = 77.37116 34.05191 68.48560
#
# Poissons Ratio (x) = 0.20007 0.07695
# Poissons Ratio (y) = 0.45459 0.44222
# Poissons Ratio (z) = 0.08693 0.21988
#
# Static dielectric constant tensor:
#      x y z
#    x 5.710310 0.001010 -2.082510 
#    y 0.001010 1.809440 -0.000530 
#    z -2.082510 -0.000530 2.819150 
# 
# From -- ./inp_files/254209.got.cif
#   From: 2010.05.17/outbox.cif.g08.bks.cpg/sg15_128_cif.got.tgz:254209.got - 2010.06.03 18:47:42.
