data_PCOD9304726
_publ_section_title
;
Structure prediction by ZEFSAII (Michael W. Deem and Ramdas Pophale) SiO2 
 PCOD9304726
Probable space group: C 2/C
;
_chemical_formula_sum "Si O2"
_cell_formula_units_Z 40
_cell_length_a 11.637805
_cell_length_b 7.536957
_cell_length_c 21.317996
_cell_angle_alpha 90.000000
_cell_angle_beta 57.460386
_cell_angle_gamma 90.000000
_cell_volume 1576.344890
_symmetry_space_group_name_H-M "C 2/C"
_symmetry_group_IT_number 15
_symmetry_cell_setting 'monoclinic'
loop_
_space_group_symop_operation_xyz
x,y,z
-x,y,1/2-z
-x,-y,-z
x,-y,1/2+z
1/2+x,1/2+y,z
1/2-x,1/2+y,1/2-z
1/2-x,1/2-y,-z
1/2+x,1/2-y,1/2+z
loop_
_atom_site_type_symbol
_atom_site_label
_atom_site_fract_x
_atom_site_fract_y
_atom_site_fract_z
Si Si1 0.562046 0.807625 0.404400
Si Si2 0.677679 0.139613 0.610838
Si Si3 0.142974 0.309061 0.716048
Si Si4 0.368978 0.618425 0.988419
Si Si5 0.896170 0.313834 0.629656
O O1 0.450989 0.767768 0.383651
O O2 0.718307 0.793339 0.336720
O O3 0.565378 0.685651 0.464889
O O4 0.533275 0.015933 0.422205
O O5 0.764286 0.267708 0.628813
O O6 0.638592 0.973132 0.667841
O O7 0.783313 0.058491 0.528575
O O8 0.143324 0.363496 0.788380
O O9 0.000000 0.208035 0.750000
O O10 0.496346 0.650217 0.904440
O O11 0.250000 0.750000 0.000000
#
# Coordination Sequence:
#
# PCOD9304726 Si02
#       5
#     8   8   8   8   8
#     4  11  24  46  68  97 137 177 225 277 335 399
#     4  11  25  45  70  97 137 177 225 279 334 399
#     4  11  23  46  67  94 138 180 218 281 340 395
#     4  11  23  46  70  97 139 183 218 277 343 398
#     4  12  23  41  70 100 134 174 229 275 333 397
#
# _framework density 25.375157000000002
#
# number of rings (size 3 to 8) (size 9 to 14) (size 15 to 20)
#    0.000    0.800    4.000    3.600    0.000    0.800 
#   18.000    0.000    0.000    0.000    0.000    0.000 
#    0.000    0.000    0.000    0.000    0.000    0.000 
#
# Total GULP energy -111924.735931 kJ/mol
# GULP energy per Si atom -5596.236797 kJ/mol
# Density = 2.531740 g / cm^3
# Si number density = 25.375157 Si / 1000 Ang^3
#
#
#
# Elastic Constant Matrix: (Units=GPa)
#
#
# Indices 1 2 3 4 5 6 
#
# 1 224.6496 24.6256 25.4741 0.0000 -17.0607 0.0000
# 2 24.6256 58.0168 13.6615 0.0000 4.4081 0.0000
# 3 25.4741 13.6615 115.9967 0.0000 -5.6789 0.0000
# 4 0.0000 0.0000 0.0000 30.4133 0.0000 1.8777
# 5 -17.0607 4.4081 -5.6789 0.0000 37.4356 0.0000
# 6 0.0000 0.0000 0.0000 1.8777 0.0000 51.3650
#
#
#
# Elastic Compliance Matrix: (Units=1/GPa)
#
#
# Indices 1 2 3 4 5 6 
#
# 1 0.004946 -0.002112 -0.000720 0.000000 0.002394 0.000000
# 2 -0.002112 0.018850 -0.001926 0.000000 -0.003474 0.000000
# 3 -0.000720 -0.001926 0.009068 0.000000 0.001274 0.000000
# 4 0.000000 0.000000 0.000000 0.032955 0.000000 -0.001205
# 5 0.002394 -0.003474 0.001274 0.000000 0.028406 0.000000
# 6 0.000000 0.000000 0.000000 -0.001205 0.000000 0.019513
#
#
# Mechanical properties :
#
#
# Convention : Reuss Voigt Hill
#
# Bulk Modulus (GPa) = 42.83025 58.46507 50.64766
# Shear Modulus (GPa) = 38.15689 46.16956 42.16322
#
# Velocity S-wave (km/s) = 3.88198 4.27016 4.08069
# Velocity P-wave (km/s) = 6.08346 6.88496 6.49658
#
# Compressibility (1/GPa) = 0.02334799
#
# Stress axis : x y z
#
# Youngs Moduli (GPa) = 202.17029 53.04944 110.27299
#
# Poissons Ratio (x) = 0.11203 0.07944
# Poissons Ratio (y) = 0.42693 0.21243
# Poissons Ratio (z) = 0.14564 0.10220
#
# Static dielectric constant tensor:
#      x y z
#    x 1.973290 0.000000 -0.014080 
#    y 0.000000 2.119450 0.000000 
#    z -0.014080 0.000000 2.067410 
# 
# From -- ./inp_files/267549.got.cif
#   From: 2010.05.17/outbox.cif.g08.bks.cpg/sg15_134_cif.got.tgz:267549.got - 2010.06.03 18:47:42.
