data_PCOD9304838
_publ_section_title
;
Structure prediction by ZEFSAII (Michael W. Deem and Ramdas Pophale) SiO2 
 PCOD9304838
Probable space group: C 2/C
;
_chemical_formula_sum "Si O2"
_cell_formula_units_Z 60
_cell_length_a 25.288659
_cell_length_b 9.087517
_cell_length_c 11.540021
_cell_angle_alpha 90.000000
_cell_angle_beta 92.502777
_cell_angle_gamma 90.000000
_cell_volume 2649.495384
_symmetry_space_group_name_H-M "C 2/C"
_symmetry_group_IT_number 15
_symmetry_cell_setting 'monoclinic'
loop_
_space_group_symop_operation_xyz
x,y,z
-x,y,1/2-z
-x,-y,-z
x,-y,1/2+z
1/2+x,1/2+y,z
1/2-x,1/2+y,1/2-z
1/2-x,1/2-y,-z
1/2+x,1/2-y,1/2+z
loop_
_atom_site_type_symbol
_atom_site_label
_atom_site_fract_x
_atom_site_fract_y
_atom_site_fract_z
Si Si1 0.378629 0.864654 0.657977
Si Si2 0.669842 0.872407 0.224621
Si Si3 0.355072 0.417850 0.660482
Si Si4 0.063477 0.223616 0.470737
Si Si5 0.076712 0.545708 0.566004
Si Si6 0.500000 0.809304 0.250000
Si Si7 0.559180 0.632308 0.711848
Si Si8 0.223409 0.834184 0.388223
O O1 0.416898 0.854231 0.549252
O O2 0.414298 0.792776 0.761832
O O3 0.324597 0.772547 0.651146
O O4 0.356332 0.029236 0.675963
O O5 0.658041 0.700619 0.241818
O O6 0.637375 0.943597 0.115369
O O7 0.731725 0.871869 0.202338
O O8 0.377822 0.318710 0.560109
O O9 0.399928 0.524760 0.718982
O O10 0.307355 0.511625 0.602497
O O11 0.057160 0.390455 0.514472
O O12 0.030590 0.215434 0.349024
O O13 0.052605 0.113320 0.573960
O O14 0.040979 0.600900 0.671073
O O15 0.500000 0.627468 0.750000
O O16 0.250000 0.750000 0.500000
#
# Coordination Sequence:
#
# PCOD9304838 Si02
#       8
#     8   8   8   8   8   4   8   8
#     4  11  23  47  72 108 149 199 248 308 377 456
#     4  12  23  47  72 106 145 191 249 312 374 443
#     4  11  27  47  71 109 148 192 248 313 376 445
#     4  12  26  46  72 107 148 193 253 310 373 446
#     4  12  23  43  75 106 151 193 251 311 374 449
#     4  12  26  44  74 112 150 200 252 318 378 442
#     4  11  27  46  72 106 151 199 246 305 377 453
#     4  11  25  45  75 104 143 199 246 309 382 446
#
# _framework density 22.645821000000002
#
# number of rings (size 3 to 8) (size 9 to 14) (size 15 to 20)
#    0.000    0.533    5.333    2.000    3.733    0.533 
#    0.000    1.333    0.000    0.000    0.000    0.000 
#    0.000    0.000    0.000    0.000    0.000    0.000 
#
# Total GULP energy -167294.199849 kJ/mol
# GULP energy per Si atom -5576.473328 kJ/mol
# Density = 2.259428 g / cm^3
# Si number density = 22.645821 Si / 1000 Ang^3
#
#
#
# Elastic Constant Matrix: (Units=GPa)
#
#
# Indices 1 2 3 4 5 6 
#
# 1 127.7338 46.7856 37.1503 0.0000 -9.1984 0.0000
# 2 46.7856 95.5857 12.7696 0.0000 -1.3108 0.0000
# 3 37.1503 12.7696 108.0685 0.0000 -2.9091 0.0000
# 4 0.0000 0.0000 0.0000 7.7903 0.0000 -2.3140
# 5 -9.1984 -1.3108 -2.9091 0.0000 36.2627 0.0000
# 6 0.0000 0.0000 0.0000 -2.3140 0.0000 37.8971
#
#
#
# Elastic Compliance Matrix: (Units=1/GPa)
#
#
# Indices 1 2 3 4 5 6 
#
# 1 0.010617 -0.004761 -0.003026 0.000000 0.002278 0.000000
# 2 -0.004761 0.012768 0.000108 0.000000 -0.000737 0.000000
# 3 -0.003026 0.000108 0.010282 0.000000 0.000061 0.000000
# 4 0.000000 0.000000 0.000000 0.130735 0.000000 0.007983
# 5 0.002278 -0.000737 0.000061 0.000000 0.028133 0.000000
# 6 0.000000 0.000000 0.000000 0.007983 0.000000 0.026875
#
#
# Mechanical properties :
#
#
# Convention : Reuss Voigt Hill
#
# Bulk Modulus (GPa) = 54.61644 58.31099 56.46371
# Shear Modulus (GPa) = 20.75810 32.03551 26.39680
#
# Velocity S-wave (km/s) = 3.03089 3.76524 3.41785
# Velocity P-wave (km/s) = 6.03477 6.68638 6.36892
#
# Compressibility (1/GPa) = 0.01830951
#
# Stress axis : x y z
#
# Youngs Moduli (GPa) = 94.19131 78.32332 97.25341
#
# Poissons Ratio (x) = 0.37290 0.29427
# Poissons Ratio (y) = 0.44845 -0.01052
# Poissons Ratio (z) = 0.28500 -0.00847
#
# Static dielectric constant tensor:
#      x y z
#    x 1.997550 0.000000 -0.247470 
#    y 0.000000 1.939540 0.000000 
#    z -0.247470 0.000000 2.231500 
# 
# From -- ./inp_files/121964.got.cif
#   From: 2010.05.17/outbox.cif.g08.bks.cpg/sg15_61_cif.got.tgz:121964.got - 2010.06.03 18:47:42.
