data_PCOD9304627
_publ_section_title
;
Structure prediction by ZEFSAII (Michael W. Deem and Ramdas Pophale) SiO2 
 PCOD9304627
Probable space group: C 2/C
;
_chemical_formula_sum "Si O2"
_cell_formula_units_Z 44
_cell_length_a 21.941770
_cell_length_b 9.421865
_cell_length_c 9.617110
_cell_angle_alpha 90.000000
_cell_angle_beta 119.326481
_cell_angle_gamma 90.000000
_cell_volume 1733.370504
_symmetry_space_group_name_H-M "C 2/C"
_symmetry_group_IT_number 15
_symmetry_cell_setting 'monoclinic'
loop_
_space_group_symop_operation_xyz
x,y,z
-x,y,1/2-z
-x,-y,-z
x,-y,1/2+z
1/2+x,1/2+y,z
1/2-x,1/2+y,1/2-z
1/2-x,1/2-y,-z
1/2+x,1/2-y,1/2+z
loop_
_atom_site_type_symbol
_atom_site_label
_atom_site_fract_x
_atom_site_fract_y
_atom_site_fract_z
Si Si1 0.276503 0.910605 0.006670
Si Si2 0.239195 0.135270 0.165841
Si Si3 0.000000 0.192894 0.750000
Si Si4 0.906516 0.885812 0.894766
Si Si5 0.575551 0.830119 0.330960
Si Si6 0.881459 0.214855 0.815856
O O1 0.268629 0.940612 0.836579
O O2 0.250000 0.750000 0.000000
O O3 0.357311 0.920982 0.139589
O O4 0.229591 0.014034 0.042708
O O5 0.163453 0.190915 0.124229
O O6 0.198026 0.260752 0.805025
O O7 0.062998 0.268117 0.736940
O O8 0.961621 0.109657 0.581927
O O9 0.931123 0.796916 0.788914
O O10 0.887247 0.044705 0.829442
O O11 0.500000 0.902261 0.250000
O O12 0.596653 0.772258 0.507134
#
# Coordination Sequence:
#
# PCOD9304627 Si02
#       6
#     8   8   4   8   8   8
#     4  11  24  50  73 107 148 195 243 304 371 443
#     4  11  26  47  74 104 145 191 248 303 368 440
#     4  12  26  42  68 110 148 192 246 306 364 428
#     4  12  25  42  72 103 146 187 244 308 363 436
#     4  11  23  45  70  97 143 196 240 296 374 435
#     4  11  26  44  68 107 142 185 242 303 368 432
#
# _framework density 25.384070999999999
#
# number of rings (size 3 to 8) (size 9 to 14) (size 15 to 20)
#    0.000    0.727    3.636    3.818    5.091    2.182 
#    1.636    1.818    0.000    0.000    0.000    0.000 
#    0.000    0.000    0.000    0.000    0.000    0.000 
#
# Total GULP energy -123287.724178 kJ/mol
# GULP energy per Si atom -5603.987463 kJ/mol
# Density = 2.532630 g / cm^3
# Si number density = 25.384071 Si / 1000 Ang^3
#
#
#
# Elastic Constant Matrix: (Units=GPa)
#
#
# Indices 1 2 3 4 5 6 
#
# 1 185.8815 24.4865 31.1143 0.0000 11.9699 0.0000
# 2 24.4865 51.8148 31.3191 0.0000 -9.5892 0.0000
# 3 31.1143 31.3191 128.7561 0.0000 0.5190 0.0000
# 4 0.0000 0.0000 0.0000 8.0524 0.0000 8.4225
# 5 11.9699 -9.5892 0.5190 0.0000 65.2225 0.0000
# 6 0.0000 0.0000 0.0000 8.4225 0.0000 32.8186
#
#
#
# Elastic Compliance Matrix: (Units=1/GPa)
#
#
# Indices 1 2 3 4 5 6 
#
# 1 0.005951 -0.002601 -0.000800 0.000000 -0.001468 0.000000
# 2 -0.002601 0.024529 -0.005355 0.000000 0.004126 0.000000
# 3 -0.000800 -0.005355 0.009265 0.000000 -0.000714 0.000000
# 4 0.000000 0.000000 0.000000 0.169755 0.000000 -0.043565
# 5 -0.001468 0.004126 -0.000714 0.000000 0.016214 0.000000
# 6 0.000000 0.000000 0.000000 -0.043565 0.000000 0.041651
#
#
# Mechanical properties :
#
#
# Convention : Reuss Voigt Hill
#
# Bulk Modulus (GPa) = 44.97398 60.03248 52.50323
# Shear Modulus (GPa) = 17.10658 39.85419 28.48038
#
# Velocity S-wave (km/s) = 2.59879 3.96668 3.35323
# Velocity P-wave (km/s) = 5.17309 6.68434 5.97667
#
# Compressibility (1/GPa) = 0.02223508
#
# Stress axis : x y z
#
# Youngs Moduli (GPa) = 168.04690 40.76861 107.93095
#
# Poissons Ratio (x) = 0.10602 0.08629
# Poissons Ratio (y) = 0.43703 0.57793
# Poissons Ratio (z) = 0.13435 0.21830
#
# Static dielectric constant tensor:
#      x y z
#    x 2.055240 0.000000 0.003620 
#    y 0.000000 1.967690 0.000000 
#    z 0.003620 0.000000 1.990510 
# 
# From -- ./inp_files/60942.got.cif
#   From: 2010.05.17/outbox.cif.g08.bks.cpg/sg15_31_cif.got.tgz:60942.got - 2010.06.03 18:47:42.
