data_PCOD9304581
_publ_section_title
;
Structure prediction by ZEFSAII (Michael W. Deem and Ramdas Pophale) SiO2 
 PCOD9304581
Probable space group: C 2/C
;
_chemical_formula_sum "Si O2"
_cell_formula_units_Z 40
_cell_length_a 27.832375
_cell_length_b 5.298476
_cell_length_c 12.526575
_cell_angle_alpha 90.000000
_cell_angle_beta 62.199061
_cell_angle_gamma 90.000000
_cell_volume 1634.057835
_symmetry_space_group_name_H-M "C 2/C"
_symmetry_group_IT_number 15
_symmetry_cell_setting 'monoclinic'
loop_
_space_group_symop_operation_xyz
x,y,z
-x,y,1/2-z
-x,-y,-z
x,-y,1/2+z
1/2+x,1/2+y,z
1/2-x,1/2+y,1/2-z
1/2-x,1/2-y,-z
1/2+x,1/2-y,1/2+z
loop_
_atom_site_type_symbol
_atom_site_label
_atom_site_fract_x
_atom_site_fract_y
_atom_site_fract_z
Si Si1 0.049635 0.936531 0.781775
Si Si2 0.171415 0.264180 0.345211
Si Si3 0.732612 0.870315 0.907563
Si Si4 0.883019 0.859779 0.987006
Si Si5 0.077152 0.449886 0.876666
O O1 0.101303 0.891989 0.650932
O O2 0.045764 0.693644 0.863731
O O3 0.000000 0.951545 0.750000
O O4 0.058406 0.203641 0.830589
O O5 0.216204 0.140917 0.223628
O O6 0.204720 0.358619 0.415071
O O7 0.141614 0.477149 0.302290
O O8 0.118544 0.115153 0.442830
O O9 0.679850 0.707496 0.932364
O O10 0.750000 0.750000 0.000000
O O11 0.921480 0.652291 0.002467
#
# Coordination Sequence:
#
# PCOD9304581 Si02
#       5
#     8   8   8   8   8
#     4  12  28  49  77 108 139 188 246 300 368 428
#     4  11  23  45  66 109 148 192 240 285 358 435
#     4  11  24  39  68 103 145 193 236 291 348 423
#     4  11  26  46  73 103 149 193 236 298 359 424
#     4  11  26  49  73 106 148 182 241 302 358 431
#
# _framework density 24.478939
#
# number of rings (size 3 to 8) (size 9 to 14) (size 15 to 20)
#    0.000    0.800    4.000    1.800    8.400    2.400 
#    0.000    0.000    0.000    0.000    0.000    0.000 
#    0.000    0.000    0.000    0.000    0.000    0.000 
#
# Total GULP energy -111473.878083 kJ/mol
# GULP energy per Si atom -5573.693904 kJ/mol
# Density = 2.442322 g / cm^3
# Si number density = 24.478939 Si / 1000 Ang^3
#
#
#
# Elastic Constant Matrix: (Units=GPa)
#
#
# Indices 1 2 3 4 5 6 
#
# 1 136.2900 40.8431 6.9514 0.0000 22.0320 0.0000
# 2 40.8431 122.9632 6.1449 0.0000 9.6301 0.0000
# 3 6.9514 6.1449 44.2427 0.0000 -2.1141 0.0000
# 4 0.0000 0.0000 0.0000 14.6905 0.0000 14.9883
# 5 22.0320 9.6301 -2.1141 0.0000 37.2677 0.0000
# 6 0.0000 0.0000 0.0000 14.9883 0.0000 34.2422
#
#
#
# Elastic Compliance Matrix: (Units=1/GPa)
#
#
# Indices 1 2 3 4 5 6 
#
# 1 0.008919 -0.002532 -0.001274 0.000000 -0.004691 0.000000
# 2 -0.002532 0.009090 -0.000908 0.000000 -0.000904 0.000000
# 3 -0.001274 -0.000908 0.023038 0.000000 0.002295 0.000000
# 4 0.000000 0.000000 0.000000 0.123002 0.000000 -0.053840
# 5 -0.004691 -0.000904 0.002295 0.000000 0.029970 0.000000
# 6 0.000000 0.000000 0.000000 -0.053840 0.000000 0.052770
#
#
# Mechanical properties :
#
#
# Convention : Reuss Voigt Hill
#
# Bulk Modulus (GPa) = 31.62499 45.70829 38.66664
# Shear Modulus (GPa) = 18.74372 33.87720 26.31046
#
# Velocity S-wave (km/s) = 2.77014 3.72416 3.28200
# Velocity P-wave (km/s) = 4.81445 6.09963 5.49474
#
# Compressibility (1/GPa) = 0.03162056
#
# Stress axis : x y z
#
# Youngs Moduli (GPa) = 112.11715 110.01679 43.40561
#
# Poissons Ratio (x) = 0.27851 0.05530
# Poissons Ratio (y) = 0.28383 0.03941
# Poissons Ratio (z) = 0.14283 0.09988
#
# Static dielectric constant tensor:
#      x y z
#    x 1.961050 0.000000 0.024400 
#    y 0.000000 2.549420 0.000000 
#    z 0.024400 0.000000 1.929060 
# 
# From -- ./inp_files/124921.got.cif
#   From: 2010.05.17/outbox.cif.g08.bks.cpg/sg15_63_cif.got.tgz:124921.got - 2010.06.03 18:47:42.
