data_PCOD9304659
_publ_section_title
;
Structure prediction by ZEFSAII (Michael W. Deem and Ramdas Pophale) SiO2 
 PCOD9304659
Probable space group: C 2/C
;
_chemical_formula_sum "Si O2"
_cell_formula_units_Z 56
_cell_length_a 9.512920
_cell_length_b 10.637509
_cell_length_c 22.798003
_cell_angle_alpha 90.000000
_cell_angle_beta 106.012245
_cell_angle_gamma 90.000000
_cell_volume 2217.510084
_symmetry_space_group_name_H-M "C 2/C"
_symmetry_group_IT_number 15
_symmetry_cell_setting 'monoclinic'
loop_
_space_group_symop_operation_xyz
x,y,z
-x,y,1/2-z
-x,-y,-z
x,-y,1/2+z
1/2+x,1/2+y,z
1/2-x,1/2+y,1/2-z
1/2-x,1/2-y,-z
1/2+x,1/2-y,1/2+z
loop_
_atom_site_type_symbol
_atom_site_label
_atom_site_fract_x
_atom_site_fract_y
_atom_site_fract_z
Si Si1 0.782548 0.162882 0.727904
Si Si2 0.566957 0.321580 0.459773
Si Si3 0.130833 0.410019 0.032787
Si Si4 0.494301 0.313672 0.819070
Si Si5 0.325551 0.453877 0.358474
Si Si6 0.078117 0.354792 0.846375
Si Si7 0.268427 0.936051 0.845350
O O1 0.614139 0.194727 0.690978
O O2 0.802805 0.137953 0.799535
O O3 0.868941 0.269761 0.701934
O O4 0.824605 0.029786 0.705302
O O5 0.711793 0.406591 0.482031
O O6 0.565781 0.230403 0.516015
O O7 0.421948 0.392697 0.421613
O O8 0.598271 0.228083 0.407720
O O9 0.176738 0.470256 0.098858
O O10 0.000000 0.500000 0.000000
O O11 0.500000 0.328029 0.750000
O O12 0.417598 0.427191 0.844633
O O13 0.663864 0.325972 0.857612
O O14 0.173197 0.518027 0.359305
O O15 0.907855 0.389165 0.825817
#
# Coordination Sequence:
#
# PCOD9304659 Si02
#       7
#     8   8   8   8   8   8   8
#     4  11  26  44  67 101 144 182 228 282 356 421
#     4  11  24  45  74  96 138 187 234 290 364 415
#     4  11  23  45  73 101 134 188 237 300 354 413
#     4  11  24  44  65  97 139 184 223 284 345 420
#     4  11  25  46  69 103 144 181 235 286 355 425
#     4  11  26  44  71 103 136 186 231 287 345 424
#     4  12  24  46  70  99 141 178 241 290 346 422
#
# _framework density 25.253547999999999
#
# number of rings (size 3 to 8) (size 9 to 14) (size 15 to 20)
#    0.000    0.857    5.714    0.000    4.000    1.143 
#    0.000    5.000    0.000    0.000    0.000    0.000 
#    0.000    0.000    0.000    0.000    0.000    0.000 
#
# Total GULP energy -156472.583809 kJ/mol
# GULP energy per Si atom -5588.306565 kJ/mol
# Density = 2.519607 g / cm^3
# Si number density = 25.253548 Si / 1000 Ang^3
#
#
#
# Elastic Constant Matrix: (Units=GPa)
#
#
# Indices 1 2 3 4 5 6 
#
# 1 112.4135 49.0284 9.1870 0.0000 31.7637 0.0000
# 2 49.0284 81.5163 11.0608 0.0000 16.4663 0.0000
# 3 9.1870 11.0608 62.6983 0.0000 21.0960 0.0000
# 4 0.0000 0.0000 0.0000 16.1070 0.0000 -0.6058
# 5 31.7637 16.4663 21.0960 0.0000 37.3815 0.0000
# 6 0.0000 0.0000 0.0000 -0.6058 0.0000 49.1828
#
#
#
# Elastic Compliance Matrix: (Units=1/GPa)
#
#
# Indices 1 2 3 4 5 6 
#
# 1 0.014906 -0.007099 0.002812 0.000000 -0.011125 0.000000
# 2 -0.007099 0.016858 -0.001808 0.000000 -0.000373 0.000000
# 3 0.002812 -0.001808 0.020234 0.000000 -0.013012 0.000000
# 4 0.000000 0.000000 0.000000 0.062114 0.000000 0.000765
# 5 -0.011125 -0.000373 -0.013012 0.000000 0.043712 0.000000
# 6 0.000000 0.000000 0.000000 0.000765 0.000000 0.020342
#
#
# Mechanical properties :
#
#
# Convention : Reuss Voigt Hill
#
# Bulk Modulus (GPa) = 25.12160 43.90894 34.51527
# Shear Modulus (GPa) = 24.55473 33.02439 28.78956
#
# Velocity S-wave (km/s) = 3.12160 3.62015 3.38008
# Velocity P-wave (km/s) = 4.79185 5.90754 5.37870
#
# Compressibility (1/GPa) = 0.03980638
#
# Stress axis : x y z
#
# Youngs Moduli (GPa) = 67.08751 59.31843 49.42065
#
# Poissons Ratio (x) = 0.42113 -0.13895
# Poissons Ratio (y) = 0.47628 0.08937
# Poissons Ratio (z) = -0.18862 0.10726
#
# Static dielectric constant tensor:
#      x y z
#    x 2.034880 0.000000 0.019260 
#    y 0.000000 1.960700 0.000000 
#    z 0.019260 0.000000 2.014810 
# 
# From -- ./inp_files/307533.got.cif
#   From: 2010.05.17/outbox.cif.g08.bks.cpg/sg15_154_cif.got.tgz:307533.got - 2010.06.03 18:47:42.
