data_PCOD9304431
_publ_section_title
;
Structure prediction by ZEFSAII (Michael W. Deem and Ramdas Pophale) SiO2 
 PCOD9304431
Probable space group: C 2/C
;
_chemical_formula_sum "Si O2"
_cell_formula_units_Z 60
_cell_length_a 23.641632
_cell_length_b 11.590752
_cell_length_c 22.429389
_cell_angle_alpha 90.000000
_cell_angle_beta 27.783513
_cell_angle_gamma 90.000000
_cell_volume 2864.939816
_symmetry_space_group_name_H-M "C 2/C"
_symmetry_group_IT_number 15
_symmetry_cell_setting 'monoclinic'
loop_
_space_group_symop_operation_xyz
x,y,z
-x,y,1/2-z
-x,-y,-z
x,-y,1/2+z
1/2+x,1/2+y,z
1/2-x,1/2+y,1/2-z
1/2-x,1/2-y,-z
1/2+x,1/2-y,1/2+z
loop_
_atom_site_type_symbol
_atom_site_label
_atom_site_fract_x
_atom_site_fract_y
_atom_site_fract_z
Si Si1 0.892628 0.117946 0.893263
Si Si2 0.822857 0.174816 0.639412
Si Si3 0.000000 0.569379 0.750000
Si Si4 0.517763 0.543043 0.095021
Si Si5 0.939389 0.400146 0.517794
Si Si6 0.147976 0.372880 0.545566
Si Si7 0.736840 0.431565 0.185492
Si Si8 0.904133 0.291029 0.231904
O O1 0.764919 0.122185 0.979209
O O2 0.000000 0.077585 0.750000
O O3 0.891148 0.026865 0.947790
O O4 0.920009 0.250734 0.884972
O O5 0.910640 0.076760 0.531395
O O6 0.910469 0.279719 0.576302
O O7 0.749160 0.136933 0.766052
O O8 0.730338 0.206418 0.671746
O O9 0.069404 0.482177 0.640137
O O10 0.082749 0.651571 0.715057
O O11 0.404005 0.458673 0.192046
O O12 0.463974 0.662950 0.172516
O O13 0.807482 0.448795 0.625174
O O14 0.000000 0.500000 0.500000
O O15 0.016780 0.368735 0.387645
O O16 0.200761 0.375218 0.429714
#
# Coordination Sequence:
#
# PCOD9304431 Si02
#       8
#     8   8   4   8   8   8   8   8
#     4  11  23  45  68  95 138 178 223 285 328 396
#     4  11  25  44  68 101 136 176 226 278 333 403
#     4  12  24  42  70 102 136 180 224 274 336 402
#     4  11  25  45  68 101 135 176 228 275 335 396
#     4  11  23  44  67  94 135 175 220 273 335 396
#     4  11  25  43  67 100 134 177 228 275 336 398
#     4  12  23  43  70  97 134 176 221 277 338 397
#     4  11  24  43  68 100 137 177 223 277 328 403
#
# _framework density 20.942848000000001
#
# number of rings (size 3 to 8) (size 9 to 14) (size 15 to 20)
#    0.000    0.800    6.000    1.200    0.933    2.133 
#    4.800    2.667    0.000    0.000    0.000    0.000 
#    0.000    0.000    0.000    0.000    0.000    0.000 
#
# Total GULP energy -167492.499512 kJ/mol
# GULP energy per Si atom -5583.083317 kJ/mol
# Density = 2.089518 g / cm^3
# Si number density = 20.942848 Si / 1000 Ang^3
#
#
#
# Elastic Constant Matrix: (Units=GPa)
#
#
# Indices 1 2 3 4 5 6 
#
# 1 62.2668 46.8193 21.2948 -0.0001 16.3865 0.0000
# 2 46.8193 79.6149 13.9010 0.0000 18.0495 0.0000
# 3 21.2948 13.9010 67.3336 -0.0001 9.0136 0.0001
# 4 -0.0001 0.0000 -0.0001 40.2878 0.0001 -12.4823
# 5 16.3865 18.0495 9.0136 0.0001 24.2711 0.0000
# 6 0.0000 0.0000 0.0001 -12.4823 0.0000 28.1052
#
#
#
# Elastic Compliance Matrix: (Units=1/GPa)
#
#
# Indices 1 2 3 4 5 6 
#
# 1 0.032247 -0.016237 -0.005838 0.000000 -0.007528 0.000000
# 2 -0.016237 0.023471 0.001219 0.000000 -0.006944 0.000000
# 3 -0.005838 0.001219 0.016879 0.000000 -0.003233 0.000000
# 4 0.000000 0.000000 0.000000 0.028782 0.000000 0.012783
# 5 -0.007528 -0.006944 -0.003233 0.000000 0.052649 0.000000
# 6 0.000000 0.000000 0.000000 0.012783 0.000000 0.041258
#
#
# Mechanical properties :
#
#
# Convention : Reuss Voigt Hill
#
# Bulk Modulus (GPa) = 32.37971 41.47171 36.92571
# Shear Modulus (GPa) = 20.21899 27.01285 23.61592
#
# Velocity S-wave (km/s) = 3.11052 3.59533 3.36167
# Velocity P-wave (km/s) = 5.32869 6.08937 5.72169
#
# Compressibility (1/GPa) = 0.03088354
#
# Stress axis : x y z
#
# Youngs Moduli (GPa) = 31.01083 42.60632 59.24538
#
# Poissons Ratio (x) = 0.69182 0.34590
# Poissons Ratio (y) = 0.50353 -0.07224
# Poissons Ratio (z) = 0.18105 -0.05195
#
# Static dielectric constant tensor:
#      x y z
#    x 1.785470 0.000000 -0.007650 
#    y 0.000000 1.794350 0.000000 
#    z -0.007650 0.000000 1.751280 
# 
# From -- ./inp_files/255537.got.cif
#   From: 2010.05.17/outbox.cif.g08.bks.cpg/sg15_128_cif.got.tgz:255537.got - 2010.06.03 18:47:42.
