data_PCOD9304854
_publ_section_title
;
Structure prediction by ZEFSAII (Michael W. Deem and Ramdas Pophale) SiO2 
 PCOD9304854
Probable space group: C 2/C
;
_chemical_formula_sum "Si O2"
_cell_formula_units_Z 32
_cell_length_a 22.651523
_cell_length_b 12.358925
_cell_length_c 9.836342
_cell_angle_alpha 90.000000
_cell_angle_beta 28.277072
_cell_angle_gamma 90.000000
_cell_volume 1304.511640
_symmetry_space_group_name_H-M "C 2/C"
_symmetry_group_IT_number 15
_symmetry_cell_setting 'monoclinic'
loop_
_space_group_symop_operation_xyz
x,y,z
-x,y,1/2-z
-x,-y,-z
x,-y,1/2+z
1/2+x,1/2+y,z
1/2-x,1/2+y,1/2-z
1/2-x,1/2-y,-z
1/2+x,1/2-y,1/2+z
loop_
_atom_site_type_symbol
_atom_site_label
_atom_site_fract_x
_atom_site_fract_y
_atom_site_fract_z
Si Si1 0.376248 0.958643 0.429674
Si Si2 0.259477 0.638869 0.905597
Si Si3 0.831074 0.220262 0.466548
Si Si4 0.610868 0.479613 0.130843
O O1 0.401731 0.833410 0.343249
O O2 0.345928 0.046098 0.374400
O O3 0.243590 0.959257 0.781446
O O4 0.500000 0.000234 0.250000
O O5 0.262878 0.684940 0.744460
O O6 0.370523 0.580941 0.764047
O O7 0.250000 0.750000 0.000000
O O8 0.750000 0.250000 0.500000
O O9 0.899768 0.106458 0.309802
O O10 0.500000 0.449683 0.250000
#
# Coordination Sequence:
#
# PCOD9304854 Si02
#       4
#     8   8   8   8
#     4  11  25  47  72 109 145 190 242 306 366 434
#     4  11  24  47  72 109 147 194 247 303 370 440
#     4  11  23  47  74 107 146 195 247 305 367 441
#     4  11  25  48  74 108 148 195 247 305 368 435
#
# _framework density 24.530252000000001
#
# number of rings (size 3 to 8) (size 9 to 14) (size 15 to 20)
#    0.000    1.000    5.000    0.750    0.000    6.000 
#    4.500    0.000    0.000    0.000    0.000    0.000 
#    0.000    0.000    0.000    0.000    0.000    0.000 
#
# Total GULP energy -89126.399769 kJ/mol
# GULP energy per Si atom -5570.399986 kJ/mol
# Density = 2.447442 g / cm^3
# Si number density = 24.530252 Si / 1000 Ang^3
#
#
#
# Elastic Constant Matrix: (Units=GPa)
#
#
# Indices 1 2 3 4 5 6 
#
# 1 188.0271 41.1234 50.4961 0.0000 -50.7903 0.0000
# 2 41.1234 203.2148 17.3805 0.0000 -21.2404 0.0000
# 3 50.4961 17.3805 108.3760 0.0000 -38.4170 0.0000
# 4 0.0000 0.0000 0.0000 0.6329 0.0000 -8.6353
# 5 -50.7903 -21.2404 -38.4170 0.0000 48.8127 0.0000
# 6 0.0000 0.0000 0.0000 -8.6353 0.0000 74.7147
#
#
#
# Elastic Compliance Matrix: (Units=1/GPa)
#
#
# Indices 1 2 3 4 5 6 
#
# 1 0.007581 -0.000740 -0.001015 0.000000 0.006767 0.000000
# 2 -0.000740 0.005228 0.000055 0.000000 0.001548 0.000000
# 3 -0.001015 0.000055 0.012934 0.000000 0.009147 0.000000
# 4 0.000000 0.000000 0.000000 -2.738524 0.000000 -0.316509
# 5 0.006767 0.001548 0.009147 0.000000 0.035401 0.000000
# 6 0.000000 0.000000 0.000000 -0.316509 0.000000 -0.023197
#
#
# Mechanical properties :
#
#
# Convention : Reuss Voigt Hill
#
# Bulk Modulus (GPa) = 44.75572 79.73532 62.24552
# Shear Modulus (GPa) = -1.85892 50.87325 24.50716
#
# Velocity S-wave (km/s) = -0.87147 4.55895 3.16422
# Velocity P-wave (km/s) = 4.15597 7.76450 6.22734
#
# Compressibility (1/GPa) = 0.02234351
#
# Stress axis : x y z
#
# Youngs Moduli (GPa) = 131.91403 191.28670 77.31806
#
# Poissons Ratio (x) = 0.14154 0.07844
# Poissons Ratio (y) = 0.09761 -0.00427
# Poissons Ratio (z) = 0.13383 -0.01057
#
# Static dielectric constant tensor:
#      x y z
#    x 2.036060 0.000000 0.142440 
#    y 0.000000 1.940210 0.000000 
#    z 0.142440 0.000000 2.058220 
# 
# From -- ./inp_files/111334.got.cif
#   From: 2010.05.17/outbox.cif.g08.bks.cpg/sg15_56_cif.got.tgz:111334.got - 2010.06.03 18:47:42.
