data_PCOD9304985
_publ_section_title
;
Structure prediction by ZEFSAII (Michael W. Deem and Ramdas Pophale) SiO2 
 PCOD9304985
Probable space group: C 2/C
;
_chemical_formula_sum "Si O2"
_cell_formula_units_Z 52
_cell_length_a 17.459840
_cell_length_b 5.224970
_cell_length_c 25.793678
_cell_angle_alpha 90.000000
_cell_angle_beta 114.792669
_cell_angle_gamma 90.000000
_cell_volume 2136.202458
_symmetry_space_group_name_H-M "C 2/C"
_symmetry_group_IT_number 15
_symmetry_cell_setting 'monoclinic'
loop_
_space_group_symop_operation_xyz
x,y,z
-x,y,1/2-z
-x,-y,-z
x,-y,1/2+z
1/2+x,1/2+y,z
1/2-x,1/2+y,1/2-z
1/2-x,1/2-y,-z
1/2+x,1/2-y,1/2+z
loop_
_atom_site_type_symbol
_atom_site_label
_atom_site_fract_x
_atom_site_fract_y
_atom_site_fract_z
Si Si1 0.500000 0.799513 0.750000
Si Si2 0.988350 0.046839 0.593125
Si Si3 0.465791 0.060098 0.639560
Si Si4 0.201688 0.997876 0.467258
Si Si5 0.799061 0.293153 0.130622
Si Si6 0.328050 0.591730 0.348000
Si Si7 0.673318 0.539253 0.773263
O O1 0.588677 0.653908 0.774303
O O2 0.510420 0.973225 0.703190
O O3 0.995341 0.350282 0.605603
O O4 0.974813 0.865637 0.639520
O O5 0.896285 0.004858 0.541530
O O6 0.075304 0.904042 0.602964
O O7 0.366046 0.030030 0.620045
O O8 0.250000 0.250000 0.500000
O O9 0.206282 0.041159 0.406285
O O10 0.250000 0.750000 0.500000
O O11 0.713297 0.434598 0.117053
O O12 0.824851 0.233700 0.197317
O O13 0.334351 0.466274 0.291523
O O14 0.261652 0.822131 0.315760
#
# Coordination Sequence:
#
# PCOD9304985 Si02
#       7
#     4   8   8   8   8   8   8
#     4  12  22  38  64  94 142 192 256 260 328 414
#     4  11  26  45  71 103 140 180 236 300 354 422
#     4  11  24  40  65  99 139 186 239 279 332 414
#     4  11  25  50  79 101 129 180 252 309 358 410
#     4  11  26  44  70 102 143 187 239 294 353 424
#     4  12  26  42  65 107 156 189 226 280 366 432
#     4  12  26  43  65 106 153 202 230 282 346 445
#
# _framework density 24.342262999999999
#
# number of rings (size 3 to 8) (size 9 to 14) (size 15 to 20)
#    0.000    0.615    4.615    3.692    8.615    0.615 
#    0.000    1.538    0.000    0.000    0.000    0.000 
#    0.000    0.000    0.000    0.000    0.000    0.000 
#
# Total GULP energy -144755.889657 kJ/mol
# GULP energy per Si atom -5567.534218 kJ/mol
# Density = 2.428686 g / cm^3
# Si number density = 24.342263 Si / 1000 Ang^3
#
#
#
# Elastic Constant Matrix: (Units=GPa)
#
#
# Indices 1 2 3 4 5 6 
#
# 1 112.4182 19.7604 23.0948 -0.0001 35.5511 0.0001
# 2 19.7604 84.0822 10.8500 0.0000 12.0518 0.0003
# 3 23.0948 10.8500 42.2645 0.0000 24.7557 0.0000
# 4 -0.0001 0.0000 0.0000 21.6759 0.0000 -6.6691
# 5 35.5511 12.0518 24.7557 0.0000 47.8892 0.0000
# 6 0.0001 0.0003 0.0000 -6.6691 0.0000 18.8466
#
#
#
# Elastic Compliance Matrix: (Units=1/GPa)
#
#
# Indices 1 2 3 4 5 6 
#
# 1 0.011904 -0.001493 -0.001671 0.000000 -0.007597 0.000000
# 2 -0.001493 0.012637 -0.001742 0.000000 -0.001171 0.000000
# 3 -0.001671 -0.001742 0.034477 0.000000 -0.016143 0.000000
# 4 0.000000 0.000000 0.000000 0.051771 0.000000 0.018320
# 5 -0.007597 -0.001171 -0.016143 0.000000 0.035161 0.000000
# 6 0.000000 0.000000 0.000000 0.018320 0.000000 0.059543
#
#
# Mechanical properties :
#
#
# Convention : Reuss Voigt Hill
#
# Bulk Modulus (GPa) = 20.32371 38.46392 29.39381
# Shear Modulus (GPa) = 21.57911 30.01965 25.79938
#
# Velocity S-wave (km/s) = 2.98062 3.51555 3.25908
# Velocity P-wave (km/s) = 4.49586 5.68457 5.12480
#
# Compressibility (1/GPa) = 0.04920363
#
# Stress axis : x y z
#
# Youngs Moduli (GPa) = 84.00783 79.13470 29.00522
#
# Poissons Ratio (x) = 0.11814 0.04848
# Poissons Ratio (y) = 0.12542 0.05053
# Poissons Ratio (z) = 0.14042 0.13787
#
# Static dielectric constant tensor:
#      x y z
#    x 2.062490 0.000000 0.080320 
#    y 0.000000 1.980790 0.000000 
#    z 0.080320 0.000000 2.086120 
# 
# From -- ./inp_files/297846.got.cif
#   From: 2010.05.17/outbox.cif.g08.bks.cpg/sg15_149_cif.got.tgz:297846.got - 2010.06.03 18:47:42.
