data_PCOD9304015
_publ_section_title
;
Structure prediction by ZEFSAII (Michael W. Deem and Ramdas Pophale) SiO2 
 PCOD9304015
Probable space group: C 2/C
;
_chemical_formula_sum "Si O2"
_cell_formula_units_Z 56
_cell_length_a 12.706577
_cell_length_b 15.700058
_cell_length_c 30.158543
_cell_angle_alpha 90.000000
_cell_angle_beta 27.588247
_cell_angle_gamma 90.000000
_cell_volume 2786.302859
_symmetry_space_group_name_H-M "C 2/C"
_symmetry_group_IT_number 15
_symmetry_cell_setting 'monoclinic'
loop_
_space_group_symop_operation_xyz
x,y,z
-x,y,1/2-z
-x,-y,-z
x,-y,1/2+z
1/2+x,1/2+y,z
1/2-x,1/2+y,1/2-z
1/2-x,1/2-y,-z
1/2+x,1/2-y,1/2+z
loop_
_atom_site_type_symbol
_atom_site_label
_atom_site_fract_x
_atom_site_fract_y
_atom_site_fract_z
Si Si1 0.069551 0.993999 0.592587
Si Si2 0.837805 0.106588 0.353213
Si Si3 0.638087 0.844784 0.504970
Si Si4 0.416869 0.074572 0.230693
Si Si5 0.288526 0.456397 0.053463
Si Si6 0.984064 0.300188 0.308391
Si Si7 0.047388 0.256735 0.837010
O O1 0.124085 0.957106 0.620521
O O2 0.163845 0.941154 0.515867
O O3 0.801513 0.985833 0.687304
O O4 0.183458 0.085669 0.544128
O O5 0.572260 0.109599 0.440049
O O6 0.903773 0.202416 0.343377
O O7 0.000000 0.087164 0.250000
O O8 0.517842 0.793632 0.589895
O O9 0.806606 0.785487 0.412944
O O10 0.500000 0.083661 0.250000
O O11 0.380744 0.166504 0.221968
O O12 0.595052 0.026302 0.133338
O O13 0.196916 0.368143 0.107036
O O14 0.500000 0.500000 0.000000
O O15 0.000000 0.315363 0.250000
O O16 0.233486 0.303591 0.237955
#
# Coordination Sequence:
#
# PCOD9304015 Si02
#       7
#     8   8   8   8   8   8   8
#     4  12  25  44  69  97 137 177 223 280 341 395
#     4  11  23  45  68  96 135 178 222 281 335 405
#     4  11  23  41  70  97 126 177 234 270 324 414
#     4  12  24  44  64  98 141 171 220 286 339 391
#     4  12  27  40  67 103 133 177 222 277 338 407
#     4  11  23  43  69  96 133 176 219 273 342 396
#     4  11  23  43  69  96 132 179 226 273 332 407
#
# _framework density 20.098317999999999
#
# number of rings (size 3 to 8) (size 9 to 14) (size 15 to 20)
#    0.000    0.571    7.143    1.714    4.000    0.571 
#    2.571    0.714    0.000    0.000    0.000    0.000 
#    0.000    0.000    0.000    0.000    0.000    0.000 
#
# Total GULP energy -156351.847992 kJ/mol
# GULP energy per Si atom -5583.994571 kJ/mol
# Density = 2.005257 g / cm^3
# Si number density = 20.098318 Si / 1000 Ang^3
#
#
#
# Elastic Constant Matrix: (Units=GPa)
#
#
# Indices 1 2 3 4 5 6 
#
# 1 62.6271 1.0166 34.8790 -0.0162 -5.5635 0.0022
# 2 1.0166 46.2805 31.0664 0.0012 11.0810 0.0061
# 3 34.8790 31.0664 114.6694 0.0212 -13.8453 -0.0303
# 4 -0.0162 0.0012 0.0212 44.3022 0.0016 -5.3666
# 5 -5.5635 11.0810 -13.8453 0.0016 34.4119 -0.0134
# 6 0.0022 0.0061 -0.0303 -5.3666 -0.0134 8.2702
#
#
#
# Elastic Compliance Matrix: (Units=1/GPa)
#
#
# Indices 1 2 3 4 5 6 
#
# 1 0.020001 0.005022 -0.007619 0.000007 -0.001449 -0.000035
# 2 0.005022 0.033369 -0.012368 -0.000005 -0.014910 -0.000098
# 3 -0.007619 -0.012368 0.015473 0.000000 0.008976 0.000082
# 4 0.000007 -0.000005 0.000000 0.024498 0.000008 0.015897
# 5 -0.001449 -0.014910 0.008976 0.000008 0.037238 0.000110
# 6 -0.000035 -0.000098 0.000082 0.015897 0.000110 0.131232
#
#
# Mechanical properties :
#
#
# Convention : Reuss Voigt Hill
#
# Bulk Modulus (GPa) = 25.69894 39.72234 32.71064
# Shear Modulus (GPa) = 16.40892 27.83785 22.12339
#
# Velocity S-wave (km/s) = 2.86043 3.72571 3.32137
# Velocity P-wave (km/s) = 4.87071 6.18989 5.56950
#
# Compressibility (1/GPa) = 0.03891211
#
# Stress axis : x y z
#
# Youngs Moduli (GPa) = 49.99840 29.96775 64.62915
#
# Poissons Ratio (x) = -0.15050 0.49242
# Poissons Ratio (y) = -0.25110 0.79935
# Poissons Ratio (z) = 0.38095 0.37065
#
# Static dielectric constant tensor:
#      x y z
#    x 1.714000 -0.000010 -0.032980 
#    y -0.000010 1.755320 -0.000050 
#    z -0.032980 -0.000050 1.720930 
# 
# From -- ./inp_files/311307.got.cif
#   From: 2010.05.17/outbox.cif.g08.bks.cpg/sg15_156_cif.got.tgz:311307.got - 2010.06.03 18:47:42.
