data_PCOD9304844
_publ_section_title
;
Structure prediction by ZEFSAII (Michael W. Deem and Ramdas Pophale) SiO2 
 PCOD9304844
Probable space group: C 2/C
;
_chemical_formula_sum "Si O2"
_cell_formula_units_Z 40
_cell_length_a 14.117830
_cell_length_b 11.606338
_cell_length_c 14.951823
_cell_angle_alpha 90.000000
_cell_angle_beta 44.740084
_cell_angle_gamma 90.000000
_cell_volume 1724.500076
_symmetry_space_group_name_H-M "C 2/C"
_symmetry_group_IT_number 15
_symmetry_cell_setting 'monoclinic'
loop_
_space_group_symop_operation_xyz
x,y,z
-x,y,1/2-z
-x,-y,-z
x,-y,1/2+z
1/2+x,1/2+y,z
1/2-x,1/2+y,1/2-z
1/2-x,1/2-y,-z
1/2+x,1/2-y,1/2+z
loop_
_atom_site_type_symbol
_atom_site_label
_atom_site_fract_x
_atom_site_fract_y
_atom_site_fract_z
Si Si1 0.321472 0.521204 0.614812
Si Si2 0.666179 0.771275 0.967321
Si Si3 0.256386 0.113339 0.505567
Si Si4 0.622451 0.453330 0.733306
Si Si5 0.514026 0.972833 0.386082
O O1 0.355301 0.652922 0.568900
O O2 0.319375 0.443817 0.527514
O O3 0.404170 0.477699 0.645123
O O4 0.164611 0.517215 0.751185
O O5 0.760736 0.857855 0.848502
O O6 0.750000 0.750000 0.000000
O O7 0.535298 0.840814 0.086591
O O8 0.250000 0.250000 0.500000
O O9 0.183121 0.067321 0.644408
O O10 0.405957 0.056727 0.410151
O O11 0.500000 0.417941 0.750000
O O12 0.500000 0.000000 0.500000
#
# Coordination Sequence:
#
# PCOD9304844 Si02
#       5
#     8   8   8   8   8
#     4  12  25  46  77 100 142 197 230 295 366 412
#     4  11  24  45  71 104 136 182 242 292 342 423
#     4  11  26  45  66 107 141 181 240 288 358 428
#     4  11  27  46  65 104 144 181 237 294 350 421
#     4  11  23  47  73 102 142 183 240 289 352 433
#
# _framework density 23.195128
#
# number of rings (size 3 to 8) (size 9 to 14) (size 15 to 20)
#    0.000    0.800    8.000    0.600    5.600    4.000 
#    0.000    0.000    0.000    0.000    0.000    0.000 
#    0.000    0.000    0.000    0.000    0.000    0.000 
#
# Total GULP energy -111996.133916 kJ/mol
# GULP energy per Si atom -5599.806696 kJ/mol
# Density = 2.314233 g / cm^3
# Si number density = 23.195128 Si / 1000 Ang^3
#
#
#
# Elastic Constant Matrix: (Units=GPa)
#
#
# Indices 1 2 3 4 5 6 
#
# 1 150.0967 50.2277 40.1656 0.0000 9.1550 0.0000
# 2 50.2277 175.9749 36.8349 0.0000 12.2471 0.0000
# 3 40.1656 36.8349 45.4774 0.0000 11.6183 0.0000
# 4 0.0000 0.0000 0.0000 30.1931 0.0000 9.6249
# 5 9.1550 12.2471 11.6183 0.0000 62.8608 0.0000
# 6 0.0000 0.0000 0.0000 9.6249 0.0000 24.6920
#
#
#
# Elastic Compliance Matrix: (Units=1/GPa)
#
#
# Indices 1 2 3 4 5 6 
#
# 1 0.008893 -0.001081 -0.007034 0.000000 0.000215 0.000000
# 2 -0.001081 0.006980 -0.004610 0.000000 -0.000351 0.000000
# 3 -0.007034 -0.004610 0.033002 0.000000 -0.004177 0.000000
# 4 0.000000 0.000000 0.000000 0.037819 0.000000 -0.014742
# 5 0.000215 -0.000351 -0.004177 0.000000 0.016717 0.000000
# 6 0.000000 0.000000 0.000000 -0.014742 0.000000 0.046245
#
#
# Mechanical properties :
#
#
# Convention : Reuss Voigt Hill
#
# Bulk Modulus (GPa) = 42.68643 69.55614 56.12129
# Shear Modulus (GPa) = 27.33498 39.83725 33.58611
#
# Velocity S-wave (km/s) = 3.43662 4.14875 3.80936
# Velocity P-wave (km/s) = 5.84725 7.28025 6.60274
#
# Compressibility (1/GPa) = 0.02342665
#
# Stress axis : x y z
#
# Youngs Moduli (GPa) = 112.44467 143.25729 30.30108
#
# Poissons Ratio (x) = 0.15486 0.21314
# Poissons Ratio (y) = 0.12155 0.13968
# Poissons Ratio (z) = 0.79094 0.66036
#
# Static dielectric constant tensor:
#      x y z
#    x 1.896040 0.000000 -0.063710 
#    y 0.000000 1.840780 0.000000 
#    z -0.063710 0.000000 1.940400 
# 
# From -- ./inp_files/151659.got.cif
#   From: 2010.05.17/outbox.cif.g08.bks.cpg/sg15_76_cif.got.tgz:151659.got - 2010.06.03 18:47:42.
