data_PCOD9304436
_publ_section_title
;
Structure prediction by ZEFSAII (Michael W. Deem and Ramdas Pophale) SiO2 
 PCOD9304436
Probable space group: C 2/C
;
_chemical_formula_sum "Si O2"
_cell_formula_units_Z 56
_cell_length_a 11.178203
_cell_length_b 9.171280
_cell_length_c 25.717138
_cell_angle_alpha 90.000000
_cell_angle_beta 120.214750
_cell_angle_gamma 90.000000
_cell_volume 2278.302262
_symmetry_space_group_name_H-M "C 2/C"
_symmetry_group_IT_number 15
_symmetry_cell_setting 'monoclinic'
loop_
_space_group_symop_operation_xyz
x,y,z
-x,y,1/2-z
-x,-y,-z
x,-y,1/2+z
1/2+x,1/2+y,z
1/2-x,1/2+y,1/2-z
1/2-x,1/2-y,-z
1/2+x,1/2-y,1/2+z
loop_
_atom_site_type_symbol
_atom_site_label
_atom_site_fract_x
_atom_site_fract_y
_atom_site_fract_z
Si Si1 0.757310 0.429657 0.349179
Si Si2 0.625724 0.656687 0.383577
Si Si3 0.482450 0.222329 0.162349
Si Si4 0.846877 0.010064 0.784344
Si Si5 0.611280 0.071573 0.811692
Si Si6 0.603711 0.832672 0.970095
Si Si7 0.460582 0.835084 0.048858
O O1 0.744494 0.544926 0.393240
O O2 0.648284 0.305726 0.341073
O O3 0.712652 0.512113 0.286602
O O4 0.908403 0.362181 0.383586
O O5 0.483358 0.582146 0.330140
O O6 0.658419 0.808691 0.362568
O O7 0.614486 0.698238 0.441302
O O8 0.610610 0.318790 0.208134
O O9 0.475326 0.221901 0.098654
O O10 0.471634 0.059415 0.179843
O O11 0.733642 0.002657 0.804534
O O12 0.500000 0.148154 0.750000
O O13 0.614937 0.008486 0.968092
O O14 0.750000 0.750000 0.000000
O O15 0.523368 0.802087 0.006067
#
# Coordination Sequence:
#
# PCOD9304436 Si02
#       7
#     8   8   8   8   8   8   8
#     4  11  23  44  68 100 143 177 221 277 345 411
#     4  11  24  42  65 102 139 172 222 275 335 411
#     4  11  23  45  68  97 136 180 226 281 339 399
#     4  11  26  42  66 103 144 180 216 277 348 411
#     4  12  24  39  67  99 134 177 225 269 328 413
#     4  11  24  46  73  96 131 180 237 285 333 397
#     4  11  24  45  72  96 131 183 223 284 348 387
#
# _framework density 24.579706000000002
#
# number of rings (size 3 to 8) (size 9 to 14) (size 15 to 20)
#    0.000    0.857    2.857    5.143    2.000    2.286 
#    0.000    7.143    0.000    0.000    0.000    0.000 
#    0.000    0.000    0.000    0.000    0.000    0.000 
#
# Total GULP energy -156899.574770 kJ/mol
# GULP energy per Si atom -5603.556242 kJ/mol
# Density = 2.452376 g / cm^3
# Si number density = 24.579706 Si / 1000 Ang^3
#
#
#
# Elastic Constant Matrix: (Units=GPa)
#
#
# Indices 1 2 3 4 5 6 
#
# 1 77.6376 22.6718 27.9630 0.0000 -21.4715 0.0000
# 2 22.6718 79.9127 6.6514 0.0000 -19.1289 0.0000
# 3 27.9630 6.6514 100.3391 0.0000 -17.9389 0.0000
# 4 0.0000 0.0000 0.0000 33.0826 0.0000 -7.4644
# 5 -21.4715 -19.1289 -17.9389 0.0000 38.2953 0.0000
# 6 0.0000 0.0000 0.0000 -7.4644 0.0000 44.9062
#
#
#
# Elastic Compliance Matrix: (Units=1/GPa)
#
#
# Indices 1 2 3 4 5 6 
#
# 1 0.016687 -0.002943 -0.003324 0.000000 0.006329 0.000000
# 2 -0.002943 0.014744 0.000943 0.000000 0.006157 0.000000
# 3 -0.003324 0.000943 0.011548 0.000000 0.004017 0.000000
# 4 0.000000 0.000000 0.000000 0.031405 0.000000 0.005220
# 5 0.006329 0.006157 0.004017 0.000000 0.034619 0.000000
# 6 0.000000 0.000000 0.000000 0.005220 0.000000 0.023136
#
#
# Mechanical properties :
#
#
# Convention : Reuss Voigt Hill
#
# Bulk Modulus (GPa) = 30.92794 41.38463 36.15628
# Shear Modulus (GPa) = 32.55986 36.63036 34.59511
#
# Velocity S-wave (km/s) = 3.64354 3.86459 3.75569
# Velocity P-wave (km/s) = 5.50550 6.06522 5.79212
#
# Compressibility (1/GPa) = 0.03233323
#
# Stress axis : x y z
#
# Youngs Moduli (GPa) = 59.92589 67.82553 86.59377
#
# Poissons Ratio (x) = 0.19958 0.28782
# Poissons Ratio (y) = 0.17633 -0.08169
# Poissons Ratio (z) = 0.19918 -0.06399
#
# Static dielectric constant tensor:
#      x y z
#    x 1.935240 0.000000 0.001840 
#    y 0.000000 1.903140 0.000000 
#    z 0.001840 0.000000 1.989340 
# 
# From -- ./inp_files/291609.got.cif
#   From: 2010.05.17/outbox.cif.g08.bks.cpg/sg15_146_cif.got.tgz:291609.got - 2010.06.03 18:47:42.
