data_PCOD9304218
_publ_section_title
;
Structure prediction by ZEFSAII (Michael W. Deem and Ramdas Pophale) SiO2 
 PCOD9304218
Probable space group: C 2/C
;
_chemical_formula_sum "Si O2"
_cell_formula_units_Z 48
_cell_length_a 30.848288
_cell_length_b 4.859855
_cell_length_c 13.772541
_cell_angle_alpha 90.000000
_cell_angle_beta 56.722918
_cell_angle_gamma 90.000000
_cell_volume 1726.190429
_symmetry_space_group_name_H-M "C 2/C"
_symmetry_group_IT_number 15
_symmetry_cell_setting 'monoclinic'
loop_
_space_group_symop_operation_xyz
x,y,z
-x,y,1/2-z
-x,-y,-z
x,-y,1/2+z
1/2+x,1/2+y,z
1/2-x,1/2+y,1/2-z
1/2-x,1/2-y,-z
1/2+x,1/2-y,1/2+z
loop_
_atom_site_type_symbol
_atom_site_label
_atom_site_fract_x
_atom_site_fract_y
_atom_site_fract_z
Si Si1 0.818495 0.306290 0.192022
Si Si2 0.661552 0.088167 0.614806
Si Si3 0.513286 0.467070 0.126127
Si Si4 0.611087 0.295555 0.413554
Si Si5 0.449334 0.942294 0.171105
Si Si6 0.711522 0.384460 0.968816
O O1 0.809528 0.407437 0.313879
O O2 0.849403 0.556418 0.103874
O O3 0.779806 0.193974 0.155406
O O4 0.853873 0.039951 0.170359
O O5 0.694830 0.305681 0.511831
O O6 0.600438 0.145131 0.703746
O O7 0.661420 0.789315 0.566387
O O8 0.500000 0.572224 0.250000
O O9 0.571999 0.547161 0.032325
O O10 0.494808 0.151505 0.148051
O O11 0.476574 0.662011 0.105084
O O12 0.577620 0.122147 0.378812
O O13 0.750000 0.250000 0.000000
#
# Coordination Sequence:
#
# PCOD9304218 Si02
#       6
#     8   8   8   8   8   8
#     4  11  25  45  70 104 136 184 234 282 350 418
#     4  11  25  46  72 101 140 183 229 285 349 418
#     4  12  25  37  62 101 137 178 231 286 333 395
#     4  11  23  43  66  95 135 185 232 283 336 403
#     4  11  23  43  64  92 136 186 228 279 340 401
#     4  12  27  46  75 106 138 178 225 292 360 427
#
# _framework density 27.806895999999998
#
# number of rings (size 3 to 8) (size 9 to 14) (size 15 to 20)
#    0.000    0.667    0.000    9.000    7.000    1.333 
#    0.000    0.000    0.000    0.000    0.000    0.000 
#    0.000    0.000    0.000    0.000    0.000    0.000 
#
# Total GULP energy -134279.607641 kJ/mol
# GULP energy per Si atom -5594.983652 kJ/mol
# Density = 2.774361 g / cm^3
# Si number density = 27.806896 Si / 1000 Ang^3
#
#
#
# Elastic Constant Matrix: (Units=GPa)
#
#
# Indices 1 2 3 4 5 6 
#
# 1 70.5682 37.6857 32.8207 0.0000 30.3937 0.0000
# 2 37.6857 158.9986 11.3998 -0.0001 1.9820 0.0000
# 3 32.8207 11.3998 64.0051 0.0000 15.3627 0.0000
# 4 0.0000 -0.0001 0.0000 50.9783 0.0000 -2.0983
# 5 30.3937 1.9820 15.3627 0.0000 43.1271 0.0000
# 6 0.0000 0.0000 0.0000 -2.0983 0.0000 52.8172
#
#
#
# Elastic Compliance Matrix: (Units=1/GPa)
#
#
# Indices 1 2 3 4 5 6 
#
# 1 0.029198 -0.006003 -0.009874 0.000000 -0.016784 0.000000
# 2 -0.006003 0.007606 0.000866 0.000000 0.003573 0.000000
# 3 -0.009874 0.000866 0.020637 0.000000 -0.000432 0.000000
# 4 0.000000 0.000000 0.000000 0.019648 0.000000 0.000781
# 5 -0.016784 0.003573 -0.000432 0.000000 0.035005 0.000000
# 6 0.000000 0.000000 0.000000 0.000781 0.000000 0.018964
#
#
# Mechanical properties :
#
#
# Convention : Reuss Voigt Hill
#
# Bulk Modulus (GPa) = 36.47358 50.82047 43.64702
# Shear Modulus (GPa) = 29.37375 43.49556 36.43466
#
# Velocity S-wave (km/s) = 3.25368 3.95929 3.62370
# Velocity P-wave (km/s) = 5.22115 6.26236 5.76531
#
# Compressibility (1/GPa) = 0.02741711
#
# Stress axis : x y z
#
# Youngs Moduli (GPa) = 34.24902 131.48193 48.45756
#
# Poissons Ratio (x) = 0.78932 0.47849
# Poissons Ratio (y) = 0.20561 -0.04198
# Poissons Ratio (z) = 0.33819 -0.11389
#
# Static dielectric constant tensor:
#      x y z
#    x 2.363790 0.000000 0.031700 
#    y 0.000000 2.122470 0.000000 
#    z 0.031700 0.000000 2.218090 
# 
# From -- ./inp_files/180017.got.cif
#   From: 2010.05.17/outbox.cif.g08.bks.cpg/sg15_91_cif.got.tgz:180017.got - 2010.06.03 18:47:42.
