data_PCOD9304953
_publ_section_title
;
Structure prediction by ZEFSAII (Michael W. Deem and Ramdas Pophale) SiO2 
 PCOD9304953
Probable space group: C 2/C
;
_chemical_formula_sum "Si O2"
_cell_formula_units_Z 52
_cell_length_a 4.892855
_cell_length_b 13.749098
_cell_length_c 30.246991
_cell_angle_alpha 90.000000
_cell_angle_beta 80.457066
_cell_angle_gamma 90.000000
_cell_volume 2006.627866
_symmetry_space_group_name_H-M "C 2/C"
_symmetry_group_IT_number 15
_symmetry_cell_setting 'monoclinic'
loop_
_space_group_symop_operation_xyz
x,y,z
-x,y,1/2-z
-x,-y,-z
x,-y,1/2+z
1/2+x,1/2+y,z
1/2-x,1/2+y,1/2-z
1/2-x,1/2-y,-z
1/2+x,1/2-y,1/2+z
loop_
_atom_site_type_symbol
_atom_site_label
_atom_site_fract_x
_atom_site_fract_y
_atom_site_fract_z
Si Si1 0.537880 0.897090 0.439391
Si Si2 0.144480 0.723869 0.704501
Si Si3 0.487997 0.267300 0.115797
Si Si4 0.060207 0.328020 0.529667
Si Si5 0.437117 0.522857 0.075740
Si Si6 0.791502 0.120339 0.163033
Si Si7 0.500000 0.881405 0.750000
O O1 0.730345 0.821229 0.407321
O O2 0.410976 0.869140 0.490300
O O3 0.285195 0.935233 0.417076
O O4 0.765879 0.980342 0.445067
O O5 0.335892 0.678441 0.660791
O O6 0.310083 0.808453 0.726498
O O7 0.000000 0.668856 0.750000
O O8 0.927899 0.783823 0.680456
O O9 0.373309 0.226680 0.071562
O O10 0.557868 0.164449 0.137544
O O11 0.250000 0.250000 0.500000
O O12 0.277235 0.401314 0.548052
O O13 0.477104 0.562504 0.124134
O O14 0.674549 0.062897 0.208332
#
# Coordination Sequence:
#
# PCOD9304953 Si02
#       7
#     8   8   8   8   8   8   4
#     4  11  24  41  58  90 129 167 203 253 311 371
#     4   9  17  33  62  93 116 149 207 265 308 360
#     4   9  20  37  60  88 119 159 209 253 306 366
#     4   9  20  42  61  91 120 167 212 261 297 367
#     4  11  24  39  62  88 129 166 204 252 316 368
#     4   9  19  34  61  85 115 158 206 257 304 372
#     4   8  16  32  56  90 110 146 200 262 302 360
#
# _framework density 25.91412
#
# number of rings (size 3 to 8) (size 9 to 14) (size 15 to 20)
#    0.000    2.462    0.000    0.923    8.615    0.000 
#    2.769    3.077    1.692    0.000    0.000    0.000 
#    0.000    0.000    0.000    0.000    0.000    0.000 
#
# Total GULP energy -145011.186365 kJ/mol
# GULP energy per Si atom -5577.353322 kJ/mol
# Density = 2.585514 g / cm^3
# Si number density = 25.914120 Si / 1000 Ang^3
#
#
#
# Elastic Constant Matrix: (Units=GPa)
#
#
# Indices 1 2 3 4 5 6 
#
# 1 90.7867 2.0419 42.5645 0.0000 0.4562 0.0000
# 2 2.0419 42.2917 50.8382 0.0000 -7.3619 0.0000
# 3 42.5645 50.8382 253.0416 0.0000 -6.7727 0.0000
# 4 0.0000 0.0000 0.0000 26.0370 0.0000 3.2730
# 5 0.4562 -7.3619 -6.7727 0.0000 41.6587 0.0000
# 6 0.0000 0.0000 0.0000 3.2730 0.0000 17.1655
#
#
#
# Elastic Compliance Matrix: (Units=1/GPa)
#
#
# Indices 1 2 3 4 5 6 
#
# 1 0.012150 0.002444 -0.002538 0.000000 -0.000114 0.000000
# 2 0.002444 0.032533 -0.006824 0.000000 0.004613 0.000000
# 3 -0.002538 -0.006824 0.005743 0.000000 -0.000244 0.000000
# 4 0.000000 0.000000 0.000000 0.039350 0.000000 -0.007503
# 5 -0.000114 0.004613 -0.000244 0.000000 0.024781 0.000000
# 6 0.000000 0.000000 0.000000 -0.007503 0.000000 0.059687
#
#
# Mechanical properties :
#
#
# Convention : Reuss Voigt Hill
#
# Bulk Modulus (GPa) = 27.32841 64.11212 45.72026
# Shear Modulus (GPa) = 24.96538 36.35061 30.65800
#
# Velocity S-wave (km/s) = 3.10722 3.74937 3.44330
# Velocity P-wave (km/s) = 4.84167 6.59831 5.78703
#
# Compressibility (1/GPa) = 0.03659196
#
# Stress axis : x y z
#
# Youngs Moduli (GPa) = 82.30225 30.73780 174.11660
#
# Poissons Ratio (x) = -0.07514 0.44190
# Poissons Ratio (y) = -0.20118 1.18816
# Poissons Ratio (z) = 0.20888 0.20975
#
# Static dielectric constant tensor:
#      x y z
#    x 2.169140 0.000000 0.003140 
#    y 0.000000 2.214910 0.000000 
#    z 0.003140 0.000000 2.169070 
# 
# From -- ./inp_files/305325.got.cif
#   From: 2010.05.17/outbox.cif.g08.bks.cpg/sg15_153_cif.got.tgz:305325.got - 2010.06.03 18:47:42.
