data_PCOD9304715
_publ_section_title
;
Structure prediction by ZEFSAII (Michael W. Deem and Ramdas Pophale) SiO2 
 PCOD9304715
Probable space group: C 2/C
;
_chemical_formula_sum "Si O2"
_cell_formula_units_Z 32
_cell_length_a 17.997163
_cell_length_b 6.759845
_cell_length_c 13.268438
_cell_angle_alpha 90.000000
_cell_angle_beta 91.889973
_cell_angle_gamma 90.000000
_cell_volume 1613.333932
_symmetry_space_group_name_H-M "C 2/C"
_symmetry_group_IT_number 15
_symmetry_cell_setting 'monoclinic'
loop_
_space_group_symop_operation_xyz
x,y,z
-x,y,1/2-z
-x,-y,-z
x,-y,1/2+z
1/2+x,1/2+y,z
1/2-x,1/2+y,1/2-z
1/2-x,1/2-y,-z
1/2+x,1/2-y,1/2+z
loop_
_atom_site_type_symbol
_atom_site_label
_atom_site_fract_x
_atom_site_fract_y
_atom_site_fract_z
Si Si1 0.331620 0.217310 0.833825
Si Si2 0.415371 0.828047 0.781915
Si Si3 0.818200 0.018156 0.653873
Si Si4 0.585627 0.458373 0.030978
O O1 0.304692 0.359488 0.741915
O O2 0.378703 0.351277 0.912016
O O3 0.382306 0.045755 0.789628
O O4 0.260319 0.112574 0.880207
O O5 0.500000 0.831940 0.750000
O O6 0.368607 0.692270 0.703242
O O7 0.410579 0.720930 0.890063
O O8 0.864413 0.923092 0.565187
O O9 0.500000 0.500000 0.000000
#
# Coordination Sequence:
#
# PCOD9304715 Si02
#       4
#     8   8   8   8
#     4  11  25  42  69  93 128 176 209 266 321 376
#     4  11  24  42  67  95 129 173 213 263 322 376
#     4  11  23  46  64  95 133 165 218 263 317 384
#     4  11  25  42  66  99 131 165 216 268 315 385
#
# _framework density 19.834703000000001
#
# number of rings (size 3 to 8) (size 9 to 14) (size 15 to 20)
#    0.000    1.000    5.000    0.750    3.500    4.000 
#    0.000    0.000    0.000    0.000    0.000    0.000 
#    0.000    0.000    0.000    0.000    0.000    0.000 
#
# Total GULP energy -89495.624147 kJ/mol
# GULP energy per Si atom -5593.476509 kJ/mol
# Density = 1.978956 g / cm^3
# Si number density = 19.834703 Si / 1000 Ang^3
#
#
#
# Elastic Constant Matrix: (Units=GPa)
#
#
# Indices 1 2 3 4 5 6 
#
# 1 139.9299 25.9200 29.7825 0.0000 -9.9677 0.0000
# 2 25.9200 53.5197 -8.8537 0.0000 13.8691 0.0000
# 3 29.7825 -8.8537 65.9850 0.0000 -4.2767 0.0000
# 4 0.0000 0.0000 0.0000 11.8038 0.0000 -11.1504
# 5 -9.9677 13.8691 -4.2767 0.0000 34.9778 0.0000
# 6 0.0000 0.0000 0.0000 -11.1504 0.0000 31.7573
#
#
#
# Elastic Compliance Matrix: (Units=1/GPa)
#
#
# Indices 1 2 3 4 5 6 
#
# 1 0.009845 -0.006877 -0.005048 0.000000 0.004915 0.000000
# 2 -0.006877 0.025973 0.005840 0.000000 -0.011544 0.000000
# 3 -0.005048 0.005840 0.018117 0.000000 -0.001539 0.000000
# 4 0.000000 0.000000 0.000000 0.126762 0.000000 0.044508
# 5 0.004915 -0.011544 -0.001539 0.000000 0.034379 0.000000
# 6 0.000000 0.000000 0.000000 0.044508 0.000000 0.047116
#
#
# Mechanical properties :
#
#
# Convention : Reuss Voigt Hill
#
# Bulk Modulus (GPa) = 23.94209 39.23691 31.58950
# Shear Modulus (GPa) = 17.34414 29.88017 23.61216
#
# Velocity S-wave (km/s) = 2.96029 3.88552 3.45403
# Velocity P-wave (km/s) = 4.87662 6.32097 5.64518
#
# Compressibility (1/GPa) = 0.04176744
#
# Stress axis : x y z
#
# Youngs Moduli (GPa) = 101.57823 38.50185 55.19651
#
# Poissons Ratio (x) = 0.26476 0.27861
# Poissons Ratio (y) = 0.69850 -0.32238
# Poissons Ratio (z) = 0.51272 -0.22487
#
# Static dielectric constant tensor:
#      x y z
#    x 1.671770 0.000000 0.005850 
#    y 0.000000 1.659540 0.000000 
#    z 0.005850 0.000000 1.690700 
# 
# From -- ./inp_files/109045.got.cif
#   From: 2010.05.17/outbox.cif.g08.bks.cpg/sg15_55_cif.got.tgz:109045.got - 2010.06.03 18:47:42.
