data_PCOD9304131
_publ_section_title
;
Structure prediction by ZEFSAII (Michael W. Deem and Ramdas Pophale) SiO2 
 PCOD9304131
Probable space group: C 2/C
;
_chemical_formula_sum "Si O2"
_cell_formula_units_Z 44
_cell_length_a 21.480642
_cell_length_b 10.170625
_cell_length_c 9.529509
_cell_angle_alpha 90.000000
_cell_angle_beta 102.837139
_cell_angle_gamma 90.000000
_cell_volume 2029.890018
_symmetry_space_group_name_H-M "C 2/C"
_symmetry_group_IT_number 15
_symmetry_cell_setting 'monoclinic'
loop_
_space_group_symop_operation_xyz
x,y,z
-x,y,1/2-z
-x,-y,-z
x,-y,1/2+z
1/2+x,1/2+y,z
1/2-x,1/2+y,1/2-z
1/2-x,1/2-y,-z
1/2+x,1/2-y,1/2+z
loop_
_atom_site_type_symbol
_atom_site_label
_atom_site_fract_x
_atom_site_fract_y
_atom_site_fract_z
Si Si1 0.500000 0.052996 0.250000
Si Si2 0.156460 0.414017 0.101851
Si Si3 0.629478 0.160732 0.266621
Si Si4 0.189744 0.154669 0.448713
Si Si5 0.796906 0.077686 0.749730
Si Si6 0.932410 0.304941 0.199155
O O1 0.553447 0.143557 0.210199
O O2 0.458328 0.942876 0.144355
O O3 0.157715 0.563375 0.162514
O O4 0.226802 0.365198 0.179695
O O5 0.101341 0.345300 0.169512
O O6 0.148029 0.391553 0.932151
O O7 0.653810 0.308193 0.267122
O O8 0.250000 0.250000 0.500000
O O9 0.194608 0.057571 0.581855
O O10 0.123164 0.232886 0.411314
O O11 0.193600 0.061013 0.318173
O O12 0.000000 0.229936 0.250000
#
# Coordination Sequence:
#
# PCOD9304131 Si02
#       6
#     4   8   8   8   8   8
#     4   8  22  44  70 102 138 192 236 294 354 428
#     4  11  23  42  69 102 143 185 231 296 358 425
#     4  11  25  42  71 107 142 183 244 295 358 430
#     4  12  26  49  72 105 150 193 236 303 363 427
#     4  12  27  41  73 105 142 188 245 294 367 421
#     4   9  22  44  72  99 137 195 238 290 356 427
#
# _framework density 21.676051999999999
#
# number of rings (size 3 to 8) (size 9 to 14) (size 15 to 20)
#    0.545    0.727    1.818    2.727   10.182    4.364 
#    1.636    0.909    0.000    0.000    0.000    0.000 
#    0.000    0.000    0.000    0.000    0.000    0.000 
#
# Total GULP energy -122747.978127 kJ/mol
# GULP energy per Si atom -5579.453551 kJ/mol
# Density = 2.162672 g / cm^3
# Si number density = 21.676052 Si / 1000 Ang^3
#
#
#
# Elastic Constant Matrix: (Units=GPa)
#
#
# Indices 1 2 3 4 5 6 
#
# 1 158.0471 46.6027 7.8142 0.0000 18.9103 0.0000
# 2 46.6027 89.4341 21.8466 0.0000 1.3106 0.0000
# 3 7.8142 21.8466 60.4637 0.0000 3.3003 0.0000
# 4 0.0000 0.0000 0.0000 35.8789 0.0000 6.8698
# 5 18.9103 1.3106 3.3003 0.0000 23.7915 0.0000
# 6 0.0000 0.0000 0.0000 6.8698 0.0000 33.2675
#
#
#
# Elastic Compliance Matrix: (Units=1/GPa)
#
#
# Indices 1 2 3 4 5 6 
#
# 1 0.008392 -0.004496 0.000897 0.000000 -0.006547 0.000000
# 2 -0.004496 0.014673 -0.004909 0.000000 0.003446 0.000000
# 3 0.000897 -0.004909 0.018360 0.000000 -0.002990 0.000000
# 4 0.000000 0.000000 0.000000 0.029019 0.000000 -0.005992
# 5 -0.006547 0.003446 -0.002990 0.000000 0.047460 0.000000
# 6 0.000000 0.000000 0.000000 -0.005992 0.000000 0.031297
#
#
# Mechanical properties :
#
#
# Convention : Reuss Voigt Hill
#
# Bulk Modulus (GPa) = 40.96753 51.16356 46.06555
# Shear Modulus (GPa) = 28.67758 34.03299 31.35529
#
# Velocity S-wave (km/s) = 3.64126 3.96671 3.80747
# Velocity P-wave (km/s) = 6.05139 6.68092 6.37393
#
# Compressibility (1/GPa) = 0.02440957
#
# Stress axis : x y z
#
# Youngs Moduli (GPa) = 119.16133 68.15299 54.46735
#
# Poissons Ratio (x) = 0.30643 -0.04888
# Poissons Ratio (y) = 0.53577 0.26736
# Poissons Ratio (z) = -0.10693 0.33454
#
# Static dielectric constant tensor:
#      x y z
#    x 1.843790 0.000000 -0.005330 
#    y 0.000000 1.806260 0.000000 
#    z -0.005330 0.000000 1.838510 
# 
# From -- ./inp_files/54477.got.cif
#   From: 2010.05.17/outbox.cif.g08.bks.cpg/sg15_28_cif.got.tgz:54477.got - 2010.06.03 18:47:42.
