data_PCOD9304176
_publ_section_title
;
Structure prediction by ZEFSAII (Michael W. Deem and Ramdas Pophale) SiO2 
 PCOD9304176
Probable space group: C 2/C
;
_chemical_formula_sum "Si O2"
_cell_formula_units_Z 48
_cell_length_a 21.490973
_cell_length_b 11.253684
_cell_length_c 13.812958
_cell_angle_alpha 90.000000
_cell_angle_beta 39.112444
_cell_angle_gamma 90.000000
_cell_volume 2107.461734
_symmetry_space_group_name_H-M "C 2/C"
_symmetry_group_IT_number 15
_symmetry_cell_setting 'monoclinic'
loop_
_space_group_symop_operation_xyz
x,y,z
-x,y,1/2-z
-x,-y,-z
x,-y,1/2+z
1/2+x,1/2+y,z
1/2-x,1/2+y,1/2-z
1/2-x,1/2-y,-z
1/2+x,1/2-y,1/2+z
loop_
_atom_site_type_symbol
_atom_site_label
_atom_site_fract_x
_atom_site_fract_y
_atom_site_fract_z
Si Si1 0.242654 0.811250 0.612924
Si Si2 0.839795 0.735569 0.182384
Si Si3 0.889650 0.489432 0.354874
Si Si4 0.614361 0.029472 0.858448
Si Si5 0.456627 0.367818 0.529926
Si Si6 0.356637 0.212427 0.502215
O O1 0.250000 0.750000 0.500000
O O2 0.299318 0.731054 0.624731
O O3 0.134302 0.841337 0.786448
O O4 0.305950 0.931623 0.521728
O O5 0.831666 0.593911 0.190368
O O6 0.760998 0.772948 0.358122
O O7 0.948980 0.782779 0.067180
O O8 0.867182 0.442537 0.275240
O O9 0.889592 0.632803 0.370901
O O10 0.000000 0.449227 0.250000
O O11 0.628318 0.124857 0.924197
O O12 0.500000 0.000000 0.000000
O O13 0.500000 0.500000 0.500000
O O14 0.412391 0.330887 0.475944
#
# Coordination Sequence:
#
# PCOD9304176 Si02
#       6
#     8   8   8   8   8   8
#     4  11  25  40  67 107 131 175 233 283 337 415
#     4  11  23  42  71  88 140 173 217 285 343 400
#     4  12  22  39  71  96 133 171 233 282 337 413
#     4  12  22  43  69  98 125 180 226 281 340 410
#     4  11  24  44  68  97 143 181 220 283 361 414
#     4  11  24  42  66 107 130 178 234 278 346 415
#
# _framework density 22.776212999999998
#
# number of rings (size 3 to 8) (size 9 to 14) (size 15 to 20)
#    0.000    0.667    5.000    3.000    4.667    0.667 
#    0.000    1.667    3.667    0.000    0.000    0.000 
#    0.000    0.000    0.000    0.000    0.000    0.000 
#
# Total GULP energy -133907.951945 kJ/mol
# GULP energy per Si atom -5579.497998 kJ/mol
# Density = 2.272437 g / cm^3
# Si number density = 22.776213 Si / 1000 Ang^3
#
#
#
# Elastic Constant Matrix: (Units=GPa)
#
#
# Indices 1 2 3 4 5 6 
#
# 1 69.4503 -2.8299 21.1589 0.0000 -11.5703 0.0000
# 2 -2.8299 76.7745 4.5906 0.0000 -9.2017 0.0000
# 3 21.1589 4.5906 101.0125 0.0000 -32.4895 0.0000
# 4 0.0000 0.0000 0.0000 40.5108 0.0000 -6.6645
# 5 -11.5703 -9.2017 -32.4895 0.0000 41.3204 0.0000
# 6 0.0000 0.0000 0.0000 -6.6645 0.0000 38.2128
#
#
#
# Elastic Compliance Matrix: (Units=1/GPa)
#
#
# Indices 1 2 3 4 5 6 
#
# 1 0.015637 0.001044 -0.002463 0.000000 0.002675 0.000000
# 2 0.001044 0.013469 0.000305 0.000000 0.003532 0.000000
# 3 -0.002463 0.000305 0.013655 0.000000 0.010115 0.000000
# 4 0.000000 0.000000 0.000000 0.025414 0.000000 0.004432
# 5 0.002675 0.003532 0.010115 0.000000 0.033690 0.000000
# 6 0.000000 0.000000 0.000000 0.004432 0.000000 0.026942
#
#
# Mechanical properties :
#
#
# Convention : Reuss Voigt Hill
#
# Bulk Modulus (GPa) = 24.67035 32.56405 28.61720
# Shear Modulus (GPa) = 34.59124 38.96334 36.77729
#
# Velocity S-wave (km/s) = 3.90133 4.14055 4.02272
# Velocity P-wave (km/s) = 5.58113 6.09814 5.84536
#
# Compressibility (1/GPa) = 0.04053449
#
# Stress axis : x y z
#
# Youngs Moduli (GPa) = 63.95000 74.24631 73.23234
#
# Poissons Ratio (x) = -0.07753 0.18034
# Poissons Ratio (y) = -0.06678 -0.02234
# Poissons Ratio (z) = 0.15748 -0.02265
#
# Static dielectric constant tensor:
#      x y z
#    x 1.758070 0.000000 -0.134330 
#    y 0.000000 3.197120 0.000000 
#    z -0.134330 0.000000 1.710160 
# 
# From -- ./inp_files/167823.got.cif
#   From: 2010.05.17/outbox.cif.g08.bks.cpg/sg15_84_cif.got.tgz:167823.got - 2010.06.03 18:47:42.
