data_PCOD9304145
_publ_section_title
;
Structure prediction by ZEFSAII (Michael W. Deem and Ramdas Pophale) SiO2 
 PCOD9304145
Probable space group: C 2/C
;
_chemical_formula_sum "Si O2"
_cell_formula_units_Z 56
_cell_length_a 28.064507
_cell_length_b 12.178465
_cell_length_c 15.115894
_cell_angle_alpha 90.000000
_cell_angle_beta 30.265850
_cell_angle_gamma 90.000000
_cell_volume 2603.907071
_symmetry_space_group_name_H-M "C 2/C"
_symmetry_group_IT_number 15
_symmetry_cell_setting 'monoclinic'
loop_
_space_group_symop_operation_xyz
x,y,z
-x,y,1/2-z
-x,-y,-z
x,-y,1/2+z
1/2+x,1/2+y,z
1/2-x,1/2+y,1/2-z
1/2-x,1/2-y,-z
1/2+x,1/2-y,1/2+z
loop_
_atom_site_type_symbol
_atom_site_label
_atom_site_fract_x
_atom_site_fract_y
_atom_site_fract_z
Si Si1 0.090007 0.685152 0.663458
Si Si2 0.594184 0.442173 0.883055
Si Si3 0.433905 0.795250 0.100849
Si Si4 0.288254 0.989941 0.017824
Si Si5 0.601765 0.564171 0.572187
Si Si6 0.072944 0.710191 0.213254
Si Si7 0.239432 0.114951 0.913083
O O1 0.050560 0.657679 0.825659
O O2 0.141685 0.575041 0.545465
O O3 0.171297 0.779175 0.531992
O O4 0.000000 0.717531 0.750000
O O5 0.597036 0.328874 0.826222
O O6 0.685122 0.518327 0.726217
O O7 0.500000 0.500000 0.000000
O O8 0.595031 0.399228 0.982042
O O9 0.340085 0.850925 0.211374
O O10 0.518611 0.795503 0.894666
O O11 0.265019 0.055222 0.964314
O O12 0.341480 0.875658 0.921655
O O13 0.500000 0.507764 0.750000
O O14 0.607257 0.666864 0.630581
O O15 0.683593 0.477417 0.450285
O O16 0.000000 0.682124 0.250000
#
# Coordination Sequence:
#
# PCOD9304145 Si02
#       7
#     8   8   8   8   8   8   8
#     4  11  23  42  72 100 137 182 244 291 348 419
#     4  12  24  43  71 101 135 187 229 284 355 413
#     4  11  23  46  67  99 144 183 223 292 356 404
#     4  11  24  46  69  98 140 183 233 292 353 418
#     4  11  24  42  67 102 140 178 233 283 347 423
#     4  11  25  45  70 100 148 184 228 287 353 426
#     4  11  23  42  69  98 138 179 235 295 344 412
#
# _framework density 21.506143999999999
#
# number of rings (size 3 to 8) (size 9 to 14) (size 15 to 20)
#    0.000    0.857    5.714    2.571    4.000    2.857 
#    2.571    0.000    0.000    0.000    0.000    0.000 
#    0.000    0.000    0.000    0.000    0.000    0.000 
#
# Total GULP energy -156266.427308 kJ/mol
# GULP energy per Si atom -5580.943832 kJ/mol
# Density = 2.145720 g / cm^3
# Si number density = 21.506144 Si / 1000 Ang^3
#
#
#
# Elastic Constant Matrix: (Units=GPa)
#
#
# Indices 1 2 3 4 5 6 
#
# 1 55.1741 25.0802 34.4665 0.0000 -11.6358 0.0000
# 2 25.0802 104.9547 53.8067 0.0000 -26.2512 0.0000
# 3 34.4665 53.8067 135.6903 0.0000 -8.1925 0.0000
# 4 0.0000 0.0000 0.0000 32.7302 0.0000 -11.1814
# 5 -11.6358 -26.2512 -8.1925 0.0000 31.9899 0.0000
# 6 0.0000 0.0000 0.0000 -11.1814 0.0000 21.5801
#
#
#
# Elastic Compliance Matrix: (Units=1/GPa)
#
#
# Indices 1 2 3 4 5 6 
#
# 1 0.023134 -0.001535 -0.004911 0.000000 0.005897 0.000000
# 2 -0.001535 0.015068 -0.004949 0.000000 0.010539 0.000000
# 3 -0.004911 -0.004949 0.010387 0.000000 -0.003187 0.000000
# 4 0.000000 0.000000 0.000000 0.037124 0.000000 0.019235
# 5 0.005897 0.010539 -0.003187 0.000000 0.041237 0.000000
# 6 0.000000 0.000000 0.000000 0.019235 0.000000 0.056306
#
#
# Mechanical properties :
#
#
# Convention : Reuss Voigt Hill
#
# Bulk Modulus (GPa) = 38.76236 58.05843 48.41039
# Shear Modulus (GPa) = 23.29418 29.42441 26.35930
#
# Velocity S-wave (km/s) = 3.29468 3.70291 3.50475
# Velocity P-wave (km/s) = 5.70405 6.73327 6.23992
#
# Compressibility (1/GPa) = 0.02579822
#
# Stress axis : x y z
#
# Youngs Moduli (GPa) = 43.22636 66.36638 96.27241
#
# Poissons Ratio (x) = 0.10189 0.47283
# Poissons Ratio (y) = 0.06637 0.47643
# Poissons Ratio (z) = 0.21230 0.32843
#
# Static dielectric constant tensor:
#      x y z
#    x 1.863390 0.000000 0.062860 
#    y 0.000000 1.801400 0.000000 
#    z 0.062860 0.000000 1.860560 
# 
# From -- ./inp_files/181931.got.cif
#   From: 2010.05.17/outbox.cif.g08.bks.cpg/sg15_91_cif.got.tgz:181931.got - 2010.06.03 18:47:42.
