data_PCOD9304168
_publ_section_title
;
Structure prediction by ZEFSAII (Michael W. Deem and Ramdas Pophale) SiO2 
 PCOD9304168
Probable space group: C 2/C
;
_chemical_formula_sum "Si O2"
_cell_formula_units_Z 40
_cell_length_a 15.399411
_cell_length_b 21.201586
_cell_length_c 9.215851
_cell_angle_alpha 90.000000
_cell_angle_beta 144.152852
_cell_angle_gamma 90.000000
_cell_volume 1762.087345
_symmetry_space_group_name_H-M "C 2/C"
_symmetry_group_IT_number 15
_symmetry_cell_setting 'monoclinic'
loop_
_space_group_symop_operation_xyz
x,y,z
-x,y,1/2-z
-x,-y,-z
x,-y,1/2+z
1/2+x,1/2+y,z
1/2-x,1/2+y,1/2-z
1/2-x,1/2-y,-z
1/2+x,1/2-y,1/2+z
loop_
_atom_site_type_symbol
_atom_site_label
_atom_site_fract_x
_atom_site_fract_y
_atom_site_fract_z
Si Si1 0.651433 0.633505 0.038802
Si Si2 0.951447 0.310925 0.850313
Si Si3 0.610310 0.511035 0.518489
Si Si4 0.395325 0.709068 0.243770
Si Si5 0.570559 0.943051 0.005596
O O1 0.779130 0.673399 0.134157
O O2 0.670843 0.557936 0.051371
O O3 0.648583 0.653071 0.204636
O O4 0.500000 0.647298 0.750000
O O5 0.000000 0.301674 0.750000
O O6 0.003775 0.254266 0.019805
O O7 0.029428 0.375017 0.012471
O O8 0.500000 0.500000 0.500000
O O9 0.752558 0.550712 0.755179
O O10 0.500000 0.538880 0.250000
O O11 0.500000 0.691174 0.250000
O O12 0.250000 0.750000 0.000000
O O13 0.500000 0.945639 0.750000
O O14 0.500000 0.000000 0.000000
#
# Coordination Sequence:
#
# PCOD9304168 Si02
#       5
#     8   8   8   8   8
#     4  11  26  47  71  99 141 185 231 281 345 421
#     4  11  26  46  72  99 137 188 233 275 345 425
#     4  11  25  44  67 104 141 180 229 285 346 409
#     4  12  27  46  70 104 138 175 233 294 348 401
#     4  11  23  42  71 100 135 182 231 277 338 410
#
# _framework density 22.700351999999999
#
# number of rings (size 3 to 8) (size 9 to 14) (size 15 to 20)
#    0.000    0.800    4.000    1.800   11.200    6.400 
#    0.000    0.000    0.000    0.000    0.000    0.000 
#    0.000    0.000    0.000    0.000    0.000    0.000 
#
# Total GULP energy -112000.816930 kJ/mol
# GULP energy per Si atom -5600.040846 kJ/mol
# Density = 2.264868 g / cm^3
# Si number density = 22.700352 Si / 1000 Ang^3
#
#
#
# Elastic Constant Matrix: (Units=GPa)
#
#
# Indices 1 2 3 4 5 6 
#
# 1 126.8068 -8.1606 34.7225 0.0000 3.6323 0.0000
# 2 -8.1606 74.2750 6.6985 0.0000 -2.1289 0.0000
# 3 34.7225 6.6985 146.8302 0.0000 24.4979 0.0000
# 4 0.0000 0.0000 0.0000 -35.9827 0.0000 19.6434
# 5 3.6323 -2.1289 24.4979 0.0000 46.7353 0.0000
# 6 0.0000 0.0000 0.0000 19.6434 0.0000 24.6653
#
#
#
# Elastic Compliance Matrix: (Units=1/GPa)
#
#
# Indices 1 2 3 4 5 6 
#
# 1 0.008536 0.001147 -0.002158 0.000000 0.000520 0.000000
# 2 0.001147 0.013719 -0.001081 0.000000 0.001102 0.000000
# 3 -0.002158 -0.001081 0.008055 0.000000 -0.004104 0.000000
# 4 0.000000 0.000000 0.000000 -0.019370 0.000000 0.015426
# 5 0.000520 0.001102 -0.004104 0.000000 0.023558 0.000000
# 6 0.000000 0.000000 0.000000 0.015426 0.000000 0.028258
#
#
# Mechanical properties :
#
#
# Convention : Reuss Voigt Hill
#
# Bulk Modulus (GPa) = 38.27548 46.04810 42.16179
# Shear Modulus (GPa) = 66.09686 28.06035 47.07861
#
# Velocity S-wave (km/s) = 5.40188 3.51966 4.55897
# Velocity P-wave (km/s) = 7.47027 6.07014 6.80630
#
# Compressibility (1/GPa) = 0.02612639
#
# Stress axis : x y z
#
# Youngs Moduli (GPa) = 117.15420 72.89360 124.14900
#
# Poissons Ratio (x) = -0.08363 0.26787
# Poissons Ratio (y) = -0.13441 0.13422
# Poissons Ratio (z) = 0.25277 0.07881
#
# Static dielectric constant tensor:
#      x y z
#    x 1.842780 0.000000 0.016040 
#    y 0.000000 1.892870 0.000000 
#    z 0.016040 0.000000 1.844250 
# 
# From -- ./inp_files/42434.got.cif
#   From: 2010.05.17/outbox.cif.g08.bks.cpg/sg15_22_cif.got.tgz:42434.got - 2010.06.03 18:47:42.
