data_PCOD9304747
_publ_section_title
;
Structure prediction by ZEFSAII (Michael W. Deem and Ramdas Pophale) SiO2 
 PCOD9304747
Probable space group: C 2/C
;
_chemical_formula_sum "Si O2"
_cell_formula_units_Z 44
_cell_length_a 15.141595
_cell_length_b 11.095657
_cell_length_c 11.501812
_cell_angle_alpha 90.000000
_cell_angle_beta 83.579859
_cell_angle_gamma 90.000000
_cell_volume 1920.254248
_symmetry_space_group_name_H-M "C 2/C"
_symmetry_group_IT_number 15
_symmetry_cell_setting 'monoclinic'
loop_
_space_group_symop_operation_xyz
x,y,z
-x,y,1/2-z
-x,-y,-z
x,-y,1/2+z
1/2+x,1/2+y,z
1/2-x,1/2+y,1/2-z
1/2-x,1/2-y,-z
1/2+x,1/2-y,1/2+z
loop_
_atom_site_type_symbol
_atom_site_label
_atom_site_fract_x
_atom_site_fract_y
_atom_site_fract_z
Si Si1 0.587746 0.557006 0.041168
Si Si2 0.649789 0.220156 0.386347
Si Si3 0.853721 0.783349 0.770845
Si Si4 0.288325 0.628305 0.045621
Si Si5 0.500000 0.122461 0.250000
Si Si6 0.124753 0.454143 0.110860
O O1 0.582831 0.638492 0.156062
O O2 0.500000 0.500000 0.000000
O O3 0.632303 0.647395 0.940741
O O4 0.655129 0.447599 0.054572
O O5 0.751847 0.205578 0.333126
O O6 0.580802 0.196940 0.292899
O O7 0.630206 0.125236 0.493164
O O8 0.851799 0.833353 0.642016
O O9 0.875187 0.642784 0.784183
O O10 0.209725 0.541540 0.100527
O O11 0.250000 0.750000 0.000000
O O12 0.540365 0.038733 0.142611
#
# Coordination Sequence:
#
# PCOD9304747 Si02
#       6
#     8   8   8   8   4   8
#     4  11  26  46  71 101 138 177 234 292 341 417
#     4  11  23  46  70  96 138 190 221 279 357 405
#     4  11  24  47  73  94 143 193 217 285 364 403
#     4  12  27  41  73 104 136 181 238 281 343 423
#     4  12  26  38  74 106 134 176 234 286 332 424
#     4  11  24  46  67 101 139 179 230 279 346 414
#
# _framework density 22.913634999999999
#
# number of rings (size 3 to 8) (size 9 to 14) (size 15 to 20)
#    0.000    0.727    5.455    1.636    7.636    5.091 
#    0.000    0.000    0.000    0.000    0.000    0.000 
#    0.000    0.000    0.000    0.000    0.000    0.000 
#
# Total GULP energy -123164.475359 kJ/mol
# GULP energy per Si atom -5598.385244 kJ/mol
# Density = 2.286148 g / cm^3
# Si number density = 22.913635 Si / 1000 Ang^3
#
#
#
# Elastic Constant Matrix: (Units=GPa)
#
#
# Indices 1 2 3 4 5 6 
#
# 1 100.1711 36.2369 5.2537 0.0000 14.8224 0.0000
# 2 36.2369 135.2171 15.6672 0.0000 15.5293 0.0000
# 3 5.2537 15.6672 36.8027 0.0000 11.3140 0.0000
# 4 0.0000 0.0000 0.0000 6.9012 0.0000 10.0385
# 5 14.8224 15.5293 11.3140 0.0000 33.5544 0.0000
# 6 0.0000 0.0000 0.0000 10.0385 0.0000 30.9687
#
#
#
# Elastic Compliance Matrix: (Units=1/GPa)
#
#
# Indices 1 2 3 4 5 6 
#
# 1 0.011529 -0.002708 0.000767 0.000000 -0.004098 0.000000
# 2 -0.002708 0.008653 -0.002715 0.000000 -0.001893 0.000000
# 3 0.000767 -0.002715 0.031167 0.000000 -0.009591 0.000000
# 4 0.000000 0.000000 0.000000 0.274179 0.000000 -0.088875
# 5 -0.004098 -0.001893 -0.009591 0.000000 0.035723 0.000000
# 6 0.000000 0.000000 0.000000 -0.088875 0.000000 0.061099
#
#
# Mechanical properties :
#
#
# Convention : Reuss Voigt Hill
#
# Bulk Modulus (GPa) = 23.78890 42.94515 33.36702
# Shear Modulus (GPa) = 11.21896 28.62042 19.91969
#
# Velocity S-wave (km/s) = 2.21514 3.53803 2.95165
# Velocity P-wave (km/s) = 4.11667 5.95593 5.11957
#
# Compressibility (1/GPa) = 0.04203642
#
# Stress axis : x y z
#
# Youngs Moduli (GPa) = 86.74053 115.56432 32.08539
#
# Poissons Ratio (x) = 0.31292 -0.02460
# Poissons Ratio (y) = 0.23487 0.08712
# Poissons Ratio (z) = -0.06652 0.31378
#
# Static dielectric constant tensor:
#      x y z
#    x 1.836210 0.000000 -0.020580 
#    y 0.000000 1.820360 0.000000 
#    z -0.020580 0.000000 1.874320 
# 
# From -- ./inp_files/94997.got.cif
#   From: 2010.05.17/outbox.cif.g08.bks.cpg/sg15_48_cif.got.tgz:94997.got - 2010.06.03 18:47:42.
