data_PCOD9304682
_publ_section_title
;
Structure prediction by ZEFSAII (Michael W. Deem and Ramdas Pophale) SiO2 
 PCOD9304682
Probable space group: C 2/C
;
_chemical_formula_sum "Si O2"
_cell_formula_units_Z 40
_cell_length_a 5.344521
_cell_length_b 25.611636
_cell_length_c 12.697989
_cell_angle_alpha 90.000000
_cell_angle_beta 110.312819
_cell_angle_gamma 90.000000
_cell_volume 1630.033432
_symmetry_space_group_name_H-M "C 2/C"
_symmetry_group_IT_number 15
_symmetry_cell_setting 'monoclinic'
loop_
_space_group_symop_operation_xyz
x,y,z
-x,y,1/2-z
-x,-y,-z
x,-y,1/2+z
1/2+x,1/2+y,z
1/2-x,1/2+y,1/2-z
1/2-x,1/2-y,-z
1/2+x,1/2-y,1/2+z
loop_
_atom_site_type_symbol
_atom_site_label
_atom_site_fract_x
_atom_site_fract_y
_atom_site_fract_z
Si Si1 0.264812 0.033975 0.325442
Si Si2 0.344214 0.383689 0.081144
Si Si3 0.500000 0.709777 0.750000
Si Si4 0.732437 0.363537 0.672468
Si Si5 0.159104 0.446455 0.419777
Si Si6 0.000000 0.221943 0.250000
O O1 0.246246 0.085925 0.251072
O O2 0.233876 0.046051 0.445348
O O3 0.000000 0.003671 0.250000
O O4 0.541473 0.001704 0.363152
O O5 0.397447 0.328581 0.142838
O O6 0.613768 0.417989 0.112994
O O7 0.105040 0.411612 0.107398
O O8 0.255122 0.377963 0.946917
O O9 0.748931 0.741561 0.737743
O O10 0.494069 0.321831 0.655175
O O11 0.000000 0.334930 0.750000
#
# Coordination Sequence:
#
# PCOD9304682 Si02
#       6
#     8   8   4   8   8   4
#     4  11  23  45  74 116 153 197 254 305 363 450
#     4  12  27  52  74 108 155 200 247 312 371 453
#     4  12  30  52  73 110 149 194 256 312 396 440
#     4  12  24  48  81 112 150 195 256 312 370 448
#     4  11  26  45  75 111 153 201 246 302 372 439
#     4  12  26  52  81 110 143 192 252 326 380 446
#
# _framework density 24.539372
#
# number of rings (size 3 to 8) (size 9 to 14) (size 15 to 20)
#    0.000    0.400    6.000    1.200    1.400    6.400 
#    0.000    0.000    0.000    0.000    0.000    0.000 
#    0.000    0.000    0.000    0.000    0.000    0.000 
#
# Total GULP energy -111871.053200 kJ/mol
# GULP energy per Si atom -5593.552660 kJ/mol
# Density = 2.448352 g / cm^3
# Si number density = 24.539372 Si / 1000 Ang^3
#
#
#
# Elastic Constant Matrix: (Units=GPa)
#
#
# Indices 1 2 3 4 5 6 
#
# 1 186.6814 86.3677 33.7265 0.0000 27.3033 0.0000
# 2 86.3677 169.2070 68.0045 0.0000 6.5639 0.0000
# 3 33.7265 68.0045 153.6038 0.0000 -0.1434 0.0000
# 4 0.0000 0.0000 0.0000 -140.3492 0.0000 48.5936
# 5 27.3033 6.5639 -0.1434 0.0000 30.7366 0.0000
# 6 0.0000 0.0000 0.0000 48.5936 0.0000 45.5100
#
#
#
# Elastic Compliance Matrix: (Units=1/GPa)
#
#
# Indices 1 2 3 4 5 6 
#
# 1 0.008080 -0.003847 -0.000077 0.000000 -0.006356 0.000000
# 2 -0.003847 0.009095 -0.003181 0.000000 0.001460 0.000000
# 3 -0.000077 -0.003181 0.007936 0.000000 0.000785 0.000000
# 4 0.000000 0.000000 0.000000 -0.005202 0.000000 0.005554
# 5 -0.006356 0.001460 0.000785 0.000000 0.037873 0.000000
# 6 0.000000 0.000000 0.000000 0.005554 0.000000 0.016042
#
#
# Mechanical properties :
#
#
# Convention : Reuss Voigt Hill
#
# Bulk Modulus (GPa) = 91.72323 98.40996 95.06660
# Shear Modulus (GPa) = 54.54525 8.60572 31.57549
#
# Velocity S-wave (km/s) = 4.71974 1.87470 3.59099
# Velocity P-wave (km/s) = 8.19514 6.69895 7.48453
#
# Compressibility (1/GPa) = 0.01090236
#
# Stress axis : x y z
#
# Youngs Moduli (GPa) = 123.76323 109.94990 126.00726
#
# Poissons Ratio (x) = 0.42294 0.00970
# Poissons Ratio (y) = 0.47608 0.40078
# Poissons Ratio (z) = 0.00953 0.34971
#
# Static dielectric constant tensor:
#      x y z
#    x 2.343540 0.000000 -0.015910 
#    y 0.000000 1.982040 0.000000 
#    z -0.015910 0.000000 1.933490 
# 
# From -- ./inp_files/129939.got.cif
#   From: 2010.05.17/outbox.cif.g08.bks.cpg/sg15_65_cif.got.tgz:129939.got - 2010.06.03 18:47:42.
