data_PCOD9304205
_publ_section_title
;
Structure prediction by ZEFSAII (Michael W. Deem and Ramdas Pophale) SiO2 
 PCOD9304205
Probable space group: C 2/C
;
_chemical_formula_sum "Si O2"
_cell_formula_units_Z 32
_cell_length_a 12.314009
_cell_length_b 14.048002
_cell_length_c 7.305949
_cell_angle_alpha 90.000000
_cell_angle_beta 92.178266
_cell_angle_gamma 90.000000
_cell_volume 1262.922589
_symmetry_space_group_name_H-M "C 2/C"
_symmetry_group_IT_number 15
_symmetry_cell_setting 'monoclinic'
loop_
_space_group_symop_operation_xyz
x,y,z
-x,y,1/2-z
-x,-y,-z
x,-y,1/2+z
1/2+x,1/2+y,z
1/2-x,1/2+y,1/2-z
1/2-x,1/2-y,-z
1/2+x,1/2-y,1/2+z
loop_
_atom_site_type_symbol
_atom_site_label
_atom_site_fract_x
_atom_site_fract_y
_atom_site_fract_z
Si Si1 0.065003 0.589572 0.578990
Si Si2 0.140046 0.127867 0.347493
Si Si3 0.416805 0.290075 0.001623
Si Si4 0.203010 0.074965 0.731794
O O1 0.071525 0.679997 0.447632
O O2 0.183122 0.561642 0.658542
O O3 0.000000 0.627644 0.750000
O O4 0.000000 0.500000 0.500000
O O5 0.160489 0.202148 0.184988
O O6 0.218024 0.112020 0.525925
O O7 0.028195 0.160768 0.438446
O O8 0.141317 0.026514 0.240935
O O9 0.367435 0.350378 0.160119
#
# Coordination Sequence:
#
# PCOD9304205 Si02
#       4
#     8   8   8   8
#     4  12  28  52  68 101 152 196 245 296 355 436
#     4  11  23  42  75 110 145 177 241 303 363 426
#     4  11  25  47  72 109 146 187 242 303 364 431
#     4  12  24  44  78 108 143 193 237 297 370 429
#
# _framework density 25.338052999999999
#
# number of rings (size 3 to 8) (size 9 to 14) (size 15 to 20)
#    0.000    0.500    5.000    3.750    3.500    3.000 
#    4.500    0.000    0.000    0.000    0.000    0.000 
#    0.000    0.000    0.000    0.000    0.000    0.000 
#
# Total GULP energy -89643.202434 kJ/mol
# GULP energy per Si atom -5602.700152 kJ/mol
# Density = 2.528038 g / cm^3
# Si number density = 25.338053 Si / 1000 Ang^3
#
#
#
# Elastic Constant Matrix: (Units=GPa)
#
#
# Indices 1 2 3 4 5 6 
#
# 1 63.0559 33.1481 -6.8879 0.0000 16.1792 0.0000
# 2 33.1481 174.4980 38.2434 0.0000 19.5944 0.0000
# 3 -6.8879 38.2434 123.6600 0.0000 8.6774 0.0000
# 4 0.0000 0.0000 0.0000 18.2006 0.0000 -5.4458
# 5 16.1792 19.5944 8.6774 0.0000 41.1273 0.0000
# 6 0.0000 0.0000 0.0000 -5.4458 0.0000 24.8969
#
#
#
# Elastic Compliance Matrix: (Units=1/GPa)
#
#
# Indices 1 2 3 4 5 6 
#
# 1 0.019738 -0.003593 0.002675 0.000000 -0.006617 0.000000
# 2 -0.003593 0.007080 -0.002286 0.000000 -0.001478 0.000000
# 3 0.002675 -0.002286 0.009074 0.000000 -0.001878 0.000000
# 4 0.000000 0.000000 0.000000 0.058791 0.000000 0.012860
# 5 -0.006617 -0.001478 -0.001878 0.000000 0.028018 0.000000
# 6 0.000000 0.000000 0.000000 0.012860 0.000000 0.042978
#
#
# Mechanical properties :
#
#
# Convention : Reuss Voigt Hill
#
# Bulk Modulus (GPa) = 33.91611 54.46901 44.19256
# Shear Modulus (GPa) = 27.48528 36.62564 32.05546
#
# Velocity S-wave (km/s) = 3.29712 3.80607 3.56070
# Velocity P-wave (km/s) = 5.28291 6.39206 5.86377
#
# Compressibility (1/GPa) = 0.02948452
#
# Stress axis : x y z
#
# Youngs Moduli (GPa) = 50.66471 141.24086 110.19994
#
# Poissons Ratio (x) = 0.50741 -0.29476
# Poissons Ratio (y) = 0.18202 0.25192
# Poissons Ratio (z) = -0.13552 0.32288
#
# Static dielectric constant tensor:
#      x y z
#    x 2.013910 0.000000 0.065400 
#    y 0.000000 2.018480 0.000000 
#    z 0.065400 0.000000 2.048130 
# 
# From -- ./inp_files/28014.got.cif
#   From: 2010.05.17/outbox.cif.g08.bks.cpg/sg15_15_cif.got.tgz:28014.got - 2010.06.03 18:47:42.
