data_PCOD9304784
_publ_section_title
;
Structure prediction by ZEFSAII (Michael W. Deem and Ramdas Pophale) SiO2 
 PCOD9304784
Probable space group: C 2/C
;
_chemical_formula_sum "Si O2"
_cell_formula_units_Z 40
_cell_length_a 16.850710
_cell_length_b 12.219507
_cell_length_c 15.992672
_cell_angle_alpha 90.000000
_cell_angle_beta 146.618900
_cell_angle_gamma 90.000000
_cell_volume 1811.831081
_symmetry_space_group_name_H-M "C 2/C"
_symmetry_group_IT_number 15
_symmetry_cell_setting 'monoclinic'
loop_
_space_group_symop_operation_xyz
x,y,z
-x,y,1/2-z
-x,-y,-z
x,-y,1/2+z
1/2+x,1/2+y,z
1/2-x,1/2+y,1/2-z
1/2-x,1/2-y,-z
1/2+x,1/2-y,1/2+z
loop_
_atom_site_type_symbol
_atom_site_label
_atom_site_fract_x
_atom_site_fract_y
_atom_site_fract_z
Si Si1 0.343657 0.743721 0.891305
Si Si2 0.786560 0.945861 0.638448
Si Si3 0.126001 0.651907 0.575272
Si Si4 0.610669 0.298936 0.420129
Si Si5 0.375140 0.529784 0.029284
O O1 0.247494 0.824380 0.861859
O O2 0.264958 0.716082 0.734273
O O3 0.494987 0.811014 0.020662
O O4 0.347207 0.624905 0.938650
O O5 0.784357 0.954789 0.535444
O O6 0.953364 0.966260 0.805792
O O7 0.685754 0.032214 0.600932
O O8 0.059814 0.700847 0.432380
O O9 0.500000 0.330668 0.250000
O O10 0.750000 0.250000 0.500000
O O11 0.648071 0.402267 0.511632
#
# Coordination Sequence:
#
# PCOD9304784 Si02
#       5
#     8   8   8   8   8
#     4  12  26  45  71 107 148 185 241 297 367 420
#     4  11  23  47  68 104 144 191 242 291 356 434
#     4  12  26  44  72 107 143 183 238 303 360 420
#     4  12  23  46  73 103 136 185 240 288 351 431
#     4  11  23  46  74  98 144 196 236 290 362 433
#
# _framework density 22.077112
#
# number of rings (size 3 to 8) (size 9 to 14) (size 15 to 20)
#    0.000    0.400    6.000    3.600    2.800    1.600 
#    3.600    0.000    0.000    0.000    0.000    0.000 
#    0.000    0.000    0.000    0.000    0.000    0.000 
#
# Total GULP energy -111463.415716 kJ/mol
# GULP energy per Si atom -5573.170786 kJ/mol
# Density = 2.202686 g / cm^3
# Si number density = 22.077112 Si / 1000 Ang^3
#
#
#
# Elastic Constant Matrix: (Units=GPa)
#
#
# Indices 1 2 3 4 5 6 
#
# 1 40.4399 22.0476 28.5966 0.0000 11.1373 0.0000
# 2 22.0476 126.8608 43.1476 0.0000 -0.6933 0.0000
# 3 28.5966 43.1476 69.7263 0.0000 5.2827 0.0000
# 4 0.0000 0.0000 0.0000 33.7967 0.0000 -4.1305
# 5 11.1373 -0.6933 5.2827 0.0000 31.7665 0.0000
# 6 0.0000 0.0000 0.0000 -4.1305 0.0000 46.3873
#
#
#
# Elastic Compliance Matrix: (Units=1/GPa)
#
#
# Indices 1 2 3 4 5 6 
#
# 1 0.038693 -0.002130 -0.013693 0.000000 -0.011335 0.000000
# 2 -0.002130 0.010151 -0.005552 0.000000 0.001891 0.000000
# 3 -0.013693 -0.005552 0.023332 0.000000 0.000799 0.000000
# 4 0.000000 0.000000 0.000000 0.029914 0.000000 0.002664
# 5 -0.011335 0.001891 0.000799 0.000000 0.035362 0.000000
# 6 0.000000 0.000000 0.000000 0.002664 0.000000 0.021795
#
#
# Mechanical properties :
#
#
# Convention : Reuss Voigt Hill
#
# Bulk Modulus (GPa) = 33.97952 47.17895 40.57923
# Shear Modulus (GPa) = 23.60650 31.93910 27.77280
#
# Velocity S-wave (km/s) = 3.27352 3.80769 3.55066
# Velocity P-wave (km/s) = 5.45093 6.38340 5.93550
#
# Compressibility (1/GPa) = 0.02942949
#
# Stress axis : x y z
#
# Youngs Moduli (GPa) = 25.84414 98.50938 42.85883
#
# Poissons Ratio (x) = 0.20978 0.58685
# Poissons Ratio (y) = 0.05504 0.23794
# Poissons Ratio (z) = 0.35388 0.54689
#
# Static dielectric constant tensor:
#      x y z
#    x 1.981670 0.000000 0.030900 
#    y 0.000000 1.809960 0.000000 
#    z 0.030900 0.000000 1.788460 
# 
# From -- ./inp_files/210751.got.cif
#   From: 2010.05.17/outbox.cif.g08.bks.cpg/sg15_106_cif.got.tgz:210751.got - 2010.06.03 18:47:42.
