data_PCOD9304804
_publ_section_title
;
Structure prediction by ZEFSAII (Michael W. Deem and Ramdas Pophale) SiO2 
 PCOD9304804
Probable space group: C 2/C
;
_chemical_formula_sum "Si O2"
_cell_formula_units_Z 44
_cell_length_a 7.445133
_cell_length_b 12.147962
_cell_length_c 20.010460
_cell_angle_alpha 90.000000
_cell_angle_beta 105.376157
_cell_angle_gamma 90.000000
_cell_volume 1745.029246
_symmetry_space_group_name_H-M "C 2/C"
_symmetry_group_IT_number 15
_symmetry_cell_setting 'monoclinic'
loop_
_space_group_symop_operation_xyz
x,y,z
-x,y,1/2-z
-x,-y,-z
x,-y,1/2+z
1/2+x,1/2+y,z
1/2-x,1/2+y,1/2-z
1/2-x,1/2-y,-z
1/2+x,1/2-y,1/2+z
loop_
_atom_site_type_symbol
_atom_site_label
_atom_site_fract_x
_atom_site_fract_y
_atom_site_fract_z
Si Si1 0.184016 0.538344 0.813077
Si Si2 0.000000 0.976247 0.250000
Si Si3 0.745606 0.607031 0.954430
Si Si4 0.624345 0.184012 0.933527
Si Si5 0.799380 0.890039 0.621122
Si Si6 0.130309 0.668899 0.392247
O O1 0.358546 0.579379 0.786998
O O2 0.198797 0.598986 0.886145
O O3 0.178784 0.408653 0.834081
O O4 0.000000 0.560631 0.750000
O O5 0.862765 0.051709 0.194023
O O6 0.683467 0.484145 0.933298
O O7 0.650944 0.699064 0.897863
O O8 0.960509 0.620994 0.954193
O O9 0.737890 0.634972 0.031678
O O10 0.568935 0.287734 0.882223
O O11 0.750000 0.250000 0.000000
O O12 0.584979 0.855561 0.610129
#
# Coordination Sequence:
#
# PCOD9304804 Si02
#       6
#     8   4   8   8   8   8
#     4  12  26  51  77 111 160 212 258 330 394 472
#     4  12  28  48  72 110 152 212 268 308 394 474
#     4  11  24  47  75 115 152 199 252 324 393 460
#     4  12  25  45  79 112 151 203 263 325 393 471
#     4  12  25  47  72 109 153 201 252 320 384 463
#     4  11  23  46  78 107 152 199 250 319 389 453
#
# _framework density 25.214476999999999
#
# number of rings (size 3 to 8) (size 9 to 14) (size 15 to 20)
#    0.000    0.364    5.455    2.727    3.818    0.000 
#    4.909    4.545    0.000    0.000    0.000    0.000 
#    0.000    0.000    0.000    0.000    0.000    0.000 
#
# Total GULP energy -123076.078313 kJ/mol
# GULP energy per Si atom -5594.367196 kJ/mol
# Density = 2.515709 g / cm^3
# Si number density = 25.214477 Si / 1000 Ang^3
#
#
#
# Elastic Constant Matrix: (Units=GPa)
#
#
# Indices 1 2 3 4 5 6 
#
# 1 106.5879 20.4186 39.2268 0.0000 -8.3851 0.0000
# 2 20.4186 94.6470 -9.0111 0.0000 9.8562 0.0000
# 3 39.2268 -9.0111 91.4477 0.0000 5.7350 0.0000
# 4 0.0000 0.0000 0.0000 23.8793 0.0000 0.4240
# 5 -8.3851 9.8562 5.7350 0.0000 39.0458 0.0000
# 6 0.0000 0.0000 0.0000 0.4240 0.0000 33.3093
#
#
#
# Elastic Compliance Matrix: (Units=1/GPa)
#
#
# Indices 1 2 3 4 5 6 
#
# 1 0.012725 -0.003806 -0.006122 0.000000 0.004593 0.000000
# 2 -0.003806 0.012133 0.003100 0.000000 -0.004336 0.000000
# 3 -0.006122 0.003100 0.014128 0.000000 -0.004172 0.000000
# 4 0.000000 0.000000 0.000000 0.041887 0.000000 -0.000533
# 5 0.004593 -0.004336 -0.004172 0.000000 0.028305 0.000000
# 6 0.000000 0.000000 0.000000 -0.000533 0.000000 0.030028
#
#
# Mechanical properties :
#
#
# Convention : Reuss Voigt Hill
#
# Bulk Modulus (GPa) = 39.47664 43.77234 41.62449
# Shear Modulus (GPa) = 30.99697 35.38344 33.19020
#
# Velocity S-wave (km/s) = 3.50999 3.75013 3.63204
# Velocity P-wave (km/s) = 5.66719 6.01240 5.84234
#
# Compressibility (1/GPa) = 0.02533144
#
# Stress axis : x y z
#
# Youngs Moduli (GPa) = 78.58335 82.41710 70.77988
#
# Poissons Ratio (x) = 0.31371 0.43329
# Poissons Ratio (y) = 0.29912 -0.21944
# Poissons Ratio (z) = 0.48106 -0.25552
#
# Static dielectric constant tensor:
#      x y z
#    x 2.068630 0.000000 -0.012010 
#    y 0.000000 2.010210 0.000000 
#    z -0.012010 0.000000 2.036980 
# 
# From -- ./inp_files/230244.got.cif
#   From: 2010.05.17/outbox.cif.g08.bks.cpg/sg15_116_cif.got.tgz:230244.got - 2010.06.03 18:47:42.
