data_PCOD9304914
_publ_section_title
;
Structure prediction by ZEFSAII (Michael W. Deem and Ramdas Pophale) SiO2 
 PCOD9304914
Probable space group: C 2/C
;
_chemical_formula_sum "Si O2"
_cell_formula_units_Z 40
_cell_length_a 26.848700
_cell_length_b 11.078528
_cell_length_c 10.264667
_cell_angle_alpha 90.000000
_cell_angle_beta 34.538116
_cell_angle_gamma 90.000000
_cell_volume 1731.004860
_symmetry_space_group_name_H-M "C 2/C"
_symmetry_group_IT_number 15
_symmetry_cell_setting 'monoclinic'
loop_
_space_group_symop_operation_xyz
x,y,z
-x,y,1/2-z
-x,-y,-z
x,-y,1/2+z
1/2+x,1/2+y,z
1/2-x,1/2+y,1/2-z
1/2-x,1/2-y,-z
1/2+x,1/2-y,1/2+z
loop_
_atom_site_type_symbol
_atom_site_label
_atom_site_fract_x
_atom_site_fract_y
_atom_site_fract_z
Si Si1 0.592566 0.460137 0.854483
Si Si2 0.438913 0.019884 0.007065
Si Si3 0.299444 0.554307 0.646099
Si Si4 0.147651 0.712980 0.726179
Si Si5 0.320884 0.179880 0.120311
O O1 0.627822 0.537940 0.897794
O O2 0.658372 0.459351 0.588395
O O3 0.593121 0.322189 0.902828
O O4 0.500000 0.500000 0.000000
O O5 0.500000 0.006670 0.750000
O O6 0.368852 0.910998 0.165923
O O7 0.500000 0.000000 0.000000
O O8 0.381233 0.141115 0.111799
O O9 0.268819 0.693082 0.740152
O O10 0.235406 0.438962 0.796239
O O11 0.250000 0.750000 0.500000
O O12 0.118915 0.699682 0.637200
#
# Coordination Sequence:
#
# PCOD9304914 Si02
#       5
#     8   8   8   8   8
#     4  11  25  44  71 104 144 184 238 304 365 427
#     4  12  26  45  74 109 144 193 250 312 370 436
#     4  11  26  46  73 102 145 191 242 295 366 441
#     4  11  23  49  72 100 154 196 235 304 375 436
#     4  11  25  46  73 102 147 194 242 300 367 439
#
# _framework density 23.107966000000001
#
# number of rings (size 3 to 8) (size 9 to 14) (size 15 to 20)
#    0.000    0.800    4.000    3.000    2.800    2.400 
#    0.000    0.000    0.000    0.000    0.000    0.000 
#    0.000    0.000    0.000    0.000    0.000    0.000 
#
# Total GULP energy -111688.826198 kJ/mol
# GULP energy per Si atom -5584.441310 kJ/mol
# Density = 2.305537 g / cm^3
# Si number density = 23.107966 Si / 1000 Ang^3
#
#
#
# Elastic Constant Matrix: (Units=GPa)
#
#
# Indices 1 2 3 4 5 6 
#
# 1 134.0702 13.8526 -5.1789 0.0000 -8.1247 0.0000
# 2 13.8526 130.4392 6.4357 0.0000 -11.9267 0.0000
# 3 -5.1789 6.4357 40.8994 0.0000 -6.3603 0.0000
# 4 0.0000 0.0000 0.0000 23.9341 0.0000 0.5741
# 5 -8.1247 -11.9267 -6.3603 0.0000 38.4143 0.0000
# 6 0.0000 0.0000 0.0000 0.5741 0.0000 46.3431
#
#
#
# Elastic Compliance Matrix: (Units=1/GPa)
#
#
# Indices 1 2 3 4 5 6 
#
# 1 0.007685 -0.000734 0.001340 0.000000 0.001619 0.000000
# 2 -0.000734 0.007992 -0.001015 0.000000 0.002158 0.000000
# 3 0.001340 -0.001015 0.025430 0.000000 0.004179 0.000000
# 4 0.000000 0.000000 0.000000 0.041794 0.000000 -0.000518
# 5 0.001619 0.002158 0.004179 0.000000 0.027736 0.000000
# 6 0.000000 0.000000 0.000000 -0.000518 0.000000 0.021585
#
#
# Mechanical properties :
#
#
# Convention : Reuss Voigt Hill
#
# Bulk Modulus (GPa) = 24.82102 37.29194 31.05648
# Shear Modulus (GPa) = 34.13727 41.09158 37.61442
#
# Velocity S-wave (km/s) = 3.84773 4.22150 4.03894
# Velocity P-wave (km/s) = 5.52310 6.31938 5.93461
#
# Compressibility (1/GPa) = 0.04028843
#
# Stress axis : x y z
#
# Youngs Moduli (GPa) = 130.13137 125.12889 39.32440
#
# Poissons Ratio (x) = 0.09187 -0.05271
# Poissons Ratio (y) = 0.09554 0.03991
# Poissons Ratio (z) = -0.17443 0.12700
#
# Static dielectric constant tensor:
#      x y z
#    x 1.955080 0.000000 -0.034950 
#    y 0.000000 1.966580 0.000000 
#    z -0.034950 0.000000 1.860290 
# 
# From -- ./inp_files/126354.got.cif
#   From: 2010.05.17/outbox.cif.g08.bks.cpg/sg15_64_cif.got.tgz:126354.got - 2010.06.03 18:47:42.
