data_PCOD9304727
_publ_section_title
;
Structure prediction by ZEFSAII (Michael W. Deem and Ramdas Pophale) SiO2 
 PCOD9304727
Probable space group: C 2/C
;
_chemical_formula_sum "Si O2"
_cell_formula_units_Z 32
_cell_length_a 11.704742
_cell_length_b 7.908560
_cell_length_c 15.218467
_cell_angle_alpha 90.000000
_cell_angle_beta 66.103362
_cell_angle_gamma 90.000000
_cell_volume 1287.977587
_symmetry_space_group_name_H-M "C 2/C"
_symmetry_group_IT_number 15
_symmetry_cell_setting 'monoclinic'
loop_
_space_group_symop_operation_xyz
x,y,z
-x,y,1/2-z
-x,-y,-z
x,-y,1/2+z
1/2+x,1/2+y,z
1/2-x,1/2+y,1/2-z
1/2-x,1/2-y,-z
1/2+x,1/2-y,1/2+z
loop_
_atom_site_type_symbol
_atom_site_label
_atom_site_fract_x
_atom_site_fract_y
_atom_site_fract_z
Si Si1 0.012817 0.652953 0.371423
Si Si2 0.351876 0.639860 0.519572
Si Si3 0.283820 0.173424 0.345173
Si Si4 0.469437 0.779004 0.155793
O O1 0.081917 0.750680 0.425780
O O2 0.115381 0.632857 0.261947
O O3 0.979500 0.456950 0.397704
O O4 0.882212 0.744219 0.386315
O O5 0.250000 0.750000 0.500000
O O6 0.285907 0.482182 0.586409
O O7 0.460985 0.622540 0.412820
O O8 0.174679 0.275483 0.330283
O O9 0.500000 0.771824 0.250000
#
# Coordination Sequence:
#
# PCOD9304727 Si02
#       4
#     8   8   8   8
#     4  11  23  46  67  98 135 179 220 275 337 397
#     4  12  24  45  71  99 137 177 225 274 335 399
#     4  11  24  44  68  99 136 175 224 275 335 396
#     4  12  24  47  68  99 138 178 222 281 330 393
#
# _framework density 24.845154000000001
#
# number of rings (size 3 to 8) (size 9 to 14) (size 15 to 20)
#    0.000    0.500    5.000    4.500    0.000    1.000 
#   13.500    0.000    0.000    0.000    0.000    0.000 
#    0.000    0.000    0.000    0.000    0.000    0.000 
#
# Total GULP energy -89430.742630 kJ/mol
# GULP energy per Si atom -5589.421414 kJ/mol
# Density = 2.478861 g / cm^3
# Si number density = 24.845154 Si / 1000 Ang^3
#
#
#
# Elastic Constant Matrix: (Units=GPa)
#
#
# Indices 1 2 3 4 5 6 
#
# 1 266.9653 54.9452 49.5495 0.0000 32.0393 0.0000
# 2 54.9452 71.6829 37.8527 0.0000 25.7743 0.0000
# 3 49.5495 37.8527 105.4295 0.0000 21.2910 0.0000
# 4 0.0000 0.0000 0.0000 -5.3237 0.0000 -3.7552
# 5 32.0393 25.7743 21.2910 0.0000 51.9667 0.0000
# 6 0.0000 0.0000 0.0000 -3.7552 0.0000 47.8033
#
#
#
# Elastic Compliance Matrix: (Units=1/GPa)
#
#
# Indices 1 2 3 4 5 6 
#
# 1 0.004601 -0.002586 -0.001003 0.000000 -0.001143 0.000000
# 2 -0.002586 0.020986 -0.004949 0.000000 -0.006787 0.000000
# 3 -0.001003 -0.004949 0.012115 0.000000 -0.001891 0.000000
# 4 0.000000 0.000000 0.000000 -0.177977 0.000000 -0.013981
# 5 -0.001143 -0.006787 -0.001891 0.000000 0.024089 0.000000
# 6 0.000000 0.000000 0.000000 -0.013981 0.000000 0.019821
#
#
# Mechanical properties :
#
#
# Convention : Reuss Voigt Hill
#
# Bulk Modulus (GPa) = 48.48164 80.97472 64.72818
# Shear Modulus (GPa) = -69.04815 39.00462 -15.02177
#
# Velocity S-wave (km/s) = -5.27747 3.96651 -2.46156
# Velocity P-wave (km/s) = 4.19282 7.32394 4.24619
#
# Compressibility (1/GPa) = 0.02062636
#
# Stress axis : x y z
#
# Youngs Moduli (GPa) = 217.32097 47.65063 82.54209
#
# Poissons Ratio (x) = 0.12324 0.08280
# Poissons Ratio (y) = 0.56205 0.40848
# Poissons Ratio (z) = 0.21801 0.23581
#
# Static dielectric constant tensor:
#      x y z
#    x 2.050920 0.000000 -0.008060 
#    y 0.000000 1.974760 0.000000 
#    z -0.008060 0.000000 2.033640 
# 
# From -- ./inp_files/140693.got.cif
#   From: 2010.05.17/outbox.cif.g08.bks.cpg/sg15_71_cif.got.tgz:140693.got - 2010.06.03 18:47:42.
