data_PCOD9304090
_publ_section_title
;
Structure prediction by ZEFSAII (Michael W. Deem and Ramdas Pophale) SiO2 
 PCOD9304090
Probable space group: C 2/C
;
_chemical_formula_sum "Si O2"
_cell_formula_units_Z 56
_cell_length_a 30.726905
_cell_length_b 11.580045
_cell_length_c 15.690160
_cell_angle_alpha 90.000000
_cell_angle_beta 28.024720
_cell_angle_gamma 90.000000
_cell_volume 2623.118707
_symmetry_space_group_name_H-M "C 2/C"
_symmetry_group_IT_number 15
_symmetry_cell_setting 'monoclinic'
loop_
_space_group_symop_operation_xyz
x,y,z
-x,y,1/2-z
-x,-y,-z
x,-y,1/2+z
1/2+x,1/2+y,z
1/2-x,1/2+y,1/2-z
1/2-x,1/2-y,-z
1/2+x,1/2-y,1/2+z
loop_
_atom_site_type_symbol
_atom_site_label
_atom_site_fract_x
_atom_site_fract_y
_atom_site_fract_z
Si Si1 0.137071 0.635139 0.642344
Si Si2 0.922993 0.915536 0.169655
Si Si3 0.249235 0.696874 0.674922
Si Si4 0.233610 0.778175 0.159320
Si Si5 0.071833 0.410441 0.698016
Si Si6 0.041601 0.698006 0.973423
Si Si7 0.261103 0.481282 0.558056
O O1 0.193672 0.734147 0.495958
O O2 0.098750 0.544146 0.640429
O O3 0.061088 0.685600 0.839139
O O4 0.201151 0.554795 0.593433
O O5 0.844970 0.863842 0.240793
O O6 0.864608 0.975823 0.343959
O O7 0.978513 0.805576 0.105189
O O8 0.000000 0.000000 0.000000
O O9 0.275935 0.733893 0.722954
O O10 0.141042 0.716954 0.844216
O O11 0.260304 0.559076 0.643699
O O12 0.227902 0.650348 0.127854
O O13 0.334526 0.834762 0.966319
O O14 0.000000 0.371555 0.750000
O O15 0.015110 0.405194 0.885023
#
# Coordination Sequence:
#
# PCOD9304090 Si02
#       7
#     8   8   8   8   8   8   8
#     4  11  24  43  70 101 141 179 235 291 357 426
#     4  12  24  43  72 101 138 182 239 289 349 425
#     4  11  26  45  70 105 148 183 231 297 372 409
#     4  12  26  45  70 107 141 188 242 293 361 421
#     4  12  24  43  68 101 137 182 235 299 352 419
#     4  11  23  42  67 102 132 183 236 280 346 432
#     4  11  23  45  73  97 140 191 234 290 350 434
#
# _framework density 21.348635000000002
#
# number of rings (size 3 to 8) (size 9 to 14) (size 15 to 20)
#    0.000    0.571    4.286    5.143    2.000    2.286 
#    0.000    3.571    0.000    0.000    0.000    0.000 
#    0.000    0.000    0.000    0.000    0.000    0.000 
#
# Total GULP energy -156508.004189 kJ/mol
# GULP energy per Si atom -5589.571578 kJ/mol
# Density = 2.130004 g / cm^3
# Si number density = 21.348635 Si / 1000 Ang^3
#
#
#
# Elastic Constant Matrix: (Units=GPa)
#
#
# Indices 1 2 3 4 5 6 
#
# 1 72.6416 27.9493 41.2802 0.0000 -2.0148 0.0000
# 2 27.9493 47.3208 6.9093 0.0000 -12.9666 0.0000
# 3 41.2802 6.9093 106.7042 0.0000 -5.3702 0.0000
# 4 0.0000 0.0000 0.0000 42.7709 0.0000 1.5992
# 5 -2.0148 -12.9666 -5.3702 0.0000 32.9022 0.0000
# 6 0.0000 0.0000 0.0000 1.5992 0.0000 24.3899
#
#
#
# Elastic Compliance Matrix: (Units=1/GPa)
#
#
# Indices 1 2 3 4 5 6 
#
# 1 0.024138 -0.014543 -0.008682 0.000000 -0.005670 0.000000
# 2 -0.014543 0.032575 0.004152 0.000000 0.012625 0.000000
# 3 -0.008682 0.004152 0.012621 0.000000 0.003165 0.000000
# 4 0.000000 0.000000 0.000000 0.023438 0.000000 -0.001537
# 5 -0.005670 0.012625 0.003165 0.000000 0.035538 0.000000
# 6 0.000000 0.000000 0.000000 -0.001537 0.000000 0.041101
#
#
# Mechanical properties :
#
#
# Convention : Reuss Voigt Hill
#
# Bulk Modulus (GPa) = 32.06278 42.10493 37.08385
# Shear Modulus (GPa) = 22.94085 30.04779 26.49432
#
# Velocity S-wave (km/s) = 3.28164 3.75571 3.52665
# Velocity P-wave (km/s) = 5.42311 6.21068 5.83021
#
# Compressibility (1/GPa) = 0.03118881
#
# Stress axis : x y z
#
# Youngs Moduli (GPa) = 41.42844 30.69851 79.23417
#
# Poissons Ratio (x) = 0.44644 0.68790
# Poissons Ratio (y) = 0.60248 -0.32899
# Poissons Ratio (z) = 0.35968 -0.12747
#
# Static dielectric constant tensor:
#      x y z
#    x 1.801010 0.000000 0.021500 
#    y 0.000000 1.917330 0.000000 
#    z 0.021500 0.000000 1.799420 
# 
# From -- ./inp_files/181921.got.cif
#   From: 2010.05.17/outbox.cif.g08.bks.cpg/sg15_91_cif.got.tgz:181921.got - 2010.06.03 18:47:42.
