data_PCOD9304968
_publ_section_title
;
Structure prediction by ZEFSAII (Michael W. Deem and Ramdas Pophale) SiO2 
 PCOD9304968
Probable space group: C 2/C
;
_chemical_formula_sum "Si O2"
_cell_formula_units_Z 36
_cell_length_a 6.524028
_cell_length_b 33.799108
_cell_length_c 13.622776
_cell_angle_alpha 90.000000
_cell_angle_beta 43.429941
_cell_angle_gamma 90.000000
_cell_volume 2065.088134
_symmetry_space_group_name_H-M "C 2/C"
_symmetry_group_IT_number 15
_symmetry_cell_setting 'monoclinic'
loop_
_space_group_symop_operation_xyz
x,y,z
-x,y,1/2-z
-x,-y,-z
x,-y,1/2+z
1/2+x,1/2+y,z
1/2-x,1/2+y,1/2-z
1/2-x,1/2-y,-z
1/2+x,1/2-y,1/2+z
loop_
_atom_site_type_symbol
_atom_site_label
_atom_site_fract_x
_atom_site_fract_y
_atom_site_fract_z
Si Si1 0.116090 0.811554 0.098864
Si Si2 0.500000 0.421976 0.750000
Si Si3 0.393310 0.115084 0.396779
Si Si4 0.838027 0.964086 0.608083
Si Si5 0.800138 0.742586 0.096494
O O1 0.000000 0.816876 0.250000
O O2 0.885682 0.783523 0.120914
O O3 0.192737 0.852376 0.018657
O O4 0.424966 0.787145 0.989482
O O5 0.490912 0.448864 0.655293
O O6 0.801905 0.395937 0.651625
O O7 0.500000 0.127965 0.250000
O O8 0.208360 0.074711 0.443538
O O9 0.500000 0.976578 0.750000
O O10 0.000000 0.000000 0.500000
O O11 0.500000 0.726422 0.250000
O O12 0.750000 0.750000 0.000000
#
# Coordination Sequence:
#
# PCOD9304968 Si02
#       5
#     8   4   8   8   8
#     4  11  24  40  57  91 121 145 205 251 285 352
#     4   8  18  38  58  80 114 156 188 224 298 340
#     4   9  21  37  59  84 116 155 195 238 288 354
#     4   9  19  38  58  86 114 148 194 234 283 355
#     4  11  24  41  61  83 116 163 193 239 301 347
#
# _framework density 17.432670000000002
#
# number of rings (size 3 to 8) (size 9 to 14) (size 15 to 20)
#    0.000    2.667    2.222    0.000    4.667    5.333 
#    6.000    0.000    0.000    0.000    0.000    0.000 
#    0.000    0.000    0.000    0.000    0.000    0.000 
#
# Total GULP energy -100383.614469 kJ/mol
# GULP energy per Si atom -5576.867470 kJ/mol
# Density = 1.739299 g / cm^3
# Si number density = 17.432670 Si / 1000 Ang^3
#
#
#
# Elastic Constant Matrix: (Units=GPa)
#
#
# Indices 1 2 3 4 5 6 
#
# 1 101.7148 34.5833 38.7662 0.0000 0.4948 0.0000
# 2 34.5833 118.9788 70.5386 0.0000 9.3510 0.0000
# 3 38.7662 70.5386 117.1034 0.0000 10.7404 0.0000
# 4 0.0000 0.0000 0.0000 37.9771 0.0000 7.8440
# 5 0.4948 9.3510 10.7404 0.0000 25.4212 0.0000
# 6 0.0000 0.0000 0.0000 7.8440 0.0000 7.2661
#
#
#
# Elastic Compliance Matrix: (Units=1/GPa)
#
#
# Indices 1 2 3 4 5 6 
#
# 1 0.011530 -0.001755 -0.002911 0.000000 0.001651 0.000000
# 2 -0.001755 0.013399 -0.007325 0.000000 -0.001800 0.000000
# 3 -0.002911 -0.007325 0.014214 0.000000 -0.003254 0.000000
# 4 0.000000 0.000000 0.000000 0.033888 0.000000 -0.036583
# 5 0.001651 -0.001800 -0.003254 0.000000 0.041342 0.000000
# 6 0.000000 0.000000 0.000000 -0.036583 0.000000 0.177119
#
#
# Mechanical properties :
#
#
# Convention : Reuss Voigt Hill
#
# Bulk Modulus (GPa) = 65.96177 69.50811 67.73494
# Shear Modulus (GPa) = 15.59928 27.06014 21.32971
#
# Velocity S-wave (km/s) = 2.99462 3.94416 3.50172
# Velocity P-wave (km/s) = 7.06237 7.79107 7.43565
#
# Compressibility (1/GPa) = 0.01516030
#
# Stress axis : x y z
#
# Youngs Moduli (GPa) = 86.73329 74.63066 70.35357
#
# Poissons Ratio (x) = 0.13100 0.20479
# Poissons Ratio (y) = 0.15224 0.51535
# Poissons Ratio (z) = 0.25247 0.54668
#
# Static dielectric constant tensor:
#      x y z
#    x 1.594770 0.000000 -0.015650 
#    y 0.000000 1.584820 0.000000 
#    z -0.015650 0.000000 1.579210 
# 
# From -- ./inp_files/73551.got.cif
#   From: 2010.05.17/outbox.cif.g08.bks.cpg/sg15_37_cif.got.tgz:73551.got - 2010.06.03 18:47:42.
