data_PCOD9304384
_publ_section_title
;
Structure prediction by ZEFSAII (Michael W. Deem and Ramdas Pophale) SiO2 
 PCOD9304384
Probable space group: C 2/C
;
_chemical_formula_sum "Si O2"
_cell_formula_units_Z 52
_cell_length_a 14.983338
_cell_length_b 12.304092
_cell_length_c 14.081489
_cell_angle_alpha 90.000000
_cell_angle_beta 115.814025
_cell_angle_gamma 90.000000
_cell_volume 2336.961860
_symmetry_space_group_name_H-M "C 2/C"
_symmetry_group_IT_number 15
_symmetry_cell_setting 'monoclinic'
loop_
_space_group_symop_operation_xyz
x,y,z
-x,y,1/2-z
-x,-y,-z
x,-y,1/2+z
1/2+x,1/2+y,z
1/2-x,1/2+y,1/2-z
1/2-x,1/2-y,-z
1/2+x,1/2-y,1/2+z
loop_
_atom_site_type_symbol
_atom_site_label
_atom_site_fract_x
_atom_site_fract_y
_atom_site_fract_z
Si Si1 0.600655 0.273249 0.991978
Si Si2 0.915954 0.932253 0.865722
Si Si3 0.732256 0.263390 0.777666
Si Si4 0.000000 0.105042 0.750000
Si Si5 0.206452 0.981305 0.013349
Si Si6 0.398187 0.901753 0.162293
Si Si7 0.201221 0.181427 0.893295
O O1 0.497460 0.341345 0.935669
O O2 0.584850 0.163035 0.927451
O O3 0.663057 0.245010 0.116448
O O4 0.677422 0.357626 0.976566
O O5 0.825054 0.875927 0.767482
O O6 0.871108 0.981856 0.941797
O O7 0.962285 0.024311 0.817462
O O8 0.652266 0.187298 0.792909
O O9 0.751798 0.214461 0.683324
O O10 0.083326 0.185021 0.829375
O O11 0.314038 0.989888 0.109401
O O12 0.211197 0.055143 0.924357
O O13 0.500000 0.943420 0.250000
O O14 0.250000 0.250000 0.000000
#
# Coordination Sequence:
#
# PCOD9304384 Si02
#       7
#     8   8   8   4   8   8   8
#     4  11  23  43  73 106 134 175 233 294 343 404
#     4  12  23  44  74 105 135 180 240 287 340 410
#     4  11  24  41  68 104 142 176 223 291 352 405
#     4  12  26  42  78 102 126 190 246 280 344 408
#     4  11  24  42  68 100 142 178 232 289 334 415
#     4  11  23  46  69 101 138 181 227 289 355 409
#     4  12  27  46  64 100 147 183 226 284 349 411
#
# _framework density 22.251111999999999
#
# number of rings (size 3 to 8) (size 9 to 14) (size 15 to 20)
#    0.000    0.615    4.615    5.077    4.308    0.000 
#    1.385    2.308    0.000    0.000    0.000    0.000 
#    0.000    0.000    0.000    0.000    0.000    0.000 
#
# Total GULP energy -145276.482955 kJ/mol
# GULP energy per Si atom -5587.557037 kJ/mol
# Density = 2.220047 g / cm^3
# Si number density = 22.251112 Si / 1000 Ang^3
#
#
#
# Elastic Constant Matrix: (Units=GPa)
#
#
# Indices 1 2 3 4 5 6 
#
# 1 100.8071 19.1948 49.5204 0.0000 14.9532 0.0000
# 2 19.1948 28.7837 22.5004 0.0000 2.3932 0.0000
# 3 49.5204 22.5004 133.8536 0.0000 7.9788 0.0000
# 4 0.0000 0.0000 0.0000 40.0807 0.0000 11.7725
# 5 14.9532 2.3932 7.9788 0.0000 42.0978 0.0000
# 6 0.0000 0.0000 0.0000 11.7725 0.0000 32.7268
#
#
#
# Elastic Compliance Matrix: (Units=1/GPa)
#
#
# Indices 1 2 3 4 5 6 
#
# 1 0.013413 -0.005675 -0.003786 0.000000 -0.003724 0.000000
# 2 -0.005675 0.042441 -0.005068 0.000000 0.000564 0.000000
# 3 -0.003786 -0.005068 0.009736 0.000000 -0.000212 0.000000
# 4 0.000000 0.000000 0.000000 0.027897 0.000000 -0.010035
# 5 -0.003724 0.000564 -0.000212 0.000000 0.025085 0.000000
# 6 0.000000 0.000000 0.000000 -0.010035 0.000000 0.034166
#
#
# Mechanical properties :
#
#
# Convention : Reuss Voigt Hill
#
# Bulk Modulus (GPa) = 27.37393 49.54172 38.45782
# Shear Modulus (GPa) = 25.77645 34.46298 30.11972
#
# Velocity S-wave (km/s) = 3.40727 3.93978 3.68316
# Velocity P-wave (km/s) = 5.27336 6.55812 5.95051
#
# Compressibility (1/GPa) = 0.03653111
#
# Stress axis : x y z
#
# Youngs Moduli (GPa) = 74.55485 23.56186 102.70905
#
# Poissons Ratio (x) = 0.13372 0.38889
# Poissons Ratio (y) = 0.42311 0.52056
# Poissons Ratio (z) = 0.28229 0.11942
#
# Static dielectric constant tensor:
#      x y z
#    x 1.862790 0.000000 0.061100 
#    y 0.000000 1.832940 0.000000 
#    z 0.061100 0.000000 1.966930 
# 
# From -- ./inp_files/152674.got.cif
#   From: 2010.05.17/outbox.cif.g08.bks.cpg/sg15_77_cif.got.tgz:152674.got - 2010.06.03 18:47:42.
