data_PCOD9304446
_publ_section_title
;
Structure prediction by ZEFSAII (Michael W. Deem and Ramdas Pophale) SiO2 
 PCOD9304446
Probable space group: C 2/C
;
_chemical_formula_sum "Si O2"
_cell_formula_units_Z 48
_cell_length_a 18.229160
_cell_length_b 12.501420
_cell_length_c 11.062161
_cell_angle_alpha 90.000000
_cell_angle_beta 128.390553
_cell_angle_gamma 90.000000
_cell_volume 1975.918122
_symmetry_space_group_name_H-M "C 2/C"
_symmetry_group_IT_number 15
_symmetry_cell_setting 'monoclinic'
loop_
_space_group_symop_operation_xyz
x,y,z
-x,y,1/2-z
-x,-y,-z
x,-y,1/2+z
1/2+x,1/2+y,z
1/2-x,1/2+y,1/2-z
1/2-x,1/2-y,-z
1/2+x,1/2-y,1/2+z
loop_
_atom_site_type_symbol
_atom_site_label
_atom_site_fract_x
_atom_site_fract_y
_atom_site_fract_z
Si Si1 0.500000 0.424084 0.250000
Si Si2 0.156698 0.311853 0.783882
Si Si3 0.750000 0.750000 0.500000
Si Si4 0.117193 0.081330 0.494378
Si Si5 0.675867 0.156361 0.570218
Si Si6 0.235700 0.057155 0.279885
Si Si7 0.011462 0.777015 0.497873
O O1 0.589998 0.499805 0.360337
O O2 0.501411 0.350974 0.369447
O O3 0.220977 0.206818 0.838023
O O4 0.227327 0.401425 0.812044
O O5 0.068905 0.310465 0.605896
O O6 0.127547 0.325096 0.891558
O O7 0.803452 0.833390 0.460864
O O8 0.761794 0.845647 0.621633
O O9 0.023987 0.150732 0.428769
O O10 0.144579 0.008650 0.639284
O O11 0.611059 0.218785 0.600022
O O12 0.690369 0.032322 0.604473
#
# Coordination Sequence:
#
# PCOD9304446 Si02
#       7
#     4   8   4   8   8   8   8
#     4  12  26  44  76 104 146 190 256 314 374 434
#     4  11  23  44  68 105 142 187 243 294 365 450
#     4  12  26  48  74 108 156 192 254 314 366 462
#     4  12  27  46  73 112 147 198 249 315 378 439
#     4  11  24  42  75 101 144 191 237 302 368 444
#     4  12  24  45  76 107 146 198 248 304 383 440
#     4  12  23  47  70 107 143 185 250 308 361 452
#
# _framework density 24.292504000000001
#
# number of rings (size 3 to 8) (size 9 to 14) (size 15 to 20)
#    0.000    0.333    5.000    3.500    2.333    3.333 
#    0.000    0.000    0.000    0.000    0.000    0.000 
#    0.000    0.000    0.000    0.000    0.000    0.000 
#
# Total GULP energy -133627.183547 kJ/mol
# GULP energy per Si atom -5567.799314 kJ/mol
# Density = 2.423721 g / cm^3
# Si number density = 24.292504 Si / 1000 Ang^3
#
#
#
# Elastic Constant Matrix: (Units=GPa)
#
#
# Indices 1 2 3 4 5 6 
#
# 1 73.8562 40.6045 31.9391 0.0000 -8.5756 0.0000
# 2 40.6045 140.0934 53.7921 0.0000 -0.3697 0.0000
# 3 31.9391 53.7921 76.6175 0.0000 5.9435 0.0000
# 4 0.0000 0.0000 0.0000 41.0732 0.0000 -1.3947
# 5 -8.5756 -0.3697 5.9435 0.0000 35.3150 0.0000
# 6 0.0000 0.0000 0.0000 -1.3947 0.0000 39.3468
#
#
#
# Elastic Compliance Matrix: (Units=1/GPa)
#
#
# Indices 1 2 3 4 5 6 
#
# 1 0.018422 -0.003031 -0.005974 0.000000 0.005447 0.000000
# 2 -0.003031 0.010328 -0.006018 0.000000 0.000385 0.000000
# 3 -0.005974 -0.006018 0.020147 0.000000 -0.004904 0.000000
# 4 0.000000 0.000000 0.000000 0.024376 0.000000 0.000864
# 5 0.005447 0.000385 -0.004904 0.000000 0.030469 0.000000
# 6 0.000000 0.000000 0.000000 0.000864 0.000000 0.025446
#
#
# Mechanical properties :
#
#
# Convention : Reuss Voigt Hill
#
# Bulk Modulus (GPa) = 53.04338 60.35981 56.70160
# Shear Modulus (GPa) = 30.20816 34.09577 32.15197
#
# Velocity S-wave (km/s) = 3.53018 3.75046 3.64199
# Velocity P-wave (km/s) = 6.20475 6.60724 6.40916
#
# Compressibility (1/GPa) = 0.01885249
#
# Stress axis : x y z
#
# Youngs Moduli (GPa) = 54.28217 96.82158 49.63405
#
# Poissons Ratio (x) = 0.29349 0.29651
# Poissons Ratio (y) = 0.16454 0.29868
# Poissons Ratio (z) = 0.32428 0.58263
#
# Static dielectric constant tensor:
#      x y z
#    x 2.039520 0.000000 -0.024020 
#    y 0.000000 1.948930 0.000000 
#    z -0.024020 0.000000 2.041040 
# 
# From -- ./inp_files/111837.got.cif
#   From: 2010.05.17/outbox.cif.g08.bks.cpg/sg15_56_cif.got.tgz:111837.got - 2010.06.03 18:47:42.
