data_PCOD9304643
_publ_section_title
;
Structure prediction by ZEFSAII (Michael W. Deem and Ramdas Pophale) SiO2 
 PCOD9304643
Probable space group: C 2/C
;
_chemical_formula_sum "Si O2"
_cell_formula_units_Z 64
_cell_length_a 22.874496
_cell_length_b 12.078364
_cell_length_c 12.133712
_cell_angle_alpha 90.000000
_cell_angle_beta 112.227159
_cell_angle_gamma 90.000000
_cell_volume 3103.269901
_symmetry_space_group_name_H-M "C 2/C"
_symmetry_group_IT_number 15
_symmetry_cell_setting 'monoclinic'
loop_
_space_group_symop_operation_xyz
x,y,z
-x,y,1/2-z
-x,-y,-z
x,-y,1/2+z
1/2+x,1/2+y,z
1/2-x,1/2+y,1/2-z
1/2-x,1/2-y,-z
1/2+x,1/2-y,1/2+z
loop_
_atom_site_type_symbol
_atom_site_label
_atom_site_fract_x
_atom_site_fract_y
_atom_site_fract_z
Si Si1 0.360670 0.389634 0.812381
Si Si2 0.208454 0.859476 0.962701
Si Si3 0.215000 0.722595 0.591170
Si Si4 0.831512 0.143053 0.818923
Si Si5 0.564527 0.972154 0.226145
Si Si6 0.669736 0.996302 0.482823
Si Si7 0.523245 0.261092 0.644036
Si Si8 0.088673 0.338380 0.578956
O O1 0.335273 0.349934 0.675129
O O2 0.320133 0.327416 0.878386
O O3 0.351458 0.520790 0.799994
O O4 0.433587 0.355928 0.876143
O O5 0.250000 0.750000 0.000000
O O6 0.172024 0.863902 0.051249
O O7 0.258074 0.960762 0.988370
O O8 0.250000 0.750000 0.500000
O O9 0.265721 0.677313 0.716027
O O10 0.169366 0.618508 0.534166
O O11 0.878470 0.243567 0.825449
O O12 0.500000 0.974111 0.250000
O O13 0.567616 0.847859 0.183062
O O14 0.625946 0.994709 0.343804
O O15 0.558593 0.065426 0.130275
O O16 0.640410 0.903291 0.542436
O O17 0.500000 0.290576 0.750000
O O18 0.463043 0.221412 0.532674
#
# Coordination Sequence:
#
# PCOD9304643 Si02
#       8
#     8   8   8   8   8   8   8   8
#     4  12  26  45  70 100 137 182 228 282 344 405
#     4  12  22  42  69  99 131 174 224 276 341 404
#     4  12  26  45  67 104 143 178 219 284 349 413
#     4  12  27  45  67 101 139 178 229 278 333 421
#     4  11  24  41  66 101 131 170 222 279 334 394
#     4  12  23  40  71  99 131 172 216 285 337 394
#     4  11  23  45  71  99 132 177 234 284 331 400
#     4  12  24  43  67  96 135 174 225 272 335 392
#
# _framework density 20.623407
#
# number of rings (size 3 to 8) (size 9 to 14) (size 15 to 20)
#    0.000    0.250    6.250    4.125    3.500    0.500 
#    0.000    0.625    0.000    0.000    0.000    0.000 
#    0.000    0.000    0.000    0.000    0.000    0.000 
#
# Total GULP energy -178989.920466 kJ/mol
# GULP energy per Si atom -5593.435015 kJ/mol
# Density = 2.057647 g / cm^3
# Si number density = 20.623407 Si / 1000 Ang^3
#
#
#
# Elastic Constant Matrix: (Units=GPa)
#
#
# Indices 1 2 3 4 5 6 
#
# 1 55.5810 23.1988 -0.3912 0.0000 -2.9264 0.0000
# 2 23.1988 94.8203 -0.6260 0.0000 -0.0438 0.0000
# 3 -0.3912 -0.6260 41.5823 0.0000 7.3094 0.0000
# 4 0.0000 0.0000 0.0000 18.8054 0.0000 1.8715
# 5 -2.9264 -0.0438 7.3094 0.0000 36.2002 0.0000
# 6 0.0000 0.0000 0.0000 1.8715 0.0000 24.0955
#
#
#
# Elastic Compliance Matrix: (Units=1/GPa)
#
#
# Indices 1 2 3 4 5 6 
#
# 1 0.020134 -0.004926 -0.000176 0.000000 0.001657 0.000000
# 2 -0.004926 0.011753 0.000205 0.000000 -0.000425 0.000000
# 3 -0.000176 0.000205 0.024938 0.000000 -0.005049 0.000000
# 4 0.000000 0.000000 0.000000 0.053590 0.000000 -0.004162
# 5 0.001657 -0.000425 -0.005049 0.000000 0.028777 0.000000
# 6 0.000000 0.000000 0.000000 -0.004162 0.000000 0.041825
#
#
# Mechanical properties :
#
#
# Convention : Reuss Voigt Hill
#
# Bulk Modulus (GPa) = 21.26290 26.26074 23.76182
# Shear Modulus (GPa) = 24.21452 27.14035 25.67743
#
# Velocity S-wave (km/s) = 3.43027 3.63160 3.53237
# Velocity P-wave (km/s) = 5.10113 5.50870 5.30883
#
# Compressibility (1/GPa) = 0.04703028
#
# Stress axis : x y z
#
# Youngs Moduli (GPa) = 49.66726 85.08666 40.09993
#
# Poissons Ratio (x) = 0.41917 0.00706
# Poissons Ratio (y) = 0.24468 -0.00824
# Poissons Ratio (z) = 0.00874 -0.01748
#
# Static dielectric constant tensor:
#      x y z
#    x 1.782700 0.000000 -0.037830 
#    y 0.000000 1.764490 0.000000 
#    z -0.037830 0.000000 1.806600 
# 
# From -- ./inp_files/118029.got.cif
#   From: 2010.05.17/outbox.cif.g08.bks.cpg/sg15_60_cif.got.tgz:118029.got - 2010.06.03 18:47:42.
