data_PCOD9304552
_publ_section_title
;
Structure prediction by ZEFSAII (Michael W. Deem and Ramdas Pophale) SiO2 
 PCOD9304552
Probable space group: C 2/C
;
_chemical_formula_sum "Si O2"
_cell_formula_units_Z 48
_cell_length_a 11.922737
_cell_length_b 15.347978
_cell_length_c 11.762196
_cell_angle_alpha 90.000000
_cell_angle_beta 67.741488
_cell_angle_gamma 90.000000
_cell_volume 1991.978158
_symmetry_space_group_name_H-M "C 2/C"
_symmetry_group_IT_number 15
_symmetry_cell_setting 'monoclinic'
loop_
_space_group_symop_operation_xyz
x,y,z
-x,y,1/2-z
-x,-y,-z
x,-y,1/2+z
1/2+x,1/2+y,z
1/2-x,1/2+y,1/2-z
1/2-x,1/2-y,-z
1/2+x,1/2-y,1/2+z
loop_
_atom_site_type_symbol
_atom_site_label
_atom_site_fract_x
_atom_site_fract_y
_atom_site_fract_z
Si Si1 0.797206 0.925333 0.167428
Si Si2 0.146834 0.871107 0.823806
Si Si3 0.457405 0.281236 0.061994
Si Si4 0.864921 0.528513 0.578825
Si Si5 0.387495 0.858274 0.860850
Si Si6 0.751355 0.648346 0.065752
O O1 0.893427 0.852333 0.167381
O O2 0.676759 0.922786 0.291485
O O3 0.851128 0.023246 0.155908
O O4 0.770488 0.891354 0.050364
O O5 0.276401 0.835380 0.822359
O O6 0.141665 0.836128 0.695697
O O7 0.040381 0.831345 0.940172
O O8 0.543700 0.219056 0.101684
O O9 0.354124 0.222794 0.036849
O O10 0.829199 0.582995 0.481805
O O11 0.801452 0.436520 0.610498
O O12 0.000000 0.500000 0.500000
O O13 0.500000 0.903663 0.750000
#
# Coordination Sequence:
#
# PCOD9304552 Si02
#       6
#     8   8   8   8   8   8
#     4  11  26  48  70 101 146 184 237 284 361 425
#     4  11  25  48  71 100 144 189 234 289 359 431
#     4  12  26  43  72 109 138 184 236 297 356 412
#     4  11  23  44  74 103 135 190 233 289 353 421
#     4  12  23  46  73 102 139 180 241 294 347 422
#     4  11  24  46  69 104 140 183 236 293 350 422
#
# _framework density 24.096648999999999
#
# number of rings (size 3 to 8) (size 9 to 14) (size 15 to 20)
#    0.000    0.667    5.000    2.500    2.333    2.000 
#    3.000    0.000    0.000    0.000    0.000    0.000 
#    0.000    0.000    0.000    0.000    0.000    0.000 
#
# Total GULP energy -134054.757389 kJ/mol
# GULP energy per Si atom -5585.614891 kJ/mol
# Density = 2.404180 g / cm^3
# Si number density = 24.096649 Si / 1000 Ang^3
#
#
#
# Elastic Constant Matrix: (Units=GPa)
#
#
# Indices 1 2 3 4 5 6 
#
# 1 73.3034 27.7143 34.3209 0.0000 -11.3399 0.0000
# 2 27.7143 138.0862 55.0463 0.0000 -8.3114 0.0000
# 3 34.3209 55.0463 192.3647 0.0000 -15.3921 0.0000
# 4 0.0000 0.0000 0.0000 27.8325 0.0000 -6.9959
# 5 -11.3399 -8.3114 -15.3921 0.0000 37.9418 0.0000
# 6 0.0000 0.0000 0.0000 -6.9959 0.0000 13.1771
#
#
#
# Elastic Compliance Matrix: (Units=1/GPa)
#
#
# Indices 1 2 3 4 5 6 
#
# 1 0.015923 -0.002217 -0.001927 0.000000 0.003491 0.000000
# 2 -0.002217 0.008511 -0.002009 0.000000 0.000387 0.000000
# 3 -0.001927 -0.002009 0.006238 0.000000 0.001515 0.000000
# 4 0.000000 0.000000 0.000000 0.041462 0.000000 0.022013
# 5 0.003491 0.000387 0.001515 0.000000 0.028099 0.000000
# 6 0.000000 0.000000 0.000000 0.022013 0.000000 0.087576
#
#
# Mechanical properties :
#
#
# Convention : Reuss Voigt Hill
#
# Bulk Modulus (GPa) = 54.45026 70.87972 62.66499
# Shear Modulus (GPa) = 24.24390 34.90181 29.57285
#
# Velocity S-wave (km/s) = 3.17537 3.80993 3.50703
# Velocity P-wave (km/s) = 6.00746 6.98804 6.51622
#
# Compressibility (1/GPa) = 0.01836538
#
# Stress axis : x y z
#
# Youngs Moduli (GPa) = 62.80377 117.49508 160.29947
#
# Poissons Ratio (x) = 0.26053 0.30889
# Poissons Ratio (y) = 0.13926 0.32203
# Poissons Ratio (z) = 0.12102 0.23604
#
# Static dielectric constant tensor:
#      x y z
#    x 1.977210 0.000000 0.070640 
#    y 0.000000 1.961420 0.000000 
#    z 0.070640 0.000000 1.323980 
# 
# From -- ./inp_files/96854.got.cif
#   From: 2010.05.17/outbox.cif.g08.bks.cpg/sg15_49_cif.got.tgz:96854.got - 2010.06.03 18:47:42.
