data_PCOD9304628
_publ_section_title
;
Structure prediction by ZEFSAII (Michael W. Deem and Ramdas Pophale) SiO2 
 PCOD9304628
Probable space group: C 2/C
;
_chemical_formula_sum "Si O2"
_cell_formula_units_Z 40
_cell_length_a 9.367905
_cell_length_b 25.285295
_cell_length_c 10.523373
_cell_angle_alpha 90.000000
_cell_angle_beta 54.672850
_cell_angle_gamma 90.000000
_cell_volume 2033.682096
_symmetry_space_group_name_H-M "C 2/C"
_symmetry_group_IT_number 15
_symmetry_cell_setting 'monoclinic'
loop_
_space_group_symop_operation_xyz
x,y,z
-x,y,1/2-z
-x,-y,-z
x,-y,1/2+z
1/2+x,1/2+y,z
1/2-x,1/2+y,1/2-z
1/2-x,1/2-y,-z
1/2+x,1/2-y,1/2+z
loop_
_atom_site_type_symbol
_atom_site_label
_atom_site_fract_x
_atom_site_fract_y
_atom_site_fract_z
Si Si1 0.616647 0.503337 0.314189
Si Si2 0.306453 0.612046 0.339923
Si Si3 0.179733 0.193578 0.732865
Si Si4 0.798159 0.592738 0.827662
Si Si5 0.531986 0.197131 0.383689
O O1 0.500000 0.491422 0.250000
O O2 0.500000 0.500000 0.500000
O O3 0.310908 0.562516 0.241562
O O4 0.761974 0.458367 0.259979
O O5 0.500000 0.637475 0.250000
O O6 0.280603 0.586876 0.491786
O O7 0.154804 0.652561 0.382052
O O8 0.219368 0.144346 0.802255
O O9 0.346575 0.200899 0.553018
O O10 0.136646 0.247356 0.831009
O O11 0.000000 0.182699 0.750000
O O12 0.000000 0.601223 0.750000
O O13 0.500000 0.186007 0.250000
#
# Coordination Sequence:
#
# PCOD9304628 Si02
#       5
#     8   8   8   8   8
#     4  11  23  45  70  98 133 182 230 276 341 405
#     4  11  25  44  69 101 136 178 225 282 342 410
#     4  11  25  44  70  99 136 181 225 282 341 410
#     4  12  25  45  66 103 139 171 232 281 342 405
#     4  11  25  44  68 102 134 180 231 276 344 411
#
# _framework density 19.668759000000001
#
# number of rings (size 3 to 8) (size 9 to 14) (size 15 to 20)
#    0.000    0.800    6.000    3.000    5.600    4.800 
#    0.000    0.000    0.000    0.000    0.000    0.000 
#    0.000    0.000    0.000    0.000    0.000    0.000 
#
# Total GULP energy -111711.338300 kJ/mol
# GULP energy per Si atom -5585.566915 kJ/mol
# Density = 1.962399 g / cm^3
# Si number density = 19.668759 Si / 1000 Ang^3
#
#
#
# Elastic Constant Matrix: (Units=GPa)
#
#
# Indices 1 2 3 4 5 6 
#
# 1 114.2973 91.3710 29.5898 0.0000 -18.3583 0.0000
# 2 91.3710 143.4689 39.4584 0.0000 -6.9527 0.0000
# 3 29.5898 39.4584 121.9729 0.0000 -11.7399 0.0000
# 4 0.0000 0.0000 0.0000 27.0598 0.0000 -4.9236
# 5 -18.3583 -6.9527 -11.7399 0.0000 33.0865 0.0000
# 6 0.0000 0.0000 0.0000 -4.9236 0.0000 27.7603
#
#
#
# Elastic Compliance Matrix: (Units=1/GPa)
#
#
# Indices 1 2 3 4 5 6 
#
# 1 0.019928 -0.012268 -0.000052 0.000000 0.008461 0.000000
# 2 -0.012268 0.015221 -0.002376 0.000000 -0.004451 0.000000
# 3 -0.000052 -0.002376 0.009245 0.000000 0.002752 0.000000
# 4 0.000000 0.000000 0.000000 0.038188 0.000000 0.006773
# 5 0.008461 -0.004451 0.002752 0.000000 0.034960 0.000000
# 6 0.000000 0.000000 0.000000 0.006773 0.000000 0.037224
#
#
# Mechanical properties :
#
#
# Convention : Reuss Voigt Hill
#
# Bulk Modulus (GPa) = 66.65338 77.84194 72.24766
# Shear Modulus (GPa) = 26.43305 32.20264 29.31785
#
# Velocity S-wave (km/s) = 3.66992 4.05068 3.86499
# Velocity P-wave (km/s) = 7.20550 7.84473 7.53190
#
# Compressibility (1/GPa) = 0.01500299
#
# Stress axis : x y z
#
# Youngs Moduli (GPa) = 50.17976 65.69942 108.16988
#
# Poissons Ratio (x) = 0.80597 0.00557
# Poissons Ratio (y) = 0.61558 0.25705
# Poissons Ratio (z) = 0.00259 0.15613
#
# Static dielectric constant tensor:
#      x y z
#    x 1.726980 0.000000 -0.127370 
#    y 0.000000 1.692530 0.000000 
#    z -0.127370 0.000000 1.939000 
# 
# From -- ./inp_files/78981.got.cif
#   From: 2010.05.17/outbox.cif.g08.bks.cpg/sg15_40_cif.got.tgz:78981.got - 2010.06.03 18:47:42.
