data_PCOD9304227
_publ_section_title
;
Structure prediction by ZEFSAII (Michael W. Deem and Ramdas Pophale) SiO2 
 PCOD9304227
Probable space group: C 2/C
;
_chemical_formula_sum "Si O2"
_cell_formula_units_Z 48
_cell_length_a 11.448717
_cell_length_b 27.858950
_cell_length_c 14.360481
_cell_angle_alpha 90.000000
_cell_angle_beta 28.869283
_cell_angle_gamma 90.000000
_cell_volume 2211.411051
_symmetry_space_group_name_H-M "C 2/C"
_symmetry_group_IT_number 15
_symmetry_cell_setting 'monoclinic'
loop_
_space_group_symop_operation_xyz
x,y,z
-x,y,1/2-z
-x,-y,-z
x,-y,1/2+z
1/2+x,1/2+y,z
1/2-x,1/2+y,1/2-z
1/2-x,1/2-y,-z
1/2+x,1/2-y,1/2+z
loop_
_atom_site_type_symbol
_atom_site_label
_atom_site_fract_x
_atom_site_fract_y
_atom_site_fract_z
Si Si1 0.592700 0.689001 0.550177
Si Si2 0.979141 0.704547 0.119035
Si Si3 0.153219 0.387055 0.867951
Si Si4 0.999678 0.447144 0.142353
Si Si5 0.985371 0.910392 0.470011
Si Si6 0.270744 0.051668 0.519481
O O1 0.745148 0.694428 0.539573
O O2 0.451828 0.738360 0.630333
O O3 0.458290 0.639409 0.624224
O O4 0.802722 0.688540 0.325254
O O5 0.900629 0.669736 0.091244
O O6 0.388693 0.399086 0.641004
O O7 0.147160 0.412039 0.971674
O O8 0.934591 0.410256 0.959719
O O9 0.000000 0.432952 0.250000
O O10 0.719402 0.443731 0.307928
O O11 0.106984 0.500021 0.056579
O O12 0.773808 0.934289 0.556811
O O13 0.000000 0.050779 0.750000
#
# Coordination Sequence:
#
# PCOD9304227 Si02
#       6
#     8   8   8   8   8   8
#     4   9  18  33  59  98 131 159 195 256 328 392
#     4   9  18  32  60  97 131 159 197 253 326 395
#     4  11  23  43  65  96 132 170 215 264 325 390
#     4  12  29  44  64  92 125 180 225 269 315 384
#     4  11  24  44  67  94 134 169 212 272 328 381
#     4  12  25  42  68  96 130 168 214 269 337 388
#
# _framework density 21.705597000000001
#
# number of rings (size 3 to 8) (size 9 to 14) (size 15 to 20)
#    0.000    1.333    3.333    2.000    4.667    1.333 
#    0.000    0.000    0.000    1.000    0.000    0.000 
#    0.000    0.000    0.000    0.000    0.000    0.000 
#
# Total GULP energy -134250.388902 kJ/mol
# GULP energy per Si atom -5593.766204 kJ/mol
# Density = 2.165619 g / cm^3
# Si number density = 21.705597 Si / 1000 Ang^3
#
#
#
# Elastic Constant Matrix: (Units=GPa)
#
#
# Indices 1 2 3 4 5 6 
#
# 1 46.7045 23.1198 -3.4789 0.0000 8.2553 0.0000
# 2 23.1198 139.4482 13.2430 0.0000 2.2458 0.0000
# 3 -3.4789 13.2430 73.5652 0.0001 2.1388 0.0000
# 4 0.0000 0.0000 0.0001 22.6544 0.0000 7.2645
# 5 8.2553 2.2458 2.1388 0.0000 24.9436 0.0000
# 6 0.0000 0.0000 0.0000 7.2645 0.0000 22.2654
#
#
#
# Elastic Compliance Matrix: (Units=1/GPa)
#
#
# Indices 1 2 3 4 5 6 
#
# 1 0.025107 -0.004240 0.002186 0.000000 -0.008115 0.000000
# 2 -0.004240 0.008019 -0.001668 0.000000 0.000824 0.000000
# 3 0.002186 -0.001668 0.014049 0.000000 -0.001778 0.000000
# 4 0.000000 0.000000 0.000000 0.049299 0.000000 -0.016085
# 5 -0.008115 0.000824 -0.001778 0.000000 0.042855 0.000000
# 6 0.000000 0.000000 0.000000 -0.016085 0.000000 0.050161
#
#
# Mechanical properties :
#
#
# Convention : Reuss Voigt Hill
#
# Bulk Modulus (GPa) = 25.16814 36.16507 30.66661
# Shear Modulus (GPa) = 23.78956 29.09496 26.44226
#
# Velocity S-wave (km/s) = 3.31420 3.66517 3.49409
# Velocity P-wave (km/s) = 5.12500 5.88295 5.51700
#
# Compressibility (1/GPa) = 0.03973277
#
# Stress axis : x y z
#
# Youngs Moduli (GPa) = 39.82923 124.70137 71.18068
#
# Poissons Ratio (x) = 0.52868 -0.15563
# Poissons Ratio (y) = 0.16886 0.11873
# Poissons Ratio (z) = -0.08709 0.20801
#
# Static dielectric constant tensor:
#      x y z
#    x 1.784620 0.000000 0.032650 
#    y 0.000000 1.801590 0.000000 
#    z 0.032650 0.000000 1.863270 
# 
# From -- ./inp_files/148699.got.cif
#   From: 2010.05.17/outbox.cif.g08.bks.cpg/sg15_75_cif.got.tgz:148699.got - 2010.06.03 18:47:42.
