data_PCOD9304302
_publ_section_title
;
Structure prediction by ZEFSAII (Michael W. Deem and Ramdas Pophale) SiO2 
 PCOD9304302
Probable space group: C 2/C
;
_chemical_formula_sum "Si O2"
_cell_formula_units_Z 64
_cell_length_a 21.534314
_cell_length_b 8.841111
_cell_length_c 27.451136
_cell_angle_alpha 90.000000
_cell_angle_beta 30.598210
_cell_angle_gamma 90.000000
_cell_volume 2660.286319
_symmetry_space_group_name_H-M "C 2/C"
_symmetry_group_IT_number 15
_symmetry_cell_setting 'monoclinic'
loop_
_space_group_symop_operation_xyz
x,y,z
-x,y,1/2-z
-x,-y,-z
x,-y,1/2+z
1/2+x,1/2+y,z
1/2-x,1/2+y,1/2-z
1/2-x,1/2-y,-z
1/2+x,1/2-y,1/2+z
loop_
_atom_site_type_symbol
_atom_site_label
_atom_site_fract_x
_atom_site_fract_y
_atom_site_fract_z
Si Si1 0.501609 0.324149 0.653406
Si Si2 0.461513 0.805329 0.876601
Si Si3 0.855508 0.046703 0.526081
Si Si4 0.835851 0.316247 0.052728
Si Si5 0.103885 0.409083 0.140889
Si Si6 0.745265 0.134988 0.694987
Si Si7 0.395435 0.412288 0.352163
Si Si8 0.724187 0.769545 0.720218
O O1 0.527405 0.405369 0.584590
O O2 0.603288 0.197402 0.594290
O O3 0.374367 0.232193 0.740639
O O4 0.536296 0.438804 0.673622
O O5 0.370115 0.675354 0.919703
O O6 0.594395 0.734495 0.783771
O O7 0.439191 0.934442 0.852833
O O8 0.445047 0.862938 0.942964
O O9 0.732695 0.087198 0.579835
O O10 0.845273 0.134558 0.584355
O O11 0.842557 0.867044 0.542801
O O12 0.723664 0.401566 0.101046
O O13 0.820764 0.322423 0.121165
O O14 0.000000 0.363900 0.250000
O O15 0.778074 0.209713 0.723812
O O16 0.728230 0.953466 0.714822
O O17 0.500000 0.332032 0.250000
#
# Coordination Sequence:
#
# PCOD9304302 Si02
#       8
#     8   8   8   8   8   8   8   8
#     4  12  25  43  64 106 139 172 224 282 343 402
#     4  12  22  42  70 100 134 178 225 271 339 408
#     4  11  23  43  70  97 138 181 218 275 347 407
#     4  11  23  43  69 102 135 178 223 275 339 407
#     4  12  21  42  68  98 144 180 210 273 355 408
#     4  11  27  49  70  94 134 185 234 279 337 400
#     4  12  23  38  69 107 142 173 219 277 333 413
#     4  11  26  49  70  95 134 185 232 280 334 401
#
# _framework density 24.057561
#
# number of rings (size 3 to 8) (size 9 to 14) (size 15 to 20)
#    0.000    0.500    6.250    3.000    1.750    1.000 
#    2.250    3.750    0.000    0.000    0.000    0.000 
#    0.000    0.000    0.000    0.000    0.000    0.000 
#
# Total GULP energy -178491.579353 kJ/mol
# GULP energy per Si atom -5577.861855 kJ/mol
# Density = 2.400281 g / cm^3
# Si number density = 24.057561 Si / 1000 Ang^3
#
#
#
# Elastic Constant Matrix: (Units=GPa)
#
#
# Indices 1 2 3 4 5 6 
#
# 1 83.1033 38.6666 8.3215 -0.0023 37.5403 0.0001
# 2 38.6666 80.3667 12.6321 0.0019 19.3267 0.0019
# 3 8.3215 12.6321 74.8648 0.0006 34.6285 -0.0008
# 4 -0.0023 0.0019 0.0006 20.1688 -0.0008 9.6032
# 5 37.5403 19.3267 34.6285 -0.0008 38.9990 0.0008
# 6 0.0001 0.0019 -0.0008 9.6032 0.0008 40.8637
#
#
#
# Elastic Compliance Matrix: (Units=1/GPa)
#
#
# Indices 1 2 3 4 5 6 
#
# 1 0.035168 -0.008749 0.019040 0.000002 -0.046424 0.000001
# 2 -0.008749 0.016397 -0.003277 -0.000002 0.003206 0.000000
# 3 0.019040 -0.003277 0.033125 -0.000001 -0.046117 0.000002
# 4 0.000002 -0.000002 -0.000001 0.055828 0.000002 -0.013120
# 5 -0.046424 0.003206 -0.046117 0.000002 0.109689 -0.000003
# 6 0.000001 0.000000 0.000002 -0.013120 -0.000003 0.027555
#
#
# Mechanical properties :
#
#
# Convention : Reuss Voigt Hill
#
# Bulk Modulus (GPa) = 10.12987 39.73059 24.93023
# Shear Modulus (GPa) = 16.85542 31.92061 24.38802
#
# Velocity S-wave (km/s) = 2.64981 3.64654 3.18738
# Velocity P-wave (km/s) = 3.68535 5.85494 4.89194
#
# Compressibility (1/GPa) = 0.09871793
#
# Stress axis : x y z
#
# Youngs Moduli (GPa) = 28.43459 60.98848 30.18839
#
# Poissons Ratio (x) = 0.53360 -0.57480
# Poissons Ratio (y) = 0.24878 0.09893
# Poissons Ratio (z) = -0.54140 0.19987
#
# Static dielectric constant tensor:
#      x y z
#    x 1.954680 0.000000 0.037350 
#    y 0.000000 2.085230 0.000000 
#    z 0.037350 0.000000 1.976800 
# 
# From -- ./inp_files/318606.got.cif
#   From: 2010.05.17/outbox.cif.g08.bks.cpg/sg15_160_cif.got.tgz:318606.got - 2010.06.03 18:47:42.
