data_PCOD9304361
_publ_section_title
;
Structure prediction by ZEFSAII (Michael W. Deem and Ramdas Pophale) SiO2 
 PCOD9304361
Probable space group: C 2/C
;
_chemical_formula_sum "Si O2"
_cell_formula_units_Z 40
_cell_length_a 25.133762
_cell_length_b 4.899119
_cell_length_c 17.490823
_cell_angle_alpha 90.000000
_cell_angle_beta 135.471993
_cell_angle_gamma 90.000000
_cell_volume 1510.300805
_symmetry_space_group_name_H-M "C 2/C"
_symmetry_group_IT_number 15
_symmetry_cell_setting 'monoclinic'
loop_
_space_group_symop_operation_xyz
x,y,z
-x,y,1/2-z
-x,-y,-z
x,-y,1/2+z
1/2+x,1/2+y,z
1/2-x,1/2+y,1/2-z
1/2-x,1/2-y,-z
1/2+x,1/2-y,1/2+z
loop_
_atom_site_type_symbol
_atom_site_label
_atom_site_fract_x
_atom_site_fract_y
_atom_site_fract_z
Si Si1 0.540500 0.232877 0.715247
Si Si2 0.596239 0.412026 0.130397
Si Si3 0.792506 0.546498 0.602301
Si Si4 0.250606 0.030521 0.851934
Si Si5 0.574289 0.920380 0.010046
O O1 0.500000 0.346674 0.750000
O O2 0.569373 0.459757 0.683537
O O3 0.617160 0.070342 0.816977
O O4 0.479436 0.037205 0.611171
O O5 0.687229 0.386858 0.225764
O O6 0.568664 0.114231 0.079088
O O7 0.569780 0.611913 0.035559
O O8 0.750000 0.750000 0.500000
O O9 0.767329 0.240119 0.595916
O O10 0.771941 0.717193 0.657062
O O11 0.338837 0.053027 0.928074
#
# Coordination Sequence:
#
# PCOD9304361 Si02
#       5
#     8   8   8   8   8
#     4  11  26  46  71 106 151 200 251 309 378 453
#     4  11  24  45  71 106 147 192 247 312 376 451
#     4  11  24  45  68 101 144 189 239 300 366 443
#     4  11  23  43  72 104 137 187 246 301 366 444
#     4  12  24  45  74 107 144 192 249 316 381 445
#
# _framework density 26.484788000000002
#
# number of rings (size 3 to 8) (size 9 to 14) (size 15 to 20)
#    0.000    0.800    0.000    7.800    0.000    3.200 
#    0.000   14.000    0.000    0.000    0.000    0.000 
#    0.000    0.000    0.000    0.000    0.000    0.000 
#
# Total GULP energy -112035.353157 kJ/mol
# GULP energy per Si atom -5601.767658 kJ/mol
# Density = 2.642451 g / cm^3
# Si number density = 26.484788 Si / 1000 Ang^3
#
#
#
# Elastic Constant Matrix: (Units=GPa)
#
#
# Indices 1 2 3 4 5 6 
#
# 1 146.9230 24.1185 57.7309 -0.0002 27.9160 0.0001
# 2 24.1185 139.9004 35.0518 0.0053 10.8295 0.0040
# 3 57.7309 35.0518 191.8651 0.0001 25.5606 0.0005
# 4 -0.0002 0.0053 0.0001 45.6830 0.0000 2.8275
# 5 27.9160 10.8295 25.5606 0.0000 48.1976 -0.0003
# 6 0.0001 0.0040 0.0005 2.8275 -0.0003 25.0704
#
#
#
# Elastic Compliance Matrix: (Units=1/GPa)
#
#
# Indices 1 2 3 4 5 6 
#
# 1 0.008365 -0.000680 -0.001902 0.000000 -0.003684 0.000000
# 2 -0.000680 0.007594 -0.001084 -0.000001 -0.000737 -0.000001
# 3 -0.001902 -0.001084 0.006244 0.000000 -0.001966 0.000000
# 4 0.000000 -0.000001 0.000000 0.022044 0.000000 -0.002486
# 5 -0.003684 -0.000737 -0.001966 0.000000 0.024090 0.000000
# 6 0.000000 -0.000001 0.000000 -0.002486 0.000000 0.040168
#
#
# Mechanical properties :
#
#
# Convention : Reuss Voigt Hill
#
# Bulk Modulus (GPa) = 67.25015 79.16566 73.20791
# Shear Modulus (GPa) = 41.39221 47.90937 44.65079
#
# Velocity S-wave (km/s) = 3.95760 4.25778 4.11043
# Velocity P-wave (km/s) = 6.80666 7.35713 7.08724
#
# Compressibility (1/GPa) = 0.01486986
#
# Stress axis : x y z
#
# Youngs Moduli (GPa) = 119.54232 131.68286 160.14473
#
# Poissons Ratio (x) = 0.08961 0.30459
# Poissons Ratio (y) = 0.08134 0.17366
# Poissons Ratio (z) = 0.22737 0.14280
#
# Static dielectric constant tensor:
#      x y z
#    x 2.169080 0.000000 -0.034640 
#    y 0.000000 2.028080 0.000000 
#    z -0.034640 0.000000 2.295150 
# 
# From -- ./inp_files/254511.got.cif
#   From: 2010.05.17/outbox.cif.g08.bks.cpg/sg15_128_cif.got.tgz:254511.got - 2010.06.03 18:47:42.
