data_PCOD9304876
_publ_section_title
;
Structure prediction by ZEFSAII (Michael W. Deem and Ramdas Pophale) SiO2 
 PCOD9304876
Probable space group: C 2/C
;
_chemical_formula_sum "Si O2"
_cell_formula_units_Z 36
_cell_length_a 5.503004
_cell_length_b 22.232387
_cell_length_c 12.162820
_cell_angle_alpha 90.000000
_cell_angle_beta 98.307428
_cell_angle_gamma 90.000000
_cell_volume 1472.445067
_symmetry_space_group_name_H-M "C 2/C"
_symmetry_group_IT_number 15
_symmetry_cell_setting 'monoclinic'
loop_
_space_group_symop_operation_xyz
x,y,z
-x,y,1/2-z
-x,-y,-z
x,-y,1/2+z
1/2+x,1/2+y,z
1/2-x,1/2+y,1/2-z
1/2-x,1/2-y,-z
1/2+x,1/2-y,1/2+z
loop_
_atom_site_type_symbol
_atom_site_label
_atom_site_fract_x
_atom_site_fract_y
_atom_site_fract_z
Si Si1 0.670582 0.056025 0.036462
Si Si2 0.315690 0.161058 0.096162
Si Si3 0.769542 0.101882 0.811933
Si Si4 0.583752 0.279276 0.083900
Si Si5 0.500000 0.411957 0.750000
O O1 0.502720 0.113350 0.056425
O O2 0.849389 0.049492 0.151872
O O3 0.807708 0.071255 0.932683
O O4 0.500000 0.000000 0.000000
O O5 0.452963 0.223000 0.131414
O O6 0.180462 0.130148 0.189960
O O7 0.119962 0.180503 0.991153
O O8 0.500000 0.083983 0.750000
O O9 0.770648 0.174233 0.831024
O O10 0.000000 0.088313 0.750000
O O11 0.750000 0.250000 0.000000
#
# Coordination Sequence:
#
# PCOD9304876 Si02
#       5
#     8   8   8   8   4
#     4  12  29  56  80 117 162 211 286 343 417 494
#     4  11  24  48  79 119 157 210 275 337 416 486
#     4  12  28  52  82 124 171 220 272 342 421 499
#     4  11  23  47  79 113 167 213 266 338 411 504
#     4  12  26  52  86 114 156 218 278 352 414 502
#
# _framework density 24.449133
#
# number of rings (size 3 to 8) (size 9 to 14) (size 15 to 20)
#    0.000    0.444    4.444    2.000    3.111    6.222 
#   10.000    0.000    0.000    0.000    0.000    0.000 
#    0.000    0.000    0.000    0.000    0.000    0.000 
#
# Total GULP energy -100999.760033 kJ/mol
# GULP energy per Si atom -5611.097780 kJ/mol
# Density = 2.439349 g / cm^3
# Si number density = 24.449133 Si / 1000 Ang^3
#
#
#
# Elastic Constant Matrix: (Units=GPa)
#
#
# Indices 1 2 3 4 5 6 
#
# 1 141.5076 45.0558 100.9450 0.0000 -9.0612 0.0000
# 2 45.0558 128.3668 72.8916 0.0000 6.0385 0.0000
# 3 100.9450 72.8916 191.4295 0.0000 2.9356 0.0000
# 4 0.0000 0.0000 0.0000 7.4893 0.0000 11.3209
# 5 -9.0612 6.0385 2.9356 0.0000 62.8368 0.0000
# 6 0.0000 0.0000 0.0000 11.3209 0.0000 53.3442
#
#
#
# Elastic Compliance Matrix: (Units=1/GPa)
#
#
# Indices 1 2 3 4 5 6 
#
# 1 0.011637 -0.000865 -0.005838 0.000000 0.002034 0.000000
# 2 -0.000865 0.010042 -0.003353 0.000000 -0.000933 0.000000
# 3 -0.005838 -0.003353 0.009594 0.000000 -0.000968 0.000000
# 4 0.000000 0.000000 0.000000 0.196589 0.000000 -0.041721
# 5 0.002034 -0.000933 -0.000968 0.000000 0.016342 0.000000
# 6 0.000000 0.000000 0.000000 -0.041721 0.000000 0.027600
#
#
# Mechanical properties :
#
#
# Convention : Reuss Voigt Hill
#
# Bulk Modulus (GPa) = 89.60552 99.89873 94.75213
# Shear Modulus (GPa) = 16.91255 40.89483 28.90369
#
# Velocity S-wave (km/s) = 2.63296 4.09424 3.44204
# Velocity P-wave (km/s) = 6.78031 7.95606 7.39160
#
# Compressibility (1/GPa) = 0.01116003
#
# Stress axis : x y z
#
# Youngs Moduli (GPa) = 85.93084 99.58413 104.22922
#
# Poissons Ratio (x) = 0.08614 0.60853
# Poissons Ratio (y) = 0.07433 0.34950
# Poissons Ratio (z) = 0.50170 0.33393
#
# Static dielectric constant tensor:
#      x y z
#    x 1.922440 0.000000 0.050190 
#    y 0.000000 1.910380 0.000000 
#    z 0.050190 0.000000 1.918880 
# 
# From -- ./inp_files/72705.got.cif
#   From: 2010.05.17/outbox.cif.g08.bks.cpg/sg15_37_cif.got.tgz:72705.got - 2010.06.03 18:47:42.
