data_PCOD9304644
_publ_section_title
;
Structure prediction by ZEFSAII (Michael W. Deem and Ramdas Pophale) SiO2 
 PCOD9304644
Probable space group: C 2/C
;
_chemical_formula_sum "Si O2"
_cell_formula_units_Z 40
_cell_length_a 21.812329
_cell_length_b 11.762201
_cell_length_c 15.104634
_cell_angle_alpha 90.000000
_cell_angle_beta 28.949117
_cell_angle_gamma 90.000000
_cell_volume 1875.752550
_symmetry_space_group_name_H-M "C 2/C"
_symmetry_group_IT_number 15
_symmetry_cell_setting 'monoclinic'
loop_
_space_group_symop_operation_xyz
x,y,z
-x,y,1/2-z
-x,-y,-z
x,-y,1/2+z
1/2+x,1/2+y,z
1/2-x,1/2+y,1/2-z
1/2-x,1/2-y,-z
1/2+x,1/2-y,1/2+z
loop_
_atom_site_type_symbol
_atom_site_label
_atom_site_fract_x
_atom_site_fract_y
_atom_site_fract_z
Si Si1 0.342389 0.161725 0.479406
Si Si2 0.000000 0.917464 0.750000
Si Si3 0.609953 0.264304 0.907432
Si Si4 0.000000 0.538695 0.750000
Si Si5 0.087698 0.874643 0.236443
Si Si6 0.587446 0.228244 0.504664
O O1 0.398957 0.166333 0.506081
O O2 0.193335 0.148799 0.675696
O O3 0.379140 0.274417 0.376792
O O4 0.389066 0.050868 0.369045
O O5 0.066887 0.837060 0.594262
O O6 0.093598 0.004681 0.681531
O O7 0.515654 0.240580 0.944898
O O8 0.760137 0.282201 0.703035
O O9 0.545760 0.366697 0.044399
O O10 0.956691 0.618524 0.884026
#
# Coordination Sequence:
#
# PCOD9304644 Si02
#       6
#     8   4   8   4   8   8
#     4  11  23  45  72 101 134 185 235 285 349 408
#     4  11  25  48  68 100 139 195 220 284 356 421
#     4  12  23  49  65 111 135 178 241 290 333 413
#     4  11  25  48  66  98 141 191 216 290 356 415
#     4  11  23  45  73  99 136 183 236 287 342 416
#     4  11  30  42  70 105 148 177 231 286 357 413
#
# _framework density 21.324774000000001
#
# number of rings (size 3 to 8) (size 9 to 14) (size 15 to 20)
#    0.000    0.800    6.000    0.000    5.600    4.800 
#    0.000    0.000    0.000    0.000    0.000    0.000 
#    0.000    0.000    0.000    0.000    0.000    0.000 
#
# Total GULP energy -111371.057075 kJ/mol
# GULP energy per Si atom -5568.552854 kJ/mol
# Density = 2.127624 g / cm^3
# Si number density = 21.324774 Si / 1000 Ang^3
#
#
#
# Elastic Constant Matrix: (Units=GPa)
#
#
# Indices 1 2 3 4 5 6 
#
# 1 122.3250 27.7238 80.5855 0.0000 -10.8641 0.0000
# 2 27.7238 136.9907 55.2465 0.0000 8.9490 0.0000
# 3 80.5855 55.2465 157.0133 0.0000 -13.6746 0.0000
# 4 0.0000 0.0000 0.0000 0.0139 0.0000 26.9051
# 5 -10.8641 8.9490 -13.6746 0.0000 29.2479 0.0000
# 6 0.0000 0.0000 0.0000 26.9051 0.0000 -7.0350
#
#
#
# Elastic Compliance Matrix: (Units=1/GPa)
#
#
# Indices 1 2 3 4 5 6 
#
# 1 0.012434 -0.000141 -0.006178 0.000000 0.001773 0.000000
# 2 -0.000141 0.009027 -0.003491 0.000000 -0.004446 0.000000
# 3 -0.006178 -0.003491 0.011114 0.000000 0.003970 0.000000
# 4 0.000000 0.000000 0.000000 0.009717 0.000000 0.037163
# 5 0.001773 -0.004446 0.003970 0.000000 0.038066 0.000000
# 6 0.000000 0.000000 0.000000 0.037163 0.000000 -0.000019
#
#
# Mechanical properties :
#
#
# Convention : Reuss Voigt Hill
#
# Bulk Modulus (GPa) = 77.18930 82.60451 79.89691
# Shear Modulus (GPa) = 47.94988 21.29688 34.62338
#
# Velocity S-wave (km/s) = 4.74703 3.16364 4.03379
# Velocity P-wave (km/s) = 8.14379 7.22256 7.69697
#
# Compressibility (1/GPa) = 0.01295516
#
# Stress axis : x y z
#
# Youngs Moduli (GPa) = 80.42401 110.78319 89.97998
#
# Poissons Ratio (x) = 0.01561 0.55587
# Poissons Ratio (y) = 0.01133 0.31413
# Poissons Ratio (z) = 0.49683 0.38675
#
# Static dielectric constant tensor:
#      x y z
#    x 1.840590 0.000000 -0.043810 
#    y 0.000000 1.749830 0.000000 
#    z -0.043810 0.000000 1.854750 
# 
# From -- ./inp_files/173095.got.cif
#   From: 2010.05.17/outbox.cif.g08.bks.cpg/sg15_87_cif.got.tgz:173095.got - 2010.06.03 18:47:42.
