data_PCOD9304225
_publ_section_title
;
Structure prediction by ZEFSAII (Michael W. Deem and Ramdas Pophale) SiO2 
 PCOD9304225
Probable space group: C 2/C
;
_chemical_formula_sum "Si O2"
_cell_formula_units_Z 60
_cell_length_a 13.160851
_cell_length_b 24.548770
_cell_length_c 9.556662
_cell_angle_alpha 90.000000
_cell_angle_beta 106.543137
_cell_angle_gamma 90.000000
_cell_volume 2959.783277
_symmetry_space_group_name_H-M "C 2/C"
_symmetry_group_IT_number 15
_symmetry_cell_setting 'monoclinic'
loop_
_space_group_symop_operation_xyz
x,y,z
-x,y,1/2-z
-x,-y,-z
x,-y,1/2+z
1/2+x,1/2+y,z
1/2-x,1/2+y,1/2-z
1/2-x,1/2-y,-z
1/2+x,1/2-y,1/2+z
loop_
_atom_site_type_symbol
_atom_site_label
_atom_site_fract_x
_atom_site_fract_y
_atom_site_fract_z
Si Si1 0.000000 0.565286 0.250000
Si Si2 0.116125 0.379641 0.308391
Si Si3 0.305302 0.698475 0.950266
Si Si4 0.810026 0.170542 0.454357
Si Si5 0.617177 0.614187 0.285542
Si Si6 0.383602 0.244024 0.210730
Si Si7 0.172597 0.543243 0.086704
Si Si8 0.672717 0.920326 0.031351
O O1 0.085781 0.537155 0.177666
O O2 0.077358 0.594736 0.388967
O O3 0.207973 0.335776 0.350905
O O4 0.123918 0.417886 0.447601
O O5 0.137098 0.412543 0.175821
O O6 0.000000 0.354303 0.250000
O O7 0.373717 0.722084 0.850163
O O8 0.250000 0.750000 0.000000
O O9 0.362513 0.658008 0.082019
O O10 0.880147 0.147117 0.358050
O O11 0.709937 0.200235 0.340762
O O12 0.865504 0.214301 0.575517
O O13 0.767148 0.120168 0.529321
O O14 0.500000 0.588546 0.250000
O O15 0.717552 0.572614 0.323981
O O16 0.500000 0.218954 0.250000
O O17 0.195678 0.484517 0.028161
#
# Coordination Sequence:
#
# PCOD9304225 Si02
#       8
#     4   8   8   8   8   8   8   8
#     4  12  22  38  70  96 134 172 210 270 332 386
#     4  11  24  40  62  96 135 170 209 266 332 390
#     4  11  23  43  65  96 128 166 215 267 322 388
#     4  11  24  43  66  96 126 169 217 269 321 388
#     4  11  24  45  69  93 130 174 224 269 319 383
#     4  11  24  43  66  93 129 166 212 267 330 389
#     4  11  25  40  65 100 133 175 216 267 330 390
#     4  12  24  40  65  97 135 167 216 268 324 393
#
# _framework density 20.271754999999999
#
# number of rings (size 3 to 8) (size 9 to 14) (size 15 to 20)
#    0.000    0.800    5.333    2.000    2.800    1.600 
#    0.000    1.333    0.000    0.000    0.000    0.000 
#    0.000    0.000    0.000    0.000    0.000    0.000 
#
# Total GULP energy -167558.624991 kJ/mol
# GULP energy per Si atom -5585.287500 kJ/mol
# Density = 2.022562 g / cm^3
# Si number density = 20.271755 Si / 1000 Ang^3
#
#
#
# Elastic Constant Matrix: (Units=GPa)
#
#
# Indices 1 2 3 4 5 6 
#
# 1 105.5452 21.5154 25.2122 0.0000 -0.2456 0.0000
# 2 21.5154 61.3828 2.0950 0.0000 -0.9483 0.0000
# 3 25.2122 2.0950 75.4368 0.0000 -11.5424 0.0000
# 4 0.0000 0.0000 0.0000 20.4138 0.0000 -4.9465
# 5 -0.2456 -0.9483 -11.5424 0.0000 26.8991 0.0000
# 6 0.0000 0.0000 0.0000 -4.9465 0.0000 8.3486
#
#
#
# Elastic Compliance Matrix: (Units=1/GPa)
#
#
# Indices 1 2 3 4 5 6 
#
# 1 0.011177 -0.003811 -0.003890 0.000000 -0.001701 0.000000
# 2 -0.003811 0.017610 0.000936 0.000000 0.000988 0.000000
# 3 -0.003890 0.000936 0.015551 0.000000 0.006670 0.000000
# 4 0.000000 0.000000 0.000000 0.057198 0.000000 0.033890
# 5 -0.001701 0.000988 0.006670 0.000000 0.040057 0.000000
# 6 0.000000 0.000000 0.000000 0.033890 0.000000 0.139861
#
#
# Mechanical properties :
#
#
# Convention : Reuss Voigt Hill
#
# Bulk Modulus (GPa) = 32.45973 37.77890 35.11932
# Shear Modulus (GPa) = 16.37979 24.03511 20.20745
#
# Velocity S-wave (km/s) = 2.84564 3.44706 3.16068
# Velocity P-wave (km/s) = 5.18111 5.87534 5.53911
#
# Compressibility (1/GPa) = 0.03080740
#
# Stress axis : x y z
#
# Youngs Moduli (GPa) = 89.47120 56.78468 64.30516
#
# Poissons Ratio (x) = 0.21641 0.25015
# Poissons Ratio (y) = 0.34099 -0.06018
# Poissons Ratio (z) = 0.34804 -0.05314
#
# Static dielectric constant tensor:
#      x y z
#    x 1.712630 0.000000 -0.009630 
#    y 0.000000 1.626770 0.000000 
#    z -0.009630 0.000000 1.704130 
# 
# From -- ./inp_files/35272.got.cif
#   From: 2010.05.17/outbox.cif.g08.bks.cpg/sg15_18_cif.got.tgz:35272.got - 2010.06.03 18:47:42.
