data_PCOD9304918
_publ_section_title
;
Structure prediction by ZEFSAII (Michael W. Deem and Ramdas Pophale) SiO2 
 PCOD9304918
Probable space group: C 2/C
;
_chemical_formula_sum "Si O2"
_cell_formula_units_Z 32
_cell_length_a 12.466723
_cell_length_b 7.177518
_cell_length_c 14.587591
_cell_angle_alpha 90.000000
_cell_angle_beta 96.467880
_cell_angle_gamma 90.000000
_cell_volume 1296.991500
_symmetry_space_group_name_H-M "C 2/C"
_symmetry_group_IT_number 15
_symmetry_cell_setting 'monoclinic'
loop_
_space_group_symop_operation_xyz
x,y,z
-x,y,1/2-z
-x,-y,-z
x,-y,1/2+z
1/2+x,1/2+y,z
1/2-x,1/2+y,1/2-z
1/2-x,1/2-y,-z
1/2+x,1/2-y,1/2+z
loop_
_atom_site_type_symbol
_atom_site_label
_atom_site_fract_x
_atom_site_fract_y
_atom_site_fract_z
Si Si1 0.488226 0.918641 0.895118
Si Si2 0.715959 0.736262 0.891187
Si Si3 0.240419 0.699248 0.105492
Si Si4 0.604843 0.736893 0.227473
O O1 0.596313 0.817476 0.873412
O O2 0.385048 0.782445 0.882530
O O3 0.451693 0.093102 0.831152
O O4 0.500000 0.000000 0.000000
O O5 0.725177 0.515866 0.872896
O O6 0.805418 0.834849 0.835689
O O7 0.750000 0.750000 0.000000
O O8 0.324160 0.801340 0.179016
O O9 0.250000 0.750000 0.000000
O O10 0.500000 0.619773 0.250000
#
# Coordination Sequence:
#
# PCOD9304918 Si02
#       4
#     8   8   8   8
#     4  11  23  49  79 107 156 208 251 333 391 460
#     4  11  25  46  80 114 147 205 264 316 401 470
#     4  11  26  46  73 116 156 205 257 322 393 468
#     4  11  26  46  74 110 154 198 257 317 391 460
#
# _framework density 24.672481999999999
#
# number of rings (size 3 to 8) (size 9 to 14) (size 15 to 20)
#    0.000    1.000    5.000    1.500    7.000    1.000 
#    9.000    0.000    0.000    0.000    0.000    0.000 
#    0.000    0.000    0.000    0.000    0.000    0.000 
#
# Total GULP energy -89552.382298 kJ/mol
# GULP energy per Si atom -5597.023894 kJ/mol
# Density = 2.461633 g / cm^3
# Si number density = 24.672482 Si / 1000 Ang^3
#
#
#
# Elastic Constant Matrix: (Units=GPa)
#
#
# Indices 1 2 3 4 5 6 
#
# 1 328.0074 53.5731 76.9555 0.0000 5.9152 0.0000
# 2 53.5731 84.2515 9.4676 0.0000 9.2323 0.0000
# 3 76.9555 9.4676 181.2774 0.0000 14.0401 0.0000
# 4 0.0000 0.0000 0.0000 28.9440 0.0000 12.5442
# 5 5.9152 9.2323 14.0401 0.0000 52.7159 0.0000
# 6 0.0000 0.0000 0.0000 12.5442 0.0000 48.3745
#
#
#
# Elastic Compliance Matrix: (Units=1/GPa)
#
#
# Indices 1 2 3 4 5 6 
#
# 1 0.003766 -0.002266 -0.001510 0.000000 0.000376 0.000000
# 2 -0.002266 0.013506 0.000429 0.000000 -0.002225 0.000000
# 3 -0.001510 0.000429 0.006257 0.000000 -0.001572 0.000000
# 4 0.000000 0.000000 0.000000 0.038924 0.000000 -0.010094
# 5 0.000376 -0.002225 -0.001572 0.000000 0.019736 0.000000
# 6 0.000000 0.000000 0.000000 -0.010094 0.000000 0.023289
#
#
# Mechanical properties :
#
#
# Convention : Reuss Voigt Hill
#
# Bulk Modulus (GPa) = 59.40009 97.05877 78.22943
# Shear Modulus (GPa) = 42.45063 56.24287 49.34675
#
# Velocity S-wave (km/s) = 4.15247 4.77967 4.47707
# Velocity P-wave (km/s) = 6.86428 8.35970 7.64863
#
# Compressibility (1/GPa) = 0.01683499
#
# Stress axis : x y z
#
# Youngs Moduli (GPa) = 265.51331 74.04089 159.83054
#
# Poissons Ratio (x) = 0.16781 0.24129
# Poissons Ratio (y) = 0.60178 -0.06859
# Poissons Ratio (z) = 0.40083 -0.03177
#
# Static dielectric constant tensor:
#      x y z
#    x 2.022360 0.000000 -0.056900 
#    y 0.000000 2.080350 0.000000 
#    z -0.056900 0.000000 1.937580 
# 
# From -- ./inp_files/140824.got.cif
#   From: 2010.05.17/outbox.cif.g08.bks.cpg/sg15_71_cif.got.tgz:140824.got - 2010.06.03 18:47:42.
