data_PCOD9304099
_publ_section_title
;
Structure prediction by ZEFSAII (Michael W. Deem and Ramdas Pophale) SiO2 
 PCOD9304099
Probable space group: C 2/C
;
_chemical_formula_sum "Si O2"
_cell_formula_units_Z 56
_cell_length_a 11.634615
_cell_length_b 30.530400
_cell_length_c 8.397440
_cell_angle_alpha 90.000000
_cell_angle_beta 60.032129
_cell_angle_gamma 90.000000
_cell_volume 2584.059833
_symmetry_space_group_name_H-M "C 2/C"
_symmetry_group_IT_number 15
_symmetry_cell_setting 'monoclinic'
loop_
_space_group_symop_operation_xyz
x,y,z
-x,y,1/2-z
-x,-y,-z
x,-y,1/2+z
1/2+x,1/2+y,z
1/2-x,1/2+y,1/2-z
1/2-x,1/2-y,-z
1/2+x,1/2-y,1/2+z
loop_
_atom_site_type_symbol
_atom_site_label
_atom_site_fract_x
_atom_site_fract_y
_atom_site_fract_z
Si Si1 0.654871 0.895053 0.672618
Si Si2 0.000000 0.342294 0.250000
Si Si3 0.893469 0.942779 0.097078
Si Si4 0.402091 0.731687 0.665984
Si Si5 0.252703 0.859383 0.223209
Si Si6 0.500000 0.290588 0.750000
Si Si7 0.176845 0.971656 0.998084
Si Si8 0.714193 0.818632 0.859892
O O1 0.500000 0.890449 0.750000
O O2 0.733758 0.874282 0.468694
O O3 0.696867 0.945581 0.652934
O O4 0.692816 0.865278 0.794501
O O5 0.101384 0.365984 0.300388
O O6 0.893270 0.315683 0.425352
O O7 0.848218 0.892755 0.120087
O O8 0.844588 0.960211 0.302952
O O9 0.828205 0.976364 0.019287
O O10 0.050794 0.950903 0.991198
O O11 0.500000 0.728700 0.750000
O O12 0.303354 0.689863 0.734581
O O13 0.478183 0.730704 0.441970
O O14 0.320927 0.777324 0.727935
O O15 0.362065 0.315418 0.820895
#
# Coordination Sequence:
#
# PCOD9304099 Si02
#       8
#     8   4   8   8   8   4   8   8
#     4  11  23  42  67  96 134 180 226 274 336 421
#     4  12  25  46  66  92 144 180 216 292 346 397
#     4   9  20  41  65  94 130 167 216 282 338 409
#     4  12  28  45  72 101 139 186 232 290 346 410
#     4  11  25  43  66  97 134 178 226 282 347 405
#     4  12  27  46  70 104 132 186 238 292 332 415
#     4   9  20  39  66  94 128 168 216 278 341 401
#     4  12  27  45  69  99 140 182 231 283 345 403
#
# _framework density 21.671325
#
# number of rings (size 3 to 8) (size 9 to 14) (size 15 to 20)
#    0.000    1.143    2.857    2.143    8.000    2.286 
#    1.286    1.429    0.000    0.000    0.000    0.000 
#    0.000    0.000    0.000    0.000    0.000    0.000 
#
# Total GULP energy -156329.779943 kJ/mol
# GULP energy per Si atom -5583.206427 kJ/mol
# Density = 2.162200 g / cm^3
# Si number density = 21.671325 Si / 1000 Ang^3
#
#
#
# Elastic Constant Matrix: (Units=GPa)
#
#
# Indices 1 2 3 4 5 6 
#
# 1 96.5165 -11.3478 16.3697 0.0000 6.6724 0.0000
# 2 -11.3478 27.0099 1.5174 0.0000 1.3843 0.0000
# 3 16.3697 1.5174 68.3235 0.0000 -1.6146 0.0000
# 4 0.0000 0.0000 0.0000 13.6704 0.0000 -10.7267
# 5 6.6724 1.3843 -1.6146 0.0000 32.3385 0.0000
# 6 0.0000 0.0000 0.0000 -10.7267 0.0000 3.6735
#
#
#
# Elastic Compliance Matrix: (Units=1/GPa)
#
#
# Indices 1 2 3 4 5 6 
#
# 1 0.011671 0.005213 -0.002978 0.000000 -0.002780 0.000000
# 2 0.005213 0.039484 -0.002194 0.000000 -0.002875 0.000000
# 3 -0.002978 -0.002194 0.015433 0.000000 0.001479 0.000000
# 4 0.000000 0.000000 0.000000 -0.056651 0.000000 -0.165422
# 5 -0.002780 -0.002875 0.001479 0.000000 0.031693 0.000000
# 6 0.000000 0.000000 0.000000 -0.165422 0.000000 -0.210818
#
#
# Mechanical properties :
#
#
# Convention : Reuss Voigt Hill
#
# Bulk Modulus (GPa) = 14.99884 22.76986 18.88435
# Shear Modulus (GPa) = -34.00300 22.29052 -5.85624
#
# Velocity S-wave (km/s) = -3.96540 3.21061 -1.64565
# Velocity P-wave (km/s) = 3.74563 4.92684 2.26319
#
# Compressibility (1/GPa) = 0.06667180
#
# Stress axis : x y z
#
# Youngs Moduli (GPa) = 85.68192 25.32651 64.79469
#
# Poissons Ratio (x) = -0.13203 0.19294
# Poissons Ratio (y) = -0.44667 0.14215
# Poissons Ratio (z) = 0.25514 0.05556
#
# Static dielectric constant tensor:
#      x y z
#    x 1.770370 0.000000 0.025010 
#    y 0.000000 1.799530 0.000000 
#    z 0.025010 0.000000 1.824790 
# 
# From -- ./inp_files/35626.got.cif
#   From: 2010.05.17/outbox.cif.g08.bks.cpg/sg15_18_cif.got.tgz:35626.got - 2010.06.03 18:47:42.
