data_PCOD9304031
_publ_section_title
;
Structure prediction by ZEFSAII (Michael W. Deem and Ramdas Pophale) SiO2 
 PCOD9304031
Probable space group: C 2/C
;
_chemical_formula_sum "Si O2"
_cell_formula_units_Z 48
_cell_length_a 20.119211
_cell_length_b 6.140674
_cell_length_c 18.114936
_cell_angle_alpha 90.000000
_cell_angle_beta 110.334443
_cell_angle_gamma 90.000000
_cell_volume 2098.546225
_symmetry_space_group_name_H-M "C 2/C"
_symmetry_group_IT_number 15
_symmetry_cell_setting 'monoclinic'
loop_
_space_group_symop_operation_xyz
x,y,z
-x,y,1/2-z
-x,-y,-z
x,-y,1/2+z
1/2+x,1/2+y,z
1/2-x,1/2+y,1/2-z
1/2-x,1/2-y,-z
1/2+x,1/2-y,1/2+z
loop_
_atom_site_type_symbol
_atom_site_label
_atom_site_fract_x
_atom_site_fract_y
_atom_site_fract_z
Si Si1 0.164549 0.075523 0.752457
Si Si2 0.939856 0.277737 0.285091
Si Si3 0.175044 0.645393 0.503829
Si Si4 0.671045 0.969261 0.848060
Si Si5 0.714776 0.197982 0.143015
Si Si6 0.965882 0.752930 0.969835
O O1 0.185988 0.228662 0.827392
O O2 0.156114 0.191165 0.670930
O O3 0.093174 0.956720 0.746199
O O4 0.230848 0.909424 0.776270
O O5 0.877877 0.440592 0.236250
O O6 0.956416 0.270099 0.377606
O O7 0.000000 0.327825 0.250000
O O8 0.250000 0.750000 0.500000
O O9 0.140001 0.536295 0.417571
O O10 0.191718 0.467178 0.572232
O O11 0.110541 0.774619 0.517723
O O12 0.740443 0.114489 0.878407
O O13 0.000000 0.500000 0.000000
O O14 0.000000 0.000000 0.000000
#
# Coordination Sequence:
#
# PCOD9304031 Si02
#       6
#     8   8   8   8   8   8
#     4  11  23  41  72 108 145 191 251 318 388 469
#     4  11  28  49  78 104 147 210 262 322 391 492
#     4  12  27  46  79 117 156 209 267 338 400 484
#     4  11  24  43  73 107 153 191 259 320 400 467
#     4  11  23  42  71 110 150 194 251 320 404 467
#     4  12  32  56  81 117 166 216 271 336 415 483
#
# _framework density 22.872976999999999
#
# number of rings (size 3 to 8) (size 9 to 14) (size 15 to 20)
#    0.000    0.667    3.333    2.500   11.667    2.000 
#    0.000    0.000    0.000    0.000    0.000    0.000 
#    0.000    0.000    0.000    0.000    0.000    0.000 
#
# Total GULP energy -133674.235464 kJ/mol
# GULP energy per Si atom -5569.759811 kJ/mol
# Density = 2.282092 g / cm^3
# Si number density = 22.872977 Si / 1000 Ang^3
#
#
#
# Elastic Constant Matrix: (Units=GPa)
#
#
# Indices 1 2 3 4 5 6 
#
# 1 85.3666 27.6383 11.8418 0.0000 -2.0830 0.0000
# 2 27.6383 88.8818 36.1604 0.0000 12.2609 0.0000
# 3 11.8418 36.1604 141.2695 0.0000 -13.9020 0.0000
# 4 0.0000 0.0000 0.0000 36.0666 0.0000 3.8131
# 5 -2.0830 12.2609 -13.9020 0.0000 20.0834 0.0000
# 6 0.0000 0.0000 0.0000 3.8131 0.0000 34.3456
#
#
#
# Elastic Compliance Matrix: (Units=1/GPa)
#
#
# Indices 1 2 3 4 5 6 
#
# 1 0.013404 -0.005135 0.000683 0.000000 0.004998 0.000000
# 2 -0.005135 0.017061 -0.005380 0.000000 -0.014673 0.000000
# 3 0.000683 -0.005380 0.009367 0.000000 0.009839 0.000000
# 4 0.000000 0.000000 0.000000 0.028056 0.000000 -0.003115
# 5 0.004998 -0.014673 0.009839 0.000000 0.066079 0.000000
# 6 0.000000 0.000000 0.000000 -0.003115 0.000000 0.029462
#
#
# Mechanical properties :
#
#
# Convention : Reuss Voigt Hill
#
# Bulk Modulus (GPa) = 49.58905 51.86653 50.72779
# Shear Modulus (GPa) = 26.34125 34.09095 30.21610
#
# Velocity S-wave (km/s) = 3.39725 3.86482 3.63855
# Velocity P-wave (km/s) = 6.09226 6.53000 6.31493
#
# Compressibility (1/GPa) = 0.02016574
#
# Stress axis : x y z
#
# Youngs Moduli (GPa) = 74.60451 58.61417 106.75844
#
# Poissons Ratio (x) = 0.30100 -0.07288
# Poissons Ratio (y) = 0.38311 0.57441
# Poissons Ratio (z) = -0.05093 0.31537
#
# Static dielectric constant tensor:
#      x y z
#    x 1.946830 0.000000 0.032440 
#    y 0.000000 2.011740 0.000000 
#    z 0.032440 0.000000 1.849070 
# 
# From -- ./inp_files/250847.got.cif
#   From: 2010.05.17/outbox.cif.g08.bks.cpg/sg15_126_cif.got.tgz:250847.got - 2010.06.03 18:47:42.
