data_PCOD9304769
_publ_section_title
;
Structure prediction by ZEFSAII (Michael W. Deem and Ramdas Pophale) SiO2 
 PCOD9304769
Probable space group: C 2/C
;
_chemical_formula_sum "Si O2"
_cell_formula_units_Z 52
_cell_length_a 12.357625
_cell_length_b 13.615465
_cell_length_c 16.860025
_cell_angle_alpha 90.000000
_cell_angle_beta 124.777369
_cell_angle_gamma 90.000000
_cell_volume 2330.059207
_symmetry_space_group_name_H-M "C 2/C"
_symmetry_group_IT_number 15
_symmetry_cell_setting 'monoclinic'
loop_
_space_group_symop_operation_xyz
x,y,z
-x,y,1/2-z
-x,-y,-z
x,-y,1/2+z
1/2+x,1/2+y,z
1/2-x,1/2+y,1/2-z
1/2-x,1/2-y,-z
1/2+x,1/2-y,1/2+z
loop_
_atom_site_type_symbol
_atom_site_label
_atom_site_fract_x
_atom_site_fract_y
_atom_site_fract_z
Si Si1 0.124897 0.047493 0.596878
Si Si2 0.008815 0.647292 0.342420
Si Si3 0.178756 0.522903 0.534362
Si Si4 0.740286 0.584250 0.281811
Si Si5 0.170031 0.661119 0.929656
Si Si6 0.500000 0.712087 0.250000
Si Si7 0.556491 0.364911 0.357501
O O1 0.236407 0.099576 0.591068
O O2 0.056937 0.126422 0.625497
O O3 0.186148 0.965343 0.679597
O O4 0.000000 0.000000 0.500000
O O5 0.079470 0.592024 0.444557
O O6 0.085532 0.749631 0.361423
O O7 0.000000 0.598797 0.250000
O O8 0.858041 0.656473 0.306922
O O9 0.198677 0.501836 0.636248
O O10 0.141040 0.416079 0.486005
O O11 0.320763 0.567200 0.569101
O O12 0.622348 0.642764 0.276025
O O13 0.046318 0.713692 0.837946
O O14 0.250000 0.750000 0.000000
O O15 0.500000 0.400792 0.250000
#
# Coordination Sequence:
#
# PCOD9304769 Si02
#       7
#     8   8   8   8   8   4   8
#     4  12  24  43  73 107 143 197 245 301 375 444
#     4  11  27  47  70 109 148 191 247 307 370 444
#     4  12  24  47  71 105 148 194 243 305 376 441
#     4  12  25  49  75 106 148 195 246 309 371 447
#     4  12  26  45  72 110 150 191 247 308 372 454
#     4  12  26  48  74 108 148 192 254 306 374 440
#     4  11  23  46  73 103 147 190 246 300 369 441
#
# _framework density 22.317029000000002
#
# number of rings (size 3 to 8) (size 9 to 14) (size 15 to 20)
#    0.000    0.308    4.615    4.615    3.231    0.000 
#    0.000    0.000    0.000    0.000    0.000    0.000 
#    0.000    0.000    0.000    0.000    0.000    0.000 
#
# Total GULP energy -145234.718141 kJ/mol
# GULP energy per Si atom -5585.950698 kJ/mol
# Density = 2.226623 g / cm^3
# Si number density = 22.317029 Si / 1000 Ang^3
#
#
#
# Elastic Constant Matrix: (Units=GPa)
#
#
# Indices 1 2 3 4 5 6 
#
# 1 78.8107 -4.2100 14.4429 0.0000 5.0538 0.0000
# 2 -4.2100 88.6723 45.2217 0.0000 13.3106 0.0000
# 3 14.4429 45.2217 148.8543 0.0000 11.6623 0.0000
# 4 0.0000 0.0000 0.0000 38.0147 0.0000 1.4294
# 5 5.0538 13.3106 11.6623 0.0000 31.2075 0.0000
# 6 0.0000 0.0000 0.0000 1.4294 0.0000 21.4657
#
#
#
# Elastic Compliance Matrix: (Units=1/GPa)
#
#
# Indices 1 2 3 4 5 6 
#
# 1 0.013237 0.001819 -0.001657 0.000000 -0.002300 0.000000
# 2 0.001819 0.014180 -0.004108 0.000000 -0.004808 0.000000
# 3 -0.001657 -0.004108 0.008209 0.000000 -0.001047 0.000000
# 4 0.000000 0.000000 0.000000 0.026372 0.000000 -0.001756
# 5 -0.002300 -0.004808 -0.001047 0.000000 0.034858 0.000000
# 6 0.000000 0.000000 0.000000 -0.001756 0.000000 0.046703
#
#
# Mechanical properties :
#
#
# Convention : Reuss Voigt Hill
#
# Bulk Modulus (GPa) = 36.05628 47.47183 41.76406
# Shear Modulus (GPa) = 31.11489 35.52978 33.32233
#
# Velocity S-wave (km/s) = 3.73798 3.99438 3.86830
# Velocity P-wave (km/s) = 5.90097 6.52619 6.22144
#
# Compressibility (1/GPa) = 0.02773442
#
# Stress axis : x y z
#
# Youngs Moduli (GPa) = 75.54653 70.51977 121.82193
#
# Poissons Ratio (x) = -0.12825 0.20181
# Poissons Ratio (y) = -0.13739 0.50042
# Poissons Ratio (z) = 0.12515 0.28968
#
# Static dielectric constant tensor:
#      x y z
#    x 1.916840 0.000000 -0.365770 
#    y 0.000000 1.860950 0.000000 
#    z -0.365770 0.000000 5.360600 
# 
# From -- ./inp_files/198038.got.cif
#   From: 2010.05.17/outbox.cif.g08.bks.cpg/sg15_100_cif.got.tgz:198038.got - 2010.06.03 18:47:42.
