data_PCOD9304793
_publ_section_title
;
Structure prediction by ZEFSAII (Michael W. Deem and Ramdas Pophale) SiO2 
 PCOD9304793
Probable space group: C 2/C
;
_chemical_formula_sum "Si O2"
_cell_formula_units_Z 44
_cell_length_a 9.867952
_cell_length_b 22.316370
_cell_length_c 11.931111
_cell_angle_alpha 90.000000
_cell_angle_beta 50.004479
_cell_angle_gamma 90.000000
_cell_volume 2012.861623
_symmetry_space_group_name_H-M "C 2/C"
_symmetry_group_IT_number 15
_symmetry_cell_setting 'monoclinic'
loop_
_space_group_symop_operation_xyz
x,y,z
-x,y,1/2-z
-x,-y,-z
x,-y,1/2+z
1/2+x,1/2+y,z
1/2-x,1/2+y,1/2-z
1/2-x,1/2-y,-z
1/2+x,1/2-y,1/2+z
loop_
_atom_site_type_symbol
_atom_site_label
_atom_site_fract_x
_atom_site_fract_y
_atom_site_fract_z
Si Si1 0.000000 0.844960 0.750000
Si Si2 0.750000 0.750000 0.000000
Si Si3 0.281770 0.189735 0.751481
Si Si4 0.381530 0.434989 0.201848
Si Si5 0.500000 0.123839 0.250000
Si Si6 0.561226 0.770021 0.552344
Si Si7 0.846636 0.934644 0.648977
O O1 0.912077 0.885954 0.702474
O O2 0.153519 0.803329 0.620959
O O3 0.693480 0.798410 0.131798
O O4 0.254803 0.120317 0.733796
O O5 0.421652 0.221592 0.591549
O O6 0.090845 0.223087 0.835152
O O7 0.500000 0.427032 0.250000
O O8 0.311508 0.502945 0.232206
O O9 0.503790 0.434279 0.026265
O O10 0.481365 0.167618 0.366315
O O11 0.328774 0.084887 0.321559
O O12 0.750000 0.750000 0.500000
#
# Coordination Sequence:
#
# PCOD9304793 Si02
#       7
#     4   4   8   8   4   8   8
#     4  12  24  50  70 106 150 194 240 300 374 448
#     4  12  26  40  70 100 146 182 230 298 368 430
#     4  12  24  42  66 104 134 186 236 292 359 436
#     4  11  23  46  75  97 139 199 249 289 368 445
#     4  12  24  44  70 110 144 180 246 306 364 430
#     4  12  23  40  67  98 141 176 232 292 357 426
#     4  11  25  46  75 103 142 195 243 310 357 438
#
# _framework density 21.859427
#
# number of rings (size 3 to 8) (size 9 to 14) (size 15 to 20)
#    0.000    0.364    4.545    5.455    0.000    0.000 
#    0.000    6.364    0.000    0.000    0.000    0.000 
#    0.000    0.000    0.000    0.000    0.000    0.000 
#
# Total GULP energy -122699.090035 kJ/mol
# GULP energy per Si atom -5577.231365 kJ/mol
# Density = 2.180967 g / cm^3
# Si number density = 21.859427 Si / 1000 Ang^3
#
#
#
# Elastic Constant Matrix: (Units=GPa)
#
#
# Indices 1 2 3 4 5 6 
#
# 1 34.9336 1.3220 -12.7573 0.0000 14.2567 0.0000
# 2 1.3220 133.6741 17.9589 0.0000 5.5889 0.0000
# 3 -12.7573 17.9589 114.7177 0.0000 26.6675 0.0000
# 4 0.0000 0.0000 0.0000 13.4814 0.0000 -87.7479
# 5 14.2567 5.5889 26.6675 0.0000 44.4098 0.0000
# 6 0.0000 0.0000 0.0000 -87.7479 0.0000 -232.9826
#
#
#
# Elastic Compliance Matrix: (Units=1/GPa)
#
#
# Indices 1 2 3 4 5 6 
#
# 1 0.038914 -0.000798 0.008523 0.000000 -0.017510 0.000000
# 2 -0.000798 0.007661 -0.001306 0.000000 0.000076 0.000000
# 3 0.008523 -0.001306 0.012165 0.000000 -0.009877 0.000000
# 4 0.000000 0.000000 0.000000 0.021492 0.000000 -0.008094
# 5 -0.017510 0.000076 -0.009877 0.000000 0.034060 0.000000
# 6 0.000000 0.000000 0.000000 -0.008094 0.000000 -0.001244
#
#
# Mechanical properties :
#
#
# Convention : Reuss Voigt Hill
#
# Bulk Modulus (GPa) = 13.97061 32.93032 23.45046
# Shear Modulus (GPa) = 40.30000 -16.56484 11.86758
#
# Velocity S-wave (km/s) = 4.29837 -2.75578 2.33256
# Velocity P-wave (km/s) = 5.57133 2.22968 4.24330
#
# Compressibility (1/GPa) = 0.07157882
#
# Stress axis : x y z
#
# Youngs Moduli (GPa) = 25.69759 130.53106 82.20173
#
# Poissons Ratio (x) = 0.10414 -0.70058
# Poissons Ratio (y) = 0.02050 0.10733
# Poissons Ratio (z) = -0.21901 0.17044
#
# Static dielectric constant tensor:
#      x y z
#    x 2.033510 0.000000 0.068080 
#    y 0.000000 1.783510 0.000000 
#    z 0.068080 0.000000 1.796320 
# 
# From -- ./inp_files/88751.got.cif
#   From: 2010.05.17/outbox.cif.g08.bks.cpg/sg15_45_cif.got.tgz:88751.got - 2010.06.03 18:47:42.
