data_PCOD9304326
_publ_section_title
;
Structure prediction by ZEFSAII (Michael W. Deem and Ramdas Pophale) SiO2 
 PCOD9304326
Probable space group: C 2/C
;
_chemical_formula_sum "Si O2"
_cell_formula_units_Z 64
_cell_length_a 29.732420
_cell_length_b 8.446797
_cell_length_c 17.417195
_cell_angle_alpha 90.000000
_cell_angle_beta 41.878951
_cell_angle_gamma 90.000000
_cell_volume 2920.049616
_symmetry_space_group_name_H-M "C 2/C"
_symmetry_group_IT_number 15
_symmetry_cell_setting 'monoclinic'
loop_
_space_group_symop_operation_xyz
x,y,z
-x,y,1/2-z
-x,-y,-z
x,-y,1/2+z
1/2+x,1/2+y,z
1/2-x,1/2+y,1/2-z
1/2-x,1/2-y,-z
1/2+x,1/2-y,1/2+z
loop_
_atom_site_type_symbol
_atom_site_label
_atom_site_fract_x
_atom_site_fract_y
_atom_site_fract_z
Si Si1 0.684351 0.669979 0.279745
Si Si2 0.950696 0.035044 0.991160
Si Si3 0.225187 0.608421 0.863439
Si Si4 0.364082 0.779639 0.727722
Si Si5 0.613821 0.131277 0.747199
Si Si6 0.397499 0.995691 0.392082
Si Si7 0.033038 0.216649 0.781786
Si Si8 0.958443 0.695014 0.956108
O O1 0.625383 0.556836 0.386061
O O2 0.751281 0.568682 0.185771
O O3 0.695216 0.808814 0.326612
O O4 0.657729 0.739321 0.234262
O O5 0.973569 0.195435 0.919445
O O6 0.958821 0.878740 0.929123
O O7 0.000000 0.000000 0.000000
O O8 0.291715 0.704424 0.803544
O O9 0.168272 0.593288 0.999978
O O10 0.403229 0.677563 0.744089
O O11 0.411330 0.798032 0.591838
O O12 0.358272 0.958794 0.765471
O O13 0.535899 0.146949 0.873482
O O14 0.616365 0.141246 0.652120
O O15 0.443137 0.118274 0.285617
O O16 0.429636 0.920390 0.427399
O O17 0.000000 0.130067 0.750000
#
# Coordination Sequence:
#
# PCOD9304326 Si02
#       8
#     8   8   8   8   8   8   8   8
#     4  12  24  44  72 102 136 189 244 297 341 422
#     4  12  23  45  74 111 138 178 242 309 359 407
#     4  12  26  46  70  97 143 192 246 278 344 434
#     4  11  23  45  72 102 138 189 240 290 341 428
#     4  11  24  40  70 103 143 182 226 298 371 408
#     4  11  26  44  66 104 146 191 228 285 361 441
#     4  11  23  43  70 105 143 176 230 295 362 414
#     4  12  22  44  73 108 140 176 240 303 361 413
#
# _framework density 21.917437
#
# number of rings (size 3 to 8) (size 9 to 14) (size 15 to 20)
#    0.000    0.500    3.750    5.250    0.000    4.500 
#    0.000    1.250    0.000    0.000    0.000    0.000 
#    0.000    0.000    0.000    0.000    0.000    0.000 
#
# Total GULP energy -178661.160925 kJ/mol
# GULP energy per Si atom -5583.161279 kJ/mol
# Density = 2.186755 g / cm^3
# Si number density = 21.917437 Si / 1000 Ang^3
#
#
#
# Elastic Constant Matrix: (Units=GPa)
#
#
# Indices 1 2 3 4 5 6 
#
# 1 123.2261 23.5447 41.5805 0.0059 10.6274 0.0001
# 2 23.5447 76.4679 39.7367 0.0309 2.1373 -0.0054
# 3 41.5805 39.7367 54.3625 0.0008 11.2147 -0.0017
# 4 0.0059 0.0309 0.0008 38.1522 -0.0030 -9.5124
# 5 10.6274 2.1373 11.2147 -0.0030 28.2231 -0.0010
# 6 0.0001 -0.0054 -0.0017 -9.5124 -0.0010 31.8631
#
#
#
# Elastic Compliance Matrix: (Units=1/GPa)
#
#
# Indices 1 2 3 4 5 6 
#
# 1 0.011065 0.001532 -0.009476 -0.000003 -0.000517 -0.000001
# 2 0.001532 0.021949 -0.018250 -0.000018 0.005013 -0.000002
# 3 -0.009476 -0.018250 0.041351 0.000015 -0.011481 0.000003
# 4 -0.000003 -0.000018 0.000015 0.028319 0.000000 0.008454
# 5 -0.000517 0.005013 -0.011481 0.000000 0.039809 0.000001
# 6 -0.000001 -0.000002 0.000003 0.008454 0.000001 0.033908
#
#
# Mechanical properties :
#
#
# Convention : Reuss Voigt Hill
#
# Bulk Modulus (GPa) = 45.50170 51.53116 48.51643
# Shear Modulus (GPa) = 21.17614 29.59397 25.38505
#
# Velocity S-wave (km/s) = 3.11171 3.67856 3.40694
# Velocity P-wave (km/s) = 5.80654 6.45019 6.13681
#
# Compressibility (1/GPa) = 0.02197720
#
# Stress axis : x y z
#
# Youngs Moduli (GPa) = 90.37826 45.55996 24.18298
#
# Poissons Ratio (x) = -0.06980 0.22916
# Poissons Ratio (y) = -0.13845 0.44133
# Poissons Ratio (z) = 0.85644 0.83146
#
# Static dielectric constant tensor:
#      x y z
#    x 1.841120 0.000000 0.012900 
#    y 0.000000 1.860170 0.000000 
#    z 0.012900 0.000000 1.769460 
# 
# From -- ./inp_files/224597.got.cif
#   From: 2010.05.17/outbox.cif.g08.bks.cpg/sg15_113_cif.got.tgz:224597.got - 2010.06.03 18:47:42.
