data_PCOD9304742
_publ_section_title
;
Structure prediction by ZEFSAII (Michael W. Deem and Ramdas Pophale) SiO2 
 PCOD9304742
Probable space group: C 2/C
;
_chemical_formula_sum "Si O2"
_cell_formula_units_Z 40
_cell_length_a 15.159480
_cell_length_b 10.187226
_cell_length_c 11.746819
_cell_angle_alpha 90.000000
_cell_angle_beta 84.173146
_cell_angle_gamma 90.000000
_cell_volume 1804.724059
_symmetry_space_group_name_H-M "C 2/C"
_symmetry_group_IT_number 15
_symmetry_cell_setting 'monoclinic'
loop_
_space_group_symop_operation_xyz
x,y,z
-x,y,1/2-z
-x,-y,-z
x,-y,1/2+z
1/2+x,1/2+y,z
1/2-x,1/2+y,1/2-z
1/2-x,1/2-y,-z
1/2+x,1/2-y,1/2+z
loop_
_atom_site_type_symbol
_atom_site_label
_atom_site_fract_x
_atom_site_fract_y
_atom_site_fract_z
Si Si1 0.481388 0.154272 0.127272
Si Si2 0.775109 0.356889 0.590777
Si Si3 0.659493 0.881610 0.501049
Si Si4 0.701435 0.364191 0.839821
Si Si5 0.535051 0.463105 0.368783
O O1 0.500000 0.096970 0.250000
O O2 0.379568 0.146314 0.104668
O O3 0.492661 0.311489 0.132481
O O4 0.555901 0.097181 0.033922
O O5 0.750000 0.250000 0.500000
O O6 0.771981 0.510233 0.556911
O O7 0.713649 0.330516 0.706756
O O8 0.663618 0.753482 0.421617
O O9 0.699452 0.871725 0.622728
O O10 0.638392 0.491706 0.857226
O O11 0.500000 0.520076 0.250000
O O12 0.500000 0.500000 0.500000
#
# Coordination Sequence:
#
# PCOD9304742 Si02
#       5
#     8   8   8   8   8
#     4  11  23  46  69  99 140 191 236 295 364 426
#     4  12  28  43  73 106 143 185 243 297 358 437
#     4  11  25  46  70 100 144 185 237 294 365 430
#     4  11  26  44  71 103 138 190 237 300 366 429
#     4  11  25  43  70 103 141 184 244 302 359 431
#
# _framework density 22.164054
#
# number of rings (size 3 to 8) (size 9 to 14) (size 15 to 20)
#    0.000    0.800    4.000    1.800   11.200    0.000 
#    0.000    1.000    0.000    0.000    0.000    0.000 
#    0.000    0.000    0.000    0.000    0.000    0.000 
#
# Total GULP energy -111393.942700 kJ/mol
# GULP energy per Si atom -5569.697135 kJ/mol
# Density = 2.211361 g / cm^3
# Si number density = 22.164054 Si / 1000 Ang^3
#
#
#
# Elastic Constant Matrix: (Units=GPa)
#
#
# Indices 1 2 3 4 5 6 
#
# 1 115.1052 8.2755 36.2657 0.0000 -11.9584 0.0000
# 2 8.2755 44.0377 6.9026 0.0000 6.1439 0.0000
# 3 36.2657 6.9026 93.0264 0.0000 2.4964 0.0000
# 4 0.0000 0.0000 0.0000 -6.6291 0.0000 -5.4292
# 5 -11.9584 6.1439 2.4964 0.0000 28.2688 0.0000
# 6 0.0000 0.0000 0.0000 -5.4292 0.0000 15.0528
#
#
#
# Elastic Compliance Matrix: (Units=1/GPa)
#
#
# Indices 1 2 3 4 5 6 
#
# 1 0.010707 -0.002107 -0.004161 0.000000 0.005354 0.000000
# 2 -0.002107 0.024074 -0.000803 0.000000 -0.006053 0.000000
# 3 -0.004161 -0.000803 0.012504 0.000000 -0.002690 0.000000
# 4 0.000000 0.000000 0.000000 -0.116452 0.000000 -0.042001
# 5 0.005354 -0.006053 -0.002690 0.000000 0.039193 0.000000
# 6 0.000000 0.000000 0.000000 -0.042001 0.000000 0.051284
#
#
# Mechanical properties :
#
#
# Convention : Reuss Voigt Hill
#
# Bulk Modulus (GPa) = 30.17230 39.45077 34.81154
# Shear Modulus (GPa) = 107.53252 20.72021 64.12637
#
# Velocity S-wave (km/s) = 6.97294 3.06086 5.38474
# Velocity P-wave (km/s) = 8.85844 5.50726 7.37570
#
# Compressibility (1/GPa) = 0.03314298
#
# Stress axis : x y z
#
# Youngs Moduli (GPa) = 93.40109 41.53866 79.97687
#
# Poissons Ratio (x) = 0.08751 0.33280
# Poissons Ratio (y) = 0.19677 0.06419
# Poissons Ratio (z) = 0.38866 0.03334
#
# Static dielectric constant tensor:
#      x y z
#    x 1.919720 0.000000 0.143000 
#    y 0.000000 2.276300 0.000000 
#    z 0.143000 0.000000 1.922840 
# 
# From -- ./inp_files/94871.got.cif
#   From: 2010.05.17/outbox.cif.g08.bks.cpg/sg15_48_cif.got.tgz:94871.got - 2010.06.03 18:47:42.
