data_PCOD9304994
_publ_section_title
;
Structure prediction by ZEFSAII (Michael W. Deem and Ramdas Pophale) SiO2 
 PCOD9304994
Probable space group: C 2/C
;
_chemical_formula_sum "Si O2"
_cell_formula_units_Z 32
_cell_length_a 25.232787
_cell_length_b 9.155534
_cell_length_c 19.158391
_cell_angle_alpha 90.000000
_cell_angle_beta 16.441056
_cell_angle_gamma 90.000000
_cell_volume 1252.675411
_symmetry_space_group_name_H-M "C 2/C"
_symmetry_group_IT_number 15
_symmetry_cell_setting 'monoclinic'
loop_
_space_group_symop_operation_xyz
x,y,z
-x,y,1/2-z
-x,-y,-z
x,-y,1/2+z
1/2+x,1/2+y,z
1/2-x,1/2+y,1/2-z
1/2-x,1/2-y,-z
1/2+x,1/2-y,1/2+z
loop_
_atom_site_type_symbol
_atom_site_label
_atom_site_fract_x
_atom_site_fract_y
_atom_site_fract_z
Si Si1 0.041407 0.545614 0.554461
Si Si2 0.776158 0.151460 0.643837
Si Si3 0.104537 0.282676 0.554474
Si Si4 0.009980 0.060780 0.907679
O O1 0.174807 0.677352 0.411995
O O2 0.159187 0.438490 0.352527
O O3 0.990607 0.428579 0.677663
O O4 0.857882 0.613486 0.751059
O O5 0.979496 0.077543 0.396321
O O6 0.303522 0.343649 0.326378
O O7 0.000000 0.206008 0.750000
O O8 0.125163 0.174361 0.463475
O O9 0.000000 0.000000 0.000000
#
# Coordination Sequence:
#
# PCOD9304994 Si02
#       4
#     8   8   8   8
#     4  11  24  41  68 104 149 188 246 303 375 431
#     4  11  24  40  70 107 141 191 249 317 353 430
#     4  12  27  49  74 108 154 198 242 312 386 446
#     4  12  26  45  75 111 147 196 259 304 365 451
#
# _framework density 25.545324000000001
#
# number of rings (size 3 to 8) (size 9 to 14) (size 15 to 20)
#    0.000    0.500    2.500    5.250    7.000    0.000 
#    0.000    6.250    0.000    0.000    0.000    0.000 
#    0.000    0.000    0.000    0.000    0.000    0.000 
#
# Total GULP energy -89222.556927 kJ/mol
# GULP energy per Si atom -5576.409808 kJ/mol
# Density = 2.548718 g / cm^3
# Si number density = 25.545324 Si / 1000 Ang^3
#
#
#
# Elastic Constant Matrix: (Units=GPa)
#
#
# Indices 1 2 3 4 5 6 
#
# 1 94.4176 36.1630 28.2798 0.0000 -20.6983 0.0000
# 2 36.1630 152.2189 -1.1024 0.0000 3.0423 0.0000
# 3 28.2798 -1.1024 44.1775 -0.0001 -3.4539 0.0001
# 4 0.0000 0.0000 -0.0001 36.0259 0.0001 -23.4144
# 5 -20.6983 3.0423 -3.4539 0.0001 39.1966 0.0000
# 6 0.0000 0.0000 0.0001 -23.4144 0.0000 54.0441
#
#
#
# Elastic Compliance Matrix: (Units=1/GPa)
#
#
# Indices 1 2 3 4 5 6 
#
# 1 0.017272 -0.004350 -0.010498 0.000000 0.008534 0.000000
# 2 -0.004350 0.007676 0.002769 0.000000 -0.002649 0.000000
# 3 -0.010498 0.002769 0.029176 0.000000 -0.003188 0.000000
# 4 0.000000 0.000000 0.000000 0.038637 0.000000 0.016739
# 5 0.008534 -0.002649 -0.003188 0.000000 0.029943 0.000000
# 6 0.000000 0.000000 0.000000 0.016739 0.000000 0.025756
#
#
# Mechanical properties :
#
#
# Convention : Reuss Voigt Hill
#
# Bulk Modulus (GPa) = 33.37085 46.38833 39.87959
# Shear Modulus (GPa) = 27.38105 41.01822 34.19963
#
# Velocity S-wave (km/s) = 3.27748 4.01147 3.66291
# Velocity P-wave (km/s) = 5.23586 6.29718 5.79089
#
# Compressibility (1/GPa) = 0.02996627
#
# Stress axis : x y z
#
# Youngs Moduli (GPa) = 57.89553 130.27742 34.27452
#
# Poissons Ratio (x) = 0.56671 0.35982
# Poissons Ratio (y) = 0.25185 -0.09491
# Poissons Ratio (z) = 0.60780 -0.36075
#
# Static dielectric constant tensor:
#      x y z
#    x 2.012850 0.000000 -0.035860 
#    y 0.000000 2.055400 0.000000 
#    z -0.035860 0.000000 2.193010 
# 
# From -- ./inp_files/257092.got.cif
#   From: 2010.05.17/outbox.cif.g08.bks.cpg/sg15_129_cif.got.tgz:257092.got - 2010.06.03 18:47:42.
