data_PCOD9304916
_publ_section_title
;
Structure prediction by ZEFSAII (Michael W. Deem and Ramdas Pophale) SiO2 
 PCOD9304916
Probable space group: C 2/C
;
_chemical_formula_sum "Si O2"
_cell_formula_units_Z 40
_cell_length_a 11.369997
_cell_length_b 14.780190
_cell_length_c 13.180625
_cell_angle_alpha 90.000000
_cell_angle_beta 133.513624
_cell_angle_gamma 90.000000
_cell_volume 1606.351404
_symmetry_space_group_name_H-M "C 2/C"
_symmetry_group_IT_number 15
_symmetry_cell_setting 'monoclinic'
loop_
_space_group_symop_operation_xyz
x,y,z
-x,y,1/2-z
-x,-y,-z
x,-y,1/2+z
1/2+x,1/2+y,z
1/2-x,1/2+y,1/2-z
1/2-x,1/2-y,-z
1/2+x,1/2-y,1/2+z
loop_
_atom_site_type_symbol
_atom_site_label
_atom_site_fract_x
_atom_site_fract_y
_atom_site_fract_z
Si Si1 0.170089 0.091950 0.306629
Si Si2 0.842136 0.763526 0.445079
Si Si3 0.060101 0.497033 0.900271
Si Si4 0.836757 0.305902 0.463733
Si Si5 0.224240 0.079205 0.735175
O O1 0.259947 0.183317 0.330622
O O2 0.000000 0.119855 0.250000
O O3 0.279308 0.043812 0.458981
O O4 0.138494 0.016460 0.201649
O O5 0.750000 0.750000 0.500000
O O6 0.802922 0.863447 0.381272
O O7 0.032193 0.744951 0.531823
O O8 0.076718 0.390833 0.929531
O O9 0.000000 0.509436 0.750000
O O10 0.910654 0.548796 0.863763
O O11 0.750000 0.250000 0.500000
O O12 0.697469 0.349974 0.309672
#
# Coordination Sequence:
#
# PCOD9304916 Si02
#       5
#     8   8   8   8   8
#     4  11  25  47  74 113 156 200 263 327 385 473
#     4  12  27  47  76 114 155 204 268 324 397 470
#     4  11  23  49  76 106 155 209 251 323 402 461
#     4  11  26  45  75 111 152 200 262 319 388 468
#     4  11  25  47  75 104 159 208 253 328 397 466
#
# _framework density 24.901150999999999
#
# number of rings (size 3 to 8) (size 9 to 14) (size 15 to 20)
#    0.000    0.800    4.000    2.400   11.200    0.000 
#    0.000    2.000    0.000    0.000    0.000    0.000 
#    0.000    0.000    0.000    0.000    0.000    0.000 
#
# Total GULP energy -111653.973324 kJ/mol
# GULP energy per Si atom -5582.698666 kJ/mol
# Density = 2.484447 g / cm^3
# Si number density = 24.901151 Si / 1000 Ang^3
#
#
#
# Elastic Constant Matrix: (Units=GPa)
#
#
# Indices 1 2 3 4 5 6 
#
# 1 113.1403 38.3934 22.5009 0.0000 -0.8654 0.0000
# 2 38.3934 145.8003 30.5232 0.0000 -11.0454 0.0000
# 3 22.5009 30.5232 63.5987 0.0000 -1.6553 0.0000
# 4 0.0000 0.0000 0.0000 24.0379 0.0000 2.9633
# 5 -0.8654 -11.0454 -1.6553 0.0000 46.6869 0.0000
# 6 0.0000 0.0000 0.0000 2.9633 0.0000 39.4425
#
#
#
# Elastic Compliance Matrix: (Units=1/GPa)
#
#
# Indices 1 2 3 4 5 6 
#
# 1 0.010071 -0.002151 -0.002541 0.000000 -0.000412 0.000000
# 2 -0.002151 0.008218 -0.003136 0.000000 0.001793 0.000000
# 3 -0.002541 -0.003136 0.018124 0.000000 -0.000146 0.000000
# 4 0.000000 0.000000 0.000000 0.041990 0.000000 -0.003155
# 5 -0.000412 0.001793 -0.000146 0.000000 0.021831 0.000000
# 6 0.000000 0.000000 0.000000 -0.003155 0.000000 0.025590
#
#
# Mechanical properties :
#
#
# Convention : Reuss Voigt Hill
#
# Bulk Modulus (GPa) = 48.18082 56.15270 52.16676
# Shear Modulus (GPa) = 33.69296 37.44158 35.56727
#
# Velocity S-wave (km/s) = 3.68240 3.88185 3.78344
# Velocity P-wave (km/s) = 6.12135 6.53382 6.33095
#
# Compressibility (1/GPa) = 0.02075515
#
# Stress axis : x y z
#
# Youngs Moduli (GPa) = 99.29676 121.69086 55.17537
#
# Poissons Ratio (x) = 0.26178 0.14022
# Poissons Ratio (y) = 0.21360 0.17304
# Poissons Ratio (z) = 0.25235 0.38164
#
# Static dielectric constant tensor:
#      x y z
#    x 2.148920 0.000000 -0.068180 
#    y 0.000000 2.006720 0.000000 
#    z -0.068180 0.000000 2.345020 
# 
# From -- ./inp_files/143943.got.cif
#   From: 2010.05.17/outbox.cif.g08.bks.cpg/sg15_72_cif.got.tgz:143943.got - 2010.06.03 18:47:42.
