data_PCOD9304978
_publ_section_title
;
Structure prediction by ZEFSAII (Michael W. Deem and Ramdas Pophale) SiO2 
 PCOD9304978
Probable space group: C 2/C
;
_chemical_formula_sum "Si O2"
_cell_formula_units_Z 36
_cell_length_a 23.329560
_cell_length_b 4.873332
_cell_length_c 11.747204
_cell_angle_alpha 90.000000
_cell_angle_beta 76.087568
_cell_angle_gamma 90.000000
_cell_volume 1296.391366
_symmetry_space_group_name_H-M "C 2/C"
_symmetry_group_IT_number 15
_symmetry_cell_setting 'monoclinic'
loop_
_space_group_symop_operation_xyz
x,y,z
-x,y,1/2-z
-x,-y,-z
x,-y,1/2+z
1/2+x,1/2+y,z
1/2-x,1/2+y,1/2-z
1/2-x,1/2-y,-z
1/2+x,1/2-y,1/2+z
loop_
_atom_site_type_symbol
_atom_site_label
_atom_site_fract_x
_atom_site_fract_y
_atom_site_fract_z
Si Si1 0.889596 0.374938 0.559111
Si Si2 0.833937 0.045415 0.784344
Si Si3 0.045090 0.009310 0.635217
Si Si4 0.500000 0.000000 0.500000
Si Si5 0.205231 0.451981 0.085093
O O1 0.853569 0.170766 0.655609
O O2 0.847066 0.479718 0.481900
O O3 0.932588 0.583942 0.599654
O O4 0.946166 0.220972 0.468379
O O5 0.891145 0.048313 0.838544
O O6 0.785628 0.247967 0.866795
O O7 0.812982 0.733656 0.797235
O O8 0.019934 0.285579 0.595460
O O9 0.000000 0.908346 0.750000
O O10 0.250000 0.250000 0.000000
#
# Coordination Sequence:
#
# PCOD9304978 Si02
#       5
#     8   8   8   4   8
#     4  11  26  41  67  99 136 176 229 270 341 401
#     4  11  25  43  71 100 134 176 224 281 334 398
#     4  11  24  40  64 100 139 180 218 276 333 407
#     4  12  22  40  64  96 142 172 228 262 342 404
#     4  11  26  47  69  98 133 175 230 283 338 396
#
# _framework density 27.769393999999998
#
# number of rings (size 3 to 8) (size 9 to 14) (size 15 to 20)
#    0.000    0.889    4.444    1.333    3.111    4.444 
#    0.000    0.000    0.000    0.000    0.000    0.000 
#    0.000    0.000    0.000    0.000    0.000    0.000 
#
# Total GULP energy -100553.553313 kJ/mol
# GULP energy per Si atom -5586.308517 kJ/mol
# Density = 2.770619 g / cm^3
# Si number density = 27.769394 Si / 1000 Ang^3
#
#
#
# Elastic Constant Matrix: (Units=GPa)
#
#
# Indices 1 2 3 4 5 6 
#
# 1 95.1472 9.7282 -11.1230 0.0000 9.8497 0.0000
# 2 9.7282 144.4281 44.3286 0.0000 9.4130 0.0000
# 3 -11.1230 44.3286 88.1889 0.0000 -7.0395 0.0000
# 4 0.0000 0.0000 0.0000 44.9420 0.0000 -3.9919
# 5 9.8497 9.4130 -7.0395 0.0000 52.8501 0.0000
# 6 0.0000 0.0000 0.0000 -3.9919 0.0000 35.7259
#
#
#
# Elastic Compliance Matrix: (Units=1/GPa)
#
#
# Indices 1 2 3 4 5 6 
#
# 1 0.011017 -0.001213 0.001873 0.000000 -0.001588 0.000000
# 2 -0.001213 0.008541 -0.004599 0.000000 -0.001908 0.000000
# 3 0.001873 -0.004599 0.014074 0.000000 0.002345 0.000000
# 4 0.000000 0.000000 0.000000 0.022474 0.000000 0.002511
# 5 -0.001588 -0.001908 0.002345 0.000000 0.019869 0.000000
# 6 0.000000 0.000000 0.000000 0.002511 0.000000 0.028271
#
#
# Mechanical properties :
#
#
# Convention : Reuss Voigt Hill
#
# Bulk Modulus (GPa) = 38.82839 45.95909 42.39374
# Shear Modulus (GPa) = 41.42114 45.69229 43.55671
#
# Velocity S-wave (km/s) = 3.86633 4.06078 3.96474
# Velocity P-wave (km/s) = 5.82616 6.21070 6.02150
#
# Compressibility (1/GPa) = 0.02575435
#
# Stress axis : x y z
#
# Youngs Moduli (GPa) = 90.76552 117.07711 71.05188
#
# Poissons Ratio (x) = 0.14206 -0.13307
# Poissons Ratio (y) = 0.11014 0.32675
# Poissons Ratio (z) = -0.16999 0.53840
#
# Static dielectric constant tensor:
#      x y z
#    x 2.331220 0.000000 -0.100300 
#    y 0.000000 2.447300 0.000000 
#    z -0.100300 0.000000 2.314900 
# 
# From -- ./inp_files/120686.got.cif
#   From: 2010.05.17/outbox.cif.g08.bks.cpg/sg15_61_cif.got.tgz:120686.got - 2010.06.03 18:47:42.
