data_PCOD9304730
_publ_section_title
;
Structure prediction by ZEFSAII (Michael W. Deem and Ramdas Pophale) SiO2 
 PCOD9304730
Probable space group: C 2/C
;
_chemical_formula_sum "Si O2"
_cell_formula_units_Z 56
_cell_length_a 13.935987
_cell_length_b 12.864969
_cell_length_c 15.567880
_cell_angle_alpha 90.000000
_cell_angle_beta 116.589324
_cell_angle_gamma 90.000000
_cell_volume 2495.909903
_symmetry_space_group_name_H-M "C 2/C"
_symmetry_group_IT_number 15
_symmetry_cell_setting 'monoclinic'
loop_
_space_group_symop_operation_xyz
x,y,z
-x,y,1/2-z
-x,-y,-z
x,-y,1/2+z
1/2+x,1/2+y,z
1/2-x,1/2+y,1/2-z
1/2-x,1/2-y,-z
1/2+x,1/2-y,1/2+z
loop_
_atom_site_type_symbol
_atom_site_label
_atom_site_fract_x
_atom_site_fract_y
_atom_site_fract_z
Si Si1 0.000000 0.071866 0.250000
Si Si2 0.685980 0.710819 0.268798
Si Si3 0.500000 0.178134 0.250000
Si Si4 0.170760 0.040475 0.938486
Si Si5 0.709849 0.386332 0.100533
Si Si6 0.832818 0.460819 0.768798
Si Si7 0.140683 0.636332 0.600532
Si Si8 0.017726 0.209525 0.938486
O O1 0.924648 0.148929 0.273896
O O2 0.921579 0.001530 0.161944
O O3 0.705757 0.792426 0.353187
O O4 0.778347 0.625000 0.306694
O O5 0.692281 0.777964 0.184685
O O6 0.599248 0.101071 0.273896
O O7 0.490365 0.248470 0.161944
O O8 0.266988 0.092518 0.924552
O O9 0.113359 0.125000 0.976717
O O10 0.210667 0.943512 0.010374
O O11 0.742404 0.472036 0.184686
O O12 0.592436 0.342519 0.075448
O O13 0.897430 0.542426 0.853187
O O14 0.049706 0.693512 0.510373
#
# Coordination Sequence:
#
# PCOD9304730 Si02
#       8
#     4   8   4   8   8   8   8   8
#     4  12  25  43  74 100 146 184 239 285 364 402
#     4  11  23  46  68 103 142 188 230 298 341 425
#     4  12  25  43  74 100 146 184 239 285 364 402
#     4  12  24  43  71 109 135 191 232 297 344 425
#     4  11  25  43  71 100 147 181 239 285 353 410
#     4  11  23  46  68 103 142 188 230 298 341 425
#     4  11  25  43  71 100 147 181 239 285 353 410
#     4  12  24  43  71 109 135 191 232 297 344 425
#
# _framework density 22.436706999999998
#
# number of rings (size 3 to 8) (size 9 to 14) (size 15 to 20)
#    0.000    0.571    2.857    5.571    4.000    3.429 
#    0.000    0.000    0.000    0.000    0.000    0.000 
#    0.000    0.000    0.000    0.000    0.000    0.000 
#
# Total GULP energy -156790.697198 kJ/mol
# GULP energy per Si atom -5599.667757 kJ/mol
# Density = 2.238564 g / cm^3
# Si number density = 22.436707 Si / 1000 Ang^3
#
#
#
# Elastic Constant Matrix: (Units=GPa)
#
#
# Indices 1 2 3 4 5 6 
#
# 1 92.2239 34.4139 -0.2351 0.0000 2.7321 0.0000
# 2 34.4139 120.8601 40.3445 0.0000 -0.2917 0.0000
# 3 -0.2351 40.3445 94.6201 0.0000 -2.8502 0.0000
# 4 0.0000 0.0000 0.0000 30.4568 0.0000 -3.6019
# 5 2.7321 -0.2917 -2.8502 0.0000 18.7291 0.0000
# 6 0.0000 0.0000 0.0000 -3.6019 0.0000 -42.7542
#
#
#
# Elastic Compliance Matrix: (Units=1/GPa)
#
#
# Indices 1 2 3 4 5 6 
#
# 1 0.012435 -0.004126 0.001742 0.000000 -0.001613 0.000000
# 2 -0.004126 0.011020 -0.004707 0.000000 0.000057 0.000000
# 3 0.001742 -0.004707 0.012628 0.000000 0.001594 0.000000
# 4 0.000000 0.000000 0.000000 0.032510 0.000000 -0.002739
# 5 -0.001613 0.000057 0.001594 0.000000 0.053872 0.000000
# 6 0.000000 0.000000 0.000000 -0.002739 0.000000 -0.023159
#
#
# Mechanical properties :
#
#
# Convention : Reuss Voigt Hill
#
# Bulk Modulus (GPa) = 45.66258 50.75007 48.20632
# Shear Modulus (GPa) = 41.39422 16.83171 29.11296
#
# Velocity S-wave (km/s) = 4.29993 2.74192 3.60607
# Velocity P-wave (km/s) = 6.71181 5.71774 6.23462
#
# Compressibility (1/GPa) = 0.02189977
#
# Stress axis : x y z
#
# Youngs Moduli (GPa) = 80.41781 90.74064 79.18840
#
# Poissons Ratio (x) = 0.37440 -0.13791
# Poissons Ratio (y) = 0.33181 0.37278
# Poissons Ratio (z) = -0.14005 0.42716
#
# Static dielectric constant tensor:
#      x y z
#    x 1.813070 0.000000 -0.001250 
#    y 0.000000 1.835200 0.000000 
#    z -0.001250 0.000000 1.838390 
# 
# From -- ./inp_files/204568.got.cif
#   From: 2010.05.17/outbox.cif.g08.bks.cpg/sg15_103_cif.got.tgz:204568.got - 2010.06.03 18:47:42.
