data_PCOD9304229
_publ_section_title
;
Structure prediction by ZEFSAII (Michael W. Deem and Ramdas Pophale) SiO2 
 PCOD9304229
Probable space group: C 2/C
;
_chemical_formula_sum "Si O2"
_cell_formula_units_Z 40
_cell_length_a 10.338576
_cell_length_b 8.778997
_cell_length_c 20.249308
_cell_angle_alpha 90.000000
_cell_angle_beta 105.341403
_cell_angle_gamma 90.000000
_cell_volume 1772.384409
_symmetry_space_group_name_H-M "C 2/C"
_symmetry_group_IT_number 15
_symmetry_cell_setting 'monoclinic'
loop_
_space_group_symop_operation_xyz
x,y,z
-x,y,1/2-z
-x,-y,-z
x,-y,1/2+z
1/2+x,1/2+y,z
1/2-x,1/2+y,1/2-z
1/2-x,1/2-y,-z
1/2+x,1/2-y,1/2+z
loop_
_atom_site_type_symbol
_atom_site_label
_atom_site_fract_x
_atom_site_fract_y
_atom_site_fract_z
Si Si1 0.169587 0.907532 0.491660
Si Si2 0.137150 0.973803 0.228230
Si Si3 0.995649 0.127081 0.403774
Si Si4 0.438023 0.965478 0.064480
Si Si5 0.091955 0.620650 0.198569
O O1 0.250000 0.750000 0.500000
O O2 0.054164 0.871086 0.527821
O O3 0.107981 0.992803 0.419581
O O4 0.278856 0.021950 0.535876
O O5 0.134950 0.796478 0.209569
O O6 0.000000 0.005424 0.250000
O O7 0.273409 0.019888 0.282972
O O8 0.121653 0.076023 0.160668
O O9 0.036122 0.300870 0.399152
O O10 0.503307 0.088342 0.122226
O O11 0.500000 0.000000 0.000000
O O12 0.000000 0.585205 0.250000
#
# Coordination Sequence:
#
# PCOD9304229 Si02
#       5
#     8   8   8   8   8
#     4  11  23  43  65  96 140 174 219 277 341 403
#     4  11  26  45  73  99 136 182 232 285 342 413
#     4  11  25  42  68 100 132 181 224 277 342 403
#     4  12  25  42  70 102 137 177 226 281 340 408
#     4  11  26  48  69  99 140 183 230 284 347 414
#
# _framework density 22.568466999999998
#
# number of rings (size 3 to 8) (size 9 to 14) (size 15 to 20)
#    0.000    0.800    2.000    4.200    5.600    8.000 
#    0.000    0.000    0.000    0.000    0.000    0.000 
#    0.000    0.000    0.000    0.000    0.000    0.000 
#
# Total GULP energy -111771.320989 kJ/mol
# GULP energy per Si atom -5588.566049 kJ/mol
# Density = 2.251710 g / cm^3
# Si number density = 22.568467 Si / 1000 Ang^3
#
#
#
# Elastic Constant Matrix: (Units=GPa)
#
#
# Indices 1 2 3 4 5 6 
#
# 1 39.8721 16.0838 -4.5010 0.0000 12.3702 0.0000
# 2 16.0838 55.0034 -20.7110 0.0000 -12.0459 0.0000
# 3 -4.5010 -20.7110 73.1473 0.0000 4.0046 0.0000
# 4 0.0000 0.0000 0.0000 33.2097 0.0000 10.9332
# 5 12.3702 -12.0459 4.0046 0.0000 35.5262 0.0000
# 6 0.0000 0.0000 0.0000 10.9332 0.0000 29.8948
#
#
#
# Elastic Compliance Matrix: (Units=1/GPa)
#
#
# Indices 1 2 3 4 5 6 
#
# 1 0.036445 -0.014898 -0.001011 0.000000 -0.017628 0.000000
# 2 -0.014898 0.027940 0.006230 0.000000 0.013959 0.000000
# 3 -0.001011 0.006230 0.015333 0.000000 0.000736 0.000000
# 4 0.000000 0.000000 0.000000 0.034233 0.000000 -0.012520
# 5 -0.017628 0.013959 0.000736 0.000000 0.038936 0.000000
# 6 0.000000 0.000000 0.000000 -0.012520 0.000000 0.038030
#
#
# Mechanical properties :
#
#
# Convention : Reuss Voigt Hill
#
# Bulk Modulus (GPa) = 16.56728 16.64073 16.60401
# Shear Modulus (GPa) = 21.70202 31.53621 26.61912
#
# Velocity S-wave (km/s) = 3.10435 3.74218 3.43809
# Velocity P-wave (km/s) = 4.49512 5.10503 4.80975
#
# Compressibility (1/GPa) = 0.06035993
#
# Stress axis : x y z
#
# Youngs Moduli (GPa) = 27.43893 35.79107 65.22084
#
# Poissons Ratio (x) = 0.53321 0.06591
# Poissons Ratio (y) = 0.40878 -0.40633
# Poissons Ratio (z) = 0.02773 -0.22298
#
# Static dielectric constant tensor:
#      x y z
#    x 1.908660 0.000000 0.008210 
#    y 0.000000 1.914670 0.000000 
#    z 0.008210 0.000000 1.877070 
# 
# From -- ./inp_files/267883.got.cif
#   From: 2010.05.17/outbox.cif.g08.bks.cpg/sg15_134_cif.got.tgz:267883.got - 2010.06.03 18:47:42.
