data_PCOD9304731
_publ_section_title
;
Structure prediction by ZEFSAII (Michael W. Deem and Ramdas Pophale) SiO2 
 PCOD9304731
Probable space group: C 2/C
;
_chemical_formula_sum "Si O2"
_cell_formula_units_Z 40
_cell_length_a 12.701698
_cell_length_b 16.246163
_cell_length_c 18.324718
_cell_angle_alpha 90.000000
_cell_angle_beta 154.340207
_cell_angle_gamma 90.000000
_cell_volume 1637.436685
_symmetry_space_group_name_H-M "C 2/C"
_symmetry_group_IT_number 15
_symmetry_cell_setting 'monoclinic'
loop_
_space_group_symop_operation_xyz
x,y,z
-x,y,1/2-z
-x,-y,-z
x,-y,1/2+z
1/2+x,1/2+y,z
1/2-x,1/2+y,1/2-z
1/2-x,1/2-y,-z
1/2+x,1/2-y,1/2+z
loop_
_atom_site_type_symbol
_atom_site_label
_atom_site_fract_x
_atom_site_fract_y
_atom_site_fract_z
Si Si1 0.250514 0.544843 0.375584
Si Si2 0.861029 0.133116 0.090837
Si Si3 0.495027 0.557902 0.827705
Si Si4 0.224404 0.681722 0.242149
Si Si5 0.082007 0.654930 0.596524
O O1 0.500000 0.500000 0.500000
O O2 0.350489 0.592560 0.509252
O O3 0.169680 0.609092 0.263767
O O4 0.000000 0.501157 0.250000
O O5 0.000000 0.164749 0.250000
O O6 0.990281 0.170227 0.101682
O O7 0.584374 0.150906 0.935629
O O8 0.915735 0.035897 0.121840
O O9 0.500000 0.595116 0.750000
O O10 0.215124 0.567341 0.674839
O O11 0.220087 0.772952 0.271764
O O12 0.069657 0.670476 0.071894
#
# Coordination Sequence:
#
# PCOD9304731 Si02
#       5
#     8   8   8   8   8
#     4  12  27  46  71 109 149 193 247 307 370 444
#     4   9  21  39  66 103 141 187 247 298 365 436
#     4  11  24  43  70 103 139 189 238 299 362 436
#     4  11  23  46  68 106 146 191 252 302 375 438
#     4  11  24  43  74 103 149 195 241 308 370 444
#
# _framework density 24.428426000000002
#
# number of rings (size 3 to 8) (size 9 to 14) (size 15 to 20)
#    0.000    1.200    2.000    3.000    2.800    8.000 
#    0.000    7.000    0.000    0.000    0.000    0.000 
#    0.000    0.000    0.000    0.000    0.000    0.000 
#
# Total GULP energy -111591.519891 kJ/mol
# GULP energy per Si atom -5579.575995 kJ/mol
# Density = 2.437283 g / cm^3
# Si number density = 24.428426 Si / 1000 Ang^3
#
#
#
# Elastic Constant Matrix: (Units=GPa)
#
#
# Indices 1 2 3 4 5 6 
#
# 1 116.6570 27.1347 44.8136 0.0021 7.7201 -0.0255
# 2 27.1347 72.0645 30.4592 -0.0159 7.9415 0.0123
# 3 44.8136 30.4592 100.9948 -0.0099 3.0599 0.0060
# 4 0.0021 -0.0159 -0.0099 31.3004 0.0083 2.2558
# 5 7.7201 7.9415 3.0599 0.0083 53.9669 -0.0109
# 6 -0.0255 0.0123 0.0060 2.2558 -0.0109 4.8860
#
#
#
# Elastic Compliance Matrix: (Units=1/GPa)
#
#
# Indices 1 2 3 4 5 6 
#
# 1 0.010709 -0.002211 -0.004056 -0.000008 -0.000977 0.000068
# 2 -0.002211 0.016595 -0.003966 0.000012 -0.001901 -0.000058
# 3 -0.004056 -0.003966 0.012884 0.000004 0.000433 -0.000028
# 4 -0.000008 0.000012 0.000004 0.033048 -0.000009 -0.015258
# 5 -0.000977 -0.001901 0.000433 -0.000009 0.018925 0.000045
# 6 0.000068 -0.000058 -0.000028 -0.015258 0.000045 0.211714
#
#
# Mechanical properties :
#
#
# Convention : Reuss Voigt Hill
#
# Bulk Modulus (GPa) = 50.70240 54.94791 52.82516
# Shear Modulus (GPa) = 15.10969 30.51790 22.81380
#
# Velocity S-wave (km/s) = 2.48972 3.53835 3.05930
# Velocity P-wave (km/s) = 5.39124 6.26382 5.84384
#
# Compressibility (1/GPa) = 0.01972293
#
# Stress axis : x y z
#
# Youngs Moduli (GPa) = 93.38047 60.26003 77.61497
#
# Poissons Ratio (x) = 0.13321 0.31477
# Poissons Ratio (y) = 0.20642 0.30785
# Poissons Ratio (z) = 0.37870 0.23901
#
# Static dielectric constant tensor:
#      x y z
#    x 2.045640 -0.000020 0.045880 
#    y -0.000020 1.940040 -0.000020 
#    z 0.045880 -0.000020 1.989780 
# 
# From -- ./inp_files/199728.got.cif
#   From: 2010.05.17/outbox.cif.g08.bks.cpg/sg15_100_cif.got.tgz:199728.got - 2010.06.03 18:47:42.
