data_PCOD9304965
_publ_section_title
;
Structure prediction by ZEFSAII (Michael W. Deem and Ramdas Pophale) SiO2 
 PCOD9304965
Probable space group: C 2/C
;
_chemical_formula_sum "Si O2"
_cell_formula_units_Z 44
_cell_length_a 16.608565
_cell_length_b 22.067794
_cell_length_c 4.980912
_cell_angle_alpha 90.000000
_cell_angle_beta 92.610360
_cell_angle_gamma 90.000000
_cell_volume 1823.681622
_symmetry_space_group_name_H-M "C 2/C"
_symmetry_group_IT_number 15
_symmetry_cell_setting 'monoclinic'
loop_
_space_group_symop_operation_xyz
x,y,z
-x,y,1/2-z
-x,-y,-z
x,-y,1/2+z
1/2+x,1/2+y,z
1/2-x,1/2+y,1/2-z
1/2-x,1/2-y,-z
1/2+x,1/2-y,1/2+z
loop_
_atom_site_type_symbol
_atom_site_label
_atom_site_fract_x
_atom_site_fract_y
_atom_site_fract_z
Si Si1 0.127995 0.223341 0.442407
Si Si2 0.133943 0.657751 0.606535
Si Si3 0.814797 0.154097 0.555120
Si Si4 0.825678 0.034971 0.872290
Si Si5 0.370192 0.035720 0.614738
Si Si6 0.000000 0.276619 0.750000
O O1 0.149917 0.287687 0.316098
O O2 0.174802 0.207452 0.723715
O O3 0.037453 0.233307 0.530791
O O4 0.144428 0.174027 0.215148
O O5 0.220085 0.642583 0.486034
O O6 0.103218 0.599854 0.765965
O O7 0.068972 0.682066 0.388080
O O8 0.848664 0.096325 0.722525
O O9 0.727863 0.037277 0.883697
O O10 0.851576 0.980645 0.676784
O O11 0.395428 0.017661 0.321741
#
# Coordination Sequence:
#
# PCOD9304965 Si02
#       6
#     8   8   8   8   8   4
#     4  12  25  44  62  96 128 172 215 267 322 378
#     4  11  25  42  68  93 134 168 216 266 325 370
#     4  11  24  39  70  99 127 167 216 264 313 385
#     4   9  17  34  58  94 131 157 195 257 321 370
#     4   9  20  36  60  89 123 166 211 257 307 369
#     4  12  28  44  62  88 136 176 212 264 330 376
#
# _framework density 24.127016999999999
#
# number of rings (size 3 to 8) (size 9 to 14) (size 15 to 20)
#    0.000    1.455    1.818    2.727    5.091    2.909 
#    0.000    0.909    0.000    0.000    0.000   12.727 
#    0.000    0.000    0.000    0.000    0.000    0.000 
#
# Total GULP energy -123117.383853 kJ/mol
# GULP energy per Si atom -5596.244721 kJ/mol
# Density = 2.407210 g / cm^3
# Si number density = 24.127017 Si / 1000 Ang^3
#
#
#
# Elastic Constant Matrix: (Units=GPa)
#
#
# Indices 1 2 3 4 5 6 
#
# 1 -150.3814 29.9433 -46.0896 0.0000 34.1327 0.0000
# 2 29.9433 66.1825 1.8610 0.0000 -3.7715 0.0000
# 3 -46.0896 1.8610 89.8608 0.0000 11.5953 0.0000
# 4 0.0000 0.0000 0.0000 35.3343 0.0000 -8.0782
# 5 34.1327 -3.7715 11.5953 0.0000 32.2798 0.0000
# 6 0.0000 0.0000 0.0000 -8.0782 0.0000 63.3484
#
#
#
# Elastic Compliance Matrix: (Units=1/GPa)
#
#
# Indices 1 2 3 4 5 6 
#
# 1 -0.004064 0.002237 -0.002851 0.000000 0.005582 0.000000
# 2 0.002237 0.014008 0.000997 0.000000 -0.001087 0.000000
# 3 -0.002851 0.000997 0.009691 0.000000 -0.000350 0.000000
# 4 0.000000 0.000000 0.000000 0.029151 0.000000 0.003717
# 5 0.005582 -0.001087 -0.000350 0.000000 0.025075 0.000000
# 6 0.000000 0.000000 0.000000 0.003717 0.000000 0.016260
#
#
# Mechanical properties :
#
#
# Convention : Reuss Voigt Hill
#
# Bulk Modulus (GPa) = 49.01622 -2.54541 23.23541
# Shear Modulus (GPa) = 51.99970 27.52234 39.76102
#
# Velocity S-wave (km/s) = 4.64750 3.38113 4.06395
# Velocity P-wave (km/s) = 7.01135 3.76635 5.62781
#
# Compressibility (1/GPa) = 0.02040141
#
# Stress axis : x y z
#
# Youngs Moduli (GPa) = -246.08682 71.38909 103.19262
#
# Poissons Ratio (x) = -0.15968 0.29419
# Poissons Ratio (y) = 0.55045 -0.10292
# Poissons Ratio (z) = -0.70156 -0.07120
#
# Static dielectric constant tensor:
#      x y z
#    x 1.946260 0.000000 -0.006360 
#    y 0.000000 1.961850 0.000000 
#    z -0.006360 0.000000 1.893960 
# 
# From -- ./inp_files/10329.got.cif
#   From: 2010.05.17/outbox.cif.g08.bks.cpg/sg15_6_cif.got.tgz:10329.got - 2010.06.03 18:47:42.
