data_PCOD9304609
_publ_section_title
;
Structure prediction by ZEFSAII (Michael W. Deem and Ramdas Pophale) SiO2 
 PCOD9304609
Probable space group: C 2/C
;
_chemical_formula_sum "Si O2"
_cell_formula_units_Z 52
_cell_length_a 8.980795
_cell_length_b 24.571454
_cell_length_c 16.054945
_cell_angle_alpha 90.000000
_cell_angle_beta 38.815108
_cell_angle_gamma 90.000000
_cell_volume 2220.699963
_symmetry_space_group_name_H-M "C 2/C"
_symmetry_group_IT_number 15
_symmetry_cell_setting 'monoclinic'
loop_
_space_group_symop_operation_xyz
x,y,z
-x,y,1/2-z
-x,-y,-z
x,-y,1/2+z
1/2+x,1/2+y,z
1/2-x,1/2+y,1/2-z
1/2-x,1/2-y,-z
1/2+x,1/2-y,1/2+z
loop_
_atom_site_type_symbol
_atom_site_label
_atom_site_fract_x
_atom_site_fract_y
_atom_site_fract_z
Si Si1 0.413775 0.644297 0.993569
Si Si2 0.792043 0.289413 0.421792
Si Si3 0.572357 0.102717 0.549914
Si Si4 0.424385 0.439399 0.640203
Si Si5 0.614915 0.555709 0.790585
Si Si6 0.932245 0.635309 0.124290
Si Si7 0.000000 0.793092 0.750000
O O1 0.560069 0.694694 0.967734
O O2 0.533868 0.613684 0.863113
O O3 0.418181 0.596436 0.060040
O O4 0.141597 0.657465 0.090463
O O5 0.910863 0.346191 0.396749
O O6 0.000000 0.274342 0.250000
O O7 0.832768 0.221816 0.419284
O O8 0.399617 0.057692 0.661001
O O9 0.461627 0.122642 0.512008
O O10 0.837099 0.081402 0.417767
O O11 0.446149 0.503828 0.626418
O O12 0.185787 0.419910 0.790285
O O13 0.500000 0.546589 0.750000
O O14 0.712245 0.675587 0.203706
#
# Coordination Sequence:
#
# PCOD9304609 Si02
#       7
#     8   8   8   8   8   8   4
#     4  11  26  46  67 105 143 174 242 298 336 420
#     4  11  23  45  69  96 135 186 229 283 354 411
#     4  11  23  45  69  99 142 181 239 283 347 429
#     4  11  25  43  68  99 138 194 230 281 352 415
#     4  12  25  42  71 103 141 188 230 288 353 412
#     4  12  22  44  71 101 142 181 233 294 337 426
#     4  12  22  42  74 100 136 184 230 282 360 418
#
# _framework density 23.416039999999999
#
# number of rings (size 3 to 8) (size 9 to 14) (size 15 to 20)
#    0.000    0.615    4.615    3.692    2.154    3.692 
#    5.538    0.000    0.000    0.000    0.000    0.000 
#    0.000    0.000    0.000    0.000    0.000    0.000 
#
# Total GULP energy -145179.773060 kJ/mol
# GULP energy per Si atom -5583.837425 kJ/mol
# Density = 2.336274 g / cm^3
# Si number density = 23.416040 Si / 1000 Ang^3
#
#
#
# Elastic Constant Matrix: (Units=GPa)
#
#
# Indices 1 2 3 4 5 6 
#
# 1 136.1173 41.2978 47.5026 0.0000 -33.7290 0.0000
# 2 41.2978 113.5584 38.6320 0.0000 -18.7429 0.0000
# 3 47.5026 38.6320 78.6392 0.0000 -16.7781 0.0000
# 4 0.0000 0.0000 0.0000 51.8749 0.0000 2.6580
# 5 -33.7290 -18.7429 -16.7781 0.0000 43.1331 0.0000
# 6 0.0000 0.0000 0.0000 2.6580 0.0000 23.6169
#
#
#
# Elastic Compliance Matrix: (Units=1/GPa)
#
#
# Indices 1 2 3 4 5 6 
#
# 1 0.010886 -0.001387 -0.004588 0.000000 0.006126 0.000000
# 2 -0.001387 0.011071 -0.004150 0.000000 0.002112 0.000000
# 3 -0.004588 -0.004150 0.017858 0.000000 0.001556 0.000000
# 4 0.000000 0.000000 0.000000 0.019389 0.000000 -0.002182
# 5 0.006126 0.002112 0.001556 0.000000 0.029497 0.000000
# 6 0.000000 0.000000 0.000000 -0.002182 0.000000 0.042588
#
#
# Mechanical properties :
#
#
# Convention : Reuss Voigt Hill
#
# Bulk Modulus (GPa) = 51.11053 64.79777 57.95415
# Shear Modulus (GPa) = 31.63330 37.11713 34.37522
#
# Velocity S-wave (km/s) = 3.67948 3.98567 3.83563
# Velocity P-wave (km/s) = 6.31870 6.99380 6.66480
#
# Compressibility (1/GPa) = 0.01956544
#
# Stress axis : x y z
#
# Youngs Moduli (GPa) = 91.85804 90.32649 55.99680
#
# Poissons Ratio (x) = 0.12532 0.25689
# Poissons Ratio (y) = 0.12744 0.23239
# Poissons Ratio (z) = 0.42140 0.37487
#
# Static dielectric constant tensor:
#      x y z
#    x 1.945830 0.000000 0.267820 
#    y 0.000000 1.806700 0.000000 
#    z 0.267820 0.000000 2.449460 
# 
# From -- ./inp_files/193673.got.cif
#   From: 2010.05.17/outbox.cif.g08.bks.cpg/sg15_97_cif.got.tgz:193673.got - 2010.06.03 18:47:42.
