data_PCOD9304668
_publ_section_title
;
Structure prediction by ZEFSAII (Michael W. Deem and Ramdas Pophale) SiO2 
 PCOD9304668
Probable space group: C 2/C
;
_chemical_formula_sum "Si O2"
_cell_formula_units_Z 48
_cell_length_a 22.758207
_cell_length_b 13.245270
_cell_length_c 10.430690
_cell_angle_alpha 90.000000
_cell_angle_beta 137.940191
_cell_angle_gamma 90.000000
_cell_volume 2106.326804
_symmetry_space_group_name_H-M "C 2/C"
_symmetry_group_IT_number 15
_symmetry_cell_setting 'monoclinic'
loop_
_space_group_symop_operation_xyz
x,y,z
-x,y,1/2-z
-x,-y,-z
x,-y,1/2+z
1/2+x,1/2+y,z
1/2-x,1/2+y,1/2-z
1/2-x,1/2-y,-z
1/2+x,1/2-y,1/2+z
loop_
_atom_site_type_symbol
_atom_site_label
_atom_site_fract_x
_atom_site_fract_y
_atom_site_fract_z
Si Si1 0.359271 0.382783 0.511289
Si Si2 0.761073 0.676008 0.899173
Si Si3 0.561487 0.213189 0.460770
Si Si4 0.255224 0.052241 0.458314
Si Si5 0.067049 0.942796 0.515518
Si Si6 0.575530 0.820924 0.275636
O O1 0.328399 0.333133 0.327958
O O2 0.271218 0.417411 0.440741
O O3 0.412680 0.483979 0.570907
O O4 0.408851 0.298356 0.673115
O O5 0.780500 0.563812 0.982604
O O6 0.750000 0.750000 0.000000
O O7 0.839978 0.710382 0.935044
O O8 0.500000 0.167819 0.250000
O O9 0.535242 0.330529 0.435911
O O10 0.555618 0.164736 0.592626
O O11 0.164034 0.067533 0.235472
O O12 0.333724 0.123927 0.543667
O O13 0.000000 0.000000 0.500000
O O14 0.500000 0.854862 0.250000
#
# Coordination Sequence:
#
# PCOD9304668 Si02
#       6
#     8   8   8   8   8   8
#     4  11  23  45  73 105 143 193 249 306 372 455
#     4  11  26  46  73 107 144 191 241 312 387 446
#     4  12  27  46  68 109 152 187 249 319 373 445
#     4  11  24  47  74 103 144 196 248 305 370 460
#     4  11  25  41  72 111 146 185 244 311 383 446
#     4  12  26  48  75 104 146 205 256 301 373 458
#
# _framework density 22.788487
#
# number of rings (size 3 to 8) (size 9 to 14) (size 15 to 20)
#    0.000    0.667    3.333    3.500    9.333    2.000 
#    0.000    1.667    0.000    0.000    0.000    0.000 
#    0.000    0.000    0.000    0.000    0.000    0.000 
#
# Total GULP energy -134361.643659 kJ/mol
# GULP energy per Si atom -5598.401819 kJ/mol
# Density = 2.273662 g / cm^3
# Si number density = 22.788487 Si / 1000 Ang^3
#
#
#
# Elastic Constant Matrix: (Units=GPa)
#
#
# Indices 1 2 3 4 5 6 
#
# 1 160.2887 23.2322 42.0247 0.0000 12.6810 0.0000
# 2 23.2322 54.0390 11.0570 0.0000 -1.9090 0.0000
# 3 42.0247 11.0570 111.3226 0.0000 -9.4522 0.0000
# 4 0.0000 0.0000 0.0000 14.0732 0.0000 -1.4109
# 5 12.6810 -1.9090 -9.4522 0.0000 45.7362 0.0000
# 6 0.0000 0.0000 0.0000 -1.4109 0.0000 43.8106
#
#
#
# Elastic Compliance Matrix: (Units=1/GPa)
#
#
# Indices 1 2 3 4 5 6 
#
# 1 0.007609 -0.002791 -0.002834 0.000000 -0.002812 0.000000
# 2 -0.002791 0.019920 -0.000803 0.000000 0.001439 0.000000
# 3 -0.002834 -0.000803 0.010378 0.000000 0.002897 0.000000
# 4 0.000000 0.000000 0.000000 0.071287 0.000000 0.002296
# 5 -0.002812 0.001439 0.002897 0.000000 0.023303 0.000000
# 6 0.000000 0.000000 0.000000 0.002296 0.000000 0.022899
#
#
# Mechanical properties :
#
#
# Convention : Reuss Voigt Hill
#
# Bulk Modulus (GPa) = 39.91625 53.14199 46.52912
# Shear Modulus (GPa) = 28.31227 37.34644 32.82936
#
# Velocity S-wave (km/s) = 3.52858 4.05264 3.79966
# Velocity P-wave (km/s) = 5.84425 6.72821 6.30175
#
# Compressibility (1/GPa) = 0.02505245
#
# Stress axis : x y z
#
# Youngs Moduli (GPa) = 131.42954 50.20084 96.35365
#
# Poissons Ratio (x) = 0.14009 0.27305
# Poissons Ratio (y) = 0.36676 0.07736
# Poissons Ratio (z) = 0.37245 0.04031
#
# Static dielectric constant tensor:
#      x y z
#    x 1.867680 0.000000 -0.072050 
#    y 0.000000 1.822340 0.000000 
#    z -0.072050 0.000000 1.963750 
# 
# From -- ./inp_files/112995.got.cif
#   From: 2010.05.17/outbox.cif.g08.bks.cpg/sg15_57_cif.got.tgz:112995.got - 2010.06.03 18:47:42.
