data_PCOD9304641
_publ_section_title
;
Structure prediction by ZEFSAII (Michael W. Deem and Ramdas Pophale) SiO2 
 PCOD9304641
Probable space group: C 2/C
;
_chemical_formula_sum "Si O2"
_cell_formula_units_Z 52
_cell_length_a 8.943269
_cell_length_b 22.251777
_cell_length_c 16.815158
_cell_angle_alpha 90.000000
_cell_angle_beta 138.108928
_cell_angle_gamma 90.000000
_cell_volume 2234.364881
_symmetry_space_group_name_H-M "C 2/C"
_symmetry_group_IT_number 15
_symmetry_cell_setting 'monoclinic'
loop_
_space_group_symop_operation_xyz
x,y,z
-x,y,1/2-z
-x,-y,-z
x,-y,1/2+z
1/2+x,1/2+y,z
1/2-x,1/2+y,1/2-z
1/2-x,1/2-y,-z
1/2+x,1/2-y,1/2+z
loop_
_atom_site_type_symbol
_atom_site_label
_atom_site_fract_x
_atom_site_fract_y
_atom_site_fract_z
Si Si1 0.442494 0.794853 0.321095
Si Si2 0.960039 0.506712 0.390703
Si Si3 0.000000 0.047935 0.750000
Si Si4 0.949312 0.640105 0.136729
Si Si5 0.007640 0.862239 0.115883
Si Si6 0.080282 0.164951 0.193698
Si Si7 0.775204 0.098966 0.960179
O O1 0.500000 0.789446 0.250000
O O2 0.186459 0.817244 0.225954
O O3 0.490968 0.728688 0.372796
O O4 0.601873 0.847790 0.414555
O O5 0.697341 0.488979 0.284879
O O6 0.012316 0.572083 0.377832
O O7 0.000000 0.500000 0.500000
O O8 0.133387 0.460920 0.417965
O O9 0.918738 0.092133 0.647577
O O10 0.158088 0.675890 0.186141
O O11 0.000000 0.641472 0.250000
O O12 0.710167 0.663687 0.014200
O O13 0.146642 0.895087 0.100160
O O14 0.000000 0.151052 0.250000
O O15 0.991683 0.112181 0.101045
#
# Coordination Sequence:
#
# PCOD9304641 Si02
#       7
#     8   8   4   8   8   8   8
#     4   9  21  43  72  99 130 179 231 284 343 413
#     4  12  27  43  68 101 140 182 227 286 347 411
#     4  12  26  44  68 104 136 172 240 290 334 416
#     4  12  27  44  64 102 140 185 228 280 347 412
#     4  11  24  46  68 101 136 178 235 283 347 413
#     4  11  24  43  69 100 136 181 230 284 342 409
#     4  11  23  45  71  97 138 184 229 280 347 423
#
# _framework density 23.272832999999999
#
# number of rings (size 3 to 8) (size 9 to 14) (size 15 to 20)
#    0.000    0.923    4.615    1.385    5.385    1.231 
#    1.385    0.000    0.000    0.000    0.000    0.000 
#    0.000    0.000    0.000    0.000    0.000    0.000 
#
# Total GULP energy -145241.907959 kJ/mol
# GULP energy per Si atom -5586.227229 kJ/mol
# Density = 2.321986 g / cm^3
# Si number density = 23.272833 Si / 1000 Ang^3
#
#
#
# Elastic Constant Matrix: (Units=GPa)
#
#
# Indices 1 2 3 4 5 6 
#
# 1 74.8962 -14.1929 5.7378 0.0000 7.2780 0.0000
# 2 -14.1929 44.5957 -11.7720 0.0000 7.0569 0.0001
# 3 5.7378 -11.7720 96.5871 0.0000 22.3887 0.0002
# 4 0.0000 0.0000 0.0000 25.0635 0.0000 9.1026
# 5 7.2780 7.0569 22.3887 0.0000 44.0728 0.0000
# 6 0.0000 0.0001 0.0002 9.1026 0.0000 -51.3149
#
#
#
# Elastic Compliance Matrix: (Units=1/GPa)
#
#
# Indices 1 2 3 4 5 6 
#
# 1 0.014679 0.005407 0.000623 0.000000 -0.003606 0.000000
# 2 0.005407 0.026563 0.004658 0.000000 -0.007512 0.000000
# 3 0.000623 0.004658 0.012560 0.000000 -0.007229 0.000000
# 4 0.000000 0.000000 0.000000 0.037484 0.000000 0.006649
# 5 -0.003606 -0.007512 -0.007229 0.000000 0.028160 0.000000
# 6 0.000000 0.000000 0.000000 0.006649 0.000000 -0.018308
#
#
# Mechanical properties :
#
#
# Convention : Reuss Voigt Hill
#
# Bulk Modulus (GPa) = 13.30218 19.51387 16.40802
# Shear Modulus (GPa) = 47.70015 19.31804 33.50909
#
# Velocity S-wave (km/s) = 4.53217 2.88422 3.79864
# Velocity P-wave (km/s) = 5.75461 4.41527 5.12885
#
# Compressibility (1/GPa) = 0.07517566
#
# Stress axis : x y z
#
# Youngs Moduli (GPa) = 68.12401 37.64695 79.62016
#
# Poissons Ratio (x) = -0.20355 -0.04959
# Poissons Ratio (y) = -0.36833 -0.37083
# Poissons Ratio (z) = -0.04243 -0.17534
#
# Static dielectric constant tensor:
#      x y z
#    x 1.777610 0.000000 0.035770 
#    y 0.000000 1.840760 0.000000 
#    z 0.035770 0.000000 1.948830 
# 
# From -- ./inp_files/193771.got.cif
#   From: 2010.05.17/outbox.cif.g08.bks.cpg/sg15_97_cif.got.tgz:193771.got - 2010.06.03 18:47:42.
