data_PCOD9304573
_publ_section_title
;
Structure prediction by ZEFSAII (Michael W. Deem and Ramdas Pophale) SiO2 
 PCOD9304573
Probable space group: C 2/C
;
_chemical_formula_sum "Si O2"
_cell_formula_units_Z 32
_cell_length_a 12.905499
_cell_length_b 12.893380
_cell_length_c 11.880272
_cell_angle_alpha 90.000000
_cell_angle_beta 141.568320
_cell_angle_gamma 90.000000
_cell_volume 1228.756145
_symmetry_space_group_name_H-M "C 2/C"
_symmetry_group_IT_number 15
_symmetry_cell_setting 'monoclinic'
loop_
_space_group_symop_operation_xyz
x,y,z
-x,y,1/2-z
-x,-y,-z
x,-y,1/2+z
1/2+x,1/2+y,z
1/2-x,1/2+y,1/2-z
1/2-x,1/2-y,-z
1/2+x,1/2-y,1/2+z
loop_
_atom_site_type_symbol
_atom_site_label
_atom_site_fract_x
_atom_site_fract_y
_atom_site_fract_z
Si Si1 0.633172 0.189778 0.573788
Si Si2 0.890251 0.913699 0.467442
Si Si3 0.178686 0.105944 0.967214
Si Si4 0.085723 0.289200 0.424381
O O1 0.270763 0.351442 0.280418
O O2 0.672697 0.131222 0.491897
O O3 0.663843 0.307611 0.553616
O O4 0.460185 0.163904 0.492681
O O5 0.996257 0.825044 0.619643
O O6 0.798009 0.988331 0.475353
O O7 0.000000 0.000000 0.500000
O O8 0.000000 0.113596 0.750000
O O9 0.250000 0.250000 0.500000
O O10 0.000000 0.348757 0.250000
#
# Coordination Sequence:
#
# PCOD9304573 Si02
#       4
#     8   8   8   8
#     4  11  24  44  75 113 151 194 265 317 382 463
#     4  12  23  44  77 110 148 209 259 308 392 474
#     4  11  23  44  80 112 151 206 255 322 388 467
#     4  12  25  45  76 106 157 206 255 324 395 461
#
# _framework density 26.042594999999999
#
# number of rings (size 3 to 8) (size 9 to 14) (size 15 to 20)
#    0.000    0.500    7.500    0.750    0.000    0.000 
#    0.000    1.250   33.000    0.000    0.000    0.000 
#    0.000    0.000    0.000    0.000    0.000    0.000 
#
# Total GULP energy -89113.273662 kJ/mol
# GULP energy per Si atom -5569.579604 kJ/mol
# Density = 2.598332 g / cm^3
# Si number density = 26.042595 Si / 1000 Ang^3
#
#
#
# Elastic Constant Matrix: (Units=GPa)
#
#
# Indices 1 2 3 4 5 6 
#
# 1 247.7649 -13.4817 22.5741 0.0000 -19.5947 0.0000
# 2 -13.4817 103.2963 37.6449 0.0000 -18.3726 0.0000
# 3 22.5741 37.6449 113.0911 0.0000 -12.9131 0.0000
# 4 0.0000 0.0000 0.0000 45.5981 0.0000 -5.9867
# 5 -19.5947 -18.3726 -12.9131 0.0000 37.6723 0.0000
# 6 0.0000 0.0000 0.0000 -5.9867 0.0000 45.9566
#
#
#
# Elastic Compliance Matrix: (Units=1/GPa)
#
#
# Indices 1 2 3 4 5 6 
#
# 1 0.004419 0.001430 -0.001057 0.000000 0.002633 0.000000
# 2 0.001430 0.012187 -0.003725 0.000000 0.005411 0.000000
# 3 -0.001057 -0.003725 0.010431 0.000000 0.001209 0.000000
# 4 0.000000 0.000000 0.000000 0.022312 0.000000 0.002907
# 5 0.002633 0.005411 0.001209 0.000000 0.030968 0.000000
# 6 0.000000 0.000000 0.000000 0.002907 0.000000 0.022138
#
#
# Mechanical properties :
#
#
# Convention : Reuss Voigt Hill
#
# Bulk Modulus (GPa) = 49.17823 61.95855 55.56839
# Shear Modulus (GPa) = 43.12691 53.67305 48.39998
#
# Velocity S-wave (km/s) = 4.07383 4.54472 4.31570
# Velocity P-wave (km/s) = 6.40725 7.16814 6.79835
#
# Compressibility (1/GPa) = 0.02033420
#
# Stress axis : x y z
#
# Youngs Moduli (GPa) = 226.31978 82.05226 95.86473
#
# Poissons Ratio (x) = -0.11737 0.10137
# Poissons Ratio (y) = -0.32374 0.35705
# Poissons Ratio (z) = 0.23932 0.30560
#
# Static dielectric constant tensor:
#      x y z
#    x 2.297580 0.000000 0.052610 
#    y 0.000000 2.041830 0.000000 
#    z 0.052610 0.000000 2.174090 
# 
# From -- ./inp_files/84759.got.cif
#   From: 2010.05.17/outbox.cif.g08.bks.cpg/sg15_43_cif.got.tgz:84759.got - 2010.06.03 18:47:42.
