data_PCOD9304962
_publ_section_title
;
Structure prediction by ZEFSAII (Michael W. Deem and Ramdas Pophale) SiO2 
 PCOD9304962
Probable space group: C 2/C
;
_chemical_formula_sum "Si O2"
_cell_formula_units_Z 52
_cell_length_a 24.880579
_cell_length_b 5.271594
_cell_length_c 16.955734
_cell_angle_alpha 90.000000
_cell_angle_beta 74.781303
_cell_angle_gamma 90.000000
_cell_volume 2145.928460
_symmetry_space_group_name_H-M "C 2/C"
_symmetry_group_IT_number 15
_symmetry_cell_setting 'monoclinic'
loop_
_space_group_symop_operation_xyz
x,y,z
-x,y,1/2-z
-x,-y,-z
x,-y,1/2+z
1/2+x,1/2+y,z
1/2-x,1/2+y,1/2-z
1/2-x,1/2-y,-z
1/2+x,1/2-y,1/2+z
loop_
_atom_site_type_symbol
_atom_site_label
_atom_site_fract_x
_atom_site_fract_y
_atom_site_fract_z
Si Si1 0.885154 0.682596 0.825164
Si Si2 0.119308 0.534686 0.333916
Si Si3 0.094712 0.163090 0.479068
Si Si4 0.718341 0.342437 0.235018
Si Si5 0.000000 0.224287 0.250000
Si Si6 0.160629 0.822265 0.098213
Si Si7 0.519807 0.344050 0.386175
O O1 0.864149 0.646979 0.744642
O O2 0.853151 0.476149 0.889783
O O3 0.949336 0.615170 0.802967
O O4 0.881733 0.977018 0.846179
O O5 0.117784 0.390627 0.416633
O O6 0.160341 0.770029 0.301647
O O7 0.055125 0.605513 0.345321
O O8 0.148393 0.095706 0.512754
O O9 0.040855 0.224631 0.555510
O O10 0.062962 0.958847 0.435738
O O11 0.744059 0.598813 0.258702
O O12 0.710783 0.359374 0.142043
O O13 0.983241 0.043359 0.183393
#
# Coordination Sequence:
#
# PCOD9304962 Si02
#       7
#     8   8   8   8   4   8   8
#     4  11  24  39  65  99 137 185 239 273 327 406
#     4  11  25  42  72  99 142 185 236 287 348 416
#     4  11  25  42  65 106 153 187 221 279 357 423
#     4  11  25  48  77 102 129 177 249 304 350 406
#     4  12  20  38  62  96 136 192 242 270 316 412
#     4  11  25  45  70 101 139 181 229 296 346 417
#     4  11  25  42  65 105 151 193 228 276 339 426
#
# _framework density 24.231935
#
# number of rings (size 3 to 8) (size 9 to 14) (size 15 to 20)
#    0.000    0.923    3.077    4.154    6.462    0.615 
#    0.000    1.538    0.000    0.000    0.000    0.000 
#    0.000    0.000    0.000    0.000    0.000    0.000 
#
# Total GULP energy -144985.145719 kJ/mol
# GULP energy per Si atom -5576.351758 kJ/mol
# Density = 2.417678 g / cm^3
# Si number density = 24.231935 Si / 1000 Ang^3
#
#
#
# Elastic Constant Matrix: (Units=GPa)
#
#
# Indices 1 2 3 4 5 6 
#
# 1 88.8224 18.2846 18.5612 0.0000 39.2862 0.0000
# 2 18.2846 58.6584 22.3573 0.0000 14.6799 0.0000
# 3 18.5612 22.3573 76.1177 0.0000 32.8358 0.0000
# 4 0.0000 0.0000 0.0000 9.1656 0.0000 -4.5492
# 5 39.2862 14.6799 32.8358 0.0000 52.8591 0.0000
# 6 0.0000 0.0000 0.0000 -4.5492 0.0000 48.3893
#
#
#
# Elastic Compliance Matrix: (Units=1/GPa)
#
#
# Indices 1 2 3 4 5 6 
#
# 1 0.017386 -0.002962 0.002527 0.000000 -0.013669 0.000000
# 2 -0.002962 0.019946 -0.005049 0.000000 -0.000201 0.000000
# 3 0.002527 -0.005049 0.019411 0.000000 -0.012534 0.000000
# 4 0.000000 0.000000 0.000000 0.114444 0.000000 0.010759
# 5 -0.013669 -0.000201 -0.012534 0.000000 0.036919 0.000000
# 6 0.000000 0.000000 0.000000 0.010759 0.000000 0.021677
#
#
# Mechanical properties :
#
#
# Convention : Reuss Voigt Hill
#
# Bulk Modulus (GPa) = 21.84628 38.00056 29.92342
# Shear Modulus (GPa) = 19.53048 33.04248 26.28648
#
# Velocity S-wave (km/s) = 2.84206 3.69669 3.29718
# Velocity P-wave (km/s) = 4.45026 5.82553 5.18370
#
# Compressibility (1/GPa) = 0.04577439
#
# Stress axis : x y z
#
# Youngs Moduli (GPa) = 57.51855 50.13522 51.51607
#
# Poissons Ratio (x) = 0.14849 -0.13017
# Poissons Ratio (y) = 0.17036 0.26013
# Poissons Ratio (z) = -0.14534 0.25316
#
# Static dielectric constant tensor:
#      x y z
#    x 2.043800 0.000000 0.039740 
#    y 0.000000 1.941380 0.000000 
#    z 0.039740 0.000000 2.014310 
# 
# From -- ./inp_files/220876.got.cif
#   From: 2010.05.17/outbox.cif.g08.bks.cpg/sg15_111_cif.got.tgz:220876.got - 2010.06.03 18:47:42.
