data_PCOD9304224
_publ_section_title
;
Structure prediction by ZEFSAII (Michael W. Deem and Ramdas Pophale) SiO2 
 PCOD9304224
Probable space group: C 2/C
;
_chemical_formula_sum "Si O2"
_cell_formula_units_Z 44
_cell_length_a 14.430515
_cell_length_b 7.742528
_cell_length_c 19.906639
_cell_angle_alpha 90.000000
_cell_angle_beta 120.168195
_cell_angle_gamma 90.000000
_cell_volume 1922.890829
_symmetry_space_group_name_H-M "C 2/C"
_symmetry_group_IT_number 15
_symmetry_cell_setting 'monoclinic'
loop_
_space_group_symop_operation_xyz
x,y,z
-x,y,1/2-z
-x,-y,-z
x,-y,1/2+z
1/2+x,1/2+y,z
1/2-x,1/2+y,1/2-z
1/2-x,1/2-y,-z
1/2+x,1/2-y,1/2+z
loop_
_atom_site_type_symbol
_atom_site_label
_atom_site_fract_x
_atom_site_fract_y
_atom_site_fract_z
Si Si1 0.239610 0.853797 0.842195
Si Si2 0.872379 0.921434 0.304153
Si Si3 0.114826 0.915381 0.557151
Si Si4 0.609092 0.035920 0.501345
Si Si5 0.000000 0.729057 0.250000
Si Si6 0.150102 0.456991 0.366842
O O1 0.318545 0.734447 0.826179
O O2 0.298795 0.926664 0.928881
O O3 0.142400 0.729843 0.829859
O O4 0.201499 0.011467 0.782773
O O5 0.977635 0.846898 0.306694
O O6 0.884373 0.078864 0.361101
O O7 0.127946 0.737148 0.522724
O O8 0.222137 0.018576 0.576566
O O9 0.000000 0.000000 0.500000
O O10 0.598196 0.982718 0.420265
O O11 0.500000 0.000000 0.500000
O O12 0.899263 0.603669 0.199194
#
# Coordination Sequence:
#
# PCOD9304224 Si02
#       6
#     8   8   8   8   4   8
#     4  11  23  43  65  93 131 176 222 273 327 394
#     4  11  24  42  65  95 129 173 221 271 332 394
#     4  11  24  44  68  95 132 177 222 272 328 393
#     4  12  24  40  67  99 133 173 219 275 332 394
#     4  12  24  42  66  98 134 174 218 276 334 394
#     4  11  25  44  66  95 133 175 220 272 329 394
#
# _framework density 22.882213
#
# number of rings (size 3 to 8) (size 9 to 14) (size 15 to 20)
#    0.000    0.727    0.000    9.818    0.000    5.091 
#    0.000    0.000    0.000    0.000    0.000    0.000 
#    0.000    0.000    0.000    0.000    0.000    0.000 
#
# Total GULP energy -123048.232962 kJ/mol
# GULP energy per Si atom -5593.101498 kJ/mol
# Density = 2.283013 g / cm^3
# Si number density = 22.882213 Si / 1000 Ang^3
#
#
#
# Elastic Constant Matrix: (Units=GPa)
#
#
# Indices 1 2 3 4 5 6 
#
# 1 87.8190 11.4733 6.2365 0.0000 -16.6159 0.0000
# 2 11.4733 71.5240 -9.7750 0.0000 -13.4950 0.0000
# 3 6.2365 -9.7750 53.6216 0.0000 -19.2771 0.0000
# 4 0.0000 0.0000 0.0000 31.5502 0.0000 0.3455
# 5 -16.6159 -13.4950 -19.2771 0.0000 41.5932 0.0000
# 6 0.0000 0.0000 0.0000 0.3455 0.0000 38.6721
#
#
#
# Elastic Compliance Matrix: (Units=1/GPa)
#
#
# Indices 1 2 3 4 5 6 
#
# 1 0.012402 -0.001123 0.000004 0.000000 0.004592 0.000000
# 2 -0.001123 0.016389 0.005842 0.000000 0.007577 0.000000
# 3 0.000004 0.005842 0.024473 0.000000 0.013240 0.000000
# 4 0.000000 0.000000 0.000000 0.031699 0.000000 -0.000283
# 5 0.004592 0.007577 0.013240 0.000000 0.034471 0.000000
# 6 0.000000 0.000000 0.000000 -0.000283 0.000000 0.025861
#
#
# Mechanical properties :
#
#
# Convention : Reuss Voigt Hill
#
# Bulk Modulus (GPa) = 15.94594 25.42601 20.68598
# Shear Modulus (GPa) = 31.89727 36.03175 33.96451
#
# Velocity S-wave (km/s) = 3.73765 3.97251 3.85687
# Velocity P-wave (km/s) = 5.06069 5.67247 5.37529
#
# Compressibility (1/GPa) = 0.06271187
#
# Stress axis : x y z
#
# Youngs Moduli (GPa) = 80.63023 61.01510 40.86063
#
# Poissons Ratio (x) = 0.06849 -0.00015
# Poissons Ratio (y) = 0.09051 -0.23871
# Poissons Ratio (z) = -0.00030 -0.35646
#
# Static dielectric constant tensor:
#      x y z
#    x 1.861360 0.000000 0.033580 
#    y 0.000000 2.309450 0.000000 
#    z 0.033580 0.000000 1.875450 
# 
# From -- ./inp_files/202785.got.cif
#   From: 2010.05.17/outbox.cif.g08.bks.cpg/sg15_102_cif.got.tgz:202785.got - 2010.06.03 18:47:42.
