data_PCOD9304307
_publ_section_title
;
Structure prediction by ZEFSAII (Michael W. Deem and Ramdas Pophale) SiO2 
 PCOD9304307
Probable space group: C 2/C
;
_chemical_formula_sum "Si O2"
_cell_formula_units_Z 48
_cell_length_a 23.623984
_cell_length_b 8.693621
_cell_length_c 11.211300
_cell_angle_alpha 90.000000
_cell_angle_beta 67.472632
_cell_angle_gamma 90.000000
_cell_volume 2126.861343
_symmetry_space_group_name_H-M "C 2/C"
_symmetry_group_IT_number 15
_symmetry_cell_setting 'monoclinic'
loop_
_space_group_symop_operation_xyz
x,y,z
-x,y,1/2-z
-x,-y,-z
x,-y,1/2+z
1/2+x,1/2+y,z
1/2-x,1/2+y,1/2-z
1/2-x,1/2-y,-z
1/2+x,1/2-y,1/2+z
loop_
_atom_site_type_symbol
_atom_site_label
_atom_site_fract_x
_atom_site_fract_y
_atom_site_fract_z
Si Si1 0.065083 0.688613 0.706319
Si Si2 0.235730 0.933328 0.656076
Si Si3 0.131771 0.770471 0.875243
Si Si4 0.064202 0.936032 0.502338
Si Si5 0.833450 0.760979 0.215894
Si Si6 0.831088 0.548196 0.445293
O O1 0.076337 0.717240 0.836760
O O2 0.060129 0.844901 0.631011
O O3 0.119083 0.583382 0.613465
O O4 0.000000 0.606047 0.750000
O O5 0.181253 0.818557 0.734151
O O6 0.295894 0.854113 0.662158
O O7 0.209476 0.090460 0.731634
O O8 0.261760 0.979096 0.505078
O O9 0.109028 0.916061 0.970218
O O10 0.157299 0.642917 0.942722
O O11 0.101166 0.818546 0.385900
O O12 0.000000 0.000000 0.500000
O O13 0.838882 0.670133 0.334182
#
# Coordination Sequence:
#
# PCOD9304307 Si02
#       6
#     8   8   8   8   8   8
#     4  12  27  47  72 104 140 192 248 305 357 428
#     4  11  23  43  69 106 141 184 238 288 366 435
#     4  11  27  44  72 106 142 191 240 298 366 437
#     4  11  25  48  74  99 142 189 250 294 360 427
#     4  11  25  45  72 109 143 194 236 298 367 435
#     4  12  26  45  71 105 152 186 238 298 371 433
#
# _framework density 22.568466999999998
#
# number of rings (size 3 to 8) (size 9 to 14) (size 15 to 20)
#    0.000    0.667    5.000    1.500    4.667    4.000 
#    0.000    0.000    0.000    0.000    0.000    0.000 
#    0.000    0.000    0.000    0.000    0.000    0.000 
#
# Total GULP energy -134073.122525 kJ/mol
# GULP energy per Si atom -5586.380105 kJ/mol
# Density = 2.251710 g / cm^3
# Si number density = 22.568467 Si / 1000 Ang^3
#
#
#
# Elastic Constant Matrix: (Units=GPa)
#
#
# Indices 1 2 3 4 5 6 
#
# 1 73.3699 27.9306 11.6926 0.0000 -13.6380 0.0000
# 2 27.9306 93.5718 17.2794 0.0000 -8.9579 0.0000
# 3 11.6926 17.2794 62.7429 0.0000 -16.4808 0.0000
# 4 0.0000 0.0000 0.0000 23.6188 0.0000 -18.2931
# 5 -13.6380 -8.9579 -16.4808 0.0000 37.4041 0.0000
# 6 0.0000 0.0000 0.0000 -18.2931 0.0000 28.9889
#
#
#
# Elastic Compliance Matrix: (Units=1/GPa)
#
#
# Indices 1 2 3 4 5 6 
#
# 1 0.016217 -0.004283 -0.000632 0.000000 0.004609 0.000000
# 2 -0.004283 0.012466 -0.002557 0.000000 0.000297 0.000000
# 3 -0.000632 -0.002557 0.018703 0.000000 0.007398 0.000000
# 4 0.000000 0.000000 0.000000 0.082815 0.000000 0.052259
# 5 0.004609 0.000297 0.007398 0.000000 0.031746 0.000000
# 6 0.000000 0.000000 0.000000 0.052259 0.000000 0.067474
#
#
# Mechanical properties :
#
#
# Convention : Reuss Voigt Hill
#
# Bulk Modulus (GPa) = 30.82331 38.16553 34.49442
# Shear Modulus (GPa) = 19.59403 29.52116 24.55760
#
# Velocity S-wave (km/s) = 2.94973 3.62065 3.30227
# Velocity P-wave (km/s) = 5.02877 5.86741 5.46420
#
# Compressibility (1/GPa) = 0.03244298
#
# Stress axis : x y z
#
# Youngs Moduli (GPa) = 61.66209 80.21812 53.46649
#
# Poissons Ratio (x) = 0.34356 0.03380
# Poissons Ratio (y) = 0.26409 0.13671
# Poissons Ratio (z) = 0.03898 0.20511
#
# Static dielectric constant tensor:
#      x y z
#    x 1.845590 0.000000 -0.030900 
#    y 0.000000 1.837690 0.000000 
#    z -0.030900 0.000000 1.878070 
# 
# From -- ./inp_files/116712.got.cif
#   From: 2010.05.17/outbox.cif.g08.bks.cpg/sg15_59_cif.got.tgz:116712.got - 2010.06.03 18:47:42.
