data_PCOD9304667
_publ_section_title
;
Structure prediction by ZEFSAII (Michael W. Deem and Ramdas Pophale) SiO2 
 PCOD9304667
Probable space group: C 2/C
;
_chemical_formula_sum "Si O2"
_cell_formula_units_Z 48
_cell_length_a 15.557809
_cell_length_b 10.913192
_cell_length_c 11.790343
_cell_angle_alpha 90.000000
_cell_angle_beta 94.184816
_cell_angle_gamma 90.000000
_cell_volume 1996.490422
_symmetry_space_group_name_H-M "C 2/C"
_symmetry_group_IT_number 15
_symmetry_cell_setting 'monoclinic'
loop_
_space_group_symop_operation_xyz
x,y,z
-x,y,1/2-z
-x,-y,-z
x,-y,1/2+z
1/2+x,1/2+y,z
1/2-x,1/2+y,1/2-z
1/2-x,1/2-y,-z
1/2+x,1/2-y,1/2+z
loop_
_atom_site_type_symbol
_atom_site_label
_atom_site_fract_x
_atom_site_fract_y
_atom_site_fract_z
Si Si1 0.924512 0.374765 0.513780
Si Si2 0.641269 0.761212 0.203125
Si Si3 0.411853 0.729889 0.884611
Si Si4 0.670539 0.690249 0.860721
Si Si5 0.154453 0.985139 0.562130
Si Si6 0.162391 0.379629 0.438712
O O1 0.923150 0.340914 0.381017
O O2 0.840631 0.305527 0.557261
O O3 0.003487 0.306697 0.580516
O O4 0.091444 0.485954 0.454275
O O5 0.734794 0.814886 0.180398
O O6 0.641037 0.621438 0.155751
O O7 0.632645 0.789285 0.335006
O O8 0.390326 0.713328 0.751818
O O9 0.414676 0.592900 0.932960
O O10 0.336245 0.803401 0.944053
O O11 0.649972 0.576078 0.938249
O O12 0.247791 0.052303 0.580892
#
# Coordination Sequence:
#
# PCOD9304667 Si02
#       6
#     8   8   8   8   8   8
#     4  11  25  49  68 109 149 194 245 316 377 443
#     4  11  24  44  76 104 145 200 251 314 371 442
#     4  12  28  42  73 111 151 194 251 304 384 440
#     4  11  23  45  73 104 147 202 244 316 374 435
#     4  11  24  46  75 108 148 199 260 307 367 455
#     4  12  25  44  78 109 149 197 257 305 376 456
#
# _framework density 24.042190000000002
#
# number of rings (size 3 to 8) (size 9 to 14) (size 15 to 20)
#    0.000    0.667    5.000    2.500    4.667    3.333 
#    3.000    0.000    0.000    0.000    0.000    0.000 
#    0.000    0.000    0.000    0.000    0.000    0.000 
#
# Total GULP energy -134321.785115 kJ/mol
# GULP energy per Si atom -5596.741046 kJ/mol
# Density = 2.398747 g / cm^3
# Si number density = 24.042190 Si / 1000 Ang^3
#
#
#
# Elastic Constant Matrix: (Units=GPa)
#
#
# Indices 1 2 3 4 5 6 
#
# 1 72.8665 37.3974 24.3535 0.0000 12.4781 0.0000
# 2 37.3974 166.2953 62.9609 0.0000 -4.5848 0.0000
# 3 24.3535 62.9609 148.9057 0.0000 10.0985 0.0000
# 4 0.0000 0.0000 0.0000 31.4047 0.0000 0.2298
# 5 12.4781 -4.5848 10.0985 0.0000 36.8608 0.0000
# 6 0.0000 0.0000 0.0000 0.2298 0.0000 39.5628
#
#
#
# Elastic Compliance Matrix: (Units=1/GPa)
#
#
# Indices 1 2 3 4 5 6 
#
# 1 0.016890 -0.003654 -0.000814 0.000000 -0.005949 0.000000
# 2 -0.003654 0.008063 -0.003020 0.000000 0.003067 0.000000
# 3 -0.000814 -0.003020 0.008286 0.000000 -0.002370 0.000000
# 4 0.000000 0.000000 0.000000 0.031844 0.000000 -0.000185
# 5 -0.005949 0.003067 -0.002370 0.000000 0.030174 0.000000
# 6 0.000000 0.000000 0.000000 -0.000185 0.000000 0.025277
#
#
# Mechanical properties :
#
#
# Convention : Reuss Voigt Hill
#
# Bulk Modulus (GPa) = 54.75257 70.83235 62.79246
# Shear Modulus (GPa) = 35.31141 39.12270 37.21706
#
# Velocity S-wave (km/s) = 3.83655 4.03830 3.93872
# Velocity P-wave (km/s) = 6.51525 7.16027 6.84536
#
# Compressibility (1/GPa) = 0.01826398
#
# Stress axis : x y z
#
# Youngs Moduli (GPa) = 59.20684 124.02357 120.68181
#
# Poissons Ratio (x) = 0.45321 0.09821
# Poissons Ratio (y) = 0.21635 0.36441
# Poissons Ratio (z) = 0.04818 0.37450
#
# Static dielectric constant tensor:
#      x y z
#    x 2.086800 0.000000 0.037630 
#    y 0.000000 1.913380 0.000000 
#    z 0.037630 0.000000 1.929500 
# 
# From -- ./inp_files/103813.got.cif
#   From: 2010.05.17/outbox.cif.g08.bks.cpg/sg15_52_cif.got.tgz:103813.got - 2010.06.03 18:47:42.
