data_PCOD9304721
_publ_section_title
;
Structure prediction by ZEFSAII (Michael W. Deem and Ramdas Pophale) SiO2 
 PCOD9304721
Probable space group: C 2/C
;
_chemical_formula_sum "Si O2"
_cell_formula_units_Z 52
_cell_length_a 16.811414
_cell_length_b 18.932727
_cell_length_c 8.160558
_cell_angle_alpha 90.000000
_cell_angle_beta 102.669494
_cell_angle_gamma 90.000000
_cell_volume 2534.147969
_symmetry_space_group_name_H-M "C 2/C"
_symmetry_group_IT_number 15
_symmetry_cell_setting 'monoclinic'
loop_
_space_group_symop_operation_xyz
x,y,z
-x,y,1/2-z
-x,-y,-z
x,-y,1/2+z
1/2+x,1/2+y,z
1/2-x,1/2+y,1/2-z
1/2-x,1/2-y,-z
1/2+x,1/2-y,1/2+z
loop_
_atom_site_type_symbol
_atom_site_label
_atom_site_fract_x
_atom_site_fract_y
_atom_site_fract_z
Si Si1 0.772353 0.555995 0.773209
Si Si2 0.272128 0.406543 0.616425
Si Si3 0.500000 0.833167 0.750000
Si Si4 0.718353 0.206633 0.636661
Si Si5 0.594957 0.284260 0.781042
Si Si6 0.462305 0.928983 0.410165
Si Si7 0.649367 0.212167 0.130505
O O1 0.728648 0.483994 0.803964
O O2 0.741110 0.579583 0.581738
O O3 0.764779 0.624638 0.885895
O O4 0.869911 0.549724 0.821801
O O5 0.348822 0.354939 0.686100
O O6 0.192848 0.363595 0.642888
O O7 0.476268 0.876926 0.573188
O O8 0.420528 0.788937 0.765324
O O9 0.750000 0.250000 0.500000
O O10 0.629476 0.234881 0.649447
O O11 0.778447 0.232109 0.807939
O O12 0.500000 0.302540 0.750000
O O13 0.610744 0.234416 0.943389
O O14 0.500000 0.906357 0.250000
O O15 0.500000 0.000000 0.500000
#
# Coordination Sequence:
#
# PCOD9304721 Si02
#       7
#     8   8   4   8   8   8   8
#     4  12  24  42  67  95 138 191 227 286 358 428
#     4  11  25  45  68 100 139 187 236 287 360 436
#     4  12  26  38  66 106 140 180 234 298 354 424
#     4  11  24  43  70 101 132 182 240 288 354 431
#     4  11  25  48  75  98 138 189 238 306 365 415
#     4  12  25  40  59  99 147 187 226 279 358 440
#     4  11  23  46  66  99 139 179 236 292 352 436
#
# _framework density 20.519717
#
# number of rings (size 3 to 8) (size 9 to 14) (size 15 to 20)
#    0.000    0.615    3.846    4.615   10.769    0.000 
#    0.000    0.769    1.692    0.000    0.000    0.000 
#    0.000    0.000    0.000    0.000    0.000    0.000 
#
# Total GULP energy -145196.075275 kJ/mol
# GULP energy per Si atom -5584.464434 kJ/mol
# Density = 2.047301 g / cm^3
# Si number density = 20.519717 Si / 1000 Ang^3
#
#
#
# Elastic Constant Matrix: (Units=GPa)
#
#
# Indices 1 2 3 4 5 6 
#
# 1 129.5593 49.5876 32.3398 0.0000 -4.9191 0.0000
# 2 49.5876 141.9323 24.2314 0.0000 -4.4464 0.0000
# 3 32.3398 24.2314 91.2944 0.0000 -10.6335 0.0000
# 4 0.0000 0.0000 0.0000 28.4698 0.0000 -1.9257
# 5 -4.9191 -4.4464 -10.6335 0.0000 34.7825 0.0000
# 6 0.0000 0.0000 0.0000 -1.9257 0.0000 29.3457
#
#
#
# Elastic Compliance Matrix: (Units=1/GPa)
#
#
# Indices 1 2 3 4 5 6 
#
# 1 0.009462 -0.002861 -0.002571 0.000000 0.000187 0.000000
# 2 -0.002861 0.008249 -0.001141 0.000000 0.000301 0.000000
# 3 -0.002571 -0.001141 0.012555 0.000000 0.003329 0.000000
# 4 0.000000 0.000000 0.000000 0.035282 0.000000 0.002315
# 5 0.000187 0.000301 0.003329 0.000000 0.029833 0.000000
# 6 0.000000 0.000000 0.000000 0.002315 0.000000 0.034228
#
#
# Mechanical properties :
#
#
# Convention : Reuss Voigt Hill
#
# Bulk Modulus (GPa) = 58.40857 63.90039 61.15448
# Shear Modulus (GPa) = 33.67868 35.62810 34.65339
#
# Velocity S-wave (km/s) = 4.05567 4.17140 4.11394
# Velocity P-wave (km/s) = 7.10336 7.37627 7.24110
#
# Compressibility (1/GPa) = 0.01712078
#
# Stress axis : x y z
#
# Youngs Moduli (GPa) = 105.68210 121.22015 79.65087
#
# Poissons Ratio (x) = 0.34683 0.20476
# Poissons Ratio (y) = 0.30237 0.09088
# Poissons Ratio (z) = 0.27168 0.13831
#
# Static dielectric constant tensor:
#      x y z
#    x 1.698910 0.000000 -0.199120 
#    y 0.000000 1.777440 0.000000 
#    z -0.199120 0.000000 0.793250 
# 
# From -- ./inp_files/48615.got.cif
#   From: 2010.05.17/outbox.cif.g08.bks.cpg/sg15_25_cif.got.tgz:48615.got - 2010.06.03 18:47:42.
