data_PCOD9304997
_publ_section_title
;
Structure prediction by ZEFSAII (Michael W. Deem and Ramdas Pophale) SiO2 
 PCOD9304997
Probable space group: C 2/C
;
_chemical_formula_sum "Si O2"
_cell_formula_units_Z 44
_cell_length_a 10.891431
_cell_length_b 25.680828
_cell_length_c 8.271330
_cell_angle_alpha 90.000000
_cell_angle_beta 118.550251
_cell_angle_gamma 90.000000
_cell_volume 2032.173547
_symmetry_space_group_name_H-M "C 2/C"
_symmetry_group_IT_number 15
_symmetry_cell_setting 'monoclinic'
loop_
_space_group_symop_operation_xyz
x,y,z
-x,y,1/2-z
-x,-y,-z
x,-y,1/2+z
1/2+x,1/2+y,z
1/2-x,1/2+y,1/2-z
1/2-x,1/2-y,-z
1/2+x,1/2-y,1/2+z
loop_
_atom_site_type_symbol
_atom_site_label
_atom_site_fract_x
_atom_site_fract_y
_atom_site_fract_z
Si Si1 0.386223 0.312396 0.985159
Si Si2 0.844819 0.006922 0.825655
Si Si3 0.083125 0.304002 0.956885
Si Si4 0.500000 0.647002 0.250000
Si Si5 0.249998 0.576325 0.027581
Si Si6 0.000000 0.907304 0.250000
Si Si7 0.000000 0.353265 0.250000
O O1 0.241860 0.308774 0.992785
O O2 0.397703 0.319233 0.799379
O O3 0.459469 0.257037 0.061297
O O4 0.454037 0.366018 0.086998
O O5 0.782575 0.954328 0.713540
O O6 0.874365 0.053644 0.717185
O O7 0.743724 0.030363 0.894077
O O8 0.000000 0.000000 0.000000
O O9 0.000000 0.328094 0.750000
O O10 0.063935 0.324139 0.130033
O O11 0.389873 0.610002 0.089739
O O12 0.118949 0.612389 0.912375
#
# Coordination Sequence:
#
# PCOD9304997 Si02
#       7
#     8   8   8   4   8   4   4
#     4  11  24  40  72 109 135 187 249 302 362 438
#     4  12  21  40  70 102 140 179 243 313 357 427
#     4  11  25  49  69 103 152 198 243 297 370 450
#     4  12  22  40  74 108 136 182 252 306 368 426
#     4  12  25  44  69 107 140 193 246 299 378 439
#     4  12  19  38  66  99 137 174 226 313 356 406
#     4  12  29  50  72 103 159 204 242 299 372 452
#
# _framework density 21.651692000000001
#
# number of rings (size 3 to 8) (size 9 to 14) (size 15 to 20)
#    0.000    0.364    6.364    2.727    0.000    0.727 
#    3.273    4.545    0.000    0.000    0.000    0.000 
#    0.000    0.000    0.000    0.000    0.000    0.000 
#
# Total GULP energy -122502.894197 kJ/mol
# GULP energy per Si atom -5568.313373 kJ/mol
# Density = 2.160241 g / cm^3
# Si number density = 21.651692 Si / 1000 Ang^3
#
#
#
# Elastic Constant Matrix: (Units=GPa)
#
#
# Indices 1 2 3 4 5 6 
#
# 1 86.1425 36.5460 44.1237 0.0000 -21.2878 0.0000
# 2 36.5460 101.8153 50.9701 0.0000 -4.8800 0.0000
# 3 44.1237 50.9701 101.4281 0.0000 -15.1321 0.0000
# 4 0.0000 0.0000 0.0000 24.4301 0.0000 4.0745
# 5 -21.2878 -4.8800 -15.1321 0.0000 41.5757 0.0000
# 6 0.0000 0.0000 0.0000 4.0745 0.0000 13.1965
#
#
#
# Elastic Compliance Matrix: (Units=1/GPa)
#
#
# Indices 1 2 3 4 5 6 
#
# 1 0.017143 -0.003471 -0.004721 0.000000 0.006652 0.000000
# 2 -0.003471 0.013859 -0.005791 0.000000 -0.002258 0.000000
# 3 -0.004721 -0.005791 0.015186 0.000000 0.002430 0.000000
# 4 0.000000 0.000000 0.000000 0.043155 0.000000 -0.013324
# 5 0.006652 -0.002258 0.002430 0.000000 0.028078 0.000000
# 6 0.000000 0.000000 0.000000 -0.013324 0.000000 0.079892
#
#
# Mechanical properties :
#
#
# Convention : Reuss Voigt Hill
#
# Bulk Modulus (GPa) = 54.88211 61.40729 58.14470
# Shear Modulus (GPa) = 21.61201 26.35688 23.98445
#
# Velocity S-wave (km/s) = 3.16281 3.49279 3.33188
# Velocity P-wave (km/s) = 6.22419 6.68499 6.45870
#
# Compressibility (1/GPa) = 0.01822087
#
# Stress axis : x y z
#
# Youngs Moduli (GPa) = 58.33143 72.15751 65.85170
#
# Poissons Ratio (x) = 0.25048 0.31088
# Poissons Ratio (y) = 0.20249 0.38135
# Poissons Ratio (z) = 0.27538 0.41787
#
# Static dielectric constant tensor:
#      x y z
#    x 1.815990 0.000000 -0.074470 
#    y 0.000000 1.805950 0.000000 
#    z -0.074470 0.000000 1.954380 
# 
# From -- ./inp_files/32781.got.cif
#   From: 2010.05.17/outbox.cif.g08.bks.cpg/sg15_17_cif.got.tgz:32781.got - 2010.06.03 18:47:42.
