data_PCOD9304640
_publ_section_title
;
Structure prediction by ZEFSAII (Michael W. Deem and Ramdas Pophale) SiO2 
 PCOD9304640
Probable space group: C 2/C
;
_chemical_formula_sum "Si O2"
_cell_formula_units_Z 36
_cell_length_a 6.246019
_cell_length_b 29.490888
_cell_length_c 11.970001
_cell_angle_alpha 90.000000
_cell_angle_beta 54.552144
_cell_angle_gamma 90.000000
_cell_volume 1796.193104
_symmetry_space_group_name_H-M "C 2/C"
_symmetry_group_IT_number 15
_symmetry_cell_setting 'monoclinic'
loop_
_space_group_symop_operation_xyz
x,y,z
-x,y,1/2-z
-x,-y,-z
x,-y,1/2+z
1/2+x,1/2+y,z
1/2-x,1/2+y,1/2-z
1/2-x,1/2-y,-z
1/2+x,1/2-y,1/2+z
loop_
_atom_site_type_symbol
_atom_site_label
_atom_site_fract_x
_atom_site_fract_y
_atom_site_fract_z
Si Si1 0.227226 0.783466 0.398156
Si Si2 0.209919 0.061694 0.370126
Si Si3 0.930202 0.162526 0.141386
Si Si4 0.691153 0.485862 0.092076
Si Si5 0.000000 0.260934 0.750000
O O1 0.500000 0.785705 0.250000
O O2 0.250000 0.750000 0.500000
O O3 0.157011 0.830525 0.480897
O O4 0.035661 0.767063 0.354700
O O5 0.500000 0.043370 0.250000
O O6 0.187419 0.112671 0.334888
O O7 0.188764 0.055943 0.507969
O O8 0.972452 0.030456 0.398025
O O9 0.740175 0.203992 0.167845
O O10 0.000000 0.168917 0.250000
O O11 0.500000 0.471353 0.250000
O O12 0.000000 0.500000 0.000000
#
# Coordination Sequence:
#
# PCOD9304640 Si02
#       5
#     8   8   8   8   4
#     4  12  24  44  64  98 135 181 232 287 346 413
#     4  11  24  42  69 102 131 180 232 279 350 425
#     4  12  25  43  68  98 134 178 232 284 340 417
#     4  11  23  45  71  97 138 177 223 284 354 421
#     4  12  22  42  74  88 136 176 232 278 350 396
#
# _framework density 20.042389
#
# number of rings (size 3 to 8) (size 9 to 14) (size 15 to 20)
#    0.000    0.444    7.778    1.333    0.000    0.000 
#    6.000    0.000    0.000    0.000    0.000    0.000 
#    0.000    0.000    0.000    0.000    0.000    0.000 
#
# Total GULP energy -100223.080581 kJ/mol
# GULP energy per Si atom -5567.948921 kJ/mol
# Density = 1.999677 g / cm^3
# Si number density = 20.042389 Si / 1000 Ang^3
#
#
#
# Elastic Constant Matrix: (Units=GPa)
#
#
# Indices 1 2 3 4 5 6 
#
# 1 127.5787 35.6610 66.5593 0.0000 -2.1889 0.0000
# 2 35.6610 44.7100 14.3081 0.0000 6.4125 0.0000
# 3 66.5593 14.3081 181.2296 0.0000 5.5097 0.0000
# 4 0.0000 0.0000 0.0000 27.9238 0.0000 -3.8197
# 5 -2.1889 6.4125 5.5097 0.0000 49.0213 0.0000
# 6 0.0000 0.0000 0.0000 -3.8197 0.0000 15.1883
#
#
#
# Elastic Compliance Matrix: (Units=1/GPa)
#
#
# Indices 1 2 3 4 5 6 
#
# 1 0.012429 -0.008969 -0.003923 0.000000 0.002169 0.000000
# 2 -0.008969 0.029810 0.001075 0.000000 -0.004421 0.000000
# 3 -0.003923 0.001075 0.006907 0.000000 -0.001092 0.000000
# 4 0.000000 0.000000 0.000000 0.037088 0.000000 0.009327
# 5 0.002169 -0.004421 -0.001092 0.000000 0.021197 0.000000
# 6 0.000000 0.000000 0.000000 0.009327 0.000000 0.068186
#
#
# Mechanical properties :
#
#
# Convention : Reuss Voigt Hill
#
# Bulk Modulus (GPa) = 39.19659 65.17504 52.18582
# Shear Modulus (GPa) = 24.06683 34.22602 29.14643
#
# Velocity S-wave (km/s) = 3.46901 4.13689 3.81759
# Velocity P-wave (km/s) = 5.97032 7.44364 6.74731
#
# Compressibility (1/GPa) = 0.02551242
#
# Stress axis : x y z
#
# Youngs Moduli (GPa) = 80.45635 33.54537 144.78442
#
# Poissons Ratio (x) = 0.30088 0.56793
# Poissons Ratio (y) = 0.72164 -0.15564
# Poissons Ratio (z) = 0.31560 -0.03606
#
# Static dielectric constant tensor:
#      x y z
#    x 1.835340 0.000000 -0.075350 
#    y 0.000000 1.684850 0.000000 
#    z -0.075350 0.000000 1.991440 
# 
# From -- ./inp_files/73550.got.cif
#   From: 2010.05.17/outbox.cif.g08.bks.cpg/sg15_37_cif.got.tgz:73550.got - 2010.06.03 18:47:42.
