data_PCOD9304453
_publ_section_title
;
Structure prediction by ZEFSAII (Michael W. Deem and Ramdas Pophale) SiO2 
 PCOD9304453
Probable space group: C 2/C
;
_chemical_formula_sum "Si O2"
_cell_formula_units_Z 56
_cell_length_a 16.740136
_cell_length_b 17.055245
_cell_length_c 9.790004
_cell_angle_alpha 90.000000
_cell_angle_beta 102.741899
_cell_angle_gamma 90.000000
_cell_volume 2726.281976
_symmetry_space_group_name_H-M "C 2/C"
_symmetry_group_IT_number 15
_symmetry_cell_setting 'monoclinic'
loop_
_space_group_symop_operation_xyz
x,y,z
-x,y,1/2-z
-x,-y,-z
x,-y,1/2+z
1/2+x,1/2+y,z
1/2-x,1/2+y,1/2-z
1/2-x,1/2-y,-z
1/2+x,1/2-y,1/2+z
loop_
_atom_site_type_symbol
_atom_site_label
_atom_site_fract_x
_atom_site_fract_y
_atom_site_fract_z
Si Si1 0.139580 0.080046 0.890844
Si Si2 0.846908 0.921958 0.432005
Si Si3 0.057057 0.508814 0.390598
Si Si4 0.836843 0.361645 0.159479
Si Si5 0.818917 0.641474 0.977312
Si Si6 0.943596 0.221921 0.097931
Si Si7 0.444135 0.738296 0.601438
O O1 0.141123 0.066156 0.727104
O O2 0.224912 0.121334 0.964354
O O3 0.072055 0.145208 0.900480
O O4 0.134532 0.000488 0.975408
O O5 0.752841 0.892763 0.418499
O O6 0.904854 0.853544 0.510957
O O7 0.096820 0.427834 0.354330
O O8 0.129596 0.567265 0.453120
O O9 0.000000 0.541560 0.250000
O O10 0.000000 0.500000 0.500000
O O11 0.831668 0.350059 0.320016
O O12 0.870534 0.281353 0.108203
O O13 0.858398 0.715730 0.067673
O O14 0.000000 0.202870 0.250000
O O15 0.005293 0.261292 0.013386
O O16 0.500000 0.759538 0.750000
#
# Coordination Sequence:
#
# PCOD9304453 Si02
#       7
#     8   8   8   8   8   8   8
#     4  11  26  47  70 100 137 181 230 277 337 406
#     4  11  26  47  71 100 136 181 231 276 337 407
#     4  12  22  37  63 100 136 174 218 271 334 403
#     4  11  23  45  67 100 138 174 228 272 339 410
#     4  11  23  44  68  99 137 177 224 277 337 406
#     4  12  25  46  72 100 135 183 227 281 341 398
#     4  12  25  47  67 102 139 175 232 286 335 394
#
# _framework density 20.540794000000002
#
# number of rings (size 3 to 8) (size 9 to 14) (size 15 to 20)
#    0.000    0.571    5.714    2.571    2.000    1.143 
#    2.571    0.000    0.000    0.000    0.000    0.000 
#    0.000    0.000    0.000    0.000    0.000    0.000 
#
# Total GULP energy -156602.806983 kJ/mol
# GULP energy per Si atom -5592.957392 kJ/mol
# Density = 2.049404 g / cm^3
# Si number density = 20.540794 Si / 1000 Ang^3
#
#
#
# Elastic Constant Matrix: (Units=GPa)
#
#
# Indices 1 2 3 4 5 6 
#
# 1 37.2656 1.0087 1.7770 0.0000 -0.7915 0.0000
# 2 1.0087 104.2270 9.8883 0.0000 12.4060 0.0000
# 3 1.7770 9.8883 85.8676 0.0000 17.4521 0.0000
# 4 0.0000 0.0000 0.0000 19.9634 0.0000 1.6313
# 5 -0.7915 12.4060 17.4521 0.0000 22.1788 0.0000
# 6 0.0000 0.0000 0.0000 1.6313 0.0000 37.9040
#
#
#
# Elastic Compliance Matrix: (Units=1/GPa)
#
#
# Indices 1 2 3 4 5 6 
#
# 1 0.026928 -0.000401 -0.000895 0.000000 0.001889 0.000000
# 2 -0.000401 0.010285 -0.000005 0.000000 -0.005764 0.000000
# 3 -0.000895 -0.000005 0.013893 0.000000 -0.010961 0.000000
# 4 0.000000 0.000000 0.000000 0.050268 0.000000 -0.002163
# 5 0.001889 -0.005764 -0.010961 0.000000 0.057005 0.000000
# 6 0.000000 0.000000 0.000000 -0.002163 0.000000 0.026476
#
#
# Mechanical properties :
#
#
# Convention : Reuss Voigt Hill
#
# Bulk Modulus (GPa) = 20.61653 28.07869 24.34761
# Shear Modulus (GPa) = 24.55516 30.32165 27.43841
#
# Velocity S-wave (km/s) = 3.46126 3.84626 3.65883
# Velocity P-wave (km/s) = 5.10219 5.78138 5.45237
#
# Compressibility (1/GPa) = 0.04850476
#
# Stress axis : x y z
#
# Youngs Moduli (GPa) = 37.13594 97.23095 71.98029
#
# Poissons Ratio (x) = 0.03895 0.06443
# Poissons Ratio (y) = 0.01488 0.00034
# Poissons Ratio (z) = 0.03324 0.00045
#
# Static dielectric constant tensor:
#      x y z
#    x 1.710170 0.000000 0.010050 
#    y 0.000000 1.752640 0.000000 
#    z 0.010050 0.000000 1.704650 
# 
# From -- ./inp_files/49163.got.cif
#   From: 2010.05.17/outbox.cif.g08.bks.cpg/sg15_25_cif.got.tgz:49163.got - 2010.06.03 18:47:42.
