data_PCOD9304956
_publ_section_title
;
Structure prediction by ZEFSAII (Michael W. Deem and Ramdas Pophale) SiO2 
 PCOD9304956
Probable space group: C 2/C
;
_chemical_formula_sum "Si O2"
_cell_formula_units_Z 56
_cell_length_a 4.959750
_cell_length_b 17.846650
_cell_length_c 28.165965
_cell_angle_alpha 90.000000
_cell_angle_beta 75.757795
_cell_angle_gamma 90.000000
_cell_volume 2416.481002
_symmetry_space_group_name_H-M "C 2/C"
_symmetry_group_IT_number 15
_symmetry_cell_setting 'monoclinic'
loop_
_space_group_symop_operation_xyz
x,y,z
-x,y,1/2-z
-x,-y,-z
x,-y,1/2+z
1/2+x,1/2+y,z
1/2-x,1/2+y,1/2-z
1/2-x,1/2-y,-z
1/2+x,1/2-y,1/2+z
loop_
_atom_site_type_symbol
_atom_site_label
_atom_site_fract_x
_atom_site_fract_y
_atom_site_fract_z
Si Si1 0.891793 0.945124 0.366488
Si Si2 0.178130 0.062252 0.520276
Si Si3 0.698666 0.718765 0.283032
Si Si4 0.339863 0.402611 0.634679
Si Si5 0.419709 0.848508 0.354313
Si Si6 0.652780 0.716189 0.954575
Si Si7 0.434171 0.126297 0.069964
O O1 0.112213 0.877105 0.355311
O O2 0.800647 0.956790 0.425253
O O3 0.624228 0.919264 0.349363
O O4 0.056368 0.020168 0.346489
O O5 0.462324 0.081514 0.480636
O O6 0.018853 0.141754 0.527278
O O7 0.000000 0.000000 0.500000
O O8 0.500000 0.688765 0.250000
O O9 0.733383 0.657355 0.322442
O O10 0.541098 0.789424 0.312502
O O11 0.000000 0.739402 0.250000
O O12 0.089303 0.409610 0.608334
O O13 0.606020 0.375041 0.592738
O O14 0.391496 0.810073 0.407486
O O15 0.489752 0.785496 0.937288
O O16 0.750000 0.750000 0.000000
#
# Coordination Sequence:
#
# PCOD9304956 Si02
#       7
#     8   8   8   8   8   8   8
#     4  11  25  45  68 104 147 191 234 280 353 416
#     4  11  24  39  63 103 149 195 241 279 330 416
#     4  12  27  50  78 108 133 177 239 302 373 437
#     4  12  26  45  74 101 142 188 233 301 363 424
#     4  11  25  46  72 102 140 181 236 297 348 424
#     4  11  24  42  66 103 144 192 243 283 350 416
#     4  12  24  42  68 101 146 194 244 288 348 409
#
# _framework density 23.174194
#
# number of rings (size 3 to 8) (size 9 to 14) (size 15 to 20)
#    0.000    0.571    2.857    4.714    6.000    1.714 
#    0.000    4.286    0.000    0.000    0.000    0.000 
#    0.000    0.000    0.000    0.000    0.000    0.000 
#
# Total GULP energy -156960.552989 kJ/mol
# GULP energy per Si atom -5605.734035 kJ/mol
# Density = 2.312145 g / cm^3
# Si number density = 23.174194 Si / 1000 Ang^3
#
#
#
# Elastic Constant Matrix: (Units=GPa)
#
#
# Indices 1 2 3 4 5 6 
#
# 1 73.2666 -5.6092 18.5037 0.0000 -13.0010 0.0000
# 2 -5.6092 104.7054 14.8064 0.0000 -19.6334 0.0000
# 3 18.5037 14.8064 90.1634 0.0000 -29.4293 0.0000
# 4 0.0000 0.0000 0.0000 9.7411 0.0000 0.4242
# 5 -13.0010 -19.6334 -29.4293 0.0000 37.2752 0.0000
# 6 0.0000 0.0000 0.0000 0.4242 0.0000 42.2311
#
#
#
# Elastic Compliance Matrix: (Units=1/GPa)
#
#
# Indices 1 2 3 4 5 6 
#
# 1 0.015130 0.001984 -0.001842 0.000000 0.004868 0.000000
# 2 0.001984 0.010858 -0.000132 0.000000 0.006307 0.000000
# 3 -0.001842 -0.000132 0.015167 0.000000 0.011263 0.000000
# 4 0.000000 0.000000 0.000000 0.102702 0.000000 -0.001032
# 5 0.004868 0.006307 0.011263 0.000000 0.040739 0.000000
# 6 0.000000 0.000000 0.000000 -0.001032 0.000000 0.023690
#
#
# Mechanical properties :
#
#
# Convention : Reuss Voigt Hill
#
# Bulk Modulus (GPa) = 24.28666 35.94859 30.11762
# Shear Modulus (GPa) = 22.52353 33.87846 28.20100
#
# Velocity S-wave (km/s) = 3.12095 3.82763 3.49221
# Velocity P-wave (km/s) = 4.84664 5.92287 5.41158
#
# Compressibility (1/GPa) = 0.04117487
#
# Stress axis : x y z
#
# Youngs Moduli (GPa) = 66.09568 92.09679 65.93391
#
# Poissons Ratio (x) = -0.18269 0.12145
# Poissons Ratio (y) = -0.13111 0.00867
# Poissons Ratio (z) = 0.12174 0.01211
#
# Static dielectric constant tensor:
#      x y z
#    x 1.870320 0.000000 0.004590 
#    y 0.000000 1.924070 0.000000 
#    z 0.004590 0.000000 1.839100 
# 
# From -- ./inp_files/286014.got.cif
#   From: 2010.05.17/outbox.cif.g08.bks.cpg/sg15_144_cif.got.tgz:286014.got - 2010.06.03 18:47:42.
