data_PCOD9304021
_publ_section_title
;
Structure prediction by ZEFSAII (Michael W. Deem and Ramdas Pophale) SiO2 
 PCOD9304021
Probable space group: C 2/C
;
_chemical_formula_sum "Si O2"
_cell_formula_units_Z 40
_cell_length_a 12.036680
_cell_length_b 14.077599
_cell_length_c 14.397485
_cell_angle_alpha 90.000000
_cell_angle_beta 146.050829
_cell_angle_gamma 90.000000
_cell_volume 1362.422625
_symmetry_space_group_name_H-M "C 2/C"
_symmetry_group_IT_number 15
_symmetry_cell_setting 'monoclinic'
loop_
_space_group_symop_operation_xyz
x,y,z
-x,y,1/2-z
-x,-y,-z
x,-y,1/2+z
1/2+x,1/2+y,z
1/2-x,1/2+y,1/2-z
1/2-x,1/2-y,-z
1/2+x,1/2-y,1/2+z
loop_
_atom_site_type_symbol
_atom_site_label
_atom_site_fract_x
_atom_site_fract_y
_atom_site_fract_z
Si Si1 0.287323 0.581462 0.091376
Si Si2 0.226898 0.911182 0.634402
Si Si3 0.016483 0.797715 0.620747
Si Si4 0.670846 0.148510 0.482387
Si Si5 0.143148 0.589995 0.670444
O O1 0.500000 0.528778 0.250000
O O2 0.315425 0.654774 0.197417
O O3 0.320742 0.650291 0.025647
O O4 0.257645 0.425710 0.965163
O O5 0.055187 0.838850 0.545572
O O6 0.220541 0.010533 0.685811
O O7 0.433060 0.858166 0.804195
O O8 0.425215 0.961237 0.031595
O O9 0.070623 0.688484 0.666246
O O10 0.750000 0.250000 0.500000
O O11 0.719552 0.126496 0.623324
#
# Coordination Sequence:
#
# PCOD9304021 Si02
#       5
#     8   8   8   8   8
#     4   8  20  36  67  99 138 180 246 294 363 433
#     4  11  24  42  71 110 141 193 255 285 377 453
#     4   9  20  40  66 105 139 185 249 298 357 436
#     4  11  23  41  71 105 146 191 241 298 369 437
#     4  12  21  42  77  99 151 198 233 319 361 431
#
# _framework density 29.359468
#
# number of rings (size 3 to 8) (size 9 to 14) (size 15 to 20)
#    1.200    0.400    4.000    1.200    0.000    3.200 
#    0.000    2.000    4.400   15.600    0.000    0.000 
#    0.000    0.000    0.000    0.000    0.000    0.000 
#
# Total GULP energy -111815.991224 kJ/mol
# GULP energy per Si atom -5590.799561 kJ/mol
# Density = 2.929264 g / cm^3
# Si number density = 29.359468 Si / 1000 Ang^3
#
#
#
# Elastic Constant Matrix: (Units=GPa)
#
#
# Indices 1 2 3 4 5 6 
#
# 1 244.1331 43.2660 34.8876 0.0020 -2.2879 0.0004
# 2 43.2660 149.5804 44.8054 0.0052 23.0238 0.0020
# 3 34.8876 44.8054 72.9526 0.0073 -2.6947 0.0030
# 4 0.0020 0.0052 0.0073 38.2215 0.0026 7.5572
# 5 -2.2879 23.0238 -2.6947 0.0026 33.7915 0.0007
# 6 0.0004 0.0020 0.0030 7.5572 0.0007 53.3050
#
#
#
# Elastic Compliance Matrix: (Units=1/GPa)
#
#
# Indices 1 2 3 4 5 6 
#
# 1 0.004494 -0.000975 -0.001519 0.000000 0.000848 0.000000
# 2 -0.000975 0.009828 -0.005837 0.000000 -0.007228 0.000000
# 3 -0.001519 -0.005837 0.018215 -0.000003 0.005327 0.000000
# 4 0.000000 0.000000 -0.000003 0.026918 -0.000002 -0.003816
# 5 0.000848 -0.007228 0.005327 -0.000002 0.035000 0.000000
# 6 0.000000 0.000000 0.000000 -0.003816 0.000000 0.019301
#
#
# Mechanical properties :
#
#
# Convention : Reuss Voigt Hill
#
# Bulk Modulus (GPa) = 62.98902 79.17601 71.08251
# Shear Modulus (GPa) = 36.84300 47.97741 42.41020
#
# Velocity S-wave (km/s) = 3.54629 4.04683 3.80480
# Velocity P-wave (km/s) = 6.18621 6.99015 6.60043
#
# Compressibility (1/GPa) = 0.01587578
#
# Stress axis : x y z
#
# Youngs Moduli (GPa) = 222.52025 101.74523 54.89855
#
# Poissons Ratio (x) = 0.09925 0.08337
# Poissons Ratio (y) = 0.21706 0.32044
# Poissons Ratio (z) = 0.33794 0.59387
#
# Static dielectric constant tensor:
#      x y z
#    x 2.357840 0.000000 -0.111270 
#    y 0.000000 2.487890 0.000000 
#    z -0.111270 0.000000 2.375650 
# 
# From -- ./inp_files/243520.got.cif
#   From: 2010.05.17/outbox.cif.g08.bks.cpg/sg15_122_cif.got.tgz:243520.got - 2010.06.03 18:47:42.
