data_PCOD9304082
_publ_section_title
;
Structure prediction by ZEFSAII (Michael W. Deem and Ramdas Pophale) SiO2 
 PCOD9304082
Probable space group: C 2/C
;
_chemical_formula_sum "Si O2"
_cell_formula_units_Z 64
_cell_length_a 26.340133
_cell_length_b 12.300523
_cell_length_c 18.402663
_cell_angle_alpha 90.000000
_cell_angle_beta 147.346327
_cell_angle_gamma 90.000000
_cell_volume 3217.079144
_symmetry_space_group_name_H-M "C 2/C"
_symmetry_group_IT_number 15
_symmetry_cell_setting 'monoclinic'
loop_
_space_group_symop_operation_xyz
x,y,z
-x,y,1/2-z
-x,-y,-z
x,-y,1/2+z
1/2+x,1/2+y,z
1/2-x,1/2+y,1/2-z
1/2-x,1/2-y,-z
1/2+x,1/2-y,1/2+z
loop_
_atom_site_type_symbol
_atom_site_label
_atom_site_fract_x
_atom_site_fract_y
_atom_site_fract_z
Si Si1 0.186065 0.481915 0.079438
Si Si2 0.297820 0.069151 0.182482
Si Si3 0.991001 0.821950 0.517653
Si Si4 0.887582 0.894250 0.126173
Si Si5 0.106945 0.638680 0.350946
Si Si6 0.605914 0.524710 0.706118
Si Si7 0.684810 0.795244 0.648138
Si Si8 0.361857 0.146641 0.839793
O O1 0.298554 0.474465 0.225583
O O2 0.159843 0.605560 0.064879
O O3 0.135585 0.404153 0.076557
O O4 0.163694 0.439561 0.973023
O O5 0.364025 0.109055 0.196106
O O6 0.303831 0.151929 0.257777
O O7 0.334646 0.953024 0.255016
O O8 0.189408 0.062992 0.024194
O O9 0.043663 0.709264 0.566458
O O10 0.961825 0.882162 0.407834
O O11 0.897138 0.793043 0.447690
O O12 0.055478 0.909181 0.636413
O O13 0.868566 0.765088 0.107789
O O14 0.869764 0.948799 0.182276
O O15 0.000000 0.909166 0.250000
O O16 0.000000 0.626160 0.250000
O O17 0.780697 0.737284 0.741431
#
# Coordination Sequence:
#
# PCOD9304082 Si02
#       8
#     8   8   8   8   8   8   8   8
#     4  11  23  42  66  96 133 171 220 272 330 383
#     4  11  25  43  67  97 134 168 218 268 330 390
#     4  11  25  41  68  93 134 169 224 260 331 383
#     4  11  25  40  67  95 129 167 217 272 329 383
#     4  11  25  42  65  96 134 170 215 273 333 389
#     4  11  23  42  67  98 126 172 223 275 315 393
#     4  11  24  42  67  97 133 174 215 274 326 386
#     4  11  25  41  67  98 132 172 217 271 322 392
#
# _framework density 19.893822
#
# number of rings (size 3 to 8) (size 9 to 14) (size 15 to 20)
#    0.000    1.000    3.750    1.875   10.500    1.000 
#    0.000    2.500    0.000    0.000    0.000    0.000 
#    0.000    0.000    0.000    0.000    0.000    0.000 
#
# Total GULP energy -178879.209191 kJ/mol
# GULP energy per Si atom -5589.975287 kJ/mol
# Density = 1.984854 g / cm^3
# Si number density = 19.893822 Si / 1000 Ang^3
#
#
#
# Elastic Constant Matrix: (Units=GPa)
#
#
# Indices 1 2 3 4 5 6 
#
# 1 51.5144 8.2963 20.1313 0.0000 -3.2401 0.0000
# 2 8.2963 68.0207 10.6174 0.0000 -11.2898 0.0000
# 3 20.1313 10.6174 53.8890 0.0000 2.6252 0.0000
# 4 0.0000 0.0000 0.0000 16.3659 0.0000 4.3570
# 5 -3.2401 -11.2898 2.6252 0.0000 28.5378 0.0000
# 6 0.0000 0.0000 0.0000 4.3570 0.0000 20.9265
#
#
#
# Elastic Compliance Matrix: (Units=1/GPa)
#
#
# Indices 1 2 3 4 5 6 
#
# 1 0.023117 -0.000976 -0.008591 0.000000 0.003029 0.000000
# 2 -0.000976 0.016429 -0.003198 0.000000 0.006683 0.000000
# 3 -0.008591 -0.003198 0.022607 0.000000 -0.004320 0.000000
# 4 0.000000 0.000000 0.000000 0.064688 0.000000 -0.013468
# 5 0.003029 0.006683 -0.004320 0.000000 0.038426 0.000000
# 6 0.000000 0.000000 0.000000 -0.013468 0.000000 0.050591
#
#
# Mechanical properties :
#
#
# Convention : Reuss Voigt Hill
#
# Bulk Modulus (GPa) = 27.30543 27.94603 27.62573
# Shear Modulus (GPa) = 19.71650 22.12463 20.92057
#
# Velocity S-wave (km/s) = 3.15157 3.33849 3.24637
# Velocity P-wave (km/s) = 5.19601 5.37948 5.28854
#
# Compressibility (1/GPa) = 0.03662275
#
# Stress axis : x y z
#
# Youngs Moduli (GPa) = 43.25819 60.86885 44.23504
#
# Poissons Ratio (x) = 0.05940 0.38003
# Poissons Ratio (y) = 0.04221 0.14146
# Poissons Ratio (z) = 0.37163 0.19465
#
# Static dielectric constant tensor:
#      x y z
#    x 1.692280 0.000000 0.033710 
#    y 0.000000 1.670620 0.000000 
#    z 0.033710 0.000000 1.731220 
# 
# From -- ./inp_files/257525.got.cif
#   From: 2010.05.17/outbox.cif.g08.bks.cpg/sg15_129_cif.got.tgz:257525.got - 2010.06.03 18:47:42.
