data_PCOD9304519
_publ_section_title
;
Structure prediction by ZEFSAII (Michael W. Deem and Ramdas Pophale) SiO2 
 PCOD9304519
Probable space group: C 2/C
;
_chemical_formula_sum "Si O2"
_cell_formula_units_Z 44
_cell_length_a 12.537396
_cell_length_b 18.900678
_cell_length_c 12.160953
_cell_angle_alpha 90.000000
_cell_angle_beta 36.612252
_cell_angle_gamma 90.000000
_cell_volume 1718.650021
_symmetry_space_group_name_H-M "C 2/C"
_symmetry_group_IT_number 15
_symmetry_cell_setting 'monoclinic'
loop_
_space_group_symop_operation_xyz
x,y,z
-x,y,1/2-z
-x,-y,-z
x,-y,1/2+z
1/2+x,1/2+y,z
1/2-x,1/2+y,1/2-z
1/2-x,1/2-y,-z
1/2+x,1/2-y,1/2+z
loop_
_atom_site_type_symbol
_atom_site_label
_atom_site_fract_x
_atom_site_fract_y
_atom_site_fract_z
Si Si1 0.218765 0.723181 0.213441
Si Si2 0.000000 0.593162 0.750000
Si Si3 0.260664 0.971031 0.255710
Si Si4 0.976369 0.408163 0.639795
Si Si5 0.698158 0.682322 0.114797
Si Si6 0.516839 0.366186 0.358112
O O1 0.039608 0.675269 0.366910
O O2 0.311152 0.711585 0.254056
O O3 0.164086 0.803485 0.240347
O O4 0.338505 0.679185 0.029190
O O5 0.862814 0.555978 0.779923
O O6 0.136189 0.632076 0.552990
O O7 0.076712 0.928720 0.390712
O O8 0.296786 0.054452 0.239471
O O9 0.368342 0.945423 0.057979
O O10 0.000000 0.419657 0.750000
O O11 0.500000 0.654112 0.250000
O O12 0.750000 0.750000 0.000000
O O13 0.500000 0.396695 0.250000
#
# Coordination Sequence:
#
# PCOD9304519 Si02
#       6
#     8   4   8   8   8   8
#     4  12  24  43  67 101 136 177 235 282 350 416
#     4  12  22  44  68  98 144 178 232 284 350 422
#     4  11  24  44  69  99 134 182 229 279 351 414
#     4  11  23  44  71  98 133 181 232 281 342 423
#     4  12  24  39  64 102 140 184 227 289 351 416
#     4  12  26  45  68 101 138 181 231 290 351 413
#
# _framework density 25.601488
#
# number of rings (size 3 to 8) (size 9 to 14) (size 15 to 20)
#    0.000    0.364    3.636    6.545    0.000    0.727 
#    0.000    0.909    0.000    0.000    0.000    0.000 
#    0.000    0.000    0.000    0.000    0.000    0.000 
#
# Total GULP energy -123065.056861 kJ/mol
# GULP energy per Si atom -5593.866221 kJ/mol
# Density = 2.554322 g / cm^3
# Si number density = 25.601488 Si / 1000 Ang^3
#
#
#
# Elastic Constant Matrix: (Units=GPa)
#
#
# Indices 1 2 3 4 5 6 
#
# 1 115.2066 13.8113 1.8932 0.0033 21.2440 -0.0040
# 2 13.8113 106.7911 -20.2593 0.0029 -10.6578 -0.0025
# 3 1.8932 -20.2593 76.4438 -0.0051 -24.7600 0.0026
# 4 0.0033 0.0029 -0.0051 16.9011 -0.0014 -1.9272
# 5 21.2440 -10.6578 -24.7600 -0.0014 55.7824 0.0019
# 6 -0.0040 -0.0025 0.0026 -1.9272 0.0019 21.3646
#
#
#
# Elastic Compliance Matrix: (Units=1/GPa)
#
#
# Indices 1 2 3 4 5 6 
#
# 1 0.010002 -0.002331 -0.002620 -0.000003 -0.005417 0.000002
# 2 -0.002331 0.011046 0.004621 0.000000 0.005049 0.000000
# 3 -0.002620 0.004621 0.017495 0.000005 0.009646 -0.000002
# 4 -0.000003 0.000000 0.000005 0.059783 0.000005 0.005393
# 5 -0.005417 0.005049 0.009646 0.000005 0.025236 -0.000003
# 6 0.000002 0.000000 -0.000002 0.005393 -0.000003 0.047293
#
#
# Mechanical properties :
#
#
# Convention : Reuss Voigt Hill
#
# Bulk Modulus (GPa) = 26.39821 32.14799 29.27310
# Shear Modulus (GPa) = 27.15269 39.00936 33.08102
#
# Velocity S-wave (km/s) = 3.26020 3.90771 3.59855
# Velocity P-wave (km/s) = 4.95030 5.73974 5.35958
#
# Compressibility (1/GPa) = 0.03788136
#
# Stress axis : x y z
#
# Youngs Moduli (GPa) = 99.98447 90.52997 57.15789
#
# Poissons Ratio (x) = 0.21105 0.14977
# Poissons Ratio (y) = 0.23309 -0.26410
# Poissons Ratio (z) = 0.26198 -0.41830
#
# Static dielectric constant tensor:
#      x y z
#    x 1.989780 0.000000 -0.074560 
#    y 0.000000 2.020290 0.000000 
#    z -0.074560 0.000000 2.165770 
# 
# From -- ./inp_files/91145.got.cif
#   From: 2010.05.17/outbox.cif.g08.bks.cpg/sg15_46_cif.got.tgz:91145.got - 2010.06.03 18:47:42.
