data_PCOD9304875
_publ_section_title
;
Structure prediction by ZEFSAII (Michael W. Deem and Ramdas Pophale) SiO2 
 PCOD9304875
Probable space group: C 2/C
;
_chemical_formula_sum "Si O2"
_cell_formula_units_Z 40
_cell_length_a 15.605026
_cell_length_b 14.714417
_cell_length_c 11.226667
_cell_angle_alpha 90.000000
_cell_angle_beta 139.863767
_cell_angle_gamma 90.000000
_cell_volume 1661.703623
_symmetry_space_group_name_H-M "C 2/C"
_symmetry_group_IT_number 15
_symmetry_cell_setting 'monoclinic'
loop_
_space_group_symop_operation_xyz
x,y,z
-x,y,1/2-z
-x,-y,-z
x,-y,1/2+z
1/2+x,1/2+y,z
1/2-x,1/2+y,1/2-z
1/2-x,1/2-y,-z
1/2+x,1/2-y,1/2+z
loop_
_atom_site_type_symbol
_atom_site_label
_atom_site_fract_x
_atom_site_fract_y
_atom_site_fract_z
Si Si1 0.500000 0.368117 0.750000
Si Si2 0.000000 0.649551 0.250000
Si Si3 0.109356 0.260816 0.183839
Si Si4 0.660722 0.260341 0.243238
Si Si5 0.742017 0.550257 0.608305
Si Si6 0.713592 0.046991 0.594199
O O1 0.395463 0.305494 0.708833
O O2 0.414016 0.425694 0.566286
O O3 0.885008 0.709869 0.186245
O O4 0.066609 0.589394 0.423139
O O5 0.204978 0.228239 0.178697
O O6 0.167912 0.358831 0.282557
O O7 0.959475 0.258640 0.975915
O O8 0.684679 0.367560 0.291422
O O9 0.770761 0.497742 0.762394
O O10 0.769368 0.504872 0.510947
#
# Coordination Sequence:
#
# PCOD9304875 Si02
#       6
#     4   4   8   8   8   8
#     4  12  24  48  78 110 150 204 268 314 388 460
#     4  12  24  48  78 110 150 204 268 314 388 460
#     4  11  23  47  79 111 148 201 265 319 376 465
#     4  11  23  47  79 111 148 201 265 319 376 465
#     4  11  26  48  74 113 156 201 255 321 393 458
#     4  11  26  48  74 113 156 201 255 321 393 458
#
# _framework density 24.071681000000002
#
# number of rings (size 3 to 8) (size 9 to 14) (size 15 to 20)
#    0.000    0.800    8.000    1.200    0.000    4.800 
#    0.000    0.000    0.000    0.000    0.000    0.000 
#    0.000    0.000    0.000    0.000    0.000    0.000 
#
# Total GULP energy -111843.662272 kJ/mol
# GULP energy per Si atom -5592.183114 kJ/mol
# Density = 2.401689 g / cm^3
# Si number density = 24.071681 Si / 1000 Ang^3
#
#
#
# Elastic Constant Matrix: (Units=GPa)
#
#
# Indices 1 2 3 4 5 6 
#
# 1 141.9740 26.3034 21.3527 0.0000 -30.9958 0.0000
# 2 26.3034 52.8106 28.7449 0.0000 -11.8525 0.0000
# 3 21.3527 28.7449 163.8537 0.0000 -25.2613 0.0000
# 4 0.0000 0.0000 0.0000 22.7829 0.0000 -11.9304
# 5 -30.9958 -11.8525 -25.2613 0.0000 52.7526 0.0000
# 6 0.0000 0.0000 0.0000 -11.9304 0.0000 37.0137
#
#
#
# Elastic Compliance Matrix: (Units=1/GPa)
#
#
# Indices 1 2 3 4 5 6 
#
# 1 0.008601 -0.003384 0.000145 0.000000 0.004363 0.000000
# 2 -0.003384 0.022772 -0.003316 0.000000 0.001540 0.000000
# 3 0.000145 -0.003316 0.007087 0.000000 0.002734 0.000000
# 4 0.000000 0.000000 0.000000 0.052805 0.000000 0.017020
# 5 0.004363 0.001540 0.002734 0.000000 0.023175 0.000000
# 6 0.000000 0.000000 0.000000 0.017020 0.000000 0.032503
#
#
# Mechanical properties :
#
#
# Convention : Reuss Voigt Hill
#
# Bulk Modulus (GPa) = 39.44699 56.82670 48.13685
# Shear Modulus (GPa) = 29.67286 41.32567 35.49926
#
# Velocity S-wave (km/s) = 3.51477 4.14789 3.84439
# Velocity P-wave (km/s) = 5.73536 6.82631 6.30448
#
# Compressibility (1/GPa) = 0.02535047
#
# Stress axis : x y z
#
# Youngs Moduli (GPa) = 116.26345 43.91394 141.09569
#
# Poissons Ratio (x) = 0.14860 -0.02052
# Poissons Ratio (y) = 0.39343 0.46794
# Poissons Ratio (z) = -0.01691 0.14564
#
# Static dielectric constant tensor:
#      x y z
#    x 1.952200 0.000000 -0.061420 
#    y 0.000000 2.003730 0.000000 
#    z -0.061420 0.000000 1.940910 
# 
# From -- ./inp_files/105563.got.cif
#   From: 2010.05.17/outbox.cif.g08.bks.cpg/sg15_53_cif.got.tgz:105563.got - 2010.06.03 18:47:42.
