data_PCOD9304236
_publ_section_title
;
Structure prediction by ZEFSAII (Michael W. Deem and Ramdas Pophale) SiO2 
 PCOD9304236
Probable space group: C 2/C
;
_chemical_formula_sum "Si O2"
_cell_formula_units_Z 44
_cell_length_a 25.973205
_cell_length_b 17.369773
_cell_length_c 15.865426
_cell_angle_alpha 90.000000
_cell_angle_beta 17.698473
_cell_angle_gamma 90.000000
_cell_volume 2175.985347
_symmetry_space_group_name_H-M "C 2/C"
_symmetry_group_IT_number 15
_symmetry_cell_setting 'monoclinic'
loop_
_space_group_symop_operation_xyz
x,y,z
-x,y,1/2-z
-x,-y,-z
x,-y,1/2+z
1/2+x,1/2+y,z
1/2-x,1/2+y,1/2-z
1/2-x,1/2-y,-z
1/2+x,1/2-y,1/2+z
loop_
_atom_site_type_symbol
_atom_site_label
_atom_site_fract_x
_atom_site_fract_y
_atom_site_fract_z
Si Si1 0.635654 0.901150 0.424532
Si Si2 0.136200 0.064813 0.254869
Si Si3 0.172031 0.655627 0.184179
Si Si4 0.817453 0.000724 0.504756
Si Si5 0.500000 0.972547 0.250000
Si Si6 0.854665 0.178935 0.725748
O O1 0.509516 0.841772 0.578194
O O2 0.730392 0.866219 0.356757
O O3 0.760555 0.936483 0.161340
O O4 0.523759 0.971758 0.632990
O O5 0.038851 0.145413 0.417511
O O6 0.316721 0.066419 0.021720
O O7 0.000000 0.000000 0.500000
O O8 0.170627 0.040484 0.104956
O O9 0.195920 0.573516 0.190870
O O10 0.178299 0.730357 0.232581
O O11 0.307679 0.660585 0.896339
O O12 0.000000 0.971199 0.250000
#
# Coordination Sequence:
#
# PCOD9304236 Si02
#       6
#     8   8   8   8   4   8
#     4  12  21  42  65  96 134 178 226 288 337 413
#     4  12  21  43  66 101 137 181 227 282 347 409
#     4  11  24  40  67 102 126 179 230 285 342 417
#     4  12  23  38  70 100 129 176 237 280 336 420
#     4  12  22  38  72  94 136 180 238 284 334 402
#     4  11  23  43  66  94 144 171 220 291 361 391
#
# _framework density 20.220724000000001
#
# number of rings (size 3 to 8) (size 9 to 14) (size 15 to 20)
#    0.000    0.364    9.091    0.545    0.000    2.909 
#    0.000    0.909    2.000    0.000    0.000    0.000 
#    0.000    0.000    0.000    0.000    0.000    0.000 
#
# Total GULP energy -122895.030161 kJ/mol
# GULP energy per Si atom -5586.137735 kJ/mol
# Density = 2.017470 g / cm^3
# Si number density = 20.220724 Si / 1000 Ang^3
#
#
#
# Elastic Constant Matrix: (Units=GPa)
#
#
# Indices 1 2 3 4 5 6 
#
# 1 64.2731 35.2440 32.0046 -0.0038 -4.2490 0.0014
# 2 35.2440 94.9558 36.2520 0.0032 8.1313 0.0022
# 3 32.0046 36.2520 91.3023 -0.0011 -17.6502 0.0026
# 4 -0.0038 0.0032 -0.0011 28.2898 0.0033 0.1738
# 5 -4.2490 8.1313 -17.6502 0.0033 41.6478 -0.0022
# 6 0.0014 0.0022 0.0026 0.1738 -0.0022 29.0795
#
#
#
# Elastic Compliance Matrix: (Units=1/GPa)
#
#
# Indices 1 2 3 4 5 6 
#
# 1 0.021459 -0.006265 -0.004765 0.000003 0.001393 0.000000
# 2 -0.006265 0.015240 -0.004960 -0.000002 -0.005717 -0.000001
# 3 -0.004765 -0.004960 0.015996 0.000000 0.007261 0.000000
# 4 0.000003 -0.000002 0.000000 0.035350 -0.000002 -0.000211
# 5 0.001393 -0.005717 0.007261 -0.000002 0.028346 0.000002
# 6 0.000000 -0.000001 0.000000 -0.000211 0.000002 0.034390
#
#
# Mechanical properties :
#
#
# Convention : Reuss Voigt Hill
#
# Bulk Modulus (GPa) = 48.27563 50.83692 49.55627
# Shear Modulus (GPa) = 26.36219 29.60545 27.98382
#
# Velocity S-wave (km/s) = 3.61463 3.83053 3.72414
# Velocity P-wave (km/s) = 6.43015 6.69025 6.56149
#
# Compressibility (1/GPa) = 0.02071439
#
# Stress axis : x y z
#
# Youngs Moduli (GPa) = 46.60092 65.61856 62.51478
#
# Poissons Ratio (x) = 0.41108 0.29791
# Poissons Ratio (y) = 0.29194 0.31008
# Poissons Ratio (z) = 0.22207 0.32547
#
# Static dielectric constant tensor:
#      x y z
#    x 1.718630 0.000000 -0.025200 
#    y 0.000000 1.734060 0.000000 
#    z -0.025200 0.000000 1.771870 
# 
# From -- ./inp_files/134739.got.cif
#   From: 2010.05.17/outbox.cif.g08.bks.cpg/sg15_68_cif.got.tgz:134739.got - 2010.06.03 18:47:42.
