data_PCOD9304085
_publ_section_title
;
Structure prediction by ZEFSAII (Michael W. Deem and Ramdas Pophale) SiO2 
 PCOD9304085
Probable space group: C 2/C
;
_chemical_formula_sum "Si O2"
_cell_formula_units_Z 32
_cell_length_a 9.079396
_cell_length_b 12.494477
_cell_length_c 11.538365
_cell_angle_alpha 90.000000
_cell_angle_beta 106.392619
_cell_angle_gamma 90.000000
_cell_volume 1255.730800
_symmetry_space_group_name_H-M "C 2/C"
_symmetry_group_IT_number 15
_symmetry_cell_setting 'monoclinic'
loop_
_space_group_symop_operation_xyz
x,y,z
-x,y,1/2-z
-x,-y,-z
x,-y,1/2+z
1/2+x,1/2+y,z
1/2-x,1/2+y,1/2-z
1/2-x,1/2-y,-z
1/2+x,1/2-y,1/2+z
loop_
_atom_site_type_symbol
_atom_site_label
_atom_site_fract_x
_atom_site_fract_y
_atom_site_fract_z
Si Si1 0.832065 0.127008 0.599960
Si Si2 0.968461 0.654774 0.109810
Si Si3 0.285168 0.397661 0.567332
Si Si4 0.829261 0.671790 0.693703
O O1 0.956835 0.215602 0.593922
O O2 0.697364 0.122530 0.474244
O O3 0.753983 0.169300 0.701156
O O4 0.875925 0.003704 0.622463
O O5 0.000000 0.631305 0.250000
O O6 0.107964 0.602818 0.071705
O O7 0.266196 0.389506 0.425327
O O8 0.348144 0.290216 0.641624
O O9 0.000000 0.626830 0.750000
#
# Coordination Sequence:
#
# PCOD9304085 Si02
#       4
#     8   8   8   8
#     4  11  25  41  71  96 130 181 220 278 339 396
#     4  11  23  42  66  99 131 168 230 276 322 415
#     4  11  25  43  67  96 134 179 216 282 339 391
#     4  11  24  44  62  97 135 166 229 278 328 411
#
# _framework density 25.483167999999999
#
# number of rings (size 3 to 8) (size 9 to 14) (size 15 to 20)
#    0.000    1.000    5.000    0.750    3.500    1.000 
#    0.000    2.500    0.000    0.000    0.000    0.000 
#    0.000    0.000    0.000    0.000    0.000    0.000 
#
# Total GULP energy -89645.721135 kJ/mol
# GULP energy per Si atom -5602.857571 kJ/mol
# Density = 2.542517 g / cm^3
# Si number density = 25.483168 Si / 1000 Ang^3
#
#
#
# Elastic Constant Matrix: (Units=GPa)
#
#
# Indices 1 2 3 4 5 6 
#
# 1 43.2612 -5.9708 22.7325 0.0000 7.6297 0.0000
# 2 -5.9708 171.1738 18.7262 0.0000 -1.5075 0.0000
# 3 22.7325 18.7262 179.9320 0.0000 16.5028 0.0000
# 4 0.0000 0.0000 0.0000 -9.6831 0.0000 -6.2430
# 5 7.6297 -1.5075 16.5028 0.0000 35.6972 0.0000
# 6 0.0000 0.0000 0.0000 -6.2430 0.0000 24.3272
#
#
#
# Elastic Compliance Matrix: (Units=1/GPa)
#
#
# Indices 1 2 3 4 5 6 
#
# 1 0.025557 0.001182 -0.002982 0.000000 -0.004034 0.000000
# 2 0.001182 0.005975 -0.000805 0.000000 0.000372 0.000000
# 3 -0.002982 -0.000805 0.006227 0.000000 -0.002275 0.000000
# 4 0.000000 0.000000 0.000000 -0.088612 0.000000 -0.022740
# 5 -0.004034 0.000372 -0.002275 0.000000 0.029943 0.000000
# 6 0.000000 0.000000 0.000000 -0.022740 0.000000 0.035271
#
#
# Mechanical properties :
#
#
# Convention : Reuss Voigt Hill
#
# Bulk Modulus (GPa) = 30.72352 51.70475 41.21414
# Shear Modulus (GPa) = 164.36515 33.99353 99.17934
#
# Velocity S-wave (km/s) = 8.03987 3.65630 6.24532
# Velocity P-wave (km/s) = 9.91305 6.17726 8.25915
#
# Compressibility (1/GPa) = 0.03254835
#
# Stress axis : x y z
#
# Youngs Moduli (GPa) = 39.12842 167.37461 160.59399
#
# Poissons Ratio (x) = -0.19786 0.47888
# Poissons Ratio (y) = -0.04626 0.12932
# Poissons Ratio (z) = 0.11668 0.13478
#
# Static dielectric constant tensor:
#      x y z
#    x 1.999960 0.000000 0.010410 
#    y 0.000000 2.089730 0.000000 
#    z 0.010410 0.000000 1.966700 
# 
# From -- ./inp_files/83809.got.cif
#   From: 2010.05.17/outbox.cif.g08.bks.cpg/sg15_42_cif.got.tgz:83809.got - 2010.06.03 18:47:42.
