data_PCOD9304269
_publ_section_title
;
Structure prediction by ZEFSAII (Michael W. Deem and Ramdas Pophale) SiO2 
 PCOD9304269
Probable space group: C 2/C
;
_chemical_formula_sum "Si O2"
_cell_formula_units_Z 32
_cell_length_a 12.355094
_cell_length_b 6.873039
_cell_length_c 16.548149
_cell_angle_alpha 90.000000
_cell_angle_beta 130.513423
_cell_angle_gamma 90.000000
_cell_volume 1068.323746
_symmetry_space_group_name_H-M "C 2/C"
_symmetry_group_IT_number 15
_symmetry_cell_setting 'monoclinic'
loop_
_space_group_symop_operation_xyz
x,y,z
-x,y,1/2-z
-x,-y,-z
x,-y,1/2+z
1/2+x,1/2+y,z
1/2-x,1/2+y,1/2-z
1/2-x,1/2-y,-z
1/2+x,1/2-y,1/2+z
loop_
_atom_site_type_symbol
_atom_site_label
_atom_site_fract_x
_atom_site_fract_y
_atom_site_fract_z
Si Si1 0.402548 0.410087 0.326264
Si Si2 0.340031 0.909686 0.401673
Si Si3 0.690473 0.498036 0.535860
Si Si4 0.501038 0.039106 0.843418
O O1 0.308247 0.490954 0.205784
O O2 0.554983 0.510324 0.413277
O O3 0.338877 0.410671 0.388844
O O4 0.440508 0.182686 0.323692
O O5 0.300443 0.730100 0.437754
O O6 0.500000 0.000000 0.500000
O O7 0.393736 0.829463 0.340932
O O8 0.831397 0.557531 0.555423
O O9 0.500000 0.083341 0.750000
#
# Coordination Sequence:
#
# PCOD9304269 Si02
#       4
#     8   8   8   8
#     4  11  23  43  68 101 137 178 226 282 335 403
#     4  12  24  42  70 104 136 176 228 282 339 405
#     4  11  25  45  70  99 140 178 228 284 335 404
#     4  12  23  45  74  98 136 184 225 277 345 405
#
# _framework density 29.953467
#
# number of rings (size 3 to 8) (size 9 to 14) (size 15 to 20)
#    0.000    0.500    7.500    0.750    0.000    0.000 
#    0.000    8.750    0.000    0.000    0.000    0.000 
#    0.000    0.000    0.000    0.000    0.000    0.000 
#
# Total GULP energy -89433.012195 kJ/mol
# GULP energy per Si atom -5589.563262 kJ/mol
# Density = 2.988529 g / cm^3
# Si number density = 29.953467 Si / 1000 Ang^3
#
#
#
# Elastic Constant Matrix: (Units=GPa)
#
#
# Indices 1 2 3 4 5 6 
#
# 1 158.3279 -0.8718 -38.0574 0.0000 11.8117 0.0000
# 2 -0.8718 79.4833 30.7856 0.0000 6.7679 0.0000
# 3 -38.0574 30.7856 213.9996 0.0000 27.5332 0.0000
# 4 0.0000 0.0000 0.0000 52.0181 0.0000 14.4627
# 5 11.8117 6.7679 27.5332 0.0000 51.3666 0.0000
# 6 0.0000 0.0000 0.0000 14.4627 0.0000 -1.2940
#
#
#
# Elastic Compliance Matrix: (Units=1/GPa)
#
#
# Indices 1 2 3 4 5 6 
#
# 1 0.006871 -0.000332 0.001576 0.000000 -0.002381 0.000000
# 2 -0.000332 0.013369 -0.001896 0.000000 -0.000669 0.000000
# 3 0.001576 -0.001896 0.005629 0.000000 -0.003130 0.000000
# 4 0.000000 0.000000 0.000000 0.004680 0.000000 0.052309
# 5 -0.002381 -0.000669 -0.003130 0.000000 0.021781 0.000000
# 6 0.000000 0.000000 0.000000 0.052309 0.000000 -0.188142
#
#
# Mechanical properties :
#
#
# Convention : Reuss Voigt Hill
#
# Bulk Modulus (GPa) = 40.71171 48.39150 44.55161
# Shear Modulus (GPa) = -39.58220 51.08177 5.74978
#
# Velocity S-wave (km/s) = -3.63913 4.13409 1.38699
# Velocity P-wave (km/s) = 2.00911 6.24326 4.17982
#
# Compressibility (1/GPa) = 0.02456296
#
# Stress axis : x y z
#
# Youngs Moduli (GPa) = 145.54729 74.79978 177.66301
#
# Poissons Ratio (x) = 0.02486 -0.28000
# Poissons Ratio (y) = 0.04837 0.33691
# Poissons Ratio (z) = -0.22938 0.14184
#
# Static dielectric constant tensor:
#      x y z
#    x 2.390310 0.000000 -0.077460 
#    y 0.000000 2.527570 0.000000 
#    z -0.077460 0.000000 2.794590 
# 
# From -- ./inp_files/177697.got.cif
#   From: 2010.05.17/outbox.cif.g08.bks.cpg/sg15_89_cif.got.tgz:177697.got - 2010.06.03 18:47:42.
