data_PCOD9304707
_publ_section_title
;
Structure prediction by ZEFSAII (Michael W. Deem and Ramdas Pophale) SiO2 
 PCOD9304707
Probable space group: C 2/C
;
_chemical_formula_sum "Si O2"
_cell_formula_units_Z 28
_cell_length_a 6.757892
_cell_length_b 12.095904
_cell_length_c 23.332452
_cell_angle_alpha 90.000000
_cell_angle_beta 149.870644
_cell_angle_gamma 90.000000
_cell_volume 957.356800
_symmetry_space_group_name_H-M "C 2/C"
_symmetry_group_IT_number 15
_symmetry_cell_setting 'monoclinic'
loop_
_space_group_symop_operation_xyz
x,y,z
-x,y,1/2-z
-x,-y,-z
x,-y,1/2+z
1/2+x,1/2+y,z
1/2-x,1/2+y,1/2-z
1/2-x,1/2-y,-z
1/2+x,1/2-y,1/2+z
loop_
_atom_site_type_symbol
_atom_site_label
_atom_site_fract_x
_atom_site_fract_y
_atom_site_fract_z
Si Si1 0.159994 0.106702 0.074836
Si Si2 0.527492 0.507803 0.694980
Si Si3 0.674523 0.189306 0.065210
Si Si4 0.500000 0.827896 0.250000
O O1 0.588686 0.070359 0.203671
O O2 0.895944 0.146047 0.063012
O O3 0.146079 0.219097 0.033660
O O4 0.000000 0.000000 0.000000
O O5 0.500000 0.565337 0.750000
O O6 0.845614 0.429268 0.908005
O O7 0.629218 0.592566 0.670908
O O8 0.928310 0.261067 0.174214
#
# Coordination Sequence:
#
# PCOD9304707 Si02
#       4
#     8   8   8   4
#     4  11  23  47  77 112 153 201 262 315 377 459
#     4  12  25  45  75 112 151 201 251 318 387 453
#     4  11  23  45  78 105 149 209 248 319 379 442
#     4  12  24  50  74 108 160 194 258 314 380 460
#
# _framework density 29.247194
#
# number of rings (size 3 to 8) (size 9 to 14) (size 15 to 20)
#    0.000    0.571    7.143    0.000    0.000    3.429 
#    0.000    2.857    0.000    0.000    0.000    0.000 
#    0.000    0.000    0.000    0.000    0.000    0.000 
#
# Total GULP energy -78486.532431 kJ/mol
# GULP energy per Si atom -5606.180888 kJ/mol
# Density = 2.918063 g / cm^3
# Si number density = 29.247194 Si / 1000 Ang^3
#
#
#
# Elastic Constant Matrix: (Units=GPa)
#
#
# Indices 1 2 3 4 5 6 
#
# 1 138.6077 94.1066 33.0573 0.0006 -19.7264 0.0003
# 2 94.1066 236.8380 106.8031 0.0010 -4.1603 0.0004
# 3 33.0573 106.8031 146.6867 -0.0011 -5.6037 0.0001
# 4 0.0006 0.0010 -0.0011 74.2452 -0.0022 -11.3235
# 5 -19.7264 -4.1603 -5.6037 -0.0022 54.3747 0.0002
# 6 0.0003 0.0004 0.0001 -11.3235 0.0002 74.8399
#
#
#
# Elastic Compliance Matrix: (Units=1/GPa)
#
#
# Indices 1 2 3 4 5 6 
#
# 1 0.010632 -0.004679 0.001149 0.000000 0.003618 0.000000
# 2 -0.004679 0.008346 -0.005083 0.000000 -0.001583 0.000000
# 3 0.001149 -0.005083 0.010301 0.000000 0.001090 0.000000
# 4 0.000000 0.000000 0.000000 0.013787 0.000001 0.002086
# 5 0.003618 -0.001583 0.001090 0.000001 0.019695 0.000000
# 6 0.000000 0.000000 0.000000 0.002086 0.000000 0.013677
#
#
# Mechanical properties :
#
#
# Convention : Reuss Voigt Hill
#
# Bulk Modulus (GPa) = 82.96535 110.00737 96.48636
# Shear Modulus (GPa) = 51.18691 59.90301 55.54496
#
# Velocity S-wave (km/s) = 4.18802 4.53057 4.36266
# Velocity P-wave (km/s) = 7.19823 8.06615 7.64452
#
# Compressibility (1/GPa) = 0.01205322
#
# Stress axis : x y z
#
# Youngs Moduli (GPa) = 94.05151 119.82002 97.08251
#
# Poissons Ratio (x) = 0.56069 -0.11157
# Poissons Ratio (y) = 0.44011 0.49343
# Poissons Ratio (z) = -0.10808 0.60899
#
# Static dielectric constant tensor:
#      x y z
#    x 2.340190 0.000000 -0.036950 
#    y 0.000000 2.219750 0.000000 
#    z -0.036950 0.000000 2.294750 
# 
# From -- ./inp_files/183622.got.cif
#   From: 2010.05.17/outbox.cif.g08.bks.cpg/sg15_92_cif.got.tgz:183622.got - 2010.06.03 18:47:42.
