data_PCOD9304990
_publ_section_title
;
Structure prediction by ZEFSAII (Michael W. Deem and Ramdas Pophale) SiO2 
 PCOD9304990
Probable space group: C 2/C
;
_chemical_formula_sum "Si O2"
_cell_formula_units_Z 60
_cell_length_a 8.117172
_cell_length_b 16.471224
_cell_length_c 23.553060
_cell_angle_alpha 90.000000
_cell_angle_beta 113.162151
_cell_angle_gamma 90.000000
_cell_volume 2895.211359
_symmetry_space_group_name_H-M "C 2/C"
_symmetry_group_IT_number 15
_symmetry_cell_setting 'monoclinic'
loop_
_space_group_symop_operation_xyz
x,y,z
-x,y,1/2-z
-x,-y,-z
x,-y,1/2+z
1/2+x,1/2+y,z
1/2-x,1/2+y,1/2-z
1/2-x,1/2-y,-z
1/2+x,1/2-y,1/2+z
loop_
_atom_site_type_symbol
_atom_site_label
_atom_site_fract_x
_atom_site_fract_y
_atom_site_fract_z
Si Si1 0.120091 0.194693 0.943719
Si Si2 0.870850 0.829437 0.509866
Si Si3 0.375335 0.937656 0.952158
Si Si4 0.092300 0.042603 0.870200
Si Si5 0.812076 0.778694 0.752449
Si Si6 0.000000 0.153790 0.750000
Si Si7 0.508281 0.160402 0.132910
Si Si8 0.155935 0.894232 0.636034
O O1 0.169992 0.106547 0.927046
O O2 0.075138 0.249813 0.883527
O O3 0.250000 0.250000 0.000000
O O4 0.944443 0.174315 0.956652
O O5 0.750000 0.750000 0.500000
O O6 0.746913 0.901905 0.514550
O O7 0.043281 0.842908 0.573870
O O8 0.471308 0.868085 0.929230
O O9 0.254966 0.979760 0.887261
O O10 0.500000 0.000000 0.000000
O O11 0.041114 0.093991 0.808393
O O12 0.930143 0.983812 0.868864
O O13 0.673972 0.710362 0.758365
O O14 0.694494 0.827314 0.690017
O O15 0.857919 0.842502 0.808311
O O16 0.000000 0.749149 0.750000
O O17 0.363003 0.105232 0.144939
#
# Coordination Sequence:
#
# PCOD9304990 Si02
#       8
#     8   8   8   8   8   4   8   8
#     4  12  23  43  72  98 140 183 229 288 352 422
#     4  11  24  40  68 102 135 179 238 280 353 427
#     4  11  26  43  66 103 143 184 228 293 362 420
#     4  11  27  45  68 105 144 181 235 303 352 417
#     4  12  25  48  78 101 137 189 249 291 358 437
#     4  12  26  52  70 108 144 186 244 300 358 428
#     4  12  23  47  70 102 135 193 239 284 362 435
#     4  11  25  44  74 100 141 190 231 301 359 417
#
# _framework density 20.723876000000001
#
# number of rings (size 3 to 8) (size 9 to 14) (size 15 to 20)
#    0.000    0.533    5.333    2.400    4.667    1.067 
#    2.400    0.000    0.000    0.000    0.000    0.000 
#    0.000    0.000    0.000    0.000    0.000    0.000 
#
# Total GULP energy -167357.838308 kJ/mol
# GULP energy per Si atom -5578.594610 kJ/mol
# Density = 2.067671 g / cm^3
# Si number density = 20.723876 Si / 1000 Ang^3
#
#
#
# Elastic Constant Matrix: (Units=GPa)
#
#
# Indices 1 2 3 4 5 6 
#
# 1 128.3183 40.1949 23.5761 0.0000 3.4176 0.0000
# 2 40.1949 106.5170 34.8858 0.0000 7.6743 0.0000
# 3 23.5761 34.8858 55.0845 0.0000 7.1204 0.0000
# 4 0.0000 0.0000 0.0000 48.9341 0.0000 3.5553
# 5 3.4176 7.6743 7.1204 0.0000 30.5600 0.0000
# 6 0.0000 0.0000 0.0000 3.5553 0.0000 19.5105
#
#
#
# Elastic Compliance Matrix: (Units=1/GPa)
#
#
# Indices 1 2 3 4 5 6 
#
# 1 0.009037 -0.002711 -0.002174 0.000000 0.000177 0.000000
# 2 -0.002711 0.012706 -0.006716 0.000000 -0.001323 0.000000
# 3 -0.002174 -0.006716 0.023805 0.000000 -0.003617 0.000000
# 4 0.000000 0.000000 0.000000 0.020710 0.000000 -0.003774
# 5 0.000177 -0.001323 -0.003617 0.000000 0.033878 0.000000
# 6 0.000000 0.000000 0.000000 -0.003774 0.000000 0.051942
#
#
# Mechanical properties :
#
#
# Convention : Reuss Voigt Hill
#
# Bulk Modulus (GPa) = 44.74825 54.13705 49.44265
# Shear Modulus (GPa) = 27.36319 32.55178 29.95748
#
# Velocity S-wave (km/s) = 3.63763 3.96755 3.80617
# Velocity P-wave (km/s) = 6.26759 6.86792 6.57461
#
# Compressibility (1/GPa) = 0.02234724
#
# Stress axis : x y z
#
# Youngs Moduli (GPa) = 110.65621 78.70346 42.00814
#
# Poissons Ratio (x) = 0.21336 0.09132
# Poissons Ratio (y) = 0.29998 0.28211
# Poissons Ratio (z) = 0.24054 0.52854
#
# Static dielectric constant tensor:
#      x y z
#    x 1.814860 0.000000 -0.026060 
#    y 0.000000 1.745290 0.000000 
#    z -0.026060 0.000000 1.780570 
# 
# From -- ./inp_files/264758.got.cif
#   From: 2010.05.17/outbox.cif.g08.bks.cpg/sg15_133_cif.got.tgz:264758.got - 2010.06.03 18:47:42.
