data_PCOD9304986
_publ_section_title
;
Structure prediction by ZEFSAII (Michael W. Deem and Ramdas Pophale) SiO2 
 PCOD9304986
Probable space group: C 2/C
;
_chemical_formula_sum "Si O2"
_cell_formula_units_Z 36
_cell_length_a 11.636700
_cell_length_b 22.325833
_cell_length_c 5.350410
_cell_angle_alpha 90.000000
_cell_angle_beta 83.942158
_cell_angle_gamma 90.000000
_cell_volume 1382.269155
_symmetry_space_group_name_H-M "C 2/C"
_symmetry_group_IT_number 15
_symmetry_cell_setting 'monoclinic'
loop_
_space_group_symop_operation_xyz
x,y,z
-x,y,1/2-z
-x,-y,-z
x,-y,1/2+z
1/2+x,1/2+y,z
1/2-x,1/2+y,1/2-z
1/2-x,1/2-y,-z
1/2+x,1/2-y,1/2+z
loop_
_atom_site_type_symbol
_atom_site_label
_atom_site_fract_x
_atom_site_fract_y
_atom_site_fract_z
Si Si1 0.629658 0.421797 0.181454
Si Si2 0.352149 0.292313 0.566125
Si Si3 0.500000 0.201484 0.750000
Si Si4 0.165701 0.532213 0.134511
Si Si5 0.709881 0.133988 0.459319
O O1 0.500000 0.442926 0.250000
O O2 0.715181 0.413672 0.399249
O O3 0.623741 0.353124 0.085838
O O4 0.696807 0.460533 0.958256
O O5 0.250000 0.250000 0.500000
O O6 0.460564 0.248594 0.549754
O O7 0.301671 0.317666 0.840248
O O8 0.609774 0.162853 0.646718
O O9 0.123515 0.491380 0.375521
O O10 0.146896 0.599617 0.242970
#
# Coordination Sequence:
#
# PCOD9304986 Si02
#       5
#     8   8   4   8   8
#     4  11  24  43  71 107 146 186 245 299 358 444
#     4  11  24  40  66 104 149 194 236 290 358 427
#     4  12  24  44  74 100 150 196 238 292 360 442
#     4  11  24  49  77 103 146 187 243 314 370 426
#     4  11  25  46  68 111 141 187 252 288 363 441
#
# _framework density 26.044134
#
# number of rings (size 3 to 8) (size 9 to 14) (size 15 to 20)
#    0.000    0.889    4.444    2.000    3.111    3.556 
#    0.000    1.111    0.000    0.000    0.000    0.000 
#    0.000    0.000    0.000    0.000    0.000    0.000 
#
# Total GULP energy -100628.366721 kJ/mol
# GULP energy per Si atom -5590.464818 kJ/mol
# Density = 2.598486 g / cm^3
# Si number density = 26.044134 Si / 1000 Ang^3
#
#
#
# Elastic Constant Matrix: (Units=GPa)
#
#
# Indices 1 2 3 4 5 6 
#
# 1 110.6800 28.0469 40.7258 0.0000 -10.5240 0.0000
# 2 28.0469 123.6997 45.4887 0.0000 -4.3648 0.0000
# 3 40.7258 45.4887 153.6859 0.0000 -9.6851 0.0000
# 4 0.0000 0.0000 0.0000 -13.7691 0.0000 -126.7828
# 5 -10.5240 -4.3648 -9.6851 0.0000 33.6694 0.0000
# 6 0.0000 0.0000 0.0000 -126.7828 0.0000 -244.0637
#
#
#
# Elastic Compliance Matrix: (Units=1/GPa)
#
#
# Indices 1 2 3 4 5 6 
#
# 1 0.010443 -0.001482 -0.002175 0.000000 0.002447 0.000000
# 2 -0.001482 0.009287 -0.002352 0.000000 0.000064 0.000000
# 3 -0.002175 -0.002352 0.007860 0.000000 0.001276 0.000000
# 4 0.000000 0.000000 0.000000 0.019197 0.000000 -0.009972
# 5 0.002447 0.000064 0.001276 0.000000 0.030841 0.000000
# 6 0.000000 0.000000 0.000000 -0.009972 0.000000 0.001083
#
#
# Mechanical properties :
#
#
# Convention : Reuss Voigt Hill
#
# Bulk Modulus (GPa) = 64.21351 68.50982 66.36167
# Shear Modulus (GPa) = 52.12682 -26.57906 12.77388
#
# Velocity S-wave (km/s) = 4.47864 -3.19805 2.21706
# Velocity P-wave (km/s) = 7.17311 3.56730 5.66477
#
# Compressibility (1/GPa) = 0.01557305
#
# Stress axis : x y z
#
# Youngs Moduli (GPa) = 95.75439 107.67365 127.23160
#
# Poissons Ratio (x) = 0.15956 0.27668
# Poissons Ratio (y) = 0.14189 0.29927
# Poissons Ratio (z) = 0.20823 0.25327
#
# Static dielectric constant tensor:
#      x y z
#    x 2.180650 0.000000 0.123630 
#    y 0.000000 2.089660 0.000000 
#    z 0.123630 0.000000 2.138990 
# 
# From -- ./inp_files/4271.got.cif
#   From: 2010.05.17/outbox.cif.g08.bks.cpg/sg15_3_cif.got.tgz:4271.got - 2010.06.03 18:47:42.
