data_PCOD9304543
_publ_section_title
;
Structure prediction by ZEFSAII (Michael W. Deem and Ramdas Pophale) SiO2 
 PCOD9304543
Probable space group: C 2/C
;
_chemical_formula_sum "Si O2"
_cell_formula_units_Z 48
_cell_length_a 14.176965
_cell_length_b 8.892445
_cell_length_c 16.754892
_cell_angle_alpha 90.000000
_cell_angle_beta 90.693458
_cell_angle_gamma 90.000000
_cell_volume 2112.099034
_symmetry_space_group_name_H-M "C 2/C"
_symmetry_group_IT_number 15
_symmetry_cell_setting 'monoclinic'
loop_
_space_group_symop_operation_xyz
x,y,z
-x,y,1/2-z
-x,-y,-z
x,-y,1/2+z
1/2+x,1/2+y,z
1/2-x,1/2+y,1/2-z
1/2-x,1/2-y,-z
1/2+x,1/2-y,1/2+z
loop_
_atom_site_type_symbol
_atom_site_label
_atom_site_fract_x
_atom_site_fract_y
_atom_site_fract_z
Si Si1 0.407582 0.214087 0.346740
Si Si2 0.715798 0.270553 0.623906
Si Si3 0.900022 0.576690 0.168341
Si Si4 0.905125 0.991557 0.447756
Si Si5 0.277426 0.436839 0.586838
Si Si6 0.101422 0.769040 0.783816
O O1 0.395499 0.164249 0.254120
O O2 0.506887 0.140099 0.373041
O O3 0.413671 0.390062 0.368305
O O4 0.319246 0.146521 0.392949
O O5 0.802880 0.385872 0.624231
O O6 0.631045 0.342593 0.573375
O O7 0.675361 0.254283 0.712465
O O8 0.754320 0.112372 0.595587
O O9 0.910388 0.399324 0.181782
O O10 0.825190 0.915375 0.502059
O O11 0.000000 0.000000 0.500000
O O12 0.354473 0.381382 0.651834
O O13 0.000000 0.818277 0.750000
#
# Coordination Sequence:
#
# PCOD9304543 Si02
#       6
#     8   8   8   8   8   8
#     4  11  23  45  71 100 143 184 242 302 364 434
#     4  12  24  45  72 102 144 189 246 301 359 436
#     4  11  23  44  73 107 137 180 251 308 368 417
#     4  12  28  48  67 108 150 196 240 296 377 447
#     4  12  25  45  70 106 144 192 240 295 374 438
#     4  12  22  42  70 105 140 185 246 305 353 432
#
# _framework density 22.726206999999999
#
# number of rings (size 3 to 8) (size 9 to 14) (size 15 to 20)
#    0.000    0.333    5.000    4.000    2.333    0.000 
#    0.000    2.500    0.000    0.000    0.000    0.000 
#    0.000    0.000    0.000    0.000    0.000    0.000 
#
# Total GULP energy -134400.424568 kJ/mol
# GULP energy per Si atom -5600.017690 kJ/mol
# Density = 2.267448 g / cm^3
# Si number density = 22.726207 Si / 1000 Ang^3
#
#
#
# Elastic Constant Matrix: (Units=GPa)
#
#
# Indices 1 2 3 4 5 6 
#
# 1 130.4270 57.2545 13.8213 0.0000 0.4609 0.0000
# 2 57.2545 129.0340 45.3283 0.0000 20.7670 0.0000
# 3 13.8213 45.3283 48.5735 0.0000 3.1012 0.0000
# 4 0.0000 0.0000 0.0000 10.0785 0.0000 4.6400
# 5 0.4609 20.7670 3.1012 0.0000 30.9825 0.0000
# 6 0.0000 0.0000 0.0000 4.6400 0.0000 39.3926
#
#
#
# Elastic Compliance Matrix: (Units=1/GPa)
#
#
# Indices 1 2 3 4 5 6 
#
# 1 0.009957 -0.005816 0.002370 0.000000 0.003513 0.000000
# 2 -0.005816 0.016493 -0.013120 0.000000 -0.009655 0.000000
# 3 0.002370 -0.013120 0.031801 0.000000 0.005576 0.000000
# 4 0.000000 0.000000 0.000000 0.104910 0.000000 -0.012357
# 5 0.003513 -0.009655 0.005576 0.000000 0.038138 0.000000
# 6 0.000000 0.000000 0.000000 -0.012357 0.000000 0.026841
#
#
# Mechanical properties :
#
#
# Convention : Reuss Voigt Hill
#
# Bulk Modulus (GPa) = 39.81136 60.09363 49.95249
# Shear Modulus (GPa) = 18.54295 28.86609 23.70452
#
# Velocity S-wave (km/s) = 2.85954 3.56781 3.23313
# Velocity P-wave (km/s) = 5.33465 6.59334 5.99711
#
# Compressibility (1/GPa) = 0.02511846
#
# Stress axis : x y z
#
# Youngs Moduli (GPa) = 100.43615 60.63028 31.44585
#
# Poissons Ratio (x) = 0.35261 -0.07452
# Poissons Ratio (y) = 0.58411 0.41258
# Poissons Ratio (z) = -0.23802 0.79548
#
# Static dielectric constant tensor:
#      x y z
#    x 1.840750 0.000000 0.004040 
#    y 0.000000 1.831980 0.000000 
#    z 0.004040 0.000000 1.860060 
# 
# From -- ./inp_files/203028.got.cif
#   From: 2010.05.17/outbox.cif.g08.bks.cpg/sg15_102_cif.got.tgz:203028.got - 2010.06.03 18:47:42.
