data_PCOD9304072
_publ_section_title
;
Structure prediction by ZEFSAII (Michael W. Deem and Ramdas Pophale) SiO2 
 PCOD9304072
Probable space group: C 2/C
;
_chemical_formula_sum "Si O2"
_cell_formula_units_Z 48
_cell_length_a 20.238437
_cell_length_b 12.172555
_cell_length_c 11.188502
_cell_angle_alpha 90.000000
_cell_angle_beta 125.863443
_cell_angle_gamma 90.000000
_cell_volume 2233.769997
_symmetry_space_group_name_H-M "C 2/C"
_symmetry_group_IT_number 15
_symmetry_cell_setting 'monoclinic'
loop_
_space_group_symop_operation_xyz
x,y,z
-x,y,1/2-z
-x,-y,-z
x,-y,1/2+z
1/2+x,1/2+y,z
1/2-x,1/2+y,1/2-z
1/2-x,1/2-y,-z
1/2+x,1/2-y,1/2+z
loop_
_atom_site_type_symbol
_atom_site_label
_atom_site_fract_x
_atom_site_fract_y
_atom_site_fract_z
Si Si1 0.006704 0.823348 0.121248
Si Si2 0.281667 0.173996 0.639240
Si Si3 0.210399 0.578251 0.389824
Si Si4 0.310618 0.392843 0.221682
Si Si5 0.523641 0.074745 0.141141
Si Si6 0.348014 0.625554 0.334896
O O1 0.100715 0.840466 0.192220
O O2 0.982484 0.694512 0.088102
O O3 0.000000 0.859135 0.250000
O O4 0.939359 0.889975 0.977805
O O5 0.250000 0.250000 0.500000
O O6 0.221618 0.143176 0.683821
O O7 0.345231 0.256002 0.769557
O O8 0.301252 0.053888 0.609933
O O9 0.242670 0.629495 0.548205
O O10 0.119878 0.604588 0.248175
O O11 0.279887 0.613438 0.367762
O O12 0.325310 0.523679 0.227100
O O13 0.500000 0.029629 0.250000
O O14 0.500000 0.000000 0.000000
#
# Coordination Sequence:
#
# PCOD9304072 Si02
#       6
#     8   8   8   8   8   8
#     4  11  23  42  65  98 132 172 222 270 335 399
#     4  11  24  42  66  98 132 174 226 274 337 401
#     4  11  24  43  70  97 131 175 225 275 339 403
#     4  11  24  41  69  99 132 175 222 278 333 403
#     4  11  27  44  66  96 134 175 226 284 338 405
#     4  11  23  42  69  94 136 171 219 276 328 402
#
# _framework density 21.488334999999999
#
# number of rings (size 3 to 8) (size 9 to 14) (size 15 to 20)
#    0.000    1.000    3.333    2.500    9.333    2.667 
#    0.000    0.833    0.000    0.000    0.000    0.000 
#    0.000    0.000    0.000    0.000    0.000    0.000 
#
# Total GULP energy -133806.740137 kJ/mol
# GULP energy per Si atom -5575.280839 kJ/mol
# Density = 2.143943 g / cm^3
# Si number density = 21.488335 Si / 1000 Ang^3
#
#
#
# Elastic Constant Matrix: (Units=GPa)
#
#
# Indices 1 2 3 4 5 6 
#
# 1 45.8949 4.6890 47.2469 0.0000 9.2631 0.0000
# 2 4.6890 88.8608 28.1493 0.0000 -2.1303 0.0000
# 3 47.2469 28.1493 151.4574 0.0000 15.7964 0.0000
# 4 0.0000 0.0000 0.0000 39.7275 0.0000 5.9011
# 5 9.2631 -2.1303 15.7964 0.0000 31.2881 0.0000
# 6 0.0000 0.0000 0.0000 5.9011 0.0000 21.8885
#
#
#
# Elastic Compliance Matrix: (Units=1/GPa)
#
#
# Indices 1 2 3 4 5 6 
#
# 1 0.032909 0.001333 -0.010035 0.000000 -0.004586 0.000000
# 2 0.001333 0.012137 -0.002867 0.000000 0.001879 0.000000
# 3 -0.010035 -0.002867 0.010531 0.000000 -0.002541 0.000000
# 4 0.000000 0.000000 0.000000 0.026222 0.000000 -0.007069
# 5 -0.004586 0.001879 -0.002541 0.000000 0.034729 0.000000
# 6 0.000000 0.000000 0.000000 -0.007069 0.000000 0.047592
#
#
# Mechanical properties :
#
#
# Convention : Reuss Voigt Hill
#
# Bulk Modulus (GPa) = 30.82949 49.59818 40.21384
# Shear Modulus (GPa) = 25.24326 32.32268 28.78297
#
# Velocity S-wave (km/s) = 3.43117 3.88261 3.66385
# Velocity P-wave (km/s) = 5.48411 6.57503 6.05419
#
# Compressibility (1/GPa) = 0.03243647
#
# Stress axis : x y z
#
# Youngs Moduli (GPa) = 30.38643 82.39524 94.95786
#
# Poissons Ratio (x) = -0.10979 0.95294
# Poissons Ratio (y) = -0.04049 0.27228
# Poissons Ratio (z) = 0.30494 0.23626
#
# Static dielectric constant tensor:
#      x y z
#    x 1.756140 0.000000 -0.038490 
#    y 0.000000 1.843950 0.000000 
#    z -0.038490 0.000000 1.775170 
# 
# From -- ./inp_files/111775.got.cif
#   From: 2010.05.17/outbox.cif.g08.bks.cpg/sg15_56_cif.got.tgz:111775.got - 2010.06.03 18:47:42.
