data_PCOD9304940
_publ_section_title
;
Structure prediction by ZEFSAII (Michael W. Deem and Ramdas Pophale) SiO2 
 PCOD9304940
Probable space group: C 2/C
;
_chemical_formula_sum "Si O2"
_cell_formula_units_Z 32
_cell_length_a 20.287471
_cell_length_b 7.024745
_cell_length_c 14.030472
_cell_angle_alpha 90.000000
_cell_angle_beta 135.787361
_cell_angle_gamma 90.000000
_cell_volume 1394.327815
_symmetry_space_group_name_H-M "C 2/C"
_symmetry_group_IT_number 15
_symmetry_cell_setting 'monoclinic'
loop_
_space_group_symop_operation_xyz
x,y,z
-x,y,1/2-z
-x,-y,-z
x,-y,1/2+z
1/2+x,1/2+y,z
1/2-x,1/2+y,1/2-z
1/2-x,1/2-y,-z
1/2+x,1/2-y,1/2+z
loop_
_atom_site_type_symbol
_atom_site_label
_atom_site_fract_x
_atom_site_fract_y
_atom_site_fract_z
Si Si1 0.564359 0.958612 0.189358
Si Si2 0.775835 0.531939 0.011382
Si Si3 0.946878 0.802438 0.456999
Si Si4 0.743422 0.714906 0.649481
O O1 0.652317 0.863614 0.220205
O O2 0.615402 0.999235 0.342198
O O3 0.534540 0.155537 0.109748
O O4 0.483973 0.803697 0.090765
O O5 0.716725 0.413576 0.029344
O O6 0.750000 0.750000 0.000000
O O7 0.756213 0.428672 0.891609
O O8 0.834544 0.816495 0.352301
O O9 0.000000 0.000000 0.500000
#
# Coordination Sequence:
#
# PCOD9304940 Si02
#       4
#     8   8   8   8
#     4   9  23  39  58  90 122 152 209 254 297 381
#     4   9  20  40  65  87 118 168 199 248 319 355
#     4  11  24  38  61  93 123 165 203 250 319 362
#     4   9  22  39  62  88 125 156 210 253 297 378
#
# _framework density 22.950126000000001
#
# number of rings (size 3 to 8) (size 9 to 14) (size 15 to 20)
#    1.500    1.000    0.000    0.000    7.000    5.000 
#    0.000    0.000    0.000    0.000    0.000    0.000 
#    0.000    0.000    0.000    0.000    0.000    0.000 
#
# Total GULP energy -89227.069850 kJ/mol
# GULP energy per Si atom -5576.691866 kJ/mol
# Density = 2.289789 g / cm^3
# Si number density = 22.950126 Si / 1000 Ang^3
#
#
#
# Elastic Constant Matrix: (Units=GPa)
#
#
# Indices 1 2 3 4 5 6 
#
# 1 39.6997 36.2927 -0.2042 0.0000 1.9960 0.0000
# 2 36.2927 199.9454 56.4271 0.0000 -8.4456 0.0000
# 3 -0.2042 56.4271 91.0774 0.0000 2.8175 0.0000
# 4 0.0000 0.0000 0.0000 39.1824 0.0000 -0.8888
# 5 1.9960 -8.4456 2.8175 0.0000 23.6037 0.0000
# 6 0.0000 0.0000 0.0000 -0.8888 0.0000 16.7088
#
#
#
# Elastic Compliance Matrix: (Units=1/GPa)
#
#
# Indices 1 2 3 4 5 6 
#
# 1 0.032394 -0.007522 0.004919 0.000000 -0.006018 0.000000
# 2 -0.007522 0.007975 -0.005084 0.000000 0.004096 0.000000
# 3 0.004919 -0.005084 0.014262 0.000000 -0.003938 0.000000
# 4 0.000000 0.000000 0.000000 0.025553 0.000000 0.001359
# 5 -0.006018 0.004096 -0.003938 0.000000 0.044811 0.000000
# 6 0.000000 0.000000 0.000000 0.001359 0.000000 0.059921
#
#
# Mechanical properties :
#
#
# Convention : Reuss Voigt Hill
#
# Bulk Modulus (GPa) = 25.47372 57.30597 41.38984
# Shear Modulus (GPa) = 23.43290 31.77945 27.60618
#
# Velocity S-wave (km/s) = 3.19883 3.72522 3.47201
# Velocity P-wave (km/s) = 4.97665 6.59750 5.84355
#
# Compressibility (1/GPa) = 0.03925614
#
# Stress axis : x y z
#
# Youngs Moduli (GPa) = 30.87015 125.39738 70.11397
#
# Poissons Ratio (x) = 0.94329 -0.34491
# Poissons Ratio (y) = 0.23222 0.35648
# Poissons Ratio (z) = -0.15186 0.63756
#
# Static dielectric constant tensor:
#      x y z
#    x 1.926930 0.000000 -0.028310 
#    y 0.000000 1.852360 0.000000 
#    z -0.028310 0.000000 1.903540 
# 
# From -- ./inp_files/212784.got.cif
#   From: 2010.05.17/outbox.cif.g08.bks.cpg/sg15_107_cif.got.tgz:212784.got - 2010.06.03 18:47:42.
