data_PCOD9304558
_publ_section_title
;
Structure prediction by ZEFSAII (Michael W. Deem and Ramdas Pophale) SiO2 
 PCOD9304558
Probable space group: C 2/C
;
_chemical_formula_sum "Si O2"
_cell_formula_units_Z 60
_cell_length_a 12.024111
_cell_length_b 18.461999
_cell_length_c 18.171083
_cell_angle_alpha 90.000000
_cell_angle_beta 40.447553
_cell_angle_gamma 90.000000
_cell_volume 2616.923548
_symmetry_space_group_name_H-M "C 2/C"
_symmetry_group_IT_number 15
_symmetry_cell_setting 'monoclinic'
loop_
_space_group_symop_operation_xyz
x,y,z
-x,y,1/2-z
-x,-y,-z
x,-y,1/2+z
1/2+x,1/2+y,z
1/2-x,1/2+y,1/2-z
1/2-x,1/2-y,-z
1/2+x,1/2-y,1/2+z
loop_
_atom_site_type_symbol
_atom_site_label
_atom_site_fract_x
_atom_site_fract_y
_atom_site_fract_z
Si Si1 0.000000 0.174630 0.250000
Si Si2 0.833620 0.061931 0.877931
Si Si3 0.233721 0.729082 0.275462
Si Si4 0.883072 0.808876 0.463052
Si Si5 0.734504 0.589332 0.019985
Si Si6 0.798843 0.559425 0.828688
Si Si7 0.119076 0.364280 0.360759
Si Si8 0.306746 0.106579 0.314594
O O1 0.858613 0.222906 0.281354
O O2 0.910309 0.127199 0.358504
O O3 0.898715 0.128837 0.893656
O O4 0.690261 0.092941 0.894957
O O5 0.000000 0.034734 0.750000
O O6 0.760456 0.996069 0.962758
O O7 0.323676 0.780839 0.169458
O O8 0.197855 0.650148 0.259369
O O9 0.057388 0.765995 0.386415
O O10 0.750000 0.750000 0.500000
O O11 0.810710 0.849931 0.569825
O O12 0.706985 0.593253 0.946052
O O13 0.916824 0.624202 0.950962
O O14 0.790007 0.602692 0.757723
O O15 0.748104 0.476435 0.839432
O O16 0.000000 0.558362 0.750000
O O17 0.500000 0.108051 0.250000
#
# Coordination Sequence:
#
# PCOD9304558 Si02
#       8
#     4   8   8   8   8   8   8   8
#     4  12  32  48  70 102 154 202 252 292 360 450
#     4  12  24  46  73 113 142 181 241 311 376 427
#     4  12  29  48  70 110 148 197 242 301 369 444
#     4  12  25  44  76 108 149 183 239 313 377 430
#     4  11  25  49  74 105 146 194 249 297 356 445
#     4   9  22  45  73 106 139 190 240 303 362 428
#     4  11  26  45  77 101 150 194 242 300 371 439
#     4  11  23  44  74 111 144 183 243 306 367 432
#
# _framework density 22.927685
#
# number of rings (size 3 to 8) (size 9 to 14) (size 15 to 20)
#    0.000    0.800    4.667    1.200    8.400    1.600 
#    0.000    2.000    0.000    0.000    0.000    0.000 
#    0.000    0.000    0.000    0.000    0.000    0.000 
#
# Total GULP energy -168132.263081 kJ/mol
# GULP energy per Si atom -5604.408769 kJ/mol
# Density = 2.287550 g / cm^3
# Si number density = 22.927685 Si / 1000 Ang^3
#
#
#
# Elastic Constant Matrix: (Units=GPa)
#
#
# Indices 1 2 3 4 5 6 
#
# 1 104.9537 22.8299 29.6224 0.0008 -13.4011 -0.0004
# 2 22.8299 67.3674 28.4560 -0.0001 -12.4431 0.0000
# 3 29.6224 28.4560 115.6486 -0.0013 -1.1868 0.0005
# 4 0.0008 -0.0001 -0.0013 7.3709 -0.0001 3.5905
# 5 -13.4011 -12.4431 -1.1868 -0.0001 35.9260 0.0001
# 6 -0.0004 0.0000 0.0005 3.5905 0.0001 18.7654
#
#
#
# Elastic Compliance Matrix: (Units=1/GPa)
#
#
# Indices 1 2 3 4 5 6 
#
# 1 0.011062 -0.002185 -0.002262 -0.000002 0.003295 0.000001
# 2 -0.002185 0.018208 -0.003865 0.000000 0.005364 0.000000
# 3 -0.002262 -0.003865 0.010158 0.000002 -0.001847 -0.000001
# 4 -0.000002 0.000000 0.000002 0.149612 0.000000 -0.028626
# 5 0.003295 0.005364 -0.001847 0.000000 0.030861 0.000000
# 6 0.000001 0.000000 -0.000001 -0.028626 0.000000 0.058767
#
#
# Mechanical properties :
#
#
# Convention : Reuss Voigt Hill
#
# Bulk Modulus (GPa) = 43.85204 49.97626 46.91415
# Shear Modulus (GPa) = 16.50738 26.21657 21.36197
#
# Velocity S-wave (km/s) = 2.68615 3.38516 3.05571
# Velocity P-wave (km/s) = 5.36547 6.09292 5.74073
#
# Compressibility (1/GPa) = 0.02280396
#
# Stress axis : x y z
#
# Youngs Moduli (GPa) = 90.39572 54.92134 98.43985
#
# Poissons Ratio (x) = 0.11999 0.22269
# Poissons Ratio (y) = 0.19749 0.38052
# Poissons Ratio (z) = 0.20449 0.21230
#
# Static dielectric constant tensor:
#      x y z
#    x 1.843440 0.000000 0.053590 
#    y 0.000000 1.832780 0.000000 
#    z 0.053590 0.000000 1.958690 
# 
# From -- ./inp_files/200505.got.cif
#   From: 2010.05.17/outbox.cif.g08.bks.cpg/sg15_101_cif.got.tgz:200505.got - 2010.06.03 18:47:42.
