data_PCOD9304529
_publ_section_title
;
Structure prediction by ZEFSAII (Michael W. Deem and Ramdas Pophale) SiO2 
 PCOD9304529
Probable space group: C 2/C
;
_chemical_formula_sum "Si O2"
_cell_formula_units_Z 52
_cell_length_a 24.610302
_cell_length_b 6.158203
_cell_length_c 14.729689
_cell_angle_alpha 90.000000
_cell_angle_beta 113.962553
_cell_angle_gamma 90.000000
_cell_volume 2039.956694
_symmetry_space_group_name_H-M "C 2/C"
_symmetry_group_IT_number 15
_symmetry_cell_setting 'monoclinic'
loop_
_space_group_symop_operation_xyz
x,y,z
-x,y,1/2-z
-x,-y,-z
x,-y,1/2+z
1/2+x,1/2+y,z
1/2-x,1/2+y,1/2-z
1/2-x,1/2-y,-z
1/2+x,1/2-y,1/2+z
loop_
_atom_site_type_symbol
_atom_site_label
_atom_site_fract_x
_atom_site_fract_y
_atom_site_fract_z
Si Si1 0.000000 0.601455 0.250000
Si Si2 0.004152 0.742975 0.588765
Si Si3 0.878351 0.728575 0.553260
Si Si4 0.786282 0.026752 0.890114
Si Si5 0.180869 0.687787 0.246950
Si Si6 0.916952 0.973511 0.236135
Si Si7 0.620052 0.854576 0.070795
O O1 0.004730 0.450154 0.164415
O O2 0.055176 0.766289 0.295201
O O3 0.034279 0.947044 0.659049
O O4 0.050176 0.689476 0.540084
O O5 0.934573 0.789234 0.524178
O O6 0.901975 0.818480 0.664138
O O7 0.869071 0.483096 0.515595
O O8 0.816733 0.850120 0.493614
O O9 0.723080 0.912068 0.852189
O O10 0.837144 0.851660 0.899662
O O11 0.779658 0.204144 0.805568
O O12 0.141097 0.508731 0.168557
O O13 0.141199 0.880173 0.257690
#
# Coordination Sequence:
#
# PCOD9304529 Si02
#       7
#     4   8   8   8   8   8   8
#     4  12  22  40  70  94 136 182 216 270 332 398
#     4  12  23  43  69 100 137 185 221 267 344 411
#     4  11  26  41  63 110 144 164 223 286 340 396
#     4  11  24  43  69  95 136 175 232 287 322 399
#     4  11  23  44  72  94 126 186 237 269 333 405
#     4  12  24  43  70 101 135 178 228 274 333 413
#     4  11  24  42  69  99 131 184 224 280 338 394
#
# _framework density 25.490736999999999
#
# number of rings (size 3 to 8) (size 9 to 14) (size 15 to 20)
#    0.000    0.615    7.692    0.462    2.154    1.231 
#    0.000    0.769    0.000    0.000    0.000    0.000 
#    0.000    0.000    0.000    0.000    0.000    0.000 
#
# Total GULP energy -145541.701370 kJ/mol
# GULP energy per Si atom -5597.757745 kJ/mol
# Density = 2.543272 g / cm^3
# Si number density = 25.490737 Si / 1000 Ang^3
#
#
#
# Elastic Constant Matrix: (Units=GPa)
#
#
# Indices 1 2 3 4 5 6 
#
# 1 40.4087 5.6671 14.5598 0.0000 14.5743 0.0000
# 2 5.6671 74.9304 33.8036 0.0000 -2.4431 0.0000
# 3 14.5598 33.8036 83.4021 0.0000 25.7124 0.0000
# 4 0.0000 0.0000 0.0000 35.1775 0.0000 1.9353
# 5 14.5743 -2.4431 25.7124 0.0000 39.2630 0.0000
# 6 0.0000 0.0000 0.0000 1.9353 0.0000 39.2858
#
#
#
# Elastic Compliance Matrix: (Units=1/GPa)
#
#
# Indices 1 2 3 4 5 6 
#
# 1 0.029114 -0.002033 -0.001112 0.000000 -0.010205 0.000000
# 2 -0.002033 0.018016 -0.009429 0.000000 0.008050 0.000000
# 3 -0.001112 -0.009429 0.020122 0.000000 -0.013351 0.000000
# 4 0.000000 0.000000 0.000000 0.028505 0.000000 -0.001404
# 5 -0.010205 0.008050 -0.013351 0.000000 0.038502 0.000000
# 6 0.000000 0.000000 0.000000 -0.001404 0.000000 0.025524
#
#
# Mechanical properties :
#
#
# Convention : Reuss Voigt Hill
#
# Bulk Modulus (GPa) = 23.75124 34.08913 28.92019
# Shear Modulus (GPa) = 25.13019 32.39262 28.76140
#
# Velocity S-wave (km/s) = 3.14324 3.56864 3.36267
# Velocity P-wave (km/s) = 4.74459 5.51203 5.14264
#
# Compressibility (1/GPa) = 0.04210306
#
# Stress axis : x y z
#
# Youngs Moduli (GPa) = 34.34809 55.50733 49.69675
#
# Poissons Ratio (x) = 0.11283 0.05529
# Poissons Ratio (y) = 0.06982 0.46859
# Poissons Ratio (z) = 0.03821 0.52337
#
# Static dielectric constant tensor:
#      x y z
#    x 2.012550 0.000000 -0.017170 
#    y 0.000000 2.001730 0.000000 
#    z -0.017170 0.000000 2.002750 
# 
# From -- ./inp_files/221373.got.cif
#   From: 2010.05.17/outbox.cif.g08.bks.cpg/sg15_111_cif.got.tgz:221373.got - 2010.06.03 18:47:42.
