data_PCOD9304376
_publ_section_title
;
Structure prediction by ZEFSAII (Michael W. Deem and Ramdas Pophale) SiO2 
 PCOD9304376
Probable space group: C 2/C
;
_chemical_formula_sum "Si O2"
_cell_formula_units_Z 36
_cell_length_a 13.759981
_cell_length_b 9.811414
_cell_length_c 24.743144
_cell_angle_alpha 90.000000
_cell_angle_beta 28.559926
_cell_angle_gamma 90.000000
_cell_volume 1596.992100
_symmetry_space_group_name_H-M "C 2/C"
_symmetry_group_IT_number 15
_symmetry_cell_setting 'monoclinic'
loop_
_space_group_symop_operation_xyz
x,y,z
-x,y,1/2-z
-x,-y,-z
x,-y,1/2+z
1/2+x,1/2+y,z
1/2-x,1/2+y,1/2-z
1/2-x,1/2-y,-z
1/2+x,1/2-y,1/2+z
loop_
_atom_site_type_symbol
_atom_site_label
_atom_site_fract_x
_atom_site_fract_y
_atom_site_fract_z
Si Si1 0.443276 0.611257 0.686694
Si Si2 0.696421 0.364173 0.821271
Si Si3 0.732375 0.268781 0.444548
Si Si4 0.234795 0.477458 0.399741
Si Si5 0.500000 0.981211 0.250000
O O1 0.393947 0.487165 0.670635
O O2 0.327935 0.749630 0.724791
O O3 0.680055 0.612461 0.590906
O O4 0.333582 0.576554 0.796838
O O5 0.850147 0.427110 0.788724
O O6 0.506014 0.299631 0.946054
O O7 0.750000 0.250000 0.500000
O O8 0.801307 0.129743 0.383218
O O9 0.869565 0.388307 0.354266
O O10 0.000000 0.500000 0.500000
#
# Coordination Sequence:
#
# PCOD9304376 Si02
#       5
#     8   8   8   8   4
#     4  11  25  45  72 106 144 192 237 299 359 426
#     4  12  26  47  72 106 147 189 245 297 359 433
#     4  12  25  48  73 107 145 191 240 297 367 426
#     4  11  23  43  73 101 142 191 238 291 359 427
#     4  12  28  46  72 106 146 192 240 304 358 432
#
# _framework density 22.542379
#
# number of rings (size 3 to 8) (size 9 to 14) (size 15 to 20)
#    0.000    0.444    4.444    4.667    3.111    0.000 
#    0.000    2.222    0.000    0.000    0.000    0.000 
#    0.000    0.000    0.000    0.000    0.000    0.000 
#
# Total GULP energy -100593.209759 kJ/mol
# GULP energy per Si atom -5588.511653 kJ/mol
# Density = 2.249107 g / cm^3
# Si number density = 22.542379 Si / 1000 Ang^3
#
#
#
# Elastic Constant Matrix: (Units=GPa)
#
#
# Indices 1 2 3 4 5 6 
#
# 1 106.1144 17.7966 26.7309 0.0000 -23.5451 0.0000
# 2 17.7966 88.5183 24.2498 -0.0001 2.0620 0.0000
# 3 26.7309 24.2498 84.4628 -0.0007 -28.5712 -0.0001
# 4 0.0000 -0.0001 -0.0007 35.0073 0.0002 -4.4636
# 5 -23.5451 2.0620 -28.5712 0.0002 37.7933 0.0000
# 6 0.0000 0.0000 -0.0001 -4.4636 0.0000 34.3962
#
#
#
# Elastic Compliance Matrix: (Units=1/GPa)
#
#
# Indices 1 2 3 4 5 6 
#
# 1 0.011478 -0.002274 -0.000697 0.000000 0.006748 0.000000
# 2 -0.002274 0.013302 -0.005138 0.000000 -0.006027 0.000000
# 3 -0.000697 -0.005138 0.018116 0.000000 0.013541 0.000000
# 4 0.000000 0.000000 0.000000 0.029046 0.000000 0.003769
# 5 0.006748 -0.006027 0.013541 0.000000 0.041229 0.000000
# 6 0.000000 0.000000 0.000000 0.003769 0.000000 0.029562
#
#
# Mechanical properties :
#
#
# Convention : Reuss Voigt Hill
#
# Bulk Modulus (GPa) = 37.48428 46.29445 41.88937
# Shear Modulus (GPa) = 29.78940 35.46059 32.62500
#
# Velocity S-wave (km/s) = 3.63917 3.97049 3.80843
# Velocity P-wave (km/s) = 5.85854 6.44988 6.16131
#
# Compressibility (1/GPa) = 0.02667785
#
# Stress axis : x y z
#
# Youngs Moduli (GPa) = 87.12343 75.17520 55.19969
#
# Poissons Ratio (x) = 0.17094 0.03848
# Poissons Ratio (y) = 0.19810 0.28363
# Poissons Ratio (z) = 0.06074 0.38627
#
# Static dielectric constant tensor:
#      x y z
#    x 1.929540 0.000000 -0.154450 
#    y 0.000000 1.859310 0.000000 
#    z -0.154450 0.000000 1.942780 
# 
# From -- ./inp_files/177047.got.cif
#   From: 2010.05.17/outbox.cif.g08.bks.cpg/sg15_89_cif.got.tgz:177047.got - 2010.06.03 18:47:42.
