data_PCOD9304142
_publ_section_title
;
Structure prediction by ZEFSAII (Michael W. Deem and Ramdas Pophale) SiO2 
 PCOD9304142
Probable space group: C 2/C
;
_chemical_formula_sum "Si O2"
_cell_formula_units_Z 64
_cell_length_a 17.488586
_cell_length_b 8.677917
_cell_length_c 28.902514
_cell_angle_alpha 90.000000
_cell_angle_beta 136.416066
_cell_angle_gamma 90.000000
_cell_volume 3024.039464
_symmetry_space_group_name_H-M "C 2/C"
_symmetry_group_IT_number 15
_symmetry_cell_setting 'monoclinic'
loop_
_space_group_symop_operation_xyz
x,y,z
-x,y,1/2-z
-x,-y,-z
x,-y,1/2+z
1/2+x,1/2+y,z
1/2-x,1/2+y,1/2-z
1/2-x,1/2-y,-z
1/2+x,1/2-y,1/2+z
loop_
_atom_site_type_symbol
_atom_site_label
_atom_site_fract_x
_atom_site_fract_y
_atom_site_fract_z
Si Si1 0.044828 0.590670 0.953798
Si Si2 0.764214 0.398888 0.596572
Si Si3 0.338645 0.906979 0.215231
Si Si4 0.051316 0.048428 0.472601
Si Si5 0.388191 0.396318 0.327886
Si Si6 0.178612 0.426325 0.087559
Si Si7 0.993304 0.592296 0.151530
Si Si8 0.391362 0.442986 0.729608
O O1 0.066582 0.768906 0.974433
O O2 0.035533 0.545586 0.896395
O O3 0.925869 0.552870 0.924504
O O4 0.136765 0.487273 0.019714
O O5 0.794396 0.530816 0.646902
O O6 0.669836 0.464591 0.521524
O O7 0.712295 0.251964 0.599543
O O8 0.877215 0.350049 0.621156
O O9 0.233806 0.893027 0.203578
O O10 0.394248 0.740476 0.236916
O O11 0.426598 0.028211 0.273673
O O12 0.000000 0.000000 0.500000
O O13 0.967127 0.992292 0.396550
O O14 0.441294 0.227227 0.346060
O O15 0.383968 0.473620 0.275696
O O16 0.282599 0.518554 0.152388
O O17 0.500000 0.497215 0.750000
#
# Coordination Sequence:
#
# PCOD9304142 Si02
#       8
#     8   8   8   8   8   8   8   8
#     4  11  24  42  69 100 130 177 227 283 332 410
#     4  12  25  44  70  99 141 181 221 289 346 402
#     4  12  24  45  69  96 138 183 228 276 334 412
#     4  12  24  45  71 100 134 177 235 280 338 409
#     4  12  25  44  72  98 135 181 230 278 336 411
#     4  11  23  42  69  96 135 176 227 272 342 405
#     4  12  27  43  67 106 138 175 230 284 349 406
#     4  12  26  43  67 101 138 175 221 281 343 401
#
# _framework density 21.163744999999999
#
# number of rings (size 3 to 8) (size 9 to 14) (size 15 to 20)
#    0.000    0.250    2.500    7.125    1.750    3.500 
#    0.000    0.000    0.000    0.000    0.000    0.000 
#    0.000    0.000    0.000    0.000    0.000    0.000 
#
# Total GULP energy -179256.293366 kJ/mol
# GULP energy per Si atom -5601.759168 kJ/mol
# Density = 2.111558 g / cm^3
# Si number density = 21.163745 Si / 1000 Ang^3
#
#
#
# Elastic Constant Matrix: (Units=GPa)
#
#
# Indices 1 2 3 4 5 6 
#
# 1 64.3127 -11.2505 31.5580 0.0000 17.9676 0.0000
# 2 -11.2505 57.8756 -12.6067 0.0000 -2.4341 0.0000
# 3 31.5580 -12.6067 95.0880 0.0000 18.7000 0.0000
# 4 0.0000 0.0000 0.0000 42.6936 0.0000 -4.1999
# 5 17.9676 -2.4341 18.7000 0.0000 30.0927 0.0000
# 6 0.0000 0.0000 0.0000 -4.1999 0.0000 57.9015
#
#
#
# Elastic Compliance Matrix: (Units=1/GPa)
#
#
# Indices 1 2 3 4 5 6 
#
# 1 0.020960 0.002643 -0.004770 0.000000 -0.009337 0.000000
# 2 0.002643 0.018126 0.001763 0.000000 -0.001208 0.000000
# 3 -0.004770 0.001763 0.013380 0.000000 -0.005324 0.000000
# 4 0.000000 0.000000 0.000000 0.023591 0.000000 0.001711
# 5 -0.009337 -0.001208 -0.005324 0.000000 0.042016 0.000000
# 6 0.000000 0.000000 0.000000 0.001711 0.000000 0.017395
#
#
# Mechanical properties :
#
#
# Convention : Reuss Voigt Hill
#
# Bulk Modulus (GPa) = 19.32758 25.85309 22.59033
# Shear Modulus (GPa) = 32.58556 40.10926 36.34741
#
# Velocity S-wave (km/s) = 3.92814 4.35810 4.14869
# Velocity P-wave (km/s) = 5.45215 6.12913 5.80053
#
# Compressibility (1/GPa) = 0.05173952
#
# Stress axis : x y z
#
# Youngs Moduli (GPa) = 47.70886 55.17083 74.73601
#
# Poissons Ratio (x) = -0.14581 0.35647
# Poissons Ratio (y) = -0.12609 -0.13179
# Poissons Ratio (z) = 0.22756 -0.09729
#
# Static dielectric constant tensor:
#      x y z
#    x 1.755420 0.000000 0.004220 
#    y 0.000000 1.744490 0.000000 
#    z 0.004220 0.000000 1.711160 
# 
# From -- ./inp_files/315735.got.cif
#   From: 2010.05.17/outbox.cif.g08.bks.cpg/sg15_158_cif.got.tgz:315735.got - 2010.06.03 18:47:42.
