data_PCOD9304828
_publ_section_title
;
Structure prediction by ZEFSAII (Michael W. Deem and Ramdas Pophale) SiO2 
 PCOD9304828
Probable space group: C 2/C
;
_chemical_formula_sum "Si O2"
_cell_formula_units_Z 40
_cell_length_a 18.845779
_cell_length_b 22.278605
_cell_length_c 9.470972
_cell_angle_alpha 90.000000
_cell_angle_beta 152.219327
_cell_angle_gamma 90.000000
_cell_volume 1853.381285
_symmetry_space_group_name_H-M "C 2/C"
_symmetry_group_IT_number 15
_symmetry_cell_setting 'monoclinic'
loop_
_space_group_symop_operation_xyz
x,y,z
-x,y,1/2-z
-x,-y,-z
x,-y,1/2+z
1/2+x,1/2+y,z
1/2-x,1/2+y,1/2-z
1/2-x,1/2-y,-z
1/2+x,1/2-y,1/2+z
loop_
_atom_site_type_symbol
_atom_site_label
_atom_site_fract_x
_atom_site_fract_y
_atom_site_fract_z
Si Si1 0.288934 0.588634 0.732657
Si Si2 0.383419 0.793306 0.673602
Si Si3 0.888527 0.104163 0.231324
Si Si4 0.896780 0.475092 0.186419
Si Si5 0.925153 0.240137 0.273691
O O1 0.199831 0.645833 0.515168
O O2 0.177291 0.533302 0.517972
O O3 0.339406 0.605071 0.979985
O O4 0.452451 0.571304 0.954218
O O5 0.500000 0.774934 0.750000
O O6 0.250000 0.750000 0.500000
O O7 0.493703 0.794035 0.001154
O O8 0.938413 0.172237 0.357108
O O9 0.742319 0.070395 0.033287
O O10 0.000000 0.444870 0.250000
O O11 0.000000 0.500000 0.500000
O O12 0.000000 0.238733 0.250000
O O13 0.750000 0.250000 0.000000
#
# Coordination Sequence:
#
# PCOD9304828 Si02
#       5
#     8   8   8   8   8
#     4  11  23  47  74  97 143 195 232 294 365 433
#     4  12  24  45  72 107 143 187 241 292 365 432
#     4  11  23  47  71 101 143 193 238 285 371 436
#     4  12  26  46  73 109 139 184 243 302 367 432
#     4  12  25  45  72 106 145 191 237 297 362 430
#
# _framework density 21.582177000000001
#
# number of rings (size 3 to 8) (size 9 to 14) (size 15 to 20)
#    0.000    0.400    6.000    3.600    2.800    0.800 
#    3.600    0.000    0.000    0.000    0.000    0.000 
#    0.000    0.000    0.000    0.000    0.000    0.000 
#
# Total GULP energy -111361.026893 kJ/mol
# GULP energy per Si atom -5568.051345 kJ/mol
# Density = 2.153305 g / cm^3
# Si number density = 21.582177 Si / 1000 Ang^3
#
#
#
# Elastic Constant Matrix: (Units=GPa)
#
#
# Indices 1 2 3 4 5 6 
#
# 1 141.6853 42.9393 46.1664 0.0000 43.6941 0.0000
# 2 42.9393 70.1299 25.9866 0.0000 8.7388 0.0000
# 3 46.1664 25.9866 136.1055 0.0000 28.9488 0.0000
# 4 0.0000 0.0000 0.0000 38.2751 0.0000 12.4456
# 5 43.6941 8.7388 28.9488 0.0000 42.7786 0.0000
# 6 0.0000 0.0000 0.0000 12.4456 0.0000 8.5127
#
#
#
# Elastic Compliance Matrix: (Units=1/GPa)
#
#
# Indices 1 2 3 4 5 6 
#
# 1 0.012542 -0.006022 -0.000749 0.000000 -0.011073 0.000000
# 2 -0.006022 0.018303 -0.002295 0.000000 0.003965 0.000000
# 3 -0.000749 -0.002295 0.009085 0.000000 -0.004914 0.000000
# 4 0.000000 0.000000 0.000000 0.049802 0.000000 -0.072811
# 5 -0.011073 0.003965 -0.004914 0.000000 0.037201 0.000000
# 6 0.000000 0.000000 0.000000 -0.072811 0.000000 0.223922
#
#
# Mechanical properties :
#
#
# Convention : Reuss Voigt Hill
#
# Bulk Modulus (GPa) = 45.87848 64.23393 55.05620
# Shear Modulus (GPa) = 13.28894 33.43517 23.36206
#
# Velocity S-wave (km/s) = 2.48410 3.94026 3.29366
# Velocity P-wave (km/s) = 5.43428 7.10830 6.32690
#
# Compressibility (1/GPa) = 0.02179671
#
# Stress axis : x y z
#
# Youngs Moduli (GPa) = 79.73373 54.63675 110.07498
#
# Poissons Ratio (x) = 0.32900 0.08247
# Poissons Ratio (y) = 0.48013 0.25266
# Poissons Ratio (z) = 0.05974 0.12541
#
# Static dielectric constant tensor:
#      x y z
#    x 1.916300 0.000000 0.042480 
#    y 0.000000 2.163160 0.000000 
#    z 0.042480 0.000000 1.912310 
# 
# From -- ./inp_files/52256.got.cif
#   From: 2010.05.17/outbox.cif.g08.bks.cpg/sg15_27_cif.got.tgz:52256.got - 2010.06.03 18:47:42.
