data_PCOD9304198
_publ_section_title
;
Structure prediction by ZEFSAII (Michael W. Deem and Ramdas Pophale) SiO2 
 PCOD9304198
Probable space group: C 2/C
;
_chemical_formula_sum "Si O2"
_cell_formula_units_Z 56
_cell_length_a 19.136741
_cell_length_b 13.005450
_cell_length_c 17.247728
_cell_angle_alpha 90.000000
_cell_angle_beta 31.370323
_cell_angle_gamma 90.000000
_cell_volume 2234.612744
_symmetry_space_group_name_H-M "C 2/C"
_symmetry_group_IT_number 15
_symmetry_cell_setting 'monoclinic'
loop_
_space_group_symop_operation_xyz
x,y,z
-x,y,1/2-z
-x,-y,-z
x,-y,1/2+z
1/2+x,1/2+y,z
1/2-x,1/2+y,1/2-z
1/2-x,1/2-y,-z
1/2+x,1/2-y,1/2+z
loop_
_atom_site_type_symbol
_atom_site_label
_atom_site_fract_x
_atom_site_fract_y
_atom_site_fract_z
Si Si1 0.150114 0.391840 0.093618
Si Si2 0.884217 0.580920 0.269054
Si Si3 0.000000 0.500000 0.000000
Si Si4 0.934742 0.240185 0.093067
Si Si5 0.087953 0.104844 0.528787
Si Si6 0.569750 0.379400 0.600726
Si Si7 0.827015 0.629655 0.109260
Si Si8 0.000000 0.766315 0.250000
O O1 0.138734 0.509202 0.133788
O O2 0.000000 0.347918 0.250000
O O3 0.273587 0.355268 0.030446
O O4 0.188250 0.377057 0.968310
O O5 0.975937 0.525285 0.119767
O O6 0.742813 0.597322 0.363227
O O7 0.929603 0.690675 0.256609
O O8 0.831234 0.516196 0.140487
O O9 0.778258 0.214255 0.258994
O O10 0.010221 0.201414 0.097785
O O11 0.974521 0.173095 0.980454
O O12 0.011811 0.351766 0.012945
O O13 0.085058 0.160609 0.614489
O O14 0.040638 0.988889 0.587242
O O15 0.500000 0.382617 0.750000
#
# Coordination Sequence:
#
# PCOD9304198 Si02
#       8
#     8   8   4   8   8   8   8   4
#     4  11  23  44  72 103 140 191 254 297 374 449
#     4  11  23  42  73 107 139 196 251 311 375 452
#     4  12  22  48  74 102 152 192 256 304 376 454
#     4  12  28  48  71 111 148 192 253 308 380 449
#     4  11  25  44  70 104 149 189 249 304 380 453
#     4  11  24  48  70 102 143 195 243 305 373 447
#     4  12  27  47  73 108 148 196 246 316 373 456
#     4  12  22  44  70 108 148 192 246 314 382 458
#
# _framework density 25.060271
#
# number of rings (size 3 to 8) (size 9 to 14) (size 15 to 20)
#    0.000    0.571    5.714    1.714    2.000    1.143 
#    2.571    0.000    0.000    0.000    0.000    0.000 
#    0.000    0.000    0.000    0.000    0.000    0.000 
#
# Total GULP energy -156051.122102 kJ/mol
# GULP energy per Si atom -5573.254361 kJ/mol
# Density = 2.500323 g / cm^3
# Si number density = 25.060271 Si / 1000 Ang^3
#
#
#
# Elastic Constant Matrix: (Units=GPa)
#
#
# Indices 1 2 3 4 5 6 
#
# 1 105.9023 34.5575 36.6337 0.0000 14.3392 0.0000
# 2 34.5575 95.6769 21.7321 0.0000 13.7855 0.0000
# 3 36.6337 21.7321 115.0442 0.0000 7.0847 0.0000
# 4 0.0000 0.0000 0.0000 -189.3811 0.0000 12.5608
# 5 14.3392 13.7855 7.0847 0.0000 52.3753 0.0000
# 6 0.0000 0.0000 0.0000 12.5608 0.0000 71.7811
#
#
#
# Elastic Compliance Matrix: (Units=1/GPa)
#
#
# Indices 1 2 3 4 5 6 
#
# 1 0.011832 -0.003305 -0.003023 0.000000 -0.001961 0.000000
# 2 -0.003305 0.012211 -0.001122 0.000000 -0.002158 0.000000
# 3 -0.003023 -0.001122 0.009880 0.000000 -0.000214 0.000000
# 4 0.000000 0.000000 0.000000 -0.005220 0.000000 0.000913
# 5 -0.001961 -0.002158 -0.000214 0.000000 0.020227 0.000000
# 6 0.000000 0.000000 0.000000 0.000913 0.000000 0.013771
#
#
# Mechanical properties :
#
#
# Convention : Reuss Voigt Hill
#
# Bulk Modulus (GPa) = 52.56145 55.82999 54.19572
# Shear Modulus (GPa) = 59.56590 1.86839 30.71714
#
# Velocity S-wave (km/s) = 4.88064 0.86439 3.50484
# Velocity P-wave (km/s) = 7.26501 4.82938 6.16860
#
# Compressibility (1/GPa) = 0.01902535
#
# Stress axis : x y z
#
# Youngs Moduli (GPa) = 84.51585 81.89314 101.21593
#
# Poissons Ratio (x) = 0.27062 0.30595
# Poissons Ratio (y) = 0.27929 0.11352
# Poissons Ratio (z) = 0.25547 0.09185
#
# Static dielectric constant tensor:
#      x y z
#    x 1.910130 0.000000 -0.041530 
#    y 0.000000 2.612090 0.000000 
#    z -0.041530 0.000000 2.082320 
# 
# From -- ./inp_files/215750.got.cif
#   From: 2010.05.17/outbox.cif.g08.bks.cpg/sg15_108_cif.got.tgz:215750.got - 2010.06.03 18:47:42.
