data_PCOD9304626
_publ_section_title
;
Structure prediction by ZEFSAII (Michael W. Deem and Ramdas Pophale) SiO2 
 PCOD9304626
Probable space group: C 2/C
;
_chemical_formula_sum "Si O2"
_cell_formula_units_Z 64
_cell_length_a 8.999638
_cell_length_b 17.544983
_cell_length_c 19.696691
_cell_angle_alpha 90.000000
_cell_angle_beta 90.242074
_cell_angle_gamma 90.000000
_cell_volume 3110.050121
_symmetry_space_group_name_H-M "C 2/C"
_symmetry_group_IT_number 15
_symmetry_cell_setting 'monoclinic'
loop_
_space_group_symop_operation_xyz
x,y,z
-x,y,1/2-z
-x,-y,-z
x,-y,1/2+z
1/2+x,1/2+y,z
1/2-x,1/2+y,1/2-z
1/2-x,1/2-y,-z
1/2+x,1/2-y,1/2+z
loop_
_atom_site_type_symbol
_atom_site_label
_atom_site_fract_x
_atom_site_fract_y
_atom_site_fract_z
Si Si1 0.650310 0.507840 0.862689
Si Si2 0.859746 0.745752 0.937176
Si Si3 0.327620 0.739269 0.820055
Si Si4 0.823601 0.684735 0.545967
Si Si5 0.643648 0.680226 0.827775
Si Si6 0.178019 0.488790 0.495443
Si Si7 0.649498 0.587258 0.116351
Si Si8 0.322499 0.095163 0.259205
O O1 0.606536 0.593599 0.844021
O O2 0.499988 0.459695 0.869960
O O3 0.751944 0.471881 0.803832
O O4 0.742865 0.506580 0.932871
O O5 0.777738 0.706229 0.874572
O O6 0.897289 0.831325 0.914378
O O7 0.001406 0.697377 0.958113
O O8 0.750000 0.750000 0.000000
O O9 0.227943 0.703409 0.877935
O O10 0.500068 0.732580 0.842470
O O11 0.317819 0.691745 0.750661
O O12 0.293691 0.826174 0.800180
O O13 0.750000 0.750000 0.500000
O O14 0.786850 0.599223 0.523378
O O15 0.248617 0.542705 0.437828
O O16 0.000000 0.500000 0.500000
O O17 0.741611 0.598544 0.186158
O O18 0.500000 0.087282 0.250000
#
# Coordination Sequence:
#
# PCOD9304626 Si02
#       8
#     8   8   8   8   8   8   8   8
#     4  12  27  44  71 102 140 177 234 284 347 409
#     4  12  24  44  69 101 136 179 231 280 339 404
#     4  11  23  45  70  97 137 175 234 272 347 405
#     4  12  26  43  72 101 137 184 230 286 340 408
#     4  11  24  45  69 100 133 185 220 287 338 406
#     4  12  26  48  68 103 143 185 230 286 349 416
#     4  12  25  44  71 101 138 182 230 287 344 409
#     4  12  24  45  69 101 136 184 224 285 350 417
#
# _framework density 20.578446
#
# number of rings (size 3 to 8) (size 9 to 14) (size 15 to 20)
#    0.000    0.250    2.500    7.500    5.250    0.500 
#    0.000    0.000    0.000    0.000    0.000    0.000 
#    0.000    0.000    0.000    0.000    0.000    0.000 
#
# Total GULP energy -179241.347989 kJ/mol
# GULP energy per Si atom -5601.292125 kJ/mol
# Density = 2.053161 g / cm^3
# Si number density = 20.578446 Si / 1000 Ang^3
#
#
#
# Elastic Constant Matrix: (Units=GPa)
#
#
# Indices 1 2 3 4 5 6 
#
# 1 55.9139 -28.8050 0.6775 0.0000 2.3803 0.0000
# 2 -28.8050 85.6425 -17.4348 0.0000 2.8504 0.0000
# 3 0.6775 -17.4348 43.9290 0.0000 -3.5438 0.0000
# 4 0.0000 0.0000 0.0000 40.9173 0.0000 -0.2159
# 5 2.3803 2.8504 -3.5438 0.0000 44.1124 0.0000
# 6 0.0000 0.0000 0.0000 -0.2159 0.0000 30.1264
#
#
#
# Elastic Compliance Matrix: (Units=1/GPa)
#
#
# Indices 1 2 3 4 5 6 
#
# 1 0.022046 0.008019 0.002722 0.000000 -0.001489 0.000000
# 2 0.008019 0.015627 0.006001 0.000000 -0.000960 0.000000
# 3 0.002722 0.006001 0.025224 0.000000 0.001492 0.000000
# 4 0.000000 0.000000 0.000000 0.024440 0.000000 0.000175
# 5 -0.001489 -0.000960 0.001492 0.000000 0.022932 0.000000
# 6 0.000000 0.000000 0.000000 0.000175 0.000000 0.033195
#
#
# Mechanical properties :
#
#
# Convention : Reuss Voigt Hill
#
# Bulk Modulus (GPa) = 10.37542 10.48452 10.42997
# Shear Modulus (GPa) = 35.18480 38.43440 36.80960
#
# Velocity S-wave (km/s) = 4.13945 4.32638 4.23394
# Velocity P-wave (km/s) = 5.28200 5.48295 5.38341
#
# Compressibility (1/GPa) = 0.09638166
#
# Stress axis : x y z
#
# Youngs Moduli (GPa) = 45.35957 63.99134 39.64469
#
# Poissons Ratio (x) = -0.51313 -0.10793
# Poissons Ratio (y) = -0.36373 -0.23791
# Poissons Ratio (z) = -0.12349 -0.38401
#
# Static dielectric constant tensor:
#      x y z
#    x 1.683530 0.000000 0.023750 
#    y 0.000000 1.751240 0.000000 
#    z 0.023750 0.000000 1.671290 
# 
# From -- ./inp_files/232693.got.cif
#   From: 2010.05.17/outbox.cif.g08.bks.cpg/sg15_117_cif.got.tgz:232693.got - 2010.06.03 18:47:42.
