data_PCOD9304000
_publ_section_title
;
Structure prediction by ZEFSAII (Michael W. Deem and Ramdas Pophale) SiO2 
 PCOD9304000
Probable space group: C 2/C
;
_chemical_formula_sum "Si O2"
_cell_formula_units_Z 56
_cell_length_a 21.220371
_cell_length_b 11.550063
_cell_length_c 10.486459
_cell_angle_alpha 90.000000
_cell_angle_beta 57.248038
_cell_angle_gamma 90.000000
_cell_volume 2161.587222
_symmetry_space_group_name_H-M "C 2/C"
_symmetry_group_IT_number 15
_symmetry_cell_setting 'monoclinic'
loop_
_space_group_symop_operation_xyz
x,y,z
-x,y,1/2-z
-x,-y,-z
x,-y,1/2+z
1/2+x,1/2+y,z
1/2-x,1/2+y,1/2-z
1/2-x,1/2-y,-z
1/2+x,1/2-y,1/2+z
loop_
_atom_site_type_symbol
_atom_site_label
_atom_site_fract_x
_atom_site_fract_y
_atom_site_fract_z
Si Si1 0.914391 0.786762 0.523712
Si Si2 0.413222 0.874119 0.799032
Si Si3 0.421747 0.136407 0.762098
Si Si4 0.828559 0.807620 0.031904
Si Si5 0.779223 0.973880 0.429464
Si Si6 0.742007 0.381922 0.779055
Si Si7 0.079275 0.151273 0.846810
O O1 0.882046 0.705249 0.446910
O O2 0.932660 0.696529 0.615131
O O3 0.847717 0.870574 0.635650
O O4 0.991017 0.858142 0.412809
O O5 0.500000 0.880169 0.750000
O O6 0.408685 0.789888 0.684220
O O7 0.393890 0.004909 0.789127
O O8 0.500000 0.138454 0.750000
O O9 0.363552 0.213050 0.902104
O O10 0.775059 0.737642 0.187238
O O11 0.895730 0.868575 0.036308
O O12 0.789965 0.904870 0.990422
O O13 0.739175 0.010656 0.338707
O O14 0.743888 0.897493 0.584208
O O15 0.860009 0.917042 0.304945
#
# Coordination Sequence:
#
# PCOD9304000 Si02
#       7
#     8   8   8   8   8   8   8
#     4  11  23  45  71 107 145 195 241 306 371 433
#     4   9  22  39  67 104 139 184 235 296 365 425
#     4  11  23  41  69 104 146 185 244 307 363 436
#     4  12  27  47  71 107 145 193 246 299 373 439
#     4  12  26  51  72 108 145 192 246 304 365 444
#     4  12  28  49  73 106 155 191 247 302 373 449
#     4  11  24  47  73 105 144 188 254 301 364 434
#
# _framework density 25.906889
#
# number of rings (size 3 to 8) (size 9 to 14) (size 15 to 20)
#    0.000    0.857    5.714    0.429    2.000    5.143 
#    5.143    0.000    0.000    0.000    0.000    0.000 
#    0.000    0.000    0.000    0.000    0.000    0.000 
#
# Total GULP energy -156710.194402 kJ/mol
# GULP energy per Si atom -5596.792657 kJ/mol
# Density = 2.584792 g / cm^3
# Si number density = 25.906889 Si / 1000 Ang^3
#
#
#
# Elastic Constant Matrix: (Units=GPa)
#
#
# Indices 1 2 3 4 5 6 
#
# 1 94.5490 10.5367 19.5454 0.0000 12.0249 0.0000
# 2 10.5367 119.3774 33.6224 0.0000 -9.8256 0.0000
# 3 19.5454 33.6224 112.0728 0.0000 6.1458 0.0000
# 4 0.0000 0.0000 0.0000 38.3735 0.0000 -5.3651
# 5 12.0249 -9.8256 6.1458 0.0000 47.8422 0.0000
# 6 0.0000 0.0000 0.0000 -5.3651 0.0000 26.1341
#
#
#
# Elastic Compliance Matrix: (Units=1/GPa)
#
#
# Indices 1 2 3 4 5 6 
#
# 1 0.011350 -0.000785 -0.001590 0.000000 -0.002810 0.000000
# 2 -0.000785 0.009451 -0.002836 0.000000 0.002503 0.000000
# 3 -0.001590 -0.002836 0.010132 0.000000 -0.001484 0.000000
# 4 0.000000 0.000000 0.000000 0.026830 0.000000 0.005508
# 5 -0.002810 0.002503 -0.001484 0.000000 0.022313 0.000000
# 6 0.000000 0.000000 0.000000 0.005508 0.000000 0.039395
#
#
# Mechanical properties :
#
#
# Convention : Reuss Voigt Hill
#
# Bulk Modulus (GPa) = 48.75279 50.37867 49.56573
# Shear Modulus (GPa) = 36.56875 39.95629 38.26252
#
# Velocity S-wave (km/s) = 3.76113 3.93148 3.84725
# Velocity P-wave (km/s) = 6.14172 6.33222 6.23770
#
# Compressibility (1/GPa) = 0.02051165
#
# Stress axis : x y z
#
# Youngs Moduli (GPa) = 88.10537 105.81213 98.69622
#
# Poissons Ratio (x) = 0.08310 0.15690
# Poissons Ratio (y) = 0.06919 0.27986
# Poissons Ratio (z) = 0.14007 0.30003
#
# Static dielectric constant tensor:
#      x y z
#    x 2.182430 0.000000 0.006710 
#    y 0.000000 1.993390 0.000000 
#    z 0.006710 0.000000 2.097000 
# 
# From -- ./inp_files/122629.got.cif
#   From: 2010.05.17/outbox.cif.g08.bks.cpg/sg15_62_cif.got.tgz:122629.got - 2010.06.03 18:47:42.
