data_PCOD9304908
_publ_section_title
;
Structure prediction by ZEFSAII (Michael W. Deem and Ramdas Pophale) SiO2 
 PCOD9304908
Probable space group: C 2/C
;
_chemical_formula_sum "Si O2"
_cell_formula_units_Z 52
_cell_length_a 7.411195
_cell_length_b 26.932053
_cell_length_c 12.750490
_cell_angle_alpha 90.000000
_cell_angle_beta 70.936331
_cell_angle_gamma 90.000000
_cell_volume 2405.404770
_symmetry_space_group_name_H-M "C 2/C"
_symmetry_group_IT_number 15
_symmetry_cell_setting 'monoclinic'
loop_
_space_group_symop_operation_xyz
x,y,z
-x,y,1/2-z
-x,-y,-z
x,-y,1/2+z
1/2+x,1/2+y,z
1/2-x,1/2+y,1/2-z
1/2-x,1/2-y,-z
1/2+x,1/2-y,1/2+z
loop_
_atom_site_type_symbol
_atom_site_label
_atom_site_fract_x
_atom_site_fract_y
_atom_site_fract_z
Si Si1 0.385183 0.611862 0.486213
Si Si2 0.000000 0.594384 0.250000
Si Si3 0.195404 0.786979 0.153572
Si Si4 0.362888 0.424379 0.368226
Si Si5 0.219783 0.175074 0.406060
Si Si6 0.985231 0.634207 0.641187
Si Si7 0.827928 0.526432 0.099329
O O1 0.522566 0.587430 0.548065
O O2 0.520770 0.651625 0.404773
O O3 0.290761 0.566978 0.442350
O O4 0.199452 0.640475 0.563292
O O5 0.870991 0.632327 0.344424
O O6 0.898192 0.556653 0.187934
O O7 0.224085 0.728021 0.151736
O O8 0.371883 0.814711 0.174099
O O9 0.000000 0.798315 0.250000
O O10 0.193592 0.809113 0.034557
O O11 0.500000 0.405447 0.250000
O O12 0.156221 0.398040 0.403675
O O13 0.315528 0.481197 0.353809
O O14 0.000000 0.607104 0.750000
O O15 0.000000 0.500000 0.000000
#
# Coordination Sequence:
#
# PCOD9304908 Si02
#       7
#     8   4   8   8   8   8   8
#     4  12  25  46  72 109 150 194 257 310 389 452
#     4  12  28  52  76 114 162 200 260 326 392 450
#     4  11  23  48  78 112 148 203 259 313 398 459
#     4  12  25  43  71 106 143 196 251 319 378 455
#     4  11  25  47  78 109 153 203 252 328 389 458
#     4  12  23  42  71 108 145 189 251 317 376 456
#     4  12  28  46  74 107 151 206 255 315 385 467
#
# _framework density 21.617982000000001
#
# number of rings (size 3 to 8) (size 9 to 14) (size 15 to 20)
#    0.000    0.308    5.385    3.692    5.385    0.615 
#    2.769    0.000    0.000    0.000    0.000    0.000 
#    0.000    0.000    0.000    0.000    0.000    0.000 
#
# Total GULP energy -145144.590156 kJ/mol
# GULP energy per Si atom -5582.484237 kJ/mol
# Density = 2.156878 g / cm^3
# Si number density = 21.617982 Si / 1000 Ang^3
#
#
#
# Elastic Constant Matrix: (Units=GPa)
#
#
# Indices 1 2 3 4 5 6 
#
# 1 162.3441 70.9966 58.0621 0.0000 0.0768 0.0000
# 2 70.9966 175.0097 49.9735 0.0000 -3.7132 0.0000
# 3 58.0621 49.9735 94.2663 0.0000 -13.2636 0.0000
# 4 0.0000 0.0000 0.0000 21.0377 0.0000 2.0806
# 5 0.0768 -3.7132 -13.2636 0.0000 51.1881 0.0000
# 6 0.0000 0.0000 0.0000 2.0806 0.0000 7.7812
#
#
#
# Elastic Compliance Matrix: (Units=1/GPa)
#
#
# Indices 1 2 3 4 5 6 
#
# 1 0.008726 -0.002334 -0.004321 0.000000 -0.001302 0.000000
# 2 -0.002334 0.007368 -0.002483 0.000000 -0.000105 0.000000
# 3 -0.004321 -0.002483 0.015113 0.000000 0.003742 0.000000
# 4 0.000000 0.000000 0.000000 0.048825 0.000000 -0.013055
# 5 -0.001302 -0.000105 0.003742 0.000000 0.020500 0.000000
# 6 0.000000 0.000000 0.000000 -0.013055 0.000000 0.132006
#
#
# Mechanical properties :
#
#
# Convention : Reuss Voigt Hill
#
# Bulk Modulus (GPa) = 77.33442 87.74274 82.53858
# Shear Modulus (GPa) = 19.59841 32.84058 26.21950
#
# Velocity S-wave (km/s) = 3.01421 3.90183 3.48639
# Velocity P-wave (km/s) = 6.92566 7.80865 7.38037
#
# Compressibility (1/GPa) = 0.01293085
#
# Stress axis : x y z
#
# Youngs Moduli (GPa) = 114.59535 135.73019 66.17033
#
# Poissons Ratio (x) = 0.31678 0.28591
# Poissons Ratio (y) = 0.26745 0.16431
# Poissons Ratio (z) = 0.49515 0.33703
#
# Static dielectric constant tensor:
#      x y z
#    x 1.804970 0.000000 -0.014670 
#    y 0.000000 1.815090 0.000000 
#    z -0.014670 0.000000 1.901190 
# 
# From -- ./inp_files/130701.got.cif
#   From: 2010.05.17/outbox.cif.g08.bks.cpg/sg15_66_cif.got.tgz:130701.got - 2010.06.03 18:47:42.
