data_PCOD9304486
_publ_section_title
;
Structure prediction by ZEFSAII (Michael W. Deem and Ramdas Pophale) SiO2 
 PCOD9304486
Probable space group: C 2/C
;
_chemical_formula_sum "Si O2"
_cell_formula_units_Z 44
_cell_length_a 22.432193
_cell_length_b 9.830608
_cell_length_c 10.608041
_cell_angle_alpha 90.000000
_cell_angle_beta 122.965333
_cell_angle_gamma 90.000000
_cell_volume 1962.678821
_symmetry_space_group_name_H-M "C 2/C"
_symmetry_group_IT_number 15
_symmetry_cell_setting 'monoclinic'
loop_
_space_group_symop_operation_xyz
x,y,z
-x,y,1/2-z
-x,-y,-z
x,-y,1/2+z
1/2+x,1/2+y,z
1/2-x,1/2+y,1/2-z
1/2-x,1/2-y,-z
1/2+x,1/2-y,1/2+z
loop_
_atom_site_type_symbol
_atom_site_label
_atom_site_fract_x
_atom_site_fract_y
_atom_site_fract_z
Si Si1 0.922511 0.433049 0.948454
Si Si2 0.500000 0.213437 0.750000
Si Si3 0.812889 0.151297 0.384871
Si Si4 0.225467 0.409007 0.229574
Si Si5 0.145998 0.810279 0.301738
Si Si6 0.064250 0.938873 0.648175
O O1 0.855266 0.535515 0.882295
O O2 0.894052 0.308839 0.824054
O O3 0.000000 0.500000 0.000000
O O4 0.942007 0.372117 0.106979
O O5 0.541215 0.309529 0.700451
O O6 0.782107 0.251670 0.241298
O O7 0.829181 0.233257 0.531036
O O8 0.882270 0.096900 0.400911
O O9 0.760728 0.026669 0.353744
O O10 0.287097 0.379553 0.194601
O O11 0.095026 0.938884 0.266735
O O12 0.000000 0.000000 0.500000
#
# Coordination Sequence:
#
# PCOD9304486 Si02
#       6
#     8   4   8   8   8   8
#     4  12  28  48  73 110 152 197 252 307 385 442
#     4  12  26  48  70 108 154 188 254 316 372 452
#     4  11  25  45  75 101 146 190 249 303 371 445
#     4  11  25  45  71 107 140 193 246 302 374 439
#     4  11  25  46  73 106 146 196 249 307 370 456
#     4  11  23  44  70 105 144 193 243 305 373 446
#
# _framework density 22.418339
#
# number of rings (size 3 to 8) (size 9 to 14) (size 15 to 20)
#    0.000    0.727    3.636    2.727    5.091    1.455 
#    0.000    3.636    0.000    0.000    0.000    0.000 
#    0.000    0.000    0.000    0.000    0.000    0.000 
#
# Total GULP energy -122538.115385 kJ/mol
# GULP energy per Si atom -5569.914336 kJ/mol
# Density = 2.236731 g / cm^3
# Si number density = 22.418339 Si / 1000 Ang^3
#
#
#
# Elastic Constant Matrix: (Units=GPa)
#
#
# Indices 1 2 3 4 5 6 
#
# 1 115.8799 22.7173 34.7947 0.0000 25.0889 0.0000
# 2 22.7173 59.9095 21.9941 0.0000 2.5975 0.0000
# 3 34.7947 21.9941 88.2411 0.0000 1.1516 0.0000
# 4 0.0000 0.0000 0.0000 35.8403 0.0000 5.6100
# 5 25.0889 2.5975 1.1516 0.0000 23.9844 0.0000
# 6 0.0000 0.0000 0.0000 5.6100 0.0000 51.7368
#
#
#
# Elastic Compliance Matrix: (Units=1/GPa)
#
#
# Indices 1 2 3 4 5 6 
#
# 1 0.013454 -0.002897 -0.004406 0.000000 -0.013548 0.000000
# 2 -0.002897 0.019072 -0.003626 0.000000 0.001139 0.000000
# 3 -0.004406 -0.003626 0.013917 0.000000 0.004334 0.000000
# 4 0.000000 0.000000 0.000000 0.028383 0.000000 -0.003078
# 5 -0.013548 0.001139 0.004334 0.000000 0.055534 0.000000
# 6 0.000000 0.000000 0.000000 -0.003078 0.000000 0.019662
#
#
# Mechanical properties :
#
#
# Convention : Reuss Voigt Hill
#
# Bulk Modulus (GPa) = 40.67552 47.00476 43.84014
# Shear Modulus (GPa) = 27.76598 34.61394 31.18996
#
# Velocity S-wave (km/s) = 3.52311 3.93364 3.73402
# Velocity P-wave (km/s) = 5.89347 6.45322 6.17968
#
# Compressibility (1/GPa) = 0.02458481
#
# Stress axis : x y z
#
# Youngs Moduli (GPa) = 74.32868 52.43241 71.85272
#
# Poissons Ratio (x) = 0.15187 0.31660
# Poissons Ratio (y) = 0.21530 0.26057
# Poissons Ratio (z) = 0.32751 0.19014
#
# Static dielectric constant tensor:
#      x y z
#    x 2.075680 0.000000 0.116610 
#    y 0.000000 1.679150 0.000000 
#    z 0.116610 0.000000 1.913300 
# 
# From -- ./inp_files/116863.got.cif
#   From: 2010.05.17/outbox.cif.g08.bks.cpg/sg15_59_cif.got.tgz:116863.got - 2010.06.03 18:47:42.
