data_PCOD9304294
_publ_section_title
;
Structure prediction by ZEFSAII (Michael W. Deem and Ramdas Pophale) SiO2 
 PCOD9304294
Probable space group: C 2/C
;
_chemical_formula_sum "Si O2"
_cell_formula_units_Z 32
_cell_length_a 14.016996
_cell_length_b 10.261061
_cell_length_c 9.451293
_cell_angle_alpha 90.000000
_cell_angle_beta 69.467537
_cell_angle_gamma 90.000000
_cell_volume 1273.016381
_symmetry_space_group_name_H-M "C 2/C"
_symmetry_group_IT_number 15
_symmetry_cell_setting 'monoclinic'
loop_
_space_group_symop_operation_xyz
x,y,z
-x,y,1/2-z
-x,-y,-z
x,-y,1/2+z
1/2+x,1/2+y,z
1/2-x,1/2+y,1/2-z
1/2-x,1/2-y,-z
1/2+x,1/2-y,1/2+z
loop_
_atom_site_type_symbol
_atom_site_label
_atom_site_fract_x
_atom_site_fract_y
_atom_site_fract_z
Si Si1 0.613752 0.967311 0.150738
Si Si2 0.899640 0.230359 0.879237
Si Si3 0.055621 0.890626 0.870489
Si Si4 0.255700 0.969224 0.168062
O O1 0.500000 0.926513 0.250000
O O2 0.615664 0.124586 0.168853
O O3 0.692095 0.908400 0.221475
O O4 0.659795 0.955553 0.969678
O O5 0.804534 0.137937 0.893589
O O6 0.000000 0.175426 0.750000
O O7 0.929305 0.228366 0.028580
O O8 0.000000 0.868180 0.750000
O O9 0.167326 0.938593 0.770811
O O10 0.000000 0.000000 0.000000
#
# Coordination Sequence:
#
# PCOD9304294 Si02
#       4
#     8   8   8   8
#     4  11  26  44  65  91 136 180 219 262 321 389
#     4  11  23  43  69 100 131 166 218 276 325 386
#     4  12  20  37  67 104 131 159 210 277 337 374
#     4  12  21  40  69  92 131 174 212 264 332 380
#
# _framework density 25.137146000000001
#
# number of rings (size 3 to 8) (size 9 to 14) (size 15 to 20)
#    0.000    0.500    7.500    1.500    0.000    0.000 
#    0.000    7.500    0.000    0.000    0.000    0.000 
#    0.000    0.000    0.000    0.000    0.000    0.000 
#
# Total GULP energy -89584.865348 kJ/mol
# GULP energy per Si atom -5599.054084 kJ/mol
# Density = 2.507993 g / cm^3
# Si number density = 25.137146 Si / 1000 Ang^3
#
#
#
# Elastic Constant Matrix: (Units=GPa)
#
#
# Indices 1 2 3 4 5 6 
#
# 1 112.0986 14.0423 32.9687 0.0000 -0.5832 0.0000
# 2 14.0423 64.4307 30.3280 0.0000 4.8888 0.0000
# 3 32.9687 30.3280 156.7752 0.0000 -1.1354 0.0000
# 4 0.0000 0.0000 0.0000 38.3233 0.0000 2.7540
# 5 -0.5832 4.8888 -1.1354 0.0000 77.4297 0.0000
# 6 0.0000 0.0000 0.0000 2.7540 0.0000 5.7381
#
#
#
# Elastic Compliance Matrix: (Units=1/GPa)
#
#
# Indices 1 2 3 4 5 6 
#
# 1 0.009602 -0.001268 -0.001773 0.000000 0.000126 0.000000
# 2 -0.001268 0.017342 -0.003096 0.000000 -0.001150 0.000000
# 3 -0.001773 -0.003096 0.007353 0.000000 0.000290 0.000000
# 4 0.000000 0.000000 0.000000 0.027026 0.000000 -0.012971
# 5 0.000126 -0.001150 0.000290 0.000000 0.012993 0.000000
# 6 0.000000 0.000000 0.000000 -0.012971 0.000000 0.180500
#
#
# Mechanical properties :
#
#
# Convention : Reuss Voigt Hill
#
# Bulk Modulus (GPa) = 45.41014 54.22027 49.81520
# Shear Modulus (GPa) = 18.21966 41.36258 29.79112
#
# Velocity S-wave (km/s) = 2.69515 4.06085 3.44633
# Velocity P-wave (km/s) = 5.27155 6.60333 5.97466
#
# Compressibility (1/GPa) = 0.02202151
#
# Stress axis : x y z
#
# Youngs Moduli (GPa) = 104.14906 57.66476 136.00779
#
# Poissons Ratio (x) = 0.07310 0.24114
# Poissons Ratio (y) = 0.13202 0.42114
# Poissons Ratio (z) = 0.18466 0.17856
#
# Static dielectric constant tensor:
#      x y z
#    x 1.977010 0.000000 -0.024940 
#    y 0.000000 2.004220 0.000000 
#    z -0.024940 0.000000 1.950510 
# 
# From -- ./inp_files/36708.got.cif
#   From: 2010.05.17/outbox.cif.g08.bks.cpg/sg15_19_cif.got.tgz:36708.got - 2010.06.03 18:47:42.
