data_PCOD9304462
_publ_section_title
;
Structure prediction by ZEFSAII (Michael W. Deem and Ramdas Pophale) SiO2 
 PCOD9304462
Probable space group: C 2/C
;
_chemical_formula_sum "Si O2"
_cell_formula_units_Z 48
_cell_length_a 13.511291
_cell_length_b 12.637783
_cell_length_c 15.789455
_cell_angle_alpha 90.000000
_cell_angle_beta 121.745694
_cell_angle_gamma 90.000000
_cell_volume 2292.735364
_symmetry_space_group_name_H-M "C 2/C"
_symmetry_group_IT_number 15
_symmetry_cell_setting 'monoclinic'
loop_
_space_group_symop_operation_xyz
x,y,z
-x,y,1/2-z
-x,-y,-z
x,-y,1/2+z
1/2+x,1/2+y,z
1/2-x,1/2+y,1/2-z
1/2-x,1/2-y,-z
1/2+x,1/2-y,1/2+z
loop_
_atom_site_type_symbol
_atom_site_label
_atom_site_fract_x
_atom_site_fract_y
_atom_site_fract_z
Si Si1 0.810490 0.147172 0.486102
Si Si2 0.766023 0.295889 0.834765
Si Si3 0.065789 0.656425 0.693542
Si Si4 0.963336 0.201493 0.021156
Si Si5 0.101660 0.957544 0.861884
Si Si6 0.879857 0.584174 0.238727
O O1 0.750000 0.250000 0.500000
O O2 0.724065 0.099627 0.375447
O O3 0.933230 0.177159 0.497277
O O4 0.837102 0.058823 0.568988
O O5 0.676254 0.231695 0.736735
O O6 0.694875 0.381258 0.857516
O O7 0.854454 0.351798 0.811759
O O8 0.837198 0.212811 0.922764
O O9 0.103051 0.536929 0.724825
O O10 0.000000 0.689382 0.750000
O O11 0.986887 0.686285 0.578560
O O12 0.957112 0.111157 0.089600
O O13 0.000000 0.986840 0.750000
O O14 0.000000 0.619198 0.250000
#
# Coordination Sequence:
#
# PCOD9304462 Si02
#       6
#     8   8   8   8   8   8
#     4  12  28  47  67 103 145 186 229 284 355 422
#     4  12  24  43  74 101 135 184 233 291 346 413
#     4  11  23  44  69 102 139 174 237 291 343 416
#     4  12  24  45  71 103 139 181 235 290 351 411
#     4  12  25  46  74 105 138 184 239 287 345 413
#     4  11  26  45  67 100 140 185 229 288 356 414
#
# _framework density 20.935690999999998
#
# number of rings (size 3 to 8) (size 9 to 14) (size 15 to 20)
#    0.000    0.333    5.000    3.000    7.000    4.000 
#    0.000    0.000    0.000    0.000    0.000    0.000 
#    0.000    0.000    0.000    0.000    0.000    0.000 
#
# Total GULP energy -134295.974633 kJ/mol
# GULP energy per Si atom -5595.665610 kJ/mol
# Density = 2.088804 g / cm^3
# Si number density = 20.935691 Si / 1000 Ang^3
#
#
#
# Elastic Constant Matrix: (Units=GPa)
#
#
# Indices 1 2 3 4 5 6 
#
# 1 84.7583 7.0151 -21.0601 0.0000 -14.1166 0.0000
# 2 7.0151 57.0332 4.5894 0.0000 -6.9024 0.0000
# 3 -21.0601 4.5894 63.7061 0.0000 10.8472 0.0000
# 4 0.0000 0.0000 0.0000 19.3219 0.0000 9.5827
# 5 -14.1166 -6.9024 10.8472 0.0000 34.1839 0.0000
# 6 0.0000 0.0000 0.0000 9.5827 0.0000 25.0848
#
#
#
# Elastic Compliance Matrix: (Units=1/GPa)
#
#
# Indices 1 2 3 4 5 6 
#
# 1 0.013568 -0.001491 0.003901 0.000000 0.004064 0.000000
# 2 -0.001491 0.018386 -0.002479 0.000000 0.003883 0.000000
# 3 0.003901 -0.002479 0.017946 0.000000 -0.004584 0.000000
# 4 0.000000 0.000000 0.000000 0.063852 0.000000 -0.024392
# 5 0.004064 0.003883 -0.004584 0.000000 0.033171 0.000000
# 6 0.000000 0.000000 0.000000 -0.024392 0.000000 0.049183
#
#
# Mechanical properties :
#
#
# Convention : Reuss Voigt Hill
#
# Bulk Modulus (GPa) = 20.09558 20.73183 20.41370
# Shear Modulus (GPa) = 23.49289 30.04833 26.77061
#
# Velocity S-wave (km/s) = 3.35348 3.79260 3.57978
# Velocity P-wave (km/s) = 4.96125 5.39468 5.18250
#
# Compressibility (1/GPa) = 0.04976218
#
# Stress axis : x y z
#
# Youngs Moduli (GPa) = 73.70426 54.38780 55.72371
#
# Poissons Ratio (x) = 0.08108 -0.21736
# Poissons Ratio (y) = 0.10988 0.13812
# Poissons Ratio (z) = -0.28749 0.13481
#
# Static dielectric constant tensor:
#      x y z
#    x 1.743300 0.000000 -0.000060 
#    y 0.000000 1.735400 0.000000 
#    z -0.000060 0.000000 1.718880 
# 
# From -- ./inp_files/152435.got.cif
#   From: 2010.05.17/outbox.cif.g08.bks.cpg/sg15_77_cif.got.tgz:152435.got - 2010.06.03 18:47:42.
