data_PCOD9304782
_publ_section_title
;
Structure prediction by ZEFSAII (Michael W. Deem and Ramdas Pophale) SiO2 
 PCOD9304782
Probable space group: C 2/C
;
_chemical_formula_sum "Si O2"
_cell_formula_units_Z 52
_cell_length_a 19.103949
_cell_length_b 20.502256
_cell_length_c 10.733784
_cell_angle_alpha 90.000000
_cell_angle_beta 33.252143
_cell_angle_gamma 90.000000
_cell_volume 2305.235566
_symmetry_space_group_name_H-M "C 2/C"
_symmetry_group_IT_number 15
_symmetry_cell_setting 'monoclinic'
loop_
_space_group_symop_operation_xyz
x,y,z
-x,y,1/2-z
-x,-y,-z
x,-y,1/2+z
1/2+x,1/2+y,z
1/2-x,1/2+y,1/2-z
1/2-x,1/2-y,-z
1/2+x,1/2-y,1/2+z
loop_
_atom_site_type_symbol
_atom_site_label
_atom_site_fract_x
_atom_site_fract_y
_atom_site_fract_z
Si Si1 0.798684 0.333502 0.683015
Si Si2 0.653824 0.689210 0.921101
Si Si3 0.119159 0.524153 0.405244
Si Si4 0.378576 0.371182 0.775739
Si Si5 0.769046 0.359475 0.004537
Si Si6 0.500000 0.927062 0.750000
Si Si7 0.370330 0.517246 0.866286
O O1 0.863459 0.266765 0.543882
O O2 0.882337 0.399940 0.555470
O O3 0.684255 0.346971 0.757401
O O4 0.751326 0.325892 0.896747
O O5 0.749208 0.676488 0.664459
O O6 0.693878 0.656729 0.992853
O O7 0.520287 0.656320 0.082487
O O8 0.000000 0.500000 0.500000
O O9 0.106727 0.475749 0.538799
O O10 0.251166 0.512103 0.138349
O O11 0.379298 0.449528 0.779346
O O12 0.668424 0.419306 0.153875
O O13 0.916587 0.383253 0.782586
O O14 0.500000 0.526730 0.750000
#
# Coordination Sequence:
#
# PCOD9304782 Si02
#       7
#     8   8   8   8   8   4   8
#     4  11  25  46  71 101 142 192 236 293 356 426
#     4  11  25  47  68 104 145 188 238 284 367 433
#     4  11  24  46  69 109 143 184 247 295 364 422
#     4  11  25  46  69 106 141 188 236 297 355 423
#     4  11  26  43  73 105 142 188 238 295 361 422
#     4  12  22  44  68 106 144 184 234 308 360 420
#     4  11  23  46  74 107 142 187 241 305 359 417
#
# _framework density 22.557348999999999
#
# number of rings (size 3 to 8) (size 9 to 14) (size 15 to 20)
#    0.000    0.923    4.615    2.769    4.308    4.308 
#    2.769    0.000    0.000    0.000    0.000    0.000 
#    0.000    0.000    0.000    0.000    0.000    0.000 
#
# Total GULP energy -145329.162853 kJ/mol
# GULP energy per Si atom -5589.583187 kJ/mol
# Density = 2.250601 g / cm^3
# Si number density = 22.557349 Si / 1000 Ang^3
#
#
#
# Elastic Constant Matrix: (Units=GPa)
#
#
# Indices 1 2 3 4 5 6 
#
# 1 72.5262 -25.3385 8.6450 -0.0003 5.5443 0.0002
# 2 -25.3385 64.0266 -5.1507 -0.0004 -11.9326 0.0002
# 3 8.6450 -5.1507 58.4407 -0.0004 -10.2709 0.0000
# 4 -0.0003 -0.0004 -0.0004 14.7832 0.0001 7.5421
# 5 5.5443 -11.9326 -10.2709 0.0001 35.0673 0.0000
# 6 0.0002 0.0002 0.0000 7.5421 0.0000 7.1337
#
#
#
# Elastic Compliance Matrix: (Units=1/GPa)
#
#
# Indices 1 2 3 4 5 6 
#
# 1 0.016233 0.006051 -0.002063 0.000002 -0.001112 -0.000002
# 2 0.006051 0.019315 0.001892 0.000002 0.006170 -0.000003
# 3 -0.002063 0.001892 0.018717 0.000001 0.006452 -0.000001
# 4 0.000002 0.000002 0.000001 0.146860 0.000001 -0.155269
# 5 -0.001112 0.006170 0.006452 0.000001 0.032682 -0.000001
# 6 -0.000002 -0.000003 -0.000001 -0.155269 -0.000001 0.304339
#
#
# Mechanical properties :
#
#
# Convention : Reuss Voigt Hill
#
# Bulk Modulus (GPa) = 15.14598 16.81165 15.97882
# Shear Modulus (GPa) = 9.11750 25.85268 17.48509
#
# Velocity S-wave (km/s) = 2.01263 3.38906 2.78715
# Velocity P-wave (km/s) = 3.48281 4.77319 4.17812
#
# Compressibility (1/GPa) = 0.06602413
#
# Stress axis : x y z
#
# Youngs Moduli (GPa) = 61.60240 51.77256 53.42664
#
# Poissons Ratio (x) = -0.31328 0.11024
# Poissons Ratio (y) = -0.37276 -0.10106
# Poissons Ratio (z) = 0.12711 -0.09793
#
# Static dielectric constant tensor:
#      x y z
#    x 1.893250 0.000000 0.045230 
#    y 0.000000 1.867810 0.000000 
#    z 0.045230 0.000000 1.903350 
# 
# From -- ./inp_files/114361.got.cif
#   From: 2010.05.17/outbox.cif.g08.bks.cpg/sg15_58_cif.got.tgz:114361.got - 2010.06.03 18:47:42.
