data_PCOD9304922
_publ_section_title
;
Structure prediction by ZEFSAII (Michael W. Deem and Ramdas Pophale) SiO2 
 PCOD9304922
Probable space group: C 2/C
;
_chemical_formula_sum "Si O2"
_cell_formula_units_Z 52
_cell_length_a 13.308966
_cell_length_b 15.132001
_cell_length_c 11.596814
_cell_angle_alpha 90.000000
_cell_angle_beta 72.268345
_cell_angle_gamma 90.000000
_cell_volume 2224.545671
_symmetry_space_group_name_H-M "C 2/C"
_symmetry_group_IT_number 15
_symmetry_cell_setting 'monoclinic'
loop_
_space_group_symop_operation_xyz
x,y,z
-x,y,1/2-z
-x,-y,-z
x,-y,1/2+z
1/2+x,1/2+y,z
1/2-x,1/2+y,1/2-z
1/2-x,1/2-y,-z
1/2+x,1/2-y,1/2+z
loop_
_atom_site_type_symbol
_atom_site_label
_atom_site_fract_x
_atom_site_fract_y
_atom_site_fract_z
Si Si1 0.659607 0.317478 0.566900
Si Si2 0.371695 0.954309 0.165336
Si Si3 0.152180 0.321989 0.527596
Si Si4 0.674274 0.558159 0.274769
Si Si5 0.500000 0.191623 0.750000
Si Si6 0.000000 0.925029 0.250000
Si Si7 0.032267 0.837713 0.004281
Si Si8 0.000000 0.408599 0.750000
O O1 0.750000 0.250000 0.500000
O O2 0.698833 0.383178 0.652531
O O3 0.568848 0.257426 0.652014
O O4 0.587593 0.361994 0.492548
O O5 0.417603 0.871706 0.217134
O O6 0.275395 0.999747 0.265946
O O7 0.461855 0.030017 0.154590
O O8 0.332696 0.910236 0.057627
O O9 0.250000 0.250000 0.500000
O O10 0.058682 0.265615 0.500680
O O11 0.099503 0.351914 0.667546
O O12 0.586743 0.489231 0.269371
O O13 0.619935 0.616890 0.392306
O O14 0.954209 0.868789 0.369839
#
# Coordination Sequence:
#
# PCOD9304922 Si02
#       8
#     8   8   8   8   4   4   8   4
#     4  12  26  45  79 106 148 199 255 306 383 447
#     4  11  26  44  76 105 149 189 248 305 382 439
#     4  12  25  48  73 107 149 196 248 309 374 453
#     4  12  25  47  74 112 149 198 247 318 380 450
#     4  11  23  52  69 111 144 198 242 317 361 458
#     4  12  26  44  72 106 154 196 246 312 382 444
#     4  12  25  49  72 107 154 194 257 312 370 467
#     4  11  27  46  73 107 150 198 242 307 383 440
#
# _framework density 23.37556
#
# number of rings (size 3 to 8) (size 9 to 14) (size 15 to 20)
#    0.000    0.308    4.615    3.231    4.308    2.462 
#    2.769    0.000    0.000    0.000    0.000    0.000 
#    0.000    0.000    0.000    0.000    0.000    0.000 
#
# Total GULP energy -145159.790492 kJ/mol
# GULP energy per Si atom -5583.068865 kJ/mol
# Density = 2.332236 g / cm^3
# Si number density = 23.375560 Si / 1000 Ang^3
#
#
#
# Elastic Constant Matrix: (Units=GPa)
#
#
# Indices 1 2 3 4 5 6 
#
# 1 58.3788 15.0226 11.3801 0.0000 -6.2519 0.0000
# 2 15.0226 93.3945 47.2298 0.0000 1.7229 0.0000
# 3 11.3801 47.2298 96.7077 0.0000 2.3163 0.0000
# 4 0.0000 0.0000 0.0000 41.0089 0.0000 2.0799
# 5 -6.2519 1.7229 2.3163 0.0000 20.6738 0.0000
# 6 0.0000 0.0000 0.0000 2.0799 0.0000 65.3974
#
#
#
# Elastic Compliance Matrix: (Units=1/GPa)
#
#
# Indices 1 2 3 4 5 6 
#
# 1 0.018639 -0.002559 -0.001087 0.000000 0.005972 0.000000
# 2 -0.002559 0.014574 -0.006787 0.000000 -0.001228 0.000000
# 3 -0.001087 -0.006787 0.013814 0.000000 -0.001311 0.000000
# 4 0.000000 0.000000 0.000000 0.024424 0.000000 -0.000777
# 5 0.005972 -0.001228 -0.001311 0.000000 0.050425 0.000000
# 6 0.000000 0.000000 0.000000 -0.000777 0.000000 0.015316
#
#
# Mechanical properties :
#
#
# Convention : Reuss Voigt Hill
#
# Bulk Modulus (GPa) = 38.22282 43.97178 41.09730
# Shear Modulus (GPa) = 29.97989 37.07259 33.52624
#
# Velocity S-wave (km/s) = 3.58513 3.98673 3.79125
# Velocity P-wave (km/s) = 5.79005 6.32802 6.06500
#
# Compressibility (1/GPa) = 0.02616238
#
# Stress axis : x y z
#
# Youngs Moduli (GPa) = 53.65005 68.61699 72.38873
#
# Poissons Ratio (x) = 0.17557 0.07867
# Poissons Ratio (y) = 0.13727 0.49130
# Poissons Ratio (z) = 0.05831 0.46570
#
# Static dielectric constant tensor:
#      x y z
#    x 1.861850 0.000000 0.109530 
#    y 0.000000 1.891640 0.000000 
#    z 0.109530 0.000000 2.060860 
# 
# From -- ./inp_files/96997.got.cif
#   From: 2010.05.17/outbox.cif.g08.bks.cpg/sg15_49_cif.got.tgz:96997.got - 2010.06.03 18:47:42.
