data_PCOD9304254
_publ_section_title
;
Structure prediction by ZEFSAII (Michael W. Deem and Ramdas Pophale) SiO2 
 PCOD9304254
Probable space group: C 2/C
;
_chemical_formula_sum "Si O2"
_cell_formula_units_Z 36
_cell_length_a 13.825871
_cell_length_b 17.697322
_cell_length_c 9.110467
_cell_angle_alpha 90.000000
_cell_angle_beta 128.654313
_cell_angle_gamma 90.000000
_cell_volume 1740.812867
_symmetry_space_group_name_H-M "C 2/C"
_symmetry_group_IT_number 15
_symmetry_cell_setting 'monoclinic'
loop_
_space_group_symop_operation_xyz
x,y,z
-x,y,1/2-z
-x,-y,-z
x,-y,1/2+z
1/2+x,1/2+y,z
1/2-x,1/2+y,1/2-z
1/2-x,1/2-y,-z
1/2+x,1/2-y,1/2+z
loop_
_atom_site_type_symbol
_atom_site_label
_atom_site_fract_x
_atom_site_fract_y
_atom_site_fract_z
Si Si1 0.737018 0.053395 0.103653
Si Si2 0.500000 0.971144 0.750000
Si Si3 0.330408 0.848025 0.717542
Si Si4 0.122833 0.172240 0.777678
Si Si5 0.617942 0.546447 0.550001
O O1 0.730217 0.133019 0.182643
O O2 0.769261 0.995739 0.263722
O O3 0.846379 0.049107 0.086511
O O4 0.609127 0.024492 0.912905
O O5 0.437664 0.910712 0.802626
O O6 0.235291 0.855157 0.489645
O O7 0.372930 0.761753 0.745036
O O8 0.116919 0.129076 0.619018
O O9 0.000000 0.152260 0.750000
O O10 0.500000 0.500000 0.500000
#
# Coordination Sequence:
#
# PCOD9304254 Si02
#       5
#     8   4   8   8   8
#     4  12  24  41  67  98 129 170 223 271 322 386
#     4  12  22  44  68  94 130 168 222 272 322 390
#     4  11  24  42  68  96 128 171 218 270 329 391
#     4  11  23  43  67  93 132 175 212 267 330 391
#     4  12  24  41  67  96 132 173 219 268 324 389
#
# _framework density 20.679995000000002
#
# number of rings (size 3 to 8) (size 9 to 14) (size 15 to 20)
#    0.000    0.444    5.556    4.000    0.000    0.889 
#    0.000    0.000    4.889    0.000    0.000    0.000 
#    0.000    0.000    0.000    0.000    0.000    0.000 
#
# Total GULP energy -100512.131271 kJ/mol
# GULP energy per Si atom -5584.007293 kJ/mol
# Density = 2.063293 g / cm^3
# Si number density = 20.679995 Si / 1000 Ang^3
#
#
#
# Elastic Constant Matrix: (Units=GPa)
#
#
# Indices 1 2 3 4 5 6 
#
# 1 114.5827 25.7858 30.6327 0.0000 -24.4664 0.0000
# 2 25.7858 70.6235 22.2031 0.0000 -7.6692 0.0000
# 3 30.6327 22.2031 59.8289 0.0000 -9.8709 0.0000
# 4 0.0000 0.0000 0.0000 21.2737 0.0000 -16.1526
# 5 -24.4664 -7.6692 -9.8709 0.0000 43.9867 0.0000
# 6 0.0000 0.0000 0.0000 -16.1526 0.0000 35.5100
#
#
#
# Elastic Compliance Matrix: (Units=1/GPa)
#
#
# Indices 1 2 3 4 5 6 
#
# 1 0.011435 -0.002320 -0.004165 0.000000 0.005021 0.000000
# 2 -0.002320 0.016599 -0.004888 0.000000 0.000506 0.000000
# 3 -0.004165 -0.004888 0.020912 0.000000 0.001524 0.000000
# 4 0.000000 0.000000 0.000000 0.071807 0.000000 0.032663
# 5 0.005021 0.000506 0.001524 0.000000 0.025957 0.000000
# 6 0.000000 0.000000 0.000000 0.032663 0.000000 0.043019
#
#
# Mechanical properties :
#
#
# Convention : Reuss Voigt Hill
#
# Bulk Modulus (GPa) = 38.17049 44.69758 41.43403
# Shear Modulus (GPa) = 22.60295 31.24830 26.92563
#
# Velocity S-wave (km/s) = 3.30962 3.89143 3.61226
# Velocity P-wave (km/s) = 5.75348 6.46930 6.12186
#
# Compressibility (1/GPa) = 0.02619825
#
# Stress axis : x y z
#
# Youngs Moduli (GPa) = 87.44898 60.24596 47.81831
#
# Poissons Ratio (x) = 0.13979 0.19918
# Poissons Ratio (y) = 0.20292 0.23375
# Poissons Ratio (z) = 0.36425 0.29450
#
# Static dielectric constant tensor:
#      x y z
#    x 1.887260 0.000000 -0.041030 
#    y 0.000000 1.745730 0.000000 
#    z -0.041030 0.000000 1.790020 
# 
# From -- ./inp_files/38519.got.cif
#   From: 2010.05.17/outbox.cif.g08.bks.cpg/sg15_20_cif.got.tgz:38519.got - 2010.06.03 18:47:42.
