data_PCOD9304751
_publ_section_title
;
Structure prediction by ZEFSAII (Michael W. Deem and Ramdas Pophale) SiO2 
 PCOD9304751
Probable space group: C 2/C
;
_chemical_formula_sum "Si O2"
_cell_formula_units_Z 40
_cell_length_a 13.081386
_cell_length_b 13.969948
_cell_length_c 14.283898
_cell_angle_alpha 90.000000
_cell_angle_beta 40.976176
_cell_angle_gamma 90.000000
_cell_volume 1711.710771
_symmetry_space_group_name_H-M "C 2/C"
_symmetry_group_IT_number 15
_symmetry_cell_setting 'monoclinic'
loop_
_space_group_symop_operation_xyz
x,y,z
-x,y,1/2-z
-x,-y,-z
x,-y,1/2+z
1/2+x,1/2+y,z
1/2-x,1/2+y,1/2-z
1/2-x,1/2-y,-z
1/2+x,1/2-y,1/2+z
loop_
_atom_site_type_symbol
_atom_site_label
_atom_site_fract_x
_atom_site_fract_y
_atom_site_fract_z
Si Si1 0.500000 0.549409 0.250000
Si Si2 0.755285 0.736676 0.331270
Si Si3 0.311588 0.377954 0.459819
Si Si4 0.392387 0.097432 0.668246
Si Si5 0.796667 0.595420 0.146185
Si Si6 0.000000 0.466544 0.750000
O O1 0.401724 0.476323 0.382685
O O2 0.623951 0.608051 0.225372
O O3 0.637009 0.679322 0.482236
O O4 0.829028 0.808233 0.357857
O O5 0.697029 0.806038 0.289829
O O6 0.831484 0.651947 0.217992
O O7 0.128364 0.403483 0.605293
O O8 0.570643 0.120402 0.519148
O O9 0.322050 0.017865 0.646196
O O10 0.396066 0.039973 0.761235
#
# Coordination Sequence:
#
# PCOD9304751 Si02
#       6
#     4   8   8   8   8   4
#     4  12  24  46  68 112 142 186 236 306 350 414
#     4  11  25  42  70 106 136 187 243 291 345 426
#     4  11  25  42  74 106 140 187 245 297 344 423
#     4  11  23  46  71 102 142 196 226 293 364 431
#     4  11  24  46  70 103 147 184 236 296 362 417
#     4  12  22  50  74 102 144 196 232 280 372 438
#
# _framework density 23.368435000000002
#
# number of rings (size 3 to 8) (size 9 to 14) (size 15 to 20)
#    0.000    0.800    6.000    1.200    2.800    3.200 
#    3.600    2.000    0.000    0.000    0.000    0.000 
#    0.000    0.000    0.000    0.000    0.000    0.000 
#
# Total GULP energy -111616.523045 kJ/mol
# GULP energy per Si atom -5580.826152 kJ/mol
# Density = 2.331525 g / cm^3
# Si number density = 23.368435 Si / 1000 Ang^3
#
#
#
# Elastic Constant Matrix: (Units=GPa)
#
#
# Indices 1 2 3 4 5 6 
#
# 1 97.6098 24.3322 31.1787 0.0000 -8.0669 0.0000
# 2 24.3322 104.1517 34.8412 0.0000 5.6903 0.0000
# 3 31.1787 34.8412 80.4711 0.0000 -8.2526 0.0000
# 4 0.0000 0.0000 0.0000 18.2402 0.0000 17.0243
# 5 -8.0669 5.6903 -8.2526 0.0000 32.5198 0.0000
# 6 0.0000 0.0000 0.0000 17.0243 0.0000 29.0399
#
#
#
# Elastic Compliance Matrix: (Units=1/GPa)
#
#
# Indices 1 2 3 4 5 6 
#
# 1 0.012042 -0.001709 -0.003685 0.000000 0.002351 0.000000
# 2 -0.001709 0.011822 -0.004838 0.000000 -0.003720 0.000000
# 3 -0.003685 -0.004838 0.016368 0.000000 0.004086 0.000000
# 4 0.000000 0.000000 0.000000 0.121068 0.000000 -0.070975
# 5 0.002351 -0.003720 0.004086 0.000000 0.033022 0.000000
# 6 0.000000 0.000000 0.000000 -0.070975 0.000000 0.076044
#
#
# Mechanical properties :
#
#
# Convention : Reuss Voigt Hill
#
# Bulk Modulus (GPa) = 50.58387 51.43740 51.01064
# Shear Modulus (GPa) = 16.81127 28.75200 22.78164
#
# Velocity S-wave (km/s) = 2.68507 3.51148 3.12571
# Velocity P-wave (km/s) = 5.59518 6.20483 5.90788
#
# Compressibility (1/GPa) = 0.01976915
#
# Stress axis : x y z
#
# Youngs Moduli (GPa) = 83.04126 84.58534 61.09406
#
# Poissons Ratio (x) = 0.14457 0.22511
# Poissons Ratio (y) = 0.14193 0.29557
# Poissons Ratio (z) = 0.30598 0.40922
#
# Static dielectric constant tensor:
#      x y z
#    x 1.972850 0.000000 0.007170 
#    y 0.000000 1.842120 0.000000 
#    z 0.007170 0.000000 1.885940 
# 
# From -- ./inp_files/153760.got.cif
#   From: 2010.05.17/outbox.cif.g08.bks.cpg/sg15_77_cif.got.tgz:153760.got - 2010.06.03 18:47:42.
