data_PCOD9304239
_publ_section_title
;
Structure prediction by ZEFSAII (Michael W. Deem and Ramdas Pophale) SiO2 
 PCOD9304239
Probable space group: C 2/C
;
_chemical_formula_sum "Si O2"
_cell_formula_units_Z 52
_cell_length_a 11.904405
_cell_length_b 20.763417
_cell_length_c 13.849984
_cell_angle_alpha 90.000000
_cell_angle_beta 130.193866
_cell_angle_gamma 90.000000
_cell_volume 2615.004703
_symmetry_space_group_name_H-M "C 2/C"
_symmetry_group_IT_number 15
_symmetry_cell_setting 'monoclinic'
loop_
_space_group_symop_operation_xyz
x,y,z
-x,y,1/2-z
-x,-y,-z
x,-y,1/2+z
1/2+x,1/2+y,z
1/2-x,1/2+y,1/2-z
1/2-x,1/2-y,-z
1/2+x,1/2-y,1/2+z
loop_
_atom_site_type_symbol
_atom_site_label
_atom_site_fract_x
_atom_site_fract_y
_atom_site_fract_z
Si Si1 0.314743 0.418506 0.536064
Si Si2 0.684205 0.586724 0.683669
Si Si3 0.915088 0.774279 0.606406
Si Si4 0.374859 0.714303 0.749951
Si Si5 0.500000 0.520364 0.750000
Si Si6 0.942675 0.707256 0.999659
Si Si7 0.493734 0.931335 0.442266
O O1 0.349282 0.432013 0.443648
O O2 0.395909 0.351158 0.601781
O O3 0.376775 0.474799 0.636219
O O4 0.141527 0.415433 0.464605
O O5 0.674363 0.663484 0.695748
O O6 0.576605 0.557836 0.704652
O O7 0.850489 0.566047 0.796253
O O8 0.750000 0.750000 0.500000
O O9 0.000000 0.751949 0.750000
O O10 0.999388 0.746730 0.560912
O O11 0.500000 0.686088 0.750000
O O12 0.231445 0.724217 0.603056
O O13 0.459552 0.771101 0.854238
O O14 0.964855 0.630791 0.995122
O O15 0.500000 0.000000 0.500000
#
# Coordination Sequence:
#
# PCOD9304239 Si02
#       7
#     8   8   8   8   4   8   8
#     4  12  24  42  68  98 132 176 224 277 339 404
#     4  11  24  43  68  95 128 182 223 276 337 406
#     4  12  24  39  65 102 134 168 219 283 343 402
#     4  11  23  43  66  96 134 178 228 277 339 406
#     4  12  24  44  64  94 138 170 222 276 334 402
#     4  11  24  41  69  98 134 175 223 284 343 401
#     4  11  24  44  68  96 139 175 220 277 344 409
#
# _framework density 19.885242999999999
#
# number of rings (size 3 to 8) (size 9 to 14) (size 15 to 20)
#    0.000    0.615    6.154    2.308    2.154    0.000 
#    0.000    1.538    0.000    0.000    0.000    0.000 
#    0.000    0.000    0.000    0.000    0.000    0.000 
#
# Total GULP energy -145119.430070 kJ/mol
# GULP energy per Si atom -5581.516541 kJ/mol
# Density = 1.983998 g / cm^3
# Si number density = 19.885243 Si / 1000 Ang^3
#
#
#
# Elastic Constant Matrix: (Units=GPa)
#
#
# Indices 1 2 3 4 5 6 
#
# 1 101.6853 11.2634 45.4119 0.0000 15.6347 0.0000
# 2 11.2634 88.1498 39.2986 0.0000 -2.1098 0.0000
# 3 45.4119 39.2986 113.4977 0.0000 6.0467 0.0000
# 4 0.0000 0.0000 0.0000 28.7820 0.0000 0.1074
# 5 15.6347 -2.1098 6.0467 0.0000 41.0368 0.0000
# 6 0.0000 0.0000 0.0000 0.1074 0.0000 24.8827
#
#
#
# Elastic Compliance Matrix: (Units=1/GPa)
#
#
# Indices 1 2 3 4 5 6 
#
# 1 0.012643 0.000528 -0.005026 0.000000 -0.004049 0.000000
# 2 0.000528 0.013516 -0.004956 0.000000 0.001224 0.000000
# 3 -0.005026 -0.004956 0.012548 0.000000 -0.000189 0.000000
# 4 0.000000 0.000000 0.000000 0.034745 0.000000 -0.000150
# 5 -0.004049 0.001224 -0.000189 0.000000 0.026002 0.000000
# 6 0.000000 0.000000 0.000000 -0.000150 0.000000 0.040189
#
#
# Mechanical properties :
#
#
# Convention : Reuss Voigt Hill
#
# Bulk Modulus (GPa) = 50.50870 55.03117 52.76993
# Shear Modulus (GPa) = 30.27565 32.76423 31.51994
#
# Velocity S-wave (km/s) = 3.90618 4.06355 3.98564
# Velocity P-wave (km/s) = 6.76754 7.05344 6.91197
#
# Compressibility (1/GPa) = 0.01979857
#
# Stress axis : x y z
#
# Youngs Moduli (GPa) = 79.09663 73.98772 79.69523
#
# Poissons Ratio (x) = -0.03908 0.40052
# Poissons Ratio (y) = -0.04178 0.39500
# Poissons Ratio (z) = 0.39752 0.36671
#
# Static dielectric constant tensor:
#      x y z
#    x 1.773190 0.000000 0.035270 
#    y 0.000000 1.729010 0.000000 
#    z 0.035270 0.000000 1.736930 
# 
# From -- ./inp_files/147233.got.cif
#   From: 2010.05.17/outbox.cif.g08.bks.cpg/sg15_74_cif.got.tgz:147233.got - 2010.06.03 18:47:42.
