data_PCOD9304304
_publ_section_title
;
Structure prediction by ZEFSAII (Michael W. Deem and Ramdas Pophale) SiO2 
 PCOD9304304
Probable space group: C 2/C
;
_chemical_formula_sum "Si O2"
_cell_formula_units_Z 36
_cell_length_a 19.144188
_cell_length_b 8.757411
_cell_length_c 15.642623
_cell_angle_alpha 90.000000
_cell_angle_beta 147.185657
_cell_angle_gamma 90.000000
_cell_volume 1421.203703
_symmetry_space_group_name_H-M "C 2/C"
_symmetry_group_IT_number 15
_symmetry_cell_setting 'monoclinic'
loop_
_space_group_symop_operation_xyz
x,y,z
-x,y,1/2-z
-x,-y,-z
x,-y,1/2+z
1/2+x,1/2+y,z
1/2-x,1/2+y,1/2-z
1/2-x,1/2-y,-z
1/2+x,1/2-y,1/2+z
loop_
_atom_site_type_symbol
_atom_site_label
_atom_site_fract_x
_atom_site_fract_y
_atom_site_fract_z
Si Si1 0.320970 0.602278 0.149189
Si Si2 0.219636 0.724467 0.721707
Si Si3 0.500000 0.798279 0.250000
Si Si4 0.578606 0.953697 0.946026
Si Si5 0.518537 0.655178 0.608147
O O1 0.279201 0.719185 0.180833
O O2 0.375659 0.693048 0.126038
O O3 0.439509 0.500382 0.305647
O O4 0.206048 0.481313 0.019844
O O5 0.138147 0.575400 0.602748
O O6 0.363621 0.703119 0.833677
O O7 0.124524 0.851380 0.579851
O O8 0.501175 0.900729 0.165769
O O9 0.498912 0.801074 0.848266
#
# Coordination Sequence:
#
# PCOD9304304 Si02
#       5
#     8   8   4   8   8
#     4  11  23  43  69 104 131 178 233 279 337 401
#     4   9  21  41  76  97 134 171 233 281 336 398
#     4  12  26  44  62  98 148 178 224 278 340 414
#     4   9  24  45  64 101 133 180 221 277 345 397
#     4   9  21  45  70 101 132 174 228 283 338 397
#
# _framework density 25.330639000000001
#
# number of rings (size 3 to 8) (size 9 to 14) (size 15 to 20)
#    1.333    0.889    0.000    1.333    3.111    6.222 
#    8.000    3.333    0.000    0.000    0.000    0.000 
#    0.000    0.000    0.000    0.000    0.000    0.000 
#
# Total GULP energy -100300.740476 kJ/mol
# GULP energy per Si atom -5572.263360 kJ/mol
# Density = 2.527299 g / cm^3
# Si number density = 25.330639 Si / 1000 Ang^3
#
#
#
# Elastic Constant Matrix: (Units=GPa)
#
#
# Indices 1 2 3 4 5 6 
#
# 1 101.2920 82.1944 36.7536 0.0000 3.5228 0.0000
# 2 82.1944 115.8643 27.6614 0.0000 -9.0721 0.0000
# 3 36.7536 27.6614 86.7471 0.0000 -0.8543 0.0000
# 4 0.0000 0.0000 0.0000 8.6290 0.0000 17.8281
# 5 3.5228 -9.0721 -0.8543 0.0000 20.6220 0.0000
# 6 0.0000 0.0000 0.0000 17.8281 0.0000 38.2674
#
#
#
# Elastic Compliance Matrix: (Units=1/GPa)
#
#
# Indices 1 2 3 4 5 6 
#
# 1 0.028892 -0.020177 -0.005945 0.000000 -0.014058 0.000000
# 2 -0.020177 0.023773 0.001106 0.000000 0.013951 0.000000
# 3 -0.005945 0.001106 0.013715 0.000000 0.002070 0.000000
# 4 0.000000 0.000000 0.000000 3.093619 0.000000 -1.441258
# 5 -0.014058 0.013951 0.002070 0.000000 0.057116 0.000000
# 6 0.000000 0.000000 0.000000 -1.441258 0.000000 0.697586
#
#
# Mechanical properties :
#
#
# Convention : Reuss Voigt Hill
#
# Bulk Modulus (GPa) = 61.18027 66.34693 63.76360
# Shear Modulus (GPa) = 1.25939 23.98995 12.62467
#
# Velocity S-wave (km/s) = 0.70587 3.08079 2.23490
# Velocity P-wave (km/s) = 4.98693 6.23733 5.64685
#
# Compressibility (1/GPa) = 0.01634514
#
# Stress axis : x y z
#
# Youngs Moduli (GPa) = 34.61215 42.06477 72.91487
#
# Poissons Ratio (x) = 0.84874 0.43351
# Poissons Ratio (y) = 0.69837 -0.08062
# Poissons Ratio (z) = 0.20579 -0.04651
#
# Static dielectric constant tensor:
#      x y z
#    x 1.949650 0.000000 0.000160 
#    y 0.000000 2.053560 0.000000 
#    z 0.000160 0.000000 2.159460 
# 
# From -- ./inp_files/121219.got.cif
#   From: 2010.05.17/outbox.cif.g08.bks.cpg/sg15_61_cif.got.tgz:121219.got - 2010.06.03 18:47:42.
