data_PCOD9304583
_publ_section_title
;
Structure prediction by ZEFSAII (Michael W. Deem and Ramdas Pophale) SiO2 
 PCOD9304583
Probable space group: C 2/C
;
_chemical_formula_sum "Si O2"
_cell_formula_units_Z 40
_cell_length_a 8.010338
_cell_length_b 23.348520
_cell_length_c 9.439026
_cell_angle_alpha 90.000000
_cell_angle_beta 85.430452
_cell_angle_gamma 90.000000
_cell_volume 1759.765170
_symmetry_space_group_name_H-M "C 2/C"
_symmetry_group_IT_number 15
_symmetry_cell_setting 'monoclinic'
loop_
_space_group_symop_operation_xyz
x,y,z
-x,y,1/2-z
-x,-y,-z
x,-y,1/2+z
1/2+x,1/2+y,z
1/2-x,1/2+y,1/2-z
1/2-x,1/2-y,-z
1/2+x,1/2-y,1/2+z
loop_
_atom_site_type_symbol
_atom_site_label
_atom_site_fract_x
_atom_site_fract_y
_atom_site_fract_z
Si Si1 0.695508 0.748569 0.673592
Si Si2 0.685141 0.569671 0.957021
Si Si3 0.797026 0.941148 0.555299
Si Si4 0.677256 0.123651 0.805845
Si Si5 0.312425 0.868077 0.701485
O O1 0.500000 0.744569 0.750000
O O2 0.750000 0.750000 0.500000
O O3 0.781118 0.690045 0.715883
O O4 0.760372 0.807244 0.741484
O O5 0.757082 0.505907 0.970959
O O6 0.783146 0.618259 0.039431
O O7 0.492317 0.567023 0.012570
O O8 0.693908 0.586216 0.792852
O O9 0.695529 0.896650 0.465220
O O10 0.771342 0.922428 0.717681
O O11 0.500000 0.110046 0.750000
O O12 0.500000 0.867915 0.750000
#
# Coordination Sequence:
#
# PCOD9304583 Si02
#       5
#     8   8   8   8   8
#     4  11  25  48  75 101 143 187 231 295 357 423
#     4  11  25  41  69 101 132 186 229 287 348 424
#     4  11  23  45  66  96 141 179 231 285 351 422
#     4  12  26  43  69 101 138 181 236 289 354 416
#     4  11  24  42  69 100 136 177 232 288 350 417
#
# _framework density 22.730305999999999
#
# number of rings (size 3 to 8) (size 9 to 14) (size 15 to 20)
#    0.000    0.800    2.000    4.800    2.800   10.400 
#    0.000    0.000    0.000    0.000    0.000    0.000 
#    0.000    0.000    0.000    0.000    0.000    0.000 
#
# Total GULP energy -111671.447352 kJ/mol
# GULP energy per Si atom -5583.572368 kJ/mol
# Density = 2.267857 g / cm^3
# Si number density = 22.730306 Si / 1000 Ang^3
#
#
#
# Elastic Constant Matrix: (Units=GPa)
#
#
# Indices 1 2 3 4 5 6 
#
# 1 53.5167 12.3206 10.0723 0.0000 4.9403 0.0000
# 2 12.3206 130.5943 10.4764 0.0000 7.8407 0.0000
# 3 10.0723 10.4764 89.6932 0.0000 -8.4217 0.0000
# 4 0.0000 0.0000 0.0000 73.1388 0.0000 34.1792
# 5 4.9403 7.8407 -8.4217 0.0000 34.2374 0.0000
# 6 0.0000 0.0000 0.0000 34.1792 0.0000 46.1542
#
#
#
# Elastic Compliance Matrix: (Units=1/GPa)
#
#
# Indices 1 2 3 4 5 6 
#
# 1 0.019753 -0.001491 -0.002333 0.000000 -0.003083 0.000000
# 2 -0.001491 0.007984 -0.000938 0.000000 -0.001844 0.000000
# 3 -0.002333 -0.000938 0.011846 0.000000 0.003465 0.000000
# 4 0.000000 0.000000 0.000000 0.020908 0.000000 -0.015484
# 5 -0.003083 -0.001844 0.003465 0.000000 0.030927 0.000000
# 6 0.000000 0.000000 0.000000 -0.015484 0.000000 0.033133
#
#
# Mechanical properties :
#
#
# Convention : Reuss Voigt Hill
#
# Bulk Modulus (GPa) = 33.27007 37.72698 35.49852
# Shear Modulus (GPa) = 34.69899 46.76841 40.73370
#
# Velocity S-wave (km/s) = 3.91135 4.54093 4.23785
# Velocity P-wave (km/s) = 5.92173 6.64282 6.29261
#
# Compressibility (1/GPa) = 0.03005705
#
# Stress axis : x y z
#
# Youngs Moduli (GPa) = 50.62563 125.25100 84.41574
#
# Poissons Ratio (x) = 0.18678 0.19698
# Poissons Ratio (y) = 0.07550 0.07920
# Poissons Ratio (z) = 0.11813 0.11751
#
# Static dielectric constant tensor:
#      x y z
#    x 1.870200 0.000000 -0.068680 
#    y 0.000000 1.812490 0.000000 
#    z -0.068680 0.000000 1.818550 
# 
# From -- ./inp_files/23431.got.cif
#   From: 2010.05.17/outbox.cif.g08.bks.cpg/sg15_12_cif.got.tgz:23431.got - 2010.06.03 18:47:42.
