data_PCOD9304599
_publ_section_title
;
Structure prediction by ZEFSAII (Michael W. Deem and Ramdas Pophale) SiO2 
 PCOD9304599
Probable space group: C 2/C
;
_chemical_formula_sum "Si O2"
_cell_formula_units_Z 64
_cell_length_a 15.608390
_cell_length_b 8.793984
_cell_length_c 29.728074
_cell_angle_alpha 90.000000
_cell_angle_beta 134.900627
_cell_angle_gamma 90.000000
_cell_volume 2890.330356
_symmetry_space_group_name_H-M "C 2/C"
_symmetry_group_IT_number 15
_symmetry_cell_setting 'monoclinic'
loop_
_space_group_symop_operation_xyz
x,y,z
-x,y,1/2-z
-x,-y,-z
x,-y,1/2+z
1/2+x,1/2+y,z
1/2-x,1/2+y,1/2-z
1/2-x,1/2-y,-z
1/2+x,1/2-y,1/2+z
loop_
_atom_site_type_symbol
_atom_site_label
_atom_site_fract_x
_atom_site_fract_y
_atom_site_fract_z
Si Si1 0.871940 0.147693 0.204822
Si Si2 0.748876 0.197773 0.065696
Si Si3 0.101439 0.580539 0.474984
Si Si4 0.385978 0.052373 0.767287
Si Si5 0.985065 0.175837 0.484525
Si Si6 0.336859 0.951215 0.350314
Si Si7 0.352984 0.978580 0.603642
Si Si8 0.269146 0.654599 0.354383
O O1 0.830423 0.164645 0.138544
O O2 0.897976 0.305889 0.239117
O O3 0.000000 0.060785 0.250000
O O4 0.750633 0.094797 0.184935
O O5 0.815346 0.351364 0.071554
O O6 0.618035 0.258774 0.031004
O O7 0.707344 0.037203 0.028718
O O8 0.082271 0.716810 0.503553
O O9 0.135208 0.624821 0.436332
O O10 0.967261 0.497710 0.420214
O O11 0.352051 0.104638 0.804990
O O12 0.517270 0.979985 0.823950
O O13 0.292664 0.937486 0.708496
O O14 0.914983 0.169682 0.410728
O O15 0.000000 0.000000 0.500000
O O16 0.248253 0.834482 0.343806
O O17 0.265971 0.921740 0.611168
#
# Coordination Sequence:
#
# PCOD9304599 Si02
#       8
#     8   8   8   8   8   8   8   8
#     4  12  22  41  69  97 131 180 231 275 346 413
#     4  12  21  44  71 101 133 182 233 287 341 421
#     4  11  25  44  70 106 136 180 234 287 347 414
#     4  11  23  45  68  97 134 183 230 276 342 420
#     4  12  23  42  72 101 138 181 231 285 351 415
#     4  11  25  42  70  99 137 176 229 288 339 412
#     4  11  24  43  73  97 145 184 221 291 351 418
#     4  12  23  43  68  99 136 179 227 275 351 409
#
# _framework density 22.142797000000002
#
# number of rings (size 3 to 8) (size 9 to 14) (size 15 to 20)
#    0.000    0.500    6.250    2.625    0.000    1.500 
#    0.000    0.000    2.750    0.000    0.000    0.000 
#    0.000    0.000    0.000    0.000    0.000    0.000 
#
# Total GULP energy -178261.956697 kJ/mol
# GULP energy per Si atom -5570.686147 kJ/mol
# Density = 2.209240 g / cm^3
# Si number density = 22.142797 Si / 1000 Ang^3
#
#
#
# Elastic Constant Matrix: (Units=GPa)
#
#
# Indices 1 2 3 4 5 6 
#
# 1 43.2139 5.7308 31.2192 0.0000 0.2557 0.0000
# 2 5.7308 60.4581 37.4274 0.0000 -17.1504 0.0000
# 3 31.2192 37.4274 161.8487 0.0000 7.3638 0.0000
# 4 0.0000 0.0000 0.0000 24.0769 0.0000 -5.4131
# 5 0.2557 -17.1504 7.3638 0.0000 30.5901 0.0000
# 6 0.0000 0.0000 0.0000 -5.4131 0.0000 -1.4888
#
#
#
# Elastic Compliance Matrix: (Units=1/GPa)
#
#
# Indices 1 2 3 4 5 6 
#
# 1 0.027009 0.001493 -0.005645 0.000000 0.001970 0.000000
# 2 0.001493 0.025048 -0.006793 0.000000 0.015666 0.000000
# 3 -0.005645 -0.006793 0.009109 0.000000 -0.005954 0.000000
# 4 0.000000 0.000000 0.000000 0.022853 0.000000 -0.083090
# 5 0.001970 0.015666 -0.005954 0.000000 0.042890 0.000000
# 6 0.000000 0.000000 0.000000 -0.083090 0.000000 -0.369578
#
#
# Mechanical properties :
#
#
# Convention : Reuss Voigt Hill
#
# Bulk Modulus (GPa) = 25.46015 46.03060 35.74538
# Shear Modulus (GPa) = -24.07475 23.37853 -0.34811
#
# Velocity S-wave (km/s) = -3.30092 3.25284 -0.39693
# Velocity P-wave (km/s) = 1.73350 5.91111 3.99601
#
# Compressibility (1/GPa) = 0.03927707
#
# Stress axis : x y z
#
# Youngs Moduli (GPa) = 37.02474 39.92271 109.77834
#
# Poissons Ratio (x) = -0.05961 0.61967
# Poissons Ratio (y) = -0.05528 0.74575
# Poissons Ratio (z) = 0.20899 0.27120
#
# Static dielectric constant tensor:
#      x y z
#    x 1.912860 0.000000 0.001050 
#    y 0.000000 2.139160 0.000000 
#    z 0.001050 0.000000 1.937630 
# 
# From -- ./inp_files/315715.got.cif
#   From: 2010.05.17/outbox.cif.g08.bks.cpg/sg15_158_cif.got.tgz:315715.got - 2010.06.03 18:47:42.
