data_PCOD9304724
_publ_section_title
;
Structure prediction by ZEFSAII (Michael W. Deem and Ramdas Pophale) SiO2 
 PCOD9304724
Probable space group: C 2/C
;
_chemical_formula_sum "Si O2"
_cell_formula_units_Z 44
_cell_length_a 6.382100
_cell_length_b 26.274650
_cell_length_c 12.950602
_cell_angle_alpha 90.000000
_cell_angle_beta 68.066567
_cell_angle_gamma 90.000000
_cell_volume 2014.465713
_symmetry_space_group_name_H-M "C 2/C"
_symmetry_group_IT_number 15
_symmetry_cell_setting 'monoclinic'
loop_
_space_group_symop_operation_xyz
x,y,z
-x,y,1/2-z
-x,-y,-z
x,-y,1/2+z
1/2+x,1/2+y,z
1/2-x,1/2+y,1/2-z
1/2-x,1/2-y,-z
1/2+x,1/2-y,1/2+z
loop_
_atom_site_type_symbol
_atom_site_label
_atom_site_fract_x
_atom_site_fract_y
_atom_site_fract_z
Si Si1 0.500000 0.872777 0.250000
Si Si2 0.477141 0.803847 0.051193
Si Si3 0.643049 0.138239 0.126645
Si Si4 0.894391 0.955120 0.158955
Si Si5 0.156314 0.468167 0.550969
Si Si6 0.984737 0.197313 0.374497
O O1 0.473783 0.838167 0.153803
O O2 0.725636 0.907413 0.200896
O O3 0.400889 0.747049 0.094740
O O4 0.352165 0.830308 0.979846
O O5 0.732475 0.802335 0.962166
O O6 0.500000 0.159638 0.250000
O O7 0.547040 0.082923 0.116271
O O8 0.897634 0.143949 0.120189
O O9 0.000000 0.970063 0.250000
O O10 0.742215 0.996973 0.128852
O O11 0.117676 0.948387 0.048312
O O12 0.000000 0.500000 0.500000
O O13 0.000000 0.204888 0.250000
#
# Coordination Sequence:
#
# PCOD9304724 Si02
#       6
#     4   8   8   8   8   8
#     4  12  24  44  72 104 144 190 240 294 364 434
#     4  11  24  44  71  99 142 182 229 293 351 432
#     4  12  25  41  69 100 134 177 231 289 346 424
#     4  11  24  43  68  97 137 181 242 294 350 425
#     4  11  26  45  66  99 139 186 239 295 359 428
#     4  11  23  46  67 103 140 182 233 284 361 427
#
# _framework density 21.842020000000002
#
# number of rings (size 3 to 8) (size 9 to 14) (size 15 to 20)
#    0.000    0.727    2.727    4.909    3.818    2.182 
#    0.000    0.909    0.000    0.000    0.000    0.000 
#    0.000    0.000    0.000    0.000    0.000    0.000 
#
# Total GULP energy -122910.671898 kJ/mol
# GULP energy per Si atom -5586.848723 kJ/mol
# Density = 2.179231 g / cm^3
# Si number density = 21.842020 Si / 1000 Ang^3
#
#
#
# Elastic Constant Matrix: (Units=GPa)
#
#
# Indices 1 2 3 4 5 6 
#
# 1 71.5881 35.2384 24.9450 0.0000 14.0129 0.0000
# 2 35.2384 96.5336 53.1732 0.0000 20.0896 0.0000
# 3 24.9450 53.1732 151.9751 0.0000 21.7122 0.0000
# 4 0.0000 0.0000 0.0000 113.0459 0.0000 -53.5125
# 5 14.0129 20.0896 21.7122 0.0000 46.2193 0.0000
# 6 0.0000 0.0000 0.0000 -53.5125 0.0000 82.4893
#
#
#
# Elastic Compliance Matrix: (Units=1/GPa)
#
#
# Indices 1 2 3 4 5 6 
#
# 1 0.017379 -0.005492 -0.000557 0.000000 -0.002620 0.000000
# 2 -0.005492 0.015193 -0.003975 0.000000 -0.003071 0.000000
# 3 -0.000557 -0.003975 0.008352 0.000000 -0.002027 0.000000
# 4 0.000000 0.000000 0.000000 0.012766 0.000000 0.008282
# 5 -0.002620 -0.003071 -0.002027 0.000000 0.024717 0.000000
# 6 0.000000 0.000000 0.000000 0.008282 0.000000 0.017495
#
#
# Mechanical properties :
#
#
# Convention : Reuss Voigt Hill
#
# Bulk Modulus (GPa) = 47.90323 60.75666 54.32995
# Shear Modulus (GPa) = 40.68029 62.13357 51.40693
#
# Velocity S-wave (km/s) = 4.32033 5.33934 4.85663
# Velocity P-wave (km/s) = 6.84589 8.11716 7.50848
#
# Compressibility (1/GPa) = 0.02087542
#
# Stress axis : x y z
#
# Youngs Moduli (GPa) = 57.54033 65.82065 119.73367
#
# Poissons Ratio (x) = 0.36149 0.06665
# Poissons Ratio (y) = 0.31602 0.47600
# Poissons Ratio (z) = 0.03203 0.26167
#
# Static dielectric constant tensor:
#      x y z
#    x 1.784560 0.000000 -0.027450 
#    y 0.000000 1.827830 0.000000 
#    z -0.027450 0.000000 1.779560 
# 
# From -- ./inp_files/73846.got.cif
#   From: 2010.05.17/outbox.cif.g08.bks.cpg/sg15_37_cif.got.tgz:73846.got - 2010.06.03 18:47:42.
