data_PCOD9304004
_publ_section_title
;
Structure prediction by ZEFSAII (Michael W. Deem and Ramdas Pophale) SiO2 
 PCOD9304004
Probable space group: C 2/C
;
_chemical_formula_sum "Si O2"
_cell_formula_units_Z 44
_cell_length_a 15.924469
_cell_length_b 8.400420
_cell_length_c 15.685244
_cell_angle_alpha 90.000000
_cell_angle_beta 58.674509
_cell_angle_gamma 90.000000
_cell_volume 1792.383113
_symmetry_space_group_name_H-M "C 2/C"
_symmetry_group_IT_number 15
_symmetry_cell_setting 'monoclinic'
loop_
_space_group_symop_operation_xyz
x,y,z
-x,y,1/2-z
-x,-y,-z
x,-y,1/2+z
1/2+x,1/2+y,z
1/2-x,1/2+y,1/2-z
1/2-x,1/2-y,-z
1/2+x,1/2-y,1/2+z
loop_
_atom_site_type_symbol
_atom_site_label
_atom_site_fract_x
_atom_site_fract_y
_atom_site_fract_z
Si Si1 0.632050 0.992341 0.278352
Si Si2 0.150611 0.977530 0.352156
Si Si3 0.000000 0.271625 0.750000
Si Si4 0.011674 0.220345 0.372706
Si Si5 0.137170 0.001139 0.651831
Si Si6 0.653180 0.870692 0.942814
O O1 0.739378 0.036923 0.187391
O O2 0.554980 0.117373 0.286643
O O3 0.637073 0.001964 0.377301
O O4 0.597047 0.814184 0.276674
O O5 0.141178 0.975440 0.253275
O O6 0.066760 0.109246 0.413708
O O7 0.150994 0.804267 0.396658
O O8 0.084825 0.169198 0.657810
O O9 0.940538 0.113368 0.353519
O O10 0.938603 0.354606 0.446898
O O11 0.243554 0.928373 0.571074
#
# Coordination Sequence:
#
# PCOD9304004 Si02
#       6
#     8   8   4   8   8   8
#     4  11  25  41  66 100 127 180 227 271 325 407
#     4  11  23  41  69  95 131 174 228 264 328 406
#     4  12  24  42  66  92 132 172 236 276 312 386
#     4  12  24  42  70  99 139 169 219 282 343 388
#     4  11  23  43  66  97 128 180 223 270 323 406
#     4  11  24  44  66 101 136 174 215 282 344 391
#
# _framework density 24.548323
#
# number of rings (size 3 to 8) (size 9 to 14) (size 15 to 20)
#    0.000    0.727    3.636    3.818    7.636    0.000 
#    0.000    0.909    0.000    0.000    0.000    0.000 
#    0.000    0.000    0.000    0.000    0.000    0.000 
#
# Total GULP energy -122758.760387 kJ/mol
# GULP energy per Si atom -5579.943654 kJ/mol
# Density = 2.449245 g / cm^3
# Si number density = 24.548323 Si / 1000 Ang^3
#
#
#
# Elastic Constant Matrix: (Units=GPa)
#
#
# Indices 1 2 3 4 5 6 
#
# 1 196.2073 74.6347 22.5140 0.0000 -45.2898 0.0000
# 2 74.6347 123.2242 6.9560 0.0000 -20.1839 0.0000
# 3 22.5140 6.9560 38.7587 0.0000 -24.8667 0.0000
# 4 0.0000 0.0000 0.0000 35.3990 0.0000 -3.8489
# 5 -45.2898 -20.1839 -24.8667 0.0000 33.3338 0.0000
# 6 0.0000 0.0000 0.0000 -3.8489 0.0000 55.4681
#
#
#
# Elastic Compliance Matrix: (Units=1/GPa)
#
#
# Indices 1 2 3 4 5 6 
#
# 1 0.008971 -0.003554 0.003579 0.000000 0.012706 0.000000
# 2 -0.003554 0.010689 0.002302 0.000000 0.003360 0.000000
# 3 0.003579 0.002302 0.052404 0.000000 0.045349 0.000000
# 4 0.000000 0.000000 0.000000 0.028464 0.000000 0.001975
# 5 0.012706 0.003360 0.045349 0.000000 0.083128 0.000000
# 6 0.000000 0.000000 0.000000 0.001975 0.000000 0.018165
#
#
# Mechanical properties :
#
#
# Convention : Reuss Voigt Hill
#
# Bulk Modulus (GPa) = 13.03491 62.93328 37.98409
# Shear Modulus (GPa) = 22.44773 41.77920 32.11347
#
# Velocity S-wave (km/s) = 3.02724 4.12991 3.62079
# Velocity P-wave (km/s) = 4.18811 6.95943 5.74343
#
# Compressibility (1/GPa) = 0.07671709
#
# Stress axis : x y z
#
# Youngs Moduli (GPa) = 111.47111 93.55835 19.08260
#
# Poissons Ratio (x) = 0.33253 -0.06830
# Poissons Ratio (y) = 0.39620 -0.04393
# Poissons Ratio (z) = -0.39895 -0.21540
#
# Static dielectric constant tensor:
#      x y z
#    x 1.984450 0.000000 -0.015480 
#    y 0.000000 1.938400 0.000000 
#    z -0.015480 0.000000 2.052630 
# 
# From -- ./inp_files/202936.got.cif
#   From: 2010.05.17/outbox.cif.g08.bks.cpg/sg15_102_cif.got.tgz:202936.got - 2010.06.03 18:47:42.
