data_PCOD9304180
_publ_section_title
;
Structure prediction by ZEFSAII (Michael W. Deem and Ramdas Pophale) SiO2 
 PCOD9304180
Probable space group: C 2/C
;
_chemical_formula_sum "Si O2"
_cell_formula_units_Z 56
_cell_length_a 27.934028
_cell_length_b 11.725321
_cell_length_c 14.098389
_cell_angle_alpha 90.000000
_cell_angle_beta 28.354046
_cell_angle_gamma 90.000000
_cell_volume 2193.041824
_symmetry_space_group_name_H-M "C 2/C"
_symmetry_group_IT_number 15
_symmetry_cell_setting 'monoclinic'
loop_
_space_group_symop_operation_xyz
x,y,z
-x,y,1/2-z
-x,-y,-z
x,-y,1/2+z
1/2+x,1/2+y,z
1/2-x,1/2+y,1/2-z
1/2-x,1/2-y,-z
1/2+x,1/2-y,1/2+z
loop_
_atom_site_type_symbol
_atom_site_label
_atom_site_fract_x
_atom_site_fract_y
_atom_site_fract_z
Si Si1 0.321541 0.168194 0.436636
Si Si2 0.952625 0.626882 0.524754
Si Si3 0.687504 0.504070 0.383998
Si Si4 0.772121 0.741633 0.227866
Si Si5 0.962431 0.608249 0.925009
Si Si6 0.557845 0.374970 0.970711
Si Si7 0.653815 0.529702 0.663171
O O1 0.250000 0.250000 0.500000
O O2 0.430277 0.134719 0.211297
O O3 0.318715 0.230735 0.541255
O O4 0.249345 0.058052 0.562157
O O5 0.953935 0.620519 0.637032
O O6 0.913528 0.514009 0.540758
O O7 0.906403 0.746400 0.573929
O O8 0.750593 0.611975 0.228162
O O9 0.710154 0.369010 0.342595
O O10 0.584785 0.533513 0.505378
O O11 0.684174 0.526790 0.501758
O O12 0.882672 0.709907 0.078567
O O13 0.000000 0.606416 0.750000
O O14 0.606035 0.415778 0.788545
O O15 0.437475 0.379934 0.168771
#
# Coordination Sequence:
#
# PCOD9304180 Si02
#       7
#     8   8   8   8   8   8   8
#     4  12  20  47  74  98 143 193 237 287 356 434
#     4  11  25  46  74 104 144 193 246 294 362 436
#     4  12  27  44  73 103 147 185 244 291 367 423
#     4  12  27  47  71 107 143 195 236 300 357 441
#     4  11  27  45  71 105 149 190 237 302 370 425
#     4  11  24  42  70 109 135 186 242 301 349 432
#     4  11  23  42  72 103 142 182 238 300 358 419
#
# _framework density 25.535309000000002
#
# number of rings (size 3 to 8) (size 9 to 14) (size 15 to 20)
#    0.000    0.571    5.714    0.429    8.000    1.143 
#    0.000    0.714    0.000    0.000    0.000    0.000 
#    0.000    0.000    0.000    0.000    0.000    0.000 
#
# Total GULP energy -156263.101736 kJ/mol
# GULP energy per Si atom -5580.825062 kJ/mol
# Density = 2.547719 g / cm^3
# Si number density = 25.535309 Si / 1000 Ang^3
#
#
#
# Elastic Constant Matrix: (Units=GPa)
#
#
# Indices 1 2 3 4 5 6 
#
# 1 103.5227 57.4232 25.1824 0.0000 24.6021 0.0000
# 2 57.4232 222.8780 44.9968 0.0000 4.7387 0.0000
# 3 25.1824 44.9968 71.6065 0.0000 12.4780 0.0000
# 4 0.0000 0.0000 0.0000 33.2606 0.0000 -8.0579
# 5 24.6021 4.7387 12.4780 0.0000 37.1945 0.0000
# 6 0.0000 0.0000 0.0000 -8.0579 0.0000 58.4460
#
#
#
# Elastic Compliance Matrix: (Units=1/GPa)
#
#
# Indices 1 2 3 4 5 6 
#
# 1 0.013641 -0.003046 -0.001464 0.000000 -0.008143 0.000000
# 2 -0.003046 0.005826 -0.002986 0.000000 0.002274 0.000000
# 3 -0.001464 -0.002986 0.017123 0.000000 -0.004395 0.000000
# 4 0.000000 0.000000 0.000000 0.031105 0.000000 0.004288
# 5 -0.008143 0.002274 -0.004395 0.000000 0.033457 0.000000
# 6 0.000000 0.000000 0.000000 0.004288 0.000000 0.017701
#
#
# Mechanical properties :
#
#
# Convention : Reuss Voigt Hill
#
# Bulk Modulus (GPa) = 46.30268 72.57911 59.44090
# Shear Modulus (GPa) = 35.45030 43.80720 39.62875
#
# Velocity S-wave (km/s) = 3.73001 4.14642 3.94371
# Velocity P-wave (km/s) = 6.05994 7.16997 6.63820
#
# Compressibility (1/GPa) = 0.02159702
#
# Stress axis : x y z
#
# Youngs Moduli (GPa) = 73.31103 171.64477 58.40250
#
# Poissons Ratio (x) = 0.52277 0.08551
# Poissons Ratio (y) = 0.22328 0.17440
# Poissons Ratio (z) = 0.10734 0.51256
#
# Static dielectric constant tensor:
#      x y z
#    x 2.144650 0.000000 -0.070380 
#    y 0.000000 2.078860 0.000000 
#    z -0.070380 0.000000 2.023030 
# 
# From -- ./inp_files/181886.got.cif
#   From: 2010.05.17/outbox.cif.g08.bks.cpg/sg15_91_cif.got.tgz:181886.got - 2010.06.03 18:47:42.
