data_PCOD9304280
_publ_section_title
;
Structure prediction by ZEFSAII (Michael W. Deem and Ramdas Pophale) SiO2 
 PCOD9304280
Probable space group: C 2/C
;
_chemical_formula_sum "Si O2"
_cell_formula_units_Z 36
_cell_length_a 20.689687
_cell_length_b 15.579600
_cell_length_c 13.492414
_cell_angle_alpha 90.000000
_cell_angle_beta 158.328553
_cell_angle_gamma 90.000000
_cell_volume 1606.053477
_symmetry_space_group_name_H-M "C 2/C"
_symmetry_group_IT_number 15
_symmetry_cell_setting 'monoclinic'
loop_
_space_group_symop_operation_xyz
x,y,z
-x,y,1/2-z
-x,-y,-z
x,-y,1/2+z
1/2+x,1/2+y,z
1/2-x,1/2+y,1/2-z
1/2-x,1/2-y,-z
1/2+x,1/2-y,1/2+z
loop_
_atom_site_type_symbol
_atom_site_label
_atom_site_fract_x
_atom_site_fract_y
_atom_site_fract_z
Si Si1 0.211093 0.282547 0.331726
Si Si2 0.500000 0.415597 0.750000
Si Si3 0.700197 0.533145 0.873532
Si Si4 0.591289 0.910323 0.658124
Si Si5 0.664725 0.395660 0.667012
O O1 0.250000 0.250000 0.500000
O O2 0.354742 0.351182 0.500710
O O3 0.221624 0.196305 0.285046
O O4 0.030174 0.332938 0.053143
O O5 0.601663 0.469975 0.811982
O O6 0.751723 0.471114 0.856895
O O7 0.543150 0.594641 0.616171
O O8 0.853499 0.582648 0.148548
O O9 0.771739 0.906323 0.854018
O O10 0.500000 0.000000 0.500000
#
# Coordination Sequence:
#
# PCOD9304280 Si02
#       5
#     8   4   8   8   8
#     4  12  24  39  67  97 128 171 221 274 326 390
#     4  12  20  44  60  90 130 166 214 270 324 382
#     4  11  23  43  68  93 134 177 214 270 331 392
#     4  12  23  43  70  99 130 174 224 272 321 403
#     4  11  24  42  67  98 133 173 218 272 333 392
#
# _framework density 22.415192000000001
#
# number of rings (size 3 to 8) (size 9 to 14) (size 15 to 20)
#    0.000    0.444    6.667    1.333    0.000    3.556 
#    0.000    0.000    0.000    0.000    0.000    0.000 
#    0.000    0.000    0.000    0.000    0.000    0.000 
#
# Total GULP energy -100660.659634 kJ/mol
# GULP energy per Si atom -5592.258869 kJ/mol
# Density = 2.236417 g / cm^3
# Si number density = 22.415192 Si / 1000 Ang^3
#
#
#
# Elastic Constant Matrix: (Units=GPa)
#
#
# Indices 1 2 3 4 5 6 
#
# 1 39.4616 14.6488 13.8821 0.0000 -8.6672 0.0000
# 2 14.6488 46.4977 24.7963 0.0000 -3.6304 0.0000
# 3 13.8821 24.7963 101.5566 0.0000 -20.4607 0.0000
# 4 0.0000 0.0000 0.0000 53.3089 0.0000 -4.0023
# 5 -8.6672 -3.6304 -20.4607 0.0000 33.4689 0.0000
# 6 0.0000 0.0000 0.0000 -4.0023 0.0000 19.6821
#
#
#
# Elastic Compliance Matrix: (Units=1/GPa)
#
#
# Indices 1 2 3 4 5 6 
#
# 1 0.030215 -0.008629 -0.000725 0.000000 0.006446 0.000000
# 2 -0.008629 0.027229 -0.006072 0.000000 -0.002993 0.000000
# 3 -0.000725 -0.006072 0.012839 0.000000 0.007003 0.000000
# 4 0.000000 0.000000 0.000000 0.019049 0.000000 0.003874
# 5 0.006446 -0.002993 0.007003 0.000000 0.035504 0.000000
# 6 0.000000 0.000000 0.000000 0.003874 0.000000 0.051595
#
#
# Mechanical properties :
#
#
# Convention : Reuss Voigt Hill
#
# Bulk Modulus (GPa) = 25.36018 32.68561 29.02289
# Shear Modulus (GPa) = 22.68315 30.23788 26.46052
#
# Velocity S-wave (km/s) = 3.18457 3.67685 3.43953
# Velocity P-wave (km/s) = 4.98602 5.71307 5.36188
#
# Compressibility (1/GPa) = 0.03943189
#
# Stress axis : x y z
#
# Youngs Moduli (GPa) = 33.09611 36.72509 77.88691
#
# Poissons Ratio (x) = 0.31691 0.05644
# Poissons Ratio (y) = 0.28560 0.47291
# Poissons Ratio (z) = 0.02398 0.22299
#
# Static dielectric constant tensor:
#      x y z
#    x 1.857290 0.000000 0.003200 
#    y 0.000000 1.798830 0.000000 
#    z 0.003200 0.000000 1.901310 
# 
# From -- ./inp_files/57124.got.cif
#   From: 2010.05.17/outbox.cif.g08.bks.cpg/sg15_29_cif.got.tgz:57124.got - 2010.06.03 18:47:42.
