data_PCOD9304055
_publ_section_title
;
Structure prediction by ZEFSAII (Michael W. Deem and Ramdas Pophale) SiO2 
 PCOD9304055
Probable space group: C 2/C
;
_chemical_formula_sum "Si O2"
_cell_formula_units_Z 60
_cell_length_a 5.237141
_cell_length_b 18.127374
_cell_length_c 30.877918
_cell_angle_alpha 90.000000
_cell_angle_beta 68.305801
_cell_angle_gamma 90.000000
_cell_volume 2723.782039
_symmetry_space_group_name_H-M "C 2/C"
_symmetry_group_IT_number 15
_symmetry_cell_setting 'monoclinic'
loop_
_space_group_symop_operation_xyz
x,y,z
-x,y,1/2-z
-x,-y,-z
x,-y,1/2+z
1/2+x,1/2+y,z
1/2-x,1/2+y,1/2-z
1/2-x,1/2-y,-z
1/2+x,1/2-y,1/2+z
loop_
_atom_site_type_symbol
_atom_site_label
_atom_site_fract_x
_atom_site_fract_y
_atom_site_fract_z
Si Si1 0.826253 0.153452 0.049358
Si Si2 0.689419 0.792014 0.878509
Si Si3 0.518322 0.796576 0.067248
Si Si4 0.400803 0.368574 0.706470
Si Si5 0.401098 0.915083 0.507928
Si Si6 0.302777 0.467738 0.219456
Si Si7 0.496899 0.660799 0.839957
Si Si8 0.500000 0.738301 0.750000
O O1 0.610607 0.170461 0.101547
O O2 0.925641 0.237853 0.036160
O O3 0.634483 0.121653 0.023623
O O4 0.086101 0.100605 0.043253
O O5 0.702751 0.717562 0.849606
O O6 0.774899 0.756347 0.918987
O O7 0.877842 0.852505 0.844306
O O8 0.282060 0.822419 0.116104
O O9 0.607544 0.870712 0.037251
O O10 0.500000 0.371418 0.750000
O O11 0.264106 0.447256 0.707657
O O12 0.220224 0.295729 0.718111
O O13 0.500000 0.000000 0.500000
O O14 0.500000 0.466459 0.250000
O O15 0.428973 0.424341 0.170422
O O16 0.000000 0.437653 0.250000
O O17 0.530342 0.685617 0.788514
#
# Coordination Sequence:
#
# PCOD9304055 Si02
#       8
#     8   8   8   8   8   8   8   4
#     4  11  25  49  74 102 139 183 231 290 352 432
#     4  11  24  42  73 106 136 183 244 295 351 421
#     4  11  25  45  72 105 138 183 242 291 356 427
#     4  11  23  42  64  96 138 183 234 283 347 416
#     4  12  27  48  75 106 143 186 231 292 369 437
#     4  11  26  44  63  94 136 187 227 282 349 406
#     4  11  25  39  68 101 141 180 241 291 345 412
#     4  12  20  40  66  96 134 190 238 288 340 408
#
# _framework density 22.028195
#
# number of rings (size 3 to 8) (size 9 to 14) (size 15 to 20)
#    0.000    0.800    5.333    1.200    7.467    1.067 
#    0.000    0.000    0.000    0.000    0.000    0.000 
#    0.000    0.000    0.000    0.000    0.000    0.000 
#
# Total GULP energy -167111.116842 kJ/mol
# GULP energy per Si atom -5570.370561 kJ/mol
# Density = 2.197806 g / cm^3
# Si number density = 22.028195 Si / 1000 Ang^3
#
#
#
# Elastic Constant Matrix: (Units=GPa)
#
#
# Indices 1 2 3 4 5 6 
#
# 1 90.6687 33.6044 32.8745 0.0000 -14.8011 0.0000
# 2 33.6044 127.2935 44.8234 0.0000 -12.6363 0.0000
# 3 32.8745 44.8234 82.4777 0.0000 -6.0039 0.0000
# 4 0.0000 0.0000 0.0000 -0.0481 0.0000 -28.7812
# 5 -14.8011 -12.6363 -6.0039 0.0000 43.0060 0.0000
# 6 0.0000 0.0000 0.0000 -28.7812 0.0000 11.3212
#
#
#
# Elastic Compliance Matrix: (Units=1/GPa)
#
#
# Indices 1 2 3 4 5 6 
#
# 1 0.013837 -0.001784 -0.004281 0.000000 0.003640 0.000000
# 2 -0.001784 0.010144 -0.004677 0.000000 0.001714 0.000000
# 3 -0.004281 -0.004677 0.016331 0.000000 -0.000567 0.000000
# 4 0.000000 0.000000 0.000000 -0.013658 0.000000 -0.034722
# 5 0.003640 0.001714 -0.000567 0.000000 0.024930 0.000000
# 6 0.000000 0.000000 0.000000 -0.034722 0.000000 0.000058
#
#
# Mechanical properties :
#
#
# Convention : Reuss Voigt Hill
#
# Bulk Modulus (GPa) = 53.11108 58.11607 55.61357
# Shear Modulus (GPa) = 62.97194 23.46499 43.21847
#
# Velocity S-wave (km/s) = 5.35248 3.26732 4.43421
# Velocity P-wave (km/s) = 7.89693 6.37759 7.17758
#
# Compressibility (1/GPa) = 0.01882846
#
# Stress axis : x y z
#
# Youngs Moduli (GPa) = 72.27166 98.58219 61.23303
#
# Poissons Ratio (x) = 0.17588 0.26211
# Poissons Ratio (y) = 0.12894 0.28638
# Poissons Ratio (z) = 0.30936 0.46106
#
# Static dielectric constant tensor:
#      x y z
#    x 1.919250 0.000000 -0.436620 
#    y 0.000000 1.858610 0.000000 
#    z -0.436620 0.000000 -5.342620 
# 
# From -- ./inp_files/305787.got.cif
#   From: 2010.05.17/outbox.cif.g08.bks.cpg/sg15_153_cif.got.tgz:305787.got - 2010.06.03 18:47:42.
