data_PCOD9304905
_publ_section_title
;
Structure prediction by ZEFSAII (Michael W. Deem and Ramdas Pophale) SiO2 
 PCOD9304905
Probable space group: C 2/C
;
_chemical_formula_sum "Si O2"
_cell_formula_units_Z 40
_cell_length_a 8.818409
_cell_length_b 14.702195
_cell_length_c 12.804727
_cell_angle_alpha 90.000000
_cell_angle_beta 105.463890
_cell_angle_gamma 90.000000
_cell_volume 1600.033478
_symmetry_space_group_name_H-M "C 2/C"
_symmetry_group_IT_number 15
_symmetry_cell_setting 'monoclinic'
loop_
_space_group_symop_operation_xyz
x,y,z
-x,y,1/2-z
-x,-y,-z
x,-y,1/2+z
1/2+x,1/2+y,z
1/2-x,1/2+y,1/2-z
1/2-x,1/2-y,-z
1/2+x,1/2-y,1/2+z
loop_
_atom_site_type_symbol
_atom_site_label
_atom_site_fract_x
_atom_site_fract_y
_atom_site_fract_z
Si Si1 0.136764 0.858665 0.191353
Si Si2 0.122350 0.603939 0.449481
Si Si3 0.432869 0.271742 0.519772
Si Si4 0.811328 0.497468 0.837450
Si Si5 0.313353 0.674818 0.284679
O O1 0.066272 0.853969 0.063026
O O2 0.211489 0.759855 0.226666
O O3 0.000000 0.875475 0.250000
O O4 0.270556 0.932097 0.238539
O O5 0.211513 0.548985 0.556724
O O6 0.229229 0.642016 0.377233
O O7 0.029837 0.687487 0.487942
O O8 0.988639 0.539308 0.376070
O O9 0.250000 0.250000 0.500000
O O10 0.517475 0.293663 0.643479
O O11 0.704210 0.410009 0.795911
#
# Coordination Sequence:
#
# PCOD9304905 Si02
#       5
#     8   8   8   8   8
#     4  12  24  46  77 108 144 200 251 302 382 456
#     4  11  23  48  77 108 146 203 257 296 374 470
#     4  12  27  44  73 109 149 192 250 316 376 436
#     4  11  25  41  76 111 141 187 253 311 361 441
#     4  12  24  50  78 104 150 206 250 305 376 462
#
# _framework density 24.999478
#
# number of rings (size 3 to 8) (size 9 to 14) (size 15 to 20)
#    0.000    0.400    6.000    2.400    0.000    8.000 
#    0.000    0.000    0.000    0.000    0.000    0.000 
#    0.000    0.000    0.000    0.000    0.000    0.000 
#
# Total GULP energy -112209.628827 kJ/mol
# GULP energy per Si atom -5610.481441 kJ/mol
# Density = 2.494258 g / cm^3
# Si number density = 24.999478 Si / 1000 Ang^3
#
#
#
# Elastic Constant Matrix: (Units=GPa)
#
#
# Indices 1 2 3 4 5 6 
#
# 1 87.7176 14.6775 31.6538 0.0000 8.1111 0.0000
# 2 14.6775 126.1227 40.3807 0.0000 18.1174 0.0000
# 3 31.6538 40.3807 149.0385 0.0000 34.9766 0.0000
# 4 0.0000 0.0000 0.0000 63.0574 0.0000 11.9403
# 5 8.1111 18.1174 34.9766 0.0000 40.6199 0.0000
# 6 0.0000 0.0000 0.0000 11.9403 0.0000 30.4530
#
#
#
# Elastic Compliance Matrix: (Units=1/GPa)
#
#
# Indices 1 2 3 4 5 6 
#
# 1 0.012396 -0.000650 -0.002436 0.000000 -0.000088 0.000000
# 2 -0.000650 0.008893 -0.001718 0.000000 -0.002357 0.000000
# 3 -0.002436 -0.001718 0.009272 0.000000 -0.006731 0.000000
# 4 0.000000 0.000000 0.000000 0.017130 0.000000 -0.006717
# 5 -0.000088 -0.002357 -0.006731 0.000000 0.031484 0.000000
# 6 0.000000 0.000000 0.000000 -0.006717 0.000000 0.035471
#
#
# Mechanical properties :
#
#
# Convention : Reuss Voigt Hill
#
# Bulk Modulus (GPa) = 47.72603 59.58920 53.65762
# Shear Modulus (GPa) = 38.09822 45.23717 41.66769
#
# Velocity S-wave (km/s) = 3.90803 4.25847 4.08700
# Velocity P-wave (km/s) = 6.28457 6.93306 6.61676
#
# Compressibility (1/GPa) = 0.02095293
#
# Stress axis : x y z
#
# Youngs Moduli (GPa) = 80.66996 112.44562 107.84770
#
# Poissons Ratio (x) = 0.07309 0.26272
# Poissons Ratio (y) = 0.05244 0.18531
# Poissons Ratio (z) = 0.19652 0.19321
#
# Static dielectric constant tensor:
#      x y z
#    x 2.004410 0.000000 -0.037700 
#    y 0.000000 1.944580 0.000000 
#    z -0.037700 0.000000 1.973400 
# 
# From -- ./inp_files/133294.got.cif
#   From: 2010.05.17/outbox.cif.g08.bks.cpg/sg15_67_cif.got.tgz:133294.got - 2010.06.03 18:47:42.
