data_PCOD9304539
_publ_section_title
;
Structure prediction by ZEFSAII (Michael W. Deem and Ramdas Pophale) SiO2 
 PCOD9304539
Probable space group: C 2/C
;
_chemical_formula_sum "Si O2"
_cell_formula_units_Z 40
_cell_length_a 11.161034
_cell_length_b 16.003286
_cell_length_c 10.099014
_cell_angle_alpha 90.000000
_cell_angle_beta 101.669769
_cell_angle_gamma 90.000000
_cell_volume 1766.531902
_symmetry_space_group_name_H-M "C 2/C"
_symmetry_group_IT_number 15
_symmetry_cell_setting 'monoclinic'
loop_
_space_group_symop_operation_xyz
x,y,z
-x,y,1/2-z
-x,-y,-z
x,-y,1/2+z
1/2+x,1/2+y,z
1/2-x,1/2+y,1/2-z
1/2-x,1/2-y,-z
1/2+x,1/2-y,1/2+z
loop_
_atom_site_type_symbol
_atom_site_label
_atom_site_fract_x
_atom_site_fract_y
_atom_site_fract_z
Si Si1 0.809195 0.816307 0.821752
Si Si2 0.001423 0.324165 0.405976
Si Si3 0.263432 0.625148 0.026809
Si Si4 0.136842 0.840231 0.230008
Si Si5 0.205525 0.567282 0.526814
O O1 0.924745 0.761750 0.895311
O O2 0.825684 0.856185 0.680895
O O3 0.702466 0.747066 0.780726
O O4 0.766730 0.884435 0.917580
O O5 0.927125 0.392205 0.474801
O O6 0.000000 0.348552 0.250000
O O7 0.141412 0.318746 0.480727
O O8 0.349422 0.639198 0.920739
O O9 0.211420 0.531064 0.009846
O O10 0.214638 0.908843 0.327134
O O11 0.000000 0.839246 0.250000
#
# Coordination Sequence:
#
# PCOD9304539 Si02
#       5
#     8   8   8   8   8
#     4  11  26  41  74 104 143 187 238 287 356 426
#     4  11  23  44  73 103 142 183 242 293 342 421
#     4  12  25  46  74 104 142 187 238 297 358 409
#     4  11  25  45  70 100 145 189 240 284 353 434
#     4  11  25  46  69 108 145 182 239 298 353 414
#
# _framework density 22.643236999999999
#
# number of rings (size 3 to 8) (size 9 to 14) (size 15 to 20)
#    0.000    0.800    4.000    4.800    5.600    0.800 
#    0.000    2.000    0.000    0.000    0.000    0.000 
#    0.000    0.000    0.000    0.000    0.000    0.000 
#
# Total GULP energy -112106.876410 kJ/mol
# GULP energy per Si atom -5605.343820 kJ/mol
# Density = 2.259170 g / cm^3
# Si number density = 22.643237 Si / 1000 Ang^3
#
#
#
# Elastic Constant Matrix: (Units=GPa)
#
#
# Indices 1 2 3 4 5 6 
#
# 1 124.6959 31.9061 34.9345 0.0000 -31.2537 0.0000
# 2 31.9061 91.8573 47.8729 0.0000 -14.0359 0.0000
# 3 34.9345 47.8729 123.0855 0.0000 -27.5177 0.0000
# 4 0.0000 0.0000 0.0000 23.8059 0.0000 -5.2335
# 5 -31.2537 -14.0359 -27.5177 0.0000 29.7992 0.0000
# 6 0.0000 0.0000 0.0000 -5.2335 0.0000 14.7825
#
#
#
# Elastic Compliance Matrix: (Units=1/GPa)
#
#
# Indices 1 2 3 4 5 6 
#
# 1 0.011307 -0.002333 0.000131 0.000000 0.010881 0.000000
# 2 -0.002333 0.014224 -0.004939 0.000000 -0.000308 0.000000
# 3 0.000131 -0.004939 0.011995 0.000000 0.008888 0.000000
# 4 0.000000 0.000000 0.000000 0.045552 0.000000 0.016127
# 5 0.010881 -0.000308 0.008888 0.000000 0.053032 0.000000
# 6 0.000000 0.000000 0.000000 0.016127 0.000000 0.073357
#
#
# Mechanical properties :
#
#
# Convention : Reuss Voigt Hill
#
# Bulk Modulus (GPa) = 43.02225 63.22950 53.12588
# Shear Modulus (GPa) = 21.59859 28.67253 25.13556
#
# Velocity S-wave (km/s) = 3.09182 3.56233 3.33538
# Velocity P-wave (km/s) = 5.63800 6.70113 6.19242
#
# Compressibility (1/GPa) = 0.02324379
#
# Stress axis : x y z
#
# Youngs Moduli (GPa) = 88.44108 70.30523 83.36649
#
# Poissons Ratio (x) = 0.16402 -0.01090
# Poissons Ratio (y) = 0.20633 0.41174
# Poissons Ratio (z) = -0.01157 0.34723
#
# Static dielectric constant tensor:
#      x y z
#    x 1.821260 0.000000 0.006760 
#    y 0.000000 1.840310 0.000000 
#    z 0.006760 0.000000 1.836150 
# 
# From -- ./inp_files/29227.got.cif
#   From: 2010.05.17/outbox.cif.g08.bks.cpg/sg15_15_cif.got.tgz:29227.got - 2010.06.03 18:47:42.
