data_PCOD9304771
_publ_section_title
;
Structure prediction by ZEFSAII (Michael W. Deem and Ramdas Pophale) SiO2 
 PCOD9304771
Probable space group: C 2/C
;
_chemical_formula_sum "Si O2"
_cell_formula_units_Z 52
_cell_length_a 21.439410
_cell_length_b 7.505709
_cell_length_c 13.712676
_cell_angle_alpha 90.000000
_cell_angle_beta 82.104241
_cell_angle_gamma 90.000000
_cell_volume 2185.696493
_symmetry_space_group_name_H-M "C 2/C"
_symmetry_group_IT_number 15
_symmetry_cell_setting 'monoclinic'
loop_
_space_group_symop_operation_xyz
x,y,z
-x,y,1/2-z
-x,-y,-z
x,-y,1/2+z
1/2+x,1/2+y,z
1/2-x,1/2+y,1/2-z
1/2-x,1/2-y,-z
1/2+x,1/2-y,1/2+z
loop_
_atom_site_type_symbol
_atom_site_label
_atom_site_fract_x
_atom_site_fract_y
_atom_site_fract_z
Si Si1 0.679628 0.816940 0.531225
Si Si2 0.633651 0.125824 0.258991
Si Si3 0.719966 0.155391 0.412075
Si Si4 0.543151 0.612752 0.095472
Si Si5 0.500000 0.296734 0.250000
Si Si6 0.912167 0.899718 0.584241
Si Si7 0.350291 0.710222 0.282916
O O1 0.750000 0.750000 0.500000
O O2 0.662536 0.821231 0.647921
O O3 0.631541 0.695094 0.484151
O O4 0.680905 0.002827 0.475217
O O5 0.670756 0.217509 0.340297
O O6 0.559773 0.178190 0.271067
O O7 0.649492 0.912192 0.259161
O O8 0.750000 0.250000 0.500000
O O9 0.784027 0.134780 0.334783
O O10 0.525578 0.432313 0.160418
O O11 0.475721 0.707267 0.099677
O O12 0.598104 0.707444 0.142367
O O13 0.565206 0.569239 0.981792
O O14 0.875346 0.916096 0.692084
#
# Coordination Sequence:
#
# PCOD9304771 Si02
#       7
#     8   8   8   8   4   8   8
#     4  12  25  46  73 109 148 192 245 307 373 433
#     4  12  29  47  73 113 152 192 247 308 373 445
#     4  12  28  49  73 109 145 193 244 307 367 440
#     4  11  25  46  74 107 145 196 251 301 367 451
#     4  12  26  46  72 110 150 190 246 310 366 436
#     4  11  23  46  73 107 145 195 247 299 372 440
#     4  12  25  48  75 104 150 194 248 306 373 442
#
# _framework density 23.791041
#
# number of rings (size 3 to 8) (size 9 to 14) (size 15 to 20)
#    0.000    0.308    6.154    1.846    2.154    3.692 
#    0.000    2.308    0.000    0.000    0.000    0.000 
#    0.000    0.000    0.000    0.000    0.000    0.000 
#
# Total GULP energy -145312.218803 kJ/mol
# GULP energy per Si atom -5588.931492 kJ/mol
# Density = 2.373689 g / cm^3
# Si number density = 23.791041 Si / 1000 Ang^3
#
#
#
# Elastic Constant Matrix: (Units=GPa)
#
#
# Indices 1 2 3 4 5 6 
#
# 1 176.3275 27.2845 83.6938 0.0000 10.7289 0.0000
# 2 27.2845 24.6198 4.4623 0.0000 0.9344 0.0000
# 3 83.6938 4.4623 160.0882 0.0000 1.3920 0.0000
# 4 0.0000 0.0000 0.0000 32.0006 0.0000 4.6130
# 5 10.7289 0.9344 1.3920 0.0000 58.9851 0.0000
# 6 0.0000 0.0000 0.0000 4.6130 0.0000 32.9584
#
#
#
# Elastic Compliance Matrix: (Units=1/GPa)
#
#
# Indices 1 2 3 4 5 6 
#
# 1 0.009456 -0.009579 -0.004664 0.000000 -0.001458 0.000000
# 2 -0.009579 0.050550 0.003591 0.000000 0.000857 0.000000
# 3 -0.004664 0.003591 0.008580 0.000000 0.000589 0.000000
# 4 0.000000 0.000000 0.000000 0.031893 0.000000 -0.004464
# 5 -0.001458 0.000857 0.000589 0.000000 0.017191 0.000000
# 6 0.000000 0.000000 0.000000 -0.004464 0.000000 0.030966
#
#
# Mechanical properties :
#
#
# Convention : Reuss Voigt Hill
#
# Bulk Modulus (GPa) = 21.14946 65.76852 43.45899
# Shear Modulus (GPa) = 26.92537 41.16181 34.04359
#
# Velocity S-wave (km/s) = 3.36779 4.16401 3.78688
# Velocity P-wave (km/s) = 4.90221 7.12901 6.11778
#
# Compressibility (1/GPa) = 0.04728254
#
# Stress axis : x y z
#
# Youngs Moduli (GPa) = 105.75475 19.78255 116.55594
#
# Poissons Ratio (x) = 0.18949 0.54360
# Poissons Ratio (y) = 1.01298 -0.41858
# Poissons Ratio (z) = 0.49322 -0.07104
#
# Static dielectric constant tensor:
#      x y z
#    x 1.790110 0.000000 0.052600 
#    y 0.000000 4.666080 0.000000 
#    z 0.052600 0.000000 1.819520 
# 
# From -- ./inp_files/166212.got.cif
#   From: 2010.05.17/outbox.cif.g08.bks.cpg/sg15_84_cif.got.tgz:166212.got - 2010.06.03 18:47:42.
