data_PCOD9304132
_publ_section_title
;
Structure prediction by ZEFSAII (Michael W. Deem and Ramdas Pophale) SiO2 
 PCOD9304132
Probable space group: C 2/C
;
_chemical_formula_sum "Si O2"
_cell_formula_units_Z 56
_cell_length_a 22.003294
_cell_length_b 11.403548
_cell_length_c 24.919613
_cell_angle_alpha 90.000000
_cell_angle_beta 25.469037
_cell_angle_gamma 90.000000
_cell_volume 2688.815163
_symmetry_space_group_name_H-M "C 2/C"
_symmetry_group_IT_number 15
_symmetry_cell_setting 'monoclinic'
loop_
_space_group_symop_operation_xyz
x,y,z
-x,y,1/2-z
-x,-y,-z
x,-y,1/2+z
1/2+x,1/2+y,z
1/2-x,1/2+y,1/2-z
1/2-x,1/2-y,-z
1/2+x,1/2-y,1/2+z
loop_
_atom_site_type_symbol
_atom_site_label
_atom_site_fract_x
_atom_site_fract_y
_atom_site_fract_z
Si Si1 0.592029 0.694189 0.124322
Si Si2 0.422192 0.587308 0.021231
Si Si3 0.654238 0.436915 0.039183
Si Si4 0.096136 0.711873 0.822668
Si Si5 0.068632 0.326313 0.638747
Si Si6 0.625561 0.940576 0.795534
Si Si7 0.410898 0.201088 0.079066
O O1 0.500000 0.725365 0.250000
O O2 0.596427 0.552257 0.114834
O O3 0.509286 0.743591 0.138940
O O4 0.750000 0.750000 0.000000
O O5 0.275867 0.621877 0.166372
O O6 0.500000 0.500000 0.000000
O O7 0.373521 0.539617 0.001993
O O8 0.530437 0.694277 0.929874
O O9 0.601578 0.302773 0.089234
O O10 0.809197 0.416560 0.940523
O O11 0.142741 0.578469 0.775122
O O12 0.243490 0.783260 0.702767
O O13 0.005812 0.710932 0.950051
O O14 0.000000 0.297414 0.750000
O O15 0.975767 0.391925 0.669283
O O16 0.570452 0.912643 0.898862
#
# Coordination Sequence:
#
# PCOD9304132 Si02
#       7
#     8   8   8   8   8   8   8
#     4  12  28  49  71 104 139 186 240 296 360 427
#     4  12  23  42  71 102 141 188 232 288 355 428
#     4  11  25  43  69 101 144 182 233 295 357 420
#     4  12  27  45  73  99 144 186 234 295 359 430
#     4  11  23  42  69 103 137 186 236 292 355 425
#     4  12  25  43  70 103 141 183 239 294 353 426
#     4  12  25  46  66 109 138 187 236 287 362 422
#
# _framework density 20.827017000000001
#
# number of rings (size 3 to 8) (size 9 to 14) (size 15 to 20)
#    0.000    0.286    5.714    3.429    2.000    1.143 
#    0.000    0.000    0.000    0.000    0.000    0.000 
#    0.000    0.000    0.000    0.000    0.000    0.000 
#
# Total GULP energy -156239.544875 kJ/mol
# GULP energy per Si atom -5579.983746 kJ/mol
# Density = 2.077961 g / cm^3
# Si number density = 20.827017 Si / 1000 Ang^3
#
#
#
# Elastic Constant Matrix: (Units=GPa)
#
#
# Indices 1 2 3 4 5 6 
#
# 1 168.3749 25.5395 67.7774 -0.0002 -10.8225 0.0001
# 2 25.5395 62.0988 -11.8538 0.0021 2.7884 -0.0004
# 3 67.7774 -11.8538 101.7950 0.0018 -1.2377 -0.0003
# 4 -0.0002 0.0021 0.0018 19.8722 -0.0003 10.7397
# 5 -10.8225 2.7884 -1.2377 -0.0003 47.6320 0.0000
# 6 0.0001 -0.0004 -0.0003 10.7397 0.0000 27.6359
#
#
#
# Elastic Compliance Matrix: (Units=1/GPa)
#
#
# Indices 1 2 3 4 5 6 
#
# 1 0.009797 -0.005497 -0.007134 0.000002 0.002362 -0.000001
# 2 -0.005497 0.019594 0.005914 -0.000004 -0.002242 0.000002
# 3 -0.007134 0.005914 0.015243 -0.000003 -0.001571 0.000001
# 4 0.000002 -0.000004 -0.000003 0.063700 0.000001 -0.024755
# 5 0.002362 -0.002242 -0.001571 0.000001 0.021621 0.000000
# 6 -0.000001 0.000002 0.000001 -0.024755 0.000000 0.045805
#
#
# Mechanical properties :
#
#
# Convention : Reuss Voigt Hill
#
# Bulk Modulus (GPa) = 32.05104 55.02167 43.53635
# Shear Modulus (GPa) = 25.05093 35.74840 30.39967
#
# Velocity S-wave (km/s) = 3.47192 4.14749 3.82465
# Velocity P-wave (km/s) = 5.61203 7.02932 6.36028
#
# Compressibility (1/GPa) = 0.03120023
#
# Stress axis : x y z
#
# Youngs Moduli (GPa) = 102.07721 51.03670 65.60245
#
# Poissons Ratio (x) = 0.28054 0.46802
# Poissons Ratio (y) = 0.56111 -0.38800
# Poissons Ratio (z) = 0.72823 -0.30185
#
# Static dielectric constant tensor:
#      x y z
#    x 1.715420 0.000000 0.004170 
#    y 0.000000 1.504880 0.000000 
#    z 0.004170 0.000000 1.790400 
# 
# From -- ./inp_files/279987.got.cif
#   From: 2010.05.17/outbox.cif.g08.bks.cpg/sg15_140_cif.got.tgz:279987.got - 2010.06.03 18:47:42.
