data_PCOD9304034
_publ_section_title
;
Structure prediction by ZEFSAII (Michael W. Deem and Ramdas Pophale) SiO2 
 PCOD9304034
Probable space group: C 2/C
;
_chemical_formula_sum "Si O2"
_cell_formula_units_Z 56
_cell_length_a 11.404156
_cell_length_b 16.250560
_cell_length_c 15.718653
_cell_angle_alpha 90.000000
_cell_angle_beta 54.520449
_cell_angle_gamma 90.000000
_cell_volume 2372.156623
_symmetry_space_group_name_H-M "C 2/C"
_symmetry_group_IT_number 15
_symmetry_cell_setting 'monoclinic'
loop_
_space_group_symop_operation_xyz
x,y,z
-x,y,1/2-z
-x,-y,-z
x,-y,1/2+z
1/2+x,1/2+y,z
1/2-x,1/2+y,1/2-z
1/2-x,1/2-y,-z
1/2+x,1/2-y,1/2+z
loop_
_atom_site_type_symbol
_atom_site_label
_atom_site_fract_x
_atom_site_fract_y
_atom_site_fract_z
Si Si1 0.718509 0.243788 0.389919
Si Si2 0.535333 0.833347 0.601220
Si Si3 0.116764 0.514976 0.250865
Si Si4 0.511760 0.274919 0.622495
Si Si5 0.666855 0.668638 0.607446
Si Si6 0.596902 0.418373 0.956621
Si Si7 0.259623 0.859990 0.243153
O O1 0.620650 0.200241 0.360656
O O2 0.621850 0.229449 0.512861
O O3 0.876771 0.210445 0.345985
O O4 0.712259 0.339001 0.360332
O O5 0.615790 0.763209 0.621981
O O6 0.658264 0.842865 0.477185
O O7 0.487578 0.917109 0.664914
O O8 0.245208 0.553858 0.142238
O O9 0.185746 0.452217 0.287181
O O10 0.000000 0.459546 0.250000
O O11 0.457759 0.354124 0.592468
O O12 0.379123 0.212367 0.688075
O O13 0.608441 0.622508 0.546726
O O14 0.645352 0.647228 0.715565
O O15 0.500000 0.500000 0.000000
#
# Coordination Sequence:
#
# PCOD9304034 Si02
#       7
#     8   8   8   8   8   8   8
#     4  11  23  41  74 103 136 198 244 305 371 466
#     4  11  23  45  74 107 140 195 255 310 385 459
#     4  12  27  44  71 111 151 196 255 325 383 466
#     4  11  23  46  71 101 146 192 244 303 380 459
#     4  11  24  46  74 104 149 195 250 321 387 468
#     4  12  26  50  74 108 150 200 254 326 398 455
#     4  12  26  45  70 110 151 192 255 310 390 460
#
# _framework density 23.607209000000001
#
# number of rings (size 3 to 8) (size 9 to 14) (size 15 to 20)
#    0.000    0.571    4.286    3.857    2.000    2.857 
#    0.000    1.429    0.000    0.000    0.000    0.000 
#    0.000    0.000    0.000    0.000    0.000    0.000 
#
# Total GULP energy -156157.009644 kJ/mol
# GULP energy per Si atom -5577.036059 kJ/mol
# Density = 2.355348 g / cm^3
# Si number density = 23.607209 Si / 1000 Ang^3
#
#
#
# Elastic Constant Matrix: (Units=GPa)
#
#
# Indices 1 2 3 4 5 6 
#
# 1 175.4121 43.5128 31.2412 0.0000 -2.6994 0.0000
# 2 43.5128 99.6956 20.6374 0.0000 3.8599 0.0000
# 3 31.2412 20.6374 65.2725 0.0000 -14.5856 0.0000
# 4 0.0000 0.0000 0.0000 36.7456 0.0000 -10.0221
# 5 -2.6994 3.8599 -14.5856 0.0000 45.8568 0.0000
# 6 0.0000 0.0000 0.0000 -10.0221 0.0000 27.8970
#
#
#
# Elastic Compliance Matrix: (Units=1/GPa)
#
#
# Indices 1 2 3 4 5 6 
#
# 1 0.006744 -0.002417 -0.002508 0.000000 -0.000197 0.000000
# 2 -0.002417 0.011797 -0.003043 0.000000 -0.002103 0.000000
# 3 -0.002508 -0.003043 0.018847 0.000000 0.006103 0.000000
# 4 0.000000 0.000000 0.000000 0.030170 0.000000 0.010839
# 5 -0.000197 -0.002103 0.006103 0.000000 0.023914 0.000000
# 6 0.000000 0.000000 0.000000 0.010839 0.000000 0.039740
#
#
# Mechanical properties :
#
#
# Convention : Reuss Voigt Hill
#
# Bulk Modulus (GPa) = 46.61551 59.01811 52.81681
# Shear Modulus (GPa) = 32.40502 38.43246 35.41874
#
# Velocity S-wave (km/s) = 3.70898 4.03922 3.87762
# Velocity P-wave (km/s) = 6.17505 6.84164 6.51687
#
# Compressibility (1/GPa) = 0.02145209
#
# Stress axis : x y z
#
# Youngs Moduli (GPa) = 148.28091 84.76980 53.06001
#
# Poissons Ratio (x) = 0.20486 0.13307
# Poissons Ratio (y) = 0.35835 0.16146
# Poissons Ratio (z) = 0.37186 0.25796
#
# Static dielectric constant tensor:
#      x y z
#    x 2.016140 0.000000 0.009030 
#    y 0.000000 1.862940 0.000000 
#    z 0.009030 0.000000 2.044980 
# 
# From -- ./inp_files/198209.got.cif
#   From: 2010.05.17/outbox.cif.g08.bks.cpg/sg15_100_cif.got.tgz:198209.got - 2010.06.03 18:47:42.
