data_PCOD9304973
_publ_section_title
;
Structure prediction by ZEFSAII (Michael W. Deem and Ramdas Pophale) SiO2 
 PCOD9304973
Probable space group: C 2/C
;
_chemical_formula_sum "Si O2"
_cell_formula_units_Z 56
_cell_length_a 16.950540
_cell_length_b 23.673610
_cell_length_c 14.400209
_cell_angle_alpha 90.000000
_cell_angle_beta 30.012980
_cell_angle_gamma 90.000000
_cell_volume 2890.394971
_symmetry_space_group_name_H-M "C 2/C"
_symmetry_group_IT_number 15
_symmetry_cell_setting 'monoclinic'
loop_
_space_group_symop_operation_xyz
x,y,z
-x,y,1/2-z
-x,-y,-z
x,-y,1/2+z
1/2+x,1/2+y,z
1/2-x,1/2+y,1/2-z
1/2-x,1/2-y,-z
1/2+x,1/2-y,1/2+z
loop_
_atom_site_type_symbol
_atom_site_label
_atom_site_fract_x
_atom_site_fract_y
_atom_site_fract_z
Si Si1 0.290999 0.628518 0.776142
Si Si2 0.142587 0.856867 0.974581
Si Si3 0.184713 0.428468 0.548691
Si Si4 0.329029 0.058566 0.754349
Si Si5 0.803946 0.440360 0.672935
Si Si6 0.632020 0.769883 0.542655
Si Si7 0.324408 0.453808 0.902411
O O1 0.466172 0.620560 0.637476
O O2 0.272754 0.607966 0.690687
O O3 0.186482 0.584127 0.938507
O O4 0.209842 0.686829 0.891265
O O5 0.105413 0.789701 0.016981
O O6 0.236447 0.878248 0.970863
O O7 0.247449 0.884835 0.786611
O O8 0.302387 0.479699 0.442810
O O9 0.000000 0.441227 0.750000
O O10 0.512084 0.063343 0.540833
O O11 0.278565 0.996209 0.764662
O O12 0.299886 0.067173 0.893568
O O13 0.713657 0.443868 0.666611
O O14 0.500000 0.793513 0.750000
O O15 0.750000 0.750000 0.500000
O O16 0.500000 0.435446 0.750000
#
# Coordination Sequence:
#
# PCOD9304973 Si02
#       7
#     8   8   8   8   8   8   8
#     4  12  24  38  61  91 126 166 212 255 316 373
#     4  12  24  39  60  92 125 166 211 259 311 376
#     4  12  22  34  57  86 124 165 205 251 309 372
#     4  11  24  40  62  90 124 169 210 256 316 378
#     4  11  24  40  62  90 125 167 212 256 315 378
#     4  12  24  41  63  94 132 169 208 259 319 376
#     4  12  24  40  61  87 125 163 208 260 308 370
#
# _framework density 19.374514000000001
#
# number of rings (size 3 to 8) (size 9 to 14) (size 15 to 20)
#    0.000    0.286    5.714    4.714    2.000    1.143 
#    0.000    0.000    0.000    0.857    0.000    0.000 
#    0.000    0.000    0.000    0.000    0.000    0.000 
#
# Total GULP energy -155957.170865 kJ/mol
# GULP energy per Si atom -5569.898959 kJ/mol
# Density = 1.933042 g / cm^3
# Si number density = 19.374514 Si / 1000 Ang^3
#
#
#
# Elastic Constant Matrix: (Units=GPa)
#
#
# Indices 1 2 3 4 5 6 
#
# 1 82.4699 1.3525 12.2696 -0.0012 2.0630 -0.0021
# 2 1.3525 50.3446 6.1148 -0.0009 7.9822 0.0037
# 3 12.2696 6.1148 69.3386 -0.0313 3.9294 0.0126
# 4 -0.0012 -0.0009 -0.0313 19.5054 0.0077 -4.1847
# 5 2.0630 7.9822 3.9294 0.0077 39.1207 0.0012
# 6 -0.0021 0.0037 0.0126 -4.1847 0.0012 18.5618
#
#
#
# Elastic Compliance Matrix: (Units=1/GPa)
#
#
# Indices 1 2 3 4 5 6 
#
# 1 0.012461 -0.000001 -0.002180 -0.000002 -0.000438 0.000002
# 2 -0.000001 0.020701 -0.001595 -0.000001 -0.004064 -0.000003
# 3 -0.002180 -0.001595 0.015009 0.000023 -0.001067 -0.000005
# 4 -0.000002 -0.000001 0.000023 0.053874 -0.000013 0.012146
# 5 -0.000438 -0.004064 -0.001067 -0.000013 0.026521 -0.000003
# 6 0.000002 -0.000003 -0.000005 0.012146 -0.000003 0.056612
#
#
# Mechanical properties :
#
#
# Convention : Reuss Voigt Hill
#
# Bulk Modulus (GPa) = 24.61883 26.84745 25.73314
# Shear Modulus (GPa) = 24.24010 27.59867 25.91938
#
# Velocity S-wave (km/s) = 3.54097 3.77833 3.66157
# Velocity P-wave (km/s) = 5.42701 5.73773 5.58453
#
# Compressibility (1/GPa) = 0.04061932
#
# Stress axis : x y z
#
# Youngs Moduli (GPa) = 80.25063 48.30645 66.62706
#
# Poissons Ratio (x) = 0.00003 0.14526
# Poissons Ratio (y) = 0.00004 0.10628
# Poissons Ratio (z) = 0.17496 0.07706
#
# Static dielectric constant tensor:
#      x y z
#    x 1.718530 -0.000010 0.050450 
#    y -0.000010 1.768710 0.000010 
#    z 0.050450 0.000010 1.606810 
# 
# From -- ./inp_files/51455.got.cif
#   From: 2010.05.17/outbox.cif.g08.bks.cpg/sg15_26_cif.got.tgz:51455.got - 2010.06.03 18:47:42.
