data_PCOD9304083
_publ_section_title
;
Structure prediction by ZEFSAII (Michael W. Deem and Ramdas Pophale) SiO2 
 PCOD9304083
Probable space group: C 2/C
;
_chemical_formula_sum "Si O2"
_cell_formula_units_Z 64
_cell_length_a 12.036842
_cell_length_b 25.836222
_cell_length_c 9.803495
_cell_angle_alpha 90.000000
_cell_angle_beta 92.063404
_cell_angle_gamma 90.000000
_cell_volume 3046.777987
_symmetry_space_group_name_H-M "C 2/C"
_symmetry_group_IT_number 15
_symmetry_cell_setting 'monoclinic'
loop_
_space_group_symop_operation_xyz
x,y,z
-x,y,1/2-z
-x,-y,-z
x,-y,1/2+z
1/2+x,1/2+y,z
1/2-x,1/2+y,1/2-z
1/2-x,1/2-y,-z
1/2+x,1/2-y,1/2+z
loop_
_atom_site_type_symbol
_atom_site_label
_atom_site_fract_x
_atom_site_fract_y
_atom_site_fract_z
Si Si1 0.019266 0.389010 0.595694
Si Si2 0.370611 0.396697 0.220571
Si Si3 0.261288 0.598390 0.009684
Si Si4 0.073477 0.734251 0.129189
Si Si5 0.716902 0.687917 0.277204
Si Si6 0.801832 0.350354 0.495088
Si Si7 0.443433 0.761640 0.370309
Si Si8 0.077054 0.011679 0.373585
O O1 0.129316 0.409832 0.526795
O O2 0.045164 0.327211 0.612460
O O3 0.000000 0.408773 0.750000
O O4 0.905609 0.390435 0.503697
O O5 0.500000 0.380624 0.250000
O O6 0.301128 0.392171 0.357279
O O7 0.303476 0.367598 0.098077
O O8 0.377327 0.457227 0.180016
O O9 0.295280 0.648114 0.101288
O O10 0.327656 0.550083 0.074318
O O11 0.202213 0.734491 0.170344
O O12 0.000000 0.754677 0.250000
O O13 0.032623 0.756270 0.985491
O O14 0.611265 0.713369 0.205249
O O15 0.774638 0.658582 0.152678
O O16 0.850425 0.296465 0.438735
O O17 0.500000 0.793600 0.250000
O O18 0.000000 0.034718 0.250000
O O19 0.000000 0.000000 0.500000
#
# Coordination Sequence:
#
# PCOD9304083 Si02
#       8
#     8   8   8   8   8   8   8   8
#     4   9  17  38  66  99 122 180 230 273 337 404
#     4  11  26  45  65 107 139 177 228 280 351 412
#     4  11  23  42  73  98 139 174 231 287 338 420
#     4   9  17  38  62  81 125 171 223 272 333 398
#     4  11  23  42  66  97 125 186 235 274 348 411
#     4  11  23  42  69  91 140 184 232 283 347 410
#     4  11  25  40  60  95 131 179 236 286 349 406
#     4  11  23  45  73  99 142 185 223 278 357 419
#
# _framework density 21.005797000000001
#
# number of rings (size 3 to 8) (size 9 to 14) (size 15 to 20)
#    0.000    1.500    7.500    0.375    7.000    2.000 
#    2.250    0.625    0.000    0.000    0.000    0.000 
#    0.000    0.000    0.000    0.000    0.000    0.000 
#
# Total GULP energy -178744.082425 kJ/mol
# GULP energy per Si atom -5585.752576 kJ/mol
# Density = 2.095799 g / cm^3
# Si number density = 21.005797 Si / 1000 Ang^3
#
#
#
# Elastic Constant Matrix: (Units=GPa)
#
#
# Indices 1 2 3 4 5 6 
#
# 1 153.6042 28.4864 62.7270 0.0000 19.0982 0.0000
# 2 28.4864 39.8573 20.6752 0.0000 1.6150 0.0000
# 3 62.7270 20.6752 151.1512 0.0000 4.2245 0.0000
# 4 0.0000 0.0000 0.0000 19.4706 0.0000 5.8769
# 5 19.0982 1.6150 4.2245 0.0000 47.7615 0.0000
# 6 0.0000 0.0000 0.0000 5.8769 0.0000 21.1432
#
#
#
# Elastic Compliance Matrix: (Units=1/GPa)
#
#
# Indices 1 2 3 4 5 6 
#
# 1 0.009013 -0.004756 -0.003001 0.000000 -0.003178 0.000000
# 2 -0.004756 0.029532 -0.002096 0.000000 0.001089 0.000000
# 3 -0.003001 -0.002096 0.008133 0.000000 0.000552 0.000000
# 4 0.000000 0.000000 0.000000 0.056063 0.000000 -0.015583
# 5 -0.003178 0.001089 0.000552 0.000000 0.022122 0.000000
# 6 0.000000 0.000000 0.000000 -0.015583 0.000000 0.051628
#
#
# Mechanical properties :
#
#
# Convention : Reuss Voigt Hill
#
# Bulk Modulus (GPa) = 37.07695 63.15443 50.11569
# Shear Modulus (GPa) = 24.36791 33.19000 28.77896
#
# Velocity S-wave (km/s) = 3.40966 3.97928 3.70543
# Velocity P-wave (km/s) = 5.76109 7.15845 6.49744
#
# Compressibility (1/GPa) = 0.02697094
#
# Stress axis : x y z
#
# Youngs Moduli (GPa) = 110.95275 33.86160 122.96248
#
# Poissons Ratio (x) = 0.16105 0.36900
# Poissons Ratio (y) = 0.52771 0.25775
# Poissons Ratio (z) = 0.33296 0.07098
#
# Static dielectric constant tensor:
#      x y z
#    x 1.848270 0.000000 -0.030410 
#    y 0.000000 1.748980 0.000000 
#    z -0.030410 0.000000 1.786730 
# 
# From -- ./inp_files/35669.got.cif
#   From: 2010.05.17/outbox.cif.g08.bks.cpg/sg15_18_cif.got.tgz:35669.got - 2010.06.03 18:47:42.
