data_PCOD9304094
_publ_section_title
;
Structure prediction by ZEFSAII (Michael W. Deem and Ramdas Pophale) SiO2 
 PCOD9304094
Probable space group: C 2/C
;
_chemical_formula_sum "Si O2"
_cell_formula_units_Z 56
_cell_length_a 23.551378
_cell_length_b 8.272103
_cell_length_c 14.746502
_cell_angle_alpha 90.000000
_cell_angle_beta 119.564768
_cell_angle_gamma 90.000000
_cell_volume 2498.848481
_symmetry_space_group_name_H-M "C 2/C"
_symmetry_group_IT_number 15
_symmetry_cell_setting 'monoclinic'
loop_
_space_group_symop_operation_xyz
x,y,z
-x,y,1/2-z
-x,-y,-z
x,-y,1/2+z
1/2+x,1/2+y,z
1/2-x,1/2+y,1/2-z
1/2-x,1/2-y,-z
1/2+x,1/2-y,1/2+z
loop_
_atom_site_type_symbol
_atom_site_label
_atom_site_fract_x
_atom_site_fract_y
_atom_site_fract_z
Si Si1 0.184247 0.404884 0.258087
Si Si2 0.189113 0.366401 0.469491
Si Si3 0.824577 0.060861 0.333545
Si Si4 0.902440 0.585520 0.461041
Si Si5 0.181867 0.278332 0.993617
Si Si6 0.542176 0.623603 0.590525
Si Si7 0.544461 0.821468 0.857757
O O1 0.169014 0.423172 0.352998
O O2 0.181257 0.213276 0.238009
O O3 0.257566 0.462754 0.292407
O O4 0.136535 0.506099 0.154725
O O5 0.250000 0.250000 0.500000
O O6 0.136044 0.296310 0.496775
O O7 0.195917 0.534274 0.531246
O O8 0.832093 0.155066 0.435789
O O9 0.884941 0.950950 0.348651
O O10 0.953236 0.706784 0.457383
O O11 0.934914 0.443458 0.545776
O O12 0.116408 0.266596 0.881977
O O13 0.250000 0.250000 0.000000
O O14 0.500000 0.500000 0.500000
O O15 0.500713 0.672917 0.646094
O O16 0.500000 0.911871 0.750000
#
# Coordination Sequence:
#
# PCOD9304094 Si02
#       7
#     8   8   8   8   8   8   8
#     4  12  24  43  74 111 146 199 242 314 384 439
#     4  11  23  42  67 110 148 184 243 308 376 440
#     4  12  24  43  73 111 149 197 251 304 388 451
#     4  11  26  48  74 106 148 193 258 313 372 465
#     4  11  23  45  72 103 148 186 245 308 358 449
#     4  12  25  49  72 100 153 197 247 310 372 467
#     4  11  26  50  77 109 149 202 249 308 391 447
#
# _framework density 22.410323000000002
#
# number of rings (size 3 to 8) (size 9 to 14) (size 15 to 20)
#    0.000    0.571    5.714    3.000    4.000    1.143 
#    2.571    0.000    0.000    0.000    0.000    0.000 
#    0.000    0.000    0.000    0.000    0.000    0.000 
#
# Total GULP energy -156131.498637 kJ/mol
# GULP energy per Si atom -5576.124951 kJ/mol
# Density = 2.235932 g / cm^3
# Si number density = 22.410323 Si / 1000 Ang^3
#
#
#
# Elastic Constant Matrix: (Units=GPa)
#
#
# Indices 1 2 3 4 5 6 
#
# 1 143.8034 31.5287 44.7469 0.0000 4.7018 0.0000
# 2 31.5287 77.1333 27.3255 0.0000 12.0614 0.0000
# 3 44.7469 27.3255 124.5448 0.0000 5.7376 0.0000
# 4 0.0000 0.0000 0.0000 26.7928 0.0000 4.8220
# 5 4.7018 12.0614 5.7376 0.0000 39.2813 0.0000
# 6 0.0000 0.0000 0.0000 4.8220 0.0000 54.0578
#
#
#
# Elastic Compliance Matrix: (Units=1/GPa)
#
#
# Indices 1 2 3 4 5 6 
#
# 1 0.008258 -0.002542 -0.002416 0.000000 0.000145 0.000000
# 2 -0.002542 0.015457 -0.002289 0.000000 -0.004107 0.000000
# 3 -0.002416 -0.002289 0.009417 0.000000 -0.000384 0.000000
# 4 0.000000 0.000000 0.000000 0.037932 0.000000 -0.003384
# 5 0.000145 -0.004107 -0.000384 0.000000 0.026757 0.000000
# 6 0.000000 0.000000 0.000000 -0.003384 0.000000 0.018801
#
#
# Mechanical properties :
#
#
# Convention : Reuss Voigt Hill
#
# Bulk Modulus (GPa) = 53.65299 61.40927 57.53113
# Shear Modulus (GPa) = 36.40882 40.15173 38.28028
#
# Velocity S-wave (km/s) = 4.03506 4.23740 4.13747
# Velocity P-wave (km/s) = 6.76034 7.16955 6.96795
#
# Compressibility (1/GPa) = 0.01863829
#
# Stress axis : x y z
#
# Youngs Moduli (GPa) = 121.08885 64.69612 106.19036
#
# Poissons Ratio (x) = 0.16449 0.25655
# Poissons Ratio (y) = 0.30786 0.24303
# Poissons Ratio (z) = 0.29255 0.14806
#
# Static dielectric constant tensor:
#      x y z
#    x 2.666610 0.000000 -0.175250 
#    y 0.000000 1.916810 0.000000 
#    z -0.175250 0.000000 1.935470 
# 
# From -- ./inp_files/172481.got.cif
#   From: 2010.05.17/outbox.cif.g08.bks.cpg/sg15_87_cif.got.tgz:172481.got - 2010.06.03 18:47:42.
