data_PCOD9304405
_publ_section_title
;
Structure prediction by ZEFSAII (Michael W. Deem and Ramdas Pophale) SiO2 
 PCOD9304405
Probable space group: C 2/C
;
_chemical_formula_sum "Si O2"
_cell_formula_units_Z 48
_cell_length_a 26.315193
_cell_length_b 10.998834
_cell_length_c 19.371427
_cell_angle_alpha 90.000000
_cell_angle_beta 23.344300
_cell_angle_gamma 90.000000
_cell_volume 2221.724145
_symmetry_space_group_name_H-M "C 2/C"
_symmetry_group_IT_number 15
_symmetry_cell_setting 'monoclinic'
loop_
_space_group_symop_operation_xyz
x,y,z
-x,y,1/2-z
-x,-y,-z
x,-y,1/2+z
1/2+x,1/2+y,z
1/2-x,1/2+y,1/2-z
1/2-x,1/2-y,-z
1/2+x,1/2-y,1/2+z
loop_
_atom_site_type_symbol
_atom_site_label
_atom_site_fract_x
_atom_site_fract_y
_atom_site_fract_z
Si Si1 0.383398 0.948556 0.752917
Si Si2 0.770963 0.032950 0.435195
Si Si3 0.818072 0.064896 0.114815
Si Si4 0.017239 0.163560 0.145229
Si Si5 0.637283 0.075266 0.463746
Si Si6 0.455046 0.697706 0.726925
O O1 0.303133 0.923913 0.784769
O O2 0.393204 0.824483 0.783969
O O3 0.525924 0.997915 0.566432
O O4 0.306332 0.043292 0.897241
O O5 0.672633 0.025002 0.495069
O O6 0.873278 0.140787 0.296595
O O7 0.857160 0.912056 0.334866
O O8 0.763836 0.067375 0.259265
O O9 0.918441 0.172757 0.976177
O O10 0.894007 0.943844 0.996322
O O11 0.000000 0.152795 0.250000
O O12 0.081893 0.289787 0.043993
O O13 0.500000 0.693277 0.750000
#
# Coordination Sequence:
#
# PCOD9304405 Si02
#       6
#     8   8   8   8   8   8
#     4  12  24  43  72 100 138 180 236 281 347 421
#     4  11  23  45  70 101 136 179 242 282 342 425
#     4  11  26  46  66 100 144 182 232 289 355 409
#     4  11  24  48  74  93 140 194 228 283 350 417
#     4  12  29  39  69 109 136 182 233 293 348 413
#     4  11  23  43  75  99 132 184 226 295 346 407
#
# _framework density 21.604842000000001
#
# number of rings (size 3 to 8) (size 9 to 14) (size 15 to 20)
#    0.000    0.667    3.333    4.500    7.000    5.333 
#    0.000    0.000    0.000    0.000    0.000    0.000 
#    0.000    0.000    0.000    0.000    0.000    0.000 
#
# Total GULP energy -134321.829994 kJ/mol
# GULP energy per Si atom -5596.742916 kJ/mol
# Density = 2.155567 g / cm^3
# Si number density = 21.604842 Si / 1000 Ang^3
#
#
#
# Elastic Constant Matrix: (Units=GPa)
#
#
# Indices 1 2 3 4 5 6 
#
# 1 41.9580 1.5504 -6.1971 0.0000 -4.4030 0.0000
# 2 1.5504 85.9004 4.9105 0.0000 -0.2632 0.0000
# 3 -6.1971 4.9105 68.8285 0.0000 11.8010 0.0000
# 4 0.0000 0.0000 0.0000 21.0761 0.0000 -3.8686
# 5 -4.4030 -0.2632 11.8010 0.0000 46.9417 0.0000
# 6 0.0000 0.0000 0.0000 -3.8686 0.0000 0.5953
#
#
#
# Elastic Compliance Matrix: (Units=1/GPa)
#
#
# Indices 1 2 3 4 5 6 
#
# 1 0.024326 -0.000543 0.001921 0.000000 0.001796 0.000001
# 2 -0.000543 0.011705 -0.000926 -0.000001 0.000248 -0.000003
# 3 0.001921 -0.000926 0.015402 0.000000 -0.003697 0.000000
# 4 0.000000 -0.000001 0.000000 -0.245913 0.000000 -1.598217
# 5 0.001796 0.000248 -0.003697 0.000000 0.022402 -0.000001
# 6 0.000001 -0.000003 0.000000 -1.598217 -0.000001 -8.707041
#
#
# Mechanical properties :
#
#
# Convention : Reuss Voigt Hill
#
# Bulk Modulus (GPa) = 19.10774 21.91275 20.51024
# Shear Modulus (GPa) = -0.56417 26.81747 13.12665
#
# Velocity S-wave (km/s) = -0.51156 3.52699 2.46759
# Velocity P-wave (km/s) = 2.91796 5.17211 4.19912
#
# Compressibility (1/GPa) = 0.05233482
#
# Stress axis : x y z
#
# Youngs Moduli (GPa) = 41.10897 85.43420 64.92752
#
# Poissons Ratio (x) = 0.04642 -0.12473
# Poissons Ratio (y) = 0.02234 0.06015
# Poissons Ratio (z) = -0.07897 0.07915
#
# Static dielectric constant tensor:
#      x y z
#    x 1.739600 0.000000 0.000410 
#    y 0.000000 1.782460 0.000000 
#    z 0.000410 0.000000 1.809210 
# 
# From -- ./inp_files/103693.got.cif
#   From: 2010.05.17/outbox.cif.g08.bks.cpg/sg15_52_cif.got.tgz:103693.got - 2010.06.03 18:47:42.
