data_PCOD9304958
_publ_section_title
;
Structure prediction by ZEFSAII (Michael W. Deem and Ramdas Pophale) SiO2 
 PCOD9304958
Probable space group: C 2/C
;
_chemical_formula_sum "Si O2"
_cell_formula_units_Z 36
_cell_length_a 22.298250
_cell_length_b 6.760467
_cell_length_c 9.896783
_cell_angle_alpha 90.000000
_cell_angle_beta 73.322995
_cell_angle_gamma 90.000000
_cell_volume 1429.153285
_symmetry_space_group_name_H-M "C 2/C"
_symmetry_group_IT_number 15
_symmetry_cell_setting 'monoclinic'
loop_
_space_group_symop_operation_xyz
x,y,z
-x,y,1/2-z
-x,-y,-z
x,-y,1/2+z
1/2+x,1/2+y,z
1/2-x,1/2+y,1/2-z
1/2-x,1/2-y,-z
1/2+x,1/2-y,1/2+z
loop_
_atom_site_type_symbol
_atom_site_label
_atom_site_fract_x
_atom_site_fract_y
_atom_site_fract_z
Si Si1 0.066685 0.579900 0.909597
Si Si2 0.201940 0.348481 0.634628
Si Si3 0.391671 0.565521 0.935500
Si Si4 0.000000 0.199664 0.250000
Si Si5 0.678669 0.817212 0.940030
O O1 0.117998 0.424110 0.916020
O O2 0.052723 0.647397 0.768081
O O3 0.000000 0.500000 0.000000
O O4 0.089128 0.783085 0.961243
O O5 0.250000 0.250000 0.500000
O O6 0.222817 0.341740 0.778263
O O7 0.193555 0.563485 0.568577
O O8 0.140006 0.207658 0.656992
O O9 0.455696 0.449282 0.861482
O O10 0.340233 0.405267 0.013376
#
# Coordination Sequence:
#
# PCOD9304958 Si02
#       5
#     8   8   8   4   8
#     4  11  24  39  64 101 139 183 221 282 342 421
#     4  11  28  48  75 102 138 187 240 299 348 414
#     4  11  25  43  69 103 139 186 234 283 354 421
#     4  12  22  40  68 100 144 182 220 282 352 424
#     4  11  25  49  70 104 141 183 240 289 357 421
#
# _framework density 25.189737999999998
#
# number of rings (size 3 to 8) (size 9 to 14) (size 15 to 20)
#    0.000    0.889    2.222    3.333    9.333    2.667 
#    0.000    0.000    0.000    0.000    0.000    0.000 
#    0.000    0.000    0.000    0.000    0.000    0.000 
#
# Total GULP energy -100576.844390 kJ/mol
# GULP energy per Si atom -5587.602466 kJ/mol
# Density = 2.513240 g / cm^3
# Si number density = 25.189738 Si / 1000 Ang^3
#
#
#
# Elastic Constant Matrix: (Units=GPa)
#
#
# Indices 1 2 3 4 5 6 
#
# 1 69.0359 22.8848 11.4125 0.0000 3.8144 0.0000
# 2 22.8848 147.5925 52.4899 0.0000 7.4124 0.0000
# 3 11.4125 52.4899 112.7926 0.0000 3.8219 0.0000
# 4 0.0000 0.0000 0.0000 31.4113 0.0000 -1.6613
# 5 3.8144 7.4124 3.8219 0.0000 43.6454 0.0000
# 6 0.0000 0.0000 0.0000 -1.6613 0.0000 42.2190
#
#
#
# Elastic Compliance Matrix: (Units=1/GPa)
#
#
# Indices 1 2 3 4 5 6 
#
# 1 0.015334 -0.002145 -0.000522 0.000000 -0.000930 0.000000
# 2 -0.002145 0.008468 -0.003692 0.000000 -0.000927 0.000000
# 3 -0.000522 -0.003692 0.010646 0.000000 -0.000260 0.000000
# 4 0.000000 0.000000 0.000000 0.031902 0.000000 0.001255
# 5 -0.000930 -0.000927 -0.000260 0.000000 0.023173 0.000000
# 6 0.000000 0.000000 0.000000 0.001255 0.000000 0.023735
#
#
# Mechanical properties :
#
#
# Convention : Reuss Voigt Hill
#
# Bulk Modulus (GPa) = 46.02121 55.88837 50.95479
# Shear Modulus (GPa) = 37.53208 39.63073 38.58140
#
# Velocity S-wave (km/s) = 3.86421 3.97077 3.91785
# Velocity P-wave (km/s) = 6.18215 6.57707 6.38266
#
# Compressibility (1/GPa) = 0.02172911
#
# Stress axis : x y z
#
# Youngs Moduli (GPa) = 65.21452 118.09598 93.93571
#
# Poissons Ratio (x) = 0.25336 0.04900
# Poissons Ratio (y) = 0.13991 0.34682
# Poissons Ratio (z) = 0.03402 0.43602
#
# Static dielectric constant tensor:
#      x y z
#    x 2.232610 0.000000 0.023410 
#    y 0.000000 1.913200 0.000000 
#    z 0.023410 0.000000 2.145990 
# 
# From -- ./inp_files/115706.got.cif
#   From: 2010.05.17/outbox.cif.g08.bks.cpg/sg15_58_cif.got.tgz:115706.got - 2010.06.03 18:47:42.
