data_PCOD9304032
_publ_section_title
;
Structure prediction by ZEFSAII (Michael W. Deem and Ramdas Pophale) SiO2 
 PCOD9304032
Probable space group: C 2/C
;
_chemical_formula_sum "Si O2"
_cell_formula_units_Z 60
_cell_length_a 17.289673
_cell_length_b 26.367333
_cell_length_c 11.713316
_cell_angle_alpha 90.000000
_cell_angle_beta 152.140850
_cell_angle_gamma 90.000000
_cell_volume 2495.331519
_symmetry_space_group_name_H-M "C 2/C"
_symmetry_group_IT_number 15
_symmetry_cell_setting 'monoclinic'
loop_
_space_group_symop_operation_xyz
x,y,z
-x,y,1/2-z
-x,-y,-z
x,-y,1/2+z
1/2+x,1/2+y,z
1/2-x,1/2+y,1/2-z
1/2-x,1/2-y,-z
1/2+x,1/2-y,1/2+z
loop_
_atom_site_type_symbol
_atom_site_label
_atom_site_fract_x
_atom_site_fract_y
_atom_site_fract_z
Si Si1 0.247799 0.847166 0.084175
Si Si2 0.049608 0.712704 0.075319
Si Si3 0.729260 0.953122 0.821311
Si Si4 0.905667 0.453170 0.243061
Si Si5 0.000000 0.000000 0.500000
Si Si6 0.177849 0.806092 0.755035
Si Si7 0.327053 0.138491 0.085705
Si Si8 0.561482 0.385063 0.051616
O O1 0.397849 0.825366 0.354805
O O2 0.308025 0.900663 0.111538
O O3 0.103514 0.859620 0.984660
O O4 0.217093 0.808305 0.940901
O O5 0.167613 0.708538 0.120001
O O6 0.140993 0.691497 0.306950
O O7 0.968286 0.767828 0.969913
O O8 0.550787 0.950063 0.526086
O O9 0.737278 0.902142 0.905383
O O10 0.716537 0.000265 0.893048
O O11 0.873432 0.968305 0.922315
O O12 0.000000 0.463045 0.250000
O O13 0.078659 0.054896 0.563535
O O14 0.116843 0.862894 0.647729
O O15 0.500000 0.123035 0.250000
O O16 0.191154 0.136905 0.810666
#
# Coordination Sequence:
#
# PCOD9304032 Si02
#       8
#     8   8   8   8   4   8   8   8
#     4  12  24  49  77 114 157 206 262 331 400 477
#     4  12  26  51  81 115 152 208 262 332 411 486
#     4  11  25  45  71 110 153 210 260 320 394 468
#     4  11  23  41  73 105 146 201 263 315 384 469
#     4  12  28  48  70 114 170 208 268 326 400 470
#     4  12  29  49  81 114 157 202 264 335 411 481
#     4  12  26  51  83 109 159 212 275 329 394 491
#     4  12  28  51  76 117 161 213 265 332 401 478
#
# _framework density 24.044899999999998
#
# number of rings (size 3 to 8) (size 9 to 14) (size 15 to 20)
#    0.000    0.267    4.000    4.000    5.600    3.733 
#    2.400    0.000    0.000    0.000    0.000    0.000 
#    0.000    0.000    0.000    0.000    0.000    0.000 
#
# Total GULP energy -167578.981743 kJ/mol
# GULP energy per Si atom -5585.966058 kJ/mol
# Density = 2.399017 g / cm^3
# Si number density = 24.044900 Si / 1000 Ang^3
#
#
#
# Elastic Constant Matrix: (Units=GPa)
#
#
# Indices 1 2 3 4 5 6 
#
# 1 136.8267 40.0268 2.0608 0.0000 9.0342 0.0000
# 2 40.0268 142.5978 19.0027 0.0000 -11.5842 0.0000
# 3 2.0608 19.0027 46.5094 0.0000 -23.1856 0.0000
# 4 0.0000 0.0000 0.0000 13.0581 0.0000 0.0400
# 5 9.0342 -11.5842 -23.1856 0.0000 39.5852 0.0000
# 6 0.0000 0.0000 0.0000 0.0400 0.0000 29.2723
#
#
#
# Elastic Compliance Matrix: (Units=1/GPa)
#
#
# Indices 1 2 3 4 5 6 
#
# 1 0.008246 -0.002446 -0.000934 0.000000 -0.003144 0.000000
# 2 -0.002446 0.008151 -0.002478 0.000000 0.001492 0.000000
# 3 -0.000934 -0.002478 0.031496 0.000000 0.017936 0.000000
# 4 0.000000 0.000000 0.000000 0.076581 0.000000 -0.000105
# 5 -0.003144 0.001492 0.017936 0.000000 0.036921 0.000000
# 6 0.000000 0.000000 0.000000 -0.000105 0.000000 0.034162
#
#
# Mechanical properties :
#
#
# Convention : Reuss Voigt Hill
#
# Bulk Modulus (GPa) = 27.64140 49.79049 38.71594
# Shear Modulus (GPa) = 22.79668 34.03936 28.41802
#
# Velocity S-wave (km/s) = 3.08244 3.76661 3.44157
# Velocity P-wave (km/s) = 4.91826 6.29831 5.65057
#
# Compressibility (1/GPa) = 0.03617762
#
# Stress axis : x y z
#
# Youngs Moduli (GPa) = 121.27685 122.69020 31.75010
#
# Poissons Ratio (x) = 0.30004 0.02964
# Poissons Ratio (y) = 0.29659 0.07868
# Poissons Ratio (z) = 0.11323 0.30404
#
# Static dielectric constant tensor:
#      x y z
#    x 1.925800 0.000000 -0.130430 
#    y 0.000000 2.055010 0.000000 
#    z -0.130430 0.000000 2.235610 
# 
# From -- ./inp_files/108440.got.cif
#   From: 2010.05.17/outbox.cif.g08.bks.cpg/sg15_55_cif.got.tgz:108440.got - 2010.06.03 18:47:42.
