data_PCOD9304216
_publ_section_title
;
Structure prediction by ZEFSAII (Michael W. Deem and Ramdas Pophale) SiO2 
 PCOD9304216
Probable space group: C 2/C
;
_chemical_formula_sum "Si O2"
_cell_formula_units_Z 52
_cell_length_a 12.404013
_cell_length_b 8.549244
_cell_length_c 23.230281
_cell_angle_alpha 90.000000
_cell_angle_beta 74.858204
_cell_angle_gamma 90.000000
_cell_volume 2377.928268
_symmetry_space_group_name_H-M "C 2/C"
_symmetry_group_IT_number 15
_symmetry_cell_setting 'monoclinic'
loop_
_space_group_symop_operation_xyz
x,y,z
-x,y,1/2-z
-x,-y,-z
x,-y,1/2+z
1/2+x,1/2+y,z
1/2-x,1/2+y,1/2-z
1/2-x,1/2-y,-z
1/2+x,1/2-y,1/2+z
loop_
_atom_site_type_symbol
_atom_site_label
_atom_site_fract_x
_atom_site_fract_y
_atom_site_fract_z
Si Si1 0.000000 0.451485 0.750000
Si Si2 0.143091 0.294407 0.916963
Si Si3 0.964049 0.669105 0.952112
Si Si4 0.162328 0.224226 0.658646
Si Si5 0.137824 0.013595 0.070074
Si Si6 0.744715 0.477271 0.939977
Si Si7 0.370093 0.958600 0.162434
O O1 0.911297 0.337789 0.792741
O O2 0.941763 0.557131 0.709592
O O3 0.251745 0.392948 0.923262
O O4 0.127222 0.357774 0.855140
O O5 0.173539 0.113749 0.919120
O O6 0.045735 0.331441 0.977168
O O7 0.944647 0.848560 0.936214
O O8 0.859413 0.564595 0.943774
O O9 0.070674 0.612490 0.902483
O O10 0.228416 0.337162 0.605728
O O11 0.249720 0.120454 0.682788
O O12 0.099148 0.103118 0.625028
O O13 0.177733 0.928195 0.006452
#
# Coordination Sequence:
#
# PCOD9304216 Si02
#       7
#     4   8   8   8   8   8   8
#     4  12  28  48  62  86 130 176 222 276 306 362
#     4   8  17  33  65  96 128 159 197 253 323 395
#     4   9  16  36  63  97 128 159 193 256 330 381
#     4  11  23  43  64  90 122 168 218 257 318 377
#     4   8  17  34  62  99 127 159 196 253 329 388
#     4   9  16  35  66  94 131 158 193 259 324 386
#     4  11  23  43  64  88 123 170 218 256 320 377
#
# _framework density 21.867774000000001
#
# number of rings (size 3 to 8) (size 9 to 14) (size 15 to 20)
#    0.000    2.462    1.538    2.769    0.000    1.231 
#   11.077    1.538    0.000    0.000    0.000    0.000 
#    0.000    0.000    0.000    0.000    0.000    0.000 
#
# Total GULP energy -145252.020968 kJ/mol
# GULP energy per Si atom -5586.616191 kJ/mol
# Density = 2.181800 g / cm^3
# Si number density = 21.867774 Si / 1000 Ang^3
#
#
#
# Elastic Constant Matrix: (Units=GPa)
#
#
# Indices 1 2 3 4 5 6 
#
# 1 44.7724 16.7398 14.4208 0.0000 7.9215 0.0000
# 2 16.7398 65.2254 18.3180 0.0000 7.0355 0.0000
# 3 14.4208 18.3180 42.6320 0.0000 8.9888 0.0000
# 4 0.0000 0.0000 0.0000 13.6571 0.0000 -5.0978
# 5 7.9215 7.0355 8.9888 0.0000 30.5990 0.0000
# 6 0.0000 0.0000 0.0000 -5.0978 0.0000 29.7395
#
#
#
# Elastic Compliance Matrix: (Units=1/GPa)
#
#
# Indices 1 2 3 4 5 6 
#
# 1 0.026803 -0.004704 -0.006194 0.000000 -0.004038 0.000000
# 2 -0.004704 0.018368 -0.006042 0.000000 -0.001231 0.000000
# 3 -0.006194 -0.006042 0.029334 0.000000 -0.005624 0.000000
# 4 0.000000 0.000000 0.000000 0.078228 0.000000 0.013409
# 5 -0.004038 -0.001231 -0.005624 0.000000 0.035661 0.000000
# 6 0.000000 0.000000 0.000000 0.013409 0.000000 0.035924
#
#
# Mechanical properties :
#
#
# Convention : Reuss Voigt Hill
#
# Bulk Modulus (GPa) = 24.61487 27.95410 26.28449
# Shear Modulus (GPa) = 18.39997 21.67585 20.03791
#
# Velocity S-wave (km/s) = 2.90387 3.15179 3.03036
# Velocity P-wave (km/s) = 4.74594 5.10451 4.92849
#
# Compressibility (1/GPa) = 0.04062585
#
# Stress axis : x y z
#
# Youngs Moduli (GPa) = 37.30874 54.44194 34.09048
#
# Poissons Ratio (x) = 0.25609 0.21116
# Poissons Ratio (y) = 0.17550 0.20597
# Poissons Ratio (z) = 0.23109 0.32892
#
# Static dielectric constant tensor:
#      x y z
#    x 1.862060 0.000000 0.019850 
#    y 0.000000 1.812760 0.000000 
#    z 0.019850 0.000000 1.773520 
# 
# From -- ./inp_files/242533.got.cif
#   From: 2010.05.17/outbox.cif.g08.bks.cpg/sg15_122_cif.got.tgz:242533.got - 2010.06.03 18:47:42.
