data_PCOD9304901
_publ_section_title
;
Structure prediction by ZEFSAII (Michael W. Deem and Ramdas Pophale) SiO2 
 PCOD9304901
Probable space group: C 2/C
;
_chemical_formula_sum "Si O2"
_cell_formula_units_Z 52
_cell_length_a 7.694490
_cell_length_b 17.234338
_cell_length_c 23.665244
_cell_angle_alpha 90.000000
_cell_angle_beta 49.064747
_cell_angle_gamma 90.000000
_cell_volume 2370.780966
_symmetry_space_group_name_H-M "C 2/C"
_symmetry_group_IT_number 15
_symmetry_cell_setting 'monoclinic'
loop_
_space_group_symop_operation_xyz
x,y,z
-x,y,1/2-z
-x,-y,-z
x,-y,1/2+z
1/2+x,1/2+y,z
1/2-x,1/2+y,1/2-z
1/2-x,1/2-y,-z
1/2+x,1/2-y,1/2+z
loop_
_atom_site_type_symbol
_atom_site_label
_atom_site_fract_x
_atom_site_fract_y
_atom_site_fract_z
Si Si1 0.000000 0.861785 0.750000
Si Si2 0.568514 0.409196 0.915956
Si Si3 0.720784 0.892921 0.089488
Si Si4 0.000000 0.500000 0.500000
Si Si5 0.000000 0.152484 0.750000
Si Si6 0.051760 0.460126 0.861000
Si Si7 0.544340 0.258039 0.851210
Si Si8 0.031746 0.937162 0.125899
O O1 0.224054 0.916532 0.708613
O O2 0.986988 0.804967 0.806501
O O3 0.816520 0.420024 0.890879
O O4 0.552455 0.323198 0.896957
O O5 0.538089 0.472921 0.872830
O O6 0.363118 0.424985 0.004829
O O7 0.642896 0.806639 0.095082
O O8 0.878424 0.894697 0.111227
O O9 0.503499 0.950470 0.144712
O O10 0.066854 0.538367 0.424931
O O11 0.799088 0.566330 0.553300
O O12 0.780854 0.210012 0.795944
O O13 0.996746 0.098306 0.694915
#
# Coordination Sequence:
#
# PCOD9304901 Si02
#       8
#     4   8   8   4   4   8   8   8
#     4  12  28  49  68 113 142 204 226 303 356 444
#     4  11  23  48  74 110 138 193 235 310 349 431
#     4  11  23  48  74 110 138 193 235 310 349 431
#     4  12  20  40  72 106 128 178 232 312 316 424
#     4  12  28  49  68 113 142 204 226 303 356 444
#     4  11  24  45  77 102 143 180 255 287 359 410
#     4  12  27  46  70 101 162 182 242 284 380 429
#     4  11  24  45  77 102 143 180 255 287 359 410
#
# _framework density 21.933700999999999
#
# number of rings (size 3 to 8) (size 9 to 14) (size 15 to 20)
#    0.000    0.615    3.077    5.077    0.000    5.538 
#    2.769    7.692    0.000    0.000    0.000    0.000 
#    0.000    0.000    0.000    0.000    0.000    0.000 
#
# Total GULP energy -144967.052286 kJ/mol
# GULP energy per Si atom -5575.655857 kJ/mol
# Density = 2.188378 g / cm^3
# Si number density = 21.933701 Si / 1000 Ang^3
#
#
#
# Elastic Constant Matrix: (Units=GPa)
#
#
# Indices 1 2 3 4 5 6 
#
# 1 59.4234 113.1992 91.3908 0.0002 -18.6492 0.0015
# 2 113.1992 11.4842 -118.6537 -0.0046 26.2417 -0.0036
# 3 91.3908 -118.6537 -98.6389 -0.0050 29.8335 -0.0056
# 4 0.0002 -0.0046 -0.0050 13.4088 0.0027 -8.5048
# 5 -18.6492 26.2417 29.8335 0.0027 30.5490 0.0015
# 6 0.0015 -0.0036 -0.0056 -8.5048 0.0015 36.9735
#
#
#
# Elastic Compliance Matrix: (Units=1/GPa)
#
#
# Indices 1 2 3 4 5 6 
#
# 1 0.007049 -0.000253 0.006333 0.000004 -0.001664 0.000002
# 2 -0.000253 0.006594 -0.007663 -0.000002 0.001665 -0.000001
# 3 0.006333 -0.007663 0.006259 -0.000002 0.004336 -0.000001
# 4 0.000004 -0.000002 -0.000002 0.087317 -0.000004 0.020085
# 5 -0.001664 0.001665 0.004336 -0.000004 0.026054 -0.000001
# 6 0.000002 -0.000001 -0.000001 0.020085 -0.000001 0.031666
#
#
# Mechanical properties :
#
#
# Convention : Reuss Voigt Hill
#
# Bulk Modulus (GPa) = 59.75517 16.01567 37.88542
# Shear Modulus (GPa) = 28.78773 8.60843 18.69808
#
# Velocity S-wave (km/s) = 3.62676 1.98325 2.92290
# Velocity P-wave (km/s) = 6.69631 3.54430 5.35736
#
# Compressibility (1/GPa) = 0.01673495
#
# Stress axis : x y z
#
# Youngs Moduli (GPa) = 141.85920 151.65338 159.77122
#
# Poissons Ratio (x) = 0.03841 -1.01179
# Poissons Ratio (y) = 0.03593 1.22434
# Poissons Ratio (z) = -0.89836 1.16214
#
# Static dielectric constant tensor:
#      x y z
#    x 1.857620 0.000000 -0.023750 
#    y 0.000000 1.791810 0.000000 
#    z -0.023750 0.000000 1.830940 
# 
# From -- ./inp_files/289558.got.cif
#   From: 2010.05.17/outbox.cif.g08.bks.cpg/sg15_145_cif.got.tgz:289558.got - 2010.06.03 18:47:42.
