data_PCOD9304703
_publ_section_title
;
Structure prediction by ZEFSAII (Michael W. Deem and Ramdas Pophale) SiO2 
 PCOD9304703
Probable space group: C 2/C
;
_chemical_formula_sum "Si O2"
_cell_formula_units_Z 36
_cell_length_a 8.301596
_cell_length_b 13.129580
_cell_length_c 18.963004
_cell_angle_alpha 90.000000
_cell_angle_beta 137.566694
_cell_angle_gamma 90.000000
_cell_volume 1394.602934
_symmetry_space_group_name_H-M "C 2/C"
_symmetry_group_IT_number 15
_symmetry_cell_setting 'monoclinic'
loop_
_space_group_symop_operation_xyz
x,y,z
-x,y,1/2-z
-x,-y,-z
x,-y,1/2+z
1/2+x,1/2+y,z
1/2-x,1/2+y,1/2-z
1/2-x,1/2-y,-z
1/2+x,1/2-y,1/2+z
loop_
_atom_site_type_symbol
_atom_site_label
_atom_site_fract_x
_atom_site_fract_y
_atom_site_fract_z
Si Si1 0.334348 0.054032 0.754972
Si Si2 0.887414 0.848844 0.071307
Si Si3 0.424318 0.350432 0.803611
Si Si4 0.000000 0.233947 0.750000
Si Si5 0.647652 0.052303 0.983567
O O1 0.500000 0.004268 0.750000
O O2 0.495998 0.094854 0.870063
O O3 0.171384 0.133926 0.659703
O O4 0.170082 0.966760 0.734948
O O5 0.867992 0.835626 0.149504
O O6 0.750000 0.750000 0.000000
O O7 0.783088 0.949530 0.001411
O O8 0.500000 0.314589 0.750000
O O9 0.205224 0.295747 0.773734
O O10 0.664081 0.365883 0.926904
O O11 0.500000 0.000000 0.000000
#
# Coordination Sequence:
#
# PCOD9304703 Si02
#       5
#     8   8   8   4   8
#     4  11  24  45  76 109 142 199 260 301 364 458
#     4  11  27  45  70 110 153 188 239 315 378 429
#     4  11  24  43  77 106 146 201 262 298 367 462
#     4  12  26  48  70 108 160 196 236 320 384 434
#     4  11  23  45  77 102 144 201 258 307 363 449
#
# _framework density 25.813800000000001
#
# number of rings (size 3 to 8) (size 9 to 14) (size 15 to 20)
#    0.000    0.889    3.333    2.667    6.222    2.667 
#    0.000    2.222    0.000    0.000    0.000    0.000 
#    0.000    0.000    0.000    0.000    0.000    0.000 
#
# Total GULP energy -100602.207956 kJ/mol
# GULP energy per Si atom -5589.011553 kJ/mol
# Density = 2.575505 g / cm^3
# Si number density = 25.813800 Si / 1000 Ang^3
#
#
#
# Elastic Constant Matrix: (Units=GPa)
#
#
# Indices 1 2 3 4 5 6 
#
# 1 159.6128 31.2152 33.7834 0.0000 14.0295 0.0000
# 2 31.2152 93.9912 25.3700 0.0000 17.5466 0.0000
# 3 33.7834 25.3700 164.1667 0.0000 10.3543 0.0000
# 4 0.0000 0.0000 0.0000 20.4408 0.0000 11.4399
# 5 14.0295 17.5466 10.3543 0.0000 27.2493 0.0000
# 6 0.0000 0.0000 0.0000 11.4399 0.0000 50.3724
#
#
#
# Elastic Compliance Matrix: (Units=1/GPa)
#
#
# Indices 1 2 3 4 5 6 
#
# 1 0.006997 -0.001639 -0.001051 0.000000 -0.002148 0.000000
# 2 -0.001639 0.012805 -0.001204 0.000000 -0.006944 0.000000
# 3 -0.001051 -0.001204 0.006568 0.000000 -0.001180 0.000000
# 4 0.000000 0.000000 0.000000 0.056045 0.000000 -0.012728
# 5 -0.002148 -0.006944 -0.001180 0.000000 0.042724 0.000000
# 6 0.000000 0.000000 0.000000 -0.012728 0.000000 0.022743
#
#
# Mechanical properties :
#
#
# Convention : Reuss Voigt Hill
#
# Bulk Modulus (GPa) = 53.81464 66.50090 60.15777
# Shear Modulus (GPa) = 30.89025 41.43932 36.16479
#
# Velocity S-wave (km/s) = 3.46303 4.01099 3.74704
# Velocity P-wave (km/s) = 6.07310 6.87520 6.48656
#
# Compressibility (1/GPa) = 0.01858231
#
# Stress axis : x y z
#
# Youngs Moduli (GPa) = 142.91912 78.09527 152.25176
#
# Poissons Ratio (x) = 0.12801 0.16004
# Poissons Ratio (y) = 0.23426 0.18324
# Poissons Ratio (z) = 0.15023 0.09399
#
# Static dielectric constant tensor:
#      x y z
#    x 2.244420 0.000000 0.253940 
#    y 0.000000 2.086530 0.000000 
#    z 0.253940 0.000000 2.236180 
# 
# From -- ./inp_files/231663.got.cif
#   From: 2010.05.17/outbox.cif.g08.bks.cpg/sg15_116_cif.got.tgz:231663.got - 2010.06.03 18:47:42.
