data_PCOD9304141
_publ_section_title
;
Structure prediction by ZEFSAII (Michael W. Deem and Ramdas Pophale) SiO2 
 PCOD9304141
Probable space group: C 2/C
;
_chemical_formula_sum "Si O2"
_cell_formula_units_Z 40
_cell_length_a 16.121052
_cell_length_b 10.632911
_cell_length_c 9.730935
_cell_angle_alpha 90.000000
_cell_angle_beta 71.248383
_cell_angle_gamma 90.000000
_cell_volume 1579.479173
_symmetry_space_group_name_H-M "C 2/C"
_symmetry_group_IT_number 15
_symmetry_cell_setting 'monoclinic'
loop_
_space_group_symop_operation_xyz
x,y,z
-x,y,1/2-z
-x,-y,-z
x,-y,1/2+z
1/2+x,1/2+y,z
1/2-x,1/2+y,1/2-z
1/2-x,1/2-y,-z
1/2+x,1/2-y,1/2+z
loop_
_atom_site_type_symbol
_atom_site_label
_atom_site_fract_x
_atom_site_fract_y
_atom_site_fract_z
Si Si1 0.156189 0.846987 0.365552
Si Si2 0.327467 0.129474 0.327326
Si Si3 0.057051 0.423896 0.355073
Si Si4 0.950454 0.210673 0.953755
Si Si5 0.321614 0.512925 0.913781
O O1 0.204612 0.731265 0.266011
O O2 0.053805 0.808656 0.414800
O O3 0.183013 0.880925 0.505449
O O4 0.169985 0.964650 0.252827
O O5 0.410258 0.195343 0.359313
O O6 0.259199 0.092505 0.480837
O O7 0.360442 0.008247 0.228308
O O8 0.078779 0.285086 0.395662
O O9 0.000000 0.413395 0.250000
O O10 0.000000 0.500000 0.500000
O O11 0.907131 0.079537 0.935649
#
# Coordination Sequence:
#
# PCOD9304141 Si02
#       5
#     8   8   8   8   8
#     4  11  23  45  66  96 134 181 224 271 335 409
#     4  11  23  42  69  94 138 174 221 274 343 398
#     4  12  23  41  69  98 127 174 226 278 324 400
#     4  11  23  44  69  93 132 181 223 267 337 405
#     4  11  26  40  69  98 137 174 219 280 343 398
#
# _framework density 25.324805000000001
#
# number of rings (size 3 to 8) (size 9 to 14) (size 15 to 20)
#    0.000    0.800    4.000    5.400    5.600    1.600 
#    0.000    1.000    0.000    0.000    0.000    0.000 
#    0.000    0.000    0.000    0.000    0.000    0.000 
#
# Total GULP energy -111940.996240 kJ/mol
# GULP energy per Si atom -5597.049812 kJ/mol
# Density = 2.526716 g / cm^3
# Si number density = 25.324805 Si / 1000 Ang^3
#
#
#
# Elastic Constant Matrix: (Units=GPa)
#
#
# Indices 1 2 3 4 5 6 
#
# 1 69.7161 13.8568 16.8966 0.0000 -0.6245 0.0000
# 2 13.8568 43.1987 10.0889 0.0000 12.9841 0.0000
# 3 16.8966 10.0889 94.2414 0.0000 10.5368 0.0000
# 4 0.0000 0.0000 0.0000 50.8734 0.0000 7.1067
# 5 -0.6245 12.9841 10.5368 0.0000 50.4215 0.0000
# 6 0.0000 0.0000 0.0000 7.1067 0.0000 31.2262
#
#
#
# Elastic Compliance Matrix: (Units=1/GPa)
#
#
# Indices 1 2 3 4 5 6 
#
# 1 0.016005 -0.005158 -0.002548 0.000000 0.002059 0.000000
# 2 -0.005158 0.027131 -0.001220 0.000000 -0.006795 0.000000
# 3 -0.002548 -0.001220 0.011434 0.000000 -0.002107 0.000000
# 4 0.000000 0.000000 0.000000 0.020302 0.000000 -0.004620
# 5 0.002059 -0.006795 -0.002107 0.000000 0.022048 0.000000
# 6 0.000000 0.000000 0.000000 -0.004620 0.000000 0.033076
#
#
# Mechanical properties :
#
#
# Convention : Reuss Voigt Hill
#
# Bulk Modulus (GPa) = 27.23378 32.09343 29.66360
# Shear Modulus (GPa) = 31.23321 37.59185 34.41253
#
# Velocity S-wave (km/s) = 3.51565 3.85696 3.69025
# Velocity P-wave (km/s) = 5.22082 5.70395 5.46772
#
# Compressibility (1/GPa) = 0.03671910
#
# Stress axis : x y z
#
# Youngs Moduli (GPa) = 62.48087 36.85870 87.45886
#
# Poissons Ratio (x) = 0.19011 0.22281
# Poissons Ratio (y) = 0.32226 0.10669
# Poissons Ratio (z) = 0.15917 0.04497
#
# Static dielectric constant tensor:
#      x y z
#    x 2.060120 0.000000 -0.023160 
#    y 0.000000 2.058960 0.000000 
#    z -0.023160 0.000000 1.983020 
# 
# From -- ./inp_files/103572.got.cif
#   From: 2010.05.17/outbox.cif.g08.bks.cpg/sg15_52_cif.got.tgz:103572.got - 2010.06.03 18:47:42.
