data_PCOD9304374
_publ_section_title
;
Structure prediction by ZEFSAII (Michael W. Deem and Ramdas Pophale) SiO2 
 PCOD9304374
Probable space group: C 2/C
;
_chemical_formula_sum "Si O2"
_cell_formula_units_Z 56
_cell_length_a 15.313800
_cell_length_b 18.438950
_cell_length_c 16.188492
_cell_angle_alpha 90.000000
_cell_angle_beta 153.869097
_cell_angle_gamma 90.000000
_cell_volume 2013.242093
_symmetry_space_group_name_H-M "C 2/C"
_symmetry_group_IT_number 15
_symmetry_cell_setting 'monoclinic'
loop_
_space_group_symop_operation_xyz
x,y,z
-x,y,1/2-z
-x,-y,-z
x,-y,1/2+z
1/2+x,1/2+y,z
1/2-x,1/2+y,1/2-z
1/2-x,1/2-y,-z
1/2+x,1/2-y,1/2+z
loop_
_atom_site_type_symbol
_atom_site_label
_atom_site_fract_x
_atom_site_fract_y
_atom_site_fract_z
Si Si1 0.351182 0.195772 0.807257
Si Si2 0.790958 0.128270 0.463616
Si Si3 0.766490 0.149425 0.626580
Si Si4 0.307310 0.011749 0.389223
Si Si5 0.322333 0.169878 0.539051
Si Si6 0.695675 0.474296 0.963811
Si Si7 0.909341 0.854669 0.881532
O O1 0.357774 0.193575 0.912386
O O2 0.553638 0.164453 0.941245
O O3 0.145759 0.156188 0.604744
O O4 0.358677 0.280578 0.790100
O O5 0.685547 0.147308 0.463455
O O6 0.771832 0.039604 0.446462
O O7 0.001240 0.166925 0.666456
O O8 0.780892 0.146187 0.358072
O O9 0.774109 0.069293 0.672978
O O10 0.357786 0.026418 0.528319
O O11 0.156608 0.070889 0.221550
O O12 0.500000 0.000000 0.500000
O O13 0.500000 0.154085 0.750000
O O14 0.250000 0.250000 0.500000
O O15 0.166867 0.111742 0.444293
O O16 0.500000 0.500866 0.750000
#
# Coordination Sequence:
#
# PCOD9304374 Si02
#       7
#     8   8   8   8   8   8   8
#     4  11  26  45  70 109 147 201 255 306 391 453
#     4   9  19  43  69 104 137 192 243 303 378 443
#     4   9  19  41  70  99 144 187 247 311 372 454
#     4  11  24  42  72 104 143 193 243 315 378 445
#     4  12  28  43  68 102 150 193 250 313 378 457
#     4  11  23  43  73 100 145 189 244 314 380 444
#     4  11  27  44  77 104 154 195 257 311 379 468
#
# _framework density 27.815829000000001
#
# number of rings (size 3 to 8) (size 9 to 14) (size 15 to 20)
#    0.000    1.429    2.857    2.143   10.000    5.143 
#    0.000    2.143    0.000    0.000    0.000    0.000 
#    0.000    0.000    0.000    0.000    0.000    0.000 
#
# Total GULP energy -156030.158052 kJ/mol
# GULP energy per Si atom -5572.505645 kJ/mol
# Density = 2.775252 g / cm^3
# Si number density = 27.815829 Si / 1000 Ang^3
#
#
#
# Elastic Constant Matrix: (Units=GPa)
#
#
# Indices 1 2 3 4 5 6 
#
# 1 151.1286 26.1941 13.9873 0.0216 27.2870 -0.0117
# 2 26.1941 148.4319 11.6464 0.1755 11.7511 0.0083
# 3 13.9873 11.6464 96.5314 0.0632 -0.4559 0.0129
# 4 0.0216 0.1755 0.0632 26.0065 0.0242 -0.5457
# 5 27.2870 11.7511 -0.4559 0.0242 36.6883 -0.0054
# 6 -0.0117 0.0083 0.0129 -0.5457 -0.0054 42.4582
#
#
#
# Elastic Compliance Matrix: (Units=1/GPa)
#
#
# Indices 1 2 3 4 5 6 
#
# 1 0.007875 -0.000863 -0.001063 0.000007 -0.005594 0.000002
# 2 -0.000863 0.007077 -0.000736 -0.000044 -0.001634 -0.000002
# 3 -0.001063 -0.000736 0.010608 -0.000021 0.001159 -0.000003
# 4 0.000007 -0.000044 -0.000021 0.038463 -0.000017 0.000494
# 5 -0.005594 -0.001634 0.001159 -0.000017 0.031955 0.000002
# 6 0.000002 -0.000002 -0.000003 0.000494 0.000002 0.023559
#
#
# Mechanical properties :
#
#
# Convention : Reuss Voigt Hill
#
# Bulk Modulus (GPa) = 49.42416 55.52750 52.47583
# Shear Modulus (GPa) = 37.99217 43.98151 40.98684
#
# Velocity S-wave (km/s) = 3.69975 3.98070 3.84279
# Velocity P-wave (km/s) = 6.00481 6.41357 6.21255
#
# Compressibility (1/GPa) = 0.02023302
#
# Stress axis : x y z
#
# Youngs Moduli (GPa) = 126.98564 141.31027 94.27094
#
# Poissons Ratio (x) = 0.12201 0.10024
# Poissons Ratio (y) = 0.10964 0.06942
# Poissons Ratio (z) = 0.13503 0.10406
#
# Static dielectric constant tensor:
#      x y z
#    x 2.022120 0.000120 -0.259640 
#    y 0.000120 2.320240 0.000100 
#    z -0.259640 0.000100 1.955600 
# 
# From -- ./inp_files/149041.got.cif
#   From: 2010.05.17/outbox.cif.g08.bks.cpg/sg15_75_cif.got.tgz:149041.got - 2010.06.03 18:47:42.
