data_PCOD9304143
_publ_section_title
;
Structure prediction by ZEFSAII (Michael W. Deem and Ramdas Pophale) SiO2 
 PCOD9304143
Probable space group: C 2/C
;
_chemical_formula_sum "Si O2"
_cell_formula_units_Z 48
_cell_length_a 9.505955
_cell_length_b 27.483275
_cell_length_c 17.082699
_cell_angle_alpha 90.000000
_cell_angle_beta 29.184332
_cell_angle_gamma 90.000000
_cell_volume 2176.221354
_symmetry_space_group_name_H-M "C 2/C"
_symmetry_group_IT_number 15
_symmetry_cell_setting 'monoclinic'
loop_
_space_group_symop_operation_xyz
x,y,z
-x,y,1/2-z
-x,-y,-z
x,-y,1/2+z
1/2+x,1/2+y,z
1/2-x,1/2+y,1/2-z
1/2-x,1/2-y,-z
1/2+x,1/2-y,1/2+z
loop_
_atom_site_type_symbol
_atom_site_label
_atom_site_fract_x
_atom_site_fract_y
_atom_site_fract_z
Si Si1 0.691449 0.957022 0.942040
Si Si2 0.652947 0.150954 0.412754
Si Si3 0.255004 0.013451 0.432061
Si Si4 0.790576 0.261396 0.161338
Si Si5 0.328450 0.877175 0.915734
Si Si6 0.819408 0.806492 0.122287
O O1 0.588625 0.902241 0.980096
O O2 0.000000 0.959533 0.750000
O O3 0.500000 0.000000 0.000000
O O4 0.717394 0.970906 0.019275
O O5 0.466901 0.190879 0.548532
O O6 0.532179 0.146539 0.382847
O O7 0.000000 0.159568 0.250000
O O8 0.500000 0.016110 0.250000
O O9 0.253561 0.066701 0.472289
O O10 0.000000 0.000000 0.500000
O O11 0.500000 0.256604 0.250000
O O12 0.715055 0.267863 0.289349
O O13 0.005738 0.217851 0.034237
O O14 0.500000 0.875649 0.750000
O O15 0.028966 0.848370 0.052591
O O16 0.500000 0.821312 0.250000
#
# Coordination Sequence:
#
# PCOD9304143 Si02
#       6
#     8   8   8   8   8   8
#     4  11  23  42  69  97 134 184 232 285 348 403
#     4  11  26  45  72 101 142 188 239 289 349 420
#     4  11  25  44  67 102 141 182 232 291 351 416
#     4  12  26  48  73 107 141 184 236 290 352 422
#     4  11  26  46  71 102 144 188 235 290 356 416
#     4  12  28  47  75 105 144 185 233 291 356 421
#
# _framework density 22.056581000000001
#
# number of rings (size 3 to 8) (size 9 to 14) (size 15 to 20)
#    0.000    0.667    3.333    3.000   11.667    4.000 
#    0.000    0.000    0.000    0.000    0.000    0.000 
#    0.000    0.000    0.000    0.000    0.000    0.000 
#
# Total GULP energy -134304.805765 kJ/mol
# GULP energy per Si atom -5596.033574 kJ/mol
# Density = 2.200638 g / cm^3
# Si number density = 22.056581 Si / 1000 Ang^3
#
#
#
# Elastic Constant Matrix: (Units=GPa)
#
#
# Indices 1 2 3 4 5 6 
#
# 1 118.0360 1.3883 28.0757 0.0000 -17.5858 0.0000
# 2 1.3883 74.0911 44.3861 0.0000 -8.3804 0.0000
# 3 28.0757 44.3861 91.3141 0.0000 -29.5389 0.0000
# 4 0.0000 0.0000 0.0000 35.5814 0.0000 0.2087
# 5 -17.5858 -8.3804 -29.5389 0.0000 52.9874 0.0000
# 6 0.0000 0.0000 0.0000 0.2087 0.0000 30.1272
#
#
#
# Elastic Compliance Matrix: (Units=1/GPa)
#
#
# Indices 1 2 3 4 5 6 
#
# 1 0.009491 0.002036 -0.003397 0.000000 0.001578 0.000000
# 2 0.002036 0.019782 -0.010993 0.000000 -0.002324 0.000000
# 3 -0.003397 -0.010993 0.020023 0.000000 0.008296 0.000000
# 4 0.000000 0.000000 0.000000 0.028106 0.000000 -0.000195
# 5 0.001578 -0.002324 0.008296 0.000000 0.023653 0.000000
# 6 0.000000 0.000000 0.000000 -0.000195 0.000000 0.033194
#
#
# Mechanical properties :
#
#
# Convention : Reuss Voigt Hill
#
# Bulk Modulus (GPa) = 40.67264 47.90460 44.28862
# Shear Modulus (GPa) = 29.91256 37.71195 33.81225
#
# Velocity S-wave (km/s) = 3.68662 4.13944 3.91957
# Velocity P-wave (km/s) = 6.04994 6.67927 6.37238
#
# Compressibility (1/GPa) = 0.02458655
#
# Stress axis : x y z
#
# Youngs Moduli (GPa) = 105.36025 50.55190 49.94244
#
# Poissons Ratio (x) = -0.10292 0.16967
# Poissons Ratio (y) = -0.21450 0.54903
# Poissons Ratio (z) = 0.35794 0.55573
#
# Static dielectric constant tensor:
#      x y z
#    x 1.798480 0.000000 0.001310 
#    y 0.000000 1.180050 0.000000 
#    z 0.001310 0.000000 1.757530 
# 
# From -- ./inp_files/194158.got.cif
#   From: 2010.05.17/outbox.cif.g08.bks.cpg/sg15_98_cif.got.tgz:194158.got - 2010.06.03 18:47:42.
