data_PCOD9304582
_publ_section_title
;
Structure prediction by ZEFSAII (Michael W. Deem and Ramdas Pophale) SiO2 
 PCOD9304582
Probable space group: C 2/C
;
_chemical_formula_sum "Si O2"
_cell_formula_units_Z 32
_cell_length_a 10.094247
_cell_length_b 9.653596
_cell_length_c 17.430461
_cell_angle_alpha 90.000000
_cell_angle_beta 63.971435
_cell_angle_gamma 90.000000
_cell_volume 1526.252673
_symmetry_space_group_name_H-M "C 2/C"
_symmetry_group_IT_number 15
_symmetry_cell_setting 'monoclinic'
loop_
_space_group_symop_operation_xyz
x,y,z
-x,y,1/2-z
-x,-y,-z
x,-y,1/2+z
1/2+x,1/2+y,z
1/2-x,1/2+y,1/2-z
1/2-x,1/2-y,-z
1/2+x,1/2-y,1/2+z
loop_
_atom_site_type_symbol
_atom_site_label
_atom_site_fract_x
_atom_site_fract_y
_atom_site_fract_z
Si Si1 0.654681 0.076170 0.451104
Si Si2 0.589229 0.311988 0.807053
Si Si3 0.833002 0.087777 0.774533
Si Si4 0.401823 0.369317 0.000682
O O1 0.625486 0.237973 0.436774
O O2 0.746896 0.077904 0.506731
O O3 0.500000 0.000000 0.500000
O O4 0.757589 0.993920 0.365029
O O5 0.500000 0.295280 0.750000
O O6 0.723393 0.207485 0.778875
O O7 0.648908 0.468813 0.793344
O O8 0.483850 0.299112 0.906817
O O9 0.000000 0.135243 0.750000
O O10 0.500000 0.500000 0.000000
#
# Coordination Sequence:
#
# PCOD9304582 Si02
#       4
#     8   8   8   8
#     4  11  23  45  66  95 135 171 219 271 330 390
#     4  11  24  46  67  95 136 175 219 275 334 394
#     4  11  24  44  65  97 134 173 221 275 327 395
#     4  11  25  44  69  99 132 174 222 273 331 394
#
# _framework density 20.966384999999999
#
# number of rings (size 3 to 8) (size 9 to 14) (size 15 to 20)
#    0.000    1.000    7.500    0.000    3.500    2.000 
#    4.500    0.000    0.000    0.000    0.000    0.000 
#    0.000    0.000    0.000    0.000    0.000    0.000 
#
# Total GULP energy -89390.393397 kJ/mol
# GULP energy per Si atom -5586.899587 kJ/mol
# Density = 2.091866 g / cm^3
# Si number density = 20.966385 Si / 1000 Ang^3
#
#
#
# Elastic Constant Matrix: (Units=GPa)
#
#
# Indices 1 2 3 4 5 6 
#
# 1 148.7188 101.7788 40.8864 0.0000 -44.2825 0.0000
# 2 101.7788 109.9569 2.2166 0.0000 -14.1869 0.0000
# 3 40.8864 2.2166 90.5056 0.0000 -22.2766 0.0000
# 4 0.0000 0.0000 0.0000 26.7594 0.0000 -19.5588
# 5 -44.2825 -14.1869 -22.2766 0.0000 32.8946 0.0000
# 6 0.0000 0.0000 0.0000 -19.5588 0.0000 53.6184
#
#
#
# Elastic Compliance Matrix: (Units=1/GPa)
#
#
# Indices 1 2 3 4 5 6 
#
# 1 0.051252 -0.041626 -0.011485 0.000000 0.043265 0.000000
# 2 -0.041626 0.043507 0.010278 0.000000 -0.030313 0.000000
# 3 -0.011485 0.010278 0.015926 0.000000 -0.000243 0.000000
# 4 0.000000 0.000000 0.000000 0.050956 0.000000 0.018588
# 5 0.043265 -0.030313 -0.000243 0.000000 0.075405 0.000000
# 6 0.000000 0.000000 0.000000 0.018588 0.000000 0.025431
#
#
# Mechanical properties :
#
#
# Convention : Reuss Voigt Hill
#
# Bulk Modulus (GPa) = 39.97048 70.99390 55.48219
# Shear Modulus (GPa) = 14.02597 36.27445 25.15021
#
# Velocity S-wave (km/s) = 2.58926 4.16399 3.46721
# Velocity P-wave (km/s) = 5.29570 7.55333 6.52293
#
# Compressibility (1/GPa) = 0.02501846
#
# Stress axis : x y z
#
# Youngs Moduli (GPa) = 19.51144 22.98498 62.79075
#
# Poissons Ratio (x) = 0.95678 0.72115
# Poissons Ratio (y) = 0.81219 -0.64539
# Poissons Ratio (z) = 0.22409 -0.23625
#
# Static dielectric constant tensor:
#      x y z
#    x 1.728320 0.000000 0.023230 
#    y 0.000000 1.774520 0.000000 
#    z 0.023230 0.000000 1.837730 
# 
# From -- ./inp_files/187485.got.cif
#   From: 2010.05.17/outbox.cif.g08.bks.cpg/sg15_94_cif.got.tgz:187485.got - 2010.06.03 18:47:42.
