data_PCOD9304147
_publ_section_title
;
Structure prediction by ZEFSAII (Michael W. Deem and Ramdas Pophale) SiO2 
 PCOD9304147
Probable space group: C 2/C
;
_chemical_formula_sum "Si O2"
_cell_formula_units_Z 40
_cell_length_a 17.451681
_cell_length_b 25.198356
_cell_length_c 10.198529
_cell_angle_alpha 90.000000
_cell_angle_beta 29.341821
_cell_angle_gamma 90.000000
_cell_volume 2197.656447
_symmetry_space_group_name_H-M "C 2/C"
_symmetry_group_IT_number 15
_symmetry_cell_setting 'monoclinic'
loop_
_space_group_symop_operation_xyz
x,y,z
-x,y,1/2-z
-x,-y,-z
x,-y,1/2+z
1/2+x,1/2+y,z
1/2-x,1/2+y,1/2-z
1/2-x,1/2-y,-z
1/2+x,1/2-y,1/2+z
loop_
_atom_site_type_symbol
_atom_site_label
_atom_site_fract_x
_atom_site_fract_y
_atom_site_fract_z
Si Si1 0.613403 0.294386 0.207370
Si Si2 0.888547 0.791873 0.790882
Si Si3 0.679549 0.887869 0.492798
Si Si4 0.680015 0.404752 0.506918
Si Si5 0.106803 0.503410 0.711588
O O1 0.500000 0.295217 0.250000
O O2 0.497152 0.285546 0.502631
O O3 0.750000 0.250000 0.000000
O O4 0.707383 0.348889 0.096141
O O5 0.818572 0.851118 0.909479
O O6 0.000000 0.784839 0.750000
O O7 0.750000 0.750000 0.000000
O O8 0.500000 0.867679 0.750000
O O9 0.669904 0.945474 0.576078
O O10 0.741442 0.893821 0.251750
O O11 0.500000 0.417659 0.750000
O O12 0.762270 0.453522 0.454535
O O13 0.000000 0.521456 0.750000
O O14 0.000000 0.500000 0.000000
#
# Coordination Sequence:
#
# PCOD9304147 Si02
#       5
#     8   8   8   8   8
#     4  12  26  43  69 102 130 172 227 271 329 394
#     4  11  24  44  66  94 133 171 215 268 334 388
#     4  11  23  45  69  94 138 176 215 275 332 393
#     4  11  23  45  68  96 137 172 218 281 329 389
#     4  11  23  42  69  99 131 177 226 266 333 397
#
# _framework density 18.201207
#
# number of rings (size 3 to 8) (size 9 to 14) (size 15 to 20)
#    0.000    0.800    8.000    1.800    2.800    4.000 
#    0.000    0.000    0.000    0.000    0.000    0.000 
#    0.000    0.000    0.000    0.000    0.000    0.000 
#
# Total GULP energy -111730.416478 kJ/mol
# GULP energy per Si atom -5586.520824 kJ/mol
# Density = 1.815978 g / cm^3
# Si number density = 18.201207 Si / 1000 Ang^3
#
#
#
# Elastic Constant Matrix: (Units=GPa)
#
#
# Indices 1 2 3 4 5 6 
#
# 1 134.3495 64.5580 65.4987 0.0000 -5.0425 0.0001
# 2 64.5580 128.2108 59.8011 -0.0003 -21.4009 0.0005
# 3 65.4987 59.8011 172.8175 -0.0009 4.7165 -0.0014
# 4 0.0000 -0.0003 -0.0009 37.4410 0.0002 -15.4194
# 5 -5.0425 -21.4009 4.7165 0.0002 43.1036 0.0009
# 6 0.0001 0.0005 -0.0014 -15.4194 0.0009 6.7886
#
#
#
# Elastic Compliance Matrix: (Units=1/GPa)
#
#
# Indices 1 2 3 4 5 6 
#
# 1 0.010743 -0.004316 -0.002562 -0.000003 -0.000606 -0.000007
# 2 -0.004316 0.012241 -0.002760 -0.000015 0.005875 -0.000036
# 3 -0.002562 -0.002760 0.007781 0.000017 -0.002522 0.000041
# 4 -0.000003 -0.000015 0.000017 0.413510 -0.000031 0.939224
# 5 -0.000606 0.005875 -0.002522 -0.000031 0.026322 -0.000074
# 6 -0.000007 -0.000036 0.000041 0.939224 -0.000074 2.280606
#
#
# Mechanical properties :
#
#
# Convention : Reuss Voigt Hill
#
# Bulk Modulus (GPa) = 87.03516 90.56592 88.80054
# Shear Modulus (GPa) = 1.80225 33.83465 17.81845
#
# Velocity S-wave (km/s) = 0.99616 4.31620 3.13225
# Velocity P-wave (km/s) = 7.01750 8.64324 7.87245
#
# Compressibility (1/GPa) = 0.01148961
#
# Stress axis : x y z
#
# Youngs Moduli (GPa) = 93.08110 81.69314 128.51108
#
# Poissons Ratio (x) = 0.35257 0.32922
# Poissons Ratio (y) = 0.40172 0.35475
# Poissons Ratio (z) = 0.23846 0.22551
#
# Static dielectric constant tensor:
#      x y z
#    x 1.622240 0.000000 0.021630 
#    y 0.000000 1.632810 0.000000 
#    z 0.021630 0.000000 1.630010 
# 
# From -- ./inp_files/51655.got.cif
#   From: 2010.05.17/outbox.cif.g08.bks.cpg/sg15_26_cif.got.tgz:51655.got - 2010.06.03 18:47:42.
