data_PCOD9304738
_publ_section_title
;
Structure prediction by ZEFSAII (Michael W. Deem and Ramdas Pophale) SiO2 
 PCOD9304738
Probable space group: C 2/C
;
_chemical_formula_sum "Si O2"
_cell_formula_units_Z 40
_cell_length_a 13.627252
_cell_length_b 4.861722
_cell_length_c 26.099242
_cell_angle_alpha 90.000000
_cell_angle_beta 121.752607
_cell_angle_gamma 90.000000
_cell_volume 1470.323595
_symmetry_space_group_name_H-M "C 2/C"
_symmetry_group_IT_number 15
_symmetry_cell_setting 'monoclinic'
loop_
_space_group_symop_operation_xyz
x,y,z
-x,y,1/2-z
-x,-y,-z
x,-y,1/2+z
1/2+x,1/2+y,z
1/2-x,1/2+y,1/2-z
1/2-x,1/2-y,-z
1/2+x,1/2-y,1/2+z
loop_
_atom_site_type_symbol
_atom_site_label
_atom_site_fract_x
_atom_site_fract_y
_atom_site_fract_z
Si Si1 0.594260 0.666838 0.239354
Si Si2 0.806928 0.951909 0.326313
Si Si3 0.270655 0.599717 0.952529
Si Si4 0.513810 0.022690 0.384276
Si Si5 0.872911 0.368188 0.429444
O O1 0.500000 0.530154 0.250000
O O2 0.681909 0.480074 0.232065
O O3 0.574071 0.277929 0.133900
O O4 0.678752 0.839126 0.298313
O O5 0.812594 0.215912 0.364467
O O6 0.465985 0.839934 0.323335
O O7 0.148029 0.445688 0.909447
O O8 0.362353 0.354183 0.971677
O O9 0.250000 0.750000 0.000000
O O10 0.310269 0.847531 0.926091
O O11 0.498546 0.898260 0.437946
#
# Coordination Sequence:
#
# PCOD9304738 Si02
#       5
#     8   8   8   8   8
#     4  11  24  40  68 102 146 194 239 291 364 437
#     4  11  23  46  69 108 148 193 249 302 371 450
#     4  12  28  49  77 109 143 195 253 309 378 442
#     4  11  26  46  72 106 148 194 239 304 368 441
#     4  11  26  49  74 104 152 186 248 309 371 444
#
# _framework density 27.204896000000002
#
# number of rings (size 3 to 8) (size 9 to 14) (size 15 to 20)
#    0.000    0.800    4.000    1.800    5.600    2.400 
#    0.000    0.000    0.000    0.000    0.000    0.000 
#    0.000    0.000    0.000    0.000    0.000    0.000 
#
# Total GULP energy -111753.692075 kJ/mol
# GULP energy per Si atom -5587.684604 kJ/mol
# Density = 2.714298 g / cm^3
# Si number density = 27.204896 Si / 1000 Ang^3
#
#
#
# Elastic Constant Matrix: (Units=GPa)
#
#
# Indices 1 2 3 4 5 6 
#
# 1 164.4786 43.5434 46.1799 0.0001 -28.7291 -0.0001
# 2 43.5434 106.0630 21.9094 0.0001 -8.2753 0.0000
# 3 46.1799 21.9094 74.7657 0.0001 -14.2648 0.0000
# 4 0.0001 0.0001 0.0001 54.7222 0.0000 -8.7607
# 5 -28.7291 -8.2753 -14.2648 0.0000 50.0102 0.0000
# 6 -0.0001 0.0000 0.0000 -8.7607 0.0000 43.9855
#
#
#
# Elastic Compliance Matrix: (Units=1/GPa)
#
#
# Indices 1 2 3 4 5 6 
#
# 1 0.008368 -0.002384 -0.003837 0.000000 0.003318 0.000000
# 2 -0.002384 0.010751 -0.001692 0.000000 -0.000073 0.000000
# 3 -0.003837 -0.001692 0.016674 0.000000 0.002272 0.000000
# 4 0.000000 0.000000 0.000000 0.018876 0.000000 0.003760
# 5 0.003318 -0.000073 0.002272 0.000000 0.022538 0.000000
# 6 0.000000 0.000000 0.000000 0.003760 0.000000 0.023484
#
#
# Mechanical properties :
#
#
# Convention : Reuss Voigt Hill
#
# Bulk Modulus (GPa) = 50.08108 63.17474 56.62791
# Shear Modulus (GPa) = 40.59383 45.32190 42.95786
#
# Velocity S-wave (km/s) = 3.86703 4.08603 3.97804
# Velocity P-wave (km/s) = 6.19575 6.74782 6.47767
#
# Compressibility (1/GPa) = 0.01996762
#
# Stress axis : x y z
#
# Youngs Moduli (GPa) = 119.50702 93.01599 59.97270
#
# Poissons Ratio (x) = 0.22174 0.23010
# Poissons Ratio (y) = 0.28489 0.10147
# Poissons Ratio (z) = 0.45852 0.15738
#
# Static dielectric constant tensor:
#      x y z
#    x 2.004350 0.000000 -0.058000 
#    y 0.000000 2.266340 0.000000 
#    z -0.058000 0.000000 2.239630 
# 
# From -- ./inp_files/290696.got.cif
#   From: 2010.05.17/outbox.cif.g08.bks.cpg/sg15_146_cif.got.tgz:290696.got - 2010.06.03 18:47:42.
