data_PCOD9304339
_publ_section_title
;
Structure prediction by ZEFSAII (Michael W. Deem and Ramdas Pophale) SiO2 
 PCOD9304339
Probable space group: C 2/C
;
_chemical_formula_sum "Si O2"
_cell_formula_units_Z 48
_cell_length_a 20.883829
_cell_length_b 5.340704
_cell_length_c 22.697180
_cell_angle_alpha 90.000000
_cell_angle_beta 129.934503
_cell_angle_gamma 90.000000
_cell_volume 1941.112027
_symmetry_space_group_name_H-M "C 2/C"
_symmetry_group_IT_number 15
_symmetry_cell_setting 'monoclinic'
loop_
_space_group_symop_operation_xyz
x,y,z
-x,y,1/2-z
-x,-y,-z
x,-y,1/2+z
1/2+x,1/2+y,z
1/2-x,1/2+y,1/2-z
1/2-x,1/2-y,-z
1/2+x,1/2-y,1/2+z
loop_
_atom_site_type_symbol
_atom_site_label
_atom_site_fract_x
_atom_site_fract_y
_atom_site_fract_z
Si Si1 0.660800 0.155556 0.210015
Si Si2 0.022108 0.913295 0.197812
Si Si3 0.679745 0.504143 0.621798
Si Si4 0.265048 0.001252 0.546821
Si Si5 0.444452 0.924909 0.124087
Si Si6 0.029596 0.675412 0.569893
O O1 0.612311 0.358370 0.222513
O O2 0.676464 0.228429 0.151338
O O3 0.748022 0.116635 0.294072
O O4 0.593688 0.936124 0.157862
O O5 0.000000 0.816028 0.250000
O O6 0.967846 0.717229 0.127176
O O7 0.998147 0.202748 0.185076
O O8 0.712939 0.490480 0.575697
O O9 0.587048 0.392658 0.576668
O O10 0.250000 0.750000 0.500000
O O11 0.250000 0.250000 0.500000
O O12 0.363114 0.039738 0.615983
O O13 0.445044 0.798624 0.058899
O O14 0.000000 0.500000 0.500000
#
# Coordination Sequence:
#
# PCOD9304339 Si02
#       6
#     8   8   8   8   8   8
#     4  11  25  44  74 114 144 203 256 323 402 459
#     4  11  23  43  71 102 148 189 247 306 384 459
#     4  12  25  46  78 109 158 197 264 330 392 476
#     4  12  29  49  73 109 153 208 260 315 391 470
#     4  11  24  45  66 105 139 194 251 305 374 454
#     4  11  25  45  73 104 151 197 255 318 389 469
#
# _framework density 24.728090999999999
#
# number of rings (size 3 to 8) (size 9 to 14) (size 15 to 20)
#    0.000    0.667    3.333    3.500    4.667    4.667 
#    0.000    0.000    0.000    0.000    0.000    0.000 
#    0.000    0.000    0.000    0.000    0.000    0.000 
#
# Total GULP energy -133652.484614 kJ/mol
# GULP energy per Si atom -5568.853526 kJ/mol
# Density = 2.467181 g / cm^3
# Si number density = 24.728091 Si / 1000 Ang^3
#
#
#
# Elastic Constant Matrix: (Units=GPa)
#
#
# Indices 1 2 3 4 5 6 
#
# 1 156.3936 26.2885 28.4152 -0.0001 -29.8564 -0.0008
# 2 26.2885 110.8465 28.8946 -0.0002 1.4295 -0.0012
# 3 28.4152 28.8946 75.2257 -0.0001 -2.8519 -0.0004
# 4 -0.0001 -0.0002 -0.0001 34.6425 -0.0001 2.3480
# 5 -29.8564 1.4295 -2.8519 -0.0001 57.1631 0.0000
# 6 -0.0008 -0.0012 -0.0004 2.3480 0.0000 45.9640
#
#
#
# Elastic Compliance Matrix: (Units=1/GPa)
#
#
# Indices 1 2 3 4 5 6 
#
# 1 0.007790 -0.001302 -0.002292 0.000000 0.003987 0.000000
# 2 -0.001302 0.010254 -0.003489 0.000000 -0.001110 0.000000
# 3 -0.002292 -0.003489 0.015486 0.000000 -0.000337 0.000000
# 4 0.000000 0.000000 0.000000 0.028967 0.000000 -0.001480
# 5 0.003987 -0.001110 -0.000337 0.000000 0.019587 0.000000
# 6 0.000000 0.000000 0.000000 -0.001480 0.000000 0.021832
#
#
# Mechanical properties :
#
#
# Convention : Reuss Voigt Hill
#
# Bulk Modulus (GPa) = 51.63628 56.62915 54.13272
# Shear Modulus (GPa) = 40.14893 44.81175 42.48034
#
# Velocity S-wave (km/s) = 4.03378 4.26159 4.14925
# Velocity P-wave (km/s) = 6.52857 6.86770 6.70028
#
# Compressibility (1/GPa) = 0.01936623
#
# Stress axis : x y z
#
# Youngs Moduli (GPa) = 128.36214 97.52289 64.57314
#
# Poissons Ratio (x) = 0.12694 0.14797
# Poissons Ratio (y) = 0.16708 0.22530
# Poissons Ratio (z) = 0.29415 0.34026
#
# Static dielectric constant tensor:
#      x y z
#    x 2.129680 0.000000 0.035180 
#    y 0.000000 2.033070 0.000000 
#    z 0.035180 0.000000 2.269960 
# 
# From -- ./inp_files/279022.got.cif
#   From: 2010.05.17/outbox.cif.g08.bks.cpg/sg15_140_cif.got.tgz:279022.got - 2010.06.03 18:47:42.
