data_PCOD9304220
_publ_section_title
;
Structure prediction by ZEFSAII (Michael W. Deem and Ramdas Pophale) SiO2 
 PCOD9304220
Probable space group: C 2/C
;
_chemical_formula_sum "Si O2"
_cell_formula_units_Z 40
_cell_length_a 10.536498
_cell_length_b 8.857055
_cell_length_c 20.995490
_cell_angle_alpha 90.000000
_cell_angle_beta 77.076048
_cell_angle_gamma 90.000000
_cell_volume 1909.713665
_symmetry_space_group_name_H-M "C 2/C"
_symmetry_group_IT_number 15
_symmetry_cell_setting 'monoclinic'
loop_
_space_group_symop_operation_xyz
x,y,z
-x,y,1/2-z
-x,-y,-z
x,-y,1/2+z
1/2+x,1/2+y,z
1/2-x,1/2+y,1/2-z
1/2-x,1/2-y,-z
1/2+x,1/2-y,1/2+z
loop_
_atom_site_type_symbol
_atom_site_label
_atom_site_fract_x
_atom_site_fract_y
_atom_site_fract_z
Si Si1 0.909946 0.038678 0.071378
Si Si2 0.368222 0.055211 0.225024
Si Si3 0.691034 0.084250 0.517760
Si Si4 0.099978 0.086389 0.795774
Si Si5 0.390659 0.105719 0.587373
O O1 0.884565 0.214393 0.085639
O O2 0.770300 0.974912 0.068457
O O3 0.960425 0.958470 0.129346
O O4 0.000000 0.000000 0.000000
O O5 0.500000 0.020169 0.250000
O O6 0.370789 0.234894 0.211419
O O7 0.234753 0.005669 0.274155
O O8 0.367522 0.964443 0.158882
O O9 0.750000 0.250000 0.500000
O O10 0.540538 0.080198 0.551874
O O11 0.700449 0.977795 0.454347
O O12 0.000000 0.049219 0.750000
#
# Coordination Sequence:
#
# PCOD9304220 Si02
#       5
#     8   8   8   8   8
#     4  12  25  43  69 102 140 181 227 281 347 411
#     4  11  25  47  72  99 140 182 238 289 352 418
#     4  11  23  43  65 100 139 177 226 281 343 408
#     4  11  27  46  71 102 139 185 235 291 350 420
#     4  11  25  41  70  99 135 184 226 286 344 410
#
# _framework density 20.945547999999999
#
# number of rings (size 3 to 8) (size 9 to 14) (size 15 to 20)
#    0.000    0.800    2.000    4.200    5.600    6.400 
#    0.000    0.000    0.000    0.000    0.000    0.000 
#    0.000    0.000    0.000    0.000    0.000    0.000 
#
# Total GULP energy -111817.931381 kJ/mol
# GULP energy per Si atom -5590.896569 kJ/mol
# Density = 2.089787 g / cm^3
# Si number density = 20.945548 Si / 1000 Ang^3
#
#
#
# Elastic Constant Matrix: (Units=GPa)
#
#
# Indices 1 2 3 4 5 6 
#
# 1 85.3375 29.8477 35.4304 0.0000 10.8541 0.0000
# 2 29.8477 111.7403 57.0015 0.0000 15.3031 0.0000
# 3 35.4304 57.0015 153.5703 0.0000 16.7879 0.0000
# 4 0.0000 0.0000 0.0000 36.9580 0.0000 5.7057
# 5 10.8541 15.3031 16.7879 0.0000 41.4673 0.0000
# 6 0.0000 0.0000 0.0000 5.7057 0.0000 25.3027
#
#
#
# Elastic Compliance Matrix: (Units=1/GPa)
#
#
# Indices 1 2 3 4 5 6 
#
# 1 0.013632 -0.002326 -0.002078 0.000000 -0.001869 0.000000
# 2 -0.002326 0.011695 -0.003557 0.000000 -0.002267 0.000000
# 3 -0.002078 -0.003557 0.008484 0.000000 -0.001578 0.000000
# 4 0.000000 0.000000 0.000000 0.028034 0.000000 -0.006321
# 5 -0.001869 -0.002267 -0.001578 0.000000 0.026080 0.000000
# 6 0.000000 0.000000 0.000000 -0.006321 0.000000 0.040947
#
#
# Mechanical properties :
#
#
# Convention : Reuss Voigt Hill
#
# Bulk Modulus (GPa) = 55.89268 66.13412 61.01340
# Shear Modulus (GPa) = 33.16642 35.97017 34.56829
#
# Velocity S-wave (km/s) = 3.98359 4.14855 4.06690
# Velocity P-wave (km/s) = 6.92108 7.38851 7.15861
#
# Compressibility (1/GPa) = 0.01789143
#
# Stress axis : x y z
#
# Youngs Moduli (GPa) = 73.35780 85.50392 117.87381
#
# Poissons Ratio (x) = 0.19884 0.24489
# Poissons Ratio (y) = 0.17060 0.41923
# Poissons Ratio (z) = 0.15240 0.30411
#
# Static dielectric constant tensor:
#      x y z
#    x 1.748850 0.000000 -0.034270 
#    y 0.000000 1.753250 0.000000 
#    z -0.034270 0.000000 1.792050 
# 
# From -- ./inp_files/195071.got.cif
#   From: 2010.05.17/outbox.cif.g08.bks.cpg/sg15_98_cif.got.tgz:195071.got - 2010.06.03 18:47:42.
