data_PCOD9304117
_publ_section_title
;
Structure prediction by ZEFSAII (Michael W. Deem and Ramdas Pophale) SiO2 
 PCOD9304117
Probable space group: C 2/C
;
_chemical_formula_sum "Si O2"
_cell_formula_units_Z 44
_cell_length_a 11.759857
_cell_length_b 7.783786
_cell_length_c 24.457127
_cell_angle_alpha 90.000000
_cell_angle_beta 117.599601
_cell_angle_gamma 90.000000
_cell_volume 1983.962448
_symmetry_space_group_name_H-M "C 2/C"
_symmetry_group_IT_number 15
_symmetry_cell_setting 'monoclinic'
loop_
_space_group_symop_operation_xyz
x,y,z
-x,y,1/2-z
-x,-y,-z
x,-y,1/2+z
1/2+x,1/2+y,z
1/2-x,1/2+y,1/2-z
1/2-x,1/2-y,-z
1/2+x,1/2-y,1/2+z
loop_
_atom_site_type_symbol
_atom_site_label
_atom_site_fract_x
_atom_site_fract_y
_atom_site_fract_z
Si Si1 0.719609 0.227133 0.861973
Si Si2 0.500000 0.029835 0.750000
Si Si3 0.865234 0.065596 0.994248
Si Si4 0.047883 0.661549 0.157276
Si Si5 0.523156 0.881879 0.058189
Si Si6 0.199849 0.104345 0.910167
O O1 0.596900 0.144621 0.806540
O O2 0.773626 0.115155 0.924157
O O3 0.833701 0.238473 0.842982
O O4 0.695049 0.420749 0.878014
O O5 0.425945 0.910674 0.776835
O O6 0.913362 0.239974 0.034764
O O7 0.805367 0.941415 0.026406
O O8 0.000000 0.000000 0.000000
O O9 0.023837 0.501918 0.111009
O O10 0.921931 0.779443 0.130050
O O11 0.666762 0.810513 0.079517
O O12 0.500000 0.000000 0.000000
#
# Coordination Sequence:
#
# PCOD9304117 Si02
#       6
#     8   4   8   8   8   8
#     4  11  26  48  66 102 136 182 233 281 335 418
#     4  12  30  46  70  90 144 188 234 276 330 412
#     4  12  23  42  72 107 141 172 221 291 357 409
#     4  11  26  47  69 103 135 184 233 279 345 412
#     4  11  23  42  68 108 139 166 222 289 343 421
#     4  11  24  42  75 100 140 176 222 287 360 394
#
# _framework density 22.17784
#
# number of rings (size 3 to 8) (size 9 to 14) (size 15 to 20)
#    0.000    0.727    5.455    1.636    5.091    6.545 
#    0.000    0.000    0.000    0.000    0.000    0.000 
#    0.000    0.000    0.000    0.000    0.000    0.000 
#
# Total GULP energy -123292.140016 kJ/mol
# GULP energy per Si atom -5604.188183 kJ/mol
# Density = 2.212736 g / cm^3
# Si number density = 22.177840 Si / 1000 Ang^3
#
#
#
# Elastic Constant Matrix: (Units=GPa)
#
#
# Indices 1 2 3 4 5 6 
#
# 1 142.5960 31.3830 50.3655 0.0000 7.6610 0.0000
# 2 31.3830 63.7009 33.4720 0.0000 8.7163 0.0000
# 3 50.3655 33.4720 107.8288 0.0000 2.9927 0.0000
# 4 0.0000 0.0000 0.0000 31.8721 0.0000 6.0320
# 5 7.6610 8.7163 2.9927 0.0000 43.3048 0.0000
# 6 0.0000 0.0000 0.0000 6.0320 0.0000 45.0920
#
#
#
# Elastic Compliance Matrix: (Units=1/GPa)
#
#
# Indices 1 2 3 4 5 6 
#
# 1 0.008768 -0.002470 -0.003306 0.000000 -0.000826 0.000000
# 2 -0.002470 0.019961 -0.004953 0.000000 -0.003238 0.000000
# 3 -0.003306 -0.004953 0.012335 0.000000 0.000729 0.000000
# 4 0.000000 0.000000 0.000000 0.032190 0.000000 -0.004306
# 5 -0.000826 -0.003238 0.000729 0.000000 0.023840 0.000000
# 6 0.000000 0.000000 0.000000 -0.004306 0.000000 0.022753
#
#
# Mechanical properties :
#
#
# Convention : Reuss Voigt Hill
#
# Bulk Modulus (GPa) = 51.00092 60.50742 55.75417
# Shear Modulus (GPa) = 33.82031 37.31412 35.56721
#
# Velocity S-wave (km/s) = 3.90931 4.10627 4.00900
# Velocity P-wave (km/s) = 6.58963 7.05861 6.82815
#
# Compressibility (1/GPa) = 0.01960749
#
# Stress axis : x y z
#
# Youngs Moduli (GPa) = 114.04539 50.09855 81.06783
#
# Poissons Ratio (x) = 0.12373 0.26802
# Poissons Ratio (y) = 0.28166 0.40150
# Poissons Ratio (z) = 0.37704 0.24812
#
# Static dielectric constant tensor:
#      x y z
#    x 1.847460 0.000000 -0.005710 
#    y 0.000000 1.851190 0.000000 
#    z -0.005710 0.000000 1.762940 
# 
# From -- ./inp_files/267983.got.cif
#   From: 2010.05.17/outbox.cif.g08.bks.cpg/sg15_134_cif.got.tgz:267983.got - 2010.06.03 18:47:42.
