data_PCOD9304524
_publ_section_title
;
Structure prediction by ZEFSAII (Michael W. Deem and Ramdas Pophale) SiO2 
 PCOD9304524
Probable space group: C 2/C
;
_chemical_formula_sum "Si O2"
_cell_formula_units_Z 48
_cell_length_a 16.635741
_cell_length_b 9.449267
_cell_length_c 29.511769
_cell_angle_alpha 90.000000
_cell_angle_beta 27.860282
_cell_angle_gamma 90.000000
_cell_volume 2167.939488
_symmetry_space_group_name_H-M "C 2/C"
_symmetry_group_IT_number 15
_symmetry_cell_setting 'monoclinic'
loop_
_space_group_symop_operation_xyz
x,y,z
-x,y,1/2-z
-x,-y,-z
x,-y,1/2+z
1/2+x,1/2+y,z
1/2-x,1/2+y,1/2-z
1/2-x,1/2-y,-z
1/2+x,1/2-y,1/2+z
loop_
_atom_site_type_symbol
_atom_site_label
_atom_site_fract_x
_atom_site_fract_y
_atom_site_fract_z
Si Si1 0.236315 0.194158 0.057959
Si Si2 0.000000 0.093442 0.250000
Si Si3 0.152827 0.030910 0.958201
Si Si4 0.000000 0.391047 0.750000
Si Si5 0.434543 0.299983 0.426473
Si Si6 0.998908 0.483826 0.946095
Si Si7 0.171849 0.855775 0.222758
O O1 0.066756 0.183021 0.173770
O O2 0.348775 0.303957 0.030638
O O3 0.250000 0.250000 0.000000
O O4 0.314522 0.038316 0.020946
O O5 0.130601 0.984856 0.208952
O O6 0.348361 0.984127 0.848031
O O7 0.102954 0.937845 0.025864
O O8 0.000000 0.000000 0.000000
O O9 0.885231 0.286403 0.775362
O O10 0.250000 0.250000 0.500000
O O11 0.558115 0.344262 0.324171
O O12 0.516396 0.173773 0.416870
O O13 0.135684 0.599342 0.859507
O O14 0.000000 0.500000 0.000000
#
# Coordination Sequence:
#
# PCOD9304524 Si02
#       7
#     8   4   8   4   8   8   8
#     4  12  26  45  72 106 146 190 244 307 374 437
#     4  11  23  44  72 104 146 194 242 302 380 442
#     4  12  26  45  72 106 146 190 244 307 374 437
#     4  11  23  44  72 104 146 194 242 302 380 442
#     4  12  25  48  74 105 146 195 247 306 371 454
#     4  12  25  48  74 105 146 195 247 306 371 454
#     4  11  24  42  76 104 139 196 244 298 375 444
#
# _framework density 22.140839
#
# number of rings (size 3 to 8) (size 9 to 14) (size 15 to 20)
#    0.000    0.333    3.333    6.500    0.000    4.000 
#    0.000    0.000    0.000    0.000    0.000    0.000 
#    0.000    0.000    0.000    0.000    0.000    0.000 
#
# Total GULP energy -133918.133449 kJ/mol
# GULP energy per Si atom -5579.922227 kJ/mol
# Density = 2.209045 g / cm^3
# Si number density = 22.140839 Si / 1000 Ang^3
#
#
#
# Elastic Constant Matrix: (Units=GPa)
#
#
# Indices 1 2 3 4 5 6 
#
# 1 56.8865 -2.5366 18.4856 0.0000 12.9388 0.0000
# 2 -2.5366 79.0910 26.9075 0.0001 4.0577 0.0000
# 3 18.4856 26.9075 152.5611 -0.0005 22.9924 -0.0002
# 4 0.0000 0.0001 -0.0005 23.8325 -0.0001 6.4645
# 5 12.9388 4.0577 22.9924 -0.0001 38.0682 0.0001
# 6 0.0000 0.0000 -0.0002 6.4645 0.0001 42.7604
#
#
#
# Elastic Compliance Matrix: (Units=1/GPa)
#
#
# Indices 1 2 3 4 5 6 
#
# 1 0.019525 0.001523 -0.001771 0.000000 -0.005729 0.000000
# 2 0.001523 0.013570 -0.002510 0.000000 -0.000448 0.000000
# 3 -0.001771 -0.002510 0.007790 0.000000 -0.003836 0.000000
# 4 0.000000 0.000000 0.000000 0.043754 0.000000 -0.006615
# 5 -0.005729 -0.000448 -0.003836 0.000000 0.030580 0.000000
# 6 0.000000 0.000000 0.000000 -0.006615 0.000000 0.024386
#
#
# Mechanical properties :
#
#
# Convention : Reuss Voigt Hill
#
# Bulk Modulus (GPa) = 28.27442 41.58352 34.92897
# Shear Modulus (GPa) = 31.86509 37.31102 34.58805
#
# Velocity S-wave (km/s) = 3.79779 4.10953 3.95673
# Velocity P-wave (km/s) = 5.65941 6.42960 6.05676
#
# Compressibility (1/GPa) = 0.03536766
#
# Stress axis : x y z
#
# Youngs Moduli (GPa) = 51.21560 73.69468 128.36732
#
# Poissons Ratio (x) = -0.11221 0.22734
# Poissons Ratio (y) = -0.07798 0.32224
# Poissons Ratio (z) = 0.09070 0.18500
#
# Static dielectric constant tensor:
#      x y z
#    x 1.767930 0.000000 -0.152100 
#    y 0.000000 1.789390 0.000000 
#    z -0.152100 0.000000 1.882070 
# 
# From -- ./inp_files/315651.got.cif
#   From: 2010.05.17/outbox.cif.g08.bks.cpg/sg15_158_cif.got.tgz:315651.got - 2010.06.03 18:47:42.
