data_PCOD9304760
_publ_section_title
;
Structure prediction by ZEFSAII (Michael W. Deem and Ramdas Pophale) SiO2 
 PCOD9304760
Probable space group: C 2/C
;
_chemical_formula_sum "Si O2"
_cell_formula_units_Z 48
_cell_length_a 27.586148
_cell_length_b 14.652184
_cell_length_c 11.664183
_cell_angle_alpha 90.000000
_cell_angle_beta 25.159109
_cell_angle_gamma 90.000000
_cell_volume 2004.347417
_symmetry_space_group_name_H-M "C 2/C"
_symmetry_group_IT_number 15
_symmetry_cell_setting 'monoclinic'
loop_
_space_group_symop_operation_xyz
x,y,z
-x,y,1/2-z
-x,-y,-z
x,-y,1/2+z
1/2+x,1/2+y,z
1/2-x,1/2+y,1/2-z
1/2-x,1/2-y,-z
1/2+x,1/2-y,1/2+z
loop_
_atom_site_type_symbol
_atom_site_label
_atom_site_fract_x
_atom_site_fract_y
_atom_site_fract_z
Si Si1 0.952327 0.610868 0.650350
Si Si2 0.844464 0.648881 0.462976
Si Si3 0.000000 0.733174 0.750000
Si Si4 0.607150 0.611435 0.873666
Si Si5 0.632950 0.020037 0.866687
Si Si6 0.500000 0.465617 0.250000
Si Si7 0.184976 0.137759 0.461544
O O1 0.049183 0.649262 0.354325
O O2 0.928392 0.677511 0.807933
O O3 0.013629 0.528009 0.587231
O O4 0.849446 0.577021 0.789991
O O5 0.738412 0.597488 0.629955
O O6 0.867076 0.593933 0.531825
O O7 0.806127 0.753303 0.569135
O O8 0.074607 0.797491 0.510918
O O9 0.605360 0.627203 0.743976
O O10 0.520568 0.534593 0.100922
O O11 0.713348 0.934290 0.728124
O O12 0.388551 0.404299 0.482382
#
# Coordination Sequence:
#
# PCOD9304760 Si02
#       7
#     8   8   4   8   8   4   8
#     4  11  25  45  74 105 150 185 238 304 358 423
#     4  12  24  47  75 106 140 196 240 295 362 428
#     4  11  24  42  71 110 140 194 241 290 355 438
#     4  11  23  46  72 101 147 189 242 294 365 427
#     4  11  26  44  72 110 142 185 243 297 360 427
#     4  11  26  44  73  98 146 196 235 300 359 424
#     4  12  24  46  72 104 146 188 237 298 359 427
#
# _framework density 23.947944
#
# number of rings (size 3 to 8) (size 9 to 14) (size 15 to 20)
#    0.000    0.667    5.000    2.500    7.000    0.000 
#    3.000    0.833    0.000    0.000    0.000    0.000 
#    0.000    0.000    0.000    0.000    0.000    0.000 
#
# Total GULP energy -134005.758579 kJ/mol
# GULP energy per Si atom -5583.573274 kJ/mol
# Density = 2.389344 g / cm^3
# Si number density = 23.947944 Si / 1000 Ang^3
#
#
#
# Elastic Constant Matrix: (Units=GPa)
#
#
# Indices 1 2 3 4 5 6 
#
# 1 108.5043 61.0762 8.1134 0.0000 11.2305 0.0000
# 2 61.0762 168.3192 46.3208 0.0000 11.4486 0.0000
# 3 8.1134 46.3208 52.9426 0.0000 12.8549 0.0000
# 4 0.0000 0.0000 0.0000 29.6180 0.0000 7.0252
# 5 11.2305 11.4486 12.8549 0.0000 41.8594 0.0000
# 6 0.0000 0.0000 0.0000 7.0252 0.0000 35.1587
#
#
#
# Elastic Compliance Matrix: (Units=1/GPa)
#
#
# Indices 1 2 3 4 5 6 
#
# 1 0.012152 -0.005128 0.003324 0.000000 -0.002878 0.000000
# 2 -0.005128 0.009990 -0.008239 0.000000 0.001174 0.000000
# 3 0.003324 -0.008239 0.027292 0.000000 -0.007020 0.000000
# 4 0.000000 0.000000 0.000000 0.035443 0.000000 -0.007082
# 5 -0.002878 0.001174 -0.007020 0.000000 0.026496 0.000000
# 6 0.000000 0.000000 0.000000 -0.007082 0.000000 0.029858
#
#
# Mechanical properties :
#
#
# Convention : Reuss Voigt Hill
#
# Bulk Modulus (GPa) = 34.07635 62.30967 48.19301
# Shear Modulus (GPa) = 29.22246 35.61095 32.41670
#
# Velocity S-wave (km/s) = 3.49700 3.86037 3.68317
# Velocity P-wave (km/s) = 5.52861 6.77829 6.18509
#
# Compressibility (1/GPa) = 0.02934587
#
# Stress axis : x y z
#
# Youngs Moduli (GPa) = 82.28833 100.10453 36.64051
#
# Poissons Ratio (x) = 0.51338 -0.12178
# Poissons Ratio (y) = 0.42201 0.30189
# Poissons Ratio (z) = -0.27349 0.82479
#
# Static dielectric constant tensor:
#      x y z
#    x 1.949380 0.000000 -0.003210 
#    y 0.000000 1.951930 0.000000 
#    z -0.003210 0.000000 2.032110 
# 
# From -- ./inp_files/123468.got.cif
#   From: 2010.05.17/outbox.cif.g08.bks.cpg/sg15_62_cif.got.tgz:123468.got - 2010.06.03 18:47:42.
