data_PCOD9304338
_publ_section_title
;
Structure prediction by ZEFSAII (Michael W. Deem and Ramdas Pophale) SiO2 
 PCOD9304338
Probable space group: C 2/C
;
_chemical_formula_sum "Si O2"
_cell_formula_units_Z 32
_cell_length_a 10.873510
_cell_length_b 10.080044
_cell_length_c 13.975692
_cell_angle_alpha 90.000000
_cell_angle_beta 127.261396
_cell_angle_gamma 90.000000
_cell_volume 1219.141089
_symmetry_space_group_name_H-M "C 2/C"
_symmetry_group_IT_number 15
_symmetry_cell_setting 'monoclinic'
loop_
_space_group_symop_operation_xyz
x,y,z
-x,y,1/2-z
-x,-y,-z
x,-y,1/2+z
1/2+x,1/2+y,z
1/2-x,1/2+y,1/2-z
1/2-x,1/2-y,-z
1/2+x,1/2-y,1/2+z
loop_
_atom_site_type_symbol
_atom_site_label
_atom_site_fract_x
_atom_site_fract_y
_atom_site_fract_z
Si Si1 0.534681 0.418419 0.652208
Si Si2 0.119579 0.447453 0.664451
Si Si3 0.102369 0.338825 0.458784
Si Si4 0.419936 0.690746 0.606609
O O1 0.500000 0.384721 0.750000
O O2 0.710053 0.462032 0.716484
O O3 0.514424 0.284041 0.582743
O O4 0.428882 0.541198 0.571151
O O5 0.148622 0.442281 0.563681
O O6 0.005458 0.559028 0.649607
O O7 0.040223 0.305320 0.635397
O O8 0.250000 0.250000 0.500000
O O9 0.500000 0.664475 0.750000
O O10 0.250000 0.750000 0.500000
#
# Coordination Sequence:
#
# PCOD9304338 Si02
#       4
#     8   8   8   8
#     4  11  23  44  71 102 146 192 238 306 373 443
#     4  11  25  43  73 103 143 193 241 307 375 435
#     4  11  23  43  71 102 141 186 248 302 371 443
#     4  11  27  48  71 103 148 192 246 307 370 443
#
# _framework density 26.247986999999998
#
# number of rings (size 3 to 8) (size 9 to 14) (size 15 to 20)
#    0.000    1.000    2.500    3.000   14.000    2.000 
#    9.000    0.000    0.000    0.000    0.000    0.000 
#    0.000    0.000    0.000    0.000    0.000    0.000 
#
# Total GULP energy -89097.968201 kJ/mol
# GULP energy per Si atom -5568.623013 kJ/mol
# Density = 2.618825 g / cm^3
# Si number density = 26.247987 Si / 1000 Ang^3
#
#
#
# Elastic Constant Matrix: (Units=GPa)
#
#
# Indices 1 2 3 4 5 6 
#
# 1 61.5639 13.8955 38.1630 0.0000 9.7413 0.0000
# 2 13.8955 148.0629 32.1211 0.0000 -25.0332 0.0000
# 3 38.1630 32.1211 130.8245 0.0000 13.9434 0.0000
# 4 0.0000 0.0000 0.0000 -136.2335 0.0000 5.8082
# 5 9.7413 -25.0332 13.9434 0.0000 28.8662 0.0000
# 6 0.0000 0.0000 0.0000 5.8082 0.0000 47.2185
#
#
#
# Elastic Compliance Matrix: (Units=1/GPa)
#
#
# Indices 1 2 3 4 5 6 
#
# 1 0.020715 -0.001952 -0.004890 0.000000 -0.006322 0.000000
# 2 -0.001952 0.009225 -0.002761 0.000000 0.009993 0.000000
# 3 -0.004890 -0.002761 0.010361 0.000000 -0.005749 0.000000
# 4 0.000000 0.000000 0.000000 -0.007302 0.000000 0.000898
# 5 -0.006322 0.009993 -0.005749 0.000000 0.048219 0.000000
# 6 0.000000 0.000000 0.000000 0.000898 0.000000 0.021068
#
#
# Mechanical properties :
#
#
# Convention : Reuss Voigt Hill
#
# Bulk Modulus (GPa) = 47.40164 56.53449 51.96806
# Shear Modulus (GPa) = 38.90351 5.05501 21.97926
#
# Velocity S-wave (km/s) = 3.85405 1.38926 2.89687
# Velocity P-wave (km/s) = 6.15656 4.91516 5.57055
#
# Compressibility (1/GPa) = 0.02109632
#
# Stress axis : x y z
#
# Youngs Moduli (GPa) = 48.27343 108.39539 96.51788
#
# Poissons Ratio (x) = 0.21160 0.47196
# Poissons Ratio (y) = 0.09423 0.26646
# Poissons Ratio (z) = 0.23605 0.29925
#
# Static dielectric constant tensor:
#      x y z
#    x 2.528850 0.000000 -0.382990 
#    y 0.000000 2.063490 0.000000 
#    z -0.382990 0.000000 2.349300 
# 
# From -- ./inp_files/196402.got.cif
#   From: 2010.05.17/outbox.cif.g08.bks.cpg/sg15_99_cif.got.tgz:196402.got - 2010.06.03 18:47:42.
