data_PCOD9304634
_publ_section_title
;
Structure prediction by ZEFSAII (Michael W. Deem and Ramdas Pophale) SiO2 
 PCOD9304634
Probable space group: C 2/C
;
_chemical_formula_sum "Si O2"
_cell_formula_units_Z 40
_cell_length_a 13.748696
_cell_length_b 12.003536
_cell_length_c 14.489341
_cell_angle_alpha 90.000000
_cell_angle_beta 54.650483
_cell_angle_gamma 90.000000
_cell_volume 1950.368749
_symmetry_space_group_name_H-M "C 2/C"
_symmetry_group_IT_number 15
_symmetry_cell_setting 'monoclinic'
loop_
_space_group_symop_operation_xyz
x,y,z
-x,y,1/2-z
-x,-y,-z
x,-y,1/2+z
1/2+x,1/2+y,z
1/2-x,1/2+y,1/2-z
1/2-x,1/2-y,-z
1/2+x,1/2-y,1/2+z
loop_
_atom_site_type_symbol
_atom_site_label
_atom_site_fract_x
_atom_site_fract_y
_atom_site_fract_z
Si Si1 0.786437 0.876486 0.992829
Si Si2 0.747365 0.519855 0.668478
Si Si3 0.872897 0.495630 0.777058
Si Si4 0.451140 0.406217 0.595646
Si Si5 0.251210 0.268492 0.608714
O O1 0.742668 0.956329 0.933942
O O2 0.929334 0.871157 0.918464
O O3 0.750000 0.750000 0.000000
O O4 0.727413 0.928777 0.117345
O O5 0.860925 0.511348 0.674005
O O6 0.720395 0.649635 0.669033
O O7 0.642017 0.459087 0.781985
O O8 0.839789 0.367523 0.816984
O O9 0.000000 0.524127 0.750000
O O10 0.500000 0.500000 0.500000
O O11 0.378293 0.312942 0.578354
O O12 0.250000 0.250000 0.500000
#
# Coordination Sequence:
#
# PCOD9304634 Si02
#       5
#     8   8   8   8   8
#     4  12  27  45  68 104 138 185 232 280 351 417
#     4  11  25  46  72  99 139 184 226 287 352 407
#     4  11  27  45  65 101 139 178 233 285 345 410
#     4  11  23  45  72 101 140 180 232 281 345 420
#     4  11  23  45  71 103 134 180 237 282 342 410
#
# _framework density 20.508941
#
# number of rings (size 3 to 8) (size 9 to 14) (size 15 to 20)
#    0.000    0.800    6.000    0.600    8.400    5.600 
#    0.000    0.000    0.000    0.000    0.000    0.000 
#    0.000    0.000    0.000    0.000    0.000    0.000 
#
# Total GULP energy -111784.811914 kJ/mol
# GULP energy per Si atom -5589.240596 kJ/mol
# Density = 2.046226 g / cm^3
# Si number density = 20.508941 Si / 1000 Ang^3
#
#
#
# Elastic Constant Matrix: (Units=GPa)
#
#
# Indices 1 2 3 4 5 6 
#
# 1 152.7491 25.6807 26.9500 0.0000 -3.2910 0.0000
# 2 25.6807 135.0535 10.1844 0.0000 7.3937 0.0000
# 3 26.9500 10.1844 31.4104 0.0000 13.0770 0.0000
# 4 0.0000 0.0000 0.0000 23.8496 0.0000 8.8160
# 5 -3.2910 7.3937 13.0770 0.0000 35.5822 0.0000
# 6 0.0000 0.0000 0.0000 8.8160 0.0000 34.8096
#
#
#
# Elastic Compliance Matrix: (Units=1/GPa)
#
#
# Indices 1 2 3 4 5 6 
#
# 1 0.008330 -0.001170 -0.008489 0.000000 0.004133 0.000000
# 2 -0.001170 0.007773 -0.000943 0.000000 -0.001377 0.000000
# 3 -0.008489 -0.000943 0.046837 0.000000 -0.017802 0.000000
# 4 0.000000 0.000000 0.000000 0.046260 0.000000 -0.011716
# 5 0.004133 -0.001377 -0.017802 0.000000 0.035315 0.000000
# 6 0.000000 0.000000 0.000000 -0.011716 0.000000 0.031695
#
#
# Mechanical properties :
#
#
# Convention : Reuss Voigt Hill
#
# Bulk Modulus (GPa) = 23.95965 49.42703 36.69334
# Shear Modulus (GPa) = 23.65997 35.94148 29.80072
#
# Velocity S-wave (km/s) = 3.40021 4.19080 3.81604
# Velocity P-wave (km/s) = 5.20799 6.89708 6.11117
#
# Compressibility (1/GPa) = 0.04173684
#
# Stress axis : x y z
#
# Youngs Moduli (GPa) = 120.04597 128.64235 21.35052
#
# Poissons Ratio (x) = 0.15053 0.18124
# Poissons Ratio (y) = 0.14047 0.02014
# Poissons Ratio (z) = 1.01903 0.12134
#
# Static dielectric constant tensor:
#      x y z
#    x 1.891930 0.000000 0.060680 
#    y 0.000000 1.752470 0.000000 
#    z 0.060680 0.000000 1.734890 
# 
# From -- ./inp_files/151660.got.cif
#   From: 2010.05.17/outbox.cif.g08.bks.cpg/sg15_76_cif.got.tgz:151660.got - 2010.06.03 18:47:42.
