data_PCOD9304476
_publ_section_title
;
Structure prediction by ZEFSAII (Michael W. Deem and Ramdas Pophale) SiO2 
 PCOD9304476
Probable space group: C 2/C
;
_chemical_formula_sum "Si O2"
_cell_formula_units_Z 32
_cell_length_a 24.230372
_cell_length_b 7.198064
_cell_length_c 13.701284
_cell_angle_alpha 90.000000
_cell_angle_beta 28.402183
_cell_angle_gamma 90.000000
_cell_volume 1136.662696
_symmetry_space_group_name_H-M "C 2/C"
_symmetry_group_IT_number 15
_symmetry_cell_setting 'monoclinic'
loop_
_space_group_symop_operation_xyz
x,y,z
-x,y,1/2-z
-x,-y,-z
x,-y,1/2+z
1/2+x,1/2+y,z
1/2-x,1/2+y,1/2-z
1/2-x,1/2-y,-z
1/2+x,1/2-y,1/2+z
loop_
_atom_site_type_symbol
_atom_site_label
_atom_site_fract_x
_atom_site_fract_y
_atom_site_fract_z
Si Si1 0.580016 0.200525 0.215761
Si Si2 0.471539 0.633185 0.184329
Si Si3 0.370475 0.137878 0.672574
Si Si4 0.781203 0.768726 0.274904
O O1 0.500000 0.148303 0.250000
O O2 0.573771 0.423741 0.236029
O O3 0.500536 0.124242 0.425736
O O4 0.705746 0.143615 0.979880
O O5 0.500000 0.702548 0.250000
O O6 0.385964 0.756159 0.250945
O O7 0.596961 0.633924 0.936365
O O8 0.294209 0.242135 0.707148
O O9 0.307780 0.939867 0.768221
#
# Coordination Sequence:
#
# PCOD9304476 Si02
#       4
#     8   8   8   8
#     4   9  21  41  64  96 133 170 219 269 327 396
#     4  11  24  44  69  99 136 176 222 273 328 400
#     4  11  23  44  70 100 134 174 224 272 333 400
#     4  11  24  43  67  97 135 176 218 277 337 385
#
# _framework density 28.152591999999999
#
# number of rings (size 3 to 8) (size 9 to 14) (size 15 to 20)
#    0.000    1.500    0.000    6.000    0.000    8.000 
#    0.000    7.500    0.000    4.500    0.000    0.000 
#    0.000    0.000    0.000    0.000    0.000    0.000 
#
# Total GULP energy -89718.468537 kJ/mol
# GULP energy per Si atom -5607.404284 kJ/mol
# Density = 2.808852 g / cm^3
# Si number density = 28.152592 Si / 1000 Ang^3
#
#
#
# Elastic Constant Matrix: (Units=GPa)
#
#
# Indices 1 2 3 4 5 6 
#
# 1 227.1100 10.9739 49.8583 0.0003 1.4503 -0.0001
# 2 10.9739 72.2383 41.8610 -0.0006 -11.7839 0.0002
# 3 49.8583 41.8610 225.7195 -0.0005 -10.8296 0.0001
# 4 0.0003 -0.0006 -0.0005 33.0069 0.0002 -2.7445
# 5 1.4503 -11.7839 -10.8296 0.0002 45.4966 0.0000
# 6 -0.0001 0.0002 0.0001 -2.7445 0.0000 49.0914
#
#
#
# Elastic Compliance Matrix: (Units=1/GPa)
#
#
# Indices 1 2 3 4 5 6 
#
# 1 0.004637 -0.000191 -0.001010 0.000000 -0.000438 0.000000
# 2 -0.000191 0.016046 -0.002766 0.000000 0.003504 0.000000
# 3 -0.001010 -0.002766 0.005193 0.000000 0.000552 0.000000
# 4 0.000000 0.000000 0.000000 0.030438 0.000000 0.001702
# 5 -0.000438 0.003504 0.000552 0.000000 0.023033 0.000000
# 6 0.000000 0.000000 0.000000 0.001702 0.000000 0.020465
#
#
# Mechanical properties :
#
#
# Convention : Reuss Voigt Hill
#
# Bulk Modulus (GPa) = 55.73010 81.16159 68.44584
# Shear Modulus (GPa) = 43.96562 53.67728 48.82145
#
# Velocity S-wave (km/s) = 3.95611 4.37126 4.16886
# Velocity P-wave (km/s) = 6.38016 7.37353 6.89476
#
# Compressibility (1/GPa) = 0.01794362
#
# Stress axis : x y z
#
# Youngs Moduli (GPa) = 215.66342 62.31985 192.57685
#
# Poissons Ratio (x) = 0.01188 0.19448
# Poissons Ratio (y) = 0.04110 0.53260
# Poissons Ratio (z) = 0.21779 0.17236
#
# Static dielectric constant tensor:
#      x y z
#    x 2.314820 0.000000 0.064160 
#    y 0.000000 2.210840 0.000000 
#    z 0.064160 0.000000 2.160130 
# 
# From -- ./inp_files/176408.got.cif
#   From: 2010.05.17/outbox.cif.g08.bks.cpg/sg15_89_cif.got.tgz:176408.got - 2010.06.03 18:47:42.
