data_PCOD9304699
_publ_section_title
;
Structure prediction by ZEFSAII (Michael W. Deem and Ramdas Pophale) SiO2 
 PCOD9304699
Probable space group: C 2/C
;
_chemical_formula_sum "Si O2"
_cell_formula_units_Z 56
_cell_length_a 9.062057
_cell_length_b 16.991261
_cell_length_c 26.412095
_cell_angle_alpha 90.000000
_cell_angle_beta 141.770108
_cell_angle_gamma 90.000000
_cell_volume 2516.624395
_symmetry_space_group_name_H-M "C 2/C"
_symmetry_group_IT_number 15
_symmetry_cell_setting 'monoclinic'
loop_
_space_group_symop_operation_xyz
x,y,z
-x,y,1/2-z
-x,-y,-z
x,-y,1/2+z
1/2+x,1/2+y,z
1/2-x,1/2+y,1/2-z
1/2-x,1/2-y,-z
1/2+x,1/2-y,1/2+z
loop_
_atom_site_type_symbol
_atom_site_label
_atom_site_fract_x
_atom_site_fract_y
_atom_site_fract_z
Si Si1 0.939332 0.174550 0.487071
Si Si2 0.164596 0.282499 0.245464
Si Si3 0.422380 0.065721 0.170861
Si Si4 0.198018 0.521297 0.593778
Si Si5 0.064450 0.410344 0.378878
Si Si6 0.933631 0.882206 0.787991
Si Si7 0.158506 0.823253 0.420293
O O1 0.770181 0.126214 0.403093
O O2 0.865873 0.158500 0.526339
O O3 0.886030 0.267960 0.469751
O O4 0.207677 0.145517 0.549664
O O5 0.091940 0.204004 0.194271
O O6 0.428672 0.274613 0.339378
O O7 0.000000 0.299968 0.250000
O O8 0.134155 0.356850 0.201144
O O9 0.500000 0.074256 0.250000
O O10 0.676294 0.079591 0.213505
O O11 0.344438 0.977885 0.135141
O O12 0.376960 0.447272 0.644903
O O13 0.334221 0.597051 0.609115
O O14 0.000000 0.500000 0.500000
O O15 0.055898 0.547091 0.605808
O O16 0.000000 0.856723 0.750000
#
# Coordination Sequence:
#
# PCOD9304699 Si02
#       7
#     8   8   8   8   8   8   8
#     4  11  26  47  73 110 143 192 242 313 366 449
#     4  11  23  45  76 107 140 198 243 303 367 452
#     4  12  26  44  70 105 146 190 241 301 368 432
#     4  12  29  46  74 105 149 196 246 310 376 445
#     4  12  26  46  73 106 146 188 250 304 369 440
#     4  11  25  47  71 101 147 192 241 293 373 447
#     4  11  25  47  76 107 148 190 253 303 379 439
#
# _framework density 22.252030000000001
#
# number of rings (size 3 to 8) (size 9 to 14) (size 15 to 20)
#    0.000    0.571    4.286    2.571    6.000    1.714 
#    0.000    0.000    0.000    0.000    0.000    0.000 
#    0.000    0.000    0.000    0.000    0.000    0.000 
#
# Total GULP energy -156440.143910 kJ/mol
# GULP energy per Si atom -5587.147997 kJ/mol
# Density = 2.220138 g / cm^3
# Si number density = 22.252030 Si / 1000 Ang^3
#
#
#
# Elastic Constant Matrix: (Units=GPa)
#
#
# Indices 1 2 3 4 5 6 
#
# 1 41.0597 14.0103 13.9203 0.0000 -9.5100 0.0000
# 2 14.0103 117.9613 29.1659 0.0000 -23.2798 0.0000
# 3 13.9203 29.1659 89.8107 0.0000 -9.5942 0.0001
# 4 0.0000 0.0000 0.0000 47.1250 0.0000 1.9374
# 5 -9.5100 -23.2798 -9.5942 0.0000 32.8091 0.0000
# 6 0.0000 0.0000 0.0001 1.9374 0.0000 25.8795
#
#
#
# Elastic Compliance Matrix: (Units=1/GPa)
#
#
# Indices 1 2 3 4 5 6 
#
# 1 0.027267 -0.001254 -0.003169 0.000000 0.006087 0.000000
# 2 -0.001254 0.010507 -0.002540 0.000000 0.006349 0.000000
# 3 -0.003169 -0.002540 0.012552 0.000000 0.000950 0.000000
# 4 0.000000 0.000000 0.000000 0.021286 0.000000 -0.001593
# 5 0.006087 0.006349 0.000950 0.000000 0.037027 0.000000
# 6 0.000000 0.000000 0.000000 -0.001593 0.000000 0.038760
#
#
# Mechanical properties :
#
#
# Convention : Reuss Voigt Hill
#
# Bulk Modulus (GPa) = 27.47121 40.33609 33.90365
# Shear Modulus (GPa) = 28.82568 33.94506 31.38537
#
# Velocity S-wave (km/s) = 3.60310 3.90998 3.75967
# Velocity P-wave (km/s) = 5.44812 6.20888 5.84090
#
# Compressibility (1/GPa) = 0.03640174
#
# Stress axis : x y z
#
# Youngs Moduli (GPa) = 36.67469 95.17252 79.66915
#
# Poissons Ratio (x) = 0.11931 0.25246
# Poissons Ratio (y) = 0.04598 0.20233
# Poissons Ratio (z) = 0.11622 0.24170
#
# Static dielectric constant tensor:
#      x y z
#    x 1.756840 0.000000 0.016810 
#    y 0.000000 1.967450 0.000000 
#    z 0.016810 0.000000 1.789960 
# 
# From -- ./inp_files/289766.got.cif
#   From: 2010.05.17/outbox.cif.g08.bks.cpg/sg15_145_cif.got.tgz:289766.got - 2010.06.03 18:47:42.
