data_PCOD9304671
_publ_section_title
;
Structure prediction by ZEFSAII (Michael W. Deem and Ramdas Pophale) SiO2 
 PCOD9304671
Probable space group: C 2/C
;
_chemical_formula_sum "Si O2"
_cell_formula_units_Z 44
_cell_length_a 10.261893
_cell_length_b 11.016871
_cell_length_c 23.355985
_cell_angle_alpha 90.000000
_cell_angle_beta 139.558673
_cell_angle_gamma 90.000000
_cell_volume 1712.801732
_symmetry_space_group_name_H-M "C 2/C"
_symmetry_group_IT_number 15
_symmetry_cell_setting 'monoclinic'
loop_
_space_group_symop_operation_xyz
x,y,z
-x,y,1/2-z
-x,-y,-z
x,-y,1/2+z
1/2+x,1/2+y,z
1/2-x,1/2+y,1/2-z
1/2-x,1/2-y,-z
1/2+x,1/2-y,1/2+z
loop_
_atom_site_type_symbol
_atom_site_label
_atom_site_fract_x
_atom_site_fract_y
_atom_site_fract_z
Si Si1 0.297652 0.900987 0.084677
Si Si2 0.173219 0.425418 0.708762
Si Si3 0.736648 0.127616 0.576039
Si Si4 0.000000 0.743714 0.250000
Si Si5 0.709204 0.845885 0.595538
Si Si6 0.469026 0.472597 0.398274
O O1 0.334266 0.757851 0.105252
O O2 0.207319 0.942034 0.115964
O O3 0.496478 0.977133 0.135953
O O4 0.118855 0.935063 0.981039
O O5 0.242339 0.358246 0.674404
O O6 0.358704 0.485664 0.803609
O O7 0.079315 0.336181 0.724340
O O8 0.825491 0.176388 0.664510
O O9 0.523571 0.186651 0.493477
O O10 0.892306 0.139576 0.575704
O O11 0.721834 0.982143 0.576262
#
# Coordination Sequence:
#
# PCOD9304671 Si02
#       6
#     8   8   8   4   8   8
#     4  11  24  46  75 110 142 194 248 312 373 445
#     4  12  24  47  72 109 142 195 247 311 373 447
#     4  11  25  47  68 105 143 200 236 304 385 446
#     4  12  24  44  70  98 144 190 246 290 378 444
#     4  11  26  46  72 103 152 186 251 308 377 454
#     4  11  23  45  73 106 143 186 249 298 373 445
#
# _framework density 25.688903
#
# number of rings (size 3 to 8) (size 9 to 14) (size 15 to 20)
#    0.000    0.727    3.636    3.273    2.545    2.182 
#   16.364    0.000    0.000    0.000    0.000    0.000 
#    0.000    0.000    0.000    0.000    0.000    0.000 
#
# Total GULP energy -123374.566920 kJ/mol
# GULP energy per Si atom -5607.934860 kJ/mol
# Density = 2.563043 g / cm^3
# Si number density = 25.688903 Si / 1000 Ang^3
#
#
#
# Elastic Constant Matrix: (Units=GPa)
#
#
# Indices 1 2 3 4 5 6 
#
# 1 76.1046 11.7481 9.2794 0.0000 -5.4113 0.0000
# 2 11.7481 105.4697 22.0826 0.0000 1.4251 0.0000
# 3 9.2794 22.0826 135.2200 0.0000 5.4188 0.0000
# 4 0.0000 0.0000 0.0000 31.5396 0.0000 -14.3384
# 5 -5.4113 1.4251 5.4188 0.0000 46.8629 0.0000
# 6 0.0000 0.0000 0.0000 -14.3384 0.0000 28.6061
#
#
#
# Elastic Compliance Matrix: (Units=1/GPa)
#
#
# Indices 1 2 3 4 5 6 
#
# 1 0.013567 -0.001372 -0.000775 0.000000 0.001698 0.000000
# 2 -0.001372 0.009956 -0.001520 0.000000 -0.000285 0.000000
# 3 -0.000775 -0.001520 0.007734 0.000000 -0.000938 0.000000
# 4 0.000000 0.000000 0.000000 0.041063 0.000000 0.020582
# 5 0.001698 -0.000285 -0.000938 0.000000 0.021652 0.000000
# 6 0.000000 0.000000 0.000000 0.020582 0.000000 0.045274
#
#
# Mechanical properties :
#
#
# Convention : Reuss Voigt Hill
#
# Bulk Modulus (GPa) = 41.80065 44.77940 43.29003
# Shear Modulus (GPa) = 32.35077 39.64733 35.99905
#
# Velocity S-wave (km/s) = 3.55255 3.93283 3.74752
# Velocity P-wave (km/s) = 5.75627 6.17188 5.96770
#
# Compressibility (1/GPa) = 0.02392307
#
# Stress axis : x y z
#
# Youngs Moduli (GPa) = 73.70928 100.43803 129.29233
#
# Poissons Ratio (x) = 0.13779 0.10020
# Poissons Ratio (y) = 0.10112 0.19657
# Poissons Ratio (z) = 0.05713 0.15270
#
# Static dielectric constant tensor:
#      x y z
#    x 2.092640 0.000000 0.029050 
#    y 0.000000 2.058910 0.000000 
#    z 0.029050 0.000000 2.001790 
# 
# From -- ./inp_files/269368.got.cif
#   From: 2010.05.17/outbox.cif.g08.bks.cpg/sg15_135_cif.got.tgz:269368.got - 2010.06.03 18:47:42.
