data_PCOD9304694
_publ_section_title
;
Structure prediction by ZEFSAII (Michael W. Deem and Ramdas Pophale) SiO2 
 PCOD9304694
Probable space group: C 2/C
;
_chemical_formula_sum "Si O2"
_cell_formula_units_Z 36
_cell_length_a 24.025401
_cell_length_b 8.779374
_cell_length_c 13.635053
_cell_angle_alpha 90.000000
_cell_angle_beta 141.964317
_cell_angle_gamma 90.000000
_cell_volume 1772.062239
_symmetry_space_group_name_H-M "C 2/C"
_symmetry_group_IT_number 15
_symmetry_cell_setting 'monoclinic'
loop_
_space_group_symop_operation_xyz
x,y,z
-x,y,1/2-z
-x,-y,-z
x,-y,1/2+z
1/2+x,1/2+y,z
1/2-x,1/2+y,1/2-z
1/2-x,1/2-y,-z
1/2+x,1/2-y,1/2+z
loop_
_atom_site_type_symbol
_atom_site_label
_atom_site_fract_x
_atom_site_fract_y
_atom_site_fract_z
Si Si1 0.920483 0.041010 0.312597
Si Si2 0.070731 0.587083 0.459938
Si Si3 0.734900 0.912438 0.035289
Si Si4 0.000000 0.130287 0.750000
Si Si5 0.395299 0.900884 0.267514
O O1 0.908416 0.220700 0.283577
O O2 0.827410 0.962030 0.214722
O O3 0.935490 0.974912 0.224033
O O4 0.000000 0.000000 0.500000
O O5 0.156041 0.576152 0.506776
O O6 0.101306 0.559828 0.613078
O O7 0.038117 0.756846 0.386347
O O8 0.980058 0.482755 0.330039
O O9 0.750000 0.750000 0.000000
O O10 0.697656 0.034883 0.905103
#
# Coordination Sequence:
#
# PCOD9304694 Si02
#       5
#     8   8   8   4   8
#     4  12  27  45  70 107 144 183 240 296 359 429
#     4  11  23  45  75  99 144 189 235 291 360 428
#     4  12  25  46  72 104 145 188 237 295 358 426
#     4  12  22  46  70  98 144 188 226 300 364 418
#     4  11  25  45  71 109 139 190 241 291 361 433
#
# _framework density 20.315314000000001
#
# number of rings (size 3 to 8) (size 9 to 14) (size 15 to 20)
#    0.000    0.444    6.667    0.667    6.222    3.556 
#    0.000    0.000    0.000    0.000    0.000    0.000 
#    0.000    0.000    0.000    0.000    0.000    0.000 
#
# Total GULP energy -100347.947550 kJ/mol
# GULP energy per Si atom -5574.885975 kJ/mol
# Density = 2.026908 g / cm^3
# Si number density = 20.315314 Si / 1000 Ang^3
#
#
#
# Elastic Constant Matrix: (Units=GPa)
#
#
# Indices 1 2 3 4 5 6 
#
# 1 117.6214 24.3370 32.9389 0.0000 7.6851 0.0000
# 2 24.3370 121.8831 57.1395 0.0000 12.7424 0.0000
# 3 32.9389 57.1395 144.3125 0.0000 14.6342 0.0000
# 4 0.0000 0.0000 0.0000 14.9007 0.0000 -0.1015
# 5 7.6851 12.7424 14.6342 0.0000 32.1193 0.0000
# 6 0.0000 0.0000 0.0000 -0.1015 0.0000 37.3770
#
#
#
# Elastic Compliance Matrix: (Units=1/GPa)
#
#
# Indices 1 2 3 4 5 6 
#
# 1 0.009225 -0.000974 -0.001610 0.000000 -0.001088 0.000000
# 2 -0.000974 0.010340 -0.003648 0.000000 -0.002207 0.000000
# 3 -0.001610 -0.003648 0.008970 0.000000 -0.002254 0.000000
# 4 0.000000 0.000000 0.000000 0.067112 0.000000 0.000182
# 5 -0.001088 -0.002207 -0.002254 0.000000 0.033297 0.000000
# 6 0.000000 0.000000 0.000000 0.000182 0.000000 0.026755
#
#
# Mechanical properties :
#
#
# Convention : Reuss Voigt Hill
#
# Bulk Modulus (GPa) = 62.21984 68.07199 65.14591
# Shear Modulus (GPa) = 28.81527 34.83951 31.82739
#
# Velocity S-wave (km/s) = 3.77025 4.14567 3.96241
# Velocity P-wave (km/s) = 7.04604 7.51638 7.28500
#
# Compressibility (1/GPa) = 0.01607205
#
# Stress axis : x y z
#
# Youngs Moduli (GPa) = 108.39886 96.71255 111.48461
#
# Poissons Ratio (x) = 0.09416 0.17947
# Poissons Ratio (y) = 0.10554 0.40669
# Poissons Ratio (z) = 0.17450 0.35281
#
# Static dielectric constant tensor:
#      x y z
#    x 1.783430 0.000000 0.017530 
#    y 0.000000 1.739330 0.000000 
#    z 0.017530 0.000000 1.738010 
# 
# From -- ./inp_files/159067.got.cif
#   From: 2010.05.17/outbox.cif.g08.bks.cpg/sg15_80_cif.got.tgz:159067.got - 2010.06.03 18:47:42.
