data_PCOD9304717
_publ_section_title
;
Structure prediction by ZEFSAII (Michael W. Deem and Ramdas Pophale) SiO2 
 PCOD9304717
Probable space group: C 2/C
;
_chemical_formula_sum "Si O2"
_cell_formula_units_Z 40
_cell_length_a 11.310635
_cell_length_b 8.569174
_cell_length_c 18.001191
_cell_angle_alpha 90.000000
_cell_angle_beta 72.326034
_cell_angle_gamma 90.000000
_cell_volume 1662.373943
_symmetry_space_group_name_H-M "C 2/C"
_symmetry_group_IT_number 15
_symmetry_cell_setting 'monoclinic'
loop_
_space_group_symop_operation_xyz
x,y,z
-x,y,1/2-z
-x,-y,-z
x,-y,1/2+z
1/2+x,1/2+y,z
1/2-x,1/2+y,1/2-z
1/2-x,1/2-y,-z
1/2+x,1/2-y,1/2+z
loop_
_atom_site_type_symbol
_atom_site_label
_atom_site_fract_x
_atom_site_fract_y
_atom_site_fract_z
Si Si1 0.115702 0.430533 0.140283
Si Si2 0.828246 0.108452 0.015635
Si Si3 0.870366 0.126517 0.738913
Si Si4 0.146646 0.458381 0.805909
Si Si5 0.992575 0.888616 0.887159
O O1 0.234417 0.485853 0.071941
O O2 0.135582 0.484784 0.221558
O O3 0.082300 0.249245 0.137438
O O4 0.989105 0.513124 0.135275
O O5 0.926578 0.167104 0.058187
O O6 0.750000 0.250000 0.000000
O O7 0.903395 0.020269 0.937457
O O8 0.758882 0.067299 0.812494
O O9 0.087299 0.973854 0.813873
O O10 0.000000 0.181648 0.750000
O O11 0.826368 0.274560 0.699583
#
# Coordination Sequence:
#
# PCOD9304717 Si02
#       5
#     8   8   8   8   8
#     4  11  23  46  66 101 139 175 224 284 337 408
#     4  11  25  47  68  98 139 180 231 282 335 411
#     4  12  25  44  69 102 136 182 224 287 344 404
#     4  11  25  42  69 102 142 174 229 280 344 412
#     4  11  26  43  72  99 136 182 229 277 346 408
#
# _framework density 24.061973999999999
#
# number of rings (size 3 to 8) (size 9 to 14) (size 15 to 20)
#    0.000    0.800    4.000    3.000    5.600    0.800 
#    0.000    0.000    0.000    0.000    0.000    0.000 
#    0.000    0.000    0.000    0.000    0.000    0.000 
#
# Total GULP energy -111995.073975 kJ/mol
# GULP energy per Si atom -5599.753699 kJ/mol
# Density = 2.400721 g / cm^3
# Si number density = 24.061974 Si / 1000 Ang^3
#
#
#
# Elastic Constant Matrix: (Units=GPa)
#
#
# Indices 1 2 3 4 5 6 
#
# 1 131.3932 20.9702 13.4200 0.0000 -1.0758 0.0000
# 2 20.9702 103.8333 -1.9502 0.0000 29.2135 0.0000
# 3 13.4200 -1.9502 33.5663 0.0000 8.8632 0.0000
# 4 0.0000 0.0000 0.0000 21.4118 0.0000 -9.7515
# 5 -1.0758 29.2135 8.8632 0.0000 31.8512 0.0000
# 6 0.0000 0.0000 0.0000 -9.7515 0.0000 52.9158
#
#
#
# Elastic Compliance Matrix: (Units=1/GPa)
#
#
# Indices 1 2 3 4 5 6 
#
# 1 0.008631 -0.003089 -0.004809 0.000000 0.004463 0.000000
# 2 -0.003089 0.014661 0.006114 0.000000 -0.015252 0.000000
# 3 -0.004809 0.006114 0.036257 0.000000 -0.015860 0.000000
# 4 0.000000 0.000000 0.000000 0.050982 0.000000 0.009395
# 5 0.004463 -0.015252 -0.015860 0.000000 0.049949 0.000000
# 6 0.000000 0.000000 0.000000 0.009395 0.000000 0.020629
#
#
# Mechanical properties :
#
#
# Convention : Reuss Voigt Hill
#
# Bulk Modulus (GPa) = 17.86284 37.07475 27.46879
# Shear Modulus (GPa) = 24.58951 36.99260 30.79106
#
# Velocity S-wave (km/s) = 3.20022 3.92521 3.58111
# Velocity P-wave (km/s) = 4.59293 5.99871 5.34226
#
# Compressibility (1/GPa) = 0.05598214
#
# Stress axis : x y z
#
# Youngs Moduli (GPa) = 115.85510 68.20895 27.58057
#
# Poissons Ratio (x) = 0.21071 0.13263
# Poissons Ratio (y) = 0.35790 -0.16864
# Poissons Ratio (z) = 0.55713 -0.41705
#
# Static dielectric constant tensor:
#      x y z
#    x 1.997720 0.000000 0.047610 
#    y 0.000000 1.881960 0.000000 
#    z 0.047610 0.000000 1.884720 
# 
# From -- ./inp_files/195114.got.cif
#   From: 2010.05.17/outbox.cif.g08.bks.cpg/sg15_98_cif.got.tgz:195114.got - 2010.06.03 18:47:42.
