data_PCOD9304479
_publ_section_title
;
Structure prediction by ZEFSAII (Michael W. Deem and Ramdas Pophale) SiO2 
 PCOD9304479
Probable space group: C 2/C
;
_chemical_formula_sum "Si O2"
_cell_formula_units_Z 40
_cell_length_a 16.187020
_cell_length_b 10.229884
_cell_length_c 17.607193
_cell_angle_alpha 90.000000
_cell_angle_beta 145.137699
_cell_angle_gamma 90.000000
_cell_volume 1666.573999
_symmetry_space_group_name_H-M "C 2/C"
_symmetry_group_IT_number 15
_symmetry_cell_setting 'monoclinic'
loop_
_space_group_symop_operation_xyz
x,y,z
-x,y,1/2-z
-x,-y,-z
x,-y,1/2+z
1/2+x,1/2+y,z
1/2-x,1/2+y,1/2-z
1/2-x,1/2-y,-z
1/2+x,1/2-y,1/2+z
loop_
_atom_site_type_symbol
_atom_site_label
_atom_site_fract_x
_atom_site_fract_y
_atom_site_fract_z
Si Si1 0.755590 0.792730 0.130047
Si Si2 0.128551 0.000702 0.037139
Si Si3 0.087104 0.205455 0.393011
Si Si4 0.020833 0.631946 0.349610
Si Si5 0.880358 0.600100 0.820522
O O1 0.690648 0.645990 0.081803
O O2 0.691540 0.869904 0.153332
O O3 0.925621 0.764207 0.269421
O O4 0.685325 0.853013 0.000941
O O5 0.251035 0.902432 0.161805
O O6 0.082875 0.940148 0.923202
O O7 0.000000 0.000000 0.000000
O O8 0.250000 0.250000 0.500000
O O9 0.000000 0.214578 0.250000
O O10 0.003691 0.297282 0.390768
O O11 0.000000 0.568683 0.250000
O O12 0.948726 0.543048 0.360202
#
# Coordination Sequence:
#
# PCOD9304479 Si02
#       5
#     8   8   8   8   8
#     4  11  24  44  70  99 139 183 237 288 356 433
#     4  11  23  44  70 102 144 185 236 299 357 434
#     4  12  25  45  73 106 146 188 243 302 362 423
#     4  11  25  45  70 102 143 182 231 299 357 425
#     4  11  24  45  73 101 140 192 246 291 358 438
#
# _framework density 24.001335000000001
#
# number of rings (size 3 to 8) (size 9 to 14) (size 15 to 20)
#    0.000    0.800    4.000    3.000    2.800    0.800 
#    7.200    0.000    0.000    0.000    0.000    0.000 
#    0.000    0.000    0.000    0.000    0.000    0.000 
#
# Total GULP energy -111894.712986 kJ/mol
# GULP energy per Si atom -5594.735649 kJ/mol
# Density = 2.394671 g / cm^3
# Si number density = 24.001335 Si / 1000 Ang^3
#
#
#
# Elastic Constant Matrix: (Units=GPa)
#
#
# Indices 1 2 3 4 5 6 
#
# 1 112.8865 19.6372 14.0891 0.0000 -0.6681 0.0000
# 2 19.6372 60.5869 14.2394 0.0000 -6.3218 0.0000
# 3 14.0891 14.2394 108.2730 0.0000 -6.5985 0.0000
# 4 0.0000 0.0000 0.0000 30.6709 0.0000 -0.0023
# 5 -0.6681 -6.3218 -6.5985 0.0000 39.2306 0.0000
# 6 0.0000 0.0000 0.0000 -0.0023 0.0000 46.4740
#
#
#
# Elastic Compliance Matrix: (Units=1/GPa)
#
#
# Indices 1 2 3 4 5 6 
#
# 1 0.009472 -0.002911 -0.000877 0.000000 -0.000455 0.000000
# 2 -0.002911 0.018152 -0.001852 0.000000 0.002564 0.000000
# 3 -0.000877 -0.001852 0.009674 0.000000 0.001314 0.000000
# 4 0.000000 0.000000 0.000000 0.032604 0.000000 0.000002
# 5 -0.000455 0.002564 0.001314 0.000000 0.026117 0.000000
# 6 0.000000 0.000000 0.000000 0.000002 0.000000 0.021517
#
#
# Mechanical properties :
#
#
# Convention : Reuss Voigt Hill
#
# Bulk Modulus (GPa) = 38.43856 41.96420 40.20138
# Shear Modulus (GPa) = 36.36665 38.86049 37.61357
#
# Velocity S-wave (km/s) = 3.89677 4.02817 3.96301
# Velocity P-wave (km/s) = 6.02465 6.25755 6.14220
#
# Compressibility (1/GPa) = 0.02601554
#
# Stress axis : x y z
#
# Youngs Moduli (GPa) = 105.57783 55.09156 103.37280
#
# Poissons Ratio (x) = 0.16038 0.09070
# Poissons Ratio (y) = 0.30736 0.19146
# Poissons Ratio (z) = 0.09263 0.10204
#
# Static dielectric constant tensor:
#      x y z
#    x 1.906320 0.000000 0.001080 
#    y 0.000000 1.909850 0.000000 
#    z 0.001080 0.000000 1.967580 
# 
# From -- ./inp_files/117760.got.cif
#   From: 2010.05.17/outbox.cif.g08.bks.cpg/sg15_59_cif.got.tgz:117760.got - 2010.06.03 18:47:42.
