data_PCOD9304283
_publ_section_title
;
Structure prediction by ZEFSAII (Michael W. Deem and Ramdas Pophale) SiO2 
 PCOD9304283
Probable space group: C 2/C
;
_chemical_formula_sum "Si O2"
_cell_formula_units_Z 44
_cell_length_a 7.024372
_cell_length_b 24.218443
_cell_length_c 14.886889
_cell_angle_alpha 90.000000
_cell_angle_beta 120.520869
_cell_angle_gamma 90.000000
_cell_volume 2181.648824
_symmetry_space_group_name_H-M "C 2/C"
_symmetry_group_IT_number 15
_symmetry_cell_setting 'monoclinic'
loop_
_space_group_symop_operation_xyz
x,y,z
-x,y,1/2-z
-x,-y,-z
x,-y,1/2+z
1/2+x,1/2+y,z
1/2-x,1/2+y,1/2-z
1/2-x,1/2-y,-z
1/2+x,1/2-y,1/2+z
loop_
_atom_site_type_symbol
_atom_site_label
_atom_site_fract_x
_atom_site_fract_y
_atom_site_fract_z
Si Si1 0.521391 0.330086 0.960936
Si Si2 0.680475 0.454678 0.015457
Si Si3 0.824351 0.251154 0.144511
Si Si4 0.480161 0.831715 0.638656
Si Si5 0.500000 0.015512 0.750000
Si Si6 0.254494 0.940023 0.835276
O O1 0.574050 0.394531 0.974124
O O2 0.716224 0.297287 0.056914
O O3 0.533739 0.297745 0.869269
O O4 0.277948 0.324007 0.943982
O O5 0.855115 0.452834 0.139710
O O6 0.500000 0.500000 0.000000
O O7 0.766266 0.468955 0.935683
O O8 0.620402 0.220788 0.142449
O O9 0.000000 0.279818 0.250000
O O10 0.500000 0.839628 0.750000
O O11 0.591954 0.885796 0.622690
O O12 0.343671 0.977248 0.774793
O O13 0.000000 0.926165 0.750000
#
# Coordination Sequence:
#
# PCOD9304283 Si02
#       6
#     8   8   8   8   4   8
#     4  11  25  42  66  99 134 177 225 282 350 414
#     4  12  25  46  70  99 139 184 233 286 349 420
#     4  11  23  43  68  97 135 175 225 285 345 412
#     4  12  21  39  70  99 129 174 234 285 339 415
#     4  12  26  42  68  98 140 184 224 290 356 410
#     4  12  23  43  69 102 135 179 240 291 342 415
#
# _framework density 20.168233000000001
#
# number of rings (size 3 to 8) (size 9 to 14) (size 15 to 20)
#    0.000    0.364    6.364    3.818    1.273    0.000 
#    0.000    0.000    4.000    0.000    0.000    0.000 
#    0.000    0.000    0.000    0.000    0.000    0.000 
#
# Total GULP energy -122850.602444 kJ/mol
# GULP energy per Si atom -5584.118293 kJ/mol
# Density = 2.012233 g / cm^3
# Si number density = 20.168233 Si / 1000 Ang^3
#
#
#
# Elastic Constant Matrix: (Units=GPa)
#
#
# Indices 1 2 3 4 5 6 
#
# 1 95.7754 18.8187 8.6226 0.0000 -1.9176 0.0000
# 2 18.8187 66.6407 2.6464 0.0000 -1.2432 0.0000
# 3 8.6226 2.6464 92.4041 0.0000 -3.1213 0.0000
# 4 0.0000 0.0000 0.0000 15.3659 0.0000 10.3912
# 5 -1.9176 -1.2432 -3.1213 0.0000 45.2458 0.0000
# 6 0.0000 0.0000 0.0000 10.3912 0.0000 -2.5624
#
#
#
# Elastic Compliance Matrix: (Units=1/GPa)
#
#
# Indices 1 2 3 4 5 6 
#
# 1 0.011142 -0.003103 -0.000940 0.000000 0.000322 0.000000
# 2 -0.003103 0.015894 -0.000156 0.000000 0.000294 0.000000
# 3 -0.000940 -0.000156 0.010938 0.000000 0.000710 0.000000
# 4 0.000000 0.000000 0.000000 0.017390 0.000000 0.070521
# 5 0.000322 0.000294 0.000710 0.000000 0.022172 0.000000
# 6 0.000000 0.000000 0.000000 0.070521 0.000000 -0.104282
#
#
# Mechanical properties :
#
#
# Convention : Reuss Voigt Hill
#
# Bulk Modulus (GPa) = 33.81057 34.99951 34.40504
# Shear Modulus (GPa) = -588.93014 26.59202 -281.16906
#
# Velocity S-wave (km/s) = -17.10680 3.63507 -11.82009
# Velocity P-wave (km/s) = 19.32329 5.91690 13.00730
#
# Compressibility (1/GPa) = 0.02957655
#
# Stress axis : x y z
#
# Youngs Moduli (GPa) = 89.75155 62.91764 91.42274
#
# Poissons Ratio (x) = 0.19523 0.08593
# Poissons Ratio (y) = 0.27850 0.01423
# Poissons Ratio (z) = 0.08436 0.00980
#
# Static dielectric constant tensor:
#      x y z
#    x 1.737490 0.000000 -0.045050 
#    y 0.000000 1.689210 0.000000 
#    z -0.045050 0.000000 1.826650 
# 
# From -- ./inp_files/129385.got.cif
#   From: 2010.05.17/outbox.cif.g08.bks.cpg/sg15_65_cif.got.tgz:129385.got - 2010.06.03 18:47:42.
