data_PCOD9304762
_publ_section_title
;
Structure prediction by ZEFSAII (Michael W. Deem and Ramdas Pophale) SiO2 
 PCOD9304762
Probable space group: C 2/C
;
_chemical_formula_sum "Si O2"
_cell_formula_units_Z 32
_cell_length_a 14.270667
_cell_length_b 11.210899
_cell_length_c 9.659868
_cell_angle_alpha 90.000000
_cell_angle_beta 105.582529
_cell_angle_gamma 90.000000
_cell_volume 1488.649488
_symmetry_space_group_name_H-M "C 2/C"
_symmetry_group_IT_number 15
_symmetry_cell_setting 'monoclinic'
loop_
_space_group_symop_operation_xyz
x,y,z
-x,y,1/2-z
-x,-y,-z
x,-y,1/2+z
1/2+x,1/2+y,z
1/2-x,1/2+y,1/2-z
1/2-x,1/2-y,-z
1/2+x,1/2-y,1/2+z
loop_
_atom_site_type_symbol
_atom_site_label
_atom_site_fract_x
_atom_site_fract_y
_atom_site_fract_z
Si Si1 0.080200 0.242811 0.669474
Si Si2 0.066357 0.971076 0.655592
Si Si3 0.472816 0.882154 0.399630
Si Si4 0.285189 0.731581 0.357415
O O1 0.097799 0.103463 0.712645
O O2 0.033900 0.278052 0.503849
O O3 0.188653 0.290383 0.728897
O O4 0.000000 0.285814 0.750000
O O5 0.000000 0.917146 0.750000
O O6 0.150784 0.885497 0.641299
O O7 0.000000 0.000000 0.500000
O O8 0.500000 0.897342 0.250000
O O9 0.359766 0.840802 0.357596
O O10 0.500000 0.000000 0.500000
O O11 0.250000 0.750000 0.500000
#
# Coordination Sequence:
#
# PCOD9304762 Si02
#       4
#     8   8   8   8
#     4  11  24  47  73 107 146 190 243 299 362 433
#     4  11  23  46  72 103 143 182 239 299 351 427
#     4  12  28  49  72 106 151 190 243 305 362 439
#     4  12  25  45  76 107 146 193 237 296 371 424
#
# _framework density 21.495992999999999
#
# number of rings (size 3 to 8) (size 9 to 14) (size 15 to 20)
#    0.000    0.500    5.000    3.000    3.500    1.000 
#    0.000    0.000    0.000    0.000    0.000    0.000 
#    0.000    0.000    0.000    0.000    0.000    0.000 
#
# Total GULP energy -89373.542732 kJ/mol
# GULP energy per Si atom -5585.846421 kJ/mol
# Density = 2.144707 g / cm^3
# Si number density = 21.495993 Si / 1000 Ang^3
#
#
#
# Elastic Constant Matrix: (Units=GPa)
#
#
# Indices 1 2 3 4 5 6 
#
# 1 187.1293 60.2045 85.3994 0.0000 0.6900 0.0000
# 2 60.2045 97.6273 20.0313 0.0000 -8.4272 0.0000
# 3 85.3994 20.0313 143.1955 0.0000 -12.7708 0.0000
# 4 0.0000 0.0000 0.0000 33.2926 0.0000 3.6032
# 5 0.6900 -8.4272 -12.7708 0.0000 58.2503 0.0000
# 6 0.0000 0.0000 0.0000 3.6032 0.0000 44.2215
#
#
#
# Elastic Compliance Matrix: (Units=1/GPa)
#
#
# Indices 1 2 3 4 5 6 
#
# 1 0.009155 -0.004791 -0.004958 0.000000 -0.001889 0.000000
# 2 -0.004791 0.013140 0.001218 0.000000 0.002225 0.000000
# 3 -0.004958 0.001218 0.009986 0.000000 0.002424 0.000000
# 4 0.000000 0.000000 0.000000 0.030304 0.000000 -0.002469
# 5 -0.001889 0.002225 0.002424 0.000000 0.018043 0.000000
# 6 0.000000 0.000000 0.000000 -0.002469 0.000000 0.022815
#
#
# Mechanical properties :
#
#
# Convention : Reuss Voigt Hill
#
# Bulk Modulus (GPa) = 65.71229 84.35804 75.03517
# Shear Modulus (GPa) = 39.81553 44.64068 42.22811
#
# Velocity S-wave (km/s) = 4.30842 4.56202 4.43704
# Velocity P-wave (km/s) = 7.44217 8.19013 7.82509
#
# Compressibility (1/GPa) = 0.01521785
#
# Stress axis : x y z
#
# Youngs Moduli (GPa) = 109.22832 76.10354 100.13759
#
# Poissons Ratio (x) = 0.36465 0.49650
# Poissons Ratio (y) = 0.52336 -0.12195
# Poissons Ratio (z) = 0.54157 -0.09268
#
# Static dielectric constant tensor:
#      x y z
#    x 1.767070 0.000000 0.026030 
#    y 0.000000 1.965590 0.000000 
#    z 0.026030 0.000000 1.794260 
# 
# From -- ./inp_files/84163.got.cif
#   From: 2010.05.17/outbox.cif.g08.bks.cpg/sg15_43_cif.got.tgz:84163.got - 2010.06.03 18:47:42.
