data_PCOD9304611
_publ_section_title
;
Structure prediction by ZEFSAII (Michael W. Deem and Ramdas Pophale) SiO2 
 PCOD9304611
Probable space group: C 2/C
;
_chemical_formula_sum "Si O2"
_cell_formula_units_Z 44
_cell_length_a 10.224535
_cell_length_b 14.939008
_cell_length_c 22.702348
_cell_angle_alpha 90.000000
_cell_angle_beta 33.539338
_cell_angle_gamma 90.000000
_cell_volume 1915.912892
_symmetry_space_group_name_H-M "C 2/C"
_symmetry_group_IT_number 15
_symmetry_cell_setting 'monoclinic'
loop_
_space_group_symop_operation_xyz
x,y,z
-x,y,1/2-z
-x,-y,-z
x,-y,1/2+z
1/2+x,1/2+y,z
1/2-x,1/2+y,1/2-z
1/2-x,1/2-y,-z
1/2+x,1/2-y,1/2+z
loop_
_atom_site_type_symbol
_atom_site_label
_atom_site_fract_x
_atom_site_fract_y
_atom_site_fract_z
Si Si1 0.000000 0.067394 0.750000
Si Si2 0.635447 0.737550 0.146903
Si Si3 0.156528 0.921499 0.786907
Si Si4 0.186668 0.581633 0.085569
Si Si5 0.122736 0.892569 0.492118
Si Si6 0.917648 0.601570 0.512843
O O1 0.796053 0.120864 0.861326
O O2 0.878544 0.002497 0.746129
O O3 0.500000 0.791528 0.250000
O O4 0.427931 0.668396 0.212047
O O5 0.701908 0.809545 0.072619
O O6 0.866015 0.672344 0.066807
O O7 0.422501 0.905212 0.707009
O O8 0.983285 0.926699 0.907047
O O9 0.403345 0.634860 0.032780
O O10 0.245215 0.479476 0.080929
O O11 0.172469 0.597218 0.020653
O O12 0.000000 0.500000 0.500000
#
# Coordination Sequence:
#
# PCOD9304611 Si02
#       6
#     4   8   8   8   8   8
#     4  12  22  40  78 100 130 182 248 290 336 418
#     4  12  24  46  71 103 141 178 235 305 353 407
#     4  12  21  44  70  97 136 183 229 295 346 415
#     4  11  23  45  69  96 143 188 234 285 357 430
#     4  11  27  42  67 103 142 187 231 284 365 432
#     4  12  21  43  73 103 134 186 242 290 344 418
#
# _framework density 22.965554000000001
#
# number of rings (size 3 to 8) (size 9 to 14) (size 15 to 20)
#    0.000    0.364    8.182    1.091    0.000    3.636 
#    3.273    0.000    0.000    0.000    0.000    0.000 
#    0.000    0.000    0.000    0.000    0.000    0.000 
#
# Total GULP energy -122846.156570 kJ/mol
# GULP energy per Si atom -5583.916208 kJ/mol
# Density = 2.291328 g / cm^3
# Si number density = 22.965554 Si / 1000 Ang^3
#
#
#
# Elastic Constant Matrix: (Units=GPa)
#
#
# Indices 1 2 3 4 5 6 
#
# 1 52.8090 -9.2207 4.8582 0.0183 4.1902 0.0599
# 2 -9.2207 50.0279 35.2282 -0.0256 1.4445 -0.1039
# 3 4.8582 35.2282 157.9990 0.0970 -4.8595 0.3216
# 4 0.0183 -0.0256 0.0970 111.1437 -0.0300 320.8805
# 5 4.1902 1.4445 -4.8595 -0.0300 29.1281 -0.1012
# 6 0.0599 -0.1039 0.3216 320.8805 -0.1012 1110.4113
#
#
#
# Elastic Compliance Matrix: (Units=1/GPa)
#
#
# Indices 1 2 3 4 5 6 
#
# 1 0.020288 0.005166 -0.001883 -0.000002 -0.003489 0.000000
# 2 0.005166 0.025152 -0.005858 -0.000005 -0.002968 0.000005
# 3 -0.001883 -0.005858 0.007750 0.000000 0.001854 -0.000002
# 4 -0.000002 -0.000005 0.000000 0.054296 0.000002 -0.015690
# 5 -0.003489 -0.002968 0.001854 0.000002 0.035290 0.000002
# 6 0.000000 0.000005 -0.000002 -0.015690 0.000002 0.005435
#
#
# Mechanical properties :
#
#
# Convention : Reuss Voigt Hill
#
# Bulk Modulus (GPa) = 20.81592 35.84081 28.32837
# Shear Modulus (GPa) = 29.52039 265.46795 147.49417
#
# Velocity S-wave (km/s) = 3.58917 10.76313 8.02269
# Velocity P-wave (km/s) = 5.12443 13.04224 9.90858
#
# Compressibility (1/GPa) = 0.04804015
#
# Stress axis : x y z
#
# Youngs Moduli (GPa) = 49.28965 39.75859 129.02822
#
# Poissons Ratio (x) = -0.20539 0.24296
# Poissons Ratio (y) = -0.25463 0.75586
# Poissons Ratio (z) = 0.09281 0.23291
#
# Static dielectric constant tensor:
#      x y z
#    x 1.984990 0.000000 0.092240 
#    y 0.000000 1.868310 0.000000 
#    z 0.092240 0.000000 1.981100 
# 
# From -- ./inp_files/292795.got.cif
#   From: 2010.05.17/outbox.cif.g08.bks.cpg/sg15_147_cif.got.tgz:292795.got - 2010.06.03 18:47:42.
