data_PCOD9304502
_publ_section_title
;
Structure prediction by ZEFSAII (Michael W. Deem and Ramdas Pophale) SiO2 
 PCOD9304502
Probable space group: C 2/C
;
_chemical_formula_sum "Si O2"
_cell_formula_units_Z 40
_cell_length_a 14.342155
_cell_length_b 10.288008
_cell_length_c 25.630535
_cell_angle_alpha 90.000000
_cell_angle_beta 155.315576
_cell_angle_gamma 90.000000
_cell_volume 1579.373137
_symmetry_space_group_name_H-M "C 2/C"
_symmetry_group_IT_number 15
_symmetry_cell_setting 'monoclinic'
loop_
_space_group_symop_operation_xyz
x,y,z
-x,y,1/2-z
-x,-y,-z
x,-y,1/2+z
1/2+x,1/2+y,z
1/2-x,1/2+y,1/2-z
1/2-x,1/2-y,-z
1/2+x,1/2-y,1/2+z
loop_
_atom_site_type_symbol
_atom_site_label
_atom_site_fract_x
_atom_site_fract_y
_atom_site_fract_z
Si Si1 0.022702 0.856698 0.532769
Si Si2 0.401570 0.238900 0.627935
Si Si3 0.566455 0.529193 0.724041
Si Si4 0.631691 0.986202 0.713055
Si Si5 0.359294 0.211996 0.125628
O O1 0.126360 0.773994 0.537425
O O2 0.782396 0.801137 0.423501
O O3 0.180479 0.890534 0.664288
O O4 0.000000 0.000000 0.500000
O O5 0.250000 0.250000 0.500000
O O6 0.484316 0.383384 0.677598
O O7 0.586964 0.126922 0.715972
O O8 0.500000 0.558639 0.750000
O O9 0.801532 0.518939 0.812654
O O10 0.451125 0.660330 0.643393
O O11 0.404645 0.907943 0.610056
O O12 0.500000 0.174155 0.250000
#
# Coordination Sequence:
#
# PCOD9304502 Si02
#       5
#     8   8   8   8   8
#     4  11  23  44  71 101 132 182 235 278 343 421
#     4  12  26  45  70 102 138 182 233 288 342 413
#     4  11  25  42  67 101 139 182 219 289 354 396
#     4  11  23  46  70  95 142 182 228 283 340 417
#     4   9  21  42  66  94 135 177 219 278 338 403
#
# _framework density 25.326504
#
# number of rings (size 3 to 8) (size 9 to 14) (size 15 to 20)
#    0.000    1.200    4.000    1.200    8.400    0.800 
#    0.000    2.000    0.000    0.000    0.000    0.000 
#    0.000    0.000    0.000    0.000    0.000    0.000 
#
# Total GULP energy -111456.853712 kJ/mol
# GULP energy per Si atom -5572.842686 kJ/mol
# Density = 2.526886 g / cm^3
# Si number density = 25.326504 Si / 1000 Ang^3
#
#
#
# Elastic Constant Matrix: (Units=GPa)
#
#
# Indices 1 2 3 4 5 6 
#
# 1 187.2653 27.9678 26.9671 0.0002 48.2523 0.0004
# 2 27.9678 147.0249 -11.9295 0.0000 22.9105 0.0001
# 3 26.9671 -11.9295 22.4172 0.0030 1.9003 -0.0002
# 4 0.0002 0.0000 0.0030 14.7217 -0.0002 21.5585
# 5 48.2523 22.9105 1.9003 -0.0002 50.4721 0.0002
# 6 0.0004 0.0001 -0.0002 21.5585 0.0002 32.1610
#
#
#
# Elastic Compliance Matrix: (Units=1/GPa)
#
#
# Indices 1 2 3 4 5 6 
#
# 1 0.009125 -0.001444 -0.011097 0.000118 -0.007650 -0.000079
# 2 -0.001444 0.007962 0.006183 -0.000073 -0.002467 0.000049
# 3 -0.011097 0.006183 0.060781 -0.000687 0.005514 0.000461
# 4 0.000118 -0.000073 -0.000687 3.697815 -0.000029 -2.478756
# 5 -0.007650 -0.002467 0.005514 -0.000029 0.028039 0.000019
# 6 -0.000079 0.000049 0.000461 -2.478756 0.000019 1.692678
#
#
# Mechanical properties :
#
#
# Convention : Reuss Voigt Hill
#
# Bulk Modulus (GPa) = 15.34843 49.19091 32.26967
# Shear Modulus (GPa) = 0.90402 40.38444 20.64423
#
# Velocity S-wave (km/s) = 0.59810 3.99752 2.85813
# Velocity P-wave (km/s) = 2.55936 6.38527 4.86426
#
# Compressibility (1/GPa) = 0.06515325
#
# Stress axis : x y z
#
# Youngs Moduli (GPa) = 109.58977 125.59119 16.45250
#
# Poissons Ratio (x) = 0.18136 0.18257
# Poissons Ratio (y) = 0.15825 -0.10173
# Poissons Ratio (z) = 1.21611 -0.77659
#
# Static dielectric constant tensor:
#      x y z
#    x 2.195590 0.000010 -0.022080 
#    y 0.000010 2.064450 0.000000 
#    z -0.022080 0.000000 2.201970 
# 
# From -- ./inp_files/150555.got.cif
#   From: 2010.05.17/outbox.cif.g08.bks.cpg/sg15_76_cif.got.tgz:150555.got - 2010.06.03 18:47:42.
