data_PCOD9304553
_publ_section_title
;
Structure prediction by ZEFSAII (Michael W. Deem and Ramdas Pophale) SiO2 
 PCOD9304553
Probable space group: C 2/C
;
_chemical_formula_sum "Si O2"
_cell_formula_units_Z 52
_cell_length_a 9.463673
_cell_length_b 26.100005
_cell_length_c 12.601485
_cell_angle_alpha 90.000000
_cell_angle_beta 123.231193
_cell_angle_gamma 90.000000
_cell_volume 2603.576721
_symmetry_space_group_name_H-M "C 2/C"
_symmetry_group_IT_number 15
_symmetry_cell_setting 'monoclinic'
loop_
_space_group_symop_operation_xyz
x,y,z
-x,y,1/2-z
-x,-y,-z
x,-y,1/2+z
1/2+x,1/2+y,z
1/2-x,1/2+y,1/2-z
1/2-x,1/2-y,-z
1/2+x,1/2-y,1/2+z
loop_
_atom_site_type_symbol
_atom_site_label
_atom_site_fract_x
_atom_site_fract_y
_atom_site_fract_z
Si Si1 0.645019 0.935707 0.898400
Si Si2 0.000000 0.152533 0.250000
Si Si3 0.939933 0.635986 0.944965
Si Si4 0.132873 0.549472 0.901251
Si Si5 0.809373 0.726188 0.412177
Si Si6 0.992747 0.094190 0.025121
Si Si7 0.115518 0.825609 0.193709
O O1 0.500000 0.929694 0.750000
O O2 0.829750 0.933284 0.921985
O O3 0.624490 0.991811 0.942608
O O4 0.628240 0.890921 0.977292
O O5 0.837970 0.189135 0.189222
O O6 0.991324 0.118306 0.141541
O O7 0.787932 0.646603 0.801204
O O8 0.074532 0.595701 0.952684
O O9 0.029398 0.689957 0.003992
O O10 0.000000 0.550385 0.750000
O O11 0.324919 0.559956 0.945306
O O12 0.750000 0.750000 0.500000
O O13 0.843889 0.771703 0.344632
O O14 0.973756 0.139170 0.930776
O O15 0.000000 0.819540 0.250000
#
# Coordination Sequence:
#
# PCOD9304553 Si02
#       7
#     8   4   8   8   8   8   8
#     4  11  26  45  69 104 142 183 229 286 353 414
#     4  12  24  42  68  96 140 182 230 282 340 416
#     4  12  24  46  72  98 142 181 227 295 347 407
#     4  11  23  44  74 103 137 182 234 281 345 422
#     4  12  25  43  70 100 137 182 235 284 346 416
#     4  12  24  46  69 101 144 183 227 288 348 411
#     4  12  26  45  71 103 136 184 232 287 355 412
#
# _framework density 19.972524
#
# number of rings (size 3 to 8) (size 9 to 14) (size 15 to 20)
#    0.000    0.308    6.154    2.769    0.000    2.462 
#    0.000    0.000    0.000    0.000    0.000    0.000 
#    0.000    0.000    0.000    0.000    0.000    0.000 
#
# Total GULP energy -145442.268801 kJ/mol
# GULP energy per Si atom -5593.933415 kJ/mol
# Density = 1.992707 g / cm^3
# Si number density = 19.972524 Si / 1000 Ang^3
#
#
#
# Elastic Constant Matrix: (Units=GPa)
#
#
# Indices 1 2 3 4 5 6 
#
# 1 127.9777 50.8882 52.2488 0.0000 8.8969 0.0000
# 2 50.8882 124.1961 50.6697 0.0000 -10.0290 0.0000
# 3 52.2488 50.6697 106.9811 0.0000 3.1263 0.0000
# 4 0.0000 0.0000 0.0000 19.0867 0.0000 -32.0098
# 5 8.8969 -10.0290 3.1263 0.0000 42.5365 0.0000
# 6 0.0000 0.0000 0.0000 -32.0098 0.0000 -169.7394
#
#
#
# Elastic Compliance Matrix: (Units=1/GPa)
#
#
# Indices 1 2 3 4 5 6 
#
# 1 0.010750 -0.003116 -0.003695 0.000000 -0.002712 0.000000
# 2 -0.003116 0.011204 -0.003889 0.000000 0.003579 0.000000
# 3 -0.003695 -0.003889 0.013026 0.000000 -0.001102 0.000000
# 4 0.000000 0.000000 0.000000 0.039804 0.000000 -0.007506
# 5 -0.002712 0.003579 -0.001102 0.000000 0.025001 0.000000
# 6 0.000000 0.000000 0.000000 -0.007506 0.000000 -0.004476
#
#
# Mechanical properties :
#
#
# Convention : Reuss Voigt Hill
#
# Bulk Modulus (GPa) = 73.64034 74.08537 73.86285
# Shear Modulus (GPa) = 41.24110 -7.93335 16.65388
#
# Velocity S-wave (km/s) = 4.54904 -1.99518 2.89076
# Velocity P-wave (km/s) = 8.03384 5.64504 6.94295
#
# Compressibility (1/GPa) = 0.01357951
#
# Stress axis : x y z
#
# Youngs Moduli (GPa) = 93.02303 89.25003 76.76681
#
# Poissons Ratio (x) = 0.27812 0.28366
# Poissons Ratio (y) = 0.28988 0.29858
# Poissons Ratio (z) = 0.34373 0.34714
#
# Static dielectric constant tensor:
#      x y z
#    x 1.724580 0.000000 0.009970 
#    y 0.000000 1.682500 0.000000 
#    z 0.009970 0.000000 1.682180 
# 
# From -- ./inp_files/80821.got.cif
#   From: 2010.05.17/outbox.cif.g08.bks.cpg/sg15_41_cif.got.tgz:80821.got - 2010.06.03 18:47:42.
