data_PCOD9304359
_publ_section_title
;
Structure prediction by ZEFSAII (Michael W. Deem and Ramdas Pophale) SiO2 
 PCOD9304359
Probable space group: C 2/C
;
_chemical_formula_sum "Si O2"
_cell_formula_units_Z 40
_cell_length_a 20.299932
_cell_length_b 5.336141
_cell_length_c 18.131180
_cell_angle_alpha 90.000000
_cell_angle_beta 81.336033
_cell_angle_gamma 90.000000
_cell_volume 1941.617346
_symmetry_space_group_name_H-M "C 2/C"
_symmetry_group_IT_number 15
_symmetry_cell_setting 'monoclinic'
loop_
_space_group_symop_operation_xyz
x,y,z
-x,y,1/2-z
-x,-y,-z
x,-y,1/2+z
1/2+x,1/2+y,z
1/2-x,1/2+y,1/2-z
1/2-x,1/2-y,-z
1/2+x,1/2-y,1/2+z
loop_
_atom_site_type_symbol
_atom_site_label
_atom_site_fract_x
_atom_site_fract_y
_atom_site_fract_z
Si Si1 0.476571 0.702250 0.446141
Si Si2 0.078393 0.420049 0.755408
Si Si3 0.098330 0.511314 0.413422
Si Si4 0.255007 0.999945 0.049829
Si Si5 0.624178 0.419715 0.667526
O O1 0.500000 0.500000 0.500000
O O2 0.434450 0.890940 0.504940
O O3 0.427778 0.621199 0.390349
O O4 0.546610 0.792297 0.401601
O O5 0.091975 0.341405 0.838055
O O6 0.115544 0.676214 0.722201
O O7 0.000000 0.453720 0.750000
O O8 0.104142 0.181771 0.706501
O O9 0.174694 0.472464 0.420147
O O10 0.196319 0.039427 0.118840
O O11 0.250000 0.250000 0.000000
O O12 0.250000 0.750000 0.000000
#
# Coordination Sequence:
#
# PCOD9304359 Si02
#       5
#     8   8   8   8   8
#     4  11  23  43  72 104 132 188 248 290 345 425
#     4  12  26  46  70 107 146 186 231 298 363 420
#     4  11  26  43  72 104 142 188 241 296 358 428
#     4  12  26  47  72 105 142 188 240 299 355 421
#     4  12  26  45  72 102 147 185 237 293 356 429
#
# _framework density 20.601381
#
# number of rings (size 3 to 8) (size 9 to 14) (size 15 to 20)
#    0.000    0.400    4.000    4.200    5.600    1.600 
#    0.000    0.000    0.000    0.000    0.000    0.000 
#    0.000    0.000    0.000    0.000    0.000    0.000 
#
# Total GULP energy -111593.798611 kJ/mol
# GULP energy per Si atom -5579.689931 kJ/mol
# Density = 2.055449 g / cm^3
# Si number density = 20.601381 Si / 1000 Ang^3
#
#
#
# Elastic Constant Matrix: (Units=GPa)
#
#
# Indices 1 2 3 4 5 6 
#
# 1 197.2358 38.9722 54.0069 0.0000 -9.0697 0.0000
# 2 38.9722 103.2894 30.0686 0.0000 -26.8313 0.0000
# 3 54.0069 30.0686 95.3348 0.0000 -7.5945 0.0000
# 4 0.0000 0.0000 0.0000 51.2357 0.0000 -6.9994
# 5 -9.0697 -26.8313 -7.5945 0.0000 48.8513 0.0000
# 6 0.0000 0.0000 0.0000 -6.9994 0.0000 14.1700
#
#
#
# Elastic Compliance Matrix: (Units=1/GPa)
#
#
# Indices 1 2 3 4 5 6 
#
# 1 0.006192 -0.001485 -0.003051 0.000000 -0.000140 0.000000
# 2 -0.001485 0.012637 -0.002646 0.000000 0.006254 0.000000
# 3 -0.003051 -0.002646 0.013053 0.000000 0.000009 0.000000
# 4 0.000000 0.000000 0.000000 0.020930 0.000000 0.010339
# 5 -0.000140 0.006254 0.000009 0.000000 0.023880 0.000000
# 6 0.000000 0.000000 0.000000 0.010339 0.000000 0.075678
#
#
# Mechanical properties :
#
#
# Convention : Reuss Voigt Hill
#
# Bulk Modulus (GPa) = 57.08341 71.32837 64.20589
# Shear Modulus (GPa) = 28.97307 41.03887 35.00597
#
# Velocity S-wave (km/s) = 3.75422 4.46807 4.12661
# Velocity P-wave (km/s) = 6.82356 7.83049 7.34430
#
# Compressibility (1/GPa) = 0.01751822
#
# Stress axis : x y z
#
# Youngs Moduli (GPa) = 161.48879 79.13543 76.61049
#
# Poissons Ratio (x) = 0.11749 0.23373
# Poissons Ratio (y) = 0.23976 0.20274
# Poissons Ratio (z) = 0.49268 0.20942
#
# Static dielectric constant tensor:
#      x y z
#    x 1.798840 0.000000 -0.123230 
#    y 0.000000 1.683620 0.000000 
#    z -0.123230 0.000000 1.827140 
# 
# From -- ./inp_files/208013.got.cif
#   From: 2010.05.17/outbox.cif.g08.bks.cpg/sg15_105_cif.got.tgz:208013.got - 2010.06.03 18:47:42.
