data_PCOD9304195
_publ_section_title
;
Structure prediction by ZEFSAII (Michael W. Deem and Ramdas Pophale) SiO2 
 PCOD9304195
Probable space group: C 2/C
;
_chemical_formula_sum "Si O2"
_cell_formula_units_Z 40
_cell_length_a 15.418232
_cell_length_b 25.267072
_cell_length_c 4.905544
_cell_angle_alpha 90.000000
_cell_angle_beta 67.195156
_cell_angle_gamma 90.000000
_cell_volume 1761.682699
_symmetry_space_group_name_H-M "C 2/C"
_symmetry_group_IT_number 15
_symmetry_cell_setting 'monoclinic'
loop_
_space_group_symop_operation_xyz
x,y,z
-x,y,1/2-z
-x,-y,-z
x,-y,1/2+z
1/2+x,1/2+y,z
1/2-x,1/2+y,1/2-z
1/2-x,1/2-y,-z
1/2+x,1/2-y,1/2+z
loop_
_atom_site_type_symbol
_atom_site_label
_atom_site_fract_x
_atom_site_fract_y
_atom_site_fract_z
Si Si1 0.272576 0.036083 0.784165
Si Si2 0.646287 0.678792 0.559684
Si Si3 0.398278 0.610197 0.411466
Si Si4 0.564904 0.118554 0.912936
Si Si5 0.183122 0.717115 0.789109
O O1 0.358711 0.074235 0.610603
O O2 0.275241 0.985492 0.587099
O O3 0.177438 0.069935 0.876085
O O4 0.641711 0.638227 0.312544
O O5 0.749875 0.689152 0.566430
O O6 0.619114 0.737252 0.496615
O O7 0.586967 0.655725 0.880569
O O8 0.500000 0.584519 0.250000
O O9 0.500000 0.098216 0.750000
O O10 0.621109 0.170476 0.742730
O O11 0.500000 0.131581 0.250000
O O12 0.250000 0.750000 0.500000
#
# Coordination Sequence:
#
# PCOD9304195 Si02
#       5
#     8   8   8   8   8
#     4  12  27  49  78 100 138 186 241 308 372 417
#     4  11  23  42  73 100 148 190 227 279 346 427
#     4  12  26  46  73 108 144 183 236 293 362 437
#     4  12  29  46  72 107 146 188 244 296 352 421
#     4  11  24  45  73 102 148 192 239 280 346 422
#
# _framework density 22.705563000000001
#
# number of rings (size 3 to 8) (size 9 to 14) (size 15 to 20)
#    0.000    0.400    4.000    3.000    8.400    5.600 
#    0.000    0.000    0.000    0.000    0.000    0.000 
#    0.000    0.000    0.000    0.000    0.000    0.000 
#
# Total GULP energy -111921.018938 kJ/mol
# GULP energy per Si atom -5596.050947 kJ/mol
# Density = 2.265388 g / cm^3
# Si number density = 22.705563 Si / 1000 Ang^3
#
#
#
# Elastic Constant Matrix: (Units=GPa)
#
#
# Indices 1 2 3 4 5 6 
#
# 1 64.7632 31.0151 27.7883 0.0000 -18.4910 0.0000
# 2 31.0151 71.9397 12.8860 0.0000 -19.5257 0.0000
# 3 27.7883 12.8860 98.1921 0.0000 -1.9099 0.0000
# 4 0.0000 0.0000 0.0000 31.9275 0.0000 12.3695
# 5 -18.4910 -19.5257 -1.9099 0.0000 40.8857 0.0000
# 6 0.0000 0.0000 0.0000 12.3695 0.0000 4.9400
#
#
#
# Elastic Compliance Matrix: (Units=1/GPa)
#
#
# Indices 1 2 3 4 5 6 
#
# 1 0.023164 -0.007158 -0.005484 0.000000 0.006801 0.000000
# 2 -0.007158 0.018564 -0.000301 0.000000 0.005614 0.000000
# 3 -0.005484 -0.000301 0.011735 0.000000 -0.002076 0.000000
# 4 0.000000 0.000000 0.000000 1.047237 0.000000 -2.622224
# 5 0.006801 0.005614 -0.002076 0.000000 0.030119 0.000000
# 6 0.000000 0.000000 0.000000 -2.622224 0.000000 6.768333
#
#
# Mechanical properties :
#
#
# Convention : Reuss Voigt Hill
#
# Bulk Modulus (GPa) = 36.26211 42.03041 39.14626
# Shear Modulus (GPa) = 0.63018 26.43102 13.53060
#
# Velocity S-wave (km/s) = 0.52740 3.41556 2.44379
# Velocity P-wave (km/s) = 4.04674 5.84003 5.02405
#
# Compressibility (1/GPa) = 0.02757699
#
# Stress axis : x y z
#
# Youngs Moduli (GPa) = 43.17092 53.86638 85.21413
#
# Poissons Ratio (x) = 0.38559 0.46728
# Poissons Ratio (y) = 0.30903 0.02567
# Poissons Ratio (z) = 0.23673 0.01623
#
# Static dielectric constant tensor:
#      x y z
#    x 1.852570 0.000000 -0.015820 
#    y 0.000000 1.786320 0.000000 
#    z -0.015820 0.000000 1.856720 
# 
# From -- ./inp_files/7939.got.cif
#   From: 2010.05.17/outbox.cif.g08.bks.cpg/sg15_4_cif.got.tgz:7939.got - 2010.06.03 18:47:42.
