data_PCOD9304734
_publ_section_title
;
Structure prediction by ZEFSAII (Michael W. Deem and Ramdas Pophale) SiO2 
 PCOD9304734
Probable space group: C 2/C
;
_chemical_formula_sum "Si O2"
_cell_formula_units_Z 56
_cell_length_a 11.290220
_cell_length_b 21.937534
_cell_length_c 12.198925
_cell_angle_alpha 90.000000
_cell_angle_beta 119.450549
_cell_angle_gamma 90.000000
_cell_volume 2630.997315
_symmetry_space_group_name_H-M "C 2/C"
_symmetry_group_IT_number 15
_symmetry_cell_setting 'monoclinic'
loop_
_space_group_symop_operation_xyz
x,y,z
-x,y,1/2-z
-x,-y,-z
x,-y,1/2+z
1/2+x,1/2+y,z
1/2-x,1/2+y,1/2-z
1/2-x,1/2-y,-z
1/2+x,1/2-y,1/2+z
loop_
_atom_site_type_symbol
_atom_site_label
_atom_site_fract_x
_atom_site_fract_y
_atom_site_fract_z
Si Si1 0.671628 0.419577 0.400092
Si Si2 0.277310 0.586037 0.834180
Si Si3 0.500000 0.473476 0.750000
Si Si4 0.021062 0.166730 0.995272
Si Si5 0.127663 0.281785 0.510359
Si Si6 0.347940 0.037515 0.160941
Si Si7 0.000000 0.342455 0.250000
Si Si8 0.783645 0.874705 0.734626
O O1 0.693824 0.407537 0.282369
O O2 0.568685 0.477371 0.364045
O O3 0.608502 0.361814 0.435306
O O4 0.810085 0.440070 0.522491
O O5 0.399109 0.618096 0.954608
O O6 0.255271 0.516030 0.853893
O O7 0.136706 0.618884 0.799001
O O8 0.378510 0.428665 0.730218
O O9 0.948697 0.231807 0.949146
O O10 0.115319 0.166353 0.145742
O O11 0.250000 0.250000 0.500000
O O12 0.022412 0.304384 0.370766
O O13 0.198478 0.336118 0.609265
O O14 0.500000 0.015795 0.250000
O O15 0.319736 0.093251 0.229098
#
# Coordination Sequence:
#
# PCOD9304734 Si02
#       8
#     8   8   4   8   8   8   4   8
#     4  11  24  42  72 102 139 183 226 288 345 408
#     4  12  23  44  70 101 141 179 226 286 344 420
#     4  12  20  39  70 104 135 168 230 286 344 394
#     4  11  23  46  68  99 134 181 237 278 340 407
#     4  12  25  46  69  97 137 182 233 288 341 411
#     4  11  25  42  65 104 144 180 220 280 356 415
#     4  12  28  41  68 104 133 184 228 280 356 406
#     4  11  25  41  70 103 136 176 227 293 337 406
#
# _framework density 21.284704000000001
#
# number of rings (size 3 to 8) (size 9 to 14) (size 15 to 20)
#    0.000    0.571    5.000    2.571    4.000    2.857 
#    0.000    2.143    0.000    0.000    0.000    0.000 
#    0.000    0.000    0.000    0.000    0.000    0.000 
#
# Total GULP energy -156514.261840 kJ/mol
# GULP energy per Si atom -5589.795066 kJ/mol
# Density = 2.123626 g / cm^3
# Si number density = 21.284704 Si / 1000 Ang^3
#
#
#
# Elastic Constant Matrix: (Units=GPa)
#
#
# Indices 1 2 3 4 5 6 
#
# 1 51.3819 13.3007 15.0408 0.0000 3.9662 0.0000
# 2 13.3007 88.4926 33.0524 0.0000 -4.3483 0.0000
# 3 15.0408 33.0524 112.8267 0.0000 9.9957 0.0000
# 4 0.0000 0.0000 0.0000 24.9915 0.0000 -3.7788
# 5 3.9662 -4.3483 9.9957 0.0000 28.1993 0.0000
# 6 0.0000 0.0000 0.0000 -3.7788 0.0000 28.9849
#
#
#
# Elastic Compliance Matrix: (Units=1/GPa)
#
#
# Indices 1 2 3 4 5 6 
#
# 1 0.020866 -0.002605 -0.001779 0.000000 -0.002706 0.000000
# 2 -0.002605 0.013334 -0.003896 0.000000 0.003803 0.000000
# 3 -0.001779 -0.003896 0.010606 0.000000 -0.004110 0.000000
# 4 0.000000 0.000000 0.000000 0.040818 0.000000 0.005321
# 5 -0.002706 0.003803 -0.004110 0.000000 0.037886 0.000000
# 6 0.000000 0.000000 0.000000 0.005321 0.000000 0.035194
#
#
# Mechanical properties :
#
#
# Convention : Reuss Voigt Hill
#
# Bulk Modulus (GPa) = 35.40245 41.72098 38.56172
# Shear Modulus (GPa) = 27.07410 29.18898 28.13154
#
# Velocity S-wave (km/s) = 3.57038 3.70720 3.63943
# Velocity P-wave (km/s) = 5.80222 6.16185 5.98474
#
# Compressibility (1/GPa) = 0.02824663
#
# Stress axis : x y z
#
# Youngs Moduli (GPa) = 47.92494 74.99684 94.28906
#
# Poissons Ratio (x) = 0.19535 0.16772
# Poissons Ratio (y) = 0.12483 0.36734
# Poissons Ratio (z) = 0.08525 0.29218
#
# Static dielectric constant tensor:
#      x y z
#    x 1.774020 0.000000 0.008690 
#    y 0.000000 1.782840 0.000000 
#    z 0.008690 0.000000 1.787410 
# 
# From -- ./inp_files/90940.got.cif
#   From: 2010.05.17/outbox.cif.g08.bks.cpg/sg15_46_cif.got.tgz:90940.got - 2010.06.03 18:47:42.
