data_PCOD9304371
_publ_section_title
;
Structure prediction by ZEFSAII (Michael W. Deem and Ramdas Pophale) SiO2 
 PCOD9304371
Probable space group: C 2/C
;
_chemical_formula_sum "Si O2"
_cell_formula_units_Z 40
_cell_length_a 16.213873
_cell_length_b 17.159321
_cell_length_c 15.440092
_cell_angle_alpha 90.000000
_cell_angle_beta 26.330405
_cell_angle_gamma 90.000000
_cell_volume 1905.356575
_symmetry_space_group_name_H-M "C 2/C"
_symmetry_group_IT_number 15
_symmetry_cell_setting 'monoclinic'
loop_
_space_group_symop_operation_xyz
x,y,z
-x,y,1/2-z
-x,-y,-z
x,-y,1/2+z
1/2+x,1/2+y,z
1/2-x,1/2+y,1/2-z
1/2-x,1/2-y,-z
1/2+x,1/2-y,1/2+z
loop_
_atom_site_type_symbol
_atom_site_label
_atom_site_fract_x
_atom_site_fract_y
_atom_site_fract_z
Si Si1 0.341435 0.177829 0.580870
Si Si2 0.560653 0.659046 0.593224
Si Si3 0.782562 0.842397 0.963162
Si Si4 0.542521 0.891321 0.351593
Si Si5 0.908593 0.446426 0.746692
O O1 0.345750 0.265390 0.539617
O O2 0.423758 0.164161 0.598535
O O3 0.466243 0.125841 0.400371
O O4 0.131618 0.146653 0.776091
O O5 0.500000 0.674472 0.750000
O O6 0.702778 0.587178 0.454811
O O7 0.000000 0.859780 0.750000
O O8 0.750000 0.750000 0.000000
O O9 0.694136 0.873935 0.134718
O O10 0.659324 0.874692 0.999848
O O11 0.572718 0.983192 0.338439
O O12 0.000000 0.475647 0.750000
#
# Coordination Sequence:
#
# PCOD9304371 Si02
#       5
#     8   8   8   8   8
#     4  12  26  42  70 103 140 179 235 288 341 416
#     4  12  25  43  73 104 136 188 235 282 349 414
#     4  11  23  43  72  97 137 184 232 276 343 418
#     4  11  27  45  68 108 139 180 228 294 349 403
#     4  12  24  47  70  99 144 179 231 292 349 412
#
# _framework density 20.993445999999999
#
# number of rings (size 3 to 8) (size 9 to 14) (size 15 to 20)
#    0.000    0.400    8.000    1.800    2.800    4.800 
#    0.000    0.000    0.000    0.000    0.000    0.000 
#    0.000    0.000    0.000    0.000    0.000    0.000 
#
# Total GULP energy -111831.662237 kJ/mol
# GULP energy per Si atom -5591.583112 kJ/mol
# Density = 2.094566 g / cm^3
# Si number density = 20.993446 Si / 1000 Ang^3
#
#
#
# Elastic Constant Matrix: (Units=GPa)
#
#
# Indices 1 2 3 4 5 6 
#
# 1 108.4871 28.7077 46.1494 0.0004 -5.1711 0.0061
# 2 28.7077 97.9345 27.3031 0.0061 -1.3324 0.0042
# 3 46.1494 27.3031 127.6259 0.0071 -35.8231 0.0071
# 4 0.0004 0.0061 0.0071 24.4593 -0.0023 -8.6777
# 5 -5.1711 -1.3324 -35.8231 -0.0023 36.1204 -0.0047
# 6 0.0061 0.0042 0.0071 -8.6777 -0.0047 -1.8336
#
#
#
# Elastic Compliance Matrix: (Units=1/GPa)
#
#
# Indices 1 2 3 4 5 6 
#
# 1 0.011587 -0.002168 -0.004549 0.000004 -0.002933 0.000006
# 2 -0.002168 0.011449 -0.002264 0.000001 -0.002134 0.000010
# 3 -0.004549 -0.002264 0.013523 -0.000001 0.012677 0.000003
# 4 0.000004 0.000001 -0.000001 0.015261 -0.000009 -0.072223
# 5 -0.002933 -0.002134 0.012677 -0.000009 0.039759 -0.000026
# 6 0.000006 0.000010 0.000003 -0.072223 -0.000026 -0.203570
#
#
# Mechanical properties :
#
#
# Convention : Reuss Voigt Hill
#
# Bulk Modulus (GPa) = 53.77593 59.81864 56.79729
# Shear Modulus (GPa) = -56.92791 27.20838 -14.85976
#
# Velocity S-wave (km/s) = -5.21305 3.60396 -2.66339
# Velocity P-wave (km/s) = 3.25012 6.77303 4.20182
#
# Compressibility (1/GPa) = 0.01859568
#
# Stress axis : x y z
#
# Youngs Moduli (GPa) = 86.30528 87.34674 73.94824
#
# Poissons Ratio (x) = 0.18938 0.33640
# Poissons Ratio (y) = 0.18712 0.16742
# Poissons Ratio (z) = 0.39262 0.19776
#
# Static dielectric constant tensor:
#      x y z
#    x 1.780690 -0.000010 -0.002160 
#    y -0.000010 1.848860 0.000020 
#    z -0.002160 0.000020 1.752000 
# 
# From -- ./inp_files/155348.got.cif
#   From: 2010.05.17/outbox.cif.g08.bks.cpg/sg15_78_cif.got.tgz:155348.got - 2010.06.03 18:47:42.
