data_PCOD9304255
_publ_section_title
;
Structure prediction by ZEFSAII (Michael W. Deem and Ramdas Pophale) SiO2 
 PCOD9304255
Probable space group: C 2/C
;
_chemical_formula_sum "Si O2"
_cell_formula_units_Z 48
_cell_length_a 4.939157
_cell_length_b 25.088618
_cell_length_c 16.796881
_cell_angle_alpha 90.000000
_cell_angle_beta 112.689526
_cell_angle_gamma 90.000000
_cell_volume 1920.329367
_symmetry_space_group_name_H-M "C 2/C"
_symmetry_group_IT_number 15
_symmetry_cell_setting 'monoclinic'
loop_
_space_group_symop_operation_xyz
x,y,z
-x,y,1/2-z
-x,-y,-z
x,-y,1/2+z
1/2+x,1/2+y,z
1/2-x,1/2+y,1/2-z
1/2-x,1/2-y,-z
1/2+x,1/2-y,1/2+z
loop_
_atom_site_type_symbol
_atom_site_label
_atom_site_fract_x
_atom_site_fract_y
_atom_site_fract_z
Si Si1 0.846153 0.187573 0.932948
Si Si2 0.293903 0.271878 0.160207
Si Si3 0.013153 0.164338 0.134341
Si Si4 0.991989 0.592169 0.126771
Si Si5 0.506307 0.973552 0.160169
Si Si6 0.095260 0.925256 0.426811
O O1 0.500971 0.195887 0.889601
O O2 0.018587 0.231717 0.900245
O O3 0.942751 0.132102 0.905358
O O4 0.933090 0.183536 0.035212
O O5 0.500000 0.297394 0.250000
O O6 0.178879 0.216222 0.184464
O O7 0.730678 0.138608 0.142809
O O8 0.239464 0.115856 0.153395
O O9 0.102027 0.535280 0.168515
O O10 0.834063 0.579714 0.024257
O O11 0.500000 0.954753 0.250000
O O12 0.730287 0.941455 0.131503
O O13 0.174468 0.965893 0.089599
#
# Coordination Sequence:
#
# PCOD9304255 Si02
#       6
#     8   8   8   8   8   8
#     4  11  23  43  67  95 130 173 222 268 318 383
#     4  12  25  42  66  98 135 172 211 268 334 391
#     4  11  23  43  70  97 127 172 225 271 317 380
#     4  11  23  43  70  97 127 172 225 271 317 380
#     4  12  25  42  66  98 135 172 211 268 334 391
#     4  11  23  43  67  95 130 173 222 268 318 383
#
# _framework density 24.995712000000001
#
# number of rings (size 3 to 8) (size 9 to 14) (size 15 to 20)
#    0.000    0.667    0.000   10.000    0.000    3.333 
#    0.000    3.333    0.000    0.000    0.000    0.000 
#    0.000    0.000    0.000    0.000    0.000    0.000 
#
# Total GULP energy -134611.134284 kJ/mol
# GULP energy per Si atom -5608.797262 kJ/mol
# Density = 2.493882 g / cm^3
# Si number density = 24.995712 Si / 1000 Ang^3
#
#
#
# Elastic Constant Matrix: (Units=GPa)
#
#
# Indices 1 2 3 4 5 6 
#
# 1 149.8437 18.8969 31.7467 0.0000 6.8030 0.0000
# 2 18.8969 62.1328 17.6173 0.0000 -9.8618 0.0000
# 3 31.7467 17.6173 70.0569 0.0000 10.3348 0.0000
# 4 0.0000 0.0000 0.0000 21.1959 0.0000 -0.6286
# 5 6.8030 -9.8618 10.3348 0.0000 29.8039 0.0000
# 6 0.0000 0.0000 0.0000 -0.6286 0.0000 43.8430
#
#
#
# Elastic Compliance Matrix: (Units=1/GPa)
#
#
# Indices 1 2 3 4 5 6 
#
# 1 0.007541 -0.001711 -0.002792 0.000000 -0.001319 0.000000
# 2 -0.001711 0.019541 -0.005428 0.000000 0.008739 0.000000
# 3 -0.002792 -0.005428 0.017996 0.000000 -0.007399 0.000000
# 4 0.000000 0.000000 0.000000 0.047199 0.000000 0.000677
# 5 -0.001319 0.008739 -0.007399 0.000000 0.039311 0.000000
# 6 0.000000 0.000000 0.000000 0.000677 0.000000 0.022818
#
#
# Mechanical properties :
#
#
# Convention : Reuss Voigt Hill
#
# Bulk Modulus (GPa) = 39.65820 46.50613 43.08216
# Shear Modulus (GPa) = 27.37125 33.22004 30.29564
#
# Velocity S-wave (km/s) = 3.31273 3.64954 3.48520
# Velocity P-wave (km/s) = 5.52564 6.03365 5.78522
#
# Compressibility (1/GPa) = 0.02521546
#
# Stress axis : x y z
#
# Youngs Moduli (GPa) = 132.61026 51.17455 55.56837
#
# Poissons Ratio (x) = 0.08757 0.15516
# Poissons Ratio (y) = 0.22691 0.30161
# Poissons Ratio (z) = 0.37029 0.27776
#
# Static dielectric constant tensor:
#      x y z
#    x 1.903810 0.000000 0.004240 
#    y 0.000000 1.983750 0.000000 
#    z 0.004240 0.000000 1.995180 
# 
# From -- ./inp_files/185978.got.cif
#   From: 2010.05.17/outbox.cif.g08.bks.cpg/sg15_93_cif.got.tgz:185978.got - 2010.06.03 18:47:42.
