data_PCOD9304841
_publ_section_title
;
Structure prediction by ZEFSAII (Michael W. Deem and Ramdas Pophale) SiO2 
 PCOD9304841
Probable space group: C 2/C
;
_chemical_formula_sum "Si O2"
_cell_formula_units_Z 52
_cell_length_a 16.766135
_cell_length_b 9.656433
_cell_length_c 14.888676
_cell_angle_alpha 90.000000
_cell_angle_beta 77.295884
_cell_angle_gamma 90.000000
_cell_volume 2351.480544
_symmetry_space_group_name_H-M "C 2/C"
_symmetry_group_IT_number 15
_symmetry_cell_setting 'monoclinic'
loop_
_space_group_symop_operation_xyz
x,y,z
-x,y,1/2-z
-x,-y,-z
x,-y,1/2+z
1/2+x,1/2+y,z
1/2-x,1/2+y,1/2-z
1/2-x,1/2-y,-z
1/2+x,1/2-y,1/2+z
loop_
_atom_site_type_symbol
_atom_site_label
_atom_site_fract_x
_atom_site_fract_y
_atom_site_fract_z
Si Si1 0.637023 0.152500 0.330119
Si Si2 0.662412 0.396205 0.110070
Si Si3 0.500000 0.303999 0.250000
Si Si4 0.405820 0.021305 0.500201
Si Si5 0.688773 0.668441 0.214572
Si Si6 0.404759 0.066559 0.799706
Si Si7 0.816281 0.200237 0.083267
O O1 0.556586 0.222836 0.308455
O O2 0.632229 0.103074 0.433246
O O3 0.720867 0.235605 0.302634
O O4 0.643600 0.015345 0.265850
O O5 0.571033 0.373740 0.171577
O O6 0.693483 0.529851 0.155433
O O7 0.836519 0.142514 0.176116
O O8 0.668846 0.408469 0.000473
O O9 0.392908 0.007192 0.397760
O O10 0.500000 0.000000 0.500000
O O11 0.372538 0.167109 0.544630
O O12 0.626954 0.777835 0.188069
O O13 0.500000 0.064955 0.750000
O O14 0.224405 0.234502 0.608060
#
# Coordination Sequence:
#
# PCOD9304841 Si02
#       7
#     8   8   4   8   8   8   8
#     4  12  23  43  70 101 135 188 236 290 347 416
#     4  11  25  44  71 103 142 189 230 289 366 426
#     4  12  24  46  70 106 142 184 244 290 348 438
#     4  12  22  43  75 104 135 182 243 293 347 414
#     4  12  25  45  69 105 144 182 232 296 356 418
#     4  12  25  44  73 105 141 185 239 295 348 423
#     4  11  23  47  72  97 145 190 232 290 358 426
#
# _framework density 22.113727999999998
#
# number of rings (size 3 to 8) (size 9 to 14) (size 15 to 20)
#    0.000    0.308    6.923    1.846    3.231    0.615 
#    2.769    0.769    0.000    0.000    0.000    0.000 
#    0.000    0.000    0.000    0.000    0.000    0.000 
#
# Total GULP energy -145300.911136 kJ/mol
# GULP energy per Si atom -5588.496582 kJ/mol
# Density = 2.206340 g / cm^3
# Si number density = 22.113728 Si / 1000 Ang^3
#
#
#
# Elastic Constant Matrix: (Units=GPa)
#
#
# Indices 1 2 3 4 5 6 
#
# 1 115.7862 36.2489 37.3527 0.0000 -20.8895 0.0000
# 2 36.2489 38.4443 25.4365 0.0000 2.0713 0.0000
# 3 37.3527 25.4365 123.9711 0.0000 -7.5155 0.0000
# 4 0.0000 0.0000 0.0000 37.8866 0.0000 -4.3102
# 5 -20.8895 2.0713 -7.5155 0.0000 31.3522 0.0000
# 6 0.0000 0.0000 0.0000 -4.3102 0.0000 30.3527
#
#
#
# Elastic Compliance Matrix: (Units=1/GPa)
#
#
# Indices 1 2 3 4 5 6 
#
# 1 0.015515 -0.014550 -0.001019 0.000000 0.011054 0.000000
# 2 -0.014550 0.044131 -0.005515 0.000000 -0.013932 0.000000
# 3 -0.001019 -0.005515 0.009626 0.000000 0.001993 0.000000
# 4 0.000000 0.000000 0.000000 0.026828 0.000000 0.003810
# 5 0.011054 -0.013932 0.001993 0.000000 0.040659 0.000000
# 6 0.000000 0.000000 0.000000 0.003810 0.000000 0.033487
#
#
# Mechanical properties :
#
#
# Convention : Reuss Voigt Hill
#
# Bulk Modulus (GPa) = 36.89732 52.91976 44.90854
# Shear Modulus (GPa) = 22.57850 31.86254 27.22052
#
# Velocity S-wave (km/s) = 3.19880 3.79997 3.51227
# Velocity P-wave (km/s) = 5.51041 6.57539 6.06631
#
# Compressibility (1/GPa) = 0.02710224
#
# Stress axis : x y z
#
# Youngs Moduli (GPa) = 64.45387 22.65983 103.88625
#
# Poissons Ratio (x) = 0.32971 0.10587
# Poissons Ratio (y) = 0.93782 0.57297
# Poissons Ratio (z) = 0.06568 0.12498
#
# Static dielectric constant tensor:
#      x y z
#    x 1.846640 0.000000 -0.041710 
#    y 0.000000 1.805300 0.000000 
#    z -0.041710 0.000000 1.879430 
# 
# From -- ./inp_files/160379.got.cif
#   From: 2010.05.17/outbox.cif.g08.bks.cpg/sg15_81_cif.got.tgz:160379.got - 2010.06.03 18:47:42.
