data_PCOD9304400
_publ_section_title
;
Structure prediction by ZEFSAII (Michael W. Deem and Ramdas Pophale) SiO2 
 PCOD9304400
Probable space group: C 2/C
;
_chemical_formula_sum "Si O2"
_cell_formula_units_Z 40
_cell_length_a 15.487136
_cell_length_b 6.596958
_cell_length_c 18.277977
_cell_angle_alpha 90.000000
_cell_angle_beta 103.094624
_cell_angle_gamma 90.000000
_cell_volume 1818.865893
_symmetry_space_group_name_H-M "C 2/C"
_symmetry_group_IT_number 15
_symmetry_cell_setting 'monoclinic'
loop_
_space_group_symop_operation_xyz
x,y,z
-x,y,1/2-z
-x,-y,-z
x,-y,1/2+z
1/2+x,1/2+y,z
1/2-x,1/2+y,1/2-z
1/2-x,1/2-y,-z
1/2+x,1/2-y,1/2+z
loop_
_atom_site_type_symbol
_atom_site_label
_atom_site_fract_x
_atom_site_fract_y
_atom_site_fract_z
Si Si1 0.166726 0.367871 0.448878
Si Si2 0.274263 0.190642 0.158274
Si Si3 0.633015 0.608225 0.698035
Si Si4 0.006052 0.764772 0.834903
Si Si5 0.624126 0.008241 0.094689
O O1 0.250000 0.250000 0.500000
O O2 0.196468 0.552875 0.403451
O O3 0.110960 0.451499 0.506771
O O4 0.104929 0.229059 0.385507
O O5 0.352781 0.282177 0.221981
O O6 0.211966 0.371885 0.119503
O O7 0.214098 0.048124 0.199682
O O8 0.544031 0.478928 0.674440
O O9 0.636603 0.777526 0.636578
O O10 0.950885 0.614256 0.876249
O O11 0.000000 0.690395 0.750000
#
# Coordination Sequence:
#
# PCOD9304400 Si02
#       5
#     8   8   8   8   8
#     4  12  26  47  75 109 148 192 243 304 372 436
#     4  11  23  43  77 106 141 190 247 298 359 438
#     4  11  23  43  75 102 145 189 245 298 361 436
#     4  11  28  47  70 106 147 191 244 298 369 438
#     4  11  24  47  72 106 146 190 235 305 366 434
#
# _framework density 21.991724000000001
#
# number of rings (size 3 to 8) (size 9 to 14) (size 15 to 20)
#    0.000    0.800    4.000    2.400    5.600    3.200 
#    3.600    0.000    0.000    0.000    0.000    0.000 
#    0.000    0.000    0.000    0.000    0.000    0.000 
#
# Total GULP energy -111987.368203 kJ/mol
# GULP energy per Si atom -5599.368410 kJ/mol
# Density = 2.194167 g / cm^3
# Si number density = 21.991724 Si / 1000 Ang^3
#
#
#
# Elastic Constant Matrix: (Units=GPa)
#
#
# Indices 1 2 3 4 5 6 
#
# 1 103.5066 59.4489 73.8279 0.0000 17.9621 0.0000
# 2 59.4489 110.9833 55.9340 0.0000 8.1953 0.0000
# 3 73.8279 55.9340 182.5510 0.0000 5.5423 0.0000
# 4 0.0000 0.0000 0.0000 29.1634 0.0000 -4.1414
# 5 17.9621 8.1953 5.5423 0.0000 41.0324 0.0000
# 6 0.0000 0.0000 0.0000 -4.1414 0.0000 19.8582
#
#
#
# Elastic Compliance Matrix: (Units=1/GPa)
#
#
# Indices 1 2 3 4 5 6 
#
# 1 0.018214 -0.006737 -0.005122 0.000000 -0.005936 0.000000
# 2 -0.006737 0.013266 -0.001355 0.000000 0.000482 0.000000
# 3 -0.005122 -0.001355 0.007921 0.000000 0.001443 0.000000
# 4 0.000000 0.000000 0.000000 0.035336 0.000000 0.007369
# 5 -0.005936 0.000482 0.001443 0.000000 0.026678 0.000000
# 6 0.000000 0.000000 0.000000 0.007369 0.000000 0.051894
#
#
# Mechanical properties :
#
#
# Convention : Reuss Voigt Hill
#
# Bulk Modulus (GPa) = 77.07853 86.16251 81.62052
# Shear Modulus (GPa) = 27.16512 31.86614 29.51563
#
# Velocity S-wave (km/s) = 3.51842 3.81071 3.66748
# Velocity P-wave (km/s) = 7.18545 7.65680 7.42486
#
# Compressibility (1/GPa) = 0.01297378
#
# Stress axis : x y z
#
# Youngs Moduli (GPa) = 54.90407 75.37986 126.25304
#
# Poissons Ratio (x) = 0.50781 0.64663
# Poissons Ratio (y) = 0.36987 0.17107
# Poissons Ratio (z) = 0.28120 0.10214
#
# Static dielectric constant tensor:
#      x y z
#    x 1.849650 0.000000 -0.011920 
#    y 0.000000 1.770110 0.000000 
#    z -0.011920 0.000000 1.780400 
# 
# From -- ./inp_files/208090.got.cif
#   From: 2010.05.17/outbox.cif.g08.bks.cpg/sg15_105_cif.got.tgz:208090.got - 2010.06.03 18:47:42.
