data_PCOD9304501
_publ_section_title
;
Structure prediction by ZEFSAII (Michael W. Deem and Ramdas Pophale) SiO2 
 PCOD9304501
Probable space group: C 2/C
;
_chemical_formula_sum "Si O2"
_cell_formula_units_Z 36
_cell_length_a 20.020994
_cell_length_b 12.476990
_cell_length_c 9.958881
_cell_angle_alpha 90.000000
_cell_angle_beta 35.371997
_cell_angle_gamma 90.000000
_cell_volume 1440.113053
_symmetry_space_group_name_H-M "C 2/C"
_symmetry_group_IT_number 15
_symmetry_cell_setting 'monoclinic'
loop_
_space_group_symop_operation_xyz
x,y,z
-x,y,1/2-z
-x,-y,-z
x,-y,1/2+z
1/2+x,1/2+y,z
1/2-x,1/2+y,1/2-z
1/2-x,1/2-y,-z
1/2+x,1/2-y,1/2+z
loop_
_atom_site_type_symbol
_atom_site_label
_atom_site_fract_x
_atom_site_fract_y
_atom_site_fract_z
Si Si1 0.632342 0.620918 0.774277
Si Si2 0.000000 0.398197 0.750000
Si Si3 0.222213 0.815900 0.861210
Si Si4 0.081319 0.260463 0.361387
Si Si5 0.694327 0.067425 0.471029
O O1 0.726710 0.705660 0.672966
O O2 0.632335 0.637953 0.613211
O O3 0.513658 0.671483 0.027089
O O4 0.684997 0.503856 0.711656
O O5 0.033441 0.325090 0.568040
O O6 0.102729 0.470855 0.633773
O O7 0.320508 0.900666 0.664407
O O8 0.182790 0.804741 0.771240
O O9 0.135949 0.342186 0.165654
#
# Coordination Sequence:
#
# PCOD9304501 Si02
#       5
#     8   4   8   8   8
#     4  11  23  44  71 100 146 187 229 298 361 416
#     4  12  20  42  66  98 130 180 236 284 358 426
#     4  11  23  45  64 103 144 178 236 298 353 422
#     4  12  23  44  69 101 141 185 235 295 353 426
#     4  12  25  40  74 105 134 188 242 288 359 431
#
# _framework density 24.998035999999999
#
# number of rings (size 3 to 8) (size 9 to 14) (size 15 to 20)
#    0.000    0.444    4.444    5.333    0.000    0.889 
#    0.000    0.000    0.000    0.000    0.000    0.000 
#    0.000    0.000    0.000    0.000    0.000    0.000 
#
# Total GULP energy -100316.821171 kJ/mol
# GULP energy per Si atom -5573.156732 kJ/mol
# Density = 2.494114 g / cm^3
# Si number density = 24.998036 Si / 1000 Ang^3
#
#
#
# Elastic Constant Matrix: (Units=GPa)
#
#
# Indices 1 2 3 4 5 6 
#
# 1 56.7226 52.0375 25.0667 0.0000 -1.2253 0.0000
# 2 52.0375 145.6767 93.2821 0.0000 19.9336 0.0000
# 3 25.0667 93.2821 107.8849 0.0000 26.3406 0.0000
# 4 0.0000 0.0000 0.0000 21.4176 0.0000 12.7330
# 5 -1.2253 19.9336 26.3406 0.0000 25.9174 0.0000
# 6 0.0000 0.0000 0.0000 12.7330 0.0000 9.1425
#
#
#
# Elastic Compliance Matrix: (Units=1/GPa)
#
#
# Indices 1 2 3 4 5 6 
#
# 1 0.028696 -0.013011 0.002404 0.000000 0.008920 0.000000
# 2 -0.013011 0.021377 -0.015025 0.000000 -0.001787 0.000000
# 3 0.002404 -0.015025 0.025074 0.000000 -0.013814 0.000000
# 4 0.000000 0.000000 0.000000 0.271440 0.000000 -0.378040
# 5 0.008920 -0.001787 -0.013814 0.000000 0.054420 0.000000
# 6 0.000000 0.000000 0.000000 -0.378040 0.000000 0.635885
#
#
# Mechanical properties :
#
#
# Convention : Reuss Voigt Hill
#
# Bulk Modulus (GPa) = 41.86587 72.33962 57.10274
# Shear Modulus (GPa) = 4.56156 20.62202 12.59179
#
# Velocity S-wave (km/s) = 1.35231 2.87530 2.24679
# Velocity P-wave (km/s) = 4.38433 6.32646 5.44272
#
# Compressibility (1/GPa) = 0.02388581
#
# Stress axis : x y z
#
# Youngs Moduli (GPa) = 34.84834 46.77846 39.88170
#
# Poissons Ratio (x) = 0.60862 -0.09589
# Poissons Ratio (y) = 0.45340 0.59920
# Poissons Ratio (z) = -0.08379 0.70282
#
# Static dielectric constant tensor:
#      x y z
#    x 2.086540 0.000000 -0.131480 
#    y 0.000000 2.037780 0.000000 
#    z -0.131480 0.000000 2.060340 
# 
# From -- ./inp_files/84487.got.cif
#   From: 2010.05.17/outbox.cif.g08.bks.cpg/sg15_43_cif.got.tgz:84487.got - 2010.06.03 18:47:42.
