data_PCOD9304912
_publ_section_title
;
Structure prediction by ZEFSAII (Michael W. Deem and Ramdas Pophale) SiO2 
 PCOD9304912
Probable space group: C 2/C
;
_chemical_formula_sum "Si O2"
_cell_formula_units_Z 48
_cell_length_a 6.534089
_cell_length_b 28.474853
_cell_length_c 14.315744
_cell_angle_alpha 90.000000
_cell_angle_beta 53.752678
_cell_angle_gamma 90.000000
_cell_volume 2148.077190
_symmetry_space_group_name_H-M "C 2/C"
_symmetry_group_IT_number 15
_symmetry_cell_setting 'monoclinic'
loop_
_space_group_symop_operation_xyz
x,y,z
-x,y,1/2-z
-x,-y,-z
x,-y,1/2+z
1/2+x,1/2+y,z
1/2-x,1/2+y,1/2-z
1/2-x,1/2-y,-z
1/2+x,1/2-y,1/2+z
loop_
_atom_site_type_symbol
_atom_site_label
_atom_site_fract_x
_atom_site_fract_y
_atom_site_fract_z
Si Si1 0.465071 0.710703 0.927308
Si Si2 0.033421 0.572888 0.846453
Si Si3 0.490197 0.427519 0.542899
Si Si4 0.847948 0.979262 0.391180
Si Si5 0.000000 0.856890 0.250000
Si Si6 0.296459 0.335627 0.656835
Si Si7 0.500000 0.737323 0.250000
O O1 0.412521 0.678393 0.853174
O O2 0.748544 0.732166 0.841288
O O3 0.250000 0.750000 0.000000
O O4 0.415236 0.676502 0.025855
O O5 0.081542 0.533700 0.913207
O O6 0.260192 0.610698 0.786769
O O7 0.000000 0.553344 0.750000
O O8 0.764887 0.594661 0.946011
O O9 0.378786 0.442226 0.470338
O O10 0.545486 0.474062 0.588965
O O11 0.336782 0.391552 0.649165
O O12 0.000000 0.975135 0.250000
O O13 0.435659 0.298913 0.685456
O O14 0.000000 0.325683 0.750000
#
# Coordination Sequence:
#
# PCOD9304912 Si02
#       7
#     8   8   8   8   4   8   4
#     4  12  26  50  76 110 151 195 252 307 381 461
#     4  12  22  45  73 106 142 188 250 307 369 436
#     4  11  27  44  76 104 148 202 242 310 375 446
#     4  11  23  49  69 108 148 196 253 304 371 448
#     4  12  28  44  75 110 146 188 247 318 364 448
#     4  12  27  51  73 113 152 191 251 313 380 460
#     4  12  28  48  79 108 150 208 243 314 390 452
#
# _framework density 22.345566000000002
#
# number of rings (size 3 to 8) (size 9 to 14) (size 15 to 20)
#    0.000    0.333    4.167    4.000    7.000    1.333 
#    6.000    0.000    0.000    0.000    0.000    0.000 
#    0.000    0.000    0.000    0.000    0.000    0.000 
#
# Total GULP energy -133833.619922 kJ/mol
# GULP energy per Si atom -5576.400830 kJ/mol
# Density = 2.229471 g / cm^3
# Si number density = 22.345566 Si / 1000 Ang^3
#
#
#
# Elastic Constant Matrix: (Units=GPa)
#
#
# Indices 1 2 3 4 5 6 
#
# 1 116.5113 46.1687 41.2284 0.0000 14.7593 0.0000
# 2 46.1687 111.0498 27.7005 0.0000 8.4158 0.0000
# 3 41.2284 27.7005 101.6186 0.0000 16.8263 0.0000
# 4 0.0000 0.0000 0.0000 27.6694 0.0000 11.5322
# 5 14.7593 8.4158 16.8263 0.0000 35.3587 0.0000
# 6 0.0000 0.0000 0.0000 11.5322 0.0000 33.8813
#
#
#
# Elastic Compliance Matrix: (Units=1/GPa)
#
#
# Indices 1 2 3 4 5 6 
#
# 1 0.011543 -0.003808 -0.003254 0.000000 -0.002363 0.000000
# 2 -0.003808 0.010961 -0.001383 0.000000 -0.000361 0.000000
# 3 -0.003254 -0.001383 0.012221 0.000000 -0.004129 0.000000
# 4 0.000000 0.000000 0.000000 0.042115 0.000000 -0.014335
# 5 -0.002363 -0.000361 -0.004129 0.000000 0.031319 0.000000
# 6 0.000000 0.000000 0.000000 -0.014335 0.000000 0.034394
#
#
# Mechanical properties :
#
#
# Convention : Reuss Voigt Hill
#
# Bulk Modulus (GPa) = 56.06927 62.15277 59.11102
# Shear Modulus (GPa) = 30.23213 33.65402 31.94307
#
# Velocity S-wave (km/s) = 3.68222 3.88502 3.78498
# Velocity P-wave (km/s) = 6.57455 6.92815 6.75366
#
# Compressibility (1/GPa) = 0.01783508
#
# Stress axis : x y z
#
# Youngs Moduli (GPa) = 86.63586 91.23662 81.82388
#
# Poissons Ratio (x) = 0.34744 0.26622
# Poissons Ratio (y) = 0.32992 0.11316
# Poissons Ratio (z) = 0.28188 0.12618
#
# Static dielectric constant tensor:
#      x y z
#    x 1.910200 0.000000 -0.100800 
#    y 0.000000 1.931580 0.000000 
#    z -0.100800 0.000000 1.826100 
# 
# From -- ./inp_files/130642.got.cif
#   From: 2010.05.17/outbox.cif.g08.bks.cpg/sg15_66_cif.got.tgz:130642.got - 2010.06.03 18:47:42.
