data_PCOD9304185
_publ_section_title
;
Structure prediction by ZEFSAII (Michael W. Deem and Ramdas Pophale) SiO2 
 PCOD9304185
Probable space group: C 2/C
;
_chemical_formula_sum "Si O2"
_cell_formula_units_Z 48
_cell_length_a 10.898348
_cell_length_b 16.818253
_cell_length_c 11.899976
_cell_angle_alpha 90.000000
_cell_angle_beta 106.654020
_cell_angle_gamma 90.000000
_cell_volume 2089.666979
_symmetry_space_group_name_H-M "C 2/C"
_symmetry_group_IT_number 15
_symmetry_cell_setting 'monoclinic'
loop_
_space_group_symop_operation_xyz
x,y,z
-x,y,1/2-z
-x,-y,-z
x,-y,1/2+z
1/2+x,1/2+y,z
1/2-x,1/2+y,1/2-z
1/2-x,1/2-y,-z
1/2+x,1/2-y,1/2+z
loop_
_atom_site_type_symbol
_atom_site_label
_atom_site_fract_x
_atom_site_fract_y
_atom_site_fract_z
Si Si1 0.645323 0.444280 0.252868
Si Si2 0.555612 0.153169 0.016570
Si Si3 0.284112 0.109755 0.225733
Si Si4 0.473797 0.294030 0.865012
Si Si5 0.698231 0.394006 0.021496
Si Si6 0.819491 0.564832 0.986643
O O1 0.500000 0.462290 0.250000
O O2 0.728784 0.523930 0.250725
O O3 0.650958 0.398696 0.136398
O O4 0.716451 0.399108 0.372977
O O5 0.619372 0.141156 0.154657
O O6 0.479721 0.233046 0.969552
O O7 0.676610 0.158998 0.964192
O O8 0.457743 0.080696 0.966548
O O9 0.162859 0.166028 0.181244
O O10 0.338288 0.101395 0.114781
O O11 0.500000 0.255629 0.750000
O O12 0.581781 0.361335 0.916592
O O13 0.754217 0.479425 0.996457
#
# Coordination Sequence:
#
# PCOD9304185 Si02
#       6
#     8   8   8   8   8   8
#     4  11  23  42  72 105 135 175 238 289 344 409
#     4  12  26  43  67 104 142 181 230 282 355 421
#     4  11  24  45  69  99 142 183 230 289 345 411
#     4  12  25  44  71  97 139 189 236 282 347 424
#     4  11  24  44  72 102 137 179 234 294 342 410
#     4  11  24  44  71 101 140 180 229 292 352 406
#
# _framework density 22.970167
#
# number of rings (size 3 to 8) (size 9 to 14) (size 15 to 20)
#    0.000    0.667    3.333    4.000    2.333    3.333 
#    0.000    3.333    0.000    0.000    0.000    0.000 
#    0.000    0.000    0.000    0.000    0.000    0.000 
#
# Total GULP energy -134093.308888 kJ/mol
# GULP energy per Si atom -5587.221204 kJ/mol
# Density = 2.291789 g / cm^3
# Si number density = 22.970167 Si / 1000 Ang^3
#
#
#
# Elastic Constant Matrix: (Units=GPa)
#
#
# Indices 1 2 3 4 5 6 
#
# 1 108.0528 15.4454 45.6239 0.0000 23.2805 0.0000
# 2 15.4454 34.4680 38.3857 0.0000 21.0606 0.0000
# 3 45.6239 38.3857 170.7555 0.0000 15.0461 0.0000
# 4 0.0000 0.0000 0.0000 -60.7539 0.0000 -60.7478
# 5 23.2805 21.0606 15.0461 0.0000 50.5945 0.0000
# 6 0.0000 0.0000 0.0000 -60.7478 0.0000 -21.8022
#
#
#
# Elastic Compliance Matrix: (Units=1/GPa)
#
#
# Indices 1 2 3 4 5 6 
#
# 1 0.011340 0.001002 -0.002833 0.000000 -0.004793 0.000000
# 2 0.001002 0.051382 -0.010159 0.000000 -0.018828 0.000000
# 3 -0.002833 -0.010159 0.008636 0.000000 0.002964 0.000000
# 4 0.000000 0.000000 0.000000 0.009216 0.000000 -0.025678
# 5 -0.004793 -0.018828 0.002964 0.000000 0.028926 0.000000
# 6 0.000000 0.000000 0.000000 -0.025678 0.000000 0.025681
#
#
# Mechanical properties :
#
#
# Convention : Reuss Voigt Hill
#
# Bulk Modulus (GPa) = 21.10730 56.90958 39.00844
# Shear Modulus (GPa) = 28.57894 7.86244 18.22069
#
# Velocity S-wave (km/s) = 3.53112 1.85211 2.81949
# Velocity P-wave (km/s) = 5.08271 5.42245 5.25533
#
# Compressibility (1/GPa) = 0.04737698
#
# Stress axis : x y z
#
# Youngs Moduli (GPa) = 88.18119 19.46212 115.79694
#
# Poissons Ratio (x) = -0.01949 0.32803
# Poissons Ratio (y) = -0.08831 1.17640
# Poissons Ratio (z) = 0.24980 0.19772
#
# Static dielectric constant tensor:
#      x y z
#    x 1.863960 0.000000 -0.033480 
#    y 0.000000 1.918060 0.000000 
#    z -0.033480 0.000000 1.862130 
# 
# From -- ./inp_files/87871.got.cif
#   From: 2010.05.17/outbox.cif.g08.bks.cpg/sg15_44_cif.got.tgz:87871.got - 2010.06.03 18:47:42.
