data_PCOD9304533
_publ_section_title
;
Structure prediction by ZEFSAII (Michael W. Deem and Ramdas Pophale) SiO2 
 PCOD9304533
Probable space group: C 2/C
;
_chemical_formula_sum "Si O2"
_cell_formula_units_Z 44
_cell_length_a 11.416173
_cell_length_b 23.582373
_cell_length_c 11.972785
_cell_angle_alpha 90.000000
_cell_angle_beta 140.521307
_cell_angle_gamma 90.000000
_cell_volume 2049.357664
_symmetry_space_group_name_H-M "C 2/C"
_symmetry_group_IT_number 15
_symmetry_cell_setting 'monoclinic'
loop_
_space_group_symop_operation_xyz
x,y,z
-x,y,1/2-z
-x,-y,-z
x,-y,1/2+z
1/2+x,1/2+y,z
1/2-x,1/2+y,1/2-z
1/2-x,1/2-y,-z
1/2+x,1/2-y,1/2+z
loop_
_atom_site_type_symbol
_atom_site_label
_atom_site_fract_x
_atom_site_fract_y
_atom_site_fract_z
Si Si1 0.721263 0.556709 0.391125
Si Si2 0.776753 0.926324 0.075245
Si Si3 0.274379 0.655115 0.767271
Si Si4 0.325057 0.229950 0.174496
Si Si5 0.167960 0.882825 0.623619
Si Si6 0.500000 0.128303 0.750000
O O1 0.500000 0.560567 0.250000
O O2 0.774149 0.490643 0.435670
O O3 0.737408 0.583072 0.280372
O O4 0.850898 0.590491 0.572643
O O5 0.699439 0.882546 0.109120
O O6 0.000000 0.921406 0.250000
O O7 0.745993 0.909331 0.924994
O O8 0.346696 0.713784 0.765642
O O9 0.118099 0.662988 0.745386
O O10 0.445567 0.619788 0.945361
O O11 0.500000 0.199350 0.250000
O O12 0.218855 0.183303 0.165675
O O13 0.250000 0.250000 0.000000
#
# Coordination Sequence:
#
# PCOD9304533 Si02
#       6
#     8   8   8   8   8   4
#     4  11  25  45  68 100 142 188 227 284 348 415
#     4   9  21  40  72  99 133 181 232 286 347 399
#     4  11  23  45  66 102 141 181 231 284 341 417
#     4  12  23  43  71 102 132 171 231 293 344 399
#     4  11  23  44  73 100 137 185 229 286 356 402
#     4  12  28  44  66 102 144 188 232 278 340 430
#
# _framework density 21.470143
#
# number of rings (size 3 to 8) (size 9 to 14) (size 15 to 20)
#    0.000    1.091    5.455    0.545    5.091    2.909 
#    3.273    1.818    0.000    0.000    0.000    0.000 
#    0.000    0.000    0.000    0.000    0.000    0.000 
#
# Total GULP energy -122785.590307 kJ/mol
# GULP energy per Si atom -5581.163196 kJ/mol
# Density = 2.142128 g / cm^3
# Si number density = 21.470143 Si / 1000 Ang^3
#
#
#
# Elastic Constant Matrix: (Units=GPa)
#
#
# Indices 1 2 3 4 5 6 
#
# 1 126.6031 43.3718 34.3408 0.0000 -18.9012 0.0000
# 2 43.3718 105.9822 40.1095 0.0000 -25.9499 0.0000
# 3 34.3408 40.1095 91.8160 0.0000 -25.1299 0.0000
# 4 0.0000 0.0000 0.0000 20.9809 0.0000 3.3334
# 5 -18.9012 -25.9499 -25.1299 0.0000 37.8340 0.0000
# 6 0.0000 0.0000 0.0000 3.3334 0.0000 25.7966
#
#
#
# Elastic Compliance Matrix: (Units=1/GPa)
#
#
# Indices 1 2 3 4 5 6 
#
# 1 0.009626 -0.002818 -0.001934 0.000000 0.001592 0.000000
# 2 -0.002818 0.013137 -0.003183 0.000000 0.005489 0.000000
# 3 -0.001934 -0.003183 0.014841 0.000000 0.006709 0.000000
# 4 0.000000 0.000000 0.000000 0.048661 0.000000 -0.006288
# 5 0.001592 0.005489 0.006709 0.000000 0.035447 0.000000
# 6 0.000000 0.000000 0.000000 -0.006288 0.000000 0.039577
#
#
# Mechanical properties :
#
#
# Convention : Reuss Voigt Hill
#
# Bulk Modulus (GPa) = 46.00644 62.22726 54.11685
# Shear Modulus (GPa) = 27.11433 30.69423 28.90428
#
# Velocity S-wave (km/s) = 3.55756 3.78514 3.67311
# Velocity P-wave (km/s) = 6.19271 6.93896 6.57643
#
# Compressibility (1/GPa) = 0.02173609
#
# Stress axis : x y z
#
# Youngs Moduli (GPa) = 103.88302 76.11986 67.38047
#
# Poissons Ratio (x) = 0.21449 0.13029
# Poissons Ratio (y) = 0.29272 0.21445
# Poissons Ratio (z) = 0.20088 0.24227
#
# Static dielectric constant tensor:
#      x y z
#    x 1.772930 0.000000 0.032230 
#    y 0.000000 1.714400 0.000000 
#    z 0.032230 0.000000 1.782810 
# 
# From -- ./inp_files/91131.got.cif
#   From: 2010.05.17/outbox.cif.g08.bks.cpg/sg15_46_cif.got.tgz:91131.got - 2010.06.03 18:47:42.
