data_PCOD9304894
_publ_section_title
;
Structure prediction by ZEFSAII (Michael W. Deem and Ramdas Pophale) SiO2 
 PCOD9304894
Probable space group: C 2/C
;
_chemical_formula_sum "Si O2"
_cell_formula_units_Z 64
_cell_length_a 13.881253
_cell_length_b 30.287902
_cell_length_c 10.952646
_cell_angle_alpha 90.000000
_cell_angle_beta 136.231344
_cell_angle_gamma 90.000000
_cell_volume 3185.407270
_symmetry_space_group_name_H-M "C 2/C"
_symmetry_group_IT_number 15
_symmetry_cell_setting 'monoclinic'
loop_
_space_group_symop_operation_xyz
x,y,z
-x,y,1/2-z
-x,-y,-z
x,-y,1/2+z
1/2+x,1/2+y,z
1/2-x,1/2+y,1/2-z
1/2-x,1/2-y,-z
1/2+x,1/2-y,1/2+z
loop_
_atom_site_type_symbol
_atom_site_label
_atom_site_fract_x
_atom_site_fract_y
_atom_site_fract_z
Si Si1 0.280602 0.787141 0.628148
Si Si2 0.521292 0.935030 0.124774
Si Si3 0.188522 0.654827 0.745358
Si Si4 0.787451 0.485554 0.799537
Si Si5 0.834093 0.866231 0.125220
Si Si6 0.029223 0.740190 0.509855
Si Si7 0.644071 0.286816 0.953872
Si Si8 0.663137 0.467338 0.422408
O O1 0.250000 0.750000 0.500000
O O2 0.249857 0.834311 0.541927
O O3 0.155014 0.774534 0.605068
O O4 0.437310 0.780588 0.817186
O O5 0.500000 0.942032 0.250000
O O6 0.593176 0.887915 0.172523
O O7 0.619419 0.973604 0.162457
O O8 0.379949 0.942845 0.918971
O O9 0.289605 0.647410 0.721532
O O10 0.094229 0.698153 0.637303
O O11 0.277844 0.667521 0.946608
O O12 0.693960 0.476679 0.593715
O O13 0.727256 0.501324 0.875651
O O14 0.793670 0.916970 0.066619
O O15 0.000000 0.860747 0.250000
O O16 0.910077 0.766806 0.469606
O O17 0.500000 0.291886 0.750000
O O18 0.750000 0.250000 0.000000
O O19 0.500000 0.469900 0.250000
#
# Coordination Sequence:
#
# PCOD9304894 Si02
#       8
#     8   8   8   8   8   8   8   8
#     4  12  22  39  62  92 130 173 217 270 341 400
#     4  11  25  44  72 101 139 178 231 297 356 426
#     4  12  25  43  67  99 136 175 238 289 345 415
#     4  11  23  48  73 104 141 183 231 289 373 436
#     4  11  24  42  66  99 140 170 221 286 345 418
#     4  12  24  41  63  91 130 180 227 277 337 408
#     4  12  24  44  65  92 130 188 238 289 343 405
#     4  11  24  45  73 105 140 186 230 288 360 442
#
# _framework density 20.091622000000001
#
# number of rings (size 3 to 8) (size 9 to 14) (size 15 to 20)
#    0.000    0.500    6.250    2.250    3.500    0.000 
#    0.000    3.125    0.000    0.000    0.000    0.000 
#    0.000    0.000    0.000    0.000    0.000    0.000 
#
# Total GULP energy -178540.138971 kJ/mol
# GULP energy per Si atom -5579.379343 kJ/mol
# Density = 2.004589 g / cm^3
# Si number density = 20.091622 Si / 1000 Ang^3
#
#
#
# Elastic Constant Matrix: (Units=GPa)
#
#
# Indices 1 2 3 4 5 6 
#
# 1 72.0700 26.4558 13.8055 0.0000 -3.2925 0.0000
# 2 26.4558 110.4977 49.9340 0.0000 3.4109 0.0000
# 3 13.8055 49.9340 165.8905 0.0000 -4.5897 0.0000
# 4 0.0000 0.0000 0.0000 36.6185 0.0000 3.7482
# 5 -3.2925 3.4109 -4.5897 0.0000 24.7191 0.0000
# 6 0.0000 0.0000 0.0000 3.7482 0.0000 21.8905
#
#
#
# Elastic Compliance Matrix: (Units=1/GPa)
#
#
# Indices 1 2 3 4 5 6 
#
# 1 0.015374 -0.003719 -0.000090 0.000000 0.002544 0.000000
# 2 -0.003719 0.011478 -0.003219 0.000000 -0.002677 0.000000
# 3 -0.000090 -0.003219 0.007053 0.000000 0.001742 0.000000
# 4 0.000000 0.000000 0.000000 0.027796 0.000000 -0.004759
# 5 0.002544 -0.002677 0.001742 0.000000 0.041486 0.000000
# 6 0.000000 0.000000 0.000000 -0.004759 0.000000 0.046497
#
#
# Mechanical properties :
#
#
# Convention : Reuss Voigt Hill
#
# Bulk Modulus (GPa) = 50.38144 58.76099 54.57121
# Shear Modulus (GPa) = 29.35034 33.86314 31.60674
#
# Velocity S-wave (km/s) = 3.82622 4.10986 3.97057
# Velocity P-wave (km/s) = 6.68208 7.19939 6.94556
#
# Compressibility (1/GPa) = 0.01984858
#
# Stress axis : x y z
#
# Youngs Moduli (GPa) = 65.04506 87.12401 141.78755
#
# Poissons Ratio (x) = 0.32401 0.01271
# Poissons Ratio (y) = 0.24190 0.45648
# Poissons Ratio (z) = 0.00583 0.28049
#
# Static dielectric constant tensor:
#      x y z
#    x 1.784700 0.000000 -0.002250 
#    y 0.000000 1.683140 0.000000 
#    z -0.002250 0.000000 1.766360 
# 
# From -- ./inp_files/101667.got.cif
#   From: 2010.05.17/outbox.cif.g08.bks.cpg/sg15_51_cif.got.tgz:101667.got - 2010.06.03 18:47:42.
