data_PCOD9304249
_publ_section_title
;
Structure prediction by ZEFSAII (Michael W. Deem and Ramdas Pophale) SiO2 
 PCOD9304249
Probable space group: C 2/C
;
_chemical_formula_sum "Si O2"
_cell_formula_units_Z 48
_cell_length_a 9.777114
_cell_length_b 19.446928
_cell_length_c 10.331546
_cell_angle_alpha 90.000000
_cell_angle_beta 108.218505
_cell_angle_gamma 90.000000
_cell_volume 1865.914267
_symmetry_space_group_name_H-M "C 2/C"
_symmetry_group_IT_number 15
_symmetry_cell_setting 'monoclinic'
loop_
_space_group_symop_operation_xyz
x,y,z
-x,y,1/2-z
-x,-y,-z
x,-y,1/2+z
1/2+x,1/2+y,z
1/2-x,1/2+y,1/2-z
1/2-x,1/2-y,-z
1/2+x,1/2-y,1/2+z
loop_
_atom_site_type_symbol
_atom_site_label
_atom_site_fract_x
_atom_site_fract_y
_atom_site_fract_z
Si Si1 0.188340 0.172391 0.008427
Si Si2 0.146151 0.969053 0.601634
Si Si3 0.393353 0.124030 0.867045
Si Si4 0.828483 0.333369 0.948238
Si Si5 0.638646 0.688391 0.625149
Si Si6 0.692204 0.012942 0.104707
O O1 0.152602 0.114879 0.108909
O O2 0.250000 0.250000 0.000000
O O3 0.321297 0.133518 0.984128
O O4 0.028046 0.173737 0.899126
O O5 0.176501 0.996130 0.754441
O O6 0.258484 0.998796 0.527661
O O7 0.000000 0.000000 0.500000
O O8 0.536320 0.169591 0.910254
O O9 0.260503 0.148496 0.739935
O O10 0.419973 0.042584 0.870855
O O11 0.683296 0.326431 0.988816
O O12 0.838317 0.270345 0.853089
O O13 0.848618 0.407890 0.895066
#
# Coordination Sequence:
#
# PCOD9304249 Si02
#       6
#     8   8   8   8   8   8
#     4  11  23  43  67 101 139 186 248 305 368 448
#     4  11  24  43  72 105 147 196 248 310 379 453
#     4  11  23  44  68  96 140 185 237 305 374 439
#     4  11  24  42  67 102 138 187 246 297 368 451
#     4  11  24  42  69  98 138 188 240 308 370 440
#     4  11  24  43  69 106 145 193 246 306 377 453
#
# _framework density 25.724654000000001
#
# number of rings (size 3 to 8) (size 9 to 14) (size 15 to 20)
#    0.000    1.000    1.667    5.000    2.333    2.667 
#    0.000    8.333    0.000    0.000    0.000    0.000 
#    0.000    0.000    0.000    0.000    0.000    0.000 
#
# Total GULP energy -133717.156270 kJ/mol
# GULP energy per Si atom -5571.548178 kJ/mol
# Density = 2.566610 g / cm^3
# Si number density = 25.724654 Si / 1000 Ang^3
#
#
#
# Elastic Constant Matrix: (Units=GPa)
#
#
# Indices 1 2 3 4 5 6 
#
# 1 135.3412 11.8471 7.2719 0.0000 25.1878 0.0000
# 2 11.8471 180.7205 8.0540 0.0000 5.0188 0.0000
# 3 7.2719 8.0540 55.6546 0.0000 16.3889 0.0000
# 4 0.0000 0.0000 0.0000 26.5878 0.0000 8.8357
# 5 25.1878 5.0188 16.3889 0.0000 26.6636 0.0000
# 6 0.0000 0.0000 0.0000 8.8357 0.0000 24.0298
#
#
#
# Elastic Compliance Matrix: (Units=1/GPa)
#
#
# Indices 1 2 3 4 5 6 
#
# 1 0.009115 -0.000407 0.001686 0.000000 -0.009570 0.000000
# 2 -0.000407 0.005597 -0.000684 0.000000 -0.000249 0.000000
# 3 0.001686 -0.000684 0.022317 0.000000 -0.015181 0.000000
# 4 0.000000 0.000000 0.000000 0.042847 0.000000 -0.015755
# 5 -0.009570 -0.000249 -0.015181 0.000000 0.055923 0.000000
# 6 0.000000 0.000000 0.000000 -0.015755 0.000000 0.047408
#
#
# Mechanical properties :
#
#
# Convention : Reuss Voigt Hill
#
# Bulk Modulus (GPa) = 26.16384 47.34026 36.75205
# Shear Modulus (GPa) = 25.67316 38.42578 32.04947
#
# Velocity S-wave (km/s) = 3.16254 3.86908 3.53351
# Velocity P-wave (km/s) = 4.85060 6.19696 5.56465
#
# Compressibility (1/GPa) = 0.03822069
#
# Stress axis : x y z
#
# Youngs Moduli (GPa) = 109.71164 178.65245 44.80869
#
# Poissons Ratio (x) = 0.07269 -0.07555
# Poissons Ratio (y) = 0.04464 0.03063
# Poissons Ratio (z) = -0.18498 0.12211
#
# Static dielectric constant tensor:
#      x y z
#    x 2.019920 0.000000 -0.027160 
#    y 0.000000 1.716000 0.000000 
#    z -0.027160 0.000000 2.218540 
# 
# From -- ./inp_files/89140.got.cif
#   From: 2010.05.17/outbox.cif.g08.bks.cpg/sg15_45_cif.got.tgz:89140.got - 2010.06.03 18:47:42.
