data_PCOD9304043
_publ_section_title
;
Structure prediction by ZEFSAII (Michael W. Deem and Ramdas Pophale) SiO2 
 PCOD9304043
Probable space group: C 2/C
;
_chemical_formula_sum "Si O2"
_cell_formula_units_Z 56
_cell_length_a 22.881297
_cell_length_b 15.815049
_cell_length_c 13.998319
_cell_angle_alpha 90.000000
_cell_angle_beta 32.066389
_cell_angle_gamma 90.000000
_cell_volume 2689.311180
_symmetry_space_group_name_H-M "C 2/C"
_symmetry_group_IT_number 15
_symmetry_cell_setting 'monoclinic'
loop_
_space_group_symop_operation_xyz
x,y,z
-x,y,1/2-z
-x,-y,-z
x,-y,1/2+z
1/2+x,1/2+y,z
1/2-x,1/2+y,1/2-z
1/2-x,1/2-y,-z
1/2+x,1/2-y,1/2+z
loop_
_atom_site_type_symbol
_atom_site_label
_atom_site_fract_x
_atom_site_fract_y
_atom_site_fract_z
Si Si1 0.756775 0.515247 0.035396
Si Si2 0.920999 0.075249 0.076967
Si Si3 0.776761 0.994189 0.136377
Si Si4 0.230425 0.640784 0.868294
Si Si5 0.433144 0.736748 0.645121
Si Si6 0.500000 0.213264 0.250000
Si Si7 0.000000 0.567749 0.750000
Si Si8 0.445585 0.087461 0.036369
O O1 0.728601 0.534989 0.965462
O O2 0.886003 0.520910 0.882218
O O3 0.685626 0.571433 0.206506
O O4 0.730636 0.418530 0.097503
O O5 0.883699 0.044600 0.023654
O O6 0.982294 0.163563 0.001789
O O7 0.000000 0.000000 0.000000
O O8 0.752391 0.916526 0.243521
O O9 0.681066 0.062767 0.281614
O O10 0.315105 0.718245 0.759799
O O11 0.102437 0.662954 0.059898
O O12 0.437930 0.735865 0.753020
O O13 0.469894 0.830507 0.564375
O O14 0.024411 0.610027 0.614300
O O15 0.500000 0.000000 0.000000
#
# Coordination Sequence:
#
# PCOD9304043 Si02
#       8
#     8   8   8   8   8   4   4   8
#     4  11  23  41  78 101 137 185 234 281 360 416
#     4  11  24  48  65 104 144 183 231 287 348 428
#     4  11  23  42  76  98 140 186 234 283 353 420
#     4  11  24  47  65 110 139 181 235 292 348 423
#     4  12  28  45  68 107 145 180 237 295 350 418
#     4  12  27  40  74 101 146 178 234 293 360 413
#     4  12  23  44  72 107 132 186 234 293 346 419
#     4  12  25  46  72 102 142 184 235 293 349 411
#
# _framework density 20.823174999999999
#
# number of rings (size 3 to 8) (size 9 to 14) (size 15 to 20)
#    0.000    0.571    7.143    2.571    4.000    0.571 
#    2.571    0.714    0.000    0.000    0.000    0.000 
#    0.000    0.000    0.000    0.000    0.000    0.000 
#
# Total GULP energy -156206.443361 kJ/mol
# GULP energy per Si atom -5578.801549 kJ/mol
# Density = 2.077578 g / cm^3
# Si number density = 20.823175 Si / 1000 Ang^3
#
#
#
# Elastic Constant Matrix: (Units=GPa)
#
#
# Indices 1 2 3 4 5 6 
#
# 1 145.5972 45.5402 37.6278 0.0000 6.4151 0.0000
# 2 45.5402 111.2524 29.6583 0.0000 -8.8464 0.0000
# 3 37.6278 29.6583 63.7273 0.0000 0.1819 0.0000
# 4 0.0000 0.0000 0.0000 4.5612 0.0000 -8.7652
# 5 6.4151 -8.8464 0.1819 0.0000 41.3522 0.0000
# 6 0.0000 0.0000 0.0000 -8.7652 0.0000 32.2935
#
#
#
# Elastic Compliance Matrix: (Units=1/GPa)
#
#
# Indices 1 2 3 4 5 6 
#
# 1 0.008820 -0.002714 -0.003939 0.000000 -0.001932 0.000000
# 2 -0.002714 0.011304 -0.003667 0.000000 0.002855 0.000000
# 3 -0.003939 -0.003667 0.019725 0.000000 -0.000260 0.000000
# 4 0.000000 0.000000 0.000000 0.458273 0.000000 0.124386
# 5 -0.001932 0.002855 -0.000260 0.000000 0.025094 0.000000
# 6 0.000000 0.000000 0.000000 0.124386 0.000000 0.064727
#
#
# Mechanical properties :
#
#
# Convention : Reuss Voigt Hill
#
# Bulk Modulus (GPa) = 52.05725 60.69215 56.37470
# Shear Modulus (GPa) = 8.13026 29.49142 18.81084
#
# Velocity S-wave (km/s) = 1.97811 3.76743 3.00886
# Velocity P-wave (km/s) = 5.50192 6.93790 6.26121
#
# Compressibility (1/GPa) = 0.01920962
#
# Stress axis : x y z
#
# Youngs Moduli (GPa) = 113.37447 88.46442 50.69706
#
# Poissons Ratio (x) = 0.24009 0.19972
# Poissons Ratio (y) = 0.30769 0.18588
# Poissons Ratio (z) = 0.44663 0.32436
#
# Static dielectric constant tensor:
#      x y z
#    x 1.810080 0.000000 -0.046470 
#    y 0.000000 1.758080 0.000000 
#    z -0.046470 0.000000 1.871510 
# 
# From -- ./inp_files/173848.got.cif
#   From: 2010.05.17/outbox.cif.g08.bks.cpg/sg15_87_cif.got.tgz:173848.got - 2010.06.03 18:47:42.
