data_PCOD9304413
_publ_section_title
;
Structure prediction by ZEFSAII (Michael W. Deem and Ramdas Pophale) SiO2 
 PCOD9304413
Probable space group: C 2/C
;
_chemical_formula_sum "Si O2"
_cell_formula_units_Z 40
_cell_length_a 11.293943
_cell_length_b 15.401567
_cell_length_c 10.613401
_cell_angle_alpha 90.000000
_cell_angle_beta 102.929201
_cell_angle_gamma 90.000000
_cell_volume 1799.337175
_symmetry_space_group_name_H-M "C 2/C"
_symmetry_group_IT_number 15
_symmetry_cell_setting 'monoclinic'
loop_
_space_group_symop_operation_xyz
x,y,z
-x,y,1/2-z
-x,-y,-z
x,-y,1/2+z
1/2+x,1/2+y,z
1/2-x,1/2+y,1/2-z
1/2-x,1/2-y,-z
1/2+x,1/2-y,1/2+z
loop_
_atom_site_type_symbol
_atom_site_label
_atom_site_fract_x
_atom_site_fract_y
_atom_site_fract_z
Si Si1 0.766783 0.847829 0.051873
Si Si2 0.026099 0.097631 0.044992
Si Si3 0.687874 0.638219 0.331137
Si Si4 0.863251 0.519930 0.509081
Si Si5 0.643937 0.827795 0.288744
O O1 0.703095 0.855493 0.171441
O O2 0.750000 0.750000 0.000000
O O3 0.909692 0.861902 0.061916
O O4 0.702775 0.930214 0.968325
O O5 0.115594 0.113782 0.185991
O O6 0.900140 0.131945 0.068638
O O7 0.000000 0.000000 0.000000
O O8 0.792812 0.568640 0.378982
O O9 0.718471 0.739886 0.335664
O O10 0.855797 0.591659 0.616889
O O11 0.000000 0.500000 0.500000
O O12 0.500000 0.801578 0.250000
#
# Coordination Sequence:
#
# PCOD9304413 Si02
#       5
#     8   8   8   8   8
#     4  12  25  45  74 102 146 190 248 308 370 440
#     4  11  23  43  78 103 140 188 251 305 367 437
#     4  11  24  48  74 104 149 193 247 308 375 450
#     4  12  28  45  75 107 147 197 250 302 380 453
#     4  12  24  46  74 103 151 199 243 312 381 447
#
# _framework density 22.230409000000002
#
# number of rings (size 3 to 8) (size 9 to 14) (size 15 to 20)
#    0.000    0.400    8.000    0.600    2.800    0.000 
#    0.000    0.000    0.000    0.000    0.000    0.000 
#    0.000    0.000    0.000    0.000    0.000    0.000 
#
# Total GULP energy -111652.868517 kJ/mol
# GULP energy per Si atom -5582.643426 kJ/mol
# Density = 2.217981 g / cm^3
# Si number density = 22.230409 Si / 1000 Ang^3
#
#
#
# Elastic Constant Matrix: (Units=GPa)
#
#
# Indices 1 2 3 4 5 6 
#
# 1 119.7638 32.5606 38.1861 0.0000 -21.8382 0.0000
# 2 32.5606 201.3142 41.7688 0.0000 3.7971 0.0000
# 3 38.1861 41.7688 74.2509 0.0000 -16.0394 0.0000
# 4 0.0000 0.0000 0.0000 49.8536 0.0000 1.8269
# 5 -21.8382 3.7971 -16.0394 0.0000 42.1753 0.0000
# 6 0.0000 0.0000 0.0000 1.8269 0.0000 35.1570
#
#
#
# Elastic Compliance Matrix: (Units=1/GPa)
#
#
# Indices 1 2 3 4 5 6 
#
# 1 0.010643 -0.000955 -0.004061 0.000000 0.004053 0.000000
# 2 -0.000955 0.005847 -0.003289 0.000000 -0.002272 0.000000
# 3 -0.004061 -0.003289 0.018539 0.000000 0.005244 0.000000
# 4 0.000000 0.000000 0.000000 0.020097 0.000000 -0.001044
# 5 0.004053 -0.002272 0.005244 0.000000 0.028008 0.000000
# 6 0.000000 0.000000 0.000000 -0.001044 0.000000 0.028498
#
#
# Mechanical properties :
#
#
# Convention : Reuss Voigt Hill
#
# Bulk Modulus (GPa) = 54.28945 68.92890 61.60917
# Shear Modulus (GPa) = 37.20750 44.29141 40.74945
#
# Velocity S-wave (km/s) = 4.09555 4.46845 4.28606
# Velocity P-wave (km/s) = 6.84390 7.59583 7.22965
#
# Compressibility (1/GPa) = 0.01841979
#
# Stress axis : x y z
#
# Youngs Moduli (GPa) = 93.95630 171.02661 53.94050
#
# Poissons Ratio (x) = 0.16339 0.21904
# Poissons Ratio (y) = 0.08976 0.17739
# Poissons Ratio (z) = 0.38154 0.56244
#
# Static dielectric constant tensor:
#      x y z
#    x 1.844910 0.000000 0.023290 
#    y 0.000000 1.960450 0.000000 
#    z 0.023290 0.000000 1.962860 
# 
# From -- ./inp_files/85735.got.cif
#   From: 2010.05.17/outbox.cif.g08.bks.cpg/sg15_43_cif.got.tgz:85735.got - 2010.06.03 18:47:42.
