data_PCOD9304827
_publ_section_title
;
Structure prediction by ZEFSAII (Michael W. Deem and Ramdas Pophale) SiO2 
 PCOD9304827
Probable space group: C 2/C
;
_chemical_formula_sum "Si O2"
_cell_formula_units_Z 36
_cell_length_a 8.006706
_cell_length_b 13.978736
_cell_length_c 13.314127
_cell_angle_alpha 90.000000
_cell_angle_beta 116.009552
_cell_angle_gamma 90.000000
_cell_volume 1339.242880
_symmetry_space_group_name_H-M "C 2/C"
_symmetry_group_IT_number 15
_symmetry_cell_setting 'monoclinic'
loop_
_space_group_symop_operation_xyz
x,y,z
-x,y,1/2-z
-x,-y,-z
x,-y,1/2+z
1/2+x,1/2+y,z
1/2-x,1/2+y,1/2-z
1/2-x,1/2-y,-z
1/2+x,1/2-y,1/2+z
loop_
_atom_site_type_symbol
_atom_site_label
_atom_site_fract_x
_atom_site_fract_y
_atom_site_fract_z
Si Si1 0.081357 0.402757 0.908757
Si Si2 0.483755 0.610812 0.461200
Si Si3 0.636061 0.724659 0.690973
Si Si4 0.000000 0.053774 0.250000
Si Si5 0.361529 0.921156 0.339758
O O1 0.733801 0.363317 0.592939
O O2 0.908059 0.335351 0.839172
O O3 0.036911 0.510898 0.864579
O O4 0.122246 0.402074 0.037482
O O5 0.500000 0.500000 0.500000
O O6 0.580579 0.674116 0.571468
O O7 0.547322 0.612562 0.363001
O O8 0.500000 0.700132 0.750000
O O9 0.829190 0.677895 0.775010
O O10 0.822776 0.985741 0.226569
#
# Coordination Sequence:
#
# PCOD9304827 Si02
#       5
#     8   8   8   4   8
#     4  11  26  43  80 110 146 203 254 301 377 456
#     4  12  23  45  75 110 154 198 240 309 375 446
#     4  12  24  44  76 114 145 196 254 306 367 455
#     4  12  24  44  72 104 160 206 232 304 384 436
#     4  11  23  47  70 113 149 191 253 311 369 444
#
# _framework density 26.880859999999998
#
# number of rings (size 3 to 8) (size 9 to 14) (size 15 to 20)
#    0.000    0.444    7.778    0.667    3.111    0.000 
#    0.000    1.111    4.889    0.000    0.000    0.000 
#    0.000    0.000    0.000    0.000    0.000    0.000 
#
# Total GULP energy -100967.485104 kJ/mol
# GULP energy per Si atom -5609.304728 kJ/mol
# Density = 2.681968 g / cm^3
# Si number density = 26.880860 Si / 1000 Ang^3
#
#
#
# Elastic Constant Matrix: (Units=GPa)
#
#
# Indices 1 2 3 4 5 6 
#
# 1 79.1231 6.5975 21.2790 0.0000 -10.1708 0.0000
# 2 6.5975 112.4111 24.8618 0.0000 11.8611 0.0000
# 3 21.2790 24.8618 198.7617 0.0000 -21.8153 0.0000
# 4 0.0000 0.0000 0.0000 11.4017 0.0000 4.1398
# 5 -10.1708 11.8611 -21.8153 0.0000 50.9458 0.0000
# 6 0.0000 0.0000 0.0000 4.1398 0.0000 24.9002
#
#
#
# Elastic Compliance Matrix: (Units=1/GPa)
#
#
# Indices 1 2 3 4 5 6 
#
# 1 0.013297 -0.000797 -0.001062 0.000000 0.002385 0.000000
# 2 -0.000797 0.009579 -0.001443 0.000000 -0.003007 0.000000
# 3 -0.001062 -0.001443 0.005602 0.000000 0.002523 0.000000
# 4 0.000000 0.000000 0.000000 0.093341 0.000000 -0.015519
# 5 0.002385 -0.003007 0.002523 0.000000 0.021885 0.000000
# 6 0.000000 0.000000 0.000000 -0.015519 0.000000 0.042740
#
#
# Mechanical properties :
#
#
# Convention : Reuss Voigt Hill
#
# Bulk Modulus (GPa) = 45.71579 55.08584 50.40082
# Shear Modulus (GPa) = 24.95739 39.95337 32.45538
#
# Velocity S-wave (km/s) = 3.05034 3.85946 3.47851
# Velocity P-wave (km/s) = 5.42677 6.35591 5.90963
#
# Compressibility (1/GPa) = 0.02187428
#
# Stress axis : x y z
#
# Youngs Moduli (GPa) = 75.20342 104.39352 178.50054
#
# Poissons Ratio (x) = 0.08323 0.18957
# Poissons Ratio (y) = 0.05996 0.25756
# Poissons Ratio (z) = 0.07987 0.15063
#
# Static dielectric constant tensor:
#      x y z
#    x 2.158480 0.000000 0.002610 
#    y 0.000000 2.082390 0.000000 
#    z 0.002610 0.000000 2.058600 
# 
# From -- ./inp_files/153684.got.cif
#   From: 2010.05.17/outbox.cif.g08.bks.cpg/sg15_77_cif.got.tgz:153684.got - 2010.06.03 18:47:42.
