data_PCOD9304970
_publ_section_title
;
Structure prediction by ZEFSAII (Michael W. Deem and Ramdas Pophale) SiO2 
 PCOD9304970
Probable space group: C 2/C
;
_chemical_formula_sum "Si O2"
_cell_formula_units_Z 56
_cell_length_a 8.851490
_cell_length_b 16.321791
_cell_length_c 19.374451
_cell_angle_alpha 90.000000
_cell_angle_beta 90.000000
_cell_angle_gamma 90.000000
_cell_volume 2799.068975
_symmetry_space_group_name_H-M "C 2/C"
_symmetry_group_IT_number 15
_symmetry_cell_setting 'monoclinic'
loop_
_space_group_symop_operation_xyz
x,y,z
-x,y,1/2-z
-x,-y,-z
x,-y,1/2+z
1/2+x,1/2+y,z
1/2-x,1/2+y,1/2-z
1/2-x,1/2-y,-z
1/2+x,1/2-y,1/2+z
loop_
_atom_site_type_symbol
_atom_site_label
_atom_site_fract_x
_atom_site_fract_y
_atom_site_fract_z
Si Si1 0.495899 0.728053 0.076752
Si Si2 0.221740 0.617159 0.574486
Si Si3 0.995899 0.771947 0.423248
Si Si4 0.826602 0.416245 0.274699
Si Si5 0.750000 0.250000 0.196463
Si Si6 0.778260 0.617159 0.074486
Si Si7 0.673398 0.916245 0.774699
O O1 0.609183 0.805126 0.073924
O O2 0.389395 0.739091 0.142853
O O3 0.607882 0.650724 0.082763
O O4 0.422277 0.723050 0.000000
O O5 0.392118 0.650724 0.582763
O O6 0.177091 0.572744 0.643403
O O7 0.390817 0.805126 0.573924
O O8 0.889395 0.760909 0.357147
O O9 0.208204 0.575061 0.500000
O O10 0.760774 0.330801 0.244927
O O11 0.749849 0.500000 0.250000
O O12 0.000000 0.414218 0.250000
O O13 0.739226 0.169199 0.244927
O O14 0.822909 0.572744 0.143403
O O15 0.500000 0.914218 0.750000
#
# Coordination Sequence:
#
# PCOD9304970 Si02
#       7
#     8   8   8   8   8   8   8
#     4   9  18  33  59  91 118 155 204 237 291 364
#     4   9  18  37  59  82 118 162 196 236 294 361
#     4   9  18  33  59  91 118 155 204 237 291 364
#     4  11  24  40  60  92 121 154 205 245 290 360
#     4  12  21  36  63  86 124 160 188 258 305 330
#     4   9  18  37  59  82 118 162 196 236 294 361
#     4  11  24  40  60  92 121 154 205 245 290 360
#
# _framework density 20.006653
#
# number of rings (size 3 to 8) (size 9 to 14) (size 15 to 20)
#    0.000    2.000    2.857    3.857    0.000    0.000 
#    0.000    8.571    0.000    3.429    0.000    0.000 
#    0.000    0.000    0.000    0.000    0.000    0.000 
#
# Total GULP energy -155952.531060 kJ/mol
# GULP energy per Si atom -5569.733252 kJ/mol
# Density = 1.996112 g / cm^3
# Si number density = 20.006653 Si / 1000 Ang^3
#
#
#
# Elastic Constant Matrix: (Units=GPa)
#
#
# Indices 1 2 3 4 5 6 
#
# 1 58.3548 1.7247 25.0778 0.0000 0.0000 0.0000
# 2 1.7247 84.8029 40.2365 0.0000 0.0000 0.0000
# 3 25.0778 40.2365 186.6670 0.0000 0.0000 0.0000
# 4 0.0000 0.0000 0.0000 -97.9501 0.0000 -0.0001
# 5 0.0000 0.0000 0.0000 0.0000 22.9163 0.0000
# 6 0.0000 0.0000 0.0000 -0.0001 0.0000 -17.0079
#
#
#
# Elastic Compliance Matrix: (Units=1/GPa)
#
#
# Indices 1 2 3 4 5 6 
#
# 1 0.018246 0.000882 -0.002641 0.000000 0.000000 0.000000
# 2 0.000882 0.013178 -0.002959 0.000000 0.000000 0.000000
# 3 -0.002641 -0.002959 0.006350 0.000000 0.000000 0.000000
# 4 0.000000 0.000000 0.000000 -0.010209 0.000000 0.000000
# 5 0.000000 0.000000 0.000000 0.000000 0.043637 0.000000
# 6 0.000000 0.000000 0.000000 0.000000 0.000000 -0.058796
#
#
# Mechanical properties :
#
#
# Convention : Reuss Voigt Hill
#
# Bulk Modulus (GPa) = 35.28955 51.54473 43.41714
# Shear Modulus (GPa) = 159.80891 -0.88930 79.45980
#
# Velocity S-wave (km/s) = 8.94714 -0.66743 6.30895
# Velocity P-wave (km/s) = 11.15402 5.02253 8.64980
#
# Compressibility (1/GPa) = 0.02833700
#
# Stress axis : x y z
#
# Youngs Moduli (GPa) = 54.80770 75.88344 157.48459
#
# Poissons Ratio (x) = -0.06694 0.41597
# Poissons Ratio (y) = -0.04835 0.46601
# Poissons Ratio (z) = 0.14477 0.22455
#
# Static dielectric constant tensor:
#      x y z
#    x 1.721020 0.000000 0.000000 
#    y 0.000000 1.713260 0.000000 
#    z 0.000000 0.000000 1.789340 
# 
# From -- ./inp_files/231557.got.cif
#   From: 2010.05.17/outbox.cif.g08.bks.cpg/sg15_116_cif.got.tgz:231557.got - 2010.06.03 18:47:42.
