data_PCOD9304033
_publ_section_title
;
Structure prediction by ZEFSAII (Michael W. Deem and Ramdas Pophale) SiO2 
 PCOD9304033
Probable space group: C 2/C
;
_chemical_formula_sum "Si O2"
_cell_formula_units_Z 40
_cell_length_a 7.721745
_cell_length_b 21.880946
_cell_length_c 10.359633
_cell_angle_alpha 90.000000
_cell_angle_beta 90.250554
_cell_angle_gamma 90.000000
_cell_volume 1750.337380
_symmetry_space_group_name_H-M "C 2/C"
_symmetry_group_IT_number 15
_symmetry_cell_setting 'monoclinic'
loop_
_space_group_symop_operation_xyz
x,y,z
-x,y,1/2-z
-x,-y,-z
x,-y,1/2+z
1/2+x,1/2+y,z
1/2-x,1/2+y,1/2-z
1/2-x,1/2-y,-z
1/2+x,1/2-y,1/2+z
loop_
_atom_site_type_symbol
_atom_site_label
_atom_site_fract_x
_atom_site_fract_y
_atom_site_fract_z
Si Si1 0.686968 0.439370 0.179458
Si Si2 0.174114 0.191097 0.579834
Si Si3 0.794055 0.843834 0.981979
Si Si4 0.808265 0.479985 0.454928
Si Si5 0.187248 0.747823 0.690333
O O1 0.500000 0.427700 0.250000
O O2 0.761887 0.374231 0.125691
O O3 0.784560 0.475439 0.297889
O O4 0.685065 0.478879 0.047645
O O5 0.250000 0.250000 0.500000
O O6 0.168957 0.222015 0.717618
O O7 0.994876 0.169079 0.517084
O O8 0.772590 0.817801 0.839806
O O9 0.733561 0.911140 0.003896
O O10 0.683783 0.797398 0.068801
O O11 0.000000 0.500000 0.500000
O O12 0.000000 0.743948 0.750000
#
# Coordination Sequence:
#
# PCOD9304033 Si02
#       5
#     8   8   8   8   8
#     4  12  26  49  78 110 159 214 271 331 405 483
#     4  12  24  45  77 110 150 204 255 324 404 477
#     4  11  25  45  69 108 151 198 256 320 392 473
#     4  12  28  48  77 111 157 213 277 336 398 479
#     4  11  23  41  73 108 151 192 248 317 398 467
#
# _framework density 22.852737000000001
#
# number of rings (size 3 to 8) (size 9 to 14) (size 15 to 20)
#    0.000    0.400    6.000    1.800    2.800    2.400 
#    0.000    4.000    0.000    0.000    0.000    0.000 
#    0.000    0.000    0.000    0.000    0.000    0.000 
#
# Total GULP energy -111344.166455 kJ/mol
# GULP energy per Si atom -5567.208323 kJ/mol
# Density = 2.280072 g / cm^3
# Si number density = 22.852737 Si / 1000 Ang^3
#
#
#
# Elastic Constant Matrix: (Units=GPa)
#
#
# Indices 1 2 3 4 5 6 
#
# 1 76.9667 37.8333 34.0667 0.0000 -8.4204 0.0000
# 2 37.8333 133.5393 73.8952 0.0000 -13.8516 0.0000
# 3 34.0667 73.8952 83.3106 0.0000 6.1218 0.0000
# 4 0.0000 0.0000 0.0000 53.3146 0.0000 1.0720
# 5 -8.4204 -13.8516 6.1218 0.0000 43.7590 0.0000
# 6 0.0000 0.0000 0.0000 1.0720 0.0000 24.1874
#
#
#
# Elastic Compliance Matrix: (Units=1/GPa)
#
#
# Indices 1 2 3 4 5 6 
#
# 1 0.016624 -0.000770 -0.006397 0.000000 0.003850 0.000000
# 2 -0.000770 0.016868 -0.015184 0.000000 0.007315 0.000000
# 3 -0.006397 -0.015184 0.028827 0.000000 -0.010070 0.000000
# 4 0.000000 0.000000 0.000000 0.018773 0.000000 -0.000832
# 5 0.003850 0.007315 -0.010070 0.000000 0.027318 0.000000
# 6 0.000000 0.000000 0.000000 -0.000832 0.000000 0.041381
#
#
# Mechanical properties :
#
#
# Convention : Reuss Voigt Hill
#
# Bulk Modulus (GPa) = 56.76800 65.04523 60.90662
# Shear Modulus (GPa) = 24.95442 34.12028 29.53735
#
# Velocity S-wave (km/s) = 3.30808 3.86819 3.59905
# Velocity P-wave (km/s) = 6.28378 6.96241 6.63178
#
# Compressibility (1/GPa) = 0.01761556
#
# Stress axis : x y z
#
# Youngs Moduli (GPa) = 60.15354 59.28537 34.68976
#
# Poissons Ratio (x) = 0.04568 0.22192
# Poissons Ratio (y) = 0.04635 0.52672
# Poissons Ratio (z) = 0.38482 0.90017
#
# Static dielectric constant tensor:
#      x y z
#    x 1.955860 0.000000 0.030790 
#    y 0.000000 1.806110 0.000000 
#    z 0.030790 0.000000 2.410000 
# 
# From -- ./inp_files/77797.got.cif
#   From: 2010.05.17/outbox.cif.g08.bks.cpg/sg15_39_cif.got.tgz:77797.got - 2010.06.03 18:47:42.
