data_PCOD9304370
_publ_section_title
;
Structure prediction by ZEFSAII (Michael W. Deem and Ramdas Pophale) SiO2 
 PCOD9304370
Probable space group: C 2/C
;
_chemical_formula_sum "Si O2"
_cell_formula_units_Z 40
_cell_length_a 19.334528
_cell_length_b 8.361642
_cell_length_c 14.115203
_cell_angle_alpha 90.000000
_cell_angle_beta 51.863046
_cell_angle_gamma 90.000000
_cell_volume 1794.863263
_symmetry_space_group_name_H-M "C 2/C"
_symmetry_group_IT_number 15
_symmetry_cell_setting 'monoclinic'
loop_
_space_group_symop_operation_xyz
x,y,z
-x,y,1/2-z
-x,-y,-z
x,-y,1/2+z
1/2+x,1/2+y,z
1/2-x,1/2+y,1/2-z
1/2-x,1/2-y,-z
1/2+x,1/2-y,1/2+z
loop_
_atom_site_type_symbol
_atom_site_label
_atom_site_fract_x
_atom_site_fract_y
_atom_site_fract_z
Si Si1 0.429400 0.919120 0.426692
Si Si2 0.021666 0.058439 0.876076
Si Si3 0.210140 0.416843 0.566279
Si Si4 0.396825 0.091087 0.169434
Si Si5 0.878973 0.086910 0.372295
O O1 0.384152 0.917474 0.567924
O O2 0.411333 0.755165 0.386559
O O3 0.383424 0.055586 0.404156
O O4 0.531025 0.958665 0.360991
O O5 0.060260 0.235913 0.846534
O O6 0.090873 0.946348 0.760603
O O7 0.933110 0.042424 0.889264
O O8 0.000000 0.000000 0.000000
O O9 0.250000 0.250000 0.500000
O O10 0.190245 0.425142 0.694488
O O11 0.277175 0.553379 0.475688
#
# Coordination Sequence:
#
# PCOD9304370 Si02
#       5
#     8   8   8   8   8
#     4  11  26  45  69 102 136 182 231 278 337 407
#     4  11  23  43  72  97 136 177 231 275 339 410
#     4  12  25  44  69 101 142 176 225 284 344 403
#     4  11  25  45  71 102 135 184 229 276 341 410
#     4  11  25  43  70 102 136 179 224 286 340 402
#
# _framework density 22.285820999999999
#
# number of rings (size 3 to 8) (size 9 to 14) (size 15 to 20)
#    0.000    0.800    4.000    2.400    8.400    3.200 
#    0.000    0.000    0.000    0.000    0.000    0.000 
#    0.000    0.000    0.000    0.000    0.000    0.000 
#
# Total GULP energy -111938.870541 kJ/mol
# GULP energy per Si atom -5596.943527 kJ/mol
# Density = 2.223510 g / cm^3
# Si number density = 22.285821 Si / 1000 Ang^3
#
#
#
# Elastic Constant Matrix: (Units=GPa)
#
#
# Indices 1 2 3 4 5 6 
#
# 1 25.2553 2.7068 21.8894 0.0000 17.0553 0.0000
# 2 2.7068 104.6111 28.8453 -0.0001 15.9038 0.0001
# 3 21.8894 28.8453 212.7899 0.0000 28.8063 0.0000
# 4 0.0000 -0.0001 0.0000 27.6605 0.0000 1.2644
# 5 17.0553 15.9038 28.8063 0.0000 34.5034 0.0000
# 6 0.0000 0.0001 0.0000 1.2644 0.0000 23.9232
#
#
#
# Elastic Compliance Matrix: (Units=1/GPa)
#
#
# Indices 1 2 3 4 5 6 
#
# 1 0.061858 0.003728 -0.002815 0.000000 -0.029945 0.000000
# 2 0.003728 0.010642 -0.001029 0.000000 -0.005889 0.000000
# 3 -0.002815 -0.001029 0.005497 0.000000 -0.002724 0.000000
# 4 0.000000 0.000000 0.000000 0.036240 0.000000 -0.001915
# 5 -0.029945 -0.005889 -0.002724 0.000000 0.048774 0.000000
# 6 0.000000 0.000000 0.000000 -0.001915 0.000000 0.041902
#
#
# Mechanical properties :
#
#
# Convention : Reuss Voigt Hill
#
# Bulk Modulus (GPa) = 12.85906 49.94882 31.40394
# Shear Modulus (GPa) = 21.63885 36.49840 29.06863
#
# Velocity S-wave (km/s) = 3.11942 4.05129 3.61550
# Velocity P-wave (km/s) = 4.33093 6.65924 5.61704
#
# Compressibility (1/GPa) = 0.07776621
#
# Stress axis : x y z
#
# Youngs Moduli (GPa) = 16.16598 93.96957 181.90918
#
# Poissons Ratio (x) = -0.35033 0.51204
# Poissons Ratio (y) = -0.06027 0.18716
# Poissons Ratio (z) = 0.04550 0.09668
#
# Static dielectric constant tensor:
#      x y z
#    x 1.808940 0.000000 -0.014690 
#    y 0.000000 1.831340 0.000000 
#    z -0.014690 0.000000 1.866800 
# 
# From -- ./inp_files/166010.got.cif
#   From: 2010.05.17/outbox.cif.g08.bks.cpg/sg15_84_cif.got.tgz:166010.got - 2010.06.03 18:47:42.
