data_PCOD9304932
_publ_section_title
;
Structure prediction by ZEFSAII (Michael W. Deem and Ramdas Pophale) SiO2 
 PCOD9304932
Probable space group: C 2/C
;
_chemical_formula_sum "Si O2"
_cell_formula_units_Z 40
_cell_length_a 15.250967
_cell_length_b 13.500028
_cell_length_c 19.755992
_cell_angle_alpha 90.000000
_cell_angle_beta 24.688384
_cell_angle_gamma 90.000000
_cell_volume 1698.938130
_symmetry_space_group_name_H-M "C 2/C"
_symmetry_group_IT_number 15
_symmetry_cell_setting 'monoclinic'
loop_
_space_group_symop_operation_xyz
x,y,z
-x,y,1/2-z
-x,-y,-z
x,-y,1/2+z
1/2+x,1/2+y,z
1/2-x,1/2+y,1/2-z
1/2-x,1/2-y,-z
1/2+x,1/2-y,1/2+z
loop_
_atom_site_type_symbol
_atom_site_label
_atom_site_fract_x
_atom_site_fract_y
_atom_site_fract_z
Si Si1 0.955739 0.385349 0.508250
Si Si2 0.578745 0.611939 0.364883
Si Si3 0.305025 0.547401 0.430024
Si Si4 0.705558 0.854301 0.563390
Si Si5 0.621405 0.615215 0.857464
O O1 0.793917 0.346099 0.679697
O O2 0.825400 0.384521 0.529195
O O3 0.000000 0.500000 0.500000
O O4 0.183993 0.345752 0.324677
O O5 0.410978 0.597539 0.421148
O O6 0.443358 0.654726 0.522560
O O7 0.654471 0.503916 0.339092
O O8 0.500000 0.507265 0.250000
O O9 0.171934 0.450970 0.541268
O O10 0.500000 0.842843 0.750000
O O11 0.750000 0.750000 0.500000
O O12 0.910316 0.876287 0.463147
#
# Coordination Sequence:
#
# PCOD9304932 Si02
#       5
#     8   8   8   8   8
#     4   9  17  27  49  76 105 137 163 216 273 315
#     4   8  16  29  47  76 101 134 167 210 274 316
#     4   9  18  32  51  78 113 139 171 217 270 322
#     4  11  24  37  50  70 105 152 186 216 259 324
#     4   9  18  32  49  71  99 135 180 218 262 314
#
# _framework density 23.544118999999998
#
# number of rings (size 3 to 8) (size 9 to 14) (size 15 to 20)
#    0.000    2.800    0.000    1.800   11.200    0.000 
#    0.000    0.000    0.000    0.000    0.000    0.000 
#    0.000   14.400    0.000    0.800    0.000    0.000 
#
# Total GULP energy -111552.100523 kJ/mol
# GULP energy per Si atom -5577.605026 kJ/mol
# Density = 2.349053 g / cm^3
# Si number density = 23.544119 Si / 1000 Ang^3
#
#
#
# Elastic Constant Matrix: (Units=GPa)
#
#
# Indices 1 2 3 4 5 6 
#
# 1 70.8146 1.5324 38.5585 -0.0079 11.0935 0.0109
# 2 1.5324 47.1324 58.0464 -0.0165 12.6897 0.0068
# 3 38.5585 58.0464 248.9311 -0.0381 8.5125 0.0318
# 4 -0.0079 -0.0165 -0.0381 70.8216 0.0196 -16.1983
# 5 11.0935 12.6897 8.5125 0.0196 37.5306 -0.0236
# 6 0.0109 0.0068 0.0318 -16.1983 -0.0236 40.1019
#
#
#
# Elastic Compliance Matrix: (Units=1/GPa)
#
#
# Indices 1 2 3 4 5 6 
#
# 1 0.017001 0.005720 -0.003758 0.000002 -0.006107 -0.000006
# 2 0.005720 0.034690 -0.008583 0.000006 -0.011473 -0.000005
# 3 -0.003758 -0.008583 0.006514 0.000000 0.002535 -0.000001
# 4 0.000002 0.000006 0.000000 0.015557 -0.000007 0.006284
# 5 -0.006107 -0.011473 0.002535 -0.000007 0.031754 0.000018
# 6 -0.000006 -0.000005 -0.000001 0.006284 0.000018 0.027475
#
#
# Mechanical properties :
#
#
# Convention : Reuss Voigt Hill
#
# Bulk Modulus (GPa) = 22.24074 62.57254 42.40664
# Shear Modulus (GPa) = 31.01336 47.60686 39.31011
#
# Velocity S-wave (km/s) = 3.63332 4.50157 4.09055
# Velocity P-wave (km/s) = 5.20272 7.32484 6.35302
#
# Compressibility (1/GPa) = 0.04496252
#
# Stress axis : x y z
#
# Youngs Moduli (GPa) = 58.82129 28.82665 153.51598
#
# Poissons Ratio (x) = -0.16489 0.57696
# Poissons Ratio (y) = -0.33646 1.31760
# Poissons Ratio (z) = 0.22107 0.24741
#
# Static dielectric constant tensor:
#      x y z
#    x 1.982420 0.000170 0.061500 
#    y 0.000170 1.625260 0.000060 
#    z 0.061500 0.000060 1.877790 
# 
# From -- ./inp_files/37840.got.cif
#   From: 2010.05.17/outbox.cif.g08.bks.cpg/sg15_19_cif.got.tgz:37840.got - 2010.06.03 18:47:42.
