data_PCOD9304541
_publ_section_title
;
Structure prediction by ZEFSAII (Michael W. Deem and Ramdas Pophale) SiO2 
 PCOD9304541
Probable space group: C 2/C
;
_chemical_formula_sum "Si O2"
_cell_formula_units_Z 48
_cell_length_a 8.769243
_cell_length_b 25.163080
_cell_length_c 10.404358
_cell_angle_alpha 90.000000
_cell_angle_beta 81.656976
_cell_angle_gamma 90.000000
_cell_volume 2271.541143
_symmetry_space_group_name_H-M "C 2/C"
_symmetry_group_IT_number 15
_symmetry_cell_setting 'monoclinic'
loop_
_space_group_symop_operation_xyz
x,y,z
-x,y,1/2-z
-x,-y,-z
x,-y,1/2+z
1/2+x,1/2+y,z
1/2-x,1/2+y,1/2-z
1/2-x,1/2-y,-z
1/2+x,1/2-y,1/2+z
loop_
_atom_site_type_symbol
_atom_site_label
_atom_site_fract_x
_atom_site_fract_y
_atom_site_fract_z
Si Si1 0.500000 0.375032 0.250000
Si Si2 0.500000 0.618832 0.250000
Si Si3 0.673467 0.176097 0.273016
Si Si4 0.087298 0.944774 0.483806
Si Si5 0.556799 0.166692 0.565894
Si Si6 0.448139 0.042871 0.900685
Si Si7 0.266056 0.206062 0.699953
O O1 0.537700 0.410578 0.367646
O O2 0.362561 0.337029 0.310451
O O3 0.340993 0.648959 0.224938
O O4 0.445609 0.584963 0.379024
O O5 0.500000 0.156012 0.250000
O O6 0.658695 0.173906 0.428495
O O7 0.694419 0.236238 0.223441
O O8 0.265913 0.955279 0.438612
O O9 0.000000 0.000000 0.500000
O O10 0.504279 0.104910 0.584232
O O11 0.403525 0.202452 0.580456
O O12 0.653975 0.186230 0.676744
O O13 0.500000 0.027829 0.750000
O O14 0.500000 0.000000 0.000000
#
# Coordination Sequence:
#
# PCOD9304541 Si02
#       7
#     4   4   8   8   8   8   8
#     4  12  23  46  74 104 146 196 245 308 366 456
#     4  12  27  54  72 114 160 192 243 330 376 442
#     4  12  27  45  75 114 147 197 248 305 378 449
#     4  12  29  47  76 107 148 196 249 312 388 445
#     4  11  23  47  71 100 150 194 240 306 378 441
#     4  12  27  49  76 107 144 197 254 306 377 453
#     4  11  23  44  73 104 143 192 248 300 366 449
#
# _framework density 21.131028000000001
#
# number of rings (size 3 to 8) (size 9 to 14) (size 15 to 20)
#    0.000    0.333    5.833    2.000    9.333    2.667 
#    0.000    0.000    0.000    0.000    0.000    0.000 
#    0.000    0.000    0.000    0.000    0.000    0.000 
#
# Total GULP energy -134111.642725 kJ/mol
# GULP energy per Si atom -5587.985114 kJ/mol
# Density = 2.108293 g / cm^3
# Si number density = 21.131028 Si / 1000 Ang^3
#
#
#
# Elastic Constant Matrix: (Units=GPa)
#
#
# Indices 1 2 3 4 5 6 
#
# 1 167.5681 58.6829 50.2145 0.0000 -16.0543 0.0000
# 2 58.6829 109.3043 49.1686 0.0000 2.1721 0.0000
# 3 50.2145 49.1686 132.1071 0.0000 -19.8708 0.0000
# 4 0.0000 0.0000 0.0000 4.2733 0.0000 9.4098
# 5 -16.0543 2.1721 -19.8708 0.0000 38.6066 0.0000
# 6 0.0000 0.0000 0.0000 9.4098 0.0000 19.0543
#
#
#
# Elastic Compliance Matrix: (Units=1/GPa)
#
#
# Indices 1 2 3 4 5 6 
#
# 1 0.007921 -0.003787 -0.001164 0.000000 0.002908 0.000000
# 2 -0.003787 0.013118 -0.004109 0.000000 -0.004428 0.000000
# 3 -0.001164 -0.004109 0.010301 0.000000 0.005049 0.000000
# 4 0.000000 0.000000 0.000000 -2.675831 0.000000 1.321444
# 5 0.002908 -0.004428 0.005049 0.000000 0.029959 0.000000
# 6 0.000000 0.000000 0.000000 1.321444 0.000000 -0.600106
#
#
# Mechanical properties :
#
#
# Convention : Reuss Voigt Hill
#
# Bulk Modulus (GPa) = 75.64086 80.56796 78.10441
# Shear Modulus (GPa) = -1.56636 29.11439 13.77401
#
# Velocity S-wave (km/s) = -0.86190 3.71590 2.55588
# Velocity P-wave (km/s) = 5.90621 7.52470 6.76404
#
# Compressibility (1/GPa) = 0.01322037
#
# Stress axis : x y z
#
# Youngs Moduli (GPa) = 126.24089 76.22969 97.07931
#
# Poissons Ratio (x) = 0.28868 0.11301
# Poissons Ratio (y) = 0.47807 0.39890
# Poissons Ratio (z) = 0.14696 0.31323
#
# Static dielectric constant tensor:
#      x y z
#    x 4.038150 0.000000 0.143500 
#    y 0.000000 1.700100 0.000000 
#    z 0.143500 0.000000 1.746420 
# 
# From -- ./inp_files/79195.got.cif
#   From: 2010.05.17/outbox.cif.g08.bks.cpg/sg15_40_cif.got.tgz:79195.got - 2010.06.03 18:47:42.
