data_PCOD9304077
_publ_section_title
;
Structure prediction by ZEFSAII (Michael W. Deem and Ramdas Pophale) SiO2 
 PCOD9304077
Probable space group: C 2/C
;
_chemical_formula_sum "Si O2"
_cell_formula_units_Z 40
_cell_length_a 3.432686
_cell_length_b 22.920765
_cell_length_c 17.875276
_cell_angle_alpha 90.000000
_cell_angle_beta 89.880491
_cell_angle_gamma 90.000000
_cell_volume 1406.419887
_symmetry_space_group_name_H-M "C 2/C"
_symmetry_group_IT_number 15
_symmetry_cell_setting 'monoclinic'
loop_
_space_group_symop_operation_xyz
x,y,z
-x,y,1/2-z
-x,-y,-z
x,-y,1/2+z
1/2+x,1/2+y,z
1/2-x,1/2+y,1/2-z
1/2-x,1/2-y,-z
1/2+x,1/2-y,1/2+z
loop_
_atom_site_type_symbol
_atom_site_label
_atom_site_fract_x
_atom_site_fract_y
_atom_site_fract_z
Si Si1 0.506862 0.641089 0.403039
Si Si2 0.736420 0.966810 0.685484
Si Si3 0.006121 0.282197 0.838947
Si Si4 0.496562 0.090929 0.838557
Si Si5 0.004920 0.842178 0.081152
O O1 0.537146 0.575421 0.369507
O O2 0.009946 0.653415 0.388931
O O3 0.005100 0.644743 0.595412
O O4 0.506460 0.648391 0.492125
O O5 0.500000 0.929001 0.750000
O O6 0.000000 0.997136 0.750000
O O7 0.531044 0.020716 0.645271
O O8 0.000394 0.224298 0.889705
O O9 0.000000 0.270936 0.750000
O O10 0.506241 0.299002 0.845927
O O11 0.500000 0.106722 0.750000
O O12 0.993165 0.101829 0.854894
#
# Coordination Sequence:
#
# PCOD9304077 Si02
#       5
#     8   8   8   8   8
#     4  12  25  42  65  97 134 169 214 273 333 388
#     4  11  23  42  67  95 131 175 225 272 322 392
#     4  12  24  42  66  93 129 174 221 265 323 396
#     4  11  23  42  66  93 127 172 221 269 322 390
#     4  12  25  42  66  97 132 168 215 275 334 386
#
# _framework density 28.441006999999999
#
# number of rings (size 3 to 8) (size 9 to 14) (size 15 to 20)
#    0.000    0.400    0.000   11.400    0.000    1.600 
#    0.000    0.000    0.000    0.000    0.000    0.000 
#    0.000    0.000    0.000    0.000    0.000    0.000 
#
# Total GULP energy -111769.624761 kJ/mol
# GULP energy per Si atom -5588.481238 kJ/mol
# Density = 2.837627 g / cm^3
# Si number density = 28.441007 Si / 1000 Ang^3
#
#
#
# Elastic Constant Matrix: (Units=GPa)
#
#
# Indices 1 2 3 4 5 6 
#
# 1 266.9673 47.3086 34.0869 0.0000 -4.3351 0.0000
# 2 47.3086 118.7742 59.7479 0.0000 1.1602 0.0000
# 3 34.0869 59.7479 119.2962 0.0000 -31.7144 0.0000
# 4 0.0000 0.0000 0.0000 51.2668 0.0000 -15.8360
# 5 -4.3351 1.1602 -31.7144 0.0000 108.3432 0.0000
# 6 0.0000 0.0000 0.0000 -15.8360 0.0000 106.7891
#
#
#
# Elastic Compliance Matrix: (Units=1/GPa)
#
#
# Indices 1 2 3 4 5 6 
#
# 1 0.004050 -0.001387 -0.000451 0.000000 0.000045 0.000000
# 2 -0.001387 0.012111 -0.006201 0.000000 -0.002000 0.000000
# 3 -0.000451 -0.006201 0.012611 0.000000 0.003740 0.000000
# 4 0.000000 0.000000 0.000000 0.020442 0.000000 0.003031
# 5 0.000045 -0.002000 0.003740 0.000000 0.010348 0.000000
# 6 0.000000 0.000000 0.000000 0.003031 0.000000 0.009814
#
#
# Mechanical properties :
#
#
# Convention : Reuss Voigt Hill
#
# Bulk Modulus (GPa) = 78.77269 87.48049 83.12659
# Shear Modulus (GPa) = 55.75148 77.53944 66.64546
#
# Velocity S-wave (km/s) = 4.43227 5.22709 4.84600
# Velocity P-wave (km/s) = 7.34509 8.20093 7.78478
#
# Compressibility (1/GPa) = 0.01269475
#
# Stress axis : x y z
#
# Youngs Moduli (GPa) = 246.92575 82.57263 79.29486
#
# Poissons Ratio (x) = 0.11451 0.03573
# Poissons Ratio (y) = 0.34244 0.49170
# Poissons Ratio (z) = 0.11127 0.51203
#
# Static dielectric constant tensor:
#      x y z
#    x 3.090520 0.000000 -0.306450 
#    y 0.000000 1.999620 0.000000 
#    z -0.306450 0.000000 1.987380 
# 
# From -- ./inp_files/185154.got.cif
#   From: 2010.05.17/outbox.cif.g08.bks.cpg/sg15_93_cif.got.tgz:185154.got - 2010.06.03 18:47:42.
