data_PCOD9304673
_publ_section_title
;
Structure prediction by ZEFSAII (Michael W. Deem and Ramdas Pophale) SiO2 
 PCOD9304673
Probable space group: C 2/C
;
_chemical_formula_sum "Si O2"
_cell_formula_units_Z 64
_cell_length_a 12.694263
_cell_length_b 13.796491
_cell_length_c 27.337235
_cell_angle_alpha 90.000000
_cell_angle_beta 36.034258
_cell_angle_gamma 90.000000
_cell_volume 2816.479453
_symmetry_space_group_name_H-M "C 2/C"
_symmetry_group_IT_number 15
_symmetry_cell_setting 'monoclinic'
loop_
_space_group_symop_operation_xyz
x,y,z
-x,y,1/2-z
-x,-y,-z
x,-y,1/2+z
1/2+x,1/2+y,z
1/2-x,1/2+y,1/2-z
1/2-x,1/2-y,-z
1/2+x,1/2-y,1/2+z
loop_
_atom_site_type_symbol
_atom_site_label
_atom_site_fract_x
_atom_site_fract_y
_atom_site_fract_z
Si Si1 0.133387 0.722385 0.740857
Si Si2 0.310567 0.544718 0.086523
Si Si3 0.448722 0.219210 0.911123
Si Si4 0.519481 0.999584 0.619667
Si Si5 0.627856 0.458863 0.154121
Si Si6 0.381585 0.873029 0.594083
Si Si7 0.346201 0.237695 0.573130
Si Si8 0.172851 0.973253 0.309781
O O1 0.234094 0.813281 0.679755
O O2 0.275858 0.640031 0.701966
O O3 0.000000 0.680979 0.750000
O O4 0.011201 0.746980 0.833425
O O5 0.289969 0.656235 0.077261
O O6 0.302649 0.524851 0.147345
O O7 0.156169 0.494633 0.113089
O O8 0.500000 0.500000 0.000000
O O9 0.593464 0.259049 0.894273
O O10 0.465678 0.103748 0.910751
O O11 0.250000 0.250000 0.000000
O O12 0.531014 0.916729 0.574745
O O13 0.323129 0.988191 0.716374
O O14 0.500000 0.465002 0.250000
O O15 0.784938 0.537020 0.103712
O O16 0.705236 0.349572 0.123169
O O17 0.515804 0.481512 0.147076
O O18 0.478937 0.800280 0.520833
#
# Coordination Sequence:
#
# PCOD9304673 Si02
#       8
#     8   8   8   8   8   8   8   8
#     4  11  24  44  75 106 145 195 246 295 363 444
#     4  12  28  47  74 108 145 194 243 297 374 436
#     4  11  23  45  73 108 143 188 249 305 359 429
#     4  11  25  47  71 103 149 188 242 301 364 439
#     4  12  25  48  73 109 144 190 247 300 370 437
#     4  12  26  47  72 107 147 197 241 300 376 434
#     4  12  28  45  71 110 146 188 245 310 364 434
#     4  11  25  48  74 105 145 189 243 303 359 439
#
# _framework density 22.723403999999999
#
# number of rings (size 3 to 8) (size 9 to 14) (size 15 to 20)
#    0.000    0.500    2.500    5.625    5.250    2.500 
#    0.000    0.000    0.000    0.000    0.000    0.000 
#    0.000    0.000    0.000    0.000    0.000    0.000 
#
# Total GULP energy -179172.837590 kJ/mol
# GULP energy per Si atom -5599.151175 kJ/mol
# Density = 2.267168 g / cm^3
# Si number density = 22.723404 Si / 1000 Ang^3
#
#
#
# Elastic Constant Matrix: (Units=GPa)
#
#
# Indices 1 2 3 4 5 6 
#
# 1 112.2345 -29.7438 3.6570 0.0001 -4.1399 -0.0001
# 2 -29.7438 30.5101 6.6670 0.0006 0.6533 -0.0002
# 3 3.6570 6.6670 83.1329 0.0002 9.9357 -0.0003
# 4 0.0001 0.0006 0.0002 22.8482 -0.0001 4.4863
# 5 -4.1399 0.6533 9.9357 -0.0001 29.1785 0.0001
# 6 -0.0001 -0.0002 -0.0003 4.4863 0.0001 22.5296
#
#
#
# Elastic Compliance Matrix: (Units=1/GPa)
#
#
# Indices 1 2 3 4 5 6 
#
# 1 0.012319 0.012354 -0.001781 0.000000 0.002078 0.000000
# 2 0.012354 0.045751 -0.004482 -0.000001 0.002255 0.000001
# 3 -0.001781 -0.004482 0.013015 0.000000 -0.004584 0.000000
# 4 0.000000 -0.000001 0.000000 0.045548 0.000000 -0.009070
# 5 0.002078 0.002255 -0.004584 0.000000 0.036077 0.000000
# 6 0.000000 0.000001 0.000000 -0.009070 0.000000 0.046192
#
#
# Mechanical properties :
#
#
# Convention : Reuss Voigt Hill
#
# Bulk Modulus (GPa) = 12.00975 20.78198 16.39587
# Shear Modulus (GPa) = 23.31281 31.26442 27.28862
#
# Velocity S-wave (km/s) = 3.20650 3.71329 3.46917
# Velocity P-wave (km/s) = 4.35953 5.24883 4.82472
#
# Compressibility (1/GPa) = 0.08326567
#
# Stress axis : x y z
#
# Youngs Moduli (GPa) = 81.17858 21.85758 76.83696
#
# Poissons Ratio (x) = -0.27002 0.13684
# Poissons Ratio (y) = -1.00286 0.34438
# Poissons Ratio (z) = 0.14457 0.09796
#
# Static dielectric constant tensor:
#      x y z
#    x 1.823820 0.000000 0.049460 
#    y 0.000000 1.826610 0.000000 
#    z 0.049460 0.000000 2.206160 
# 
# From -- ./inp_files/293066.got.cif
#   From: 2010.05.17/outbox.cif.g08.bks.cpg/sg15_147_cif.got.tgz:293066.got - 2010.06.03 18:47:42.
