data_PCOD9304386
_publ_section_title
;
Structure prediction by ZEFSAII (Michael W. Deem and Ramdas Pophale) SiO2 
 PCOD9304386
Probable space group: C 2/C
;
_chemical_formula_sum "Si O2"
_cell_formula_units_Z 44
_cell_length_a 11.696451
_cell_length_b 27.493696
_cell_length_c 8.855309
_cell_angle_alpha 90.000000
_cell_angle_beta 134.419348
_cell_angle_gamma 90.000000
_cell_volume 2033.915542
_symmetry_space_group_name_H-M "C 2/C"
_symmetry_group_IT_number 15
_symmetry_cell_setting 'monoclinic'
loop_
_space_group_symop_operation_xyz
x,y,z
-x,y,1/2-z
-x,-y,-z
x,-y,1/2+z
1/2+x,1/2+y,z
1/2-x,1/2+y,1/2-z
1/2-x,1/2-y,-z
1/2+x,1/2-y,1/2+z
loop_
_atom_site_type_symbol
_atom_site_label
_atom_site_fract_x
_atom_site_fract_y
_atom_site_fract_z
Si Si1 0.380728 0.518667 0.258225
Si Si2 0.423860 0.801977 0.018553
Si Si3 0.271532 0.916781 0.441082
Si Si4 0.338914 0.740158 0.425716
Si Si5 0.500000 0.343459 0.250000
Si Si6 0.604059 0.908634 0.609325
O O1 0.500000 0.544179 0.250000
O O2 0.500000 0.500000 0.500000
O O3 0.306836 0.469780 0.118554
O O4 0.229277 0.551660 0.163455
O O5 0.500000 0.789996 0.250000
O O6 0.555921 0.786879 0.016411
O O7 0.272746 0.771474 0.820049
O O8 0.383369 0.858650 0.969952
O O9 0.131633 0.877597 0.291741
O O10 0.414395 0.920581 0.450417
O O11 0.342389 0.901515 0.668266
O O12 0.250000 0.750000 0.500000
O O13 0.437192 0.691906 0.559690
#
# Coordination Sequence:
#
# PCOD9304386 Si02
#       6
#     8   8   8   8   4   8
#     4  12  24  46  72 105 149 190 241 309 375 444
#     4  12  27  47  69 111 155 191 244 314 381 434
#     4  11  23  43  73 107 147 188 258 305 360 455
#     4  12  24  44  76 106 147 200 253 301 367 454
#     4  12  20  40  76 112 138 198 258 304 358 436
#     4  11  25  44  73 106 146 199 247 301 377 446
#
# _framework density 21.633151999999999
#
# number of rings (size 3 to 8) (size 9 to 14) (size 15 to 20)
#    0.000    0.364    6.364    2.182    2.545    1.455 
#    3.273    4.545    0.000    0.000    0.000    0.000 
#    0.000    0.000    0.000    0.000    0.000    0.000 
#
# Total GULP energy -122872.200082 kJ/mol
# GULP energy per Si atom -5585.100004 kJ/mol
# Density = 2.158391 g / cm^3
# Si number density = 21.633152 Si / 1000 Ang^3
#
#
#
# Elastic Constant Matrix: (Units=GPa)
#
#
# Indices 1 2 3 4 5 6 
#
# 1 123.1187 42.7462 26.3316 0.0000 17.2543 0.0000
# 2 42.7462 96.2858 34.1492 0.0000 15.7657 0.0000
# 3 26.3316 34.1492 109.7788 0.0000 7.9142 0.0000
# 4 0.0000 0.0000 0.0000 30.6322 0.0000 13.6709
# 5 17.2543 15.7657 7.9142 0.0000 30.6745 0.0000
# 6 0.0000 0.0000 0.0000 13.6709 0.0000 46.7031
#
#
#
# Elastic Compliance Matrix: (Units=1/GPa)
#
#
# Indices 1 2 3 4 5 6 
#
# 1 0.010070 -0.003505 -0.001066 0.000000 -0.003588 0.000000
# 2 -0.003505 0.013754 -0.003128 0.000000 -0.004290 0.000000
# 3 -0.001066 -0.003128 0.010372 0.000000 -0.000468 0.000000
# 4 0.000000 0.000000 0.000000 0.037551 0.000000 -0.010992
# 5 -0.003588 -0.004290 -0.000468 0.000000 0.036944 0.000000
# 6 0.000000 0.000000 0.000000 -0.010992 0.000000 0.024629
#
#
# Mechanical properties :
#
#
# Convention : Reuss Voigt Hill
#
# Bulk Modulus (GPa) = 53.20241 59.51526 56.35884
# Shear Modulus (GPa) = 32.26106 36.66571 34.46338
#
# Velocity S-wave (km/s) = 3.86590 4.12136 3.99567
# Velocity P-wave (km/s) = 6.67632 7.08649 6.88446
#
# Compressibility (1/GPa) = 0.01879614
#
# Stress axis : x y z
#
# Youngs Moduli (GPa) = 99.30467 72.70722 96.41380
#
# Poissons Ratio (x) = 0.25483 0.10282
# Poissons Ratio (y) = 0.34805 0.30163
# Poissons Ratio (z) = 0.10591 0.22746
#
# Static dielectric constant tensor:
#      x y z
#    x 1.846400 0.000000 0.052390 
#    y 0.000000 1.775280 0.000000 
#    z 0.052390 0.000000 1.847270 
# 
# From -- ./inp_files/34491.got.cif
#   From: 2010.05.17/outbox.cif.g08.bks.cpg/sg15_18_cif.got.tgz:34491.got - 2010.06.03 18:47:42.
