data_PCOD9304353
_publ_section_title
;
Structure prediction by ZEFSAII (Michael W. Deem and Ramdas Pophale) SiO2 
 PCOD9304353
Probable space group: C 2/C
;
_chemical_formula_sum "Si O2"
_cell_formula_units_Z 64
_cell_length_a 12.359609
_cell_length_b 14.873709
_cell_length_c 30.474159
_cell_angle_alpha 90.000000
_cell_angle_beta 35.833977
_cell_angle_gamma 90.000000
_cell_volume 3279.722141
_symmetry_space_group_name_H-M "C 2/C"
_symmetry_group_IT_number 15
_symmetry_cell_setting 'monoclinic'
loop_
_space_group_symop_operation_xyz
x,y,z
-x,y,1/2-z
-x,-y,-z
x,-y,1/2+z
1/2+x,1/2+y,z
1/2-x,1/2+y,1/2-z
1/2-x,1/2-y,-z
1/2+x,1/2-y,1/2+z
loop_
_atom_site_type_symbol
_atom_site_label
_atom_site_fract_x
_atom_site_fract_y
_atom_site_fract_z
Si Si1 0.324961 0.158704 0.698201
Si Si2 0.062705 0.672796 0.279351
Si Si3 0.272689 0.930426 0.927387
Si Si4 0.125730 0.068435 0.903088
Si Si5 0.749115 0.578160 0.095706
Si Si6 0.512058 0.041632 0.568416
Si Si7 0.879698 0.737097 0.830531
Si Si8 0.646753 0.485101 0.801315
O O1 0.158591 0.230034 0.750212
O O2 0.416798 0.128151 0.622188
O O3 0.483111 0.201024 0.676986
O O4 0.249033 0.067036 0.744108
O O5 0.217658 0.599539 0.240561
O O6 0.000000 0.657156 0.250000
O O7 0.892220 0.650861 0.367836
O O8 0.226737 0.000775 0.903545
O O9 0.385905 0.984108 0.927366
O O10 0.073421 0.904115 0.012268
O O11 0.254760 0.154770 0.855352
O O12 0.101117 0.017817 0.865395
O O13 0.860478 0.520293 0.094529
O O14 0.741999 0.681885 0.111474
O O15 0.540632 0.542574 0.160915
O O16 0.845098 0.567861 0.016764
O O17 0.000000 0.770405 0.750000
#
# Coordination Sequence:
#
# PCOD9304353 Si02
#       8
#     8   8   8   8   8   8   8   8
#     4  12  27  43  72 101 139 180 231 281 340 411
#     4  12  26  44  68 106 138 175 232 288 341 406
#     4  11  23  43  72 101 134 180 227 286 346 399
#     4  11  23  43  72 101 135 177 229 290 342 403
#     4  11  28  46  68  96 142 188 225 279 345 414
#     4  11  25  48  68  97 139 184 229 275 347 416
#     4  12  25  44  69 105 133 179 232 282 340 411
#     4  12  23  45  69 101 136 182 228 286 340 408
#
# _framework density 19.513847999999999
#
# number of rings (size 3 to 8) (size 9 to 14) (size 15 to 20)
#    0.000    0.500    7.500    0.000    5.250    1.500 
#    2.250    1.250    0.000    0.000    0.000    0.000 
#    0.000    0.000    0.000    0.000    0.000    0.000 
#
# Total GULP energy -179013.781100 kJ/mol
# GULP energy per Si atom -5594.180659 kJ/mol
# Density = 1.946943 g / cm^3
# Si number density = 19.513848 Si / 1000 Ang^3
#
#
#
# Elastic Constant Matrix: (Units=GPa)
#
#
# Indices 1 2 3 4 5 6 
#
# 1 65.4649 16.9882 27.5651 0.0003 -10.2083 0.0008
# 2 16.9882 65.0622 14.2219 0.0002 -1.6929 0.0002
# 3 27.5651 14.2219 58.3784 0.0005 3.0145 -0.0019
# 4 0.0003 0.0002 0.0005 37.9737 -0.0002 -4.9099
# 5 -10.2083 -1.6929 3.0145 -0.0002 24.1797 0.0007
# 6 0.0008 0.0002 -0.0019 -4.9099 0.0007 14.5813
#
#
#
# Elastic Compliance Matrix: (Units=1/GPa)
#
#
# Indices 1 2 3 4 5 6 
#
# 1 0.021993 -0.003261 -0.010123 0.000000 0.010319 -0.000003
# 2 -0.003261 0.016783 -0.002555 0.000000 0.000117 0.000000
# 3 -0.010123 -0.002555 0.022909 0.000000 -0.007309 0.000004
# 4 0.000000 0.000000 0.000000 0.027533 0.000000 0.009271
# 5 0.010319 0.000117 -0.007309 0.000000 0.046633 -0.000004
# 6 -0.000003 0.000000 0.000004 0.009271 -0.000004 0.071703
#
#
# Mechanical properties :
#
#
# Convention : Reuss Voigt Hill
#
# Bulk Modulus (GPa) = 33.54881 34.05064 33.79972
# Shear Modulus (GPa) = 20.05069 24.02230 22.03649
#
# Velocity S-wave (km/s) = 3.20896 3.51242 3.36411
# Velocity P-wave (km/s) = 5.56413 5.82553 5.69633
#
# Compressibility (1/GPa) = 0.02980732
#
# Stress axis : x y z
#
# Youngs Moduli (GPa) = 45.46841 59.58440 43.65038
#
# Poissons Ratio (x) = 0.19432 0.44188
# Poissons Ratio (y) = 0.14829 0.11151
# Poissons Ratio (z) = 0.46028 0.15222
#
# Static dielectric constant tensor:
#      x y z
#    x 1.656800 0.000000 0.003540 
#    y 0.000000 1.639660 0.000000 
#    z 0.003540 0.000000 1.686140 
# 
# From -- ./inp_files/311191.got.cif
#   From: 2010.05.17/outbox.cif.g08.bks.cpg/sg15_156_cif.got.tgz:311191.got - 2010.06.03 18:47:42.
