data_PCOD9304173
_publ_section_title
;
Structure prediction by ZEFSAII (Michael W. Deem and Ramdas Pophale) SiO2 
 PCOD9304173
Probable space group: C 2/C
;
_chemical_formula_sum "Si O2"
_cell_formula_units_Z 44
_cell_length_a 16.712875
_cell_length_b 11.749505
_cell_length_c 26.885503
_cell_angle_alpha 90.000000
_cell_angle_beta 22.352068
_cell_angle_gamma 90.000000
_cell_volume 2007.758930
_symmetry_space_group_name_H-M "C 2/C"
_symmetry_group_IT_number 15
_symmetry_cell_setting 'monoclinic'
loop_
_space_group_symop_operation_xyz
x,y,z
-x,y,1/2-z
-x,-y,-z
x,-y,1/2+z
1/2+x,1/2+y,z
1/2-x,1/2+y,1/2-z
1/2-x,1/2-y,-z
1/2+x,1/2-y,1/2+z
loop_
_atom_site_type_symbol
_atom_site_label
_atom_site_fract_x
_atom_site_fract_y
_atom_site_fract_z
Si Si1 0.000000 0.562168 0.250000
Si Si2 0.954572 0.201388 0.133923
Si Si3 0.878116 0.423572 0.415575
Si Si4 0.580819 0.628905 0.454074
Si Si5 0.231001 0.976004 0.099637
Si Si6 0.854791 0.344816 0.604757
O O1 0.008243 0.487827 0.194783
O O2 0.214363 0.632962 0.129245
O O3 0.861647 0.177536 0.133320
O O4 0.812077 0.136162 0.255872
O O5 0.979459 0.332473 0.136362
O O6 0.187520 0.148026 0.000966
O O7 0.774001 0.506936 0.516484
O O8 0.500000 0.500000 0.500000
O O9 0.395614 0.711539 0.577425
O O10 0.000000 0.936929 0.250000
O O11 0.264910 0.099039 0.106600
O O12 0.419448 0.899588 0.012809
#
# Coordination Sequence:
#
# PCOD9304173 Si02
#       6
#     4   8   8   8   8   8
#     4  12  26  44  70 102 148 186 238 284 368 416
#     4  11  23  42  71 102 137 176 244 284 353 405
#     4  11  23  42  73 102 136 185 233 296 338 426
#     4  12  25  47  68 104 142 186 229 295 353 423
#     4  11  23  46  71  98 140 178 241 286 353 419
#     4  11  25  43  70 101 138 189 224 298 351 423
#
# _framework density 21.914981000000001
#
# number of rings (size 3 to 8) (size 9 to 14) (size 15 to 20)
#    0.000    0.727    5.455    2.182    1.273    0.000 
#    4.909    1.818    0.000    0.000    0.000    0.000 
#    0.000    0.000    0.000    0.000    0.000    0.000 
#
# Total GULP energy -123008.797056 kJ/mol
# GULP energy per Si atom -5591.308957 kJ/mol
# Density = 2.186510 g / cm^3
# Si number density = 21.914981 Si / 1000 Ang^3
#
#
#
# Elastic Constant Matrix: (Units=GPa)
#
#
# Indices 1 2 3 4 5 6 
#
# 1 86.8164 7.9987 12.5576 -0.0040 14.9614 -0.0101
# 2 7.9987 61.8487 7.4801 -0.0024 -1.5517 -0.0028
# 3 12.5576 7.4801 90.7737 -0.0153 14.9676 -0.0093
# 4 -0.0040 -0.0024 -0.0153 27.9117 0.0044 -1.3475
# 5 14.9614 -1.5517 14.9676 0.0044 38.8649 0.0166
# 6 -0.0101 -0.0028 -0.0093 -1.3475 0.0166 26.2628
#
#
#
# Elastic Compliance Matrix: (Units=1/GPa)
#
#
# Indices 1 2 3 4 5 6 
#
# 1 0.012582 -0.001639 -0.000850 0.000002 -0.004582 0.000007
# 2 -0.001639 0.016602 -0.001446 0.000000 0.001851 -0.000001
# 3 -0.000850 -0.001446 0.011969 0.000007 -0.004340 0.000007
# 4 0.000002 0.000000 0.000007 0.035916 -0.000009 0.001843
# 5 -0.004582 0.001851 -0.004340 -0.000009 0.029239 -0.000022
# 6 0.000007 -0.000001 0.000007 0.001843 -0.000022 0.038171
#
#
# Mechanical properties :
#
#
# Convention : Reuss Voigt Hill
#
# Bulk Modulus (GPa) = 30.04713 32.83463 31.44088
# Shear Modulus (GPa) = 30.59130 32.70135 31.64633
#
# Velocity S-wave (km/s) = 3.74024 3.86708 3.80419
# Velocity P-wave (km/s) = 5.69149 5.91222 5.80290
#
# Compressibility (1/GPa) = 0.03328105
#
# Stress axis : x y z
#
# Youngs Moduli (GPa) = 79.47772 60.23413 83.55054
#
# Poissons Ratio (x) = 0.09875 0.07102
# Poissons Ratio (y) = 0.13029 0.12085
# Poissons Ratio (z) = 0.06756 0.08713
#
# Static dielectric constant tensor:
#      x y z
#    x 1.798100 0.000000 0.017310 
#    y 0.000000 1.824210 0.000000 
#    z 0.017310 0.000000 1.781340 
# 
# From -- ./inp_files/104105.got.cif
#   From: 2010.05.17/outbox.cif.g08.bks.cpg/sg15_53_cif.got.tgz:104105.got - 2010.06.03 18:47:42.
