data_PCOD9304017
_publ_section_title
;
Structure prediction by ZEFSAII (Michael W. Deem and Ramdas Pophale) SiO2 
 PCOD9304017
Probable space group: C 2/C
;
_chemical_formula_sum "Si O2"
_cell_formula_units_Z 48
_cell_length_a 20.177514
_cell_length_b 10.910611
_cell_length_c 13.533099
_cell_angle_alpha 90.000000
_cell_angle_beta 129.443757
_cell_angle_gamma 90.000000
_cell_volume 2300.758944
_symmetry_space_group_name_H-M "C 2/C"
_symmetry_group_IT_number 15
_symmetry_cell_setting 'monoclinic'
loop_
_space_group_symop_operation_xyz
x,y,z
-x,y,1/2-z
-x,-y,-z
x,-y,1/2+z
1/2+x,1/2+y,z
1/2-x,1/2+y,1/2-z
1/2-x,1/2-y,-z
1/2+x,1/2-y,1/2+z
loop_
_atom_site_type_symbol
_atom_site_label
_atom_site_fract_x
_atom_site_fract_y
_atom_site_fract_z
Si Si1 0.032917 0.069286 0.434799
Si Si2 0.500000 0.759026 0.250000
Si Si3 0.161179 0.304253 0.868391
Si Si4 0.232464 0.360326 0.724448
Si Si5 0.000000 0.866216 0.250000
Si Si6 0.777811 0.888998 0.361091
Si Si7 0.162578 0.570649 0.943317
O O1 0.121865 0.139810 0.535728
O O2 0.978171 0.169566 0.322246
O O3 0.000000 0.000000 0.500000
O O4 0.042447 0.956205 0.369621
O O5 0.418895 0.845234 0.155674
O O6 0.174458 0.338858 0.766276
O O7 0.080202 0.214705 0.792529
O O8 0.141025 0.427573 0.909919
O O9 0.250000 0.250000 0.000000
O O10 0.269419 0.223626 0.738804
O O11 0.281397 0.482371 0.805976
O O12 0.194070 0.399100 0.582781
O O13 0.735192 0.904343 0.428313
#
# Coordination Sequence:
#
# PCOD9304017 Si02
#       7
#     8   4   8   8   4   8   8
#     4  11  25  42  67  99 139 181 236 285 355 417
#     4  11  25  44  66 102 141 185 228 296 342 427
#     4  11  24  46  67 101 139 178 233 291 354 425
#     4  11  23  41  70  97 135 180 231 285 355 414
#     4  11  23  42  68  94 135 181 224 296 348 415
#     4  11  24  42  68 102 134 187 230 299 344 429
#     4  11  24  44  67 100 139 179 236 286 355 422
#
# _framework density 20.862680000000001
#
# number of rings (size 3 to 8) (size 9 to 14) (size 15 to 20)
#    0.000    1.000    1.667    5.000    2.333    1.333 
#    3.000    4.167    0.000    0.000    0.000    0.000 
#    0.000    0.000    0.000    0.000    0.000    0.000 
#
# Total GULP energy -133843.892879 kJ/mol
# GULP energy per Si atom -5576.828870 kJ/mol
# Density = 2.081520 g / cm^3
# Si number density = 20.862680 Si / 1000 Ang^3
#
#
#
# Elastic Constant Matrix: (Units=GPa)
#
#
# Indices 1 2 3 4 5 6 
#
# 1 48.8150 11.0275 36.3438 0.0000 -6.4854 0.0000
# 2 11.0275 130.0179 25.3837 0.0000 -4.5368 0.0000
# 3 36.3438 25.3837 78.3470 0.0000 -14.8784 0.0000
# 4 0.0000 0.0000 0.0000 33.7324 0.0000 5.3041
# 5 -6.4854 -4.5368 -14.8784 0.0000 30.9613 0.0000
# 6 0.0000 0.0000 0.0000 5.3041 0.0000 28.8227
#
#
#
# Elastic Compliance Matrix: (Units=1/GPa)
#
#
# Indices 1 2 3 4 5 6 
#
# 1 0.031304 0.000193 -0.014672 0.000000 -0.000465 0.000000
# 2 0.000193 0.008212 -0.002767 0.000000 -0.000086 0.000000
# 3 -0.014672 -0.002767 0.021795 0.000000 0.006995 0.000000
# 4 0.000000 0.000000 0.000000 0.030528 0.000000 -0.005618
# 5 -0.000465 -0.000086 0.006995 0.000000 0.035550 0.000000
# 6 0.000000 0.000000 0.000000 -0.005618 0.000000 0.035729
#
#
# Mechanical properties :
#
#
# Convention : Reuss Voigt Hill
#
# Bulk Modulus (GPa) = 37.28659 44.74330 41.01495
# Shear Modulus (GPa) = 24.20745 30.99829 27.60287
#
# Velocity S-wave (km/s) = 3.41005 3.85882 3.64135
# Velocity P-wave (km/s) = 5.78064 6.43017 6.11404
#
# Compressibility (1/GPa) = 0.02681929
#
# Stress axis : x y z
#
# Youngs Moduli (GPa) = 31.94498 121.77323 45.88297
#
# Poissons Ratio (x) = -0.02353 0.67321
# Poissons Ratio (y) = -0.00617 0.12694
# Poissons Ratio (z) = 0.46871 0.33689
#
# Static dielectric constant tensor:
#      x y z
#    x 1.746100 0.000000 -0.028480 
#    y 0.000000 1.865150 0.000000 
#    z -0.028480 0.000000 1.815750 
# 
# From -- ./inp_files/111835.got.cif
#   From: 2010.05.17/outbox.cif.g08.bks.cpg/sg15_56_cif.got.tgz:111835.got - 2010.06.03 18:47:42.
