data_PCOD9304333
_publ_section_title
;
Structure prediction by ZEFSAII (Michael W. Deem and Ramdas Pophale) SiO2 
 PCOD9304333
Probable space group: C 2/C
;
_chemical_formula_sum "Si O2"
_cell_formula_units_Z 52
_cell_length_a 10.365258
_cell_length_b 25.750017
_cell_length_c 11.238216
_cell_angle_alpha 90.000000
_cell_angle_beta 63.356127
_cell_angle_gamma 90.000000
_cell_volume 2681.024370
_symmetry_space_group_name_H-M "C 2/C"
_symmetry_group_IT_number 15
_symmetry_cell_setting 'monoclinic'
loop_
_space_group_symop_operation_xyz
x,y,z
-x,y,1/2-z
-x,-y,-z
x,-y,1/2+z
1/2+x,1/2+y,z
1/2-x,1/2+y,1/2-z
1/2-x,1/2-y,-z
1/2+x,1/2-y,1/2+z
loop_
_atom_site_type_symbol
_atom_site_label
_atom_site_fract_x
_atom_site_fract_y
_atom_site_fract_z
Si Si1 0.000000 0.127438 0.750000
Si Si2 0.716410 0.199468 0.857288
Si Si3 0.485793 0.437930 0.015478
Si Si4 0.264103 0.087369 0.258112
Si Si5 0.828532 0.420607 0.454704
Si Si6 0.347759 0.192416 0.353536
Si Si7 0.000000 0.666580 0.750000
Si Si8 0.000000 0.494147 0.750000
O O1 0.137733 0.165053 0.717209
O O2 0.023941 0.089997 0.625322
O O3 0.739883 0.260393 0.873904
O O4 0.614265 0.195680 0.785552
O O5 0.649537 0.178214 0.008458
O O6 0.600109 0.418132 0.870571
O O7 0.500000 0.500000 0.000000
O O8 0.319315 0.425878 0.057703
O O9 0.316846 0.141950 0.288845
O O10 0.366884 0.042171 0.267649
O O11 0.284223 0.083404 0.109394
O O12 0.936160 0.468233 0.378945
O O13 0.911049 0.369908 0.376198
O O14 0.500000 0.214336 0.250000
#
# Coordination Sequence:
#
# PCOD9304333 Si02
#       8
#     4   8   8   8   8   8   4   4
#     4  12  24  47  72  92 140 183 228 272 344 410
#     4  11  24  46  72  99 131 180 229 275 344 408
#     4  12  26  42  65  97 133 183 224 278 335 408
#     4  12  24  42  66  98 134 174 224 283 340 395
#     4  11  25  43  63  97 136 173 226 278 337 400
#     4  11  23  43  71 100 131 174 227 282 335 411
#     4  11  24  46  70  96 136 178 220 285 334 402
#     4  11  24  41  68  94 132 185 224 271 338 410
#
# _framework density 19.395572000000001
#
# number of rings (size 3 to 8) (size 9 to 14) (size 15 to 20)
#    0.000    0.615    6.154    1.846    2.154    0.000 
#    2.769    1.538    0.000    0.000    0.000    0.000 
#    0.000    0.000    0.000    0.000    0.000    0.000 
#
# Total GULP energy -145192.225789 kJ/mol
# GULP energy per Si atom -5584.316377 kJ/mol
# Density = 1.935143 g / cm^3
# Si number density = 19.395572 Si / 1000 Ang^3
#
#
#
# Elastic Constant Matrix: (Units=GPa)
#
#
# Indices 1 2 3 4 5 6 
#
# 1 81.3705 22.8768 21.4708 0.0000 6.4825 0.0000
# 2 22.8768 76.6103 39.7058 0.0000 22.9126 0.0000
# 3 21.4708 39.7058 124.5083 0.0000 3.0856 0.0000
# 4 0.0000 0.0000 0.0000 23.7498 0.0000 -10.9819
# 5 6.4825 22.9126 3.0856 0.0000 36.4813 0.0000
# 6 0.0000 0.0000 0.0000 -10.9819 0.0000 21.2308
#
#
#
# Elastic Compliance Matrix: (Units=1/GPa)
#
#
# Indices 1 2 3 4 5 6 
#
# 1 0.013579 -0.003331 -0.001274 0.000000 -0.000213 0.000000
# 2 -0.003331 0.020526 -0.005678 0.000000 -0.011819 0.000000
# 3 -0.001274 -0.005678 0.009989 0.000000 0.002948 0.000000
# 4 0.000000 0.000000 0.000000 0.055343 0.000000 0.028627
# 5 -0.000213 -0.011819 0.002948 0.000000 0.034623 0.000000
# 6 0.000000 0.000000 0.000000 0.028627 0.000000 0.061909
#
#
# Mechanical properties :
#
#
# Convention : Reuss Voigt Hill
#
# Bulk Modulus (GPa) = 42.50395 50.06621 46.28508
# Shear Modulus (GPa) = 22.28391 29.52144 25.90267
#
# Velocity S-wave (km/s) = 3.39325 3.90561 3.65841
# Velocity P-wave (km/s) = 6.10852 6.79762 6.46226
#
# Compressibility (1/GPa) = 0.02352722
#
# Stress axis : x y z
#
# Youngs Moduli (GPa) = 73.64273 48.71974 100.10919
#
# Poissons Ratio (x) = 0.16227 0.12756
# Poissons Ratio (y) = 0.24528 0.56846
# Poissons Ratio (z) = 0.09383 0.27665
#
# Static dielectric constant tensor:
#      x y z
#    x 1.168250 0.000000 0.221850 
#    y 0.000000 1.679560 0.000000 
#    z 0.221850 0.000000 1.562130 
# 
# From -- ./inp_files/80672.got.cif
#   From: 2010.05.17/outbox.cif.g08.bks.cpg/sg15_41_cif.got.tgz:80672.got - 2010.06.03 18:47:42.
