data_PCOD9304669
_publ_section_title
;
Structure prediction by ZEFSAII (Michael W. Deem and Ramdas Pophale) SiO2 
 PCOD9304669
Probable space group: C 2/C
;
_chemical_formula_sum "Si O2"
_cell_formula_units_Z 48
_cell_length_a 10.866077
_cell_length_b 17.048135
_cell_length_c 11.942388
_cell_angle_alpha 90.000000
_cell_angle_beta 100.366362
_cell_angle_gamma 90.000000
_cell_volume 2176.173277
_symmetry_space_group_name_H-M "C 2/C"
_symmetry_group_IT_number 15
_symmetry_cell_setting 'monoclinic'
loop_
_space_group_symop_operation_xyz
x,y,z
-x,y,1/2-z
-x,-y,-z
x,-y,1/2+z
1/2+x,1/2+y,z
1/2-x,1/2+y,1/2-z
1/2-x,1/2-y,-z
1/2+x,1/2-y,1/2+z
loop_
_atom_site_type_symbol
_atom_site_label
_atom_site_fract_x
_atom_site_fract_y
_atom_site_fract_z
Si Si1 0.018343 0.476795 0.633154
Si Si2 0.217509 0.023787 0.754089
Si Si3 0.901530 0.072408 0.968197
Si Si4 0.368332 0.367040 0.706705
Si Si5 0.625247 0.657479 0.905500
Si Si6 0.321815 0.834244 0.639604
O O1 0.168148 0.479483 0.668214
O O2 0.000000 0.524721 0.750000
O O3 0.000000 0.500000 0.500000
O O4 0.929149 0.400570 0.639883
O O5 0.219335 0.048072 0.624488
O O6 0.179334 0.097238 0.822876
O O7 0.119186 0.953010 0.734824
O O8 0.985451 0.131959 0.910893
O O9 0.860588 0.114479 0.074698
O O10 0.000000 0.000000 0.000000
O O11 0.500000 0.323326 0.750000
O O12 0.251437 0.331051 0.753820
O O13 0.626293 0.747827 0.871920
O O14 0.714278 0.649559 0.029245
#
# Coordination Sequence:
#
# PCOD9304669 Si02
#       6
#     8   8   8   8   8   8
#     4  12  27  45  70 102 147 196 244 298 361 450
#     4  12  24  42  72 106 135 185 248 299 353 431
#     4  12  23  40  74 109 137 177 249 310 356 423
#     4  12  22  41  72 103 137 186 240 300 354 436
#     4  11  23  45  73 105 145 187 242 304 366 437
#     4  11  25  46  70 104 150 197 234 295 383 438
#
# _framework density 22.057067
#
# number of rings (size 3 to 8) (size 9 to 14) (size 15 to 20)
#    0.000    0.333    8.333    0.500    2.333    1.333 
#    0.000    3.333    0.000    0.000    0.000    0.000 
#    0.000    0.000    0.000    0.000    0.000    0.000 
#
# Total GULP energy -133687.307772 kJ/mol
# GULP energy per Si atom -5570.304491 kJ/mol
# Density = 2.200686 g / cm^3
# Si number density = 22.057067 Si / 1000 Ang^3
#
#
#
# Elastic Constant Matrix: (Units=GPa)
#
#
# Indices 1 2 3 4 5 6 
#
# 1 124.5187 47.6517 61.1850 0.0000 0.2978 0.0000
# 2 47.6517 82.6615 22.3651 0.0000 -4.3638 0.0000
# 3 61.1850 22.3651 142.9730 0.0000 3.8575 0.0000
# 4 0.0000 0.0000 0.0000 26.9567 0.0000 -6.2030
# 5 0.2978 -4.3638 3.8575 0.0000 37.0394 0.0000
# 6 0.0000 0.0000 0.0000 -6.2030 0.0000 20.6947
#
#
#
# Elastic Compliance Matrix: (Units=1/GPa)
#
#
# Indices 1 2 3 4 5 6 
#
# 1 0.012502 -0.006036 -0.004396 0.000000 -0.000354 0.000000
# 2 -0.006036 0.015654 0.000084 0.000000 0.001884 0.000000
# 3 -0.004396 0.000084 0.008886 0.000000 -0.000880 0.000000
# 4 0.000000 0.000000 0.000000 0.039845 0.000000 0.011943
# 5 -0.000354 0.001884 -0.000880 0.000000 0.027315 0.000000
# 6 0.000000 0.000000 0.000000 0.011943 0.000000 0.051901
#
#
# Mechanical properties :
#
#
# Convention : Reuss Voigt Hill
#
# Bulk Modulus (GPa) = 61.18280 68.06186 64.62233
# Shear Modulus (GPa) = 27.43493 31.53494 29.48493
#
# Velocity S-wave (km/s) = 3.53060 3.78524 3.66013
# Velocity P-wave (km/s) = 6.66475 7.07306 6.87194
#
# Compressibility (1/GPa) = 0.01634446
#
# Stress axis : x y z
#
# Youngs Moduli (GPa) = 79.98707 63.88129 112.53096
#
# Poissons Ratio (x) = 0.38560 0.49473
# Poissons Ratio (y) = 0.48282 -0.00941
# Poissons Ratio (z) = 0.35166 -0.00534
#
# Static dielectric constant tensor:
#      x y z
#    x 1.957460 0.000000 0.009640 
#    y 0.000000 1.812680 0.000000 
#    z 0.009640 0.000000 1.908880 
# 
# From -- ./inp_files/87490.got.cif
#   From: 2010.05.17/outbox.cif.g08.bks.cpg/sg15_44_cif.got.tgz:87490.got - 2010.06.03 18:47:42.
