data_PCOD9304586
_publ_section_title
;
Structure prediction by ZEFSAII (Michael W. Deem and Ramdas Pophale) SiO2 
 PCOD9304586
Probable space group: C 2/C
;
_chemical_formula_sum "Si O2"
_cell_formula_units_Z 40
_cell_length_a 19.843353
_cell_length_b 18.580545
_cell_length_c 14.519277
_cell_angle_alpha 90.000000
_cell_angle_beta 159.279553
_cell_angle_gamma 90.000000
_cell_volume 1894.030398
_symmetry_space_group_name_H-M "C 2/C"
_symmetry_group_IT_number 15
_symmetry_cell_setting 'monoclinic'
loop_
_space_group_symop_operation_xyz
x,y,z
-x,y,1/2-z
-x,-y,-z
x,-y,1/2+z
1/2+x,1/2+y,z
1/2-x,1/2+y,1/2-z
1/2-x,1/2-y,-z
1/2+x,1/2-y,1/2+z
loop_
_atom_site_type_symbol
_atom_site_label
_atom_site_fract_x
_atom_site_fract_y
_atom_site_fract_z
Si Si1 0.485879 0.105253 0.622157
Si Si2 0.928709 0.174391 0.417775
Si Si3 0.733536 0.166594 0.781189
Si Si4 0.013736 0.562257 0.157010
Si Si5 0.330021 0.669737 0.599628
O O1 0.500000 0.114995 0.750000
O O2 0.268208 0.130196 0.324354
O O3 0.653629 0.146304 0.780879
O O4 0.512335 0.021363 0.631091
O O5 0.864070 0.255747 0.359903
O O6 0.044539 0.171884 0.467864
O O7 0.085323 0.149940 0.692709
O O8 0.642322 0.105190 0.600197
O O9 0.201316 0.609962 0.386246
O O10 0.000000 0.565581 0.250000
O O11 0.500000 0.678084 0.750000
O O12 0.250000 0.750000 0.500000
#
# Coordination Sequence:
#
# PCOD9304586 Si02
#       5
#     8   8   8   8   8
#     4  11  28  49  65  97 144 188 243 290 337 412
#     4  12  24  43  74 104 134 185 237 285 357 418
#     4  12  23  44  74 100 137 181 234 289 350 415
#     4  11  23  45  67 104 147 174 221 294 358 427
#     4  12  22  39  73 107 143 175 224 290 364 426
#
# _framework density 21.118984000000001
#
# number of rings (size 3 to 8) (size 9 to 14) (size 15 to 20)
#    0.000    0.400    6.000    3.600    0.000    2.400 
#    7.200    0.000    0.000    0.000    0.000    0.000 
#    0.000    0.000    0.000    0.000    0.000    0.000 
#
# Total GULP energy -111513.053361 kJ/mol
# GULP energy per Si atom -5575.652668 kJ/mol
# Density = 2.107092 g / cm^3
# Si number density = 21.118984 Si / 1000 Ang^3
#
#
#
# Elastic Constant Matrix: (Units=GPa)
#
#
# Indices 1 2 3 4 5 6 
#
# 1 124.0978 15.2561 14.3371 0.0000 27.5927 0.0000
# 2 15.2561 88.7600 22.7067 0.0000 5.2400 0.0000
# 3 14.3371 22.7067 47.9409 0.0000 10.8590 0.0000
# 4 0.0000 0.0000 0.0000 38.2690 0.0000 1.4150
# 5 27.5927 5.2400 10.8590 0.0000 46.7799 0.0000
# 6 0.0000 0.0000 0.0000 1.4150 0.0000 28.9895
#
#
#
# Elastic Compliance Matrix: (Units=1/GPa)
#
#
# Indices 1 2 3 4 5 6 
#
# 1 0.009476 -0.001022 -0.001171 0.000000 -0.005203 0.000000
# 2 -0.001022 0.012930 -0.005939 0.000000 0.000533 0.000000
# 3 -0.001171 -0.005939 0.025031 0.000000 -0.004454 0.000000
# 4 0.000000 0.000000 0.000000 0.026178 0.000000 -0.001278
# 5 -0.005203 0.000533 -0.004454 0.000000 0.025420 0.000000
# 6 0.000000 0.000000 0.000000 -0.001278 0.000000 0.034558
#
#
# Mechanical properties :
#
#
# Convention : Reuss Voigt Hill
#
# Bulk Modulus (GPa) = 32.07991 40.59985 36.33988
# Shear Modulus (GPa) = 31.20154 36.70759 33.95457
#
# Velocity S-wave (km/s) = 3.84789 4.17361 4.01406
# Velocity P-wave (km/s) = 5.91310 6.51855 6.22319
#
# Compressibility (1/GPa) = 0.03117216
#
# Stress axis : x y z
#
# Youngs Moduli (GPa) = 105.53005 77.34014 39.94994
#
# Poissons Ratio (x) = 0.07904 0.04680
# Poissons Ratio (y) = 0.10784 0.23727
# Poissons Ratio (z) = 0.12361 0.45934
#
# Static dielectric constant tensor:
#      x y z
#    x 1.816330 0.000000 -0.013070 
#    y 0.000000 1.714820 0.000000 
#    z -0.013070 0.000000 1.746970 
# 
# From -- ./inp_files/169226.got.cif
#   From: 2010.05.17/outbox.cif.g08.bks.cpg/sg15_85_cif.got.tgz:169226.got - 2010.06.03 18:47:42.
