data_PCOD9304186
_publ_section_title
;
Structure prediction by ZEFSAII (Michael W. Deem and Ramdas Pophale) SiO2 
 PCOD9304186
Probable space group: C 2/C
;
_chemical_formula_sum "Si O2"
_cell_formula_units_Z 48
_cell_length_a 21.850134
_cell_length_b 8.178541
_cell_length_c 10.854167
_cell_angle_alpha 90.000000
_cell_angle_beta 73.563693
_cell_angle_gamma 90.000000
_cell_volume 1860.399092
_symmetry_space_group_name_H-M "C 2/C"
_symmetry_group_IT_number 15
_symmetry_cell_setting 'monoclinic'
loop_
_space_group_symop_operation_xyz
x,y,z
-x,y,1/2-z
-x,-y,-z
x,-y,1/2+z
1/2+x,1/2+y,z
1/2-x,1/2+y,1/2-z
1/2-x,1/2-y,-z
1/2+x,1/2-y,1/2+z
loop_
_atom_site_type_symbol
_atom_site_label
_atom_site_fract_x
_atom_site_fract_y
_atom_site_fract_z
Si Si1 0.746544 0.562516 0.973748
Si Si2 0.553679 0.383931 0.822118
Si Si3 0.776389 0.367767 0.200161
Si Si4 0.871566 0.856975 0.514522
Si Si5 0.132250 0.778884 0.248757
Si Si6 0.460757 0.001152 0.150470
O O1 0.784543 0.540544 0.824515
O O2 0.672986 0.508376 0.998030
O O3 0.750000 0.750000 0.000000
O O4 0.773447 0.469587 0.076257
O O5 0.500000 0.417642 0.750000
O O6 0.558737 0.389493 0.970234
O O7 0.601417 0.538791 0.775520
O O8 0.561443 0.184842 0.804514
O O9 0.828110 0.228882 0.144252
O O10 0.704923 0.296012 0.249298
O O11 0.872539 0.744738 0.394472
O O12 0.093975 0.636701 0.338266
O O13 0.500000 0.054050 0.250000
O O14 0.500000 0.000000 0.000000
#
# Coordination Sequence:
#
# PCOD9304186 Si02
#       6
#     8   8   8   8   8   8
#     4  11  23  42  72 105 153 203 260 309 387 475
#     4  11  26  47  76 108 149 203 265 317 393 458
#     4  11  25  48  72 115 161 208 256 324 403 477
#     4  11  25  47  69 110 163 203 263 320 396 470
#     4  11  24  48  75 111 158 204 253 337 392 470
#     4  11  26  49  75 110 145 198 266 320 393 465
#
# _framework density 25.800915
#
# number of rings (size 3 to 8) (size 9 to 14) (size 15 to 20)
#    0.000    1.000    1.667    4.500    2.333    8.000 
#    0.000    0.000    0.000    0.000    0.000    0.000 
#    0.000    0.000    0.000    0.000    0.000    0.000 
#
# Total GULP energy -134054.368132 kJ/mol
# GULP energy per Si atom -5585.598672 kJ/mol
# Density = 2.574219 g / cm^3
# Si number density = 25.800915 Si / 1000 Ang^3
#
#
#
# Elastic Constant Matrix: (Units=GPa)
#
#
# Indices 1 2 3 4 5 6 
#
# 1 123.2253 58.3559 45.8583 0.0000 17.9106 0.0000
# 2 58.3559 166.6068 36.1158 0.0000 -14.2915 0.0000
# 3 45.8583 36.1158 175.3532 0.0000 13.6246 0.0000
# 4 0.0000 0.0000 0.0000 40.3337 0.0000 -10.0473
# 5 17.9106 -14.2915 13.6246 0.0000 50.8811 0.0000
# 6 0.0000 0.0000 0.0000 -10.0473 0.0000 37.8497
#
#
#
# Elastic Compliance Matrix: (Units=1/GPa)
#
#
# Indices 1 2 3 4 5 6 
#
# 1 0.011338 -0.003982 -0.001785 0.000000 -0.004632 0.000000
# 2 -0.003982 0.007921 -0.000890 0.000000 0.003865 0.000000
# 3 -0.001785 -0.000890 0.006458 0.000000 -0.001351 0.000000
# 4 0.000000 0.000000 0.000000 0.026549 0.000000 0.007047
# 5 -0.004632 0.003865 -0.001351 0.000000 0.022731 0.000000
# 6 0.000000 0.000000 0.000000 0.007047 0.000000 0.028291
#
#
# Mechanical properties :
#
#
# Convention : Reuss Voigt Hill
#
# Bulk Modulus (GPa) = 80.62659 82.87170 81.74914
# Shear Modulus (GPa) = 41.41192 47.46993 44.44092
#
# Velocity S-wave (km/s) = 4.01066 4.29401 4.15475
# Velocity P-wave (km/s) = 7.26392 7.53486 7.40063
#
# Compressibility (1/GPa) = 0.01240286
#
# Stress axis : x y z
#
# Youngs Moduli (GPa) = 88.19581 126.24086 154.84582
#
# Poissons Ratio (x) = 0.50265 0.27644
# Poissons Ratio (y) = 0.35117 0.13789
# Poissons Ratio (z) = 0.15745 0.11242
#
# Static dielectric constant tensor:
#      x y z
#    x 2.144160 0.000000 -0.001090 
#    y 0.000000 2.095070 0.000000 
#    z -0.001090 0.000000 2.135500 
# 
# From -- ./inp_files/116274.got.cif
#   From: 2010.05.17/outbox.cif.g08.bks.cpg/sg15_59_cif.got.tgz:116274.got - 2010.06.03 18:47:42.
