data_PCOD9304954
_publ_section_title
;
Structure prediction by ZEFSAII (Michael W. Deem and Ramdas Pophale) SiO2 
 PCOD9304954
Probable space group: C 2/C
;
_chemical_formula_sum "Si O2"
_cell_formula_units_Z 40
_cell_length_a 12.640302
_cell_length_b 5.577223
_cell_length_c 27.191972
_cell_angle_alpha 90.000000
_cell_angle_beta 118.947900
_cell_angle_gamma 90.000000
_cell_volume 1677.467409
_symmetry_space_group_name_H-M "C 2/C"
_symmetry_group_IT_number 15
_symmetry_cell_setting 'monoclinic'
loop_
_space_group_symop_operation_xyz
x,y,z
-x,y,1/2-z
-x,-y,-z
x,-y,1/2+z
1/2+x,1/2+y,z
1/2-x,1/2+y,1/2-z
1/2-x,1/2-y,-z
1/2+x,1/2-y,1/2+z
loop_
_atom_site_type_symbol
_atom_site_label
_atom_site_fract_x
_atom_site_fract_y
_atom_site_fract_z
Si Si1 0.214538 0.454589 0.620905
Si Si2 0.043474 0.561254 0.955158
Si Si3 0.644196 0.457666 0.160538
Si Si4 0.379792 0.547527 0.568317
Si Si5 0.638251 0.694591 0.770049
O O1 0.086949 0.588795 0.602222
O O2 0.167628 0.184573 0.615062
O O3 0.269717 0.526537 0.581484
O O4 0.318500 0.471315 0.686320
O O5 0.113287 0.814911 0.966088
O O6 0.110369 0.320288 0.950147
O O7 0.000000 0.500000 0.000000
O O8 0.500880 0.499003 0.127443
O O9 0.654698 0.325407 0.215683
O O10 0.758906 0.628104 0.188369
O O11 0.500000 0.757083 0.750000
#
# Coordination Sequence:
#
# PCOD9304954 Si02
#       5
#     8   8   8   8   8
#     4  11  25  41  66  97 135 176 225 273 329 397
#     4  11  26  47  71 100 134 173 223 284 342 400
#     4  11  24  39  62  95 137 176 222 271 325 396
#     4  11  25  44  71  99 134 174 224 277 337 398
#     4  12  23  38  62  94 131 181 218 266 329 393
#
# _framework density 23.845469000000001
#
# number of rings (size 3 to 8) (size 9 to 14) (size 15 to 20)
#    0.000    0.800    6.000    0.600    2.800    4.000 
#    0.000    0.000    0.000    0.000    0.000    0.000 
#    0.000    0.000    0.000    0.000    0.000    0.000 
#
# Total GULP energy -111426.068041 kJ/mol
# GULP energy per Si atom -5571.303402 kJ/mol
# Density = 2.379120 g / cm^3
# Si number density = 23.845469 Si / 1000 Ang^3
#
#
#
# Elastic Constant Matrix: (Units=GPa)
#
#
# Indices 1 2 3 4 5 6 
#
# 1 141.1430 48.2238 12.2812 0.0000 -0.8806 0.0000
# 2 48.2238 74.0983 -4.5319 0.0000 -15.2381 0.0000
# 3 12.2812 -4.5319 61.6574 0.0000 2.2320 0.0000
# 4 0.0000 0.0000 0.0000 -15.2976 0.0000 57.3647
# 5 -0.8806 -15.2381 2.2320 0.0000 55.7318 0.0000
# 6 0.0000 0.0000 0.0000 57.3647 0.0000 -66.1945
#
#
#
# Elastic Compliance Matrix: (Units=1/GPa)
#
#
# Indices 1 2 3 4 5 6 
#
# 1 0.009566 -0.006695 -0.002340 0.000000 -0.001586 0.000000
# 2 -0.006695 0.019036 0.002552 0.000000 0.004997 0.000000
# 3 -0.002340 0.002552 0.016873 0.000000 -0.000015 0.000000
# 4 0.000000 0.000000 0.000000 0.029057 0.000000 0.025181
# 5 -0.001586 0.004997 -0.000015 0.000000 0.019285 0.000000
# 6 0.000000 0.000000 0.000000 0.025181 0.000000 0.006715
#
#
# Mechanical properties :
#
#
# Convention : Reuss Voigt Hill
#
# Bulk Modulus (GPa) = 30.76074 43.20499 36.98287
# Shear Modulus (GPa) = 40.21387 9.57632 24.89510
#
# Velocity S-wave (km/s) = 4.11108 2.00617 3.23463
# Velocity P-wave (km/s) = 5.95505 4.85019 5.43079
#
# Compressibility (1/GPa) = 0.03250897
#
# Stress axis : x y z
#
# Youngs Moduli (GPa) = 104.53503 52.53102 59.26668
#
# Poissons Ratio (x) = 0.35169 0.13869
# Poissons Ratio (y) = 0.69986 -0.15124
# Poissons Ratio (z) = 0.24462 -0.13405
#
# Static dielectric constant tensor:
#      x y z
#    x 1.438500 0.000000 1.072720 
#    y 0.000000 2.144370 0.000000 
#    z 1.072720 0.000000 -0.660710 
# 
# From -- ./inp_files/271819.got.cif
#   From: 2010.05.17/outbox.cif.g08.bks.cpg/sg15_136_cif.got.tgz:271819.got - 2010.06.03 18:47:42.
