data_PCOD9304024
_publ_section_title
;
Structure prediction by ZEFSAII (Michael W. Deem and Ramdas Pophale) SiO2 
 PCOD9304024
Probable space group: C 2/C
;
_chemical_formula_sum "Si O2"
_cell_formula_units_Z 48
_cell_length_a 20.943106
_cell_length_b 11.735774
_cell_length_c 10.566333
_cell_angle_alpha 90.000000
_cell_angle_beta 135.076707
_cell_angle_gamma 90.000000
_cell_volume 1833.918012
_symmetry_space_group_name_H-M "C 2/C"
_symmetry_group_IT_number 15
_symmetry_cell_setting 'monoclinic'
loop_
_space_group_symop_operation_xyz
x,y,z
-x,y,1/2-z
-x,-y,-z
x,-y,1/2+z
1/2+x,1/2+y,z
1/2-x,1/2+y,1/2-z
1/2-x,1/2-y,-z
1/2+x,1/2-y,1/2+z
loop_
_atom_site_type_symbol
_atom_site_label
_atom_site_fract_x
_atom_site_fract_y
_atom_site_fract_z
Si Si1 0.835329 0.200406 0.473701
Si Si2 0.118778 0.040784 0.167205
Si Si3 0.265074 0.009061 0.048818
Si Si4 0.055904 0.612354 0.218715
Si Si5 0.969442 0.802597 0.520228
Si Si6 0.794762 0.789912 0.428601
O O1 0.894206 0.104472 0.484201
O O2 0.773769 0.133790 0.485183
O O3 0.894250 0.294044 0.623402
O O4 0.770653 0.249363 0.275157
O O5 0.223405 0.031447 0.357124
O O6 0.080113 0.912775 0.115529
O O7 0.063760 0.130268 0.180899
O O8 0.370472 0.020636 0.222063
O O9 0.218983 0.925177 0.082908
O O10 0.017084 0.691509 0.051067
O O11 0.000000 0.550170 0.250000
O O12 0.897253 0.764188 0.526389
O O13 0.750000 0.750000 0.500000
#
# Coordination Sequence:
#
# PCOD9304024 Si02
#       6
#     8   8   8   8   8   8
#     4  12  23  42  71 105 143 192 251 302 374 448
#     4  11  23  41  71 108 141 188 244 313 370 436
#     4  12  25  44  72 103 147 201 247 297 385 450
#     4  12  25  45  73 108 148 195 246 308 377 463
#     4  11  23  43  70 110 146 185 249 314 371 435
#     4  12  26  44  69 103 147 200 249 305 373 447
#
# _framework density 26.173472
#
# number of rings (size 3 to 8) (size 9 to 14) (size 15 to 20)
#    0.000    0.333    8.333    1.500    0.000    0.667 
#    0.000    2.500    0.000    0.000    0.000    0.000 
#    0.000    0.000    0.000    0.000    0.000    0.000 
#
# Total GULP energy -134023.110060 kJ/mol
# GULP energy per Si atom -5584.296253 kJ/mol
# Density = 2.611390 g / cm^3
# Si number density = 26.173472 Si / 1000 Ang^3
#
#
#
# Elastic Constant Matrix: (Units=GPa)
#
#
# Indices 1 2 3 4 5 6 
#
# 1 120.6036 12.3160 -2.4182 0.0000 3.4292 0.0000
# 2 12.3160 45.6680 24.4947 0.0000 0.4610 0.0000
# 3 -2.4182 24.4947 52.1053 0.0000 -17.9524 0.0000
# 4 0.0000 0.0000 0.0000 36.5472 0.0000 4.6973
# 5 3.4292 0.4610 -17.9524 0.0000 35.1731 0.0000
# 6 0.0000 0.0000 0.0000 4.6973 0.0000 41.7474
#
#
#
# Elastic Compliance Matrix: (Units=1/GPa)
#
#
# Indices 1 2 3 4 5 6 
#
# 1 0.008683 -0.003498 0.002149 0.000000 0.000296 0.000000
# 2 -0.003498 0.033235 -0.019194 0.000000 -0.009891 0.000000
# 3 0.002149 -0.019194 0.034374 0.000000 0.017587 0.000000
# 4 0.000000 0.000000 0.000000 0.027763 0.000000 -0.003124
# 5 0.000296 -0.009891 0.017587 0.000000 0.037508 0.000000
# 6 0.000000 0.000000 0.000000 -0.003124 0.000000 0.024305
#
#
# Mechanical properties :
#
#
# Convention : Reuss Voigt Hill
#
# Bulk Modulus (GPa) = 28.40273 31.90690 30.15481
# Shear Modulus (GPa) = 22.86340 34.95917 28.91129
#
# Velocity S-wave (km/s) = 2.95877 3.65865 3.32716
# Velocity P-wave (km/s) = 4.74844 5.48312 5.12895
#
# Compressibility (1/GPa) = 0.03520788
#
# Stress axis : x y z
#
# Youngs Moduli (GPa) = 115.16131 30.08845 29.09167
#
# Poissons Ratio (x) = 0.10524 -0.06253
# Poissons Ratio (y) = 0.40279 0.55839
# Poissons Ratio (z) = -0.24751 0.57752
#
# Static dielectric constant tensor:
#      x y z
#    x 2.294300 0.000000 0.062280 
#    y 0.000000 2.082950 0.000000 
#    z 0.062280 0.000000 2.072980 
# 
# From -- ./inp_files/111816.got.cif
#   From: 2010.05.17/outbox.cif.g08.bks.cpg/sg15_56_cif.got.tgz:111816.got - 2010.06.03 18:47:42.
