data_PCOD9304620
_publ_section_title
;
Structure prediction by ZEFSAII (Michael W. Deem and Ramdas Pophale) SiO2 
 PCOD9304620
Probable space group: C 2/C
;
_chemical_formula_sum "Si O2"
_cell_formula_units_Z 64
_cell_length_a 12.787427
_cell_length_b 8.754146
_cell_length_c 27.464281
_cell_angle_alpha 90.000000
_cell_angle_beta 119.134441
_cell_angle_gamma 90.000000
_cell_volume 2685.455841
_symmetry_space_group_name_H-M "C 2/C"
_symmetry_group_IT_number 15
_symmetry_cell_setting 'monoclinic'
loop_
_space_group_symop_operation_xyz
x,y,z
-x,y,1/2-z
-x,-y,-z
x,-y,1/2+z
1/2+x,1/2+y,z
1/2-x,1/2+y,1/2-z
1/2-x,1/2-y,-z
1/2+x,1/2-y,1/2+z
loop_
_atom_site_type_symbol
_atom_site_label
_atom_site_fract_x
_atom_site_fract_y
_atom_site_fract_z
Si Si1 0.122590 0.583911 0.541299
Si Si2 0.278756 0.424499 0.497751
Si Si3 0.962741 0.840227 0.042380
Si Si4 0.734967 0.617444 0.606358
Si Si5 0.686585 0.113810 0.303286
Si Si6 0.233028 0.101001 0.753750
Si Si7 0.293756 0.552869 0.154130
Si Si8 0.972765 0.193737 0.657536
O O1 0.220199 0.516855 0.527339
O O2 0.106085 0.754166 0.516885
O O3 0.174874 0.533460 0.605364
O O4 0.000000 0.500000 0.500000
O O5 0.250000 0.250000 0.500000
O O6 0.413527 0.487449 0.530088
O O7 0.214087 0.450490 0.431737
O O8 0.949359 0.774556 0.094850
O O9 0.102239 0.828060 0.063626
O O10 0.729096 0.478085 0.641389
O O11 0.796496 0.769555 0.640648
O O12 0.756347 0.249912 0.292054
O O13 0.581692 0.186501 0.314184
O O14 0.668405 0.979912 0.258329
O O15 0.201083 0.973716 0.787090
O O16 0.113264 0.159135 0.698185
O O17 0.402891 0.460944 0.155254
#
# Coordination Sequence:
#
# PCOD9304620 Si02
#       8
#     8   8   8   8   8   8   8   8
#     4  12  24  42  66 103 139 193 244 297 377 445
#     4  12  24  44  66 103 146 187 241 307 364 443
#     4  12  24  43  73 100 146 196 242 301 379 445
#     4  12  24  44  69 106 148 188 243 301 370 446
#     4  11  24  44  73 104 139 187 242 299 368 440
#     4  11  25  47  75 104 144 191 249 307 371 446
#     4  11  23  45  70 102 148 187 242 305 366 442
#     4  11  24  49  75 103 143 196 243 311 378 438
#
# _framework density 23.832082
#
# number of rings (size 3 to 8) (size 9 to 14) (size 15 to 20)
#    0.000    0.500    5.000    3.750    3.500    0.000 
#    0.000    5.000    0.000    0.000    0.000    0.000 
#    0.000    0.000    0.000    0.000    0.000    0.000 
#
# Total GULP energy -178564.101338 kJ/mol
# GULP energy per Si atom -5580.128167 kJ/mol
# Density = 2.377784 g / cm^3
# Si number density = 23.832082 Si / 1000 Ang^3
#
#
#
# Elastic Constant Matrix: (Units=GPa)
#
#
# Indices 1 2 3 4 5 6 
#
# 1 49.3546 29.1226 0.4983 0.0000 -9.1554 0.0000
# 2 29.1226 110.9027 44.2634 0.0000 6.0320 0.0000
# 3 0.4983 44.2634 82.4578 0.0000 -20.6292 0.0000
# 4 0.0000 0.0000 0.0000 51.3181 0.0000 -4.9778
# 5 -9.1554 6.0320 -20.6292 0.0000 38.6093 0.0000
# 6 0.0000 0.0000 0.0000 -4.9778 0.0000 37.2798
#
#
#
# Elastic Compliance Matrix: (Units=1/GPa)
#
#
# Indices 1 2 3 4 5 6 
#
# 1 0.030656 -0.013090 0.010587 0.000000 0.014971 0.000000
# 2 -0.013090 0.018345 -0.013000 0.000000 -0.012916 0.000000
# 3 0.010587 -0.013000 0.023291 0.000000 0.016986 0.000000
# 4 0.000000 0.000000 0.000000 0.019742 0.000000 0.002636
# 5 0.014971 -0.012916 0.016986 0.000000 0.040544 0.000000
# 6 0.000000 0.000000 0.000000 0.002636 0.000000 0.027176
#
#
# Mechanical properties :
#
#
# Convention : Reuss Voigt Hill
#
# Bulk Modulus (GPa) = 24.22105 43.38709 33.80407
# Shear Modulus (GPa) = 24.44717 36.69683 30.57200
#
# Velocity S-wave (km/s) = 3.20630 3.92830 3.58552
# Velocity P-wave (km/s) = 4.88799 6.23059 5.59967
#
# Compressibility (1/GPa) = 0.04128639
#
# Stress axis : x y z
#
# Youngs Moduli (GPa) = 32.62044 54.51000 42.93431
#
# Poissons Ratio (x) = 0.71352 -0.45453
# Poissons Ratio (y) = 0.42699 0.55814
# Poissons Ratio (z) = -0.34534 0.70863
#
# Static dielectric constant tensor:
#      x y z
#    x 1.804700 0.000000 -0.086840 
#    y 0.000000 1.925700 0.000000 
#    z -0.086840 0.000000 2.086120 
# 
# From -- ./inp_files/312930.got.cif
#   From: 2010.05.17/outbox.cif.g08.bks.cpg/sg15_157_cif.got.tgz:312930.got - 2010.06.03 18:47:42.
