data_PCOD9304337
_publ_section_title
;
Structure prediction by ZEFSAII (Michael W. Deem and Ramdas Pophale) SiO2 
 PCOD9304337
Probable space group: C 2/C
;
_chemical_formula_sum "Si O2"
_cell_formula_units_Z 56
_cell_length_a 15.048800
_cell_length_b 14.855708
_cell_length_c 24.058797
_cell_angle_alpha 90.000000
_cell_angle_beta 29.545756
_cell_angle_gamma 90.000000
_cell_volume 2652.286262
_symmetry_space_group_name_H-M "C 2/C"
_symmetry_group_IT_number 15
_symmetry_cell_setting 'monoclinic'
loop_
_space_group_symop_operation_xyz
x,y,z
-x,y,1/2-z
-x,-y,-z
x,-y,1/2+z
1/2+x,1/2+y,z
1/2-x,1/2+y,1/2-z
1/2-x,1/2-y,-z
1/2+x,1/2-y,1/2+z
loop_
_atom_site_type_symbol
_atom_site_label
_atom_site_fract_x
_atom_site_fract_y
_atom_site_fract_z
Si Si1 0.761353 0.798128 0.345427
Si Si2 0.561432 0.711261 0.045122
Si Si3 0.097276 0.727659 0.126519
Si Si4 0.696177 0.540023 0.908466
Si Si5 0.013185 0.473169 0.660851
Si Si6 0.884640 0.151028 0.364405
Si Si7 0.346516 0.017394 0.538272
O O1 0.609206 0.761430 0.388124
O O2 0.804419 0.722195 0.367818
O O3 0.721340 0.885082 0.404601
O O4 0.947936 0.805954 0.210515
O O5 0.522216 0.660450 0.125387
O O6 0.648580 0.640210 0.954810
O O7 0.707010 0.790148 0.971414
O O8 0.995636 0.634568 0.171636
O O9 0.250000 0.750000 0.000000
O O10 0.811291 0.497598 0.897203
O O11 0.839017 0.524177 0.780480
O O12 0.500000 0.500000 0.000000
O O13 0.056173 0.491784 0.573885
O O14 0.000000 0.189002 0.250000
O O15 0.815162 0.054131 0.380519
O O16 0.500000 0.000000 0.500000
#
# Coordination Sequence:
#
# PCOD9304337 Si02
#       7
#     8   8   8   8   8   8   8
#     4  11  24  44  71 100 144 184 240 295 366 432
#     4  11  24  47  70 105 140 190 248 295 359 438
#     4  11  23  43  71 102 140 185 234 302 367 432
#     4  11  23  43  74 102 138 182 238 296 366 421
#     4  11  24  45  70 102 147 180 241 305 351 439
#     4  11  27  44  73  99 147 188 241 298 362 437
#     4  12  25  48  66 104 144 195 234 299 365 434
#
# _framework density 21.113859999999999
#
# number of rings (size 3 to 8) (size 9 to 14) (size 15 to 20)
#    0.000    0.857    4.286    3.429    4.000    3.429 
#    5.143    0.000    0.000    0.000    0.000    0.000 
#    0.000    0.000    0.000    0.000    0.000    0.000 
#
# Total GULP energy -156180.008473 kJ/mol
# GULP energy per Si atom -5577.857445 kJ/mol
# Density = 2.106580 g / cm^3
# Si number density = 21.113860 Si / 1000 Ang^3
#
#
#
# Elastic Constant Matrix: (Units=GPa)
#
#
# Indices 1 2 3 4 5 6 
#
# 1 136.4125 31.6671 83.6278 0.0011 -4.2889 -0.0004
# 2 31.6671 76.4627 31.0194 0.0000 2.6741 0.0003
# 3 83.6278 31.0194 163.8394 0.0023 15.2640 0.0005
# 4 0.0011 0.0000 0.0023 25.0786 0.0018 -0.6523
# 5 -4.2889 2.6741 15.2640 0.0018 35.5163 -0.0003
# 6 -0.0004 0.0003 0.0005 -0.6523 -0.0003 30.4076
#
#
#
# Elastic Compliance Matrix: (Units=1/GPa)
#
#
# Indices 1 2 3 4 5 6 
#
# 1 0.011638 -0.002598 -0.005831 0.000000 0.004107 0.000000
# 2 -0.002598 0.014747 -0.001389 0.000000 -0.000827 0.000000
# 3 -0.005831 -0.001389 0.009791 0.000000 -0.004807 0.000000
# 4 0.000000 0.000000 0.000000 0.039897 -0.000002 0.000856
# 5 0.004107 -0.000827 -0.004807 -0.000002 0.030780 0.000000
# 6 0.000000 0.000000 0.000000 0.000856 0.000000 0.032905
#
#
# Mechanical properties :
#
#
# Convention : Reuss Voigt Hill
#
# Bulk Modulus (GPa) = 60.46138 74.37147 67.41643
# Shear Modulus (GPa) = 30.32049 33.56053 31.94051
#
# Velocity S-wave (km/s) = 3.79363 3.99118 3.89366
# Velocity P-wave (km/s) = 6.92004 7.51930 7.22588
#
# Compressibility (1/GPa) = 0.01653948
#
# Stress axis : x y z
#
# Youngs Moduli (GPa) = 85.92904 67.81253 102.13903
#
# Poissons Ratio (x) = 0.17617 0.59556
# Poissons Ratio (y) = 0.22323 0.14186
# Poissons Ratio (z) = 0.50104 0.09418
#
# Static dielectric constant tensor:
#      x y z
#    x 1.781090 0.000000 0.013570 
#    y 0.000000 1.832760 0.000000 
#    z 0.013570 0.000000 1.800870 
# 
# From -- ./inp_files/274471.got.cif
#   From: 2010.05.17/outbox.cif.g08.bks.cpg/sg15_138_cif.got.tgz:274471.got - 2010.06.03 18:47:42.
