data_PCOD9304556
_publ_section_title
;
Structure prediction by ZEFSAII (Michael W. Deem and Ramdas Pophale) SiO2 
 PCOD9304556
Probable space group: C 2/C
;
_chemical_formula_sum "Si O2"
_cell_formula_units_Z 40
_cell_length_a 7.270263
_cell_length_b 15.814721
_cell_length_c 18.283181
_cell_angle_alpha 90.000000
_cell_angle_beta 130.716615
_cell_angle_gamma 90.000000
_cell_volume 1593.313458
_symmetry_space_group_name_H-M "C 2/C"
_symmetry_group_IT_number 15
_symmetry_cell_setting 'monoclinic'
loop_
_space_group_symop_operation_xyz
x,y,z
-x,y,1/2-z
-x,-y,-z
x,-y,1/2+z
1/2+x,1/2+y,z
1/2-x,1/2+y,1/2-z
1/2-x,1/2-y,-z
1/2+x,1/2-y,1/2+z
loop_
_atom_site_type_symbol
_atom_site_label
_atom_site_fract_x
_atom_site_fract_y
_atom_site_fract_z
Si Si1 0.348337 0.291809 0.641831
Si Si2 0.200499 0.526539 0.861734
Si Si3 0.009296 0.409808 0.040139
Si Si4 0.573800 0.662761 0.934724
Si Si5 0.261268 0.823004 0.641724
O O1 0.500000 0.326553 0.750000
O O2 0.172402 0.218917 0.627555
O O3 0.175775 0.356477 0.556503
O O4 0.039973 0.070479 0.577814
O O5 0.265867 0.308181 0.952619
O O6 0.241182 0.426006 0.859842
O O7 0.000000 0.550861 0.750000
O O8 0.043545 0.223446 0.128168
O O9 0.916713 0.432994 0.096029
O O10 0.263970 0.360375 0.093965
O O11 0.000000 0.500000 0.000000
O O12 0.500000 0.800175 0.750000
#
# Coordination Sequence:
#
# PCOD9304556 Si02
#       5
#     8   8   8   8   8
#     4  12  27  46  73 113 156 201 257 321 395 470
#     4  11  25  46  73 111 151 200 260 320 381 465
#     4  12  25  46  77 107 150 204 260 316 385 462
#     4  12  24  48  72 108 154 201 253 322 393 463
#     4  11  23  44  74 106 152 205 257 317 387 468
#
# _framework density 25.104914999999998
#
# number of rings (size 3 to 8) (size 9 to 14) (size 15 to 20)
#    0.000    0.400    4.000    4.800    2.800    0.800 
#    0.000    0.000    0.000    0.000    0.000    0.000 
#    0.000    0.000    0.000    0.000    0.000    0.000 
#
# Total GULP energy -111829.893274 kJ/mol
# GULP energy per Si atom -5591.494664 kJ/mol
# Density = 2.504778 g / cm^3
# Si number density = 25.104915 Si / 1000 Ang^3
#
#
#
# Elastic Constant Matrix: (Units=GPa)
#
#
# Indices 1 2 3 4 5 6 
#
# 1 209.3081 55.3602 45.6879 0.0000 4.2083 0.0000
# 2 55.3602 95.0148 24.9987 0.0000 7.0576 0.0000
# 3 45.6879 24.9987 137.3093 -0.0003 -6.9175 -0.0002
# 4 0.0000 0.0000 -0.0003 70.2497 -0.0001 2.4460
# 5 4.2083 7.0576 -6.9175 -0.0001 49.9392 0.0000
# 6 0.0000 0.0000 -0.0002 2.4460 0.0000 36.3312
#
#
#
# Elastic Compliance Matrix: (Units=1/GPa)
#
#
# Indices 1 2 3 4 5 6 
#
# 1 0.005898 -0.003043 -0.001422 0.000000 -0.000264 0.000000
# 2 -0.003043 0.012797 -0.001405 0.000000 -0.001747 0.000000
# 3 -0.001422 -0.001405 0.008084 0.000000 0.001438 0.000000
# 4 0.000000 0.000000 0.000000 0.014268 0.000000 -0.000961
# 5 -0.000264 -0.001747 0.001438 0.000000 0.020493 0.000000
# 6 0.000000 0.000000 0.000000 -0.000961 0.000000 0.027589
#
#
# Mechanical properties :
#
#
# Convention : Reuss Voigt Hill
#
# Bulk Modulus (GPa) = 66.49232 77.08064 71.78648
# Shear Modulus (GPa) = 47.22197 52.34306 49.78252
#
# Velocity S-wave (km/s) = 4.34174 4.57110 4.45790
# Velocity P-wave (km/s) = 7.18871 7.65703 7.42656
#
# Compressibility (1/GPa) = 0.01503933
#
# Stress axis : x y z
#
# Youngs Moduli (GPa) = 169.54571 78.14282 123.69724
#
# Poissons Ratio (x) = 0.23777 0.17588
# Poissons Ratio (y) = 0.51590 0.17384
# Poissons Ratio (z) = 0.24107 0.10982
#
# Static dielectric constant tensor:
#      x y z
#    x 2.055690 0.000000 -0.002300 
#    y 0.000000 1.880430 0.000000 
#    z -0.002300 0.000000 1.935320 
# 
# From -- ./inp_files/292772.got.cif
#   From: 2010.05.17/outbox.cif.g08.bks.cpg/sg15_147_cif.got.tgz:292772.got - 2010.06.03 18:47:42.
