data_PCOD9304315
_publ_section_title
;
Structure prediction by ZEFSAII (Michael W. Deem and Ramdas Pophale) SiO2 
 PCOD9304315
Probable space group: C 2/C
;
_chemical_formula_sum "Si O2"
_cell_formula_units_Z 40
_cell_length_a 12.665829
_cell_length_b 21.409904
_cell_length_c 8.560508
_cell_angle_alpha 90.000000
_cell_angle_beta 50.838789
_cell_angle_gamma 90.000000
_cell_volume 1799.940294
_symmetry_space_group_name_H-M "C 2/C"
_symmetry_group_IT_number 15
_symmetry_cell_setting 'monoclinic'
loop_
_space_group_symop_operation_xyz
x,y,z
-x,y,1/2-z
-x,-y,-z
x,-y,1/2+z
1/2+x,1/2+y,z
1/2-x,1/2+y,1/2-z
1/2-x,1/2-y,-z
1/2+x,1/2-y,1/2+z
loop_
_atom_site_type_symbol
_atom_site_label
_atom_site_fract_x
_atom_site_fract_y
_atom_site_fract_z
Si Si1 0.041766 0.301567 0.890408
Si Si2 0.454652 0.655222 0.613085
Si Si3 0.606064 0.979015 0.774995
Si Si4 0.777185 0.872108 0.778248
Si Si5 0.816488 0.619844 0.791226
O O1 0.201374 0.318026 0.752355
O O2 0.000000 0.309941 0.750000
O O3 0.030686 0.228641 0.938296
O O4 0.950185 0.345835 0.092175
O O5 0.500000 0.645153 0.750000
O O6 0.563419 0.623142 0.397733
O O7 0.303735 0.630337 0.720912
O O8 0.500000 0.949853 0.750000
O O9 0.710782 0.932997 0.758754
O O10 0.667459 0.046614 0.676358
O O11 0.500000 0.000000 0.000000
O O12 0.735029 0.855011 0.994091
#
# Coordination Sequence:
#
# PCOD9304315 Si02
#       5
#     8   8   8   8   8
#     4  11  23  43  69  96 131 176 222 266 321 394
#     4  11  27  44  64  97 136 176 216 267 334 389
#     4  12  24  44  70 100 129 168 220 271 325 392
#     4  12  25  42  69  99 132 173 217 273 325 386
#     4  12  25  43  68 100 131 171 221 270 328 387
#
# _framework density 22.22296
#
# number of rings (size 3 to 8) (size 9 to 14) (size 15 to 20)
#    0.000    0.400    4.000    4.200    2.800    8.800 
#    0.000    0.000    0.000    0.000    0.000    0.000 
#    0.000    0.000    0.000    0.000    0.000    0.000 
#
# Total GULP energy -111612.840248 kJ/mol
# GULP energy per Si atom -5580.642012 kJ/mol
# Density = 2.217238 g / cm^3
# Si number density = 22.222960 Si / 1000 Ang^3
#
#
#
# Elastic Constant Matrix: (Units=GPa)
#
#
# Indices 1 2 3 4 5 6 
#
# 1 85.0834 5.0566 -10.3695 0.0000 -9.2167 0.0000
# 2 5.0566 74.4808 -12.0879 0.0000 -2.9997 0.0000
# 3 -10.3695 -12.0879 53.5079 0.0000 -7.9958 0.0000
# 4 0.0000 0.0000 0.0000 9.9807 0.0000 7.4479
# 5 -9.2167 -2.9997 -7.9958 0.0000 41.9104 0.0000
# 6 0.0000 0.0000 0.0000 7.4479 0.0000 11.8640
#
#
#
# Elastic Compliance Matrix: (Units=1/GPa)
#
#
# Indices 1 2 3 4 5 6 
#
# 1 0.012469 -0.000253 0.002848 0.000000 0.003267 0.000000
# 2 -0.000253 0.014053 0.003364 0.000000 0.001592 0.000000
# 3 0.002848 0.003364 0.020721 0.000000 0.004820 0.000000
# 4 0.000000 0.000000 0.000000 0.188496 0.000000 -0.118332
# 5 0.003267 0.001592 0.004820 0.000000 0.025612 0.000000
# 6 0.000000 0.000000 0.000000 -0.118332 0.000000 0.158574
#
#
# Mechanical properties :
#
#
# Convention : Reuss Voigt Hill
#
# Bulk Modulus (GPa) = 16.90319 19.80784 18.35552
# Shear Modulus (GPa) = 11.68963 28.11588 19.90275
#
# Velocity S-wave (km/s) = 2.29599 3.56079 2.99589
# Velocity P-wave (km/s) = 3.82772 5.08313 4.49942
#
# Compressibility (1/GPa) = 0.05916042
#
# Stress axis : x y z
#
# Youngs Moduli (GPa) = 80.19768 71.15682 48.26059
#
# Poissons Ratio (x) = 0.01799 -0.13743
# Poissons Ratio (y) = 0.02028 -0.16233
# Poissons Ratio (z) = -0.22837 -0.23935
#
# Static dielectric constant tensor:
#      x y z
#    x 1.725280 0.000000 -0.065530 
#    y 0.000000 1.810850 0.000000 
#    z -0.065530 0.000000 1.643730 
# 
# From -- ./inp_files/33308.got.cif
#   From: 2010.05.17/outbox.cif.g08.bks.cpg/sg15_17_cif.got.tgz:33308.got - 2010.06.03 18:47:42.
