data_PCOD9304251
_publ_section_title
;
Structure prediction by ZEFSAII (Michael W. Deem and Ramdas Pophale) SiO2 
 PCOD9304251
Probable space group: C 2/C
;
_chemical_formula_sum "Si O2"
_cell_formula_units_Z 44
_cell_length_a 20.728136
_cell_length_b 9.002734
_cell_length_c 10.370068
_cell_angle_alpha 90.000000
_cell_angle_beta 117.384657
_cell_angle_gamma 90.000000
_cell_volume 1718.300839
_symmetry_space_group_name_H-M "C 2/C"
_symmetry_group_IT_number 15
_symmetry_cell_setting 'monoclinic'
loop_
_space_group_symop_operation_xyz
x,y,z
-x,y,1/2-z
-x,-y,-z
x,-y,1/2+z
1/2+x,1/2+y,z
1/2-x,1/2+y,1/2-z
1/2-x,1/2-y,-z
1/2+x,1/2-y,1/2+z
loop_
_atom_site_type_symbol
_atom_site_label
_atom_site_fract_x
_atom_site_fract_y
_atom_site_fract_z
Si Si1 0.973244 0.149850 0.052103
Si Si2 0.871880 0.584677 0.999663
Si Si3 0.284888 0.021474 0.174734
Si Si4 0.672040 0.676118 0.697672
Si Si5 0.000000 0.602753 0.750000
Si Si6 0.084047 0.891189 0.355449
O O1 0.022552 0.278322 0.157670
O O2 0.929466 0.059919 0.119504
O O3 0.907657 0.232297 0.919209
O O4 0.000000 0.000000 0.000000
O O5 0.811950 0.534667 0.052789
O O6 0.887866 0.760775 0.026107
O O7 0.941810 0.499912 0.124007
O O8 0.844016 0.543113 0.831945
O O9 0.213164 0.927310 0.135567
O O10 0.276677 0.189418 0.216881
O O11 0.644735 0.597309 0.801302
O O12 0.000000 0.840596 0.250000
#
# Coordination Sequence:
#
# PCOD9304251 Si02
#       6
#     8   8   8   8   4   8
#     4  12  24  42  70 105 140 184 238 299 360 417
#     4  11  27  46  74 105 142 189 238 299 360 424
#     4  11  28  47  69 106 145 192 237 287 361 434
#     4  11  26  45  68 100 145 188 235 289 356 428
#     4  12  24  44  74 106 140 182 246 302 356 418
#     4  11  23  43  67 102 137 180 232 294 358 411
#
# _framework density 25.606688999999999
#
# number of rings (size 3 to 8) (size 9 to 14) (size 15 to 20)
#    0.000    0.727    5.455    0.000    7.636    4.364 
#    0.000    0.000    0.000    0.000    0.000    0.000 
#    0.000    0.000    0.000    0.000    0.000    0.000 
#
# Total GULP energy -122679.342386 kJ/mol
# GULP energy per Si atom -5576.333745 kJ/mol
# Density = 2.554841 g / cm^3
# Si number density = 25.606689 Si / 1000 Ang^3
#
#
#
# Elastic Constant Matrix: (Units=GPa)
#
#
# Indices 1 2 3 4 5 6 
#
# 1 68.9756 19.7218 7.7973 0.0000 16.3366 0.0000
# 2 19.7218 39.5193 -0.1329 0.0000 2.7812 0.0000
# 3 7.7973 -0.1329 76.8299 0.0000 28.1089 0.0000
# 4 0.0000 0.0000 0.0000 29.9783 0.0000 12.2782
# 5 16.3366 2.7812 28.1089 0.0000 40.5319 0.0000
# 6 0.0000 0.0000 0.0000 12.2782 0.0000 25.6743
#
#
#
# Elastic Compliance Matrix: (Units=1/GPa)
#
#
# Indices 1 2 3 4 5 6 
#
# 1 0.018699 -0.008800 0.000836 0.000000 -0.007512 0.000000
# 2 -0.008800 0.029616 0.000523 0.000000 0.001152 0.000000
# 3 0.000836 0.000523 0.017511 0.000000 -0.012517 0.000000
# 4 0.000000 0.000000 0.000000 0.041483 0.000000 -0.019838
# 5 -0.007512 0.001152 -0.012517 0.000000 0.036301 0.000000
# 6 0.000000 0.000000 0.000000 -0.019838 0.000000 0.048437
#
#
# Mechanical properties :
#
#
# Convention : Reuss Voigt Hill
#
# Bulk Modulus (GPa) = 19.62980 26.67747 23.15363
# Shear Modulus (GPa) = 22.33033 29.76615 26.04824
#
# Velocity S-wave (km/s) = 2.95625 3.41315 3.19289
# Velocity P-wave (km/s) = 4.39717 5.09643 4.75966
#
# Compressibility (1/GPa) = 0.05094295
#
# Stress axis : x y z
#
# Youngs Moduli (GPa) = 53.47940 33.76520 57.10634
#
# Poissons Ratio (x) = 0.29713 -0.04771
# Poissons Ratio (y) = 0.47062 -0.02985
# Poissons Ratio (z) = -0.04468 -0.01765
#
# Static dielectric constant tensor:
#      x y z
#    x 2.052590 0.000000 -0.048880 
#    y 0.000000 1.968990 0.000000 
#    z -0.048880 0.000000 2.639040 
# 
# From -- ./inp_files/109940.got.cif
#   From: 2010.05.17/outbox.cif.g08.bks.cpg/sg15_55_cif.got.tgz:109940.got - 2010.06.03 18:47:42.
