data_PCOD9304780
_publ_section_title
;
Structure prediction by ZEFSAII (Michael W. Deem and Ramdas Pophale) SiO2 
 PCOD9304780
Probable space group: C 2/C
;
_chemical_formula_sum "Si O2"
_cell_formula_units_Z 40
_cell_length_a 6.846370
_cell_length_b 13.029815
_cell_length_c 19.292050
_cell_angle_alpha 90.000000
_cell_angle_beta 93.507611
_cell_angle_gamma 90.000000
_cell_volume 1717.760686
_symmetry_space_group_name_H-M "C 2/C"
_symmetry_group_IT_number 15
_symmetry_cell_setting 'monoclinic'
loop_
_space_group_symop_operation_xyz
x,y,z
-x,y,1/2-z
-x,-y,-z
x,-y,1/2+z
1/2+x,1/2+y,z
1/2-x,1/2+y,1/2-z
1/2-x,1/2-y,-z
1/2+x,1/2-y,1/2+z
loop_
_atom_site_type_symbol
_atom_site_label
_atom_site_fract_x
_atom_site_fract_y
_atom_site_fract_z
Si Si1 0.676021 0.350247 0.132410
Si Si2 0.500000 0.211935 0.750000
Si Si3 0.730497 0.490479 0.003729
Si Si4 0.000000 0.032182 0.750000
Si Si5 0.500076 0.867017 0.922011
Si Si6 0.200116 0.629700 0.287332
O O1 0.760104 0.412933 0.069183
O O2 0.515051 0.405791 0.178308
O O3 0.578675 0.246309 0.098552
O O4 0.851995 0.337680 0.192016
O O5 0.640823 0.282075 0.706050
O O6 0.846898 0.598354 0.014335
O O7 0.500000 0.500000 0.000000
O O8 0.811830 0.434228 0.937536
O O9 0.192371 0.959601 0.752887
O O10 0.626061 0.904620 0.859620
O O11 0.000000 0.669084 0.250000
#
# Coordination Sequence:
#
# PCOD9304780 Si02
#       6
#     8   4   8   4   8   8
#     4  12  25  48  73 112 148 197 254 307 389 453
#     4  11  26  44  73 110 152 188 249 316 380 451
#     4  11  28  50  74 107 147 205 249 309 382 450
#     4  11  26  42  71 112 146 196 243 318 378 451
#     4  11  25  50  71 106 147 192 253 306 370 459
#     4  11  23  46  74 105 150 194 245 314 378 445
#
# _framework density 23.286131999999998
#
# number of rings (size 3 to 8) (size 9 to 14) (size 15 to 20)
#    0.000    0.800    4.000    1.800    7.000    0.800 
#   10.800    0.000    0.000    0.000    0.000    0.000 
#    0.000    0.000    0.000    0.000    0.000    0.000 
#
# Total GULP energy -111567.435243 kJ/mol
# GULP energy per Si atom -5578.371762 kJ/mol
# Density = 2.323313 g / cm^3
# Si number density = 23.286132 Si / 1000 Ang^3
#
#
#
# Elastic Constant Matrix: (Units=GPa)
#
#
# Indices 1 2 3 4 5 6 
#
# 1 148.8101 49.9239 28.1405 0.0000 -24.1570 0.0000
# 2 49.9239 80.9498 36.1049 0.0000 6.7685 0.0000
# 3 28.1405 36.1049 103.0764 0.0000 -32.9018 0.0000
# 4 0.0000 0.0000 0.0000 15.7936 0.0000 4.0445
# 5 -24.1570 6.7685 -32.9018 0.0000 44.1797 0.0000
# 6 0.0000 0.0000 0.0000 4.0445 0.0000 29.0933
#
#
#
# Elastic Compliance Matrix: (Units=1/GPa)
#
#
# Indices 1 2 3 4 5 6 
#
# 1 0.010604 -0.008777 0.003226 0.000000 0.009545 0.000000
# 2 -0.008777 0.024397 -0.011642 0.000000 -0.017207 0.000000
# 3 0.003226 -0.011642 0.018407 0.000000 0.017256 0.000000
# 4 0.000000 0.000000 0.000000 0.065654 0.000000 -0.009127
# 5 0.009545 -0.017207 0.017256 0.000000 0.043341 0.000000
# 6 0.000000 0.000000 0.000000 -0.009127 0.000000 0.035641
#
#
# Mechanical properties :
#
#
# Convention : Reuss Voigt Hill
#
# Bulk Modulus (GPa) = 52.56890 62.35277 57.46084
# Shear Modulus (GPa) = 20.94063 32.39114 26.66588
#
# Velocity S-wave (km/s) = 3.00204 3.73366 3.38766
# Velocity P-wave (km/s) = 5.88562 6.73958 6.32702
#
# Compressibility (1/GPa) = 0.01902265
#
# Stress axis : x y z
#
# Youngs Moduli (GPa) = 94.30471 40.98782 54.32829
#
# Poissons Ratio (x) = 0.35974 -0.17527
# Poissons Ratio (y) = 0.82769 0.63250
# Poissons Ratio (z) = -0.30424 0.47718
#
# Static dielectric constant tensor:
#      x y z
#    x 1.820010 0.000000 -0.032730 
#    y 0.000000 1.963560 0.000000 
#    z -0.032730 0.000000 1.749480 
# 
# From -- ./inp_files/260152.got.cif
#   From: 2010.05.17/outbox.cif.g08.bks.cpg/sg15_131_cif.got.tgz:260152.got - 2010.06.03 18:47:42.
