data_PCOD9304242
_publ_section_title
;
Structure prediction by ZEFSAII (Michael W. Deem and Ramdas Pophale) SiO2 
 PCOD9304242
Probable space group: C 2/C
;
_chemical_formula_sum "Si O2"
_cell_formula_units_Z 56
_cell_length_a 11.364225
_cell_length_b 8.321338
_cell_length_c 26.025662
_cell_angle_alpha 90.000000
_cell_angle_beta 106.944845
_cell_angle_gamma 90.000000
_cell_volume 2354.283091
_symmetry_space_group_name_H-M "C 2/C"
_symmetry_group_IT_number 15
_symmetry_cell_setting 'monoclinic'
loop_
_space_group_symop_operation_xyz
x,y,z
-x,y,1/2-z
-x,-y,-z
x,-y,1/2+z
1/2+x,1/2+y,z
1/2-x,1/2+y,1/2-z
1/2-x,1/2-y,-z
1/2+x,1/2-y,1/2+z
loop_
_atom_site_type_symbol
_atom_site_label
_atom_site_fract_x
_atom_site_fract_y
_atom_site_fract_z
Si Si1 0.102157 0.005902 0.638483
Si Si2 0.323681 0.064951 0.416391
Si Si3 0.905510 0.472660 0.313849
Si Si4 0.234116 0.754489 0.233108
Si Si5 0.100965 0.784717 0.836483
Si Si6 0.539204 0.741559 0.957281
Si Si7 0.776882 0.804850 0.933101
O O1 0.189208 0.894735 0.614591
O O2 0.004510 0.902681 0.657729
O O3 0.178145 0.111510 0.688250
O O4 0.025763 0.119781 0.590161
O O5 0.211712 0.186879 0.390946
O O6 0.428605 0.147133 0.463751
O O7 0.387386 0.034999 0.369098
O O8 0.279911 0.889660 0.427916
O O9 0.870160 0.621119 0.272468
O O10 0.800530 0.339612 0.288480
O O11 0.036519 0.388459 0.324416
O O12 0.341973 0.675494 0.211779
O O13 0.644035 0.841127 0.939962
O O14 0.615117 0.657749 0.012367
#
# Coordination Sequence:
#
# PCOD9304242 Si02
#       7
#     8   8   8   8   8   8   8
#     4  12  23  42  70  99 138 176 221 279 335 401
#     4  11  23  44  68  99 137 176 220 280 335 400
#     4  11  23  44  68  95 133 179 222 275 332 401
#     4  11  26  44  68  99 134 177 229 273 334 404
#     4  11  23  43  66  96 140 171 217 275 335 397
#     4  11  24  45  66 102 132 175 233 276 333 405
#     4  11  25  42  72  97 135 177 225 282 336 394
#
# _framework density 23.786434
#
# number of rings (size 3 to 8) (size 9 to 14) (size 15 to 20)
#    0.000    0.857    5.714    2.143    2.000    1.143 
#    0.000    3.571    0.000    0.000    0.000    0.000 
#    0.000    0.000    0.000    0.000    0.000    0.000 
#
# Total GULP energy -156689.281623 kJ/mol
# GULP energy per Si atom -5596.045772 kJ/mol
# Density = 2.373230 g / cm^3
# Si number density = 23.786434 Si / 1000 Ang^3
#
#
#
# Elastic Constant Matrix: (Units=GPa)
#
#
# Indices 1 2 3 4 5 6 
#
# 1 109.8863 57.0305 27.0640 0.0000 22.5884 0.0000
# 2 57.0305 87.7411 31.7514 0.0000 16.5138 0.0000
# 3 27.0640 31.7514 78.4778 0.0000 26.6799 0.0000
# 4 0.0000 0.0000 0.0000 44.3155 0.0000 10.3687
# 5 22.5884 16.5138 26.6799 0.0000 35.4473 0.0000
# 6 0.0000 0.0000 0.0000 10.3687 0.0000 40.2980
#
#
#
# Elastic Compliance Matrix: (Units=1/GPa)
#
#
# Indices 1 2 3 4 5 6 
#
# 1 0.014610 -0.008565 0.000316 0.000000 -0.005558 0.000000
# 2 -0.008565 0.018598 -0.004678 0.000000 0.000314 0.000000
# 3 0.000316 -0.004678 0.018617 0.000000 -0.012035 0.000000
# 4 0.000000 0.000000 0.000000 0.024011 0.000000 -0.006178
# 5 -0.005558 0.000314 -0.012035 0.000000 0.040665 0.000000
# 6 0.000000 0.000000 0.000000 -0.006178 0.000000 0.026405
#
#
# Mechanical properties :
#
#
# Convention : Reuss Voigt Hill
#
# Bulk Modulus (GPa) = 38.50141 56.42187 47.46164
# Shear Modulus (GPa) = 28.18248 34.69611 31.43929
#
# Velocity S-wave (km/s) = 3.44585 3.82337 3.63951
# Velocity P-wave (km/s) = 5.66156 6.57743 6.13660
#
# Compressibility (1/GPa) = 0.02597307
#
# Stress axis : x y z
#
# Youngs Moduli (GPa) = 68.44642 53.77020 53.71305
#
# Poissons Ratio (x) = 0.46052 -0.01699
# Poissons Ratio (y) = 0.58622 0.25125
# Poissons Ratio (z) = -0.02165 0.25152
#
# Static dielectric constant tensor:
#      x y z
#    x 1.871250 0.000000 0.011410 
#    y 0.000000 1.966170 0.000000 
#    z 0.011410 0.000000 1.895600 
# 
# From -- ./inp_files/310038.got.cif
#   From: 2010.05.17/outbox.cif.g08.bks.cpg/sg15_156_cif.got.tgz:310038.got - 2010.06.03 18:47:42.
