data_PCOD9304936
_publ_section_title
;
Structure prediction by ZEFSAII (Michael W. Deem and Ramdas Pophale) SiO2 
 PCOD9304936
Probable space group: C 2/C
;
_chemical_formula_sum "Si O2"
_cell_formula_units_Z 48
_cell_length_a 17.868124
_cell_length_b 9.682816
_cell_length_c 12.257799
_cell_angle_alpha 90.000000
_cell_angle_beta 69.221132
_cell_angle_gamma 90.000000
_cell_volume 1982.825872
_symmetry_space_group_name_H-M "C 2/C"
_symmetry_group_IT_number 15
_symmetry_cell_setting 'monoclinic'
loop_
_space_group_symop_operation_xyz
x,y,z
-x,y,1/2-z
-x,-y,-z
x,-y,1/2+z
1/2+x,1/2+y,z
1/2-x,1/2+y,1/2-z
1/2-x,1/2-y,-z
1/2+x,1/2-y,1/2+z
loop_
_atom_site_type_symbol
_atom_site_label
_atom_site_fract_x
_atom_site_fract_y
_atom_site_fract_z
Si Si1 0.939212 0.308825 0.518700
Si Si2 0.111720 0.284087 0.477161
Si Si3 0.272251 0.946268 0.232653
Si Si4 0.911552 0.588288 0.275592
Si Si5 0.725291 0.894921 0.961376
Si Si6 0.360243 0.470048 0.038067
O O1 0.922689 0.324297 0.657466
O O2 0.871639 0.400906 0.493018
O O3 0.921582 0.153849 0.484391
O O4 0.032075 0.347007 0.461202
O O5 0.189393 0.342960 0.375062
O O6 0.110955 0.321395 0.606197
O O7 0.103772 0.120156 0.465336
O O8 0.190508 0.912641 0.333349
O O9 0.341302 0.980201 0.284427
O O10 0.255105 0.087654 0.175869
O O11 0.000000 0.526912 0.250000
O O12 0.750000 0.750000 0.000000
O O13 0.789550 0.993037 0.985997
#
# Coordination Sequence:
#
# PCOD9304936 Si02
#       6
#     8   8   8   8   8   8
#     4   9  21  44  66  91 131 166 212 265 325 384
#     4  11  24  41  67  95 127 175 214 264 330 389
#     4  11  24  37  63  95 125 163 213 264 318 381
#     4   9  21  41  66  93 124 163 214 268 317 385
#     4   9  21  40  62  87 127 164 205 261 321 370
#     4  11  24  39  66  93 133 165 219 263 326 384
#
# _framework density 24.207874
#
# number of rings (size 3 to 8) (size 9 to 14) (size 15 to 20)
#    0.000    2.000    0.000    1.500    9.333    8.667 
#    0.000    0.000    0.000    0.000    0.000    0.000 
#    0.000    0.000    0.000    0.000    0.000    0.000 
#
# Total GULP energy -133991.799237 kJ/mol
# GULP energy per Si atom -5582.991635 kJ/mol
# Density = 2.415278 g / cm^3
# Si number density = 24.207874 Si / 1000 Ang^3
#
#
#
# Elastic Constant Matrix: (Units=GPa)
#
#
# Indices 1 2 3 4 5 6 
#
# 1 133.6769 7.5258 17.2389 0.0000 16.7535 0.0000
# 2 7.5258 68.5355 0.9105 0.0000 6.8409 0.0000
# 3 17.2389 0.9105 82.5805 0.0000 11.2112 0.0000
# 4 0.0000 0.0000 0.0000 27.3847 0.0000 2.6201
# 5 16.7535 6.8409 11.2112 0.0000 36.2363 0.0000
# 6 0.0000 0.0000 0.0000 2.6201 0.0000 43.3176
#
#
#
# Elastic Compliance Matrix: (Units=1/GPa)
#
#
# Indices 1 2 3 4 5 6 
#
# 1 0.008078 -0.000546 -0.001239 0.000000 -0.003248 0.000000
# 2 -0.000546 0.014912 0.000311 0.000000 -0.002659 0.000000
# 3 -0.001239 0.000311 0.012834 0.000000 -0.003456 0.000000
# 4 0.000000 0.000000 0.000000 0.036729 0.000000 -0.002222
# 5 -0.003248 -0.002659 -0.003456 0.000000 0.030670 0.000000
# 6 0.000000 0.000000 0.000000 -0.002222 0.000000 0.023220
#
#
# Mechanical properties :
#
#
# Convention : Reuss Voigt Hill
#
# Bulk Modulus (GPa) = 30.41893 37.34926 33.88409
# Shear Modulus (GPa) = 35.62477 38.66223 37.14350
#
# Velocity S-wave (km/s) = 3.84033 4.00070 3.92134
# Velocity P-wave (km/s) = 5.67954 6.06654 5.87622
#
# Compressibility (1/GPa) = 0.03287427
#
# Stress axis : x y z
#
# Youngs Moduli (GPa) = 123.78645 67.05908 77.91854
#
# Poissons Ratio (x) = 0.03664 0.09657
# Poissons Ratio (y) = 0.06763 -0.02420
# Poissons Ratio (z) = 0.15342 -0.02083
#
# Static dielectric constant tensor:
#      x y z
#    x 1.942230 0.000000 0.009700 
#    y 0.000000 1.941290 0.000000 
#    z 0.009700 0.000000 1.990270 
# 
# From -- ./inp_files/104177.got.cif
#   From: 2010.05.17/outbox.cif.g08.bks.cpg/sg15_53_cif.got.tgz:104177.got - 2010.06.03 18:47:42.
