data_PCOD9304268
_publ_section_title
;
Structure prediction by ZEFSAII (Michael W. Deem and Ramdas Pophale) SiO2 
 PCOD9304268
Probable space group: C 2/C
;
_chemical_formula_sum "Si O2"
_cell_formula_units_Z 64
_cell_length_a 26.581884
_cell_length_b 9.919766
_cell_length_c 16.884585
_cell_angle_alpha 90.000000
_cell_angle_beta 38.253491
_cell_angle_gamma 90.000000
_cell_volume 2756.561589
_symmetry_space_group_name_H-M "C 2/C"
_symmetry_group_IT_number 15
_symmetry_cell_setting 'monoclinic'
loop_
_space_group_symop_operation_xyz
x,y,z
-x,y,1/2-z
-x,-y,-z
x,-y,1/2+z
1/2+x,1/2+y,z
1/2-x,1/2+y,1/2-z
1/2-x,1/2-y,-z
1/2+x,1/2-y,1/2+z
loop_
_atom_site_type_symbol
_atom_site_label
_atom_site_fract_x
_atom_site_fract_y
_atom_site_fract_z
Si Si1 0.805437 0.623221 0.179587
Si Si2 0.447967 0.180630 0.742542
Si Si3 0.095988 0.948485 0.655717
Si Si4 0.358534 0.379634 0.537374
Si Si5 0.570313 0.356852 0.489453
Si Si6 0.381885 0.353063 0.236891
Si Si7 0.308287 0.100693 0.541008
Si Si8 0.359145 0.930978 0.797977
O O1 0.709224 0.633605 0.311042
O O2 0.848104 0.763820 0.102473
O O3 0.823348 0.515587 0.087767
O O4 0.830823 0.580747 0.239535
O O5 0.500000 0.118980 0.750000
O O6 0.388437 0.289254 0.857755
O O7 0.504022 0.275344 0.619484
O O8 0.411626 0.064627 0.735401
O O9 0.000000 0.967116 0.750000
O O10 0.156767 0.029828 0.523057
O O11 0.106949 0.015889 0.725936
O O12 0.420463 0.488185 0.497418
O O13 0.365295 0.228667 0.494308
O O14 0.560090 0.353786 0.409285
O O15 0.285578 0.350459 0.334500
O O16 0.400440 0.214856 0.258878
O O17 0.314339 0.059218 0.440432
#
# Coordination Sequence:
#
# PCOD9304268 Si02
#       8
#     8   8   8   8   8   8   8   8
#     4  11  24  43  71 106 136 181 226 290 348 400
#     4  11  24  46  64  93 140 184 227 276 338 407
#     4  11  24  43  65  96 133 183 225 279 340 402
#     4  12  20  44  72  96 140 173 228 284 340 406
#     4  11  23  44  69  95 140 179 221 287 339 406
#     4  11  23  43  68 101 133 175 229 283 344 404
#     4  12  23  43  73 103 140 181 225 289 348 399
#     4  11  24  44  67 102 139 179 230 279 340 417
#
# _framework density 23.217328999999999
#
# number of rings (size 3 to 8) (size 9 to 14) (size 15 to 20)
#    0.000    0.750    7.500    1.875    0.000    4.000 
#    6.750    1.250    0.000    0.000    0.000    0.000 
#    0.000    0.000    0.000    0.000    0.000    0.000 
#
# Total GULP energy -178195.197353 kJ/mol
# GULP energy per Si atom -5568.599917 kJ/mol
# Density = 2.316449 g / cm^3
# Si number density = 23.217329 Si / 1000 Ang^3
#
#
#
# Elastic Constant Matrix: (Units=GPa)
#
#
# Indices 1 2 3 4 5 6 
#
# 1 62.2096 49.0201 28.4961 0.0005 23.3649 0.0001
# 2 49.0201 81.5578 3.8518 -0.0002 -9.5013 0.0003
# 3 28.4961 3.8518 93.1171 0.0007 26.0809 0.0004
# 4 0.0005 -0.0002 0.0007 14.6110 -0.0005 6.8885
# 5 23.3649 -9.5013 26.0809 -0.0005 37.1411 -0.0002
# 6 0.0001 0.0003 0.0004 6.8885 -0.0002 45.6223
#
#
#
# Elastic Compliance Matrix: (Units=1/GPa)
#
#
# Indices 1 2 3 4 5 6 
#
# 1 0.111424 -0.076481 -0.007247 -0.000008 -0.084571 0.000001
# 2 -0.076481 0.065375 0.003163 0.000006 0.062616 -0.000001
# 3 -0.007247 0.003163 0.014095 -0.000001 -0.004529 0.000000
# 4 -0.000008 0.000006 -0.000001 0.073687 0.000008 -0.011126
# 5 -0.084571 0.062616 -0.004529 0.000008 0.099326 -0.000001
# 6 0.000001 -0.000001 0.000000 -0.011126 -0.000001 0.023599
#
#
# Mechanical properties :
#
#
# Convention : Reuss Voigt Hill
#
# Bulk Modulus (GPa) = 33.59945 44.40226 39.00086
# Shear Modulus (GPa) = 8.95164 29.84266 19.39715
#
# Velocity S-wave (km/s) = 1.96569 3.58908 2.89357
# Velocity P-wave (km/s) = 4.43340 6.02839 5.29134
#
# Compressibility (1/GPa) = 0.02976239
#
# Stress axis : x y z
#
# Youngs Moduli (GPa) = 8.97476 15.29632 70.94819
#
# Poissons Ratio (x) = 1.16988 0.51419
# Poissons Ratio (y) = 0.68640 -0.22439
# Poissons Ratio (z) = 0.06504 -0.04838
#
# Static dielectric constant tensor:
#      x y z
#    x 1.973860 0.000000 -0.010920 
#    y 0.000000 1.843540 0.000000 
#    z -0.010920 0.000000 1.949150 
# 
# From -- ./inp_files/224582.got.cif
#   From: 2010.05.17/outbox.cif.g08.bks.cpg/sg15_113_cif.got.tgz:224582.got - 2010.06.03 18:47:42.
