data_PCOD9304362
_publ_section_title
;
Structure prediction by ZEFSAII (Michael W. Deem and Ramdas Pophale) SiO2 
 PCOD9304362
Probable space group: C 2/C
;
_chemical_formula_sum "Si O2"
_cell_formula_units_Z 64
_cell_length_a 9.099311
_cell_length_b 14.816359
_cell_length_c 28.916568
_cell_angle_alpha 90.000000
_cell_angle_beta 48.560502
_cell_angle_gamma 90.000000
_cell_volume 2922.524709
_symmetry_space_group_name_H-M "C 2/C"
_symmetry_group_IT_number 15
_symmetry_cell_setting 'monoclinic'
loop_
_space_group_symop_operation_xyz
x,y,z
-x,y,1/2-z
-x,-y,-z
x,-y,1/2+z
1/2+x,1/2+y,z
1/2-x,1/2+y,1/2-z
1/2-x,1/2-y,-z
1/2+x,1/2-y,1/2+z
loop_
_atom_site_type_symbol
_atom_site_label
_atom_site_fract_x
_atom_site_fract_y
_atom_site_fract_z
Si Si1 0.480893 0.962153 0.556204
Si Si2 0.626699 0.746411 0.456476
Si Si3 0.989141 0.450848 0.696955
Si Si4 0.997788 0.347013 0.100810
Si Si5 0.312540 0.228118 0.091203
Si Si6 0.814433 0.946483 0.557372
Si Si7 0.694250 0.610185 0.732923
Si Si8 0.931804 0.748102 0.164490
O O1 0.461912 0.047305 0.595069
O O2 0.500000 0.000000 0.500000
O O3 0.317982 0.882545 0.588354
O O4 0.676279 0.923242 0.541436
O O5 0.494388 0.808006 0.451884
O O6 0.529693 0.750228 0.526428
O O7 0.602528 0.646915 0.441668
O O8 0.850599 0.770956 0.399947
O O9 0.831315 0.528989 0.720777
O O10 0.940060 0.352882 0.684579
O O11 0.000000 0.439794 0.750000
O O12 0.184255 0.482579 0.627429
O O13 0.171393 0.295707 0.092086
O O14 0.808062 0.328609 0.171496
O O15 0.292374 0.249198 0.149167
O O16 0.000000 0.000000 0.500000
O O17 0.500000 0.571862 0.750000
O O18 0.633982 0.676930 0.786138
#
# Coordination Sequence:
#
# PCOD9304362 Si02
#       8
#     8   8   8   8   8   8   8   8
#     4  12  25  46  70 108 153 187 242 313 375 454
#     4  11  23  43  72 104 143 188 236 298 371 449
#     4  11  26  50  72 107 151 194 255 311 374 463
#     4  12  26  46  72 105 145 188 248 300 371 448
#     4  12  25  45  76 106 147 190 244 309 379 446
#     4  11  25  46  73 109 151 191 245 312 376 450
#     4  12  26  49  74 100 144 196 248 307 370 452
#     4  11  25  48  72 104 143 194 244 303 371 444
#
# _framework density 21.898875
#
# number of rings (size 3 to 8) (size 9 to 14) (size 15 to 20)
#    0.000    0.500    6.250    1.875    5.250    0.000 
#    6.750    0.000    0.000    0.000    0.000    0.000 
#    0.000    0.000    0.000    0.000    0.000    0.000 
#
# Total GULP energy -178305.069259 kJ/mol
# GULP energy per Si atom -5572.033414 kJ/mol
# Density = 2.184903 g / cm^3
# Si number density = 21.898875 Si / 1000 Ang^3
#
#
#
# Elastic Constant Matrix: (Units=GPa)
#
#
# Indices 1 2 3 4 5 6 
#
# 1 69.3558 35.8692 48.7192 0.0000 14.0303 0.0000
# 2 35.8692 101.5298 49.0052 0.0000 -6.1801 0.0000
# 3 48.7192 49.0052 142.2617 0.0001 11.3370 0.0000
# 4 0.0000 0.0000 0.0001 31.8340 0.0000 4.7504
# 5 14.0303 -6.1801 11.3370 0.0000 38.3606 0.0000
# 6 0.0000 0.0000 0.0000 4.7504 0.0000 30.6784
#
#
#
# Elastic Compliance Matrix: (Units=1/GPa)
#
#
# Indices 1 2 3 4 5 6 
#
# 1 0.022670 -0.006037 -0.005065 0.000000 -0.007767 0.000000
# 2 -0.006037 0.013813 -0.003117 0.000000 0.005355 0.000000
# 3 -0.005065 -0.003117 0.009965 0.000000 -0.001595 0.000000
# 4 0.000000 0.000000 0.000000 0.032156 0.000000 -0.004979
# 5 -0.007767 0.005355 -0.001595 0.000000 0.030243 0.000000
# 6 0.000000 0.000000 0.000000 -0.004979 0.000000 0.033367
#
#
# Mechanical properties :
#
#
# Convention : Reuss Voigt Hill
#
# Bulk Modulus (GPa) = 55.52919 64.48161 60.00540
# Shear Modulus (GPa) = 28.30375 32.14486 30.22431
#
# Velocity S-wave (km/s) = 3.59900 3.83545 3.71910
# Velocity P-wave (km/s) = 6.53319 7.00880 6.77517
#
# Compressibility (1/GPa) = 0.01800855
#
# Stress axis : x y z
#
# Youngs Moduli (GPa) = 44.11170 72.39712 100.35342
#
# Poissons Ratio (x) = 0.43706 0.50829
# Poissons Ratio (y) = 0.26630 0.31284
# Poissons Ratio (z) = 0.22342 0.22569
#
# Static dielectric constant tensor:
#      x y z
#    x 4.026930 0.000000 0.101260 
#    y 0.000000 1.968000 0.000000 
#    z 0.101260 0.000000 1.878130 
# 
# From -- ./inp_files/308270.got.cif
#   From: 2010.05.17/outbox.cif.g08.bks.cpg/sg15_155_cif.got.tgz:308270.got - 2010.06.03 18:47:42.
