data_PCOD9304153
_publ_section_title
;
Structure prediction by ZEFSAII (Michael W. Deem and Ramdas Pophale) SiO2 
 PCOD9304153
Probable space group: C 2/C
;
_chemical_formula_sum "Si O2"
_cell_formula_units_Z 48
_cell_length_a 11.063509
_cell_length_b 16.697829
_cell_length_c 15.467262
_cell_angle_alpha 90.000000
_cell_angle_beta 49.978987
_cell_angle_gamma 90.000000
_cell_volume 2188.197983
_symmetry_space_group_name_H-M "C 2/C"
_symmetry_group_IT_number 15
_symmetry_cell_setting 'monoclinic'
loop_
_space_group_symop_operation_xyz
x,y,z
-x,y,1/2-z
-x,-y,-z
x,-y,1/2+z
1/2+x,1/2+y,z
1/2-x,1/2+y,1/2-z
1/2-x,1/2-y,-z
1/2+x,1/2-y,1/2+z
loop_
_atom_site_type_symbol
_atom_site_label
_atom_site_fract_x
_atom_site_fract_y
_atom_site_fract_z
Si Si1 0.198159 0.538921 0.097807
Si Si2 0.173575 0.272839 0.629332
Si Si3 0.628423 0.045478 0.797276
Si Si4 0.824889 0.987619 0.868537
Si Si5 0.811983 0.803285 0.894728
Si Si6 0.362224 0.768216 0.208009
O O1 0.173967 0.631000 0.131312
O O2 0.231353 0.488566 0.169537
O O3 0.034579 0.502972 0.135399
O O4 0.320146 0.529938 0.963595
O O5 0.250000 0.250000 0.500000
O O6 0.295477 0.242013 0.644645
O O7 0.000000 0.247024 0.750000
O O8 0.594242 0.139281 0.799671
O O9 0.713040 0.029239 0.849128
O O10 0.770730 0.895992 0.908847
O O11 0.000000 0.986417 0.750000
O O12 0.747602 0.759615 0.837845
O O13 0.997571 0.792993 0.833387
O O14 0.750000 0.750000 0.000000
#
# Coordination Sequence:
#
# PCOD9304153 Si02
#       6
#     8   8   8   8   8   8
#     4  11  24  45  73  97 135 189 234 274 342 426
#     4  12  28  48  73 105 146 188 235 290 355 422
#     4  11  23  45  72  97 133 184 238 274 337 428
#     4  12  25  42  67 105 141 174 227 294 352 398
#     4  11  23  42  70 101 141 181 234 293 354 411
#     4  11  24  44  69 105 137 184 237 291 351 418
#
# _framework density 21.935856999999999
#
# number of rings (size 3 to 8) (size 9 to 14) (size 15 to 20)
#    0.000    0.667    3.333    6.500    2.333    3.333 
#    0.000    0.000    0.000    0.000    0.000    0.000 
#    0.000    0.000    0.000    0.000    0.000    0.000 
#
# Total GULP energy -133949.006531 kJ/mol
# GULP energy per Si atom -5581.208605 kJ/mol
# Density = 2.188593 g / cm^3
# Si number density = 21.935857 Si / 1000 Ang^3
#
#
#
# Elastic Constant Matrix: (Units=GPa)
#
#
# Indices 1 2 3 4 5 6 
#
# 1 55.6785 10.4745 26.0632 0.0001 25.0884 0.0000
# 2 10.4745 91.8904 -4.6160 0.0000 5.1290 0.0000
# 3 26.0632 -4.6160 145.5381 0.0003 27.5370 -0.0003
# 4 0.0001 0.0000 0.0003 24.1291 -0.0002 20.4805
# 5 25.0884 5.1290 27.5370 -0.0002 35.7818 0.0001
# 6 0.0000 0.0000 -0.0003 20.4805 0.0001 12.6019
#
#
#
# Elastic Compliance Matrix: (Units=1/GPa)
#
#
# Indices 1 2 3 4 5 6 
#
# 1 0.026936 -0.002184 -0.001614 0.000001 -0.017331 -0.000001
# 2 -0.002184 0.011219 0.000891 0.000000 -0.000763 0.000000
# 3 -0.001614 0.000891 0.008191 0.000001 -0.005300 -0.000001
# 4 0.000001 0.000000 0.000001 -0.109219 -0.000003 0.177503
# 5 -0.017331 -0.000763 -0.005300 -0.000003 0.044287 0.000004
# 6 -0.000001 0.000000 -0.000001 0.177503 0.000004 -0.209125
#
#
# Mechanical properties :
#
#
# Convention : Reuss Voigt Hill
#
# Bulk Modulus (GPa) = 24.67159 39.66115 32.16637
# Shear Modulus (GPa) = -23.99371 31.91491 3.96060
#
# Velocity S-wave (km/s) = -3.31087 3.81848 1.34516
# Velocity P-wave (km/s) = 1.82873 6.12869 4.13621
#
# Compressibility (1/GPa) = 0.04053245
#
# Stress axis : x y z
#
# Youngs Moduli (GPa) = 37.12534 89.13583 122.08334
#
# Poissons Ratio (x) = 0.19468 0.19702
# Poissons Ratio (y) = 0.08108 -0.10881
# Poissons Ratio (z) = 0.05991 -0.07944
#
# Static dielectric constant tensor:
#      x y z
#    x 1.779380 0.000000 -0.136770 
#    y 0.000000 1.764720 0.000000 
#    z -0.136770 0.000000 2.346870 
# 
# From -- ./inp_files/144093.got.cif
#   From: 2010.05.17/outbox.cif.g08.bks.cpg/sg15_73_cif.got.tgz:144093.got - 2010.06.03 18:47:42.
