data_PCOD9304447
_publ_section_title
;
Structure prediction by ZEFSAII (Michael W. Deem and Ramdas Pophale) SiO2 
 PCOD9304447
Probable space group: C 2/C
;
_chemical_formula_sum "Si O2"
_cell_formula_units_Z 48
_cell_length_a 8.438430
_cell_length_b 18.059662
_cell_length_c 24.780887
_cell_angle_alpha 90.000000
_cell_angle_beta 147.585402
_cell_angle_gamma 90.000000
_cell_volume 2024.355834
_symmetry_space_group_name_H-M "C 2/C"
_symmetry_group_IT_number 15
_symmetry_cell_setting 'monoclinic'
loop_
_space_group_symop_operation_xyz
x,y,z
-x,y,1/2-z
-x,-y,-z
x,-y,1/2+z
1/2+x,1/2+y,z
1/2-x,1/2+y,1/2-z
1/2-x,1/2-y,-z
1/2+x,1/2-y,1/2+z
loop_
_atom_site_type_symbol
_atom_site_label
_atom_site_fract_x
_atom_site_fract_y
_atom_site_fract_z
Si Si1 0.399160 0.845060 0.487028
Si Si2 0.110483 0.874581 0.949880
Si Si3 0.583622 0.041945 0.863977
Si Si4 0.927708 0.729637 0.171160
Si Si5 0.825272 0.613282 0.324172
Si Si6 0.460867 0.468149 0.366230
O O1 0.666668 0.829983 0.523556
O O2 0.146466 0.789138 0.395622
O O3 0.514941 0.844570 0.580748
O O4 0.265840 0.927465 0.442225
O O5 0.850810 0.824980 0.899236
O O6 0.305305 0.910772 0.053909
O O7 0.992046 0.943463 0.879672
O O8 0.272906 0.058768 0.745578
O O9 0.825915 0.050215 0.886314
O O10 0.525442 0.957026 0.865458
O O11 0.000000 0.764461 0.250000
O O12 0.184563 0.674231 0.225725
O O13 0.500000 0.589116 0.250000
#
# Coordination Sequence:
#
# PCOD9304447 Si02
#       6
#     8   8   8   8   8   8
#     4  12  27  44  69 107 142 185 237 290 354 424
#     4  12  24  45  73 103 140 184 235 292 355 420
#     4  11  24  41  74 102 140 180 231 294 357 410
#     4  12  27  49  72  98 146 192 236 287 358 428
#     4  12  25  46  73 104 139 187 237 293 352 426
#     4  11  23  44  68 106 139 181 235 294 351 416
#
# _framework density 23.711247
#
# number of rings (size 3 to 8) (size 9 to 14) (size 15 to 20)
#    0.000    0.333    3.333    6.000    4.667    0.000 
#    3.000    0.000    0.000    0.000    0.000    0.000 
#    0.000    0.000    0.000    0.000    0.000    0.000 
#
# Total GULP energy -134367.821654 kJ/mol
# GULP energy per Si atom -5598.659236 kJ/mol
# Density = 2.365728 g / cm^3
# Si number density = 23.711247 Si / 1000 Ang^3
#
#
#
# Elastic Constant Matrix: (Units=GPa)
#
#
# Indices 1 2 3 4 5 6 
#
# 1 65.3644 7.0748 18.0766 0.0042 -9.9447 -0.0001
# 2 7.0748 65.7831 15.2846 0.0054 -6.4903 0.0029
# 3 18.0766 15.2846 99.1800 0.0062 -19.9546 0.0031
# 4 0.0042 0.0054 0.0062 38.2332 0.0057 2.4684
# 5 -9.9447 -6.4903 -19.9546 0.0057 40.0774 0.0024
# 6 -0.0001 0.0029 0.0031 2.4684 0.0024 12.6456
#
#
#
# Elastic Compliance Matrix: (Units=1/GPa)
#
#
# Indices 1 2 3 4 5 6 
#
# 1 0.016461 -0.000963 -0.002291 -0.000002 0.002788 0.000001
# 2 -0.000963 0.015903 -0.002006 -0.000002 0.001338 -0.000003
# 3 -0.002291 -0.002006 0.011813 -0.000002 0.004988 -0.000003
# 4 -0.000002 -0.000002 -0.000002 0.026489 -0.000005 -0.005171
# 5 0.002788 0.001338 0.004988 -0.000005 0.028344 -0.000006
# 6 0.000001 -0.000003 -0.000003 -0.005171 -0.000006 0.080088
#
#
# Mechanical properties :
#
#
# Convention : Reuss Voigt Hill
#
# Bulk Modulus (GPa) = 29.71153 34.57773 32.14463
# Shear Modulus (GPa) = 24.89583 30.85066 27.87325
#
# Velocity S-wave (km/s) = 3.24382 3.61099 3.43232
# Velocity P-wave (km/s) = 5.15632 5.65687 5.41238
#
# Compressibility (1/GPa) = 0.03365696
#
# Stress axis : x y z
#
# Youngs Moduli (GPa) = 60.75041 62.88060 84.65232
#
# Poissons Ratio (x) = 0.06055 0.19392
# Poissons Ratio (y) = 0.05850 0.16983
# Poissons Ratio (z) = 0.13917 0.12615
#
# Static dielectric constant tensor:
#      x y z
#    x 1.859180 0.000000 -0.023060 
#    y 0.000000 1.887400 0.000000 
#    z -0.023060 0.000000 1.906700 
# 
# From -- ./inp_files/290145.got.cif
#   From: 2010.05.17/outbox.cif.g08.bks.cpg/sg15_146_cif.got.tgz:290145.got - 2010.06.03 18:47:42.
