data_PCOD9304638
_publ_section_title
;
Structure prediction by ZEFSAII (Michael W. Deem and Ramdas Pophale) SiO2 
 PCOD9304638
Probable space group: C 2/C
;
_chemical_formula_sum "Si O2"
_cell_formula_units_Z 36
_cell_length_a 6.982548
_cell_length_b 7.362559
_cell_length_c 27.015160
_cell_angle_alpha 90.000000
_cell_angle_beta 66.869307
_cell_angle_gamma 90.000000
_cell_volume 1277.187062
_symmetry_space_group_name_H-M "C 2/C"
_symmetry_group_IT_number 15
_symmetry_cell_setting 'monoclinic'
loop_
_space_group_symop_operation_xyz
x,y,z
-x,y,1/2-z
-x,-y,-z
x,-y,1/2+z
1/2+x,1/2+y,z
1/2-x,1/2+y,1/2-z
1/2-x,1/2-y,-z
1/2+x,1/2-y,1/2+z
loop_
_atom_site_type_symbol
_atom_site_label
_atom_site_fract_x
_atom_site_fract_y
_atom_site_fract_z
Si Si1 0.099830 0.418681 0.939633
Si Si2 0.724269 0.013244 0.171231
Si Si3 0.991694 0.018825 0.558912
Si Si4 0.000000 0.779952 0.750000
Si Si5 0.825309 0.078161 0.825718
O O1 0.335537 0.386644 0.935678
O O2 0.156365 0.537938 0.885659
O O3 0.981239 0.235843 0.936360
O O4 0.000000 0.500000 0.000000
O O5 0.821319 0.074088 0.283223
O O6 0.550529 0.865851 0.201606
O O7 0.776822 0.021553 0.107909
O O8 0.944874 0.048042 0.673001
O O9 0.000000 0.000000 0.500000
O O10 0.319017 0.782919 0.807724
#
# Coordination Sequence:
#
# PCOD9304638 Si02
#       5
#     8   8   8   4   8
#     4  11  23  45  71 111 150 196 246 309 377 451
#     4  11  27  48  74 110 151 198 253 312 377 447
#     4  11  23  45  71 111 150 196 246 309 377 451
#     4  12  26  48  74 106 152 196 262 304 380 442
#     4  11  27  48  74 110 151 198 253 312 377 447
#
# _framework density 28.186942999999999
#
# number of rings (size 3 to 8) (size 9 to 14) (size 15 to 20)
#    0.000    0.889    2.222    3.333    6.222    3.556 
#    0.000    0.000    0.000    0.000    0.000    0.000 
#    0.000    0.000    0.000    0.000    0.000    0.000 
#
# Total GULP energy -100734.846280 kJ/mol
# GULP energy per Si atom -5596.380349 kJ/mol
# Density = 2.812279 g / cm^3
# Si number density = 28.186943 Si / 1000 Ang^3
#
#
#
# Elastic Constant Matrix: (Units=GPa)
#
#
# Indices 1 2 3 4 5 6 
#
# 1 125.8209 58.3211 47.1027 0.0000 -2.9120 0.0000
# 2 58.3211 235.7123 54.2251 0.0000 -32.0529 0.0000
# 3 47.1027 54.2251 187.9745 0.0000 -67.0904 0.0000
# 4 0.0000 0.0000 0.0000 60.7088 0.0000 -8.2582
# 5 -2.9120 -32.0529 -67.0904 0.0000 63.7466 0.0000
# 6 0.0000 0.0000 0.0000 -8.2582 0.0000 39.1310
#
#
#
# Elastic Compliance Matrix: (Units=1/GPa)
#
#
# Indices 1 2 3 4 5 6 
#
# 1 0.010207 -0.002323 -0.003424 0.000000 -0.004306 0.000000
# 2 -0.002323 0.005158 -0.000029 0.000000 0.002457 0.000000
# 3 -0.003424 -0.000029 0.009810 0.000000 0.010154 0.000000
# 4 0.000000 0.000000 0.000000 0.016959 0.000000 0.003579
# 5 -0.004306 0.002457 0.010154 0.000000 0.027412 0.000000
# 6 0.000000 0.000000 0.000000 0.003579 0.000000 0.026311
#
#
# Mechanical properties :
#
#
# Convention : Reuss Voigt Hill
#
# Bulk Modulus (GPa) = 73.40690 96.53394 84.97042
# Shear Modulus (GPa) = 44.66251 58.70786 51.68518
#
# Velocity S-wave (km/s) = 3.98491 4.56873 4.28677
# Velocity P-wave (km/s) = 6.87547 7.88372 7.39680
#
# Compressibility (1/GPa) = 0.01362270
#
# Stress axis : x y z
#
# Youngs Moduli (GPa) = 97.97265 193.87229 101.93347
#
# Poissons Ratio (x) = 0.45041 0.34905
# Poissons Ratio (y) = 0.22761 0.00294
# Poissons Ratio (z) = 0.33548 0.00559
#
# Static dielectric constant tensor:
#      x y z
#    x 2.276490 0.000000 0.094800 
#    y 0.000000 2.120220 0.000000 
#    z 0.094800 0.000000 2.300220 
# 
# From -- ./inp_files/187678.got.cif
#   From: 2010.05.17/outbox.cif.g08.bks.cpg/sg15_94_cif.got.tgz:187678.got - 2010.06.03 18:47:42.
