data_PCOD9304826
_publ_section_title
;
Structure prediction by ZEFSAII (Michael W. Deem and Ramdas Pophale) SiO2 
 PCOD9304826
Probable space group: C 2/C
;
_chemical_formula_sum "Si O2"
_cell_formula_units_Z 56
_cell_length_a 11.582947
_cell_length_b 8.646749
_cell_length_c 31.655816
_cell_angle_alpha 90.000000
_cell_angle_beta 126.266077
_cell_angle_gamma 90.000000
_cell_volume 2556.292796
_symmetry_space_group_name_H-M "C 2/C"
_symmetry_group_IT_number 15
_symmetry_cell_setting 'monoclinic'
loop_
_space_group_symop_operation_xyz
x,y,z
-x,y,1/2-z
-x,-y,-z
x,-y,1/2+z
1/2+x,1/2+y,z
1/2-x,1/2+y,1/2-z
1/2-x,1/2-y,-z
1/2+x,1/2-y,1/2+z
loop_
_atom_site_type_symbol
_atom_site_label
_atom_site_fract_x
_atom_site_fract_y
_atom_site_fract_z
Si Si1 0.613726 0.545884 0.163070
Si Si2 0.580491 0.958939 0.727719
Si Si3 0.805428 0.914275 0.494661
Si Si4 0.046642 0.422294 0.966173
Si Si5 0.899812 0.387055 0.359601
Si Si6 0.434136 0.376166 0.192478
Si Si7 0.908983 0.915234 0.429161
O O1 0.757239 0.571203 0.221589
O O2 0.555547 0.709593 0.134856
O O3 0.494505 0.464653 0.165465
O O4 0.650672 0.441639 0.130428
O O5 0.500000 0.039908 0.750000
O O6 0.494816 0.798479 0.702949
O O7 0.586469 0.043310 0.684334
O O8 0.750000 0.750000 0.500000
O O9 0.792336 0.922359 0.440995
O O10 0.715578 0.049145 0.497718
O O11 0.972457 0.950701 0.538105
O O12 0.982802 0.516986 0.912796
O O13 0.988749 0.248779 0.951146
O O14 0.000000 0.500000 0.000000
O O15 0.734923 0.381876 0.339051
O O16 0.500000 0.443647 0.250000
#
# Coordination Sequence:
#
# PCOD9304826 Si02
#       7
#     8   8   8   8   8   8   8
#     4  12  24  43  74 103 139 187 233 293 364 426
#     4  11  23  47  70 103 146 181 232 297 359 433
#     4  11  24  49  73 101 143 182 244 299 353 423
#     4  12  27  47  73 101 144 194 244 294 361 424
#     4  12  27  45  70 105 141 191 241 295 358 427
#     4  11  23  47  70  99 147 182 232 295 353 431
#     4  11  27  45  71 106 141 189 236 299 362 424
#
# _framework density 21.906723
#
# number of rings (size 3 to 8) (size 9 to 14) (size 15 to 20)
#    0.000    0.571    5.714    2.143    6.000    2.857 
#    2.571    0.000    0.000    0.000    0.000    0.000 
#    0.000    0.000    0.000    0.000    0.000    0.000 
#
# Total GULP energy -156669.951407 kJ/mol
# GULP energy per Si atom -5595.355407 kJ/mol
# Density = 2.185686 g / cm^3
# Si number density = 21.906723 Si / 1000 Ang^3
#
#
#
# Elastic Constant Matrix: (Units=GPa)
#
#
# Indices 1 2 3 4 5 6 
#
# 1 149.5637 40.0979 35.5637 0.0000 -38.7276 0.0000
# 2 40.0979 91.9567 31.0792 0.0000 -20.5232 0.0000
# 3 35.5637 31.0792 96.7006 0.0000 -34.0703 0.0000
# 4 0.0000 0.0000 0.0000 26.2733 0.0000 -3.2100
# 5 -38.7276 -20.5232 -34.0703 0.0000 43.1361 0.0000
# 6 0.0000 0.0000 0.0000 -3.2100 0.0000 19.3027
#
#
#
# Elastic Compliance Matrix: (Units=1/GPa)
#
#
# Indices 1 2 3 4 5 6 
#
# 1 0.009169 -0.002392 -0.000144 0.000000 0.006980 0.000000
# 2 -0.002392 0.013278 -0.002658 0.000000 0.002071 0.000000
# 3 -0.000144 -0.002658 0.014905 0.000000 0.010378 0.000000
# 4 0.000000 0.000000 0.000000 0.038851 0.000000 0.006461
# 5 0.006980 0.002071 0.010378 0.000000 0.038632 0.000000
# 6 0.000000 0.000000 0.000000 0.006461 0.000000 0.052881
#
#
# Mechanical properties :
#
#
# Convention : Reuss Voigt Hill
#
# Bulk Modulus (GPa) = 37.08645 61.30027 49.19336
# Shear Modulus (GPa) = 26.72484 33.17444 29.94964
#
# Velocity S-wave (km/s) = 3.49655 3.89569 3.70150
# Velocity P-wave (km/s) = 5.76777 6.94826 6.38535
#
# Compressibility (1/GPa) = 0.02696403
#
# Stress axis : x y z
#
# Youngs Moduli (GPa) = 109.06308 75.31165 67.09061
#
# Poissons Ratio (x) = 0.18011 0.00967
# Poissons Ratio (y) = 0.26083 0.17836
# Poissons Ratio (z) = 0.01572 0.20021
#
# Static dielectric constant tensor:
#      x y z
#    x 1.832460 0.000000 -0.011630 
#    y 0.000000 1.782270 0.000000 
#    z -0.011630 0.000000 1.845350 
# 
# From -- ./inp_files/310368.got.cif
#   From: 2010.05.17/outbox.cif.g08.bks.cpg/sg15_156_cif.got.tgz:310368.got - 2010.06.03 18:47:42.
