data_PCOD9304125
_publ_section_title
;
Structure prediction by ZEFSAII (Michael W. Deem and Ramdas Pophale) SiO2 
 PCOD9304125
Probable space group: C 2/C
;
_chemical_formula_sum "Si O2"
_cell_formula_units_Z 56
_cell_length_a 18.183613
_cell_length_b 6.836001
_cell_length_c 23.819452
_cell_angle_alpha 90.000000
_cell_angle_beta 110.756799
_cell_angle_gamma 90.000000
_cell_volume 2768.655649
_symmetry_space_group_name_H-M "C 2/C"
_symmetry_group_IT_number 15
_symmetry_cell_setting 'monoclinic'
loop_
_space_group_symop_operation_xyz
x,y,z
-x,y,1/2-z
-x,-y,-z
x,-y,1/2+z
1/2+x,1/2+y,z
1/2-x,1/2+y,1/2-z
1/2-x,1/2-y,-z
1/2+x,1/2-y,1/2+z
loop_
_atom_site_type_symbol
_atom_site_label
_atom_site_fract_x
_atom_site_fract_y
_atom_site_fract_z
Si Si1 0.341354 0.278579 0.510907
Si Si2 0.174068 0.969723 0.700102
Si Si3 0.044068 0.455776 0.912085
Si Si4 0.743187 0.889837 0.165719
Si Si5 0.389764 0.569195 0.622031
Si Si6 0.116464 0.290599 0.599728
Si Si7 0.981795 0.235308 0.306175
O O1 0.250000 0.250000 0.500000
O O2 0.370940 0.448577 0.560256
O O3 0.356200 0.316704 0.449522
O O4 0.391285 0.081967 0.537475
O O5 0.230597 0.041121 0.765011
O O6 0.219371 0.835493 0.667394
O O7 0.106761 0.836309 0.709890
O O8 0.132287 0.148015 0.656595
O O9 0.085220 0.285800 0.887908
O O10 0.002211 0.607449 0.858839
O O11 0.974355 0.354568 0.928431
O O12 0.670863 0.019697 0.124265
O O13 0.815208 0.923378 0.142906
O O14 0.460434 0.450255 0.670305
O O15 0.000000 0.319697 0.250000
#
# Coordination Sequence:
#
# PCOD9304125 Si02
#       7
#     8   8   8   8   8   8   8
#     4  11  26  46  69  99 133 175 230 282 327 394
#     4  12  25  41  69 103 134 178 220 272 343 398
#     4  11  26  44  69  98 132 181 228 270 341 395
#     4  12  25  41  70 102 138 171 225 277 332 403
#     4  11  25  44  68 100 131 177 227 277 331 398
#     4  12  25  46  67  97 141 176 218 280 335 400
#     4  11  23  42  68  99 138 172 225 278 333 404
#
# _framework density 20.226423
#
# number of rings (size 3 to 8) (size 9 to 14) (size 15 to 20)
#    0.000    0.571    7.143    0.429    2.000    5.143 
#    0.000    0.000    0.000    0.000    0.000    0.000 
#    0.000    0.000    0.000    0.000    0.000    0.000 
#
# Total GULP energy -156604.839760 kJ/mol
# GULP energy per Si atom -5593.029991 kJ/mol
# Density = 2.018039 g / cm^3
# Si number density = 20.226423 Si / 1000 Ang^3
#
#
#
# Elastic Constant Matrix: (Units=GPa)
#
#
# Indices 1 2 3 4 5 6 
#
# 1 102.8959 16.2851 20.5014 0.0000 -4.6538 0.0000
# 2 16.2851 67.8429 -4.7661 0.0000 3.0140 0.0001
# 3 20.5014 -4.7661 62.5210 0.0000 -4.4051 0.0000
# 4 0.0000 0.0000 0.0000 20.1251 0.0000 -3.6816
# 5 -4.6538 3.0140 -4.4051 0.0000 36.1822 0.0000
# 6 0.0000 0.0001 0.0000 -3.6816 0.0000 36.6824
#
#
#
# Elastic Compliance Matrix: (Units=1/GPa)
#
#
# Indices 1 2 3 4 5 6 
#
# 1 0.010986 -0.002954 -0.003743 0.000000 0.001203 0.000000
# 2 -0.002954 0.015657 0.002061 0.000000 -0.001433 0.000000
# 3 -0.003743 0.002061 0.017483 0.000000 0.001475 0.000000
# 4 0.000000 0.000000 0.000000 0.050618 0.000000 0.005080
# 5 0.001203 -0.001433 0.001475 0.000000 0.028092 0.000000
# 6 0.000000 0.000000 0.000000 0.005080 0.000000 0.027771
#
#
# Mechanical properties :
#
#
# Convention : Reuss Voigt Hill
#
# Bulk Modulus (GPa) = 28.68948 33.03341 30.86144
# Shear Modulus (GPa) = 29.15503 32.01390 30.58446
#
# Velocity S-wave (km/s) = 3.80074 3.98273 3.89280
# Velocity P-wave (km/s) = 5.78583 6.12509 5.95787
#
# Compressibility (1/GPa) = 0.03485599
#
# Stress axis : x y z
#
# Youngs Moduli (GPa) = 91.02344 63.86767 57.19826
#
# Poissons Ratio (x) = 0.18864 0.21409
# Poissons Ratio (y) = 0.26884 -0.11789
# Poissons Ratio (z) = 0.34069 -0.13164
#
# Static dielectric constant tensor:
#      x y z
#    x 1.700740 0.000000 -0.001230 
#    y 0.000000 1.690180 0.000000 
#    z -0.001230 0.000000 1.716800 
# 
# From -- ./inp_files/297771.got.cif
#   From: 2010.05.17/outbox.cif.g08.bks.cpg/sg15_149_cif.got.tgz:297771.got - 2010.06.03 18:47:42.
