data_PCOD9304674
_publ_section_title
;
Structure prediction by ZEFSAII (Michael W. Deem and Ramdas Pophale) SiO2 
 PCOD9304674
Probable space group: C 2/C
;
_chemical_formula_sum "Si O2"
_cell_formula_units_Z 44
_cell_length_a 14.162742
_cell_length_b 8.019557
_cell_length_c 15.067577
_cell_angle_alpha 90.000000
_cell_angle_beta 67.408959
_cell_angle_gamma 90.000000
_cell_volume 1580.046998
_symmetry_space_group_name_H-M "C 2/C"
_symmetry_group_IT_number 15
_symmetry_cell_setting 'monoclinic'
loop_
_space_group_symop_operation_xyz
x,y,z
-x,y,1/2-z
-x,-y,-z
x,-y,1/2+z
1/2+x,1/2+y,z
1/2-x,1/2+y,1/2-z
1/2-x,1/2-y,-z
1/2+x,1/2-y,1/2+z
loop_
_atom_site_type_symbol
_atom_site_label
_atom_site_fract_x
_atom_site_fract_y
_atom_site_fract_z
Si Si1 0.146954 0.968120 0.797499
Si Si2 0.864983 0.559394 0.294012
Si Si3 0.368692 0.298356 0.449116
Si Si4 0.000000 0.741066 0.750000
Si Si5 0.762673 0.093821 0.432684
Si Si6 0.572115 0.819832 0.910112
O O1 0.243498 0.916602 0.823799
O O2 0.047579 0.855619 0.811429
O O3 0.198730 0.951891 0.680881
O O4 0.118951 0.147865 0.849401
O O5 0.897315 0.710837 0.345402
O O6 0.904383 0.378835 0.313336
O O7 0.918930 0.563387 0.179421
O O8 0.250000 0.250000 0.500000
O O9 0.350751 0.492993 0.453485
O O10 0.459099 0.236931 0.478753
O O11 0.750000 0.250000 0.500000
O O12 0.639974 0.082256 0.456897
#
# Coordination Sequence:
#
# PCOD9304674 Si02
#       6
#     8   8   8   4   8   8
#     4  11  25  45  78 108 142 201 259 320 377 472
#     4  11  23  45  73 108 144 195 262 318 374 477
#     4  12  27  45  72 109 157 201 248 326 401 460
#     4  12  24  40  78 108 144 190 256 320 382 444
#     4  11  27  47  74 112 155 196 255 328 402 468
#     4  11  24  50  76 103 151 205 265 314 388 472
#
# _framework density 27.847273000000001
#
# number of rings (size 3 to 8) (size 9 to 14) (size 15 to 20)
#    0.000    0.727    3.636    3.273    7.636    1.455 
#    3.273    0.000    0.000    0.000    0.000    0.000 
#    0.000    0.000    0.000    0.000    0.000    0.000 
#
# Total GULP energy -122500.143497 kJ/mol
# GULP energy per Si atom -5568.188341 kJ/mol
# Density = 2.778389 g / cm^3
# Si number density = 27.847273 Si / 1000 Ang^3
#
#
#
# Elastic Constant Matrix: (Units=GPa)
#
#
# Indices 1 2 3 4 5 6 
#
# 1 197.0586 41.0554 31.8073 0.0000 -47.8131 0.0000
# 2 41.0554 120.4808 12.3169 0.0000 -23.1390 0.0000
# 3 31.8073 12.3169 79.2545 0.0000 -8.8047 0.0000
# 4 0.0000 0.0000 0.0000 41.2689 0.0000 -22.8278
# 5 -47.8131 -23.1390 -8.8047 0.0000 35.1341 0.0000
# 6 0.0000 0.0000 0.0000 -22.8278 0.0000 30.3949
#
#
#
# Elastic Compliance Matrix: (Units=1/GPa)
#
#
# Indices 1 2 3 4 5 6 
#
# 1 0.007918 -0.000597 -0.001987 0.000000 0.009884 0.000000
# 2 -0.000597 0.009597 -0.000658 0.000000 0.005344 0.000000
# 3 -0.001987 -0.000658 0.013546 0.000000 0.000257 0.000000
# 4 0.000000 0.000000 0.000000 0.041452 0.000000 0.031132
# 5 0.009884 0.005344 0.000257 0.000000 0.045498 0.000000
# 6 0.000000 0.000000 0.000000 0.031132 0.000000 0.056282
#
#
# Mechanical properties :
#
#
# Convention : Reuss Voigt Hill
#
# Bulk Modulus (GPa) = 40.68854 63.01702 51.85278
# Shear Modulus (GPa) = 26.45947 42.13385 34.29666
#
# Velocity S-wave (km/s) = 3.08582 3.89399 3.51322
# Velocity P-wave (km/s) = 5.22871 6.54952 5.92603
#
# Compressibility (1/GPa) = 0.02457694
#
# Stress axis : x y z
#
# Youngs Moduli (GPa) = 126.29515 104.19977 73.82323
#
# Poissons Ratio (x) = 0.06217 0.14668
# Poissons Ratio (y) = 0.07535 0.04860
# Poissons Ratio (z) = 0.25093 0.06860
#
# Static dielectric constant tensor:
#      x y z
#    x 2.243450 0.000000 0.009240 
#    y 0.000000 2.061790 0.000000 
#    z 0.009240 0.000000 2.136810 
# 
# From -- ./inp_files/202933.got.cif
#   From: 2010.05.17/outbox.cif.g08.bks.cpg/sg15_102_cif.got.tgz:202933.got - 2010.06.03 18:47:42.
