data_PCOD9304887
_publ_section_title
;
Structure prediction by ZEFSAII (Michael W. Deem and Ramdas Pophale) SiO2 
 PCOD9304887
Probable space group: C 2/C
;
_chemical_formula_sum "Si O2"
_cell_formula_units_Z 52
_cell_length_a 10.011874
_cell_length_b 25.817712
_cell_length_c 11.660586
_cell_angle_alpha 90.000000
_cell_angle_beta 56.325008
_cell_angle_gamma 90.000000
_cell_volume 2508.298629
_symmetry_space_group_name_H-M "C 2/C"
_symmetry_group_IT_number 15
_symmetry_cell_setting 'monoclinic'
loop_
_space_group_symop_operation_xyz
x,y,z
-x,y,1/2-z
-x,-y,-z
x,-y,1/2+z
1/2+x,1/2+y,z
1/2-x,1/2+y,1/2-z
1/2-x,1/2-y,-z
1/2+x,1/2-y,1/2+z
loop_
_atom_site_type_symbol
_atom_site_label
_atom_site_fract_x
_atom_site_fract_y
_atom_site_fract_z
Si Si1 0.500000 0.640206 0.250000
Si Si2 0.000000 0.371797 0.250000
Si Si3 0.192602 0.801618 0.466738
Si Si4 0.777583 0.062860 0.247442
Si Si5 0.191210 0.908610 0.014200
Si Si6 0.020693 0.438056 0.469584
Si Si7 0.500000 0.522650 0.750000
Si Si8 0.093428 0.210496 0.581857
O O1 0.377168 0.669476 0.388638
O O2 0.413950 0.605050 0.197176
O O3 0.840060 0.335175 0.340613
O O4 0.992539 0.411564 0.147017
O O5 0.250000 0.750000 0.500000
O O6 0.049839 0.786342 0.445199
O O7 0.623665 0.083386 0.385554
O O8 0.854177 0.013806 0.276591
O O9 0.743855 0.061992 0.129228
O O10 0.314443 0.919396 0.056405
O O11 0.161257 0.847539 0.026485
O O12 0.034822 0.940237 0.126439
O O13 0.000000 0.500000 0.500000
O O14 0.250000 0.250000 0.500000
O O15 0.000000 0.214300 0.750000
#
# Coordination Sequence:
#
# PCOD9304887 Si02
#       8
#     4   4   8   8   8   8   4   8
#     4  11  23  48  70 106 144 190 245 299 372 440
#     4  12  29  50  79 108 159 200 255 314 374 458
#     4  12  28  50  82 109 150 199 257 313 380 457
#     4  11  24  44  70 106 144 192 245 303 364 446
#     4  12  25  46  73 102 151 195 240 310 377 441
#     4  12  27  44  70 111 150 197 250 302 374 446
#     4  11  24  42  73 106 143 196 252 289 376 452
#     4  12  30  51  78 112 149 194 253 315 383 446
#
# _framework density 20.731183000000001
#
# number of rings (size 3 to 8) (size 9 to 14) (size 15 to 20)
#    0.000    0.308    5.385    2.308    8.615    1.231 
#    0.000    0.000    0.000    0.000    0.000    0.000 
#    0.000    0.000    0.000    0.000    0.000    0.000 
#
# Total GULP energy -144893.579080 kJ/mol
# GULP energy per Si atom -5572.829965 kJ/mol
# Density = 2.068400 g / cm^3
# Si number density = 20.731183 Si / 1000 Ang^3
#
#
#
# Elastic Constant Matrix: (Units=GPa)
#
#
# Indices 1 2 3 4 5 6 
#
# 1 100.8613 39.2455 27.5723 0.0000 3.8164 0.0000
# 2 39.2455 121.3701 37.8570 0.0000 -11.0651 0.0000
# 3 27.5723 37.8570 129.1645 0.0000 7.9858 0.0000
# 4 0.0000 0.0000 0.0000 49.7775 0.0000 -53.2505
# 5 3.8164 -11.0651 7.9858 0.0000 41.3603 0.0000
# 6 0.0000 0.0000 0.0000 -53.2505 0.0000 86.4782
#
#
#
# Elastic Compliance Matrix: (Units=1/GPa)
#
#
# Indices 1 2 3 4 5 6 
#
# 1 0.011726 -0.003528 -0.001360 0.000000 -0.001763 0.000000
# 2 -0.003528 0.010507 -0.002551 0.000000 0.003629 0.000000
# 3 -0.001360 -0.002551 0.008921 0.000000 -0.002279 0.000000
# 4 0.000000 0.000000 0.000000 0.058867 0.000000 0.036248
# 5 -0.001763 0.003629 -0.002279 0.000000 0.025751 0.000000
# 6 0.000000 0.000000 0.000000 0.036248 0.000000 0.033884
#
#
# Mechanical properties :
#
#
# Convention : Reuss Voigt Hill
#
# Bulk Modulus (GPa) = 61.44094 62.30503 61.87298
# Shear Modulus (GPa) = 29.41905 51.97128 40.69516
#
# Velocity S-wave (km/s) = 3.77114 5.01234 4.43537
# Velocity P-wave (km/s) = 6.97591 7.97603 7.49268
#
# Compressibility (1/GPa) = 0.01627579
#
# Stress axis : x y z
#
# Youngs Moduli (GPa) = 85.28106 95.17917 112.09693
#
# Poissons Ratio (x) = 0.33581 0.15245
# Poissons Ratio (y) = 0.30089 0.28591
# Poissons Ratio (z) = 0.11598 0.24276
#
# Static dielectric constant tensor:
#      x y z
#    x 1.684990 0.000000 0.062230 
#    y 0.000000 1.736990 0.000000 
#    z 0.062230 0.000000 1.742420 
# 
# From -- ./inp_files/81219.got.cif
#   From: 2010.05.17/outbox.cif.g08.bks.cpg/sg15_41_cif.got.tgz:81219.got - 2010.06.03 18:47:42.
