data_PCOD9304241
_publ_section_title
;
Structure prediction by ZEFSAII (Michael W. Deem and Ramdas Pophale) SiO2 
 PCOD9304241
Probable space group: C 2/C
;
_chemical_formula_sum "Si O2"
_cell_formula_units_Z 56
_cell_length_a 11.742028
_cell_length_b 22.143731
_cell_length_c 9.188427
_cell_angle_alpha 90.000000
_cell_angle_beta 61.117520
_cell_angle_gamma 90.000000
_cell_volume 2091.928873
_symmetry_space_group_name_H-M "C 2/C"
_symmetry_group_IT_number 15
_symmetry_cell_setting 'monoclinic'
loop_
_space_group_symop_operation_xyz
x,y,z
-x,y,1/2-z
-x,-y,-z
x,-y,1/2+z
1/2+x,1/2+y,z
1/2-x,1/2+y,1/2-z
1/2-x,1/2-y,-z
1/2+x,1/2-y,1/2+z
loop_
_atom_site_type_symbol
_atom_site_label
_atom_site_fract_x
_atom_site_fract_y
_atom_site_fract_z
Si Si1 0.418374 0.749175 0.655564
Si Si2 0.627022 0.376067 0.751369
Si Si3 0.006011 0.383720 0.909811
Si Si4 0.707982 0.921268 0.295673
Si Si5 0.504753 0.434475 0.419498
Si Si6 0.117096 0.258602 0.275876
Si Si7 0.162667 0.535171 0.506944
O O1 0.500000 0.731117 0.750000
O O2 0.409271 0.823316 0.661303
O O3 0.270755 0.726170 0.716126
O O4 0.527588 0.739188 0.466607
O O5 0.500000 0.399989 0.750000
O O6 0.642429 0.307578 0.689463
O O7 0.738164 0.416743 0.620161
O O8 0.602677 0.392630 0.935985
O O9 0.042219 0.439147 0.990711
O O10 0.000000 0.407787 0.750000
O O11 0.873906 0.366879 0.079604
O O12 0.852461 0.905101 0.153704
O O13 0.711696 0.970382 0.424031
O O14 0.653776 0.953815 0.183476
O O15 0.500000 0.441992 0.250000
O O16 0.500000 0.500000 0.500000
O O17 0.000000 0.291575 0.250000
#
# Coordination Sequence:
#
# PCOD9304241 Si02
#       7
#     8   8   8   8   8   8   8
#     4  11  25  47  76 106 146 186 238 298 364 433
#     4  11  23  43  66  96 139 182 227 287 352 420
#     4  11  26  45  67  98 135 181 229 286 352 417
#     4  12  25  39  67  96 132 183 228 285 335 421
#     4  12  24  37  61  94 129 175 225 279 340 412
#     4  11  25  46  75 107 143 187 236 300 364 430
#     4  12  23  43  65  93 140 176 234 275 351 404
#
# _framework density 26.769552000000001
#
# number of rings (size 3 to 8) (size 9 to 14) (size 15 to 20)
#    0.000    0.571    4.286    3.857    2.000    2.857 
#    0.000    0.000    0.000    0.000    0.000    0.000 
#    0.000    0.000    0.000    0.000    0.000    0.000 
#
# Total GULP energy -156234.708706 kJ/mol
# GULP energy per Si atom -5579.811025 kJ/mol
# Density = 2.670862 g / cm^3
# Si number density = 26.769552 Si / 1000 Ang^3
#
#
#
# Elastic Constant Matrix: (Units=GPa)
#
#
# Indices 1 2 3 4 5 6 
#
# 1 139.8095 20.7300 66.9190 0.0000 -10.5633 0.0000
# 2 20.7300 66.3315 -0.8862 0.0000 -8.8181 0.0000
# 3 66.9190 -0.8862 185.4710 0.0000 11.0285 0.0000
# 4 0.0000 0.0000 0.0000 38.4032 0.0000 -7.3952
# 5 -10.5633 -8.8181 11.0285 0.0000 56.4984 0.0000
# 6 0.0000 0.0000 0.0000 -7.3952 0.0000 79.9601
#
#
#
# Elastic Compliance Matrix: (Units=1/GPa)
#
#
# Indices 1 2 3 4 5 6 
#
# 1 0.009394 -0.002714 -0.003522 0.000000 0.002020 0.000000
# 2 -0.002714 0.016180 0.000948 0.000000 0.001833 0.000000
# 3 -0.003522 0.000948 0.006776 0.000000 -0.001833 0.000000
# 4 0.000000 0.000000 0.000000 0.026512 0.000000 0.002452
# 5 0.002020 0.001833 -0.001833 0.000000 0.018721 0.000000
# 6 0.000000 0.000000 0.000000 0.002452 0.000000 0.012733
#
#
# Mechanical properties :
#
#
# Convention : Reuss Voigt Hill
#
# Bulk Modulus (GPa) = 45.93009 62.79305 54.36157
# Shear Modulus (GPa) = 46.23149 55.29562 50.76356
#
# Velocity S-wave (km/s) = 4.16025 4.54984 4.35940
# Velocity P-wave (km/s) = 6.34600 7.14907 6.75947
#
# Compressibility (1/GPa) = 0.02177222
#
# Stress axis : x y z
#
# Youngs Moduli (GPa) = 106.45503 61.80328 147.57715
#
# Poissons Ratio (x) = 0.16775 0.51982
# Poissons Ratio (y) = 0.28894 -0.13985
# Poissons Ratio (z) = 0.37497 -0.05857
#
# Static dielectric constant tensor:
#      x y z
#    x 1.918010 0.000000 0.497700 
#    y 0.000000 2.119960 0.000000 
#    z 0.497700 0.000000 1.561000 
# 
# From -- ./inp_files/35583.got.cif
#   From: 2010.05.17/outbox.cif.g08.bks.cpg/sg15_18_cif.got.tgz:35583.got - 2010.06.03 18:47:42.
