data_PCOD9304991
_publ_section_title
;
Structure prediction by ZEFSAII (Michael W. Deem and Ramdas Pophale) SiO2 
 PCOD9304991
Probable space group: C 2/C
;
_chemical_formula_sum "Si O2"
_cell_formula_units_Z 52
_cell_length_a 10.795271
_cell_length_b 15.295039
_cell_length_c 16.221842
_cell_angle_alpha 90.000000
_cell_angle_beta 124.832474
_cell_angle_gamma 90.000000
_cell_volume 2198.544207
_symmetry_space_group_name_H-M "C 2/C"
_symmetry_group_IT_number 15
_symmetry_cell_setting 'monoclinic'
loop_
_space_group_symop_operation_xyz
x,y,z
-x,y,1/2-z
-x,-y,-z
x,-y,1/2+z
1/2+x,1/2+y,z
1/2-x,1/2+y,1/2-z
1/2-x,1/2-y,-z
1/2+x,1/2-y,1/2+z
loop_
_atom_site_type_symbol
_atom_site_label
_atom_site_fract_x
_atom_site_fract_y
_atom_site_fract_z
Si Si1 0.071910 0.710463 0.060659
Si Si2 0.000000 0.000193 0.250000
Si Si3 0.177972 0.661081 0.830870
Si Si4 0.380595 0.358033 0.083708
Si Si5 0.184896 0.989227 0.569856
Si Si6 0.746902 0.607736 0.256525
Si Si7 0.678858 0.204987 0.655382
O O1 0.235890 0.752212 0.106217
O O2 0.101289 0.635878 0.139235
O O3 0.976295 0.788901 0.067235
O O4 0.982213 0.682912 0.945680
O O5 0.860657 0.062257 0.217965
O O6 0.969265 0.935673 0.162720
O O7 0.237652 0.583077 0.910477
O O8 0.226114 0.648828 0.752579
O O9 0.000000 0.670266 0.750000
O O10 0.293939 0.308093 0.123719
O O11 0.278792 0.413830 0.982239
O O12 0.251957 0.956076 0.681480
O O13 0.000000 0.000000 0.500000
O O14 0.679425 0.696781 0.190927
#
# Coordination Sequence:
#
# PCOD9304991 Si02
#       7
#     8   4   8   8   8   8   8
#     4  11  24  44  71 105 141 186 232 299 364 426
#     4  12  24  42  68 104 134 198 228 284 350 434
#     4  11  26  45  68 104 148 189 235 299 359 435
#     4  12  24  46  76  98 144 185 240 291 362 424
#     4  12  22  46  72 102 140 192 242 290 362 431
#     4  11  24  40  69 103 139 176 246 282 354 427
#     4  11  25  46  70 104 143 181 238 300 360 423
#
# _framework density 23.652016
#
# number of rings (size 3 to 8) (size 9 to 14) (size 15 to 20)
#    0.000    0.615    4.615    3.231    4.308    3.077 
#    0.000    2.308    0.000    0.000    0.000    0.000 
#    0.000    0.000    0.000    0.000    0.000    0.000 
#
# Total GULP energy -145357.478009 kJ/mol
# GULP energy per Si atom -5590.672231 kJ/mol
# Density = 2.359818 g / cm^3
# Si number density = 23.652016 Si / 1000 Ang^3
#
#
#
# Elastic Constant Matrix: (Units=GPa)
#
#
# Indices 1 2 3 4 5 6 
#
# 1 57.9364 15.4388 -3.5709 0.0000 9.5930 0.0000
# 2 15.4388 91.9149 18.4771 0.0000 2.5515 0.0000
# 3 -3.5709 18.4771 107.7523 0.0000 10.3393 0.0000
# 4 0.0000 0.0000 0.0000 51.1417 0.0000 2.8498
# 5 9.5930 2.5515 10.3393 0.0000 38.4154 0.0000
# 6 0.0000 0.0000 0.0000 2.8498 0.0000 30.9758
#
#
#
# Elastic Compliance Matrix: (Units=1/GPa)
#
#
# Indices 1 2 3 4 5 6 
#
# 1 0.019102 -0.003411 0.001698 0.000000 -0.005000 0.000000
# 2 -0.003411 0.011879 -0.002213 0.000000 0.000658 0.000000
# 3 0.001698 -0.002213 0.010001 0.000000 -0.002969 0.000000
# 4 0.000000 0.000000 0.000000 0.019654 0.000000 -0.001808
# 5 -0.005000 0.000658 -0.002969 0.000000 0.028035 0.000000
# 6 0.000000 0.000000 0.000000 -0.001808 0.000000 0.032450
#
#
# Mechanical properties :
#
#
# Convention : Reuss Voigt Hill
#
# Bulk Modulus (GPa) = 30.18473 35.36594 32.77534
# Shear Modulus (GPa) = 35.70986 39.25717 37.48352
#
# Velocity S-wave (km/s) = 3.88983 4.07846 3.98526
# Velocity P-wave (km/s) = 5.74144 6.09619 5.92147
#
# Compressibility (1/GPa) = 0.03312933
#
# Stress axis : x y z
#
# Youngs Moduli (GPa) = 52.35090 84.18078 99.98814
#
# Poissons Ratio (x) = 0.28714 -0.16976
# Poissons Ratio (y) = 0.17857 0.22130
# Poissons Ratio (z) = -0.08888 0.18631
#
# Static dielectric constant tensor:
#      x y z
#    x 1.987620 0.000000 -0.008390 
#    y 0.000000 1.906070 0.000000 
#    z -0.008390 0.000000 1.909450 
# 
# From -- ./inp_files/198026.got.cif
#   From: 2010.05.17/outbox.cif.g08.bks.cpg/sg15_100_cif.got.tgz:198026.got - 2010.06.03 18:47:42.
