data_PCOD9304390
_publ_section_title
;
Structure prediction by ZEFSAII (Michael W. Deem and Ramdas Pophale) SiO2 
 PCOD9304390
Probable space group: C 2/C
;
_chemical_formula_sum "Si O2"
_cell_formula_units_Z 40
_cell_length_a 12.861269
_cell_length_b 8.892803
_cell_length_c 14.097673
_cell_angle_alpha 90.000000
_cell_angle_beta 111.972144
_cell_angle_gamma 90.000000
_cell_volume 1495.274872
_symmetry_space_group_name_H-M "C 2/C"
_symmetry_group_IT_number 15
_symmetry_cell_setting 'monoclinic'
loop_
_space_group_symop_operation_xyz
x,y,z
-x,y,1/2-z
-x,-y,-z
x,-y,1/2+z
1/2+x,1/2+y,z
1/2-x,1/2+y,1/2-z
1/2-x,1/2-y,-z
1/2+x,1/2-y,1/2+z
loop_
_atom_site_type_symbol
_atom_site_label
_atom_site_fract_x
_atom_site_fract_y
_atom_site_fract_z
Si Si1 0.332285 0.511821 0.903589
Si Si2 0.092013 0.360099 0.361234
Si Si3 0.371614 0.699485 0.578095
Si Si4 0.313873 0.447498 0.690344
Si Si5 0.574609 0.845314 0.574039
O O1 0.201766 0.535899 0.886498
O O2 0.342451 0.421361 0.809392
O O3 0.371608 0.680121 0.900397
O O4 0.397509 0.428293 0.008564
O O5 0.137184 0.188830 0.355767
O O6 0.046925 0.367924 0.453491
O O7 0.000000 0.390505 0.250000
O O8 0.250000 0.750000 0.500000
O O9 0.360954 0.607676 0.671480
O O10 0.465432 0.826377 0.601707
O O11 0.178852 0.451750 0.635200
#
# Coordination Sequence:
#
# PCOD9304390 Si02
#       5
#     8   8   8   8   8
#     4  11  24  46  67 101 139 179 231 288 351 422
#     4  11  23  43  73  98 132 188 230 286 362 412
#     4  12  27  43  70 101 138 184 235 287 355 418
#     4  11  25  44  69 104 141 177 239 291 347 428
#     4  11  24  48  71  96 141 184 233 295 350 418
#
# _framework density 26.750934999999998
#
# number of rings (size 3 to 8) (size 9 to 14) (size 15 to 20)
#    0.000    0.800    4.000    3.000   11.200    2.400 
#    0.000    0.000    0.000    0.000    0.000    0.000 
#    0.000    0.000    0.000    0.000    0.000    0.000 
#
# Total GULP energy -112234.839766 kJ/mol
# GULP energy per Si atom -5611.741988 kJ/mol
# Density = 2.669005 g / cm^3
# Si number density = 26.750935 Si / 1000 Ang^3
#
#
#
# Elastic Constant Matrix: (Units=GPa)
#
#
# Indices 1 2 3 4 5 6 
#
# 1 160.7731 38.8963 16.5114 0.0000 14.0066 0.0000
# 2 38.8963 77.2842 5.5041 0.0000 -7.6261 0.0000
# 3 16.5114 5.5041 111.8295 0.0000 -6.6468 0.0000
# 4 0.0000 0.0000 0.0000 38.2300 0.0000 6.6057
# 5 14.0066 -7.6261 -6.6468 0.0000 44.0618 0.0000
# 6 0.0000 0.0000 0.0000 6.6057 0.0000 35.2391
#
#
#
# Elastic Compliance Matrix: (Units=1/GPa)
#
#
# Indices 1 2 3 4 5 6 
#
# 1 0.007607 -0.004074 -0.001118 0.000000 -0.003292 0.000000
# 2 -0.004074 0.015375 0.000081 0.000000 0.003968 0.000000
# 3 -0.001118 0.000081 0.009208 0.000000 0.001758 0.000000
# 4 0.000000 0.000000 0.000000 0.027033 0.000000 -0.005067
# 5 -0.003292 0.003968 0.001758 0.000000 0.024694 0.000000
# 6 0.000000 0.000000 0.000000 -0.005067 0.000000 0.029328
#
#
# Mechanical properties :
#
#
# Convention : Reuss Voigt Hill
#
# Bulk Modulus (GPa) = 45.52216 52.41227 48.96722
# Shear Modulus (GPa) = 38.22904 42.77116 40.50010
#
# Velocity S-wave (km/s) = 3.78441 4.00292 3.89520
# Velocity P-wave (km/s) = 6.01246 6.40310 6.21085
#
# Compressibility (1/GPa) = 0.02196732
#
# Stress axis : x y z
#
# Youngs Moduli (GPa) = 131.45455 65.03893 108.60294
#
# Poissons Ratio (x) = 0.26496 0.12146
# Poissons Ratio (y) = 0.53552 -0.00875
# Poissons Ratio (z) = 0.14701 -0.00524
#
# Static dielectric constant tensor:
#      x y z
#    x 2.169970 0.000000 -0.011880 
#    y 0.000000 2.093730 0.000000 
#    z -0.011880 0.000000 1.986310 
# 
# From -- ./inp_files/141807.got.cif
#   From: 2010.05.17/outbox.cif.g08.bks.cpg/sg15_71_cif.got.tgz:141807.got - 2010.06.03 18:47:42.
