data_PCOD9304563
_publ_section_title
;
Structure prediction by ZEFSAII (Michael W. Deem and Ramdas Pophale) SiO2 
 PCOD9304563
Probable space group: C 2/C
;
_chemical_formula_sum "Si O2"
_cell_formula_units_Z 56
_cell_length_a 11.012409
_cell_length_b 9.419385
_cell_length_c 25.144481
_cell_angle_alpha 90.000000
_cell_angle_beta 115.774508
_cell_angle_gamma 90.000000
_cell_volume 2348.752298
_symmetry_space_group_name_H-M "C 2/C"
_symmetry_group_IT_number 15
_symmetry_cell_setting 'monoclinic'
loop_
_space_group_symop_operation_xyz
x,y,z
-x,y,1/2-z
-x,-y,-z
x,-y,1/2+z
1/2+x,1/2+y,z
1/2-x,1/2+y,1/2-z
1/2-x,1/2-y,-z
1/2+x,1/2-y,1/2+z
loop_
_atom_site_type_symbol
_atom_site_label
_atom_site_fract_x
_atom_site_fract_y
_atom_site_fract_z
Si Si1 0.476955 0.698581 0.401796
Si Si2 0.699915 0.091495 0.896492
Si Si3 0.537812 0.751290 0.598354
Si Si4 0.382858 0.028343 0.935157
Si Si5 0.101099 0.162755 0.726084
Si Si6 0.267613 0.942033 0.702803
Si Si7 0.160627 0.038121 0.977880
O O1 0.590406 0.795953 0.395713
O O2 0.379127 0.615490 0.343788
O O3 0.545656 0.583869 0.453754
O O4 0.387238 0.812299 0.415737
O O5 0.833229 0.176753 0.904222
O O6 0.661304 0.005278 0.836233
O O7 0.745772 0.989146 0.953397
O O8 0.576864 0.916135 0.602667
O O9 0.528111 0.695581 0.656438
O O10 0.408649 0.691340 0.542112
O O11 0.246092 0.004435 0.940996
O O12 0.500000 0.000000 0.000000
O O13 0.152026 0.311669 0.758490
O O14 0.000000 0.096902 0.750000
O O15 0.229717 0.064644 0.737295
#
# Coordination Sequence:
#
# PCOD9304563 Si02
#       7
#     8   8   8   8   8   8   8
#     4  12  25  44  72 105 143 190 231 286 354 429
#     4  11  23  44  75 106 146 185 234 287 359 427
#     4  11  26  46  71 102 144 188 236 294 356 418
#     4  12  27  41  70 112 144 187 231 282 355 431
#     4  11  28  50  73  99 137 186 244 303 354 408
#     4  11  29  47  73 105 136 189 247 296 359 423
#     4  12  24  46  73 104 154 191 225 290 357 442
#
# _framework density 23.842448000000001
#
# number of rings (size 3 to 8) (size 9 to 14) (size 15 to 20)
#    0.000    0.571    5.714    1.714    8.000    2.857 
#    0.000    0.000    0.000    0.000    0.000    0.000 
#    0.000    0.000    0.000    0.000    0.000    0.000 
#
# Total GULP energy -156908.835933 kJ/mol
# GULP energy per Si atom -5603.886998 kJ/mol
# Density = 2.378818 g / cm^3
# Si number density = 23.842448 Si / 1000 Ang^3
#
#
#
# Elastic Constant Matrix: (Units=GPa)
#
#
# Indices 1 2 3 4 5 6 
#
# 1 50.2691 17.7625 25.8267 0.0000 -20.9356 0.0000
# 2 17.7625 119.2338 17.5361 0.0000 -9.8151 0.0000
# 3 25.8267 17.5361 62.6422 0.0000 -18.6984 0.0000
# 4 0.0000 0.0000 0.0000 43.2715 0.0000 0.7119
# 5 -20.9356 -9.8151 -18.6984 0.0000 28.6711 0.0000
# 6 0.0000 0.0000 0.0000 0.7119 0.0000 41.5874
#
#
#
# Elastic Compliance Matrix: (Units=1/GPa)
#
#
# Indices 1 2 3 4 5 6 
#
# 1 0.031753 -0.002214 -0.007173 0.000000 0.017750 0.000000
# 2 -0.002214 0.008971 -0.001446 0.000000 0.000511 0.000000
# 3 -0.007173 -0.001446 0.021873 0.000000 0.008532 0.000000
# 4 0.000000 0.000000 0.000000 0.023116 0.000000 -0.000396
# 5 0.017750 0.000511 0.008532 0.000000 0.053579 0.000000
# 6 0.000000 0.000000 0.000000 -0.000396 0.000000 0.024053
#
#
# Mechanical properties :
#
#
# Convention : Reuss Voigt Hill
#
# Bulk Modulus (GPa) = 24.43177 39.37729 31.90453
# Shear Modulus (GPa) = 25.16926 34.10732 29.63829
#
# Velocity S-wave (km/s) = 3.25260 3.78634 3.52957
# Velocity P-wave (km/s) = 4.93713 5.97215 5.47914
#
# Compressibility (1/GPa) = 0.04093032
#
# Stress axis : x y z
#
# Youngs Moduli (GPa) = 31.49301 111.46418 45.71922
#
# Poissons Ratio (x) = 0.24680 0.32796
# Poissons Ratio (y) = 0.06973 0.06611
# Poissons Ratio (z) = 0.22591 0.16117
#
# Static dielectric constant tensor:
#      x y z
#    x 2.170200 0.000000 -0.231440 
#    y 0.000000 1.988060 0.000000 
#    z -0.231440 0.000000 2.067780 
# 
# From -- ./inp_files/291627.got.cif
#   From: 2010.05.17/outbox.cif.g08.bks.cpg/sg15_146_cif.got.tgz:291627.got - 2010.06.03 18:47:42.
