data_PCOD9304681
_publ_section_title
;
Structure prediction by ZEFSAII (Michael W. Deem and Ramdas Pophale) SiO2 
 PCOD9304681
Probable space group: C 2/C
;
_chemical_formula_sum "Si O2"
_cell_formula_units_Z 32
_cell_length_a 13.416195
_cell_length_b 6.756114
_cell_length_c 12.526427
_cell_angle_alpha 90.000000
_cell_angle_beta 85.414796
_cell_angle_gamma 90.000000
_cell_volume 1131.778341
_symmetry_space_group_name_H-M "C 2/C"
_symmetry_group_IT_number 15
_symmetry_cell_setting 'monoclinic'
loop_
_space_group_symop_operation_xyz
x,y,z
-x,y,1/2-z
-x,-y,-z
x,-y,1/2+z
1/2+x,1/2+y,z
1/2-x,1/2+y,1/2-z
1/2-x,1/2-y,-z
1/2+x,1/2-y,1/2+z
loop_
_atom_site_type_symbol
_atom_site_label
_atom_site_fract_x
_atom_site_fract_y
_atom_site_fract_z
Si Si1 0.764401 0.030446 0.589122
Si Si2 0.599150 0.184513 0.966307
Si Si3 0.500000 0.405111 0.250000
Si Si4 0.827000 0.385181 0.696067
Si Si5 0.500000 0.500000 0.000000
O O1 0.671969 0.928046 0.539176
O O2 0.865270 0.924117 0.532701
O O3 0.753453 0.949562 0.710345
O O4 0.772457 0.262881 0.606370
O O5 0.490549 0.243531 0.012582
O O6 0.619149 0.079458 0.854191
O O7 0.594810 0.260618 0.256332
O O8 0.487421 0.520392 0.362706
#
# Coordination Sequence:
#
# PCOD9304681 Si02
#       5
#     8   8   4   8   4
#     4  11  23  45  74 110 149 200 269 321 389 467
#     4  11  25  45  75 109 153 206 259 325 394 467
#     4  12  28  50  74 116 158 204 266 318 400 472
#     4  12  24  47  75 112 154 205 259 325 398 470
#     4  12  26  52  76 110 162 206 260 326 390 474
#
# _framework density 28.274086
#
# number of rings (size 3 to 8) (size 9 to 14) (size 15 to 20)
#    0.000    0.500    7.500    0.750    0.000    2.000 
#    9.000    0.000    0.000    0.000    0.000    0.000 
#    0.000    0.000    0.000    0.000    0.000    0.000 
#
# Total GULP energy -89330.627036 kJ/mol
# GULP energy per Si atom -5583.164190 kJ/mol
# Density = 2.820973 g / cm^3
# Si number density = 28.274086 Si / 1000 Ang^3
#
#
#
# Elastic Constant Matrix: (Units=GPa)
#
#
# Indices 1 2 3 4 5 6 
#
# 1 118.6445 58.4732 50.7642 0.0000 -6.4047 0.0000
# 2 58.4732 149.3532 47.3672 0.0000 -9.0222 0.0000
# 3 50.7642 47.3672 166.9928 0.0000 -11.9543 0.0000
# 4 0.0000 0.0000 0.0000 50.3212 0.0000 -25.1043
# 5 -6.4047 -9.0222 -11.9543 0.0000 53.0219 0.0000
# 6 0.0000 0.0000 0.0000 -25.1043 0.0000 68.4507
#
#
#
# Elastic Compliance Matrix: (Units=1/GPa)
#
#
# Indices 1 2 3 4 5 6 
#
# 1 0.011248 -0.003639 -0.002372 0.000000 0.000205 0.000000
# 2 -0.003639 0.008568 -0.001272 0.000000 0.000732 0.000000
# 3 -0.002372 -0.001272 0.007150 0.000000 0.001109 0.000000
# 4 0.000000 0.000000 0.000000 0.024322 0.000000 0.008920
# 5 0.000205 0.000732 0.001109 0.000000 0.019259 0.000000
# 6 0.000000 0.000000 0.000000 0.008920 0.000000 0.017881
#
#
# Mechanical properties :
#
#
# Convention : Reuss Voigt Hill
#
# Bulk Modulus (GPa) = 80.64997 83.13329 81.89163
# Shear Modulus (GPa) = 46.67352 52.91782 49.79567
#
# Velocity S-wave (km/s) = 4.06735 4.33089 4.20119
# Velocity P-wave (km/s) = 7.11647 7.38074 7.24981
#
# Compressibility (1/GPa) = 0.01239926
#
# Stress axis : x y z
#
# Youngs Moduli (GPa) = 88.90363 116.71724 139.86838
#
# Poissons Ratio (x) = 0.42473 0.33184
# Poissons Ratio (y) = 0.32352 0.17786
# Poissons Ratio (z) = 0.21092 0.14842
#
# Static dielectric constant tensor:
#      x y z
#    x 2.265300 0.000000 0.039910 
#    y 0.000000 2.329860 0.000000 
#    z 0.039910 0.000000 2.297260 
# 
# From -- ./inp_files/158063.got.cif
#   From: 2010.05.17/outbox.cif.g08.bks.cpg/sg15_80_cif.got.tgz:158063.got - 2010.06.03 18:47:42.
