data_PCOD9304067
_publ_section_title
;
Structure prediction by ZEFSAII (Michael W. Deem and Ramdas Pophale) SiO2 
 PCOD9304067
Probable space group: C 2/C
;
_chemical_formula_sum "Si O2"
_cell_formula_units_Z 52
_cell_length_a 29.186868
_cell_length_b 12.058115
_cell_length_c 12.526363
_cell_angle_alpha 90.000000
_cell_angle_beta 142.269206
_cell_angle_gamma 90.000000
_cell_volume 2697.797879
_symmetry_space_group_name_H-M "C 2/C"
_symmetry_group_IT_number 15
_symmetry_cell_setting 'monoclinic'
loop_
_space_group_symop_operation_xyz
x,y,z
-x,y,1/2-z
-x,-y,-z
x,-y,1/2+z
1/2+x,1/2+y,z
1/2-x,1/2+y,1/2-z
1/2-x,1/2-y,-z
1/2+x,1/2-y,1/2+z
loop_
_atom_site_type_symbol
_atom_site_label
_atom_site_fract_x
_atom_site_fract_y
_atom_site_fract_z
Si Si1 0.630267 0.226449 0.346818
Si Si2 0.237486 0.857389 0.902497
Si Si3 0.868686 0.293009 0.414714
Si Si4 0.009470 0.366738 0.031805
Si Si5 0.833351 0.471103 0.899881
Si Si6 0.247150 0.916198 0.529917
Si Si7 0.000000 0.596922 0.750000
O O1 0.597962 0.228583 0.406870
O O2 0.695081 0.133808 0.450400
O O3 0.674858 0.338669 0.405330
O O4 0.564363 0.194133 0.146071
O O5 0.174304 0.815469 0.704546
O O6 0.302793 0.905424 0.946352
O O7 0.250000 0.750000 0.000000
O O8 0.222049 0.961545 0.950142
O O9 0.923303 0.328869 0.420175
O O10 0.816007 0.399803 0.342085
O O11 0.019745 0.341702 0.176030
O O12 0.000000 0.500000 0.000000
O O13 0.795866 0.412603 0.728315
O O14 0.923871 0.468226 0.078608
#
# Coordination Sequence:
#
# PCOD9304067 Si02
#       7
#     8   8   8   8   8   8   4
#     4  11  23  42  68  96 133 184 222 279 346 409
#     4  12  25  41  65 102 139 178 232 287 338 411
#     4  12  23  40  68  99 134 177 225 280 347 403
#     4  12  24  41  65 101 136 169 230 288 341 398
#     4  12  23  41  61 100 138 171 221 283 343 404
#     4  11  23  42  65  95 137 180 231 272 340 415
#     4  12  24  38  66  94 138 172 214 284 350 390
#
# _framework density 19.274979999999999
#
# number of rings (size 3 to 8) (size 9 to 14) (size 15 to 20)
#    0.000    0.308    7.692    2.308    0.000    0.000 
#    0.000    0.769    0.000    0.000    0.000    0.000 
#    0.000    0.000    0.000    0.000    0.000    0.000 
#
# Total GULP energy -144977.994044 kJ/mol
# GULP energy per Si atom -5576.076694 kJ/mol
# Density = 1.923111 g / cm^3
# Si number density = 19.274980 Si / 1000 Ang^3
#
#
#
# Elastic Constant Matrix: (Units=GPa)
#
#
# Indices 1 2 3 4 5 6 
#
# 1 125.3012 40.6513 41.9411 0.0000 -24.4611 0.0000
# 2 40.6513 122.5617 46.7365 0.0000 -0.7276 0.0000
# 3 41.9411 46.7365 118.6525 0.0000 -19.5472 0.0000
# 4 0.0000 0.0000 0.0000 28.3480 0.0000 -5.2576
# 5 -24.4611 -0.7276 -19.5472 0.0000 36.4502 0.0000
# 6 0.0000 0.0000 0.0000 -5.2576 0.0000 14.0593
#
#
#
# Elastic Compliance Matrix: (Units=1/GPa)
#
#
# Indices 1 2 3 4 5 6 
#
# 1 0.010676 -0.002891 -0.001606 0.000000 0.006245 0.000000
# 2 -0.002891 0.010521 -0.003737 0.000000 -0.003735 0.000000
# 3 -0.001606 -0.003737 0.011274 0.000000 0.004894 0.000000
# 4 0.000000 0.000000 0.000000 0.037905 0.000000 0.014175
# 5 0.006245 -0.003735 0.004894 0.000000 0.034176 0.000000
# 6 0.000000 0.000000 0.000000 0.014175 0.000000 0.076428
#
#
# Mechanical properties :
#
#
# Convention : Reuss Voigt Hill
#
# Bulk Modulus (GPa) = 62.49469 69.46367 65.97918
# Shear Modulus (GPa) = 24.65693 31.58391 28.12042
#
# Velocity S-wave (km/s) = 3.58050 4.05235 3.82371
# Velocity P-wave (km/s) = 7.04176 7.61655 7.33479
#
# Compressibility (1/GPa) = 0.01600136
#
# Stress axis : x y z
#
# Youngs Moduli (GPa) = 93.67218 95.04600 88.70013
#
# Poissons Ratio (x) = 0.27482 0.14243
# Poissons Ratio (y) = 0.27085 0.33151
# Poissons Ratio (z) = 0.15042 0.35523
#
# Static dielectric constant tensor:
#      x y z
#    x 1.724330 0.000000 -0.033100 
#    y 0.000000 1.671350 0.000000 
#    z -0.033100 0.000000 1.708920 
# 
# From -- ./inp_files/126479.got.cif
#   From: 2010.05.17/outbox.cif.g08.bks.cpg/sg15_64_cif.got.tgz:126479.got - 2010.06.03 18:47:42.
