data_PCOD9304679
_publ_section_title
;
Structure prediction by ZEFSAII (Michael W. Deem and Ramdas Pophale) SiO2 
 PCOD9304679
Probable space group: C 2/C
;
_chemical_formula_sum "Si O2"
_cell_formula_units_Z 32
_cell_length_a 14.591119
_cell_length_b 16.125621
_cell_length_c 10.921702
_cell_angle_alpha 90.000000
_cell_angle_beta 150.671771
_cell_angle_gamma 90.000000
_cell_volume 1258.707548
_symmetry_space_group_name_H-M "C 2/C"
_symmetry_group_IT_number 15
_symmetry_cell_setting 'monoclinic'
loop_
_space_group_symop_operation_xyz
x,y,z
-x,y,1/2-z
-x,-y,-z
x,-y,1/2+z
1/2+x,1/2+y,z
1/2-x,1/2+y,1/2-z
1/2-x,1/2-y,-z
1/2+x,1/2-y,1/2+z
loop_
_atom_site_type_symbol
_atom_site_label
_atom_site_fract_x
_atom_site_fract_y
_atom_site_fract_z
Si Si1 0.632847 0.393977 0.805188
Si Si2 0.204619 0.151325 0.726662
Si Si3 0.413253 0.838132 0.939862
Si Si4 0.786366 0.922434 0.013781
O O1 0.500000 0.347660 0.750000
O O2 0.473750 0.404933 0.514707
O O3 0.807064 0.350988 0.943748
O O4 0.698972 0.480410 0.938888
O O5 0.129880 0.244606 0.652345
O O6 0.290758 0.121657 0.954720
O O7 0.365372 0.148870 0.811118
O O8 0.322858 0.900826 0.736045
O O9 0.000000 0.891146 0.250000
#
# Coordination Sequence:
#
# PCOD9304679 Si02
#       4
#     8   8   8   8
#     4  11  27  47  70 103 153 191 233 295 362 430
#     4  12  24  47  76 106 142 192 240 298 360 420
#     4  12  25  47  75 107 141 190 246 297 353 428
#     4  11  23  45  74 104 147 184 237 306 355 415
#
# _framework density 25.422902000000001
#
# number of rings (size 3 to 8) (size 9 to 14) (size 15 to 20)
#    0.000    0.500    5.000    2.250    3.500    3.000 
#    9.000    0.000    0.000    0.000    0.000    0.000 
#    0.000    0.000    0.000    0.000    0.000    0.000 
#
# Total GULP energy -89656.543058 kJ/mol
# GULP energy per Si atom -5603.533941 kJ/mol
# Density = 2.536504 g / cm^3
# Si number density = 25.422902 Si / 1000 Ang^3
#
#
#
# Elastic Constant Matrix: (Units=GPa)
#
#
# Indices 1 2 3 4 5 6 
#
# 1 152.4032 27.2507 9.7659 0.0000 27.9173 0.0000
# 2 27.2507 130.5625 33.2377 0.0000 -0.6848 0.0000
# 3 9.7659 33.2377 108.7502 0.0000 20.5907 0.0000
# 4 0.0000 0.0000 0.0000 -2.7070 0.0000 -5.6301
# 5 27.9173 -0.6848 20.5907 0.0000 53.0836 0.0000
# 6 0.0000 0.0000 0.0000 -5.6301 0.0000 37.9608
#
#
#
# Elastic Compliance Matrix: (Units=1/GPa)
#
#
# Indices 1 2 3 4 5 6 
#
# 1 0.007624 -0.001785 0.000674 0.000000 -0.004294 0.000000
# 2 -0.001785 0.008792 -0.002942 0.000000 0.002194 0.000000
# 3 0.000674 -0.002942 0.010910 0.000000 -0.004624 0.000000
# 4 0.000000 0.000000 0.000000 -0.282329 0.000000 -0.041873
# 5 -0.004294 0.002194 -0.004624 0.000000 0.022919 0.000000
# 6 0.000000 0.000000 0.000000 -0.041873 0.000000 0.020133
#
#
# Mechanical properties :
#
#
# Convention : Reuss Voigt Hill
#
# Bulk Modulus (GPa) = 52.03187 59.13606 55.58397
# Shear Modulus (GPa) = -25.32440 39.09825 6.88693
#
# Velocity S-wave (km/s) = -3.15957 3.92588 1.64767
# Velocity P-wave (km/s) = 2.68337 6.62280 5.05282
#
# Compressibility (1/GPa) = 0.01921899
#
# Stress axis : x y z
#
# Youngs Moduli (GPa) = 131.16133 113.73537 91.66197
#
# Poissons Ratio (x) = 0.20307 -0.06179
# Poissons Ratio (y) = 0.23418 0.26969
# Poissons Ratio (z) = -0.08841 0.33464
#
# Static dielectric constant tensor:
#      x y z
#    x 2.077610 0.000000 -0.039260 
#    y 0.000000 1.918550 0.000000 
#    z -0.039260 0.000000 1.999490 
# 
# From -- ./inp_files/86998.got.cif
#   From: 2010.05.17/outbox.cif.g08.bks.cpg/sg15_44_cif.got.tgz:86998.got - 2010.06.03 18:47:42.
