data_PCOD9304624
_publ_section_title
;
Structure prediction by ZEFSAII (Michael W. Deem and Ramdas Pophale) SiO2 
 PCOD9304624
Probable space group: C 2/C
;
_chemical_formula_sum "Si O2"
_cell_formula_units_Z 36
_cell_length_a 11.804938
_cell_length_b 14.644944
_cell_length_c 14.899400
_cell_angle_alpha 90.000000
_cell_angle_beta 40.131979
_cell_angle_gamma 90.000000
_cell_volume 1660.263917
_symmetry_space_group_name_H-M "C 2/C"
_symmetry_group_IT_number 15
_symmetry_cell_setting 'monoclinic'
loop_
_space_group_symop_operation_xyz
x,y,z
-x,y,1/2-z
-x,-y,-z
x,-y,1/2+z
1/2+x,1/2+y,z
1/2-x,1/2+y,1/2-z
1/2-x,1/2-y,-z
1/2+x,1/2-y,1/2+z
loop_
_atom_site_type_symbol
_atom_site_label
_atom_site_fract_x
_atom_site_fract_y
_atom_site_fract_z
Si Si1 0.619354 0.625687 0.257792
Si Si2 0.043734 0.741307 0.122231
Si Si3 0.430141 0.036636 0.136670
Si Si4 0.357279 0.714622 0.557530
Si Si5 0.000000 0.601656 0.750000
O O1 0.500000 0.589026 0.250000
O O2 0.719593 0.550152 0.255025
O O3 0.503070 0.691097 0.393645
O O4 0.774874 0.683872 0.115375
O O5 0.000000 0.767818 0.250000
O O6 0.997327 0.635595 0.129084
O O7 0.947857 0.797650 0.100652
O O8 0.250000 0.750000 0.000000
O O9 0.491678 0.962829 0.169749
O O10 0.500000 0.000000 0.000000
O O11 0.181351 0.657808 0.643664
#
# Coordination Sequence:
#
# PCOD9304624 Si02
#       5
#     8   8   8   8   4
#     4  11  23  45  70 105 132 184 240 281 347 422
#     4  11  24  47  70  99 135 183 236 280 341 418
#     4  11  26  44  69  98 145 180 223 296 353 401
#     4  11  25  41  77  97 138 187 231 287 345 423
#     4  12  26  46  64 106 144 178 232 292 356 410
#
# _framework density 21.683299000000002
#
# number of rings (size 3 to 8) (size 9 to 14) (size 15 to 20)
#    0.000    0.889    2.222    4.667    9.333    0.889 
#    4.000    0.000    0.000    0.000    0.000    0.000 
#    0.000    0.000    0.000    0.000    0.000    0.000 
#
# Total GULP energy -100522.121258 kJ/mol
# GULP energy per Si atom -5584.562292 kJ/mol
# Density = 2.163395 g / cm^3
# Si number density = 21.683299 Si / 1000 Ang^3
#
#
#
# Elastic Constant Matrix: (Units=GPa)
#
#
# Indices 1 2 3 4 5 6 
#
# 1 221.5290 40.4537 55.1399 -0.0001 -5.0669 0.0000
# 2 40.4537 41.4303 6.1390 -0.0002 -2.4176 0.0001
# 3 55.1399 6.1390 121.8135 -0.0004 2.6311 0.0002
# 4 -0.0001 -0.0002 -0.0004 16.5504 0.0002 -2.5383
# 5 -5.0669 -2.4176 2.6311 0.0002 48.8466 -0.0001
# 6 0.0000 0.0001 0.0002 -2.5383 -0.0001 50.0573
#
#
#
# Elastic Compliance Matrix: (Units=1/GPa)
#
#
# Indices 1 2 3 4 5 6 
#
# 1 0.006183 -0.005634 -0.002526 0.000000 0.000499 0.000000
# 2 -0.005634 0.029531 0.001044 0.000000 0.000821 0.000000
# 3 -0.002526 0.001044 0.009315 0.000000 -0.000712 0.000000
# 4 0.000000 0.000000 0.000000 0.060895 0.000000 0.003088
# 5 0.000499 0.000821 -0.000712 0.000000 0.020603 0.000000
# 6 0.000000 0.000000 0.000000 0.003088 0.000000 0.020134
#
#
# Mechanical properties :
#
#
# Convention : Reuss Voigt Hill
#
# Bulk Modulus (GPa) = 32.46870 65.35976 48.91423
# Shear Modulus (GPa) = 29.21280 41.96020 35.58650
#
# Velocity S-wave (km/s) = 3.67447 4.40379 4.05556
# Velocity P-wave (km/s) = 5.74534 7.48774 6.67365
#
# Compressibility (1/GPa) = 0.03079889
#
# Stress axis : x y z
#
# Youngs Moduli (GPa) = 161.73562 33.86250 107.35080
#
# Poissons Ratio (x) = 0.19078 0.27112
# Poissons Ratio (y) = 0.91120 -0.11210
# Poissons Ratio (z) = 0.40848 -0.03536
#
# Static dielectric constant tensor:
#      x y z
#    x 1.787910 0.000000 -0.002620 
#    y 0.000000 1.798530 0.000000 
#    z -0.002620 0.000000 1.764400 
# 
# From -- ./inp_files/28787.got.cif
#   From: 2010.05.17/outbox.cif.g08.bks.cpg/sg15_15_cif.got.tgz:28787.got - 2010.06.03 18:47:42.
