data_PCOD9304631
_publ_section_title
;
Structure prediction by ZEFSAII (Michael W. Deem and Ramdas Pophale) SiO2 
 PCOD9304631
Probable space group: C 2/C
;
_chemical_formula_sum "Si O2"
_cell_formula_units_Z 60
_cell_length_a 21.316340
_cell_length_b 16.180723
_cell_length_c 8.364146
_cell_angle_alpha 90.000000
_cell_angle_beta 65.607154
_cell_angle_gamma 90.000000
_cell_volume 2627.388567
_symmetry_space_group_name_H-M "C 2/C"
_symmetry_group_IT_number 15
_symmetry_cell_setting 'monoclinic'
loop_
_space_group_symop_operation_xyz
x,y,z
-x,y,1/2-z
-x,-y,-z
x,-y,1/2+z
1/2+x,1/2+y,z
1/2-x,1/2+y,1/2-z
1/2-x,1/2-y,-z
1/2+x,1/2-y,1/2+z
loop_
_atom_site_type_symbol
_atom_site_label
_atom_site_fract_x
_atom_site_fract_y
_atom_site_fract_z
Si Si1 0.550396 0.277180 0.548210
Si Si2 0.645628 0.972478 0.713077
Si Si3 0.364183 0.403283 0.561117
Si Si4 0.434914 0.082284 0.918340
Si Si5 0.811500 0.181671 0.419289
Si Si6 0.219775 0.950385 0.342475
Si Si7 0.500000 0.343458 0.250000
Si Si8 0.758731 0.345323 0.027026
O O1 0.500000 0.306212 0.750000
O O2 0.555498 0.178647 0.562014
O O3 0.626892 0.306049 0.517666
O O4 0.528351 0.298458 0.386657
O O5 0.669271 0.889017 0.596290
O O6 0.628204 0.051506 0.624197
O O7 0.712607 0.994307 0.745177
O O8 0.581593 0.956378 0.894224
O O9 0.349966 0.330800 0.707184
O O10 0.348072 0.497730 0.632140
O O11 0.435966 0.393006 0.394201
O O12 0.302466 0.390405 0.502035
O O13 0.500000 0.052948 0.750000
O O14 0.750000 0.250000 0.500000
O O15 0.785570 0.088098 0.476215
O O16 0.240859 0.868545 0.224508
O O17 0.750000 0.250000 0.000000
#
# Coordination Sequence:
#
# PCOD9304631 Si02
#       8
#     8   8   8   8   8   8   4   8
#     4  11  26  51  75 112 157 207 259 321 393 464
#     4  11  23  45  70  99 146 196 239 322 387 458
#     4  11  25  44  71 107 148 197 250 313 383 464
#     4  11  25  46  69 101 146 194 255 306 392 466
#     4  12  25  45  78 109 152 200 256 325 395 456
#     4  11  24  44  69 106 147 191 253 315 391 457
#     4  12  26  52  78 112 160 206 270 314 386 480
#     4  11  24  42  68 107 142 187 258 315 378 452
#
# _framework density 22.836365000000001
#
# number of rings (size 3 to 8) (size 9 to 14) (size 15 to 20)
#    0.000    0.800    2.667    4.400    9.333    0.000 
#    7.200    2.000    0.000    0.000    0.000    0.000 
#    0.000    0.000    0.000    0.000    0.000    0.000 
#
# Total GULP energy -167076.725139 kJ/mol
# GULP energy per Si atom -5569.224171 kJ/mol
# Density = 2.278439 g / cm^3
# Si number density = 22.836365 Si / 1000 Ang^3
#
#
#
# Elastic Constant Matrix: (Units=GPa)
#
#
# Indices 1 2 3 4 5 6 
#
# 1 107.4360 40.2471 53.9583 0.0000 -15.3038 0.0000
# 2 40.2471 95.3765 63.4286 0.0000 -12.3556 0.0000
# 3 53.9583 63.4286 172.3918 0.0000 -26.9772 0.0000
# 4 0.0000 0.0000 0.0000 37.3089 0.0000 1.5931
# 5 -15.3038 -12.3556 -26.9772 0.0000 41.2398 0.0000
# 6 0.0000 0.0000 0.0000 1.5931 0.0000 26.3553
#
#
#
# Elastic Compliance Matrix: (Units=1/GPa)
#
#
# Indices 1 2 3 4 5 6 
#
# 1 0.011941 -0.003313 -0.002206 0.000000 0.001995 0.000000
# 2 -0.003313 0.014831 -0.004364 0.000000 0.000360 0.000000
# 3 -0.002206 -0.004364 0.008650 0.000000 0.003532 0.000000
# 4 0.000000 0.000000 0.000000 0.026873 0.000000 -0.001624
# 5 0.001995 0.000360 0.003532 0.000000 0.027407 0.000000
# 6 0.000000 0.000000 0.000000 -0.001624 0.000000 0.038041
#
#
# Mechanical properties :
#
#
# Convention : Reuss Voigt Hill
#
# Bulk Modulus (GPa) = 63.87363 76.71916 70.29639
# Shear Modulus (GPa) = 32.73784 35.48550 34.11167
#
# Velocity S-wave (km/s) = 3.79038 3.94623 3.86909
# Velocity P-wave (km/s) = 6.86927 7.37779 7.12806
#
# Compressibility (1/GPa) = 0.01565591
#
# Stress axis : x y z
#
# Youngs Moduli (GPa) = 83.74229 67.42427 115.61271
#
# Poissons Ratio (x) = 0.22339 0.25508
# Poissons Ratio (y) = 0.27746 0.50450
# Poissons Ratio (z) = 0.18476 0.29422
#
# Static dielectric constant tensor:
#      x y z
#    x 1.879050 0.000000 0.023840 
#    y 0.000000 2.053380 0.000000 
#    z 0.023840 0.000000 1.808560 
# 
# From -- ./inp_files/56993.got.cif
#   From: 2010.05.17/outbox.cif.g08.bks.cpg/sg15_29_cif.got.tgz:56993.got - 2010.06.03 18:47:42.
