data_PCOD9304765
_publ_section_title
;
Structure prediction by ZEFSAII (Michael W. Deem and Ramdas Pophale) SiO2 
 PCOD9304765
Probable space group: C 2/C
;
_chemical_formula_sum "Si O2"
_cell_formula_units_Z 56
_cell_length_a 13.443234
_cell_length_b 11.587278
_cell_length_c 14.232791
_cell_angle_alpha 90.000000
_cell_angle_beta 93.656579
_cell_angle_gamma 90.000000
_cell_volume 2212.535436
_symmetry_space_group_name_H-M "C 2/C"
_symmetry_group_IT_number 15
_symmetry_cell_setting 'monoclinic'
loop_
_space_group_symop_operation_xyz
x,y,z
-x,y,1/2-z
-x,-y,-z
x,-y,1/2+z
1/2+x,1/2+y,z
1/2-x,1/2+y,1/2-z
1/2-x,1/2-y,-z
1/2+x,1/2-y,1/2+z
loop_
_atom_site_type_symbol
_atom_site_label
_atom_site_fract_x
_atom_site_fract_y
_atom_site_fract_z
Si Si1 0.634251 0.957207 0.827437
Si Si2 0.387272 0.537412 0.469597
Si Si3 0.106159 0.724551 0.162227
Si Si4 0.983622 0.676051 0.640426
Si Si5 0.186119 0.859018 0.906915
Si Si6 0.401784 0.782852 0.530839
Si Si7 0.661214 0.474838 0.230053
O O1 0.603860 0.872615 0.741958
O O2 0.663521 0.872734 0.914691
O O3 0.552793 0.044375 0.861094
O O4 0.722513 0.033590 0.789911
O O5 0.500000 0.500000 0.500000
O O6 0.318312 0.431352 0.497403
O O7 0.363288 0.652996 0.524475
O O8 0.383211 0.551528 0.357498
O O9 0.206994 0.694505 0.111121
O O10 0.008625 0.719611 0.091482
O O11 0.114637 0.848349 0.215104
O O12 0.897562 0.760869 0.598408
O O13 0.076061 0.683536 0.575223
O O14 0.000000 0.706738 0.750000
O O15 0.155576 0.953909 0.825538
#
# Coordination Sequence:
#
# PCOD9304765 Si02
#       7
#     8   8   8   8   8   8   8
#     4  11  26  44  67 103 134 176 226 270 340 397
#     4  12  24  43  68 105 129 173 231 276 331 396
#     4  11  23  46  72  96 134 180 225 274 331 406
#     4  12  24  42  65  96 139 175 225 269 336 400
#     4  11  25  41  69 100 134 181 220 281 339 388
#     4  12  25  44  72  99 134 178 222 281 331 395
#     4  11  24  45  69  97 141 170 225 282 333 395
#
# _framework density 25.310328999999999
#
# number of rings (size 3 to 8) (size 9 to 14) (size 15 to 20)
#    0.000    0.571    4.286    3.429    2.000    1.714 
#    2.571    0.000    0.000    0.000    0.000    0.000 
#    0.000    0.000    0.000    0.000    0.000    0.000 
#
# Total GULP energy -157055.704071 kJ/mol
# GULP energy per Si atom -5609.132288 kJ/mol
# Density = 2.525272 g / cm^3
# Si number density = 25.310329 Si / 1000 Ang^3
#
#
#
# Elastic Constant Matrix: (Units=GPa)
#
#
# Indices 1 2 3 4 5 6 
#
# 1 58.0134 9.4203 9.7391 0.0000 -5.4745 0.0000
# 2 9.4203 155.8400 33.0706 0.0000 -5.0218 0.0000
# 3 9.7391 33.0706 115.5626 0.0000 6.9017 0.0000
# 4 0.0000 0.0000 0.0000 47.1699 0.0000 -4.4379
# 5 -5.4745 -5.0218 6.9017 0.0000 39.4699 0.0000
# 6 0.0000 0.0000 0.0000 -4.4379 0.0000 27.0613
#
#
#
# Elastic Compliance Matrix: (Units=1/GPa)
#
#
# Indices 1 2 3 4 5 6 
#
# 1 0.017844 -0.000682 -0.001467 0.000000 0.002645 0.000000
# 2 -0.000682 0.006917 -0.001990 0.000000 0.001133 0.000000
# 3 -0.001467 -0.001990 0.009472 0.000000 -0.002113 0.000000
# 4 0.000000 0.000000 0.000000 0.021532 0.000000 0.003531
# 5 0.002645 0.001133 -0.002113 0.000000 0.026216 0.000000
# 6 0.000000 0.000000 0.000000 0.003531 0.000000 0.037532
#
#
# Mechanical properties :
#
#
# Convention : Reuss Voigt Hill
#
# Bulk Modulus (GPa) = 38.52588 48.20844 43.36716
# Shear Modulus (GPa) = 36.64543 41.21928 38.93235
#
# Velocity S-wave (km/s) = 3.80918 4.03991 3.92624
# Velocity P-wave (km/s) = 5.88226 6.39136 6.14209
#
# Compressibility (1/GPa) = 0.02595658
#
# Stress axis : x y z
#
# Youngs Moduli (GPa) = 56.04149 144.57550 105.56923
#
# Poissons Ratio (x) = 0.09863 0.15482
# Poissons Ratio (y) = 0.03823 0.21004
# Poissons Ratio (z) = 0.08219 0.28764
#
# Static dielectric constant tensor:
#      x y z
#    x 2.020870 0.000000 0.014970 
#    y 0.000000 1.949150 0.000000 
#    z 0.014970 0.000000 1.979290 
# 
# From -- ./inp_files/152605.got.cif
#   From: 2010.05.17/outbox.cif.g08.bks.cpg/sg15_77_cif.got.tgz:152605.got - 2010.06.03 18:47:42.
