data_PCOD9304733
_publ_section_title
;
Structure prediction by ZEFSAII (Michael W. Deem and Ramdas Pophale) SiO2 
 PCOD9304733
Probable space group: C 2/C
;
_chemical_formula_sum "Si O2"
_cell_formula_units_Z 52
_cell_length_a 9.050965
_cell_length_b 26.914245
_cell_length_c 10.027226
_cell_angle_alpha 90.000000
_cell_angle_beta 59.661452
_cell_angle_gamma 90.000000
_cell_volume 2108.127257
_symmetry_space_group_name_H-M "C 2/C"
_symmetry_group_IT_number 15
_symmetry_cell_setting 'monoclinic'
loop_
_space_group_symop_operation_xyz
x,y,z
-x,y,1/2-z
-x,-y,-z
x,-y,1/2+z
1/2+x,1/2+y,z
1/2-x,1/2+y,1/2-z
1/2-x,1/2-y,-z
1/2+x,1/2-y,1/2+z
loop_
_atom_site_type_symbol
_atom_site_label
_atom_site_fract_x
_atom_site_fract_y
_atom_site_fract_z
Si Si1 0.875548 0.163951 0.469125
Si Si2 0.864030 0.946408 0.420560
Si Si3 0.000000 0.581244 0.750000
Si Si4 0.439383 0.128172 0.488022
Si Si5 0.849535 0.052305 0.491310
Si Si6 0.184972 0.200554 0.716892
Si Si7 0.255241 0.812218 0.743039
O O1 0.852274 0.107406 0.431234
O O2 0.791395 0.175722 0.648391
O O3 0.796175 0.196773 0.388602
O O4 0.077495 0.172713 0.391782
O O5 0.692849 0.913901 0.502024
O O6 0.000000 0.926830 0.250000
O O7 0.973719 0.948239 0.506337
O O8 0.829945 0.004710 0.406429
O O9 0.007526 0.610935 0.886398
O O10 0.178919 0.551190 0.661633
O O11 0.330386 0.178511 0.556418
O O12 0.602523 0.144762 0.327344
O O13 0.189047 0.259620 0.725584
O O14 0.000000 0.185292 0.750000
#
# Coordination Sequence:
#
# PCOD9304733 Si02
#       7
#     8   8   4   8   8   8   8
#     4  11  23  46  68  98 144 182 228 294 352 410
#     4  11  24  44  71  98 138 182 229 283 360 408
#     4  12  22  42  70 102 134 184 240 274 342 422
#     4  12  23  45  72 100 140 186 230 290 343 423
#     4  11  24  44  69 102 133 184 233 285 345 424
#     4  12  25  44  72  96 140 189 235 285 354 420
#     4  11  26  41  69 107 137 182 233 295 345 409
#
# _framework density 24.666442
#
# number of rings (size 3 to 8) (size 9 to 14) (size 15 to 20)
#    0.000    0.615    4.615    2.769    2.154    6.769 
#    5.538    0.000    0.000    0.000    0.000    0.000 
#    0.000    0.000    0.000    0.000    0.000    0.000 
#
# Total GULP energy -145521.853079 kJ/mol
# GULP energy per Si atom -5596.994349 kJ/mol
# Density = 2.461030 g / cm^3
# Si number density = 24.666442 Si / 1000 Ang^3
#
#
#
# Elastic Constant Matrix: (Units=GPa)
#
#
# Indices 1 2 3 4 5 6 
#
# 1 121.3171 40.0550 10.3145 0.0000 -9.0684 0.0000
# 2 40.0550 150.4716 18.3871 0.0000 -6.8997 0.0000
# 3 10.3145 18.3871 45.1043 0.0000 -18.1907 0.0000
# 4 0.0000 0.0000 0.0000 27.2047 0.0000 18.2163
# 5 -9.0684 -6.8997 -18.1907 0.0000 41.4278 0.0000
# 6 0.0000 0.0000 0.0000 18.2163 0.0000 -7.8238
#
#
#
# Elastic Compliance Matrix: (Units=1/GPa)
#
#
# Indices 1 2 3 4 5 6 
#
# 1 0.009155 -0.002301 -0.000610 0.000000 0.001353 0.000000
# 2 -0.002301 0.007573 -0.002741 0.000000 -0.000446 0.000000
# 3 -0.000610 -0.002741 0.028180 0.000000 0.011784 0.000000
# 4 0.000000 0.000000 0.000000 0.014364 0.000000 0.033444
# 5 0.001353 -0.000446 0.011784 0.000000 0.029534 0.000000
# 6 0.000000 0.000000 0.000000 0.033444 0.000000 -0.049947
#
#
# Mechanical properties :
#
#
# Convention : Reuss Voigt Hill
#
# Bulk Modulus (GPa) = 29.75729 50.48957 40.12343
# Shear Modulus (GPa) = 81.47995 28.70416 55.09205
#
# Velocity S-wave (km/s) = 5.75364 3.41499 4.73110
# Velocity P-wave (km/s) = 7.49862 6.00524 6.79309
#
# Compressibility (1/GPa) = 0.03360521
#
# Stress axis : x y z
#
# Youngs Moduli (GPa) = 109.22466 132.05445 35.48610
#
# Poissons Ratio (x) = 0.30380 0.02165
# Poissons Ratio (y) = 0.25128 0.09726
# Poissons Ratio (z) = 0.06665 0.36193
#
# Static dielectric constant tensor:
#      x y z
#    x 1.994050 0.000000 0.030090 
#    y 0.000000 1.952680 0.000000 
#    z 0.030090 0.000000 1.984640 
# 
# From -- ./inp_files/81182.got.cif
#   From: 2010.05.17/outbox.cif.g08.bks.cpg/sg15_41_cif.got.tgz:81182.got - 2010.06.03 18:47:42.
