data_PCOD9304850
_publ_section_title
;
Structure prediction by ZEFSAII (Michael W. Deem and Ramdas Pophale) SiO2 
 PCOD9304850
Probable space group: C 2/C
;
_chemical_formula_sum "Si O2"
_cell_formula_units_Z 60
_cell_length_a 23.880714
_cell_length_b 11.876428
_cell_length_c 16.228676
_cell_angle_alpha 90.000000
_cell_angle_beta 31.054296
_cell_angle_gamma 90.000000
_cell_volume 2374.322917
_symmetry_space_group_name_H-M "C 2/C"
_symmetry_group_IT_number 15
_symmetry_cell_setting 'monoclinic'
loop_
_space_group_symop_operation_xyz
x,y,z
-x,y,1/2-z
-x,-y,-z
x,-y,1/2+z
1/2+x,1/2+y,z
1/2-x,1/2+y,1/2-z
1/2-x,1/2-y,-z
1/2+x,1/2-y,1/2+z
loop_
_atom_site_type_symbol
_atom_site_label
_atom_site_fract_x
_atom_site_fract_y
_atom_site_fract_z
Si Si1 0.679732 0.471861 0.130369
Si Si2 0.186118 0.611125 0.308268
Si Si3 0.500000 0.358209 0.250000
Si Si4 0.322567 0.803268 0.054811
Si Si5 0.461177 0.156486 0.519796
Si Si6 0.586885 0.243679 0.569813
Si Si7 0.731365 0.922976 0.139222
Si Si8 0.040242 0.885646 0.908447
O O1 0.563782 0.435104 0.236069
O O2 0.739273 0.373702 0.105125
O O3 0.651885 0.576579 0.224711
O O4 0.756634 0.504711 0.957753
O O5 0.251161 0.724065 0.204010
O O6 0.135478 0.635876 0.461191
O O7 0.255278 0.504874 0.188356
O O8 0.080086 0.609569 0.382478
O O9 0.403551 0.277451 0.402946
O O10 0.399418 0.880036 0.015520
O O11 0.385735 0.127190 0.692654
O O12 0.460921 0.291619 0.519330
O O13 0.500000 0.218049 0.750000
O O14 0.684761 0.321576 0.477695
O O15 0.530762 0.324370 0.571905
O O16 0.000000 0.000000 0.000000
#
# Coordination Sequence:
#
# PCOD9304850 Si02
#       8
#     8   8   4   8   8   8   8   8
#     4  12  25  43  73 113 144 192 254 303 380 443
#     4  11  25  47  73 102 147 198 248 303 386 447
#     4  12  24  44  74 108 148 184 248 316 358 436
#     4  12  25  44  72 104 148 192 251 311 365 444
#     4  11  27  47  70 103 151 195 246 303 374 450
#     4  11  23  47  73 111 146 196 255 317 370 452
#     4  12  25  45  75 105 146 201 240 312 380 450
#     4  11  24  43  74 104 144 190 252 306 368 445
#
# _framework density 25.270363
#
# number of rings (size 3 to 8) (size 9 to 14) (size 15 to 20)
#    0.000    0.533    4.000    4.800    3.733    0.533 
#    0.000    0.000    0.000    0.000    0.000    0.000 
#    0.000    0.000    0.000    0.000    0.000    0.000 
#
# Total GULP energy -168034.627032 kJ/mol
# GULP energy per Si atom -5601.154234 kJ/mol
# Density = 2.521285 g / cm^3
# Si number density = 25.270363 Si / 1000 Ang^3
#
#
#
# Elastic Constant Matrix: (Units=GPa)
#
#
# Indices 1 2 3 4 5 6 
#
# 1 87.1917 1.2429 11.1598 0.0000 -21.9428 0.0000
# 2 1.2429 95.6545 32.6680 0.0000 5.4325 0.0000
# 3 11.1598 32.6680 112.7612 0.0000 8.0376 0.0000
# 4 0.0000 0.0000 0.0000 45.3530 0.0000 -16.5433
# 5 -21.9428 5.4325 8.0376 0.0000 51.9280 0.0000
# 6 0.0000 0.0000 0.0000 -16.5433 0.0000 -30.2457
#
#
#
# Elastic Compliance Matrix: (Units=1/GPa)
#
#
# Indices 1 2 3 4 5 6 
#
# 1 0.013155 0.000094 -0.001744 0.000000 0.005819 0.000000
# 2 0.000094 0.011628 -0.003331 0.000000 -0.000661 0.000000
# 3 -0.001744 -0.003331 0.010146 0.000000 -0.001959 0.000000
# 4 0.000000 0.000000 0.000000 0.018382 0.000000 -0.010054
# 5 0.005819 -0.000661 -0.001959 0.000000 0.022089 0.000000
# 6 0.000000 0.000000 0.000000 -0.010054 0.000000 -0.027563
#
#
# Mechanical properties :
#
#
# Convention : Reuss Voigt Hill
#
# Bulk Modulus (GPa) = 40.05222 42.86098 41.45660
# Shear Modulus (GPa) = 75.61956 30.10949 52.86452
#
# Velocity S-wave (km/s) = 5.47624 3.45555 4.57875
# Velocity P-wave (km/s) = 7.47459 5.73750 6.66289
#
# Compressibility (1/GPa) = 0.02496740
#
# Stress axis : x y z
#
# Youngs Moduli (GPa) = 76.01511 85.99760 98.56526
#
# Poissons Ratio (x) = -0.00810 0.17190
# Poissons Ratio (y) = -0.00716 0.32832
# Poissons Ratio (z) = 0.13257 0.28646
#
# Static dielectric constant tensor:
#      x y z
#    x 2.066500 0.000000 0.016510 
#    y 0.000000 2.020800 0.000000 
#    z 0.016510 0.000000 1.959830 
# 
# From -- ./inp_files/222533.got.cif
#   From: 2010.05.17/outbox.cif.g08.bks.cpg/sg15_112_cif.got.tgz:222533.got - 2010.06.03 18:47:42.
