data_PCOD9304795
_publ_section_title
;
Structure prediction by ZEFSAII (Michael W. Deem and Ramdas Pophale) SiO2 
 PCOD9304795
Probable space group: C 2/C
;
_chemical_formula_sum "Si O2"
_cell_formula_units_Z 60
_cell_length_a 11.778510
_cell_length_b 26.862631
_cell_length_c 18.204353
_cell_angle_alpha 90.000000
_cell_angle_beta 28.003211
_cell_angle_gamma 90.000000
_cell_volume 2704.389322
_symmetry_space_group_name_H-M "C 2/C"
_symmetry_group_IT_number 15
_symmetry_cell_setting 'monoclinic'
loop_
_space_group_symop_operation_xyz
x,y,z
-x,y,1/2-z
-x,-y,-z
x,-y,1/2+z
1/2+x,1/2+y,z
1/2-x,1/2+y,1/2-z
1/2-x,1/2-y,-z
1/2+x,1/2-y,1/2+z
loop_
_atom_site_type_symbol
_atom_site_label
_atom_site_fract_x
_atom_site_fract_y
_atom_site_fract_z
Si Si1 0.251263 0.031093 0.131484
Si Si2 0.268007 0.555360 0.193501
Si Si3 0.958055 0.621917 0.930765
Si Si4 0.231893 0.295782 0.066826
Si Si5 0.788461 0.808251 0.323076
Si Si6 0.575341 0.708443 0.508401
Si Si7 0.000000 0.631960 0.250000
Si Si8 0.777800 0.441395 0.323712
O O1 0.204937 0.056884 0.235564
O O2 0.000000 0.004610 0.250000
O O3 0.306480 0.074821 0.042925
O O4 0.500000 0.000000 0.000000
O O5 0.083684 0.595343 0.267086
O O6 0.192224 0.498447 0.218794
O O7 0.523077 0.563468 0.008256
O O8 0.060643 0.656697 0.936375
O O9 0.194477 0.597907 0.757287
O O10 0.812081 0.655765 0.957386
O O11 0.000000 0.287144 0.250000
O O12 0.250000 0.250000 0.000000
O O13 0.442714 0.301505 0.006136
O O14 0.701578 0.761615 0.421732
O O15 0.000000 0.833361 0.250000
O O16 0.896472 0.791859 0.181204
O O17 0.781139 0.667072 0.400318
O O18 0.000000 0.430191 0.250000
#
# Coordination Sequence:
#
# PCOD9304795 Si02
#       8
#     8   8   8   8   8   8   4   8
#     4  12  29  51  75 112 156 204 257 320 386 462
#     4  11  26  47  75 105 148 194 253 308 385 450
#     4  12  26  47  76 109 150 199 252 312 382 453
#     4  12  25  49  77 109 148 194 255 309 377 446
#     4  12  27  48  72 108 150 206 247 308 383 454
#     4  12  26  49  74 106 153 194 253 313 372 460
#     4  12  28  44  74 112 144 194 246 312 374 446
#     4  11  23  46  76 105 142 191 253 311 374 452
#
# _framework density 22.186156
#
# number of rings (size 3 to 8) (size 9 to 14) (size 15 to 20)
#    0.000    0.267    5.333    2.400    5.600    1.067 
#    0.000    0.000    0.000    0.000    0.000    0.000 
#    0.000    0.000    0.000    0.000    0.000    0.000 
#
# Total GULP energy -167920.928363 kJ/mol
# GULP energy per Si atom -5597.364279 kJ/mol
# Density = 2.213566 g / cm^3
# Si number density = 22.186156 Si / 1000 Ang^3
#
#
#
# Elastic Constant Matrix: (Units=GPa)
#
#
# Indices 1 2 3 4 5 6 
#
# 1 108.9643 22.8778 21.7451 -0.0315 -18.5018 0.0174
# 2 22.8778 104.5906 36.2821 -0.0025 -6.2394 0.0009
# 3 21.7451 36.2821 59.6648 -0.0406 -1.3019 0.0286
# 4 -0.0315 -0.0025 -0.0406 26.3031 0.0162 -5.3926
# 5 -18.5018 -6.2394 -1.3019 0.0162 42.2493 -0.0118
# 6 0.0174 0.0009 0.0286 -5.3926 -0.0118 41.1580
#
#
#
# Elastic Compliance Matrix: (Units=1/GPa)
#
#
# Indices 1 2 3 4 5 6 
#
# 1 0.010789 -0.000966 -0.003247 0.000005 0.004482 0.000000
# 2 -0.000966 0.012308 -0.007107 -0.000011 0.001175 0.000004
# 3 -0.003247 -0.007107 0.022226 0.000029 -0.001786 -0.000011
# 4 0.000005 -0.000011 0.000029 0.039068 -0.000012 0.005119
# 5 0.004482 0.001175 -0.001786 -0.000012 0.025750 0.000005
# 6 0.000000 0.000004 -0.000011 0.005119 0.000005 0.024967
#
#
# Mechanical properties :
#
#
# Convention : Reuss Voigt Hill
#
# Bulk Modulus (GPa) = 44.08415 48.33661 46.21038
# Shear Modulus (GPa) = 30.24638 34.76307 32.50473
#
# Velocity S-wave (km/s) = 3.69629 3.96268 3.83180
# Velocity P-wave (km/s) = 6.17495 6.53997 6.36008
#
# Compressibility (1/GPa) = 0.02268389
#
# Stress axis : x y z
#
# Youngs Moduli (GPa) = 92.68560 81.24923 44.99210
#
# Poissons Ratio (x) = 0.07851 0.14608
# Poissons Ratio (y) = 0.08956 0.31974
# Poissons Ratio (z) = 0.30093 0.57740
#
# Static dielectric constant tensor:
#      x y z
#    x 2.020720 0.000140 -0.152560 
#    y 0.000140 1.829220 -0.000130 
#    z -0.152560 -0.000130 1.876300 
# 
# From -- ./inp_files/201256.got.cif
#   From: 2010.05.17/outbox.cif.g08.bks.cpg/sg15_101_cif.got.tgz:201256.got - 2010.06.03 18:47:42.
