data_PCOD9304768
_publ_section_title
;
Structure prediction by ZEFSAII (Michael W. Deem and Ramdas Pophale) SiO2 
 PCOD9304768
Probable space group: C 2/C
;
_chemical_formula_sum "Si O2"
_cell_formula_units_Z 52
_cell_length_a 10.940404
_cell_length_b 15.253499
_cell_length_c 13.702545
_cell_angle_alpha 90.000000
_cell_angle_beta 79.777943
_cell_angle_gamma 90.000000
_cell_volume 2250.377525
_symmetry_space_group_name_H-M "C 2/C"
_symmetry_group_IT_number 15
_symmetry_cell_setting 'monoclinic'
loop_
_space_group_symop_operation_xyz
x,y,z
-x,y,1/2-z
-x,-y,-z
x,-y,1/2+z
1/2+x,1/2+y,z
1/2-x,1/2+y,1/2-z
1/2-x,1/2-y,-z
1/2+x,1/2-y,1/2+z
loop_
_atom_site_type_symbol
_atom_site_label
_atom_site_fract_x
_atom_site_fract_y
_atom_site_fract_z
Si Si1 0.223746 0.535365 0.293075
Si Si2 0.330535 0.874842 0.903667
Si Si3 0.653252 0.059170 0.519712
Si Si4 0.568325 0.143551 0.835529
Si Si5 0.000000 0.036191 0.750000
Si Si6 0.072563 0.915603 0.448126
Si Si7 0.905266 0.223377 0.014648
O O1 0.185613 0.594591 0.205663
O O2 0.181609 0.573976 0.402595
O O3 0.153024 0.440668 0.297695
O O4 0.372395 0.519637 0.276169
O O5 0.197635 0.852989 0.972225
O O6 0.383516 0.958444 0.953324
O O7 0.404678 0.787208 0.921428
O O8 0.545432 0.116683 0.578915
O O9 0.781585 0.070713 0.561130
O O10 0.500000 0.178343 0.750000
O O11 0.635536 0.218541 0.886881
O O12 0.025015 0.091538 0.843884
O O13 0.032703 0.827719 0.509166
O O14 0.000000 0.000000 0.500000
#
# Coordination Sequence:
#
# PCOD9304768 Si02
#       7
#     8   8   8   8   4   8   8
#     4  12  24  43  78 107 141 198 251 290 373 444
#     4  11  23  46  73 103 143 197 242 297 367 434
#     4  12  24  46  78 104 145 199 242 296 371 446
#     4  12  26  47  75 105 150 191 244 302 368 444
#     4  12  22  40  74 108 136 192 248 302 346 450
#     4  12  23  46  72 104 146 194 246 297 362 438
#     4  11  26  45  72 110 150 189 243 312 365 418
#
# _framework density 23.107233000000001
#
# number of rings (size 3 to 8) (size 9 to 14) (size 15 to 20)
#    0.000    0.308    7.692    0.462    2.154    1.846 
#    4.154    0.000    0.000    0.000    0.000    0.000 
#    0.000    0.000    0.000    0.000    0.000    0.000 
#
# Total GULP energy -145441.095469 kJ/mol
# GULP energy per Si atom -5593.888287 kJ/mol
# Density = 2.305464 g / cm^3
# Si number density = 23.107233 Si / 1000 Ang^3
#
#
#
# Elastic Constant Matrix: (Units=GPa)
#
#
# Indices 1 2 3 4 5 6 
#
# 1 91.2381 11.1240 24.9739 0.0000 2.8724 0.0000
# 2 11.1240 77.2688 29.5618 0.0000 2.0951 0.0000
# 3 24.9739 29.5618 144.6236 0.0000 25.0869 0.0000
# 4 0.0000 0.0000 0.0000 31.3856 0.0000 -1.7462
# 5 2.8724 2.0951 25.0869 0.0000 49.0719 0.0000
# 6 0.0000 0.0000 0.0000 -1.7462 0.0000 26.6046
#
#
#
# Elastic Compliance Matrix: (Units=1/GPa)
#
#
# Indices 1 2 3 4 5 6 
#
# 1 0.011576 -0.000965 -0.001856 0.000000 0.000312 0.000000
# 2 -0.000965 0.014161 -0.002889 0.000000 0.000929 0.000000
# 3 -0.001856 -0.002889 0.008543 0.000000 -0.004135 0.000000
# 4 0.000000 0.000000 0.000000 0.031978 0.000000 0.002099
# 5 0.000312 0.000929 -0.004135 0.000000 0.022434 0.000000
# 6 0.000000 0.000000 0.000000 0.002099 0.000000 0.037725
#
#
# Mechanical properties :
#
#
# Convention : Reuss Voigt Hill
#
# Bulk Modulus (GPa) = 43.74458 49.38332 46.56395
# Shear Modulus (GPa) = 34.37419 37.91048 36.14233
#
# Velocity S-wave (km/s) = 3.86112 4.05487 3.95918
# Velocity P-wave (km/s) = 6.23297 6.58334 6.41055
#
# Compressibility (1/GPa) = 0.02285998
#
# Stress axis : x y z
#
# Youngs Moduli (GPa) = 86.38438 70.61704 117.05689
#
# Poissons Ratio (x) = 0.06814 0.21725
# Poissons Ratio (y) = 0.08336 0.33818
# Poissons Ratio (z) = 0.16032 0.20402
#
# Static dielectric constant tensor:
#      x y z
#    x 1.873570 0.000000 0.011200 
#    y 0.000000 1.843780 0.000000 
#    z 0.011200 0.000000 1.898250 
# 
# From -- ./inp_files/144150.got.cif
#   From: 2010.05.17/outbox.cif.g08.bks.cpg/sg15_73_cif.got.tgz:144150.got - 2010.06.03 18:47:42.
