data_PCOD9304867
_publ_section_title
;
Structure prediction by ZEFSAII (Michael W. Deem and Ramdas Pophale) SiO2 
 PCOD9304867
Probable space group: C 2/C
;
_chemical_formula_sum "Si O2"
_cell_formula_units_Z 40
_cell_length_a 29.299544
_cell_length_b 9.308916
_cell_length_c 20.088910
_cell_angle_alpha 90.000000
_cell_angle_beta 19.876737
_cell_angle_gamma 90.000000
_cell_volume 1862.912210
_symmetry_space_group_name_H-M "C 2/C"
_symmetry_group_IT_number 15
_symmetry_cell_setting 'monoclinic'
loop_
_space_group_symop_operation_xyz
x,y,z
-x,y,1/2-z
-x,-y,-z
x,-y,1/2+z
1/2+x,1/2+y,z
1/2-x,1/2+y,1/2-z
1/2-x,1/2-y,-z
1/2+x,1/2-y,1/2+z
loop_
_atom_site_type_symbol
_atom_site_label
_atom_site_fract_x
_atom_site_fract_y
_atom_site_fract_z
Si Si1 0.927409 0.993963 0.419576
Si Si2 0.582984 0.810171 0.039698
Si Si3 0.855265 0.830729 0.307251
Si Si4 0.803787 0.372563 0.475509
Si Si5 0.369472 0.899420 0.671983
O O1 0.771263 0.974319 0.618875
O O2 0.000000 0.010209 0.250000
O O3 0.000611 0.862923 0.356575
O O4 0.951292 0.143209 0.424579
O O5 0.451396 0.900802 0.241522
O O6 0.675456 0.815003 0.978181
O O7 0.641881 0.864009 0.890438
O O8 0.750000 0.750000 0.500000
O O9 0.876050 0.738359 0.211822
O O10 0.785875 0.986385 0.395031
O O11 0.750000 0.250000 0.500000
O O12 0.500000 0.000000 0.500000
#
# Coordination Sequence:
#
# PCOD9304867 Si02
#       5
#     8   8   8   8   8
#     4  12  25  49  74 109 149 203 252 310 385 467
#     4  11  26  44  75 108 151 199 254 308 382 462
#     4  12  26  46  78 109 152 199 251 312 385 455
#     4  11  23  47  77 107 147 200 250 304 386 459
#     4  12  31  47  74 111 161 195 257 325 381 452
#
# _framework density 21.471757
#
# number of rings (size 3 to 8) (size 9 to 14) (size 15 to 20)
#    0.000    0.400    6.000    1.200    8.400    4.000 
#    0.000    0.000    0.000    0.000    0.000    0.000 
#    0.000    0.000    0.000    0.000    0.000    0.000 
#
# Total GULP energy -111799.804485 kJ/mol
# GULP energy per Si atom -5589.990224 kJ/mol
# Density = 2.142289 g / cm^3
# Si number density = 21.471757 Si / 1000 Ang^3
#
#
#
# Elastic Constant Matrix: (Units=GPa)
#
#
# Indices 1 2 3 4 5 6 
#
# 1 83.6536 35.1850 28.9510 0.0001 8.7585 0.0000
# 2 35.1850 107.2121 52.9111 0.0005 -5.4200 0.0000
# 3 28.9510 52.9111 121.4483 0.0005 -11.9633 0.0000
# 4 0.0001 0.0005 0.0005 30.0547 0.0001 -3.2860
# 5 8.7585 -5.4200 -11.9633 0.0001 41.6738 0.0000
# 6 0.0000 0.0000 0.0000 -3.2860 0.0000 39.7454
#
#
#
# Elastic Compliance Matrix: (Units=1/GPa)
#
#
# Indices 1 2 3 4 5 6 
#
# 1 0.014851 -0.003994 -0.002222 0.000000 -0.004278 0.000000
# 2 -0.003994 0.012956 -0.004573 0.000000 0.001212 0.000000
# 3 -0.002222 -0.004573 0.011056 0.000000 0.003046 0.000000
# 4 0.000000 0.000000 0.000000 0.033576 0.000000 0.002776
# 5 -0.004278 0.001212 0.003046 0.000000 0.025927 0.000000
# 6 0.000000 0.000000 0.000000 0.002776 0.000000 0.025390
#
#
# Mechanical properties :
#
#
# Convention : Reuss Voigt Hill
#
# Bulk Modulus (GPa) = 57.85088 60.71203 59.28146
# Shear Modulus (GPa) = 33.09189 35.31257 34.20223
#
# Velocity S-wave (km/s) = 3.93005 4.05977 3.99544
# Velocity P-wave (km/s) = 6.89891 7.09312 6.99669
#
# Compressibility (1/GPa) = 0.01728582
#
# Stress axis : x y z
#
# Youngs Moduli (GPa) = 67.33751 77.18355 90.44851
#
# Poissons Ratio (x) = 0.30823 0.20095
# Poissons Ratio (y) = 0.26891 0.41364
# Poissons Ratio (z) = 0.14960 0.35298
#
# Static dielectric constant tensor:
#      x y z
#    x 1.787120 0.000000 -0.059330 
#    y 0.000000 1.702330 0.000000 
#    z -0.059330 0.000000 1.798570 
# 
# From -- ./inp_files/102768.got.cif
#   From: 2010.05.17/outbox.cif.g08.bks.cpg/sg15_52_cif.got.tgz:102768.got - 2010.06.03 18:47:42.
