data_PCOD9304214
_publ_section_title
;
Structure prediction by ZEFSAII (Michael W. Deem and Ramdas Pophale) SiO2 
 PCOD9304214
Probable space group: C 2/C
;
_chemical_formula_sum "Si O2"
_cell_formula_units_Z 48
_cell_length_a 27.422123
_cell_length_b 5.365245
_cell_length_c 27.184777
_cell_angle_alpha 90.000000
_cell_angle_beta 150.254950
_cell_angle_gamma 90.000000
_cell_volume 1984.366829
_symmetry_space_group_name_H-M "C 2/C"
_symmetry_group_IT_number 15
_symmetry_cell_setting 'monoclinic'
loop_
_space_group_symop_operation_xyz
x,y,z
-x,y,1/2-z
-x,-y,-z
x,-y,1/2+z
1/2+x,1/2+y,z
1/2-x,1/2+y,1/2-z
1/2-x,1/2-y,-z
1/2+x,1/2-y,1/2+z
loop_
_atom_site_type_symbol
_atom_site_label
_atom_site_fract_x
_atom_site_fract_y
_atom_site_fract_z
Si Si1 0.481460 0.988404 0.790479
Si Si2 0.354225 0.383979 0.586603
Si Si3 0.627232 0.741062 0.986608
Si Si4 0.662860 0.603012 0.824190
Si Si5 0.682948 0.552533 0.243108
Si Si6 0.815916 0.950223 0.862686
O O1 0.500000 0.892302 0.750000
O O2 0.369160 0.894845 0.700519
O O3 0.552412 0.226478 0.849021
O O4 0.528958 0.864904 0.881025
O O5 0.250000 0.250000 0.500000
O O6 0.340869 0.591643 0.533983
O O7 0.373928 0.475844 0.658837
O O8 0.719503 0.926333 0.074348
O O9 0.622990 0.588859 0.033770
O O10 0.622097 0.464640 0.740167
O O11 0.754357 0.792653 0.309985
O O12 0.631662 0.561514 0.144823
O O13 0.742212 0.288777 0.295753
#
# Coordination Sequence:
#
# PCOD9304214 Si02
#       6
#     8   8   8   8   8   8
#     4  12  26  41  59  96 132 172 224 273 336 410
#     4  12  23  40  66  89 127 178 225 277 341 405
#     4  11  23  43  63  95 129 171 219 276 335 404
#     4  11  23  44  65  96 135 173 225 280 341 405
#     4   9  19  39  65 100 127 175 224 275 336 406
#     4   9  19  37  68  96 131 171 227 274 336 403
#
# _framework density 24.189074999999999
#
# number of rings (size 3 to 8) (size 9 to 14) (size 15 to 20)
#    0.000    1.333    3.333    2.500    4.667    1.333 
#    0.000    0.833    0.000    1.000    0.000    0.000 
#    0.000    0.000    0.000    0.000    0.000    0.000 
#
# Total GULP energy -133703.370433 kJ/mol
# GULP energy per Si atom -5570.973768 kJ/mol
# Density = 2.413402 g / cm^3
# Si number density = 24.189075 Si / 1000 Ang^3
#
#
#
# Elastic Constant Matrix: (Units=GPa)
#
#
# Indices 1 2 3 4 5 6 
#
# 1 113.8423 17.2626 51.2992 0.0022 -66.5916 0.0086
# 2 17.2626 74.7125 3.7767 -0.0153 -1.2509 -0.0159
# 3 51.2992 3.7767 97.0768 0.0011 -20.1029 0.0058
# 4 0.0022 -0.0153 0.0011 12.5996 -0.0016 -3.8461
# 5 -66.5916 -1.2509 -20.1029 -0.0016 62.7521 0.0030
# 6 0.0086 -0.0159 0.0058 -3.8461 0.0030 14.7180
#
#
#
# Elastic Compliance Matrix: (Units=1/GPa)
#
#
# Indices 1 2 3 4 5 6 
#
# 1 0.032978 -0.006554 -0.010659 -0.000019 0.031450 -0.000034
# 2 -0.006554 0.014714 0.001619 0.000026 -0.006143 0.000027
# 3 -0.010659 0.001619 0.014497 0.000003 -0.006635 0.000004
# 4 -0.000019 0.000026 0.000003 0.086247 -0.000017 0.022538
# 5 0.031450 -0.006143 -0.006635 -0.000017 0.047062 -0.000037
# 6 -0.000034 0.000027 0.000004 0.022538 -0.000037 0.073834
#
#
# Mechanical properties :
#
#
# Convention : Reuss Voigt Hill
#
# Bulk Modulus (GPa) = 32.25781 47.81205 40.03493
# Shear Modulus (GPa) = 16.08470 32.23348 24.15909
#
# Velocity S-wave (km/s) = 2.58147 3.65439 3.16375
# Velocity P-wave (km/s) = 4.71699 6.13310 5.47106
#
# Compressibility (1/GPa) = 0.03100024
#
# Stress axis : x y z
#
# Youngs Moduli (GPa) = 30.32353 67.96089 68.98063
#
# Poissons Ratio (x) = 0.44543 0.73526
# Poissons Ratio (y) = 0.19875 -0.11167
# Poissons Ratio (z) = 0.32322 -0.11002
#
# Static dielectric constant tensor:
#      x y z
#    x 1.956510 -0.000010 -0.076920 
#    y -0.000010 2.119830 0.000000 
#    z -0.076920 0.000000 1.998380 
# 
# From -- ./inp_files/180000.got.cif
#   From: 2010.05.17/outbox.cif.g08.bks.cpg/sg15_90_cif.got.tgz:180000.got - 2010.06.03 18:47:42.
