data_PCOD9304937
_publ_section_title
;
Structure prediction by ZEFSAII (Michael W. Deem and Ramdas Pophale) SiO2 
 PCOD9304937
Probable space group: C 2/C
;
_chemical_formula_sum "Si O2"
_cell_formula_units_Z 52
_cell_length_a 19.082868
_cell_length_b 5.087663
_cell_length_c 25.797451
_cell_angle_alpha 90.000000
_cell_angle_beta 54.009751
_cell_angle_gamma 90.000000
_cell_volume 2026.516358
_symmetry_space_group_name_H-M "C 2/C"
_symmetry_group_IT_number 15
_symmetry_cell_setting 'monoclinic'
loop_
_space_group_symop_operation_xyz
x,y,z
-x,y,1/2-z
-x,-y,-z
x,-y,1/2+z
1/2+x,1/2+y,z
1/2-x,1/2+y,1/2-z
1/2-x,1/2-y,-z
1/2+x,1/2-y,1/2+z
loop_
_atom_site_type_symbol
_atom_site_label
_atom_site_fract_x
_atom_site_fract_y
_atom_site_fract_z
Si Si1 0.209678 0.705094 0.743612
Si Si2 0.527383 0.354982 0.039371
Si Si3 0.000000 0.703559 0.250000
Si Si4 0.821135 0.433232 0.355129
Si Si5 0.381020 0.762238 0.430227
Si Si6 0.458712 0.135480 0.159121
Si Si7 0.787289 0.368996 0.038771
O O1 0.276309 0.497274 0.740834
O O2 0.220974 0.696011 0.676809
O O3 0.116330 0.575737 0.796805
O O4 0.562952 0.533917 0.070686
O O5 0.446144 0.230970 0.105290
O O6 0.500000 0.500000 0.000000
O O7 0.614047 0.200552 0.986456
O O8 0.916329 0.528983 0.297989
O O9 0.972191 0.818816 0.205199
O O10 0.836404 0.217687 0.394036
O O11 0.770157 0.691940 0.396862
O O12 0.448189 0.995060 0.389258
O O13 0.315949 0.843364 0.504028
O O14 0.750000 0.250000 0.000000
#
# Coordination Sequence:
#
# PCOD9304937 Si02
#       7
#     8   8   4   8   8   8   8
#     4  11  26  44  65 100 136 180 228 285 352 419
#     4  11  24  37  63  99 132 177 226 288 357 418
#     4   8  16  40  62  86 114 168 228 276 336 406
#     4   9  19  40  65  90 126 170 230 280 348 409
#     4   9  20  41  64  89 128 169 231 278 346 413
#     4   9  21  41  64  88 131 171 227 280 346 413
#     4   9  20  39  61  91 127 168 224 282 340 420
#
# _framework density 25.659797999999999
#
# number of rings (size 3 to 8) (size 9 to 14) (size 15 to 20)
#    0.000    2.462    0.000    0.923    4.308    6.154 
#   13.846    0.769    0.000    0.000    0.000    0.000 
#    0.000    0.000    0.000    0.000    0.000    0.000 
#
# Total GULP energy -144831.300617 kJ/mol
# GULP energy per Si atom -5570.434639 kJ/mol
# Density = 2.560139 g / cm^3
# Si number density = 25.659798 Si / 1000 Ang^3
#
#
#
# Elastic Constant Matrix: (Units=GPa)
#
#
# Indices 1 2 3 4 5 6 
#
# 1 80.5969 -15.4010 20.4169 0.0326 11.0137 -0.0731
# 2 -15.4010 31.2351 -19.9685 0.0787 16.2205 -0.0360
# 3 20.4169 -19.9685 92.9461 0.0254 8.1687 -0.0239
# 4 0.0326 0.0787 0.0254 22.1174 -0.0142 10.2579
# 5 11.0137 16.2205 8.1687 -0.0142 54.5262 0.0172
# 6 -0.0731 -0.0360 -0.0239 10.2579 0.0172 39.0689
#
#
#
# Elastic Compliance Matrix: (Units=1/GPa)
#
#
# Indices 1 2 3 4 5 6 
#
# 1 0.015374 0.010349 -0.000618 -0.000093 -0.006091 0.000065
# 2 0.010349 0.054723 0.011246 -0.000314 -0.020054 0.000168
# 3 -0.000618 0.011246 0.013775 -0.000077 -0.005284 0.000040
# 4 -0.000093 -0.000314 -0.000077 0.051484 0.000141 -0.013518
# 5 -0.006091 -0.020054 -0.005284 0.000141 0.026328 -0.000082
# 6 0.000065 0.000168 0.000040 -0.013518 -0.000082 0.029145
#
#
# Mechanical properties :
#
#
# Convention : Reuss Voigt Hill
#
# Bulk Modulus (GPa) = 7.94758 19.43032 13.68895
# Shear Modulus (GPa) = 26.20290 37.79122 31.99706
#
# Velocity S-wave (km/s) = 3.19903 3.84184 3.53508
# Velocity P-wave (km/s) = 4.09257 5.22192 4.69135
#
# Compressibility (1/GPa) = 0.12582439
#
# Stress axis : x y z
#
# Youngs Moduli (GPa) = 65.04452 18.27397 72.59372
#
# Poissons Ratio (x) = -0.18911 0.04490
# Poissons Ratio (y) = -0.67312 -0.81639
# Poissons Ratio (z) = 0.04023 -0.20551
#
# Static dielectric constant tensor:
#      x y z
#    x 2.063080 0.000430 -0.048380 
#    y 0.000430 2.338220 -0.001250 
#    z -0.048380 -0.001250 2.270530 
# 
# From -- ./inp_files/278885.got.cif
#   From: 2010.05.17/outbox.cif.g08.bks.cpg/sg15_140_cif.got.tgz:278885.got - 2010.06.03 18:47:42.
