data_PCOD9304089
_publ_section_title
;
Structure prediction by ZEFSAII (Michael W. Deem and Ramdas Pophale) SiO2 
 PCOD9304089
Probable space group: C 2/C
;
_chemical_formula_sum "Si O2"
_cell_formula_units_Z 56
_cell_length_a 31.524039
_cell_length_b 9.604522
_cell_length_c 19.489921
_cell_angle_alpha 90.000000
_cell_angle_beta 27.137320
_cell_angle_gamma 90.000000
_cell_volume 2691.604465
_symmetry_space_group_name_H-M "C 2/C"
_symmetry_group_IT_number 15
_symmetry_cell_setting 'monoclinic'
loop_
_space_group_symop_operation_xyz
x,y,z
-x,y,1/2-z
-x,-y,-z
x,-y,1/2+z
1/2+x,1/2+y,z
1/2-x,1/2+y,1/2-z
1/2-x,1/2-y,-z
1/2+x,1/2-y,1/2+z
loop_
_atom_site_type_symbol
_atom_site_label
_atom_site_fract_x
_atom_site_fract_y
_atom_site_fract_z
Si Si1 0.249625 0.518175 0.052274
Si Si2 0.093267 0.816424 0.956970
Si Si3 0.279049 0.281737 0.120000
Si Si4 0.393314 0.716078 0.908070
Si Si5 0.796031 0.492011 0.037903
Si Si6 0.944798 0.367664 0.609590
Si Si7 0.872759 0.117231 0.624932
O O1 0.278183 0.389314 0.058953
O O2 0.153026 0.580535 0.219907
O O3 0.328452 0.634614 0.948751
O O4 0.237398 0.479048 0.990963
O O5 0.172777 0.754969 0.793187
O O6 0.070335 0.973869 0.967520
O O7 0.135659 0.819371 0.972181
O O8 0.006632 0.712441 0.077221
O O9 0.328895 0.343679 0.114799
O O10 0.323289 0.135105 0.034878
O O11 0.500000 0.674197 0.750000
O O12 0.377323 0.879040 0.919988
O O13 0.711439 0.422427 0.202387
O O14 0.926328 0.249114 0.578738
O O15 0.000000 0.500000 0.500000
#
# Coordination Sequence:
#
# PCOD9304089 Si02
#       7
#     8   8   8   8   8   8   8
#     4  12  24  48  65 103 138 176 222 282 340 394
#     4  11  23  42  67 102 132 178 227 274 330 405
#     4  11  23  45  71  96 136 180 224 275 336 401
#     4  12  25  43  70  98 133 176 229 277 337 400
#     4  11  25  42  70  99 139 177 220 279 340 393
#     4  12  25  41  72 101 137 173 228 280 330 400
#     4  11  24  44  69 100 136 179 224 274 336 397
#
# _framework density 20.805434000000002
#
# number of rings (size 3 to 8) (size 9 to 14) (size 15 to 20)
#    0.000    0.571    5.714    2.143    6.000    0.000 
#    0.000    0.714    0.000    0.000    0.000    0.000 
#    0.000    0.000    0.000    0.000    0.000    0.000 
#
# Total GULP energy -156672.872736 kJ/mol
# GULP energy per Si atom -5595.459741 kJ/mol
# Density = 2.075808 g / cm^3
# Si number density = 20.805434 Si / 1000 Ang^3
#
#
#
# Elastic Constant Matrix: (Units=GPa)
#
#
# Indices 1 2 3 4 5 6 
#
# 1 94.8132 16.7048 -6.8355 0.0000 18.3165 0.0000
# 2 16.7048 116.0099 16.0749 0.0001 2.0620 0.0001
# 3 -6.8355 16.0749 50.6590 -0.0001 -4.8029 0.0000
# 4 0.0000 0.0001 -0.0001 12.5115 0.0002 -7.1124
# 5 18.3165 2.0620 -4.8029 0.0002 28.8407 0.0000
# 6 0.0000 0.0001 0.0000 -7.1124 0.0000 40.5341
#
#
#
# Elastic Compliance Matrix: (Units=1/GPa)
#
#
# Indices 1 2 3 4 5 6 
#
# 1 0.012440 -0.001874 0.001562 0.000000 -0.007507 0.000000
# 2 -0.001874 0.009336 -0.003216 0.000000 -0.000013 0.000000
# 3 0.001562 -0.003216 0.021234 0.000000 0.002774 0.000000
# 4 0.000000 0.000000 0.000000 0.088782 -0.000001 0.015578
# 5 -0.007507 -0.000013 0.002774 -0.000001 0.039904 0.000000
# 6 0.000000 0.000000 0.000000 0.015578 0.000000 0.027404
#
#
# Mechanical properties :
#
#
# Convention : Reuss Voigt Hill
#
# Bulk Modulus (GPa) = 27.81513 34.81895 31.31704
# Shear Modulus (GPa) = 22.92086 32.07979 27.50032
#
# Velocity S-wave (km/s) = 3.32275 3.93096 3.63958
# Velocity P-wave (km/s) = 5.30274 6.11351 5.72251
#
# Compressibility (1/GPa) = 0.03595166
#
# Stress axis : x y z
#
# Youngs Moduli (GPa) = 80.38587 107.11499 47.09383
#
# Poissons Ratio (x) = 0.20076 -0.07354
# Poissons Ratio (y) = 0.15066 0.15148
# Poissons Ratio (z) = -0.12553 0.34454
#
# Static dielectric constant tensor:
#      x y z
#    x 1.730070 0.000000 0.011660 
#    y 0.000000 1.733670 0.000000 
#    z 0.011660 0.000000 1.741740 
# 
# From -- ./inp_files/209631.got.cif
#   From: 2010.05.17/outbox.cif.g08.bks.cpg/sg15_105_cif.got.tgz:209631.got - 2010.06.03 18:47:42.
