data_PCOD9304950
_publ_section_title
;
Structure prediction by ZEFSAII (Michael W. Deem and Ramdas Pophale) SiO2 
 PCOD9304950
Probable space group: C 2/C
;
_chemical_formula_sum "Si O2"
_cell_formula_units_Z 40
_cell_length_a 10.363489
_cell_length_b 30.056245
_cell_length_c 10.637360
_cell_angle_alpha 90.000000
_cell_angle_beta 32.621466
_cell_angle_gamma 90.000000
_cell_volume 1786.211680
_symmetry_space_group_name_H-M "C 2/C"
_symmetry_group_IT_number 15
_symmetry_cell_setting 'monoclinic'
loop_
_space_group_symop_operation_xyz
x,y,z
-x,y,1/2-z
-x,-y,-z
x,-y,1/2+z
1/2+x,1/2+y,z
1/2-x,1/2+y,1/2-z
1/2-x,1/2-y,-z
1/2+x,1/2-y,1/2+z
loop_
_atom_site_type_symbol
_atom_site_label
_atom_site_fract_x
_atom_site_fract_y
_atom_site_fract_z
Si Si1 0.651860 0.423851 0.511199
Si Si2 0.500000 0.773479 0.750000
Si Si3 0.500000 0.845370 0.250000
Si Si4 0.000000 0.498219 0.750000
Si Si5 0.230844 0.579544 0.184039
Si Si6 0.538520 0.163814 0.990951
Si Si7 0.000000 0.868402 0.250000
O O1 0.500000 0.406297 0.750000
O O2 0.811666 0.381550 0.349987
O O3 0.786614 0.467572 0.448007
O O4 0.478931 0.435295 0.540849
O O5 0.750000 0.750000 0.500000
O O6 0.434661 0.803808 0.683492
O O7 0.529467 0.819535 0.094230
O O8 0.069870 0.464035 0.801461
O O9 0.095902 0.616611 0.376461
O O10 0.314355 0.602232 0.984687
O O11 0.820610 0.158035 0.801887
#
# Coordination Sequence:
#
# PCOD9304950 Si02
#       7
#     8   4   4   4   8   8   4
#     4  11  24  39  59  91 138 183 239 322 366 413
#     4  12  28  50  81 124 158 184 230 294 369 450
#     4  11  24  44  69 104 136 185 253 290 357 430
#     4  11  25  38  54  95 132 190 242 314 383 424
#     4  12  23  41  65  94 127 188 258 298 361 441
#     4  12  24  45  77 105 138 192 239 295 357 441
#     4  12  21  40  72  97 130 175 261 294 351 424
#
# _framework density 22.393761999999999
#
# number of rings (size 3 to 8) (size 9 to 14) (size 15 to 20)
#    0.000    0.400    8.000    1.200    1.400    0.800 
#    0.000    1.000    0.000    0.000    0.000    0.000 
#    0.000    0.000    0.000    0.000    0.000    0.000 
#
# Total GULP energy -111481.134910 kJ/mol
# GULP energy per Si atom -5574.056746 kJ/mol
# Density = 2.234279 g / cm^3
# Si number density = 22.393762 Si / 1000 Ang^3
#
#
#
# Elastic Constant Matrix: (Units=GPa)
#
#
# Indices 1 2 3 4 5 6 
#
# 1 154.4295 16.3477 28.8858 0.0000 8.2014 0.0000
# 2 16.3477 45.4227 22.5645 0.0000 0.3063 0.0000
# 3 28.8858 22.5645 79.5458 0.0000 6.3624 0.0000
# 4 0.0000 0.0000 0.0000 2.0752 0.0000 13.4640
# 5 8.2014 0.3063 6.3624 0.0000 49.3124 0.0000
# 6 0.0000 0.0000 0.0000 13.4640 0.0000 -5.5884
#
#
#
# Elastic Compliance Matrix: (Units=1/GPa)
#
#
# Indices 1 2 3 4 5 6 
#
# 1 0.007070 -0.001512 -0.002066 0.000000 -0.000900 0.000000
# 2 -0.001512 0.025980 -0.006899 0.000000 0.000980 0.000000
# 3 -0.002066 -0.006899 0.015407 0.000000 -0.001601 0.000000
# 4 0.000000 0.000000 0.000000 0.028974 0.000000 0.069807
# 5 -0.000900 0.000980 -0.001601 0.000000 0.020629 0.000000
# 6 0.000000 0.000000 0.000000 0.069807 0.000000 -0.010759
#
#
# Mechanical properties :
#
#
# Convention : Reuss Voigt Hill
#
# Bulk Modulus (GPa) = 36.36091 46.11047 41.23569
# Shear Modulus (GPa) = 42.58104 23.26650 32.92377
#
# Velocity S-wave (km/s) = 4.36531 3.22681 3.83851
# Velocity P-wave (km/s) = 6.45603 5.87525 6.17247
#
# Compressibility (1/GPa) = 0.02750206
#
# Stress axis : x y z
#
# Youngs Moduli (GPa) = 141.44673 38.49091 64.90593
#
# Poissons Ratio (x) = 0.05819 0.13413
# Poissons Ratio (y) = 0.21384 0.44779
# Poissons Ratio (z) = 0.29230 0.26555
#
# Static dielectric constant tensor:
#      x y z
#    x 1.954150 0.000000 0.008870 
#    y 0.000000 1.808350 0.000000 
#    z 0.008870 0.000000 1.789370 
# 
# From -- ./inp_files/92227.got.cif
#   From: 2010.05.17/outbox.cif.g08.bks.cpg/sg15_47_cif.got.tgz:92227.got - 2010.06.03 18:47:42.
