data_PCOD9304155
_publ_section_title
;
Structure prediction by ZEFSAII (Michael W. Deem and Ramdas Pophale) SiO2 
 PCOD9304155
Probable space group: C 2/C
;
_chemical_formula_sum "Si O2"
_cell_formula_units_Z 48
_cell_length_a 25.422758
_cell_length_b 5.108915
_cell_length_c 14.040127
_cell_angle_alpha 90.000000
_cell_angle_beta 97.798304
_cell_angle_gamma 90.000000
_cell_volume 1806.705106
_symmetry_space_group_name_H-M "C 2/C"
_symmetry_group_IT_number 15
_symmetry_cell_setting 'monoclinic'
loop_
_space_group_symop_operation_xyz
x,y,z
-x,y,1/2-z
-x,-y,-z
x,-y,1/2+z
1/2+x,1/2+y,z
1/2-x,1/2+y,1/2-z
1/2-x,1/2-y,-z
1/2+x,1/2-y,1/2+z
loop_
_atom_site_type_symbol
_atom_site_label
_atom_site_fract_x
_atom_site_fract_y
_atom_site_fract_z
Si Si1 0.880744 0.042467 0.067596
Si Si2 0.555775 0.297152 0.254275
Si Si3 0.822823 0.476459 0.553163
Si Si4 0.050107 0.902265 0.571825
Si Si5 0.721469 0.215806 0.777081
Si Si6 0.630847 0.997608 0.135739
O O1 0.924815 0.900469 0.140550
O O2 0.832144 0.834759 0.061960
O O3 0.871077 0.334423 0.099741
O O4 0.901014 0.057662 0.964809
O O5 0.500000 0.142140 0.250000
O O6 0.541243 0.530974 0.178574
O O7 0.606654 0.178900 0.212549
O O8 0.779854 0.591192 0.616029
O O9 0.827495 0.543691 0.441639
O O10 0.076324 0.616074 0.574655
O O11 0.000000 0.000000 0.500000
O O12 0.742315 0.508521 0.771555
O O13 0.664808 0.205361 0.709218
#
# Coordination Sequence:
#
# PCOD9304155 Si02
#       6
#     8   8   8   8   8   8
#     4  11  23  42  70 102 143 198 237 296 360 429
#     4  12  24  41  70 104 149 198 248 292 362 439
#     4  11  24  46  75 102 146 187 241 309 371 433
#     4  11  24  43  67 107 149 194 250 295 361 436
#     4  12  28  48  78 110 143 193 251 310 379 445
#     4  11  27  46  74 107 151 196 245 312 369 437
#
# _framework density 26.567699000000001
#
# number of rings (size 3 to 8) (size 9 to 14) (size 15 to 20)
#    0.000    0.667    5.000    2.000    2.333    4.000 
#    0.000    0.000    0.000    0.000    0.000    0.000 
#    0.000    0.000    0.000    0.000    0.000    0.000 
#
# Total GULP energy -133769.808287 kJ/mol
# GULP energy per Si atom -5573.742012 kJ/mol
# Density = 2.650723 g / cm^3
# Si number density = 26.567699 Si / 1000 Ang^3
#
#
#
# Elastic Constant Matrix: (Units=GPa)
#
#
# Indices 1 2 3 4 5 6 
#
# 1 71.1222 16.8895 26.9431 0.0000 -9.7017 0.0000
# 2 16.8895 74.7265 -6.9328 0.0000 -12.8544 0.0000
# 3 26.9431 -6.9328 134.2896 0.0000 -38.0933 0.0000
# 4 0.0000 0.0000 0.0000 25.9394 0.0000 -9.1911
# 5 -9.7017 -12.8544 -38.0933 0.0000 49.9548 0.0000
# 6 0.0000 0.0000 0.0000 -9.1911 0.0000 42.4590
#
#
#
# Elastic Compliance Matrix: (Units=1/GPa)
#
#
# Indices 1 2 3 4 5 6 
#
# 1 0.016352 -0.004162 -0.003699 0.000000 -0.000716 0.000000
# 2 -0.004162 0.015603 0.003254 0.000000 0.005688 0.000000
# 3 -0.003699 0.003254 0.010706 0.000000 0.008283 0.000000
# 4 0.000000 0.000000 0.000000 0.041754 0.000000 0.009038
# 5 -0.000716 0.005688 0.008283 0.000000 0.027659 0.000000
# 6 0.000000 0.000000 0.000000 0.009038 0.000000 0.025509
#
#
# Mechanical properties :
#
#
# Convention : Reuss Voigt Hill
#
# Bulk Modulus (GPa) = 29.89687 39.32644 34.61166
# Shear Modulus (GPa) = 31.65626 39.88654 35.77140
#
# Velocity S-wave (km/s) = 3.45560 3.87889 3.67335
# Velocity P-wave (km/s) = 5.21528 5.90724 5.57201
#
# Compressibility (1/GPa) = 0.03344831
#
# Stress axis : x y z
#
# Youngs Moduli (GPa) = 61.15364 64.08928 93.40256
#
# Poissons Ratio (x) = 0.26675 0.34547
# Poissons Ratio (y) = 0.25453 -0.30394
# Poissons Ratio (z) = 0.22619 -0.20856
#
# Static dielectric constant tensor:
#      x y z
#    x 2.221040 0.000000 -0.060010 
#    y 0.000000 2.190120 0.000000 
#    z -0.060010 0.000000 2.085190 
# 
# From -- ./inp_files/175720.got.cif
#   From: 2010.05.17/outbox.cif.g08.bks.cpg/sg15_88_cif.got.tgz:175720.got - 2010.06.03 18:47:42.
