data_PCOD9304616
_publ_section_title
;
Structure prediction by ZEFSAII (Michael W. Deem and Ramdas Pophale) SiO2 
 PCOD9304616
Probable space group: C 2/C
;
_chemical_formula_sum "Si O2"
_cell_formula_units_Z 60
_cell_length_a 27.679958
_cell_length_b 8.213563
_cell_length_c 21.661741
_cell_angle_alpha 90.000000
_cell_angle_beta 34.880006
_cell_angle_gamma 90.000000
_cell_volume 2816.305887
_symmetry_space_group_name_H-M "C 2/C"
_symmetry_group_IT_number 15
_symmetry_cell_setting 'monoclinic'
loop_
_space_group_symop_operation_xyz
x,y,z
-x,y,1/2-z
-x,-y,-z
x,-y,1/2+z
1/2+x,1/2+y,z
1/2-x,1/2+y,1/2-z
1/2-x,1/2-y,-z
1/2+x,1/2-y,1/2+z
loop_
_atom_site_type_symbol
_atom_site_label
_atom_site_fract_x
_atom_site_fract_y
_atom_site_fract_z
Si Si1 0.650259 0.736310 0.620336
Si Si2 0.926806 0.100033 0.112986
Si Si3 0.533697 0.234640 0.596430
Si Si4 0.423799 0.720633 0.680306
Si Si5 0.000000 0.968812 0.750000
Si Si6 0.920182 0.631507 0.421952
Si Si7 0.687887 0.812346 0.353555
Si Si8 0.138739 0.322390 0.873520
O O1 0.750000 0.750000 0.500000
O O2 0.640676 0.785328 0.701538
O O3 0.586760 0.576286 0.674466
O O4 0.603027 0.859786 0.624623
O O5 0.865433 0.176873 0.127448
O O6 0.958645 0.237708 0.126344
O O7 0.895857 0.960803 0.192127
O O8 0.000000 0.000000 0.000000
O O9 0.522716 0.353914 0.666573
O O10 0.612527 0.259372 0.465950
O O11 0.543023 0.046514 0.604059
O O12 0.512254 0.738081 0.623394
O O13 0.430780 0.813600 0.607989
O O14 0.837529 0.677016 0.548314
O O15 0.783134 0.772334 0.237551
O O16 0.662457 0.991348 0.357622
#
# Coordination Sequence:
#
# PCOD9304616 Si02
#       8
#     8   8   8   8   4   8   8   8
#     4  12  26  45  71 101 136 186 243 287 348 421
#     4  12  21  40  70  99 137 178 228 284 347 416
#     4  11  25  43  69 101 137 182 228 288 352 417
#     4  12  22  40  69  98 134 183 229 282 349 410
#     4  12  26  48  72 102 140 186 236 286 352 418
#     4  11  23  45  70 100 138 182 234 284 347 420
#     4  11  24  40  66 102 139 177 227 288 350 413
#     4  11  24  41  65 103 139 176 226 288 349 416
#
# _framework density 21.304504000000001
#
# number of rings (size 3 to 8) (size 9 to 14) (size 15 to 20)
#    0.000    0.533    5.333    2.400    1.867    4.267 
#    0.000    0.667    0.000    0.000    0.000    0.000 
#    0.000    0.000    0.000    0.000    0.000    0.000 
#
# Total GULP energy -167224.899647 kJ/mol
# GULP energy per Si atom -5574.163322 kJ/mol
# Density = 2.125601 g / cm^3
# Si number density = 21.304504 Si / 1000 Ang^3
#
#
#
# Elastic Constant Matrix: (Units=GPa)
#
#
# Indices 1 2 3 4 5 6 
#
# 1 96.8587 40.2554 33.7606 0.0186 14.6631 -0.0119
# 2 40.2554 83.9732 33.2130 0.0080 7.5211 -0.0137
# 3 33.7606 33.2130 122.2679 0.0090 16.4868 -0.0143
# 4 0.0186 0.0080 0.0090 33.1579 -0.0169 4.9317
# 5 14.6631 7.5211 16.4868 -0.0169 42.1996 0.0181
# 6 -0.0119 -0.0137 -0.0143 4.9317 0.0181 42.6670
#
#
#
# Elastic Compliance Matrix: (Units=1/GPa)
#
#
# Indices 1 2 3 4 5 6 
#
# 1 0.013759 -0.005582 -0.001871 -0.000008 -0.003055 0.000004
# 2 -0.005582 0.015648 -0.002739 0.000000 0.000221 0.000002
# 3 -0.001871 -0.002739 0.009802 -0.000003 -0.002691 0.000003
# 4 -0.000008 0.000000 -0.000003 0.030686 0.000018 -0.003547
# 5 -0.003055 0.000221 -0.002691 0.000018 0.025771 -0.000015
# 6 0.000004 0.000002 0.000003 -0.003547 -0.000015 0.023847
#
#
# Mechanical properties :
#
#
# Convention : Reuss Voigt Hill
#
# Bulk Modulus (GPa) = 53.12058 57.50644 55.31351
# Shear Modulus (GPa) = 34.20608 36.66297 35.43452
#
# Velocity S-wave (km/s) = 4.01132 4.15288 4.08271
# Velocity P-wave (km/s) = 6.81486 7.07435 6.94582
#
# Compressibility (1/GPa) = 0.01882509
#
# Stress axis : x y z
#
# Youngs Moduli (GPa) = 72.68008 63.90515 102.01695
#
# Poissons Ratio (x) = 0.35673 0.19085
# Poissons Ratio (y) = 0.40572 0.27943
# Poissons Ratio (z) = 0.13597 0.17504
#
# Static dielectric constant tensor:
#      x y z
#    x 1.782320 0.000000 -0.023520 
#    y 0.000000 1.830860 0.000000 
#    z -0.023520 0.000000 1.866530 
# 
# From -- ./inp_files/257200.got.cif
#   From: 2010.05.17/outbox.cif.g08.bks.cpg/sg15_129_cif.got.tgz:257200.got - 2010.06.03 18:47:42.
