data_PCOD9304051
_publ_section_title
;
Structure prediction by ZEFSAII (Michael W. Deem and Ramdas Pophale) SiO2 
 PCOD9304051
Probable space group: C 2/C
;
_chemical_formula_sum "Si O2"
_cell_formula_units_Z 40
_cell_length_a 8.202874
_cell_length_b 28.096561
_cell_length_c 8.797351
_cell_angle_alpha 90.000000
_cell_angle_beta 61.089092
_cell_angle_gamma 90.000000
_cell_volume 1774.859695
_symmetry_space_group_name_H-M "C 2/C"
_symmetry_group_IT_number 15
_symmetry_cell_setting 'monoclinic'
loop_
_space_group_symop_operation_xyz
x,y,z
-x,y,1/2-z
-x,-y,-z
x,-y,1/2+z
1/2+x,1/2+y,z
1/2-x,1/2+y,1/2-z
1/2-x,1/2-y,-z
1/2+x,1/2-y,1/2+z
loop_
_atom_site_type_symbol
_atom_site_label
_atom_site_fract_x
_atom_site_fract_y
_atom_site_fract_z
Si Si1 0.800576 0.967226 0.757548
Si Si2 0.307375 0.267897 0.311776
Si Si3 0.300011 0.566055 0.904844
Si Si4 0.608853 0.209434 0.504211
Si Si5 0.547234 0.105269 0.554894
O O1 0.808030 0.953327 0.575415
O O2 0.000000 0.962145 0.750000
O O3 0.743926 0.021559 0.820400
O O4 0.662725 0.933376 0.910696
O O5 0.500000 0.297409 0.250000
O O6 0.250000 0.250000 0.500000
O O7 0.369957 0.223362 0.181410
O O8 0.107728 0.287628 0.343416
O O9 0.500000 0.580838 0.750000
O O10 0.147862 0.606947 0.949311
O O11 0.750000 0.250000 0.500000
O O12 0.659235 0.154822 0.505824
O O13 0.500000 0.093372 0.750000
#
# Coordination Sequence:
#
# PCOD9304051 Si02
#       5
#     8   8   8   8   8
#     4  11  23  42  68 100 138 183 223 273 339 409
#     4   9  20  38  61  86 118 158 205 267 336 401
#     4  11  23  43  68  99 140 181 222 277 339 409
#     4  11  23  42  64  90 124 169 221 280 343 402
#     4  12  25  41  63  95 132 177 230 281 335 405
#
# _framework density 22.536992999999999
#
# number of rings (size 3 to 8) (size 9 to 14) (size 15 to 20)
#    0.000    1.200    0.000    7.800    0.000    7.200 
#    0.000    6.000    0.000    0.000    0.000    0.000 
#    0.000    0.000    0.000    0.000    0.000    0.000 
#
# Total GULP energy -111531.196228 kJ/mol
# GULP energy per Si atom -5576.559811 kJ/mol
# Density = 2.248570 g / cm^3
# Si number density = 22.536993 Si / 1000 Ang^3
#
#
#
# Elastic Constant Matrix: (Units=GPa)
#
#
# Indices 1 2 3 4 5 6 
#
# 1 113.0243 39.2636 29.3053 0.0000 -0.4617 0.0000
# 2 39.2636 75.7902 25.2961 0.0000 -12.8073 0.0000
# 3 29.3053 25.2961 145.1624 0.0000 11.8065 0.0000
# 4 0.0000 0.0000 0.0000 19.6181 0.0000 -0.8888
# 5 -0.4617 -12.8073 11.8065 0.0000 54.5256 0.0000
# 6 0.0000 0.0000 0.0000 -0.8888 0.0000 22.7731
#
#
#
# Elastic Compliance Matrix: (Units=1/GPa)
#
#
# Indices 1 2 3 4 5 6 
#
# 1 0.011062 -0.005488 -0.001201 0.000000 -0.000935 0.000000
# 2 -0.005488 0.017591 -0.002331 0.000000 0.004590 0.000000
# 3 -0.001201 -0.002331 0.007719 0.000000 -0.002229 0.000000
# 4 0.000000 0.000000 0.000000 0.051064 0.000000 0.001993
# 5 -0.000935 0.004590 -0.002229 0.000000 0.019893 0.000000
# 6 0.000000 0.000000 0.000000 0.001993 0.000000 0.043989
#
#
# Mechanical properties :
#
#
# Convention : Reuss Voigt Hill
#
# Bulk Modulus (GPa) = 54.54820 57.96745 56.25782
# Shear Modulus (GPa) = 28.49545 35.39080 31.94312
#
# Velocity S-wave (km/s) = 3.55968 3.96705 3.76887
# Velocity P-wave (km/s) = 6.41494 6.83814 6.62992
#
# Compressibility (1/GPa) = 0.01833241
#
# Stress axis : x y z
#
# Youngs Moduli (GPa) = 90.40292 56.84744 129.55543
#
# Poissons Ratio (x) = 0.31197 0.15556
# Poissons Ratio (y) = 0.49612 0.30198
# Poissons Ratio (z) = 0.10855 0.13250
#
# Static dielectric constant tensor:
#      x y z
#    x 2.127100 0.000000 -0.078690 
#    y 0.000000 1.861780 0.000000 
#    z -0.078690 0.000000 1.868170 
# 
# From -- ./inp_files/25333.got.cif
#   From: 2010.05.17/outbox.cif.g08.bks.cpg/sg15_13_cif.got.tgz:25333.got - 2010.06.03 18:47:42.
