data_PCOD9304849
_publ_section_title
;
Structure prediction by ZEFSAII (Michael W. Deem and Ramdas Pophale) SiO2 
 PCOD9304849
Probable space group: C 2/C
;
_chemical_formula_sum "Si O2"
_cell_formula_units_Z 36
_cell_length_a 12.756544
_cell_length_b 7.390369
_cell_length_c 14.080834
_cell_angle_alpha 90.000000
_cell_angle_beta 94.711606
_cell_angle_gamma 90.000000
_cell_volume 1322.992756
_symmetry_space_group_name_H-M "C 2/C"
_symmetry_group_IT_number 15
_symmetry_cell_setting 'monoclinic'
loop_
_space_group_symop_operation_xyz
x,y,z
-x,y,1/2-z
-x,-y,-z
x,-y,1/2+z
1/2+x,1/2+y,z
1/2-x,1/2+y,1/2-z
1/2-x,1/2-y,-z
1/2+x,1/2-y,1/2+z
loop_
_atom_site_type_symbol
_atom_site_label
_atom_site_fract_x
_atom_site_fract_y
_atom_site_fract_z
Si Si1 0.386778 0.136375 0.561088
Si Si2 0.806066 0.562471 0.739375
Si Si3 0.500000 0.779373 0.750000
Si Si4 0.103938 0.075661 0.601761
Si Si5 0.625472 0.178517 0.559645
O O1 0.349400 0.199318 0.661122
O O2 0.366109 0.272543 0.473291
O O3 0.510829 0.101757 0.580444
O O4 0.338020 0.942158 0.526260
O O5 0.691477 0.532012 0.688219
O O6 0.802668 0.636421 0.844977
O O7 0.893692 0.402299 0.743310
O O8 0.508697 0.655234 0.656885
O O9 0.096782 0.887312 0.545928
#
# Coordination Sequence:
#
# PCOD9304849 Si02
#       5
#     8   8   4   8   8
#     4  11  23  47  73 106 150 191 249 310 370 447
#     4  12  24  49  76 107 153 198 245 315 377 438
#     4  12  24  48  76 106 156 198 246 314 368 446
#     4  12  27  45  75 113 141 200 259 295 379 457
#     4  11  24  46  71 106 150 195 242 309 381 434
#
# _framework density 27.211033
#
# number of rings (size 3 to 8) (size 9 to 14) (size 15 to 20)
#    0.000    0.444    4.444    4.000    3.111    0.889 
#    0.000    0.000    0.000    0.000    0.000    0.000 
#    0.000    0.000    0.000    0.000    0.000    0.000 
#
# Total GULP energy -100783.774919 kJ/mol
# GULP energy per Si atom -5599.098607 kJ/mol
# Density = 2.714910 g / cm^3
# Si number density = 27.211033 Si / 1000 Ang^3
#
#
#
# Elastic Constant Matrix: (Units=GPa)
#
#
# Indices 1 2 3 4 5 6 
#
# 1 56.8722 8.0883 11.6377 0.0000 3.8204 0.0000
# 2 8.0883 167.9132 57.2301 0.0000 -4.1139 0.0000
# 3 11.6377 57.2301 160.7936 0.0000 12.2971 0.0000
# 4 0.0000 0.0000 0.0000 41.2402 0.0000 2.0949
# 5 3.8204 -4.1139 12.2971 0.0000 49.2346 0.0000
# 6 0.0000 0.0000 0.0000 2.0949 0.0000 14.5027
#
#
#
# Elastic Compliance Matrix: (Units=1/GPa)
#
#
# Indices 1 2 3 4 5 6 
#
# 1 0.017948 -0.000548 -0.001013 0.000000 -0.001185 0.000000
# 2 -0.000548 0.006864 -0.002498 0.000000 0.001240 0.000000
# 3 -0.001013 -0.002498 0.007332 0.000000 -0.001961 0.000000
# 4 0.000000 0.000000 0.000000 0.024427 0.000000 -0.003528
# 5 -0.001185 0.001240 -0.001961 0.000000 0.020996 0.000000
# 6 0.000000 0.000000 0.000000 -0.003528 0.000000 0.069462
#
#
# Mechanical properties :
#
#
# Convention : Reuss Voigt Hill
#
# Bulk Modulus (GPa) = 41.62442 59.94345 50.78394
# Shear Modulus (GPa) = 30.64532 41.57036 36.10784
#
# Velocity S-wave (km/s) = 3.35954 3.91282 3.64669
# Velocity P-wave (km/s) = 5.51170 6.51847 6.03611
#
# Compressibility (1/GPa) = 0.02402436
#
# Stress axis : x y z
#
# Youngs Moduli (GPa) = 55.71578 145.69453 136.39567
#
# Poissons Ratio (x) = 0.07988 0.13820
# Poissons Ratio (y) = 0.03055 0.34073
# Poissons Ratio (z) = 0.05645 0.36396
#
# Static dielectric constant tensor:
#      x y z
#    x 2.158550 0.000000 0.059310 
#    y 0.000000 2.184280 0.000000 
#    z 0.059310 0.000000 2.067700 
# 
# From -- ./inp_files/150389.got.cif
#   From: 2010.05.17/outbox.cif.g08.bks.cpg/sg15_76_cif.got.tgz:150389.got - 2010.06.03 18:47:42.
