data_PCOD9304548
_publ_section_title
;
Structure prediction by ZEFSAII (Michael W. Deem and Ramdas Pophale) SiO2 
 PCOD9304548
Probable space group: C 2/C
;
_chemical_formula_sum "Si O2"
_cell_formula_units_Z 52
_cell_length_a 17.352260
_cell_length_b 16.431524
_cell_length_c 8.489222
_cell_angle_alpha 90.000000
_cell_angle_beta 103.938635
_cell_angle_gamma 90.000000
_cell_volume 2349.208745
_symmetry_space_group_name_H-M "C 2/C"
_symmetry_group_IT_number 15
_symmetry_cell_setting 'monoclinic'
loop_
_space_group_symop_operation_xyz
x,y,z
-x,y,1/2-z
-x,-y,-z
x,-y,1/2+z
1/2+x,1/2+y,z
1/2-x,1/2+y,1/2-z
1/2-x,1/2-y,-z
1/2+x,1/2-y,1/2+z
loop_
_atom_site_type_symbol
_atom_site_label
_atom_site_fract_x
_atom_site_fract_y
_atom_site_fract_z
Si Si1 0.940235 0.571388 0.912096
Si Si2 0.818314 0.930622 0.931832
Si Si3 0.000000 0.283401 0.250000
Si Si4 0.366888 0.308984 0.500517
Si Si5 0.719994 0.160091 0.155174
Si Si6 0.337403 0.985038 0.067139
Si Si7 0.914401 0.052165 0.788915
O O1 0.978410 0.657303 0.886568
O O2 0.896471 0.547219 0.728497
O O3 0.872759 0.567994 0.012184
O O4 0.000000 0.500000 0.000000
O O5 0.772078 0.855126 0.835086
O O6 0.749512 0.998793 0.908963
O O7 0.884301 0.966577 0.845731
O O8 0.854882 0.920930 0.120977
O O9 0.073221 0.229189 0.342798
O O10 0.337811 0.236640 0.371079
O O11 0.285944 0.332381 0.550017
O O12 0.407382 0.382364 0.425873
O O13 0.670338 0.080611 0.077189
O O14 0.000000 0.046180 0.750000
#
# Coordination Sequence:
#
# PCOD9304548 Si02
#       7
#     8   8   4   8   8   8   8
#     4  12  22  40  68 104 134 177 223 279 336 397
#     4  12  24  45  74 104 127 172 239 292 336 390
#     4  12  26  44  66  94 148 188 214 268 356 410
#     4  11  26  46  66  95 143 186 222 264 350 424
#     4  11  23  44  73  98 133 182 229 275 340 402
#     4  12  21  40  71 104 135 166 233 284 331 394
#     4  12  26  46  70 102 138 174 230 289 347 402
#
# _framework density 22.135111999999999
#
# number of rings (size 3 to 8) (size 9 to 14) (size 15 to 20)
#    0.000    0.308    7.692    0.462    2.154    0.615 
#    4.154    0.000    0.000    0.000    0.000    0.000 
#    0.000    0.000    0.000    0.000    0.000    0.000 
#
# Total GULP energy -145348.553591 kJ/mol
# GULP energy per Si atom -5590.328984 kJ/mol
# Density = 2.208473 g / cm^3
# Si number density = 22.135112 Si / 1000 Ang^3
#
#
#
# Elastic Constant Matrix: (Units=GPa)
#
#
# Indices 1 2 3 4 5 6 
#
# 1 95.5338 17.1645 -0.3089 0.0000 3.0182 0.0000
# 2 17.1645 44.5190 2.6932 0.0000 14.2518 0.0000
# 3 -0.3089 2.6932 80.5394 0.0000 26.0509 0.0000
# 4 0.0000 0.0000 0.0000 35.9366 0.0000 2.9767
# 5 3.0182 14.2518 26.0509 0.0000 37.7006 0.0000
# 6 0.0000 0.0000 0.0000 2.9767 0.0000 16.9562
#
#
#
# Elastic Compliance Matrix: (Units=1/GPa)
#
#
# Indices 1 2 3 4 5 6 
#
# 1 0.011271 -0.004633 -0.000099 0.000000 0.000917 0.000000
# 2 -0.004633 0.028005 0.003027 0.000000 -0.012307 0.000000
# 3 -0.000099 0.003027 0.016333 0.000000 -0.012422 0.000000
# 4 0.000000 0.000000 0.000000 0.028237 0.000000 -0.004957
# 5 0.000917 -0.012307 -0.012422 0.000000 0.039687 0.000000
# 6 0.000000 0.000000 0.000000 -0.004957 0.000000 0.059846
#
#
# Mechanical properties :
#
#
# Convention : Reuss Voigt Hill
#
# Bulk Modulus (GPa) = 19.15759 28.85442 24.00600
# Shear Modulus (GPa) = 24.48714 31.52156 28.00435
#
# Velocity S-wave (km/s) = 3.32965 3.77776 3.56076
# Velocity P-wave (km/s) = 4.84311 5.66502 5.27011
#
# Compressibility (1/GPa) = 0.05219864
#
# Stress axis : x y z
#
# Youngs Moduli (GPa) = 88.72617 35.70731 61.22705
#
# Poissons Ratio (x) = 0.16544 0.00603
# Poissons Ratio (y) = 0.41108 -0.18531
# Poissons Ratio (z) = 0.00874 -0.10807
#
# Static dielectric constant tensor:
#      x y z
#    x 1.862670 0.000000 -0.022170 
#    y 0.000000 1.835120 0.000000 
#    z -0.022170 0.000000 1.797700 
# 
# From -- ./inp_files/48666.got.cif
#   From: 2010.05.17/outbox.cif.g08.bks.cpg/sg15_25_cif.got.tgz:48666.got - 2010.06.03 18:47:42.
