data_PCOD9304885
_publ_section_title
;
Structure prediction by ZEFSAII (Michael W. Deem and Ramdas Pophale) SiO2 
 PCOD9304885
Probable space group: C 2/C
;
_chemical_formula_sum "Si O2"
_cell_formula_units_Z 40
_cell_length_a 9.585264
_cell_length_b 10.896085
_cell_length_c 16.028564
_cell_angle_alpha 90.000000
_cell_angle_beta 85.375947
_cell_angle_gamma 90.000000
_cell_volume 1668.604061
_symmetry_space_group_name_H-M "C 2/C"
_symmetry_group_IT_number 15
_symmetry_cell_setting 'monoclinic'
loop_
_space_group_symop_operation_xyz
x,y,z
-x,y,1/2-z
-x,-y,-z
x,-y,1/2+z
1/2+x,1/2+y,z
1/2-x,1/2+y,1/2-z
1/2-x,1/2-y,-z
1/2+x,1/2-y,1/2+z
loop_
_atom_site_type_symbol
_atom_site_label
_atom_site_fract_x
_atom_site_fract_y
_atom_site_fract_z
Si Si1 0.073710 0.130682 0.505661
Si Si2 0.085671 0.478586 0.161888
Si Si3 0.697272 0.279260 0.408926
Si Si4 0.655210 0.144534 0.901880
Si Si5 0.157015 0.733397 0.235341
O O1 0.229080 0.115301 0.534120
O O2 0.084177 0.224118 0.427670
O O3 0.967794 0.199436 0.572730
O O4 0.000000 0.000000 0.500000
O O5 0.215425 0.397164 0.126102
O O6 0.140539 0.613352 0.179117
O O7 0.000000 0.440150 0.250000
O O8 0.963707 0.457375 0.099975
O O9 0.750000 0.250000 0.500000
O O10 0.710981 0.195152 0.325345
O O11 0.743127 0.169948 0.814044
O O12 0.000000 0.785080 0.250000
#
# Coordination Sequence:
#
# PCOD9304885 Si02
#       5
#     8   8   8   8   8
#     4  11  25  44  72 109 146 191 240 307 375 431
#     4  11  24  44  75 104 139 197 241 295 376 428
#     4  12  24  46  74 109 148 187 247 310 362 439
#     4  11  23  48  70 102 155 186 242 306 359 446
#     4  11  24  45  73 103 145 193 242 298 368 439
#
# _framework density 23.972134
#
# number of rings (size 3 to 8) (size 9 to 14) (size 15 to 20)
#    0.000    0.800    6.000    1.200    0.000    3.200 
#    0.000    7.000    0.000    0.000    0.000    0.000 
#    0.000    0.000    0.000    0.000    0.000    0.000 
#
# Total GULP energy -111735.969294 kJ/mol
# GULP energy per Si atom -5586.798465 kJ/mol
# Density = 2.391757 g / cm^3
# Si number density = 23.972134 Si / 1000 Ang^3
#
#
#
# Elastic Constant Matrix: (Units=GPa)
#
#
# Indices 1 2 3 4 5 6 
#
# 1 99.8163 24.7084 7.3337 0.0000 -0.2115 0.0000
# 2 24.7084 79.8999 21.9147 0.0000 12.8993 0.0000
# 3 7.3337 21.9147 114.9081 0.0000 4.8458 0.0000
# 4 0.0000 0.0000 0.0000 34.4967 0.0000 -7.3893
# 5 -0.2115 12.8993 4.8458 0.0000 53.4571 0.0000
# 6 0.0000 0.0000 0.0000 -7.3893 0.0000 41.6007
#
#
#
# Elastic Compliance Matrix: (Units=1/GPa)
#
#
# Indices 1 2 3 4 5 6 
#
# 1 0.010890 -0.003493 -0.000066 0.000000 0.000892 0.000000
# 2 -0.003493 0.014814 -0.002460 0.000000 -0.003365 0.000000
# 3 -0.000066 -0.002460 0.009186 0.000000 -0.000239 0.000000
# 4 0.000000 0.000000 0.000000 0.030135 0.000000 0.005353
# 5 0.000892 -0.003365 -0.000239 0.000000 0.019544 0.000000
# 6 0.000000 0.000000 0.000000 0.005353 0.000000 0.024989
#
#
# Mechanical properties :
#
#
# Convention : Reuss Voigt Hill
#
# Bulk Modulus (GPa) = 43.76405 44.72643 44.24524
# Shear Modulus (GPa) = 38.69523 41.95539 40.32531
#
# Velocity S-wave (km/s) = 4.02204 4.18805 4.10588
# Velocity P-wave (km/s) = 6.31387 6.48726 6.40115
#
# Compressibility (1/GPa) = 0.02284981
#
# Stress axis : x y z
#
# Youngs Moduli (GPa) = 91.82792 67.50305 108.85932
#
# Poissons Ratio (x) = 0.23582 0.00723
# Poissons Ratio (y) = 0.32079 0.26784
# Poissons Ratio (z) = 0.00610 0.16608
#
# Static dielectric constant tensor:
#      x y z
#    x 1.894400 0.000000 0.049520 
#    y 0.000000 1.919710 0.000000 
#    z 0.049520 0.000000 2.028240 
# 
# From -- ./inp_files/187921.got.cif
#   From: 2010.05.17/outbox.cif.g08.bks.cpg/sg15_94_cif.got.tgz:187921.got - 2010.06.03 18:47:42.
