data_PCOD9304325
_publ_section_title
;
Structure prediction by ZEFSAII (Michael W. Deem and Ramdas Pophale) SiO2 
 PCOD9304325
Probable space group: C 2/C
;
_chemical_formula_sum "Si O2"
_cell_formula_units_Z 60
_cell_length_a 8.921704
_cell_length_b 27.406968
_cell_length_c 17.860841
_cell_angle_alpha 90.000000
_cell_angle_beta 139.400389
_cell_angle_gamma 90.000000
_cell_volume 2842.088555
_symmetry_space_group_name_H-M "C 2/C"
_symmetry_group_IT_number 15
_symmetry_cell_setting 'monoclinic'
loop_
_space_group_symop_operation_xyz
x,y,z
-x,y,1/2-z
-x,-y,-z
x,-y,1/2+z
1/2+x,1/2+y,z
1/2-x,1/2+y,1/2-z
1/2-x,1/2-y,-z
1/2+x,1/2-y,1/2+z
loop_
_atom_site_type_symbol
_atom_site_label
_atom_site_fract_x
_atom_site_fract_y
_atom_site_fract_z
Si Si1 0.576328 0.660636 0.433411
Si Si2 0.203406 0.738467 0.265133
Si Si3 0.201787 0.382620 0.883704
Si Si4 0.881523 0.699781 0.031247
Si Si5 0.500000 0.607615 0.250000
Si Si6 0.226698 0.556412 0.649053
Si Si7 0.400812 0.165545 0.866634
Si Si8 0.040224 0.544754 0.109624
O O1 0.426140 0.710096 0.380668
O O2 0.438845 0.620700 0.429735
O O3 0.577111 0.639920 0.349619
O O4 0.834960 0.668111 0.557344
O O5 0.252122 0.794828 0.265936
O O6 0.000000 0.737296 0.250000
O O7 0.128716 0.709859 0.162434
O O8 0.216720 0.345040 0.958147
O O9 0.111698 0.433207 0.881700
O O10 0.000000 0.365998 0.750000
O O11 0.750000 0.750000 0.000000
O O12 0.885205 0.685302 0.946513
O O13 0.721406 0.575123 0.309871
O O14 0.500000 0.548146 0.750000
O O15 0.182373 0.610019 0.665400
O O16 0.108651 0.553101 0.522278
O O17 0.106779 0.511411 0.645852
#
# Coordination Sequence:
#
# PCOD9304325 Si02
#       8
#     8   8   8   8   4   8   8   8
#     4  12  22  38  65  98 131 170 221 277 331 401
#     4  12  22  39  60  93 129 173 219 275 332 397
#     4  12  21  40  67  96 133 168 220 285 339 390
#     4  12  22  39  62  97 131 174 226 271 335 401
#     4  12  20  40  70 102 126 168 232 278 328 394
#     4  11  24  43  72  98 134 176 227 276 339 410
#     4  12  25  41  64  96 134 178 225 275 338 411
#     4  11  23  43  70 105 127 171 228 286 332 399
#
# _framework density 21.111235000000001
#
# number of rings (size 3 to 8) (size 9 to 14) (size 15 to 20)
#    0.000    0.267    8.667    1.600    0.000    0.000 
#    0.000    0.667    0.000    3.200    0.000    0.000 
#    0.000    0.000    0.000    0.000    0.000    0.000 
#
# Total GULP energy -167796.732810 kJ/mol
# GULP energy per Si atom -5593.224427 kJ/mol
# Density = 2.106319 g / cm^3
# Si number density = 21.111235 Si / 1000 Ang^3
#
#
#
# Elastic Constant Matrix: (Units=GPa)
#
#
# Indices 1 2 3 4 5 6 
#
# 1 75.1739 34.1671 -2.4793 0.0000 14.0267 0.0000
# 2 34.1671 151.3479 1.2032 0.0000 13.5056 0.0001
# 3 -2.4793 1.2032 34.5378 -0.0002 13.5708 -0.0004
# 4 0.0000 0.0000 -0.0002 16.7471 0.0000 -6.5795
# 5 14.0267 13.5056 13.5708 0.0000 24.7841 -0.0001
# 6 0.0000 0.0001 -0.0004 -6.5795 -0.0001 23.3130
#
#
#
# Elastic Compliance Matrix: (Units=1/GPa)
#
#
# Indices 1 2 3 4 5 6 
#
# 1 0.016858 -0.002862 0.005665 0.000000 -0.011083 0.000000
# 2 -0.002862 0.007500 0.000641 0.000000 -0.002818 0.000000
# 3 0.005665 0.000641 0.039160 0.000001 -0.024998 0.000001
# 4 0.000000 0.000000 0.000001 0.067158 0.000000 0.018954
# 5 -0.011083 -0.002818 -0.024998 0.000000 0.061845 0.000000
# 6 0.000000 0.000000 0.000001 0.018954 0.000000 0.048244
#
#
# Mechanical properties :
#
#
# Convention : Reuss Voigt Hill
#
# Bulk Modulus (GPa) = 14.20346 36.31573 25.25959
# Shear Modulus (GPa) = 19.42908 28.18007 23.80457
#
# Velocity S-wave (km/s) = 3.03697 3.65751 3.36159
# Velocity P-wave (km/s) = 4.36349 5.92249 5.20173
#
# Compressibility (1/GPa) = 0.07040539
#
# Stress axis : x y z
#
# Youngs Moduli (GPa) = 59.31893 133.33862 25.53594
#
# Poissons Ratio (x) = 0.38158 -0.14466
# Poissons Ratio (y) = 0.16976 -0.01636
# Poissons Ratio (z) = -0.33603 -0.08541
#
# Static dielectric constant tensor:
#      x y z
#    x 1.750650 0.000000 -0.007990 
#    y 0.000000 1.782540 0.000000 
#    z -0.007990 0.000000 1.807850 
# 
# From -- ./inp_files/234798.got.cif
#   From: 2010.05.17/outbox.cif.g08.bks.cpg/sg15_118_cif.got.tgz:234798.got - 2010.06.03 18:47:42.
