data_PCOD9304023
_publ_section_title
;
Structure prediction by ZEFSAII (Michael W. Deem and Ramdas Pophale) SiO2 
 PCOD9304023
Probable space group: C 2/C
;
_chemical_formula_sum "Si O2"
_cell_formula_units_Z 48
_cell_length_a 5.867924
_cell_length_b 18.687578
_cell_length_c 19.497168
_cell_angle_alpha 90.000000
_cell_angle_beta 113.668811
_cell_angle_gamma 90.000000
_cell_volume 1958.160134
_symmetry_space_group_name_H-M "C 2/C"
_symmetry_group_IT_number 15
_symmetry_cell_setting 'monoclinic'
loop_
_space_group_symop_operation_xyz
x,y,z
-x,y,1/2-z
-x,-y,-z
x,-y,1/2+z
1/2+x,1/2+y,z
1/2-x,1/2+y,1/2-z
1/2-x,1/2-y,-z
1/2+x,1/2-y,1/2+z
loop_
_atom_site_type_symbol
_atom_site_label
_atom_site_fract_x
_atom_site_fract_y
_atom_site_fract_z
Si Si1 0.386503 0.519072 0.058496
Si Si2 0.804219 0.034175 0.787089
Si Si3 0.561203 0.110453 0.482499
Si Si4 0.909868 0.325555 0.661410
Si Si5 0.013049 0.275002 0.429826
Si Si6 0.760657 0.309744 0.175900
O O1 0.597243 0.515039 0.140207
O O2 0.228486 0.590957 0.042905
O O3 0.500000 0.500000 0.000000
O O4 0.196138 0.452496 0.041242
O O5 0.500000 0.028373 0.750000
O O6 0.857831 0.117705 0.810022
O O7 0.000000 0.015679 0.750000
O O8 0.593959 0.120207 0.404421
O O9 0.642488 0.181476 0.532448
O O10 0.641875 0.286485 0.626827
O O11 0.000000 0.347375 0.750000
O O12 0.091087 0.260142 0.660191
O O13 0.250000 0.250000 0.500000
O O14 0.128106 0.325683 0.385444
O O15 0.000000 0.293903 0.250000
#
# Coordination Sequence:
#
# PCOD9304023 Si02
#       6
#     8   8   8   8   8   8
#     4  11  27  51  75  99 143 198 257 314 370 436
#     4  11  27  47  77 112 149 196 257 317 378 448
#     4  11  27  45  75 106 141 194 252 308 371 449
#     4  12  25  45  69 108 153 190 238 301 382 455
#     4  12  25  42  72 108 145 188 241 300 375 445
#     4  11  23  41  71 106 148 188 232 306 376 447
#
# _framework density 24.512805
#
# number of rings (size 3 to 8) (size 9 to 14) (size 15 to 20)
#    0.000    0.667    3.333    3.000   16.333    0.000 
#    3.000    0.000    0.000    0.000    0.000    0.000 
#    0.000    0.000    0.000    0.000    0.000    0.000 
#
# Total GULP energy -134081.678218 kJ/mol
# GULP energy per Si atom -5586.736592 kJ/mol
# Density = 2.445701 g / cm^3
# Si number density = 24.512805 Si / 1000 Ang^3
#
#
#
# Elastic Constant Matrix: (Units=GPa)
#
#
# Indices 1 2 3 4 5 6 
#
# 1 92.3910 16.1303 51.8281 0.0000 -7.6752 0.0000
# 2 16.1303 51.3839 24.3522 0.0000 4.3590 0.0000
# 3 51.8281 24.3522 175.9033 0.0000 -11.3685 0.0000
# 4 0.0000 0.0000 0.0000 35.1892 0.0000 -4.0418
# 5 -7.6752 4.3590 -11.3685 0.0000 53.9910 0.0000
# 6 0.0000 0.0000 0.0000 -4.0418 0.0000 32.9096
#
#
#
# Elastic Compliance Matrix: (Units=1/GPa)
#
#
# Indices 1 2 3 4 5 6 
#
# 1 0.013353 -0.002661 -0.003477 0.000000 0.001381 0.000000
# 2 -0.002661 0.021649 -0.002383 0.000000 -0.002628 0.000000
# 3 -0.003477 -0.002383 0.007117 0.000000 0.001197 0.000000
# 4 0.000000 0.000000 0.000000 0.028824 0.000000 0.003540
# 5 0.001381 -0.002628 0.001197 0.000000 0.019182 0.000000
# 6 0.000000 0.000000 0.000000 0.003540 0.000000 0.030821
#
#
# Mechanical properties :
#
#
# Convention : Reuss Voigt Hill
#
# Bulk Modulus (GPa) = 39.87693 56.03326 47.95509
# Shear Modulus (GPa) = 34.16539 39.57581 36.87060
#
# Velocity S-wave (km/s) = 3.73738 4.02244 3.88253
# Velocity P-wave (km/s) = 5.90992 6.66946 6.30115
#
# Compressibility (1/GPa) = 0.02507715
#
# Stress axis : x y z
#
# Youngs Moduli (GPa) = 74.88826 46.19150 140.51782
#
# Poissons Ratio (x) = 0.12293 0.48854
# Poissons Ratio (y) = 0.19930 0.33483
# Poissons Ratio (z) = 0.26036 0.11007
#
# Static dielectric constant tensor:
#      x y z
#    x 2.678570 0.000000 0.196740 
#    y 0.000000 2.279420 0.000000 
#    z 0.196740 0.000000 1.920030 
# 
# From -- ./inp_files/185533.got.cif
#   From: 2010.05.17/outbox.cif.g08.bks.cpg/sg15_93_cif.got.tgz:185533.got - 2010.06.03 18:47:42.
