data_PCOD9304244
_publ_section_title
;
Structure prediction by ZEFSAII (Michael W. Deem and Ramdas Pophale) SiO2 
 PCOD9304244
Probable space group: C 2/C
;
_chemical_formula_sum "Si O2"
_cell_formula_units_Z 48
_cell_length_a 6.324290
_cell_length_b 28.148614
_cell_length_c 14.883480
_cell_angle_alpha 90.000000
_cell_angle_beta 122.092639
_cell_angle_gamma 90.000000
_cell_volume 2244.678753
_symmetry_space_group_name_H-M "C 2/C"
_symmetry_group_IT_number 15
_symmetry_cell_setting 'monoclinic'
loop_
_space_group_symop_operation_xyz
x,y,z
-x,y,1/2-z
-x,-y,-z
x,-y,1/2+z
1/2+x,1/2+y,z
1/2-x,1/2+y,1/2-z
1/2-x,1/2-y,-z
1/2+x,1/2-y,1/2+z
loop_
_atom_site_type_symbol
_atom_site_label
_atom_site_fract_x
_atom_site_fract_y
_atom_site_fract_z
Si Si1 0.002304 0.693817 0.988784
Si Si2 0.708215 0.779112 0.860706
Si Si3 0.250257 0.892778 0.364221
Si Si4 0.361394 0.433730 0.978946
Si Si5 0.601981 0.976748 0.372105
Si Si6 0.006103 0.135568 0.147999
O O1 0.949093 0.745482 0.932403
O O2 0.868378 0.659041 0.886009
O O3 0.891791 0.703885 0.064362
O O4 0.255416 0.663991 0.063228
O O5 0.500000 0.754443 0.750000
O O6 0.784653 0.825072 0.821496
O O7 0.198129 0.895953 0.458526
O O8 0.433600 0.936278 0.380098
O O9 0.000000 0.897411 0.250000
O O10 0.136486 0.471634 0.924379
O O11 0.428925 0.408784 0.900816
O O12 0.614529 0.458610 0.069015
O O13 0.500000 0.983751 0.250000
O O14 0.000000 0.121053 0.250000
#
# Coordination Sequence:
#
# PCOD9304244 Si02
#       6
#     8   8   8   8   8   8
#     4  11  24  41  67  99 138 178 221 280 337 402
#     4  11  23  43  66  97 138 178 226 277 337 400
#     4  12  23  43  72  98 133 180 222 279 342 404
#     4  11  25  44  67  98 132 177 227 278 336 405
#     4  11  24  45  66  96 136 175 224 279 338 402
#     4  12  24  44  70  99 135 180 229 279 339 403
#
# _framework density 21.383907000000001
#
# number of rings (size 3 to 8) (size 9 to 14) (size 15 to 20)
#    0.000    0.667    6.667    1.500    0.000    2.000 
#    6.000    0.833    0.000    0.000    0.000    0.000 
#    0.000    0.000    0.000    0.000    0.000    0.000 
#
# Total GULP energy -133849.050860 kJ/mol
# GULP energy per Si atom -5577.043786 kJ/mol
# Density = 2.133524 g / cm^3
# Si number density = 21.383907 Si / 1000 Ang^3
#
#
#
# Elastic Constant Matrix: (Units=GPa)
#
#
# Indices 1 2 3 4 5 6 
#
# 1 33.9098 6.3241 21.6275 0.0000 13.4966 0.0000
# 2 6.3241 76.0600 35.4209 0.0000 10.6067 0.0000
# 3 21.6275 35.4209 112.3126 0.0000 5.1564 0.0000
# 4 0.0000 0.0000 0.0000 29.5669 0.0000 7.1866
# 5 13.4966 10.6067 5.1564 0.0000 34.1057 0.0000
# 6 0.0000 0.0000 0.0000 7.1866 0.0000 20.6338
#
#
#
# Elastic Compliance Matrix: (Units=1/GPa)
#
#
# Indices 1 2 3 4 5 6 
#
# 1 0.040166 0.002450 -0.007797 0.000000 -0.015478 0.000000
# 2 0.002450 0.016147 -0.005326 0.000000 -0.005186 0.000000
# 3 -0.007797 -0.005326 0.011950 0.000000 0.002935 0.000000
# 4 0.000000 0.000000 0.000000 0.036950 0.000000 -0.012869
# 5 -0.015478 -0.005186 0.002935 0.000000 0.036615 0.000000
# 6 0.000000 0.000000 0.000000 -0.012869 0.000000 0.052946
#
#
# Mechanical properties :
#
#
# Convention : Reuss Voigt Hill
#
# Bulk Modulus (GPa) = 21.31398 38.78081 30.04740
# Shear Modulus (GPa) = 21.57406 27.45528 24.51467
#
# Velocity S-wave (km/s) = 3.17975 3.58707 3.38954
# Velocity P-wave (km/s) = 4.84459 5.94399 5.42223
#
# Compressibility (1/GPa) = 0.04691755
#
# Stress axis : x y z
#
# Youngs Moduli (GPa) = 24.89651 61.92947 83.68152
#
# Poissons Ratio (x) = -0.15170 0.65243
# Poissons Ratio (y) = -0.06099 0.44570
# Poissons Ratio (z) = 0.19411 0.32985
#
# Static dielectric constant tensor:
#      x y z
#    x 1.795890 0.000000 0.035990 
#    y 0.000000 1.792870 0.000000 
#    z 0.035990 0.000000 1.780700 
# 
# From -- ./inp_files/130913.got.cif
#   From: 2010.05.17/outbox.cif.g08.bks.cpg/sg15_66_cif.got.tgz:130913.got - 2010.06.03 18:47:42.
