data_PCOD9304449
_publ_section_title
;
Structure prediction by ZEFSAII (Michael W. Deem and Ramdas Pophale) SiO2 
 PCOD9304449
Probable space group: C 2/C
;
_chemical_formula_sum "Si O2"
_cell_formula_units_Z 36
_cell_length_a 15.399289
_cell_length_b 5.105393
_cell_length_c 21.377737
_cell_angle_alpha 90.000000
_cell_angle_beta 125.215897
_cell_angle_gamma 90.000000
_cell_volume 1373.110933
_symmetry_space_group_name_H-M "C 2/C"
_symmetry_group_IT_number 15
_symmetry_cell_setting 'monoclinic'
loop_
_space_group_symop_operation_xyz
x,y,z
-x,y,1/2-z
-x,-y,-z
x,-y,1/2+z
1/2+x,1/2+y,z
1/2-x,1/2+y,1/2-z
1/2-x,1/2-y,-z
1/2+x,1/2-y,1/2+z
loop_
_atom_site_type_symbol
_atom_site_label
_atom_site_fract_x
_atom_site_fract_y
_atom_site_fract_z
Si Si1 0.026867 0.439563 0.613081
Si Si2 0.266115 0.226209 0.362400
Si Si3 0.113779 0.129705 0.026786
Si Si4 0.250000 0.750000 0.000000
Si Si5 0.558386 0.426709 0.708336
O O1 0.130620 0.445460 0.612601
O O2 0.011716 0.699942 0.645403
O O3 0.924909 0.387132 0.527255
O O4 0.048114 0.200344 0.668607
O O5 0.307750 0.528765 0.384619
O O6 0.225899 0.160943 0.415113
O O7 0.177233 0.167146 0.274760
O O8 0.172734 0.976065 0.995643
O O9 0.000000 0.000000 0.000000
O O10 0.500000 0.444697 0.750000
#
# Coordination Sequence:
#
# PCOD9304449 Si02
#       5
#     8   8   8   4   8
#     4  11  23  44  68  97 136 179 230 291 351 419
#     4   9  20  40  68  98 133 183 230 284 350 423
#     4   8  17  37  65  97 133 179 231 285 347 421
#     4   8  16  34  70  92 142 170 240 276 354 412
#     4  12  25  42  67  98 137 177 229 289 357 420
#
# _framework density 26.217838
#
# number of rings (size 3 to 8) (size 9 to 14) (size 15 to 20)
#    1.333    0.889    0.000    3.333    0.000    0.000 
#    0.000   13.333    0.000    0.000    0.000    0.000 
#    0.000    0.000    0.000    0.000    0.000    0.000 
#
# Total GULP energy -100232.143335 kJ/mol
# GULP energy per Si atom -5568.452407 kJ/mol
# Density = 2.615817 g / cm^3
# Si number density = 26.217838 Si / 1000 Ang^3
#
#
#
# Elastic Constant Matrix: (Units=GPa)
#
#
# Indices 1 2 3 4 5 6 
#
# 1 104.6698 14.6078 29.6880 0.0000 -24.0313 0.0000
# 2 14.6078 80.7633 42.9968 -0.0001 -9.6105 -0.0003
# 3 29.6880 42.9968 147.1242 0.0000 7.5724 0.0000
# 4 0.0000 -0.0001 0.0000 52.5085 0.0000 3.3311
# 5 -24.0313 -9.6105 7.5724 0.0000 60.4511 0.0000
# 6 0.0000 -0.0003 0.0000 3.3311 0.0000 12.8115
#
#
#
# Elastic Compliance Matrix: (Units=1/GPa)
#
#
# Indices 1 2 3 4 5 6 
#
# 1 0.011391 -0.000156 -0.002501 0.000000 0.004817 0.000000
# 2 -0.000156 0.015184 -0.004556 0.000000 0.002923 0.000000
# 3 -0.002501 -0.004556 0.008778 0.000000 -0.002818 0.000000
# 4 0.000000 0.000000 0.000000 0.019364 0.000000 -0.005035
# 5 0.004817 0.002923 -0.002818 0.000000 0.019275 0.000000
# 6 0.000000 0.000000 0.000000 -0.005035 0.000000 0.079364
#
#
# Mechanical properties :
#
#
# Convention : Reuss Voigt Hill
#
# Bulk Modulus (GPa) = 47.78593 56.34918 52.06755
# Shear Modulus (GPa) = 28.61113 41.50519 35.05816
#
# Velocity S-wave (km/s) = 3.30704 3.98312 3.66072
# Velocity P-wave (km/s) = 5.73133 6.53399 6.14578
#
# Compressibility (1/GPa) = 0.02092666
#
# Stress axis : x y z
#
# Youngs Moduli (GPa) = 87.78997 65.86072 113.91727
#
# Poissons Ratio (x) = 0.01025 0.28490
# Poissons Ratio (y) = 0.01366 0.51905
# Poissons Ratio (z) = 0.21956 0.30009
#
# Static dielectric constant tensor:
#      x y z
#    x 2.183200 0.000000 -0.018270 
#    y 0.000000 2.194620 0.000000 
#    z -0.018270 0.000000 2.086690 
# 
# From -- ./inp_files/271776.got.cif
#   From: 2010.05.17/outbox.cif.g08.bks.cpg/sg15_136_cif.got.tgz:271776.got - 2010.06.03 18:47:42.
