data_PCOD9304661
_publ_section_title
;
Structure prediction by ZEFSAII (Michael W. Deem and Ramdas Pophale) SiO2 
 PCOD9304661
Probable space group: C 2/C
;
_chemical_formula_sum "Si O2"
_cell_formula_units_Z 40
_cell_length_a 26.654722
_cell_length_b 5.653487
_cell_length_c 18.010174
_cell_angle_alpha 90.000000
_cell_angle_beta 141.561968
_cell_angle_gamma 90.000000
_cell_volume 1687.201176
_symmetry_space_group_name_H-M "C 2/C"
_symmetry_group_IT_number 15
_symmetry_cell_setting 'monoclinic'
loop_
_space_group_symop_operation_xyz
x,y,z
-x,y,1/2-z
-x,-y,-z
x,-y,1/2+z
1/2+x,1/2+y,z
1/2-x,1/2+y,1/2-z
1/2-x,1/2-y,-z
1/2+x,1/2-y,1/2+z
loop_
_atom_site_type_symbol
_atom_site_label
_atom_site_fract_x
_atom_site_fract_y
_atom_site_fract_z
Si Si1 0.798349 0.495178 0.053750
Si Si2 0.332334 0.338879 0.886044
Si Si3 0.049030 0.797778 0.011892
Si Si4 0.057130 0.479920 0.886996
Si Si5 0.161571 0.516418 0.236852
O O1 0.858333 0.458658 0.054831
O O2 0.847734 0.492409 0.187186
O O3 0.750000 0.250000 0.000000
O O4 0.750000 0.750000 0.000000
O O5 0.363342 0.600930 0.910045
O O6 0.245366 0.337216 0.823664
O O7 0.325070 0.215169 0.797744
O O8 0.407628 0.225750 0.018684
O O9 0.078434 0.614718 0.107769
O O10 0.022105 0.679239 0.902811
O O11 0.000000 0.000000 0.000000
O O12 0.000000 0.420412 0.750000
#
# Coordination Sequence:
#
# PCOD9304661 Si02
#       5
#     8   8   8   8   8
#     4  12  28  47  76 113 152 202 261 322 395 465
#     4  11  23  45  73 102 143 195 255 317 387 462
#     4  11  27  46  75 107 147 206 260 322 392 477
#     4  11  28  48  69 109 157 199 255 333 396 471
#     4  11  24  42  76 106 143 196 258 322 383 473
#
# _framework density 23.707903999999999
#
# number of rings (size 3 to 8) (size 9 to 14) (size 15 to 20)
#    0.000    0.800    4.000    1.200   11.200    2.400 
#    0.000    0.000    0.000    0.000    0.000    0.000 
#    0.000    0.000    0.000    0.000    0.000    0.000 
#
# Total GULP energy -111478.640899 kJ/mol
# GULP energy per Si atom -5573.932045 kJ/mol
# Density = 2.365394 g / cm^3
# Si number density = 23.707904 Si / 1000 Ang^3
#
#
#
# Elastic Constant Matrix: (Units=GPa)
#
#
# Indices 1 2 3 4 5 6 
#
# 1 133.7916 40.0459 34.9296 -0.0002 -9.5794 -0.0001
# 2 40.0459 68.8529 46.6081 -0.0003 0.1454 -0.0006
# 3 34.9296 46.6081 162.5205 0.0000 -19.2681 -0.0002
# 4 -0.0002 -0.0003 0.0000 10.7388 0.0000 8.2335
# 5 -9.5794 0.1454 -19.2681 0.0000 56.4028 -0.0001
# 6 -0.0001 -0.0006 -0.0002 8.2335 -0.0001 45.0870
#
#
#
# Elastic Compliance Matrix: (Units=1/GPa)
#
#
# Indices 1 2 3 4 5 6 
#
# 1 0.009201 -0.005129 -0.000333 0.000000 0.001462 0.000000
# 2 -0.005129 0.021077 -0.005265 0.000000 -0.002724 0.000000
# 3 -0.000333 -0.005265 0.008056 0.000000 0.002709 0.000000
# 4 0.000000 0.000000 0.000000 0.108280 0.000000 -0.019773
# 5 0.001462 -0.002724 0.002709 0.000000 0.018910 0.000000
# 6 0.000000 0.000000 0.000000 -0.019773 0.000000 0.025790
#
#
# Mechanical properties :
#
#
# Convention : Reuss Voigt Hill
#
# Bulk Modulus (GPa) = 59.24556 67.59247 63.41901
# Shear Modulus (GPa) = 22.89424 38.68449 30.78936
#
# Velocity S-wave (km/s) = 3.11091 4.04383 3.60765
# Velocity P-wave (km/s) = 6.16017 7.09759 6.64543
#
# Compressibility (1/GPa) = 0.01687890
#
# Stress axis : x y z
#
# Youngs Moduli (GPa) = 108.68132 47.44600 124.13446
#
# Poissons Ratio (x) = 0.24335 0.04137
# Poissons Ratio (y) = 0.55743 0.65357
# Poissons Ratio (z) = 0.03622 0.24980
#
# Static dielectric constant tensor:
#      x y z
#    x 2.081980 -0.000010 0.092720 
#    y -0.000010 2.163470 -0.000010 
#    z 0.092720 -0.000010 2.001490 
# 
# From -- ./inp_files/223531.got.cif
#   From: 2010.05.17/outbox.cif.g08.bks.cpg/sg15_112_cif.got.tgz:223531.got - 2010.06.03 18:47:42.
