data_PCOD9304933
_publ_section_title
;
Structure prediction by ZEFSAII (Michael W. Deem and Ramdas Pophale) SiO2 
 PCOD9304933
Probable space group: C 2/C
;
_chemical_formula_sum "Si O2"
_cell_formula_units_Z 44
_cell_length_a 16.091699
_cell_length_b 32.222446
_cell_length_c 5.523573
_cell_angle_alpha 90.000000
_cell_angle_beta 59.431824
_cell_angle_gamma 90.000000
_cell_volume 2466.017074
_symmetry_space_group_name_H-M "C 2/C"
_symmetry_group_IT_number 15
_symmetry_cell_setting 'monoclinic'
loop_
_space_group_symop_operation_xyz
x,y,z
-x,y,1/2-z
-x,-y,-z
x,-y,1/2+z
1/2+x,1/2+y,z
1/2-x,1/2+y,1/2-z
1/2-x,1/2-y,-z
1/2+x,1/2-y,1/2+z
loop_
_atom_site_type_symbol
_atom_site_label
_atom_site_fract_x
_atom_site_fract_y
_atom_site_fract_z
Si Si1 0.616818 0.021157 0.577360
Si Si2 0.608284 0.762161 0.480851
Si Si3 0.884420 0.619233 0.910971
Si Si4 0.500000 0.262146 0.750000
Si Si5 0.297606 0.155305 0.537186
Si Si6 0.404391 0.322463 0.279704
O O1 0.500000 0.016728 0.750000
O O2 0.637264 0.070024 0.550365
O O3 0.651549 0.000351 0.274935
O O4 0.500000 0.769752 0.750000
O O5 0.583982 0.766275 0.234910
O O6 0.680659 0.795508 0.472329
O O7 0.633447 0.713716 0.481019
O O8 0.842031 0.636363 0.718746
O O9 0.000000 0.624899 0.750000
O O10 0.843354 0.638789 0.220049
O O11 0.553926 0.293109 0.490920
O O12 0.182640 0.149982 0.682359
O O13 0.500000 0.343426 0.250000
#
# Coordination Sequence:
#
# PCOD9304933 Si02
#       6
#     8   8   8   4   8   8
#     4   9  17  33  57  76 105 147 175 197 241 312
#     4   9  19  33  51  73 101 142 189 224 270 326
#     4  11  24  37  52  86 118 141 175 213 262 327
#     4   8  18  34  54  68  98 136 200 232 266 312
#     4  12  24  34  56  78 113 147 173 228 288 311
#     4   9  21  37  53  73  99 142 201 238 261 317
#
# _framework density 17.842537
#
# number of rings (size 3 to 8) (size 9 to 14) (size 15 to 20)
#    0.000    2.545    0.000    3.273   11.455    3.636 
#    0.000    0.000    0.000    0.000    0.000    0.000 
#    0.000   14.545    0.000    0.000    0.000    0.000 
#
# Total GULP energy -122469.492181 kJ/mol
# GULP energy per Si atom -5566.795099 kJ/mol
# Density = 1.780193 g / cm^3
# Si number density = 17.842537 Si / 1000 Ang^3
#
#
#
# Elastic Constant Matrix: (Units=GPa)
#
#
# Indices 1 2 3 4 5 6 
#
# 1 141.9859 41.5509 51.1998 0.0000 9.5835 0.0000
# 2 41.5509 49.1485 26.5212 0.0000 10.8864 0.0000
# 3 51.1998 26.5212 72.2459 0.0000 24.2585 0.0000
# 4 0.0000 0.0000 0.0000 -2.0679 0.0000 15.1486
# 5 9.5835 10.8864 24.2585 0.0000 28.5836 0.0000
# 6 0.0000 0.0000 0.0000 15.1486 0.0000 8.9528
#
#
#
# Elastic Compliance Matrix: (Units=1/GPa)
#
#
# Indices 1 2 3 4 5 6 
#
# 1 0.011262 -0.006746 -0.007132 0.000000 0.004846 0.000000
# 2 -0.006746 0.029538 -0.004258 0.000000 -0.005374 0.000000
# 3 -0.007132 -0.004258 0.026728 0.000000 -0.018671 0.000000
# 4 0.000000 0.000000 0.000000 -0.036101 0.000000 0.061085
# 5 0.004846 -0.005374 -0.018671 0.000000 0.051253 0.000000
# 6 0.000000 0.000000 0.000000 0.061085 0.000000 0.008338
#
#
# Mechanical properties :
#
#
# Convention : Reuss Voigt Hill
#
# Bulk Modulus (GPa) = 31.99339 55.76932 43.88135
# Shear Modulus (GPa) = 36.30877 16.70094 26.50486
#
# Velocity S-wave (km/s) = 4.51594 3.06276 3.85838
# Velocity P-wave (km/s) = 6.72023 6.62054 6.67057
#
# Compressibility (1/GPa) = 0.03125646
#
# Stress axis : x y z
#
# Youngs Moduli (GPa) = 88.79662 33.85522 37.41358
#
# Poissons Ratio (x) = 0.22838 0.26683
# Poissons Ratio (y) = 0.59900 0.15930
# Poissons Ratio (z) = 0.63329 0.14415
#
# Static dielectric constant tensor:
#      x y z
#    x 1.707620 0.000000 0.100160 
#    y 0.000000 1.597910 0.000000 
#    z 0.100160 0.000000 1.732200 
# 
# From -- ./inp_files/8603.got.cif
#   From: 2010.05.17/outbox.cif.g08.bks.cpg/sg15_5_cif.got.tgz:8603.got - 2010.06.03 18:47:42.
