data_PCOD9304192
_publ_section_title
;
Structure prediction by ZEFSAII (Michael W. Deem and Ramdas Pophale) SiO2 
 PCOD9304192
Probable space group: C 2/C
;
_chemical_formula_sum "Si O2"
_cell_formula_units_Z 60
_cell_length_a 23.028606
_cell_length_b 8.720456
_cell_length_c 19.277754
_cell_angle_alpha 90.000000
_cell_angle_beta 138.171338
_cell_angle_gamma 90.000000
_cell_volume 2581.828871
_symmetry_space_group_name_H-M "C 2/C"
_symmetry_group_IT_number 15
_symmetry_cell_setting 'monoclinic'
loop_
_space_group_symop_operation_xyz
x,y,z
-x,y,1/2-z
-x,-y,-z
x,-y,1/2+z
1/2+x,1/2+y,z
1/2-x,1/2+y,1/2-z
1/2-x,1/2-y,-z
1/2+x,1/2-y,1/2+z
loop_
_atom_site_type_symbol
_atom_site_label
_atom_site_fract_x
_atom_site_fract_y
_atom_site_fract_z
Si Si1 0.364634 0.942722 0.884273
Si Si2 0.132136 0.376404 0.904154
Si Si3 0.727658 0.454460 0.360774
Si Si4 0.402940 0.569754 0.545079
Si Si5 0.213267 0.610803 0.328630
Si Si6 0.469867 0.249805 0.975662
Si Si7 0.500000 0.109932 0.750000
Si Si8 0.943422 0.140521 0.298219
O O1 0.328848 0.965703 0.775125
O O2 0.285052 0.929856 0.866242
O O3 0.419149 0.094724 0.952474
O O4 0.429909 0.799711 0.942955
O O5 0.103265 0.212346 0.907470
O O6 0.150487 0.377825 0.838895
O O7 0.058036 0.501875 0.850590
O O8 0.220640 0.422667 0.022182
O O9 0.729894 0.289724 0.324553
O O10 0.631709 0.518649 0.284538
O O11 0.304373 0.536874 0.433452
O O12 0.453437 0.628936 0.521462
O O13 0.460940 0.433807 0.626384
O O14 0.436424 0.308114 0.871933
O O15 0.560657 0.215323 0.756309
#
# Coordination Sequence:
#
# PCOD9304192 Si02
#       8
#     8   8   8   8   8   8   4   8
#     4  11  23  42  72  99 142 184 231 286 348 427
#     4  11  26  49  72  99 139 192 233 280 353 441
#     4  11  24  45  71 102 138 179 242 286 350 419
#     4  11  24  47  73  99 141 179 239 285 351 417
#     4  11  24  43  72 103 133 189 233 285 350 420
#     4  11  23  45  68 103 139 184 231 283 356 415
#     4  12  30  46  68 104 140 184 232 284 370 410
#     4  12  28  44  70 107 142 176 233 305 349 404
#
# _framework density 23.239341
#
# number of rings (size 3 to 8) (size 9 to 14) (size 15 to 20)
#    0.000    0.800    2.667    5.200    9.333    1.600 
#    4.800    0.000    0.000    0.000    0.000    0.000 
#    0.000    0.000    0.000    0.000    0.000    0.000 
#
# Total GULP energy -168110.322530 kJ/mol
# GULP energy per Si atom -5603.677418 kJ/mol
# Density = 2.318645 g / cm^3
# Si number density = 23.239341 Si / 1000 Ang^3
#
#
#
# Elastic Constant Matrix: (Units=GPa)
#
#
# Indices 1 2 3 4 5 6 
#
# 1 73.7654 -0.5082 -5.1970 0.0000 -8.8378 0.0000
# 2 -0.5082 29.3713 26.0912 0.0000 0.0820 0.0000
# 3 -5.1970 26.0912 69.9196 0.0000 8.1752 0.0000
# 4 0.0000 0.0000 0.0000 28.7495 0.0000 -3.6191
# 5 -8.8378 0.0820 8.1752 0.0000 40.8230 0.0000
# 6 0.0000 0.0000 0.0000 -3.6191 0.0000 24.2208
#
#
#
# Elastic Compliance Matrix: (Units=1/GPa)
#
#
# Indices 1 2 3 4 5 6 
#
# 1 0.013958 -0.000588 0.000925 0.000000 0.002838 0.000000
# 2 -0.000588 0.051534 -0.019709 0.000000 0.003716 0.000000
# 3 0.000925 -0.019709 0.022218 0.000000 -0.004209 0.000000
# 4 0.000000 0.000000 0.000000 0.035450 0.000000 0.005297
# 5 0.002838 0.003716 -0.004209 0.000000 0.025946 0.000000
# 6 0.000000 0.000000 0.000000 0.005297 0.000000 0.042078
#
#
# Mechanical properties :
#
#
# Convention : Reuss Voigt Hill
#
# Bulk Modulus (GPa) = 20.42250 23.75872 22.09061
# Shear Modulus (GPa) = 20.30470 28.93668 24.62069
#
# Velocity S-wave (km/s) = 2.95908 3.53251 3.25844
# Velocity P-wave (km/s) = 4.52569 5.18496 4.86650
#
# Compressibility (1/GPa) = 0.04896561
#
# Stress axis : x y z
#
# Youngs Moduli (GPa) = 71.64560 19.40472 45.00949
#
# Poissons Ratio (x) = 0.01142 -0.04164
# Poissons Ratio (y) = 0.04215 0.88707
# Poissons Ratio (z) = -0.06628 0.38244
#
# Static dielectric constant tensor:
#      x y z
#    x 1.882760 0.000000 0.019950 
#    y 0.000000 1.861220 0.000000 
#    z 0.019950 0.000000 1.831570 
# 
# From -- ./inp_files/255181.got.cif
#   From: 2010.05.17/outbox.cif.g08.bks.cpg/sg15_128_cif.got.tgz:255181.got - 2010.06.03 18:47:42.
