data_PCOD9304702
_publ_section_title
;
Structure prediction by ZEFSAII (Michael W. Deem and Ramdas Pophale) SiO2 
 PCOD9304702
Probable space group: C 2/C
;
_chemical_formula_sum "Si O2"
_cell_formula_units_Z 32
_cell_length_a 12.278364
_cell_length_b 13.319060
_cell_length_c 8.110330
_cell_angle_alpha 90.000000
_cell_angle_beta 120.746892
_cell_angle_gamma 90.000000
_cell_volume 1139.895946
_symmetry_space_group_name_H-M "C 2/C"
_symmetry_group_IT_number 15
_symmetry_cell_setting 'monoclinic'
loop_
_space_group_symop_operation_xyz
x,y,z
-x,y,1/2-z
-x,-y,-z
x,-y,1/2+z
1/2+x,1/2+y,z
1/2-x,1/2+y,1/2-z
1/2-x,1/2-y,-z
1/2+x,1/2-y,1/2+z
loop_
_atom_site_type_symbol
_atom_site_label
_atom_site_fract_x
_atom_site_fract_y
_atom_site_fract_z
Si Si1 0.036292 0.810001 0.090766
Si Si2 0.594855 0.950252 0.941687
Si Si3 0.779465 0.969008 0.325152
Si Si4 0.283529 0.700524 0.208092
O O1 0.093444 0.909049 0.041886
O O2 0.153077 0.733451 0.192025
O O3 0.000000 0.839867 0.250000
O O4 0.920401 0.768130 0.890428
O O5 0.500000 0.892412 0.750000
O O6 0.673713 0.026475 0.885655
O O7 0.711446 0.904789 0.128842
O O8 0.500000 0.000000 0.000000
O O9 0.793940 0.080972 0.264636
O O10 0.250000 0.750000 0.000000
#
# Coordination Sequence:
#
# PCOD9304702 Si02
#       4
#     8   8   8   8
#     4  12  28  51  79 117 164 221 281 350 429 515
#     4   9  20  37  67 111 155 203 266 335 408 488
#     4  11  23  45  76 113 161 222 276 340 422 509
#     4  12  28  49  78 119 167 218 280 351 426 512
#
# _framework density 28.072735999999999
#
# number of rings (size 3 to 8) (size 9 to 14) (size 15 to 20)
#    0.000    1.000    0.000    5.250    0.000   13.000 
#    0.000    0.000    0.000    0.000    0.000    0.000 
#    0.000    0.000    0.000    0.000    0.000    0.000 
#
# Total GULP energy -89229.997047 kJ/mol
# GULP energy per Si atom -5576.874815 kJ/mol
# Density = 2.800884 g / cm^3
# Si number density = 28.072736 Si / 1000 Ang^3
#
#
#
# Elastic Constant Matrix: (Units=GPa)
#
#
# Indices 1 2 3 4 5 6 
#
# 1 205.1022 74.9763 83.6832 0.0000 6.4395 0.0000
# 2 74.9763 177.1091 13.2761 0.0000 21.7276 0.0000
# 3 83.6832 13.2761 168.6704 0.0000 38.1645 0.0000
# 4 0.0000 0.0000 0.0000 22.1696 0.0000 15.4028
# 5 6.4395 21.7276 38.1645 0.0000 78.3916 0.0000
# 6 0.0000 0.0000 0.0000 15.4028 0.0000 81.5226
#
#
#
# Elastic Compliance Matrix: (Units=1/GPa)
#
#
# Indices 1 2 3 4 5 6 
#
# 1 0.007619 -0.003196 -0.004031 0.000000 0.002223 0.000000
# 2 -0.003196 0.007187 0.001586 0.000000 -0.002502 0.000000
# 3 -0.004031 0.001586 0.008798 0.000000 -0.004391 0.000000
# 4 0.000000 0.000000 0.000000 0.051923 0.000000 -0.009810
# 5 0.002223 -0.002502 -0.004391 0.000000 0.015405 0.000000
# 6 0.000000 0.000000 0.000000 -0.009810 0.000000 0.014120
#
#
# Mechanical properties :
#
#
# Convention : Reuss Voigt Hill
#
# Bulk Modulus (GPa) = 81.16144 99.41700 90.28922
# Shear Modulus (GPa) = 41.51401 61.67982 51.59692
#
# Velocity S-wave (km/s) = 3.84969 4.69245 4.29181
# Velocity P-wave (km/s) = 6.98098 8.05294 7.53604
#
# Compressibility (1/GPa) = 0.01232112
#
# Stress axis : x y z
#
# Youngs Moduli (GPa) = 131.25245 139.13719 113.66691
#
# Poissons Ratio (x) = 0.44466 0.45823
# Poissons Ratio (y) = 0.41946 -0.18026
# Poissons Ratio (z) = 0.52912 -0.22065
#
# Static dielectric constant tensor:
#      x y z
#    x 2.208850 0.000000 -0.016550 
#    y 0.000000 1.821030 0.000000 
#    z -0.016550 0.000000 2.374240 
# 
# From -- ./inp_files/28538.got.cif
#   From: 2010.05.17/outbox.cif.g08.bks.cpg/sg15_15_cif.got.tgz:28538.got - 2010.06.03 18:47:42.
