data_PCOD9304415
_publ_section_title
;
Structure prediction by ZEFSAII (Michael W. Deem and Ramdas Pophale) SiO2 
 PCOD9304415
Probable space group: C 2/C
;
_chemical_formula_sum "Si O2"
_cell_formula_units_Z 40
_cell_length_a 6.234366
_cell_length_b 19.952917
_cell_length_c 20.384227
_cell_angle_alpha 90.000000
_cell_angle_beta 133.743886
_cell_angle_gamma 90.000000
_cell_volume 1831.864593
_symmetry_space_group_name_H-M "C 2/C"
_symmetry_group_IT_number 15
_symmetry_cell_setting 'monoclinic'
loop_
_space_group_symop_operation_xyz
x,y,z
-x,y,1/2-z
-x,-y,-z
x,-y,1/2+z
1/2+x,1/2+y,z
1/2-x,1/2+y,1/2-z
1/2-x,1/2-y,-z
1/2+x,1/2-y,1/2+z
loop_
_atom_site_type_symbol
_atom_site_label
_atom_site_fract_x
_atom_site_fract_y
_atom_site_fract_z
Si Si1 0.834564 0.532624 0.554719
Si Si2 0.705101 0.680121 0.023763
Si Si3 0.150753 0.198510 0.164651
Si Si4 0.260277 0.085655 0.390483
Si Si5 0.106489 0.343360 0.345884
O O1 0.500000 0.500000 0.500000
O O2 0.791263 0.560680 0.472032
O O3 0.973367 0.595379 0.623952
O O4 0.097334 0.477636 0.616860
O O5 0.459377 0.647305 0.926079
O O6 0.750000 0.750000 0.000000
O O7 0.598672 0.687443 0.075928
O O8 0.007687 0.641797 0.081770
O O9 0.500000 0.208198 0.250000
O O10 0.042673 0.129441 0.176943
O O11 0.989342 0.268118 0.151821
O O12 0.000000 0.352303 0.250000
#
# Coordination Sequence:
#
# PCOD9304415 Si02
#       5
#     8   8   8   8   8
#     4  11  23  46  75 106 144 195 245 297 374 458
#     4  12  22  43  76 103 141 191 242 303 371 425
#     4  12  26  45  73 110 146 191 254 308 363 441
#     4  11  23  43  79 101 141 193 244 304 368 437
#     4  12  25  45  73 107 148 192 244 305 369 447
#
# _framework density 21.835674000000001
#
# number of rings (size 3 to 8) (size 9 to 14) (size 15 to 20)
#    0.000    0.400    6.000    3.000    0.000    0.000 
#    0.000    6.000    4.400    0.000    0.000    0.000 
#    0.000    0.000    0.000    0.000    0.000    0.000 
#
# Total GULP energy -111420.351932 kJ/mol
# GULP energy per Si atom -5571.017597 kJ/mol
# Density = 2.178598 g / cm^3
# Si number density = 21.835674 Si / 1000 Ang^3
#
#
#
# Elastic Constant Matrix: (Units=GPa)
#
#
# Indices 1 2 3 4 5 6 
#
# 1 61.2547 21.2286 6.2687 0.0000 5.0292 0.0000
# 2 21.2286 131.6417 -14.0075 0.0000 8.6588 0.0000
# 3 6.2687 -14.0075 72.1160 0.0000 3.3647 0.0000
# 4 0.0000 0.0000 0.0000 21.9036 0.0000 6.0061
# 5 5.0292 8.6588 3.3647 0.0000 22.8123 0.0000
# 6 0.0000 0.0000 0.0000 6.0061 0.0000 34.5963
#
#
#
# Elastic Compliance Matrix: (Units=1/GPa)
#
#
# Indices 1 2 3 4 5 6 
#
# 1 0.017743 -0.002908 -0.001990 0.000000 -0.002515 0.000000
# 2 -0.002908 0.008471 0.002032 0.000000 -0.002874 0.000000
# 3 -0.001990 0.002032 0.014550 0.000000 -0.002479 0.000000
# 4 0.000000 0.000000 0.000000 0.047937 0.000000 -0.008322
# 5 -0.002515 -0.002874 -0.002479 0.000000 0.045847 0.000000
# 6 0.000000 0.000000 0.000000 -0.008322 0.000000 0.030350
#
#
# Mechanical properties :
#
#
# Convention : Reuss Voigt Hill
#
# Bulk Modulus (GPa) = 28.54458 32.44357 30.49407
# Shear Modulus (GPa) = 27.42666 32.63061 30.02864
#
# Velocity S-wave (km/s) = 3.54792 3.86990 3.71241
# Velocity P-wave (km/s) = 5.46667 5.90411 5.68960
#
# Compressibility (1/GPa) = 0.03503292
#
# Stress axis : x y z
#
# Youngs Moduli (GPa) = 56.36024 118.05661 68.72920
#
# Poissons Ratio (x) = 0.34326 0.13675
# Poissons Ratio (y) = 0.16387 -0.13966
# Poissons Ratio (z) = 0.11214 -0.23990
#
# Static dielectric constant tensor:
#      x y z
#    x 1.768600 0.000000 -0.037710 
#    y 0.000000 1.710930 0.000000 
#    z -0.037710 0.000000 1.765530 
# 
# From -- ./inp_files/184611.got.cif
#   From: 2010.05.17/outbox.cif.g08.bks.cpg/sg15_93_cif.got.tgz:184611.got - 2010.06.03 18:47:42.
