data_PCOD9304935
_publ_section_title
;
Structure prediction by ZEFSAII (Michael W. Deem and Ramdas Pophale) SiO2 
 PCOD9304935
Probable space group: C 2/C
;
_chemical_formula_sum "Si O2"
_cell_formula_units_Z 56
_cell_length_a 24.025627
_cell_length_b 19.159165
_cell_length_c 19.190392
_cell_angle_alpha 90.000000
_cell_angle_beta 20.184186
_cell_angle_gamma 90.000000
_cell_volume 3047.919810
_symmetry_space_group_name_H-M "C 2/C"
_symmetry_group_IT_number 15
_symmetry_cell_setting 'monoclinic'
loop_
_space_group_symop_operation_xyz
x,y,z
-x,y,1/2-z
-x,-y,-z
x,-y,1/2+z
1/2+x,1/2+y,z
1/2-x,1/2+y,1/2-z
1/2-x,1/2-y,-z
1/2+x,1/2-y,1/2+z
loop_
_atom_site_type_symbol
_atom_site_label
_atom_site_fract_x
_atom_site_fract_y
_atom_site_fract_z
Si Si1 0.169054 0.593474 0.165043
Si Si2 0.079524 0.217816 0.226030
Si Si3 0.655041 0.343240 0.911543
Si Si4 0.675848 0.400867 0.162752
Si Si5 0.426024 0.986980 0.413975
Si Si6 0.799451 0.666969 0.088890
Si Si7 0.923374 0.286156 0.906773
O O1 0.228931 0.623230 0.167114
O O2 0.065642 0.522999 0.295545
O O3 0.046391 0.651825 0.279640
O O4 0.300865 0.585348 0.947826
O O5 0.148627 0.176357 0.211964
O O6 0.000000 0.182152 0.250000
O O7 0.942142 0.275181 0.408730
O O8 0.250000 0.250000 0.000000
O O9 0.731054 0.332168 0.747147
O O10 0.500160 0.393162 0.099070
O O11 0.604360 0.267622 0.999900
O O12 0.774229 0.460969 0.087323
O O13 0.761119 0.326197 0.076618
O O14 0.500000 0.988139 0.250000
O O15 0.378015 0.908885 0.487052
O O16 0.000000 0.247371 0.750000
#
# Coordination Sequence:
#
# PCOD9304935 Si02
#       7
#     8   8   8   8   8   8   8
#     4   9  19  35  57  82 114 164 204 228 271 347
#     4   9  20  43  64  83 108 139 201 249 287 353
#     4  12  22  30  52  88 129 148 185 243 288 348
#     4   9  19  35  56  80 114 159 201 234 268 343
#     4   9  19  41  61  75 107 156 204 239 288 345
#     4  11  24  37  63  90 114 151 184 251 315 337
#     4   9  18  33  54  78 115 165 200 232 275 336
#
# _framework density 18.373187000000001
#
# number of rings (size 3 to 8) (size 9 to 14) (size 15 to 20)
#    0.000    2.286    0.000    5.143    4.000    3.429 
#    0.000    5.714    0.000    0.000    0.000    0.000 
#    0.000    0.000    0.000    0.000    0.000    0.000 
#
# Total GULP energy -155961.058762 kJ/mol
# GULP energy per Si atom -5570.037813 kJ/mol
# Density = 1.833137 g / cm^3
# Si number density = 18.373187 Si / 1000 Ang^3
#
#
#
# Elastic Constant Matrix: (Units=GPa)
#
#
# Indices 1 2 3 4 5 6 
#
# 1 302.1683 97.4180 -5.2315 -0.0268 2.5276 -0.1288
# 2 97.4180 111.3262 1.7242 -0.0046 -2.2651 -0.0575
# 3 -5.2315 1.7242 100.3459 0.0198 -6.0062 0.0169
# 4 -0.0268 -0.0046 0.0198 4.9521 -0.0068 0.5432
# 5 2.5276 -2.2651 -6.0062 -0.0068 16.7432 -0.0064
# 6 -0.1288 -0.0575 0.0169 0.5432 -0.0064 99.3345
#
#
#
# Elastic Compliance Matrix: (Units=1/GPa)
#
#
# Indices 1 2 3 4 5 6 
#
# 1 0.004642 -0.004089 0.000242 0.000018 -0.001167 0.000003
# 2 -0.004089 0.012611 -0.000297 -0.000006 0.002217 0.000002
# 3 0.000242 -0.000297 0.010198 -0.000035 0.003581 -0.000001
# 4 0.000018 -0.000006 -0.000035 0.202058 0.000065 -0.001105
# 5 -0.001167 0.002217 0.003581 0.000065 0.061487 0.000003
# 6 0.000003 0.000002 -0.000001 -0.001105 0.000003 0.010073
#
#
# Mechanical properties :
#
#
# Convention : Reuss Voigt Hill
#
# Bulk Modulus (GPa) = 52.18691 77.96244 65.07468
# Shear Modulus (GPa) = 15.83565 52.20126 34.01846
#
# Velocity S-wave (km/s) = 2.93898 5.33604 4.30761
# Velocity P-wave (km/s) = 6.32316 8.97158 7.76117
#
# Compressibility (1/GPa) = 0.01916189
#
# Stress axis : x y z
#
# Youngs Moduli (GPa) = 215.43487 79.29714 98.06188
#
# Poissons Ratio (x) = 0.32428 -0.02377
# Poissons Ratio (y) = 0.88099 0.02914
# Poissons Ratio (z) = -0.05222 0.02357
#
# Static dielectric constant tensor:
#      x y z
#    x 1.679440 -0.000010 -0.035240 
#    y -0.000010 1.638670 0.000010 
#    z -0.035240 0.000010 1.659120 
# 
# From -- ./inp_files/220160.got.cif
#   From: 2010.05.17/outbox.cif.g08.bks.cpg/sg15_111_cif.got.tgz:220160.got - 2010.06.03 18:47:42.
