data_PCOD9304354
_publ_section_title
;
Structure prediction by ZEFSAII (Michael W. Deem and Ramdas Pophale) SiO2 
 PCOD9304354
Probable space group: C 2/C
;
_chemical_formula_sum "Si O2"
_cell_formula_units_Z 52
_cell_length_a 11.920677
_cell_length_b 13.932329
_cell_length_c 18.863859
_cell_angle_alpha 90.000000
_cell_angle_beta 129.495539
_cell_angle_gamma 90.000000
_cell_volume 2417.625962
_symmetry_space_group_name_H-M "C 2/C"
_symmetry_group_IT_number 15
_symmetry_cell_setting 'monoclinic'
loop_
_space_group_symop_operation_xyz
x,y,z
-x,y,1/2-z
-x,-y,-z
x,-y,1/2+z
1/2+x,1/2+y,z
1/2-x,1/2+y,1/2-z
1/2-x,1/2-y,-z
1/2+x,1/2-y,1/2+z
loop_
_atom_site_type_symbol
_atom_site_label
_atom_site_fract_x
_atom_site_fract_y
_atom_site_fract_z
Si Si1 0.350576 0.065422 0.599643
Si Si2 0.366845 0.350316 0.139194
Si Si3 0.326823 0.374185 0.768686
Si Si4 0.383684 0.021213 0.892233
Si Si5 0.161434 0.355931 0.842568
Si Si6 0.062089 0.005946 0.443930
Si Si7 0.500000 0.218396 0.750000
O O1 0.202507 0.077521 0.495427
O O2 0.378777 0.148960 0.666666
O O3 0.507556 0.057250 0.625476
O O4 0.309758 0.960312 0.613982
O O5 0.500000 0.353602 0.250000
O O6 0.232067 0.403243 0.123550
O O7 0.334167 0.239342 0.109362
O O8 0.400132 0.406113 0.079765
O O9 0.207427 0.429224 0.672516
O O10 0.255494 0.335123 0.811404
O O11 0.439353 0.452616 0.842695
O O12 0.413500 0.289466 0.766580
O O13 0.500000 0.000000 0.000000
O O14 0.000000 0.366560 0.750000
O O15 0.000000 0.000000 0.500000
#
# Coordination Sequence:
#
# PCOD9304354 Si02
#       7
#     8   8   8   8   8   8   4
#     4  12  25  48  69 103 145 191 241 304 365 426
#     4  11  24  45  75 106 141 189 244 296 364 437
#     4  12  25  48  70 105 146 193 242 299 373 443
#     4  12  24  46  77 104 143 190 245 306 368 435
#     4  11  23  43  72 101 137 188 242 290 358 431
#     4  12  26  46  75 109 150 190 240 307 374 439
#     4  12  28  46  74 100 152 198 246 304 368 442
#
# _framework density 21.508704000000002
#
# number of rings (size 3 to 8) (size 9 to 14) (size 15 to 20)
#    0.000    0.308    6.923    1.846    0.000    3.692 
#    2.769    0.000    0.000    0.000    0.000    0.000 
#    0.000    0.000    0.000    0.000    0.000    0.000 
#
# Total GULP energy -145181.479309 kJ/mol
# GULP energy per Si atom -5583.903050 kJ/mol
# Density = 2.145975 g / cm^3
# Si number density = 21.508704 Si / 1000 Ang^3
#
#
#
# Elastic Constant Matrix: (Units=GPa)
#
#
# Indices 1 2 3 4 5 6 
#
# 1 125.1720 38.0531 23.4718 0.0000 -3.6383 0.0000
# 2 38.0531 88.0022 44.4148 0.0000 -12.1276 0.0000
# 3 23.4718 44.4148 110.1214 0.0000 15.3613 0.0000
# 4 0.0000 0.0000 0.0000 9.5103 0.0000 -8.8211
# 5 -3.6383 -12.1276 15.3613 0.0000 45.3919 0.0000
# 6 0.0000 0.0000 0.0000 -8.8211 0.0000 29.1414
#
#
#
# Elastic Compliance Matrix: (Units=1/GPa)
#
#
# Indices 1 2 3 4 5 6 
#
# 1 0.009216 -0.003794 -0.000415 0.000000 -0.000134 0.000000
# 2 -0.003794 0.017607 -0.007248 0.000000 0.006853 0.000000
# 3 -0.000415 -0.007248 0.012980 0.000000 -0.006363 0.000000
# 4 0.000000 0.000000 0.000000 0.146197 0.000000 0.044254
# 5 -0.000134 0.006853 -0.006363 0.000000 0.026004 0.000000
# 6 0.000000 0.000000 0.000000 0.044254 0.000000 0.047711
#
#
# Mechanical properties :
#
#
# Convention : Reuss Voigt Hill
#
# Bulk Modulus (GPa) = 59.21524 59.46391 59.33958
# Shear Modulus (GPa) = 17.34544 31.29912 24.32228
#
# Velocity S-wave (km/s) = 2.84287 3.81883 3.36640
# Velocity P-wave (km/s) = 6.19407 6.86666 6.53902
#
# Compressibility (1/GPa) = 0.01688754
#
# Stress axis : x y z
#
# Youngs Moduli (GPa) = 108.50170 56.79652 77.03871
#
# Poissons Ratio (x) = 0.21549 0.03200
# Poissons Ratio (y) = 0.41167 0.55841
# Poissons Ratio (z) = 0.04507 0.41169
#
# Static dielectric constant tensor:
#      x y z
#    x 1.894040 0.000000 0.008160 
#    y 0.000000 1.810230 0.000000 
#    z 0.008160 0.000000 1.861520 
# 
# From -- ./inp_files/198002.got.cif
#   From: 2010.05.17/outbox.cif.g08.bks.cpg/sg15_100_cif.got.tgz:198002.got - 2010.06.03 18:47:42.
