data_PCOD9304040
_publ_section_title
;
Structure prediction by ZEFSAII (Michael W. Deem and Ramdas Pophale) SiO2 
 PCOD9304040
Probable space group: C 2/C
;
_chemical_formula_sum "Si O2"
_cell_formula_units_Z 40
_cell_length_a 15.815092
_cell_length_b 9.623570
_cell_length_c 18.250940
_cell_angle_alpha 90.000000
_cell_angle_beta 36.003305
_cell_angle_gamma 90.000000
_cell_volume 1632.850160
_symmetry_space_group_name_H-M "C 2/C"
_symmetry_group_IT_number 15
_symmetry_cell_setting 'monoclinic'
loop_
_space_group_symop_operation_xyz
x,y,z
-x,y,1/2-z
-x,-y,-z
x,-y,1/2+z
1/2+x,1/2+y,z
1/2-x,1/2+y,1/2-z
1/2-x,1/2-y,-z
1/2+x,1/2-y,1/2+z
loop_
_atom_site_type_symbol
_atom_site_label
_atom_site_fract_x
_atom_site_fract_y
_atom_site_fract_z
Si Si1 0.142387 0.968413 0.946201
Si Si2 0.054601 0.363655 0.005433
Si Si3 0.872079 0.464492 0.390207
Si Si4 0.250080 0.718032 0.238322
Si Si5 0.981846 0.217259 0.842537
O O1 0.227431 0.061117 0.945020
O O2 0.250653 0.929191 0.804713
O O3 0.108747 0.841855 0.025861
O O4 0.000000 0.000000 0.000000
O O5 0.911671 0.273563 0.122996
O O6 0.128132 0.402356 0.029657
O O7 0.000000 0.500000 0.000000
O O8 0.170276 0.292025 0.871001
O O9 0.915371 0.629073 0.372999
O O10 0.000000 0.407888 0.250000
O O11 0.142468 0.799956 0.261433
O O12 0.000000 0.148270 0.750000
#
# Coordination Sequence:
#
# PCOD9304040 Si02
#       5
#     8   8   8   8   8
#     4  12  26  44  70 107 144 189 247 308 359 438
#     4  12  26  45  77 106 152 193 242 301 381 431
#     4  11  23  45  71 103 143 189 243 304 368 428
#     4  12  25  44  72 110 144 192 240 309 366 441
#     4  11  23  41  76 105 140 180 251 305 364 421
#
# _framework density 24.497043000000001
#
# number of rings (size 3 to 8) (size 9 to 14) (size 15 to 20)
#    0.000    0.400    8.000    0.600    8.400    0.000 
#    0.000    4.000    0.000    0.000    0.000    0.000 
#    0.000    0.000    0.000    0.000    0.000    0.000 
#
# Total GULP energy -111678.875681 kJ/mol
# GULP energy per Si atom -5583.943784 kJ/mol
# Density = 2.444129 g / cm^3
# Si number density = 24.497043 Si / 1000 Ang^3
#
#
#
# Elastic Constant Matrix: (Units=GPa)
#
#
# Indices 1 2 3 4 5 6 
#
# 1 265.1557 41.9330 105.8778 0.0000 33.5969 0.0000
# 2 41.9330 47.2994 30.2976 0.0000 11.2377 0.0000
# 3 105.8778 30.2976 170.9908 0.0000 21.7992 0.0000
# 4 0.0000 0.0000 0.0000 27.3190 0.0000 11.9603
# 5 33.5969 11.2377 21.7992 0.0000 43.8311 0.0000
# 6 0.0000 0.0000 0.0000 11.9603 0.0000 29.1503
#
#
#
# Elastic Compliance Matrix: (Units=1/GPa)
#
#
# Indices 1 2 3 4 5 6 
#
# 1 0.005545 -0.002671 -0.002675 0.000000 -0.002235 0.000000
# 2 -0.002671 0.025914 -0.002511 0.000000 -0.003348 0.000000
# 3 -0.002675 -0.002511 0.008121 0.000000 -0.001345 0.000000
# 4 0.000000 0.000000 0.000000 0.044620 0.000000 -0.018307
# 5 -0.002235 -0.003348 -0.001345 0.000000 0.026055 0.000000
# 6 0.000000 0.000000 0.000000 -0.018307 0.000000 0.041816
#
#
# Mechanical properties :
#
#
# Convention : Reuss Voigt Hill
#
# Bulk Modulus (GPa) = 41.90193 93.29584 67.59888
# Shear Modulus (GPa) = 28.45090 40.41591 34.43341
#
# Velocity S-wave (km/s) = 3.41163 4.06621 3.75322
# Velocity P-wave (km/s) = 5.71498 7.75968 6.81446
#
# Compressibility (1/GPa) = 0.02386525
#
# Stress axis : x y z
#
# Youngs Moduli (GPa) = 180.33191 38.58947 123.13515
#
# Poissons Ratio (x) = 0.10309 0.32943
# Poissons Ratio (y) = 0.48175 0.30915
# Poissons Ratio (z) = 0.48246 0.09689
#
# Static dielectric constant tensor:
#      x y z
#    x 1.901390 0.000000 -0.068490 
#    y 0.000000 2.169950 0.000000 
#    z -0.068490 0.000000 1.984440 
# 
# From -- ./inp_files/122756.got.cif
#   From: 2010.05.17/outbox.cif.g08.bks.cpg/sg15_62_cif.got.tgz:122756.got - 2010.06.03 18:47:42.
