data_PCOD9304074
_publ_section_title
;
Structure prediction by ZEFSAII (Michael W. Deem and Ramdas Pophale) SiO2 
 PCOD9304074
Probable space group: C 2/C
;
_chemical_formula_sum "Si O2"
_cell_formula_units_Z 40
_cell_length_a 18.509786
_cell_length_b 10.571250
_cell_length_c 19.083515
_cell_angle_alpha 90.000000
_cell_angle_beta 149.652914
_cell_angle_gamma 90.000000
_cell_volume 1886.606198
_symmetry_space_group_name_H-M "C 2/C"
_symmetry_group_IT_number 15
_symmetry_cell_setting 'monoclinic'
loop_
_space_group_symop_operation_xyz
x,y,z
-x,y,1/2-z
-x,-y,-z
x,-y,1/2+z
1/2+x,1/2+y,z
1/2-x,1/2+y,1/2-z
1/2-x,1/2-y,-z
1/2+x,1/2-y,1/2+z
loop_
_atom_site_type_symbol
_atom_site_label
_atom_site_fract_x
_atom_site_fract_y
_atom_site_fract_z
Si Si1 0.134202 0.824090 0.114702
Si Si2 0.799316 0.114810 0.344159
Si Si3 0.500000 0.468380 0.750000
Si Si4 0.800355 0.245422 0.123062
Si Si5 0.500000 0.049572 0.750000
Si Si6 0.243816 0.885919 0.528236
O O1 0.204452 0.716273 0.222392
O O2 0.174025 0.774914 0.070074
O O3 0.197973 0.967030 0.178400
O O4 0.964265 0.838721 0.980655
O O5 0.747136 0.116216 0.380713
O O6 0.608512 0.382200 0.795552
O O7 0.402732 0.549000 0.617206
O O8 0.914872 0.357359 0.229781
O O9 0.750000 0.250000 0.000000
O O10 0.379073 0.965157 0.613710
O O11 0.250000 0.750000 0.500000
#
# Coordination Sequence:
#
# PCOD9304074 Si02
#       6
#     8   8   4   8   4   8
#     4  11  27  46  71 102 148 188 233 296 353 427
#     4  11  28  48  69 104 147 189 235 291 360 425
#     4  11  25  42  76 106 135 183 242 292 352 407
#     4  11  23  43  76 104 134 182 239 297 342 412
#     4  11  23  42  66 100 137 169 242 286 340 405
#     4  12  27  45  71 102 143 184 234 290 352 423
#
# _framework density 21.202093000000001
#
# number of rings (size 3 to 8) (size 9 to 14) (size 15 to 20)
#    0.000    0.800    4.000    0.600   16.800    0.800 
#    0.000    0.000    0.000    0.000    0.000    0.000 
#    0.000    0.000    0.000    0.000    0.000    0.000 
#
# Total GULP energy -111799.853019 kJ/mol
# GULP energy per Si atom -5589.992651 kJ/mol
# Density = 2.115384 g / cm^3
# Si number density = 21.202093 Si / 1000 Ang^3
#
#
#
# Elastic Constant Matrix: (Units=GPa)
#
#
# Indices 1 2 3 4 5 6 
#
# 1 84.8334 35.1258 32.7137 0.0000 -1.6962 0.0000
# 2 35.1258 153.6235 67.2765 0.0000 -9.2462 0.0000
# 3 32.7137 67.2765 115.7891 0.0000 -4.9068 0.0000
# 4 0.0000 0.0000 0.0000 47.6794 0.0000 -1.7048
# 5 -1.6962 -9.2462 -4.9068 0.0000 30.7207 0.0000
# 6 0.0000 0.0000 0.0000 -1.7048 0.0000 -3.1807
#
#
#
# Elastic Compliance Matrix: (Units=1/GPa)
#
#
# Indices 1 2 3 4 5 6 
#
# 1 0.013641 -0.001935 -0.002741 0.000000 -0.000267 0.000000
# 2 -0.001935 0.009109 -0.004666 0.000000 0.001889 0.000000
# 3 -0.002741 -0.004666 0.012138 0.000000 0.000383 0.000000
# 4 0.000000 0.000000 0.000000 0.020579 0.000000 -0.011030
# 5 -0.000267 0.001889 0.000383 0.000000 0.033166 0.000000
# 6 0.000000 0.000000 0.000000 -0.011030 0.000000 -0.308483
#
#
# Mechanical properties :
#
#
# Convention : Reuss Voigt Hill
#
# Bulk Modulus (GPa) = 61.71169 69.38645 65.54907
# Shear Modulus (GPa) = -25.54068 29.65255 2.05594
#
# Velocity S-wave (km/s) = -3.47454 3.74380 0.98579
# Velocity P-wave (km/s) = 3.61566 7.17533 5.68148
#
# Compressibility (1/GPa) = 0.01620438
#
# Stress axis : x y z
#
# Youngs Moduli (GPa) = 73.31102 109.78436 82.38571
#
# Poissons Ratio (x) = 0.21238 0.22583
# Poissons Ratio (y) = 0.14182 0.38440
# Poissons Ratio (z) = 0.20096 0.51223
#
# Static dielectric constant tensor:
#      x y z
#    x 1.743570 0.000000 -0.016200 
#    y 0.000000 1.799600 0.000000 
#    z -0.016200 0.000000 1.748930 
# 
# From -- ./inp_files/210847.got.cif
#   From: 2010.05.17/outbox.cif.g08.bks.cpg/sg15_106_cif.got.tgz:210847.got - 2010.06.03 18:47:42.
