data_PCOD9304928
_publ_section_title
;
Structure prediction by ZEFSAII (Michael W. Deem and Ramdas Pophale) SiO2 
 PCOD9304928
Probable space group: C 2/C
;
_chemical_formula_sum "Si O2"
_cell_formula_units_Z 48
_cell_length_a 20.303608
_cell_length_b 25.018710
_cell_length_c 5.347441
_cell_angle_alpha 90.000000
_cell_angle_beta 119.436874
_cell_angle_gamma 90.000000
_cell_volume 2365.654285
_symmetry_space_group_name_H-M "C 2/C"
_symmetry_group_IT_number 15
_symmetry_cell_setting 'monoclinic'
loop_
_space_group_symop_operation_xyz
x,y,z
-x,y,1/2-z
-x,-y,-z
x,-y,1/2+z
1/2+x,1/2+y,z
1/2-x,1/2+y,1/2-z
1/2-x,1/2-y,-z
1/2+x,1/2-y,1/2+z
loop_
_atom_site_type_symbol
_atom_site_label
_atom_site_fract_x
_atom_site_fract_y
_atom_site_fract_z
Si Si1 0.715764 0.981131 0.577397
Si Si2 0.710541 0.308047 0.422528
Si Si3 0.436251 0.957359 0.781063
Si Si4 0.276188 0.858547 0.043714
Si Si5 0.049539 0.239828 0.596733
Si Si6 0.415841 0.852560 0.003509
O O1 0.630614 0.006617 0.462824
O O2 0.719015 0.922299 0.470082
O O3 0.750844 0.016174 0.418438
O O4 0.750000 0.250000 0.500000
O O5 0.727730 0.335835 0.720218
O O6 0.621559 0.298727 0.219585
O O7 0.745871 0.339585 0.253172
O O8 0.500000 0.923217 0.750000
O O9 0.393145 0.909172 0.840470
O O10 0.500000 0.000000 0.000000
O O11 0.360881 0.839525 0.131870
O O12 0.081605 0.300673 0.664401
O O13 0.000000 0.229948 0.750000
O O14 0.000000 0.236597 0.250000
O O15 0.500000 0.862917 0.250000
#
# Coordination Sequence:
#
# PCOD9304928 Si02
#       6
#     8   8   8   8   8   8
#     4  12  24  39  58  85 126 171 213 270 302 374
#     4  12  26  44  68  92 129 170 216 280 338 380
#     4  12  21  34  52  82 127 181 226 260 303 352
#     4  12  25  42  64  92 128 175 226 265 328 382
#     4  11  25  44  66  94 127 165 222 274 320 386
#     4  11  24  36  58  91 128 186 227 269 304 367
#
# _framework density 20.290368999999998
#
# number of rings (size 3 to 8) (size 9 to 14) (size 15 to 20)
#    0.000    0.333    5.000    4.500    4.667    0.000 
#    0.000    0.000    0.000    0.000    0.000    0.000 
#    0.000   46.667    0.000    0.000    0.000    0.000 
#
# Total GULP energy -133926.285377 kJ/mol
# GULP energy per Si atom -5580.261891 kJ/mol
# Density = 2.024419 g / cm^3
# Si number density = 20.290369 Si / 1000 Ang^3
#
#
#
# Elastic Constant Matrix: (Units=GPa)
#
#
# Indices 1 2 3 4 5 6 
#
# 1 106.6133 32.4329 31.6325 0.0000 -14.4409 0.0000
# 2 32.4329 78.5937 25.0873 0.0000 3.2201 0.0000
# 3 31.6325 25.0873 98.1492 0.0000 -10.4942 0.0000
# 4 0.0000 0.0000 0.0000 32.7099 0.0000 -4.3822
# 5 -14.4409 3.2201 -10.4942 0.0000 39.7472 0.0000
# 6 0.0000 0.0000 0.0000 -4.3822 0.0000 31.8837
#
#
#
# Elastic Compliance Matrix: (Units=1/GPa)
#
#
# Indices 1 2 3 4 5 6 
#
# 1 0.011942 -0.004362 -0.002297 0.000000 0.004086 0.000000
# 2 -0.004362 0.015623 -0.002976 0.000000 -0.003636 0.000000
# 3 -0.002297 -0.002976 0.011964 0.000000 0.002565 0.000000
# 4 0.000000 0.000000 0.000000 0.031145 0.000000 0.004281
# 5 0.004086 -0.003636 0.002565 0.000000 0.027615 0.000000
# 6 0.000000 0.000000 0.000000 0.004281 0.000000 0.031952
#
#
# Mechanical properties :
#
#
# Convention : Reuss Voigt Hill
#
# Bulk Modulus (GPa) = 49.36341 51.29572 50.32956
# Shear Modulus (GPa) = 31.99716 33.81506 32.90611
#
# Velocity S-wave (km/s) = 3.97541 4.08678 4.03148
# Velocity P-wave (km/s) = 6.74189 6.89962 6.82121
#
# Compressibility (1/GPa) = 0.02025792
#
# Stress axis : x y z
#
# Youngs Moduli (GPa) = 83.74106 64.00928 83.58526
#
# Poissons Ratio (x) = 0.27922 0.19198
# Poissons Ratio (y) = 0.36529 0.24876
# Poissons Ratio (z) = 0.19234 0.19050
#
# Static dielectric constant tensor:
#      x y z
#    x 1.944160 0.000000 -0.245150 
#    y 0.000000 1.761220 0.000000 
#    z -0.245150 0.000000 1.987140 
# 
# From -- ./inp_files/10925.got.cif
#   From: 2010.05.17/outbox.cif.g08.bks.cpg/sg15_6_cif.got.tgz:10925.got - 2010.06.03 18:47:42.
