data_PCOD9304791
_publ_section_title
;
Structure prediction by ZEFSAII (Michael W. Deem and Ramdas Pophale) SiO2 
 PCOD9304791
Probable space group: C 2/C
;
_chemical_formula_sum "Si O2"
_cell_formula_units_Z 52
_cell_length_a 5.777830
_cell_length_b 19.504220
_cell_length_c 20.020545
_cell_angle_alpha 90.000000
_cell_angle_beta 96.394636
_cell_angle_gamma 90.000000
_cell_volume 2242.119592
_symmetry_space_group_name_H-M "C 2/C"
_symmetry_group_IT_number 15
_symmetry_cell_setting 'monoclinic'
loop_
_space_group_symop_operation_xyz
x,y,z
-x,y,1/2-z
-x,-y,-z
x,-y,1/2+z
1/2+x,1/2+y,z
1/2-x,1/2+y,1/2-z
1/2-x,1/2-y,-z
1/2+x,1/2-y,1/2+z
loop_
_atom_site_type_symbol
_atom_site_label
_atom_site_fract_x
_atom_site_fract_y
_atom_site_fract_z
Si Si1 0.134963 0.815743 0.956536
Si Si2 0.500000 0.123849 0.250000
Si Si3 0.814602 0.161464 0.568730
Si Si4 0.607845 0.068661 0.976501
Si Si5 0.000000 0.046356 0.250000
Si Si6 0.500000 0.159121 0.750000
Si Si7 0.150230 0.066831 0.652376
Si Si8 0.704235 0.728147 0.157120
O O1 0.040876 0.799869 0.879812
O O2 0.250000 0.750000 0.000000
O O3 0.285821 0.884755 0.961707
O O4 0.931323 0.839851 0.000645
O O5 0.257574 0.084047 0.264569
O O6 0.384017 0.173260 0.190755
O O7 0.571959 0.123158 0.559804
O O8 0.803545 0.238383 0.593255
O O9 0.959253 0.123007 0.629573
O O10 0.765948 0.047021 0.919030
O O11 0.500000 0.000000 0.000000
O O12 0.044876 0.996698 0.188483
O O13 0.343256 0.107752 0.700919
O O14 0.352742 0.211920 0.791608
#
# Coordination Sequence:
#
# PCOD9304791 Si02
#       8
#     8   4   8   8   4   4   8   8
#     4  11  24  46  75 114 150 201 262 333 406 480
#     4  12  31  49  74 119 165 220 260 330 414 494
#     4  11  23  46  75 109 143 197 260 326 400 476
#     4  11  26  48  75 112 151 203 264 333 409 476
#     4  12  29  53  74 117 165 218 272 332 416 491
#     4  12  22  48  80 118 148 210 268 334 396 489
#     4  11  25  47  80 108 153 206 270 329 402 495
#     4  12  24  47  75 112 156 199 263 326 406 482
#
# _framework density 23.192342
#
# number of rings (size 3 to 8) (size 9 to 14) (size 15 to 20)
#    0.000    0.615    3.077    4.154    2.154    6.154 
#    2.769    0.000    0.000    0.000    0.000    0.000 
#    0.000    0.000    0.000    0.000    0.000    0.000 
#
# Total GULP energy -145163.923548 kJ/mol
# GULP energy per Si atom -5583.227829 kJ/mol
# Density = 2.313955 g / cm^3
# Si number density = 23.192342 Si / 1000 Ang^3
#
#
#
# Elastic Constant Matrix: (Units=GPa)
#
#
# Indices 1 2 3 4 5 6 
#
# 1 88.6318 56.5397 26.1513 0.0000 5.8255 0.0000
# 2 56.5397 145.3216 48.4969 0.0000 9.8588 0.0000
# 3 26.1513 48.4969 71.4758 0.0000 20.4451 0.0000
# 4 0.0000 0.0000 0.0000 55.6512 0.0000 16.1915
# 5 5.8255 9.8588 20.4451 0.0000 36.3721 0.0000
# 6 0.0000 0.0000 0.0000 16.1915 0.0000 67.5719
#
#
#
# Elastic Compliance Matrix: (Units=1/GPa)
#
#
# Indices 1 2 3 4 5 6 
#
# 1 0.015227 -0.005250 -0.002048 0.000000 0.000135 0.000000
# 2 -0.005250 0.010748 -0.005694 0.000000 0.001128 0.000000
# 3 -0.002048 -0.005694 0.021530 0.000000 -0.010231 0.000000
# 4 0.000000 0.000000 0.000000 0.019316 0.000000 -0.004628
# 5 0.000135 0.001128 -0.010231 0.000000 0.032917 0.000000
# 6 0.000000 0.000000 0.000000 -0.004628 0.000000 0.015908
#
#
# Mechanical properties :
#
#
# Convention : Reuss Voigt Hill
#
# Bulk Modulus (GPa) = 46.46714 63.08946 54.77830
# Shear Modulus (GPa) = 33.60144 43.53513 38.56829
#
# Velocity S-wave (km/s) = 3.81046 4.33729 4.08238
# Velocity P-wave (km/s) = 6.28001 7.23495 6.77433
#
# Compressibility (1/GPa) = 0.02152058
#
# Stress axis : x y z
#
# Youngs Moduli (GPa) = 65.67249 93.04321 46.44682
#
# Poissons Ratio (x) = 0.48849 0.09511
# Poissons Ratio (y) = 0.34479 0.26448
# Poissons Ratio (z) = 0.13447 0.52981
#
# Static dielectric constant tensor:
#      x y z
#    x 2.066150 0.000000 0.053390 
#    y 0.000000 1.864980 0.000000 
#    z 0.053390 0.000000 1.864420 
# 
# From -- ./inp_files/227605.got.cif
#   From: 2010.05.17/outbox.cif.g08.bks.cpg/sg15_114_cif.got.tgz:227605.got - 2010.06.03 18:47:42.
