data_PCOD9304144
_publ_section_title
;
Structure prediction by ZEFSAII (Michael W. Deem and Ramdas Pophale) SiO2 
 PCOD9304144
Probable space group: C 2/C
;
_chemical_formula_sum "Si O2"
_cell_formula_units_Z 36
_cell_length_a 16.614044
_cell_length_b 10.073604
_cell_length_c 13.121866
_cell_angle_alpha 90.000000
_cell_angle_beta 36.107985
_cell_angle_gamma 90.000000
_cell_volume 1294.192477
_symmetry_space_group_name_H-M "C 2/C"
_symmetry_group_IT_number 15
_symmetry_cell_setting 'monoclinic'
loop_
_space_group_symop_operation_xyz
x,y,z
-x,y,1/2-z
-x,-y,-z
x,-y,1/2+z
1/2+x,1/2+y,z
1/2-x,1/2+y,1/2-z
1/2-x,1/2-y,-z
1/2+x,1/2-y,1/2+z
loop_
_atom_site_type_symbol
_atom_site_label
_atom_site_fract_x
_atom_site_fract_y
_atom_site_fract_z
Si Si1 0.231092 0.565414 0.320317
Si Si2 0.096620 0.207593 0.509951
Si Si3 0.000000 0.555195 0.250000
Si Si4 0.854036 0.198782 0.607235
Si Si5 0.205237 0.959674 0.519833
O O1 0.090286 0.640221 0.473107
O O2 0.256301 0.435631 0.234267
O O3 0.311891 0.564092 0.342287
O O4 0.278636 0.698258 0.201708
O O5 0.065182 0.344956 0.597682
O O6 0.140226 0.100441 0.550173
O O7 0.970271 0.162904 0.572237
O O8 0.868393 0.479646 0.344392
O O9 0.856866 0.155379 0.484391
#
# Coordination Sequence:
#
# PCOD9304144 Si02
#       5
#     8   8   4   8   8
#     4  11  23  43  67 101 139 178 228 284 341 406
#     4  11  23  42  69  97 135 185 230 274 339 420
#     4  12  24  44  70 102 140 182 228 286 342 406
#     4  11  24  42  68  98 134 181 230 283 341 406
#     4  11  24  42  66 101 136 180 231 285 341 403
#
# _framework density 27.816573999999999
#
# number of rings (size 3 to 8) (size 9 to 14) (size 15 to 20)
#    0.000    0.889    0.000    9.333    0.000    4.444 
#    0.000   10.000    0.000    0.000    0.000    0.000 
#    0.000    0.000    0.000    0.000    0.000    0.000 
#
# Total GULP energy -100455.442220 kJ/mol
# GULP energy per Si atom -5580.857901 kJ/mol
# Density = 2.775326 g / cm^3
# Si number density = 27.816574 Si / 1000 Ang^3
#
#
#
# Elastic Constant Matrix: (Units=GPa)
#
#
# Indices 1 2 3 4 5 6 
#
# 1 157.2940 7.9735 31.3629 0.0000 3.3588 0.0000
# 2 7.9735 141.2915 -2.0110 0.0000 -5.4066 0.0000
# 3 31.3629 -2.0110 112.3533 0.0000 -7.4932 0.0000
# 4 0.0000 0.0000 0.0000 20.2039 0.0000 -0.0020
# 5 3.3588 -5.4066 -7.4932 0.0000 63.3236 0.0000
# 6 0.0000 0.0000 0.0000 -0.0020 0.0000 48.4458
#
#
#
# Elastic Compliance Matrix: (Units=1/GPa)
#
#
# Indices 1 2 3 4 5 6 
#
# 1 0.006780 -0.000434 -0.001942 0.000000 -0.000627 0.000000
# 2 -0.000434 0.007132 0.000293 0.000000 0.000667 0.000000
# 3 -0.001942 0.000293 0.009532 0.000000 0.001256 0.000000
# 4 0.000000 0.000000 0.000000 0.049495 0.000000 0.000002
# 5 -0.000627 0.000667 0.001256 0.000000 0.016031 0.000000
# 6 0.000000 0.000000 0.000000 0.000002 0.000000 0.020642
#
#
# Mechanical properties :
#
#
# Convention : Reuss Voigt Hill
#
# Bulk Modulus (GPa) = 51.87435 53.95439 52.91437
# Shear Modulus (GPa) = 41.59620 51.30222 46.44921
#
# Velocity S-wave (km/s) = 3.87120 4.29919 4.09080
# Velocity P-wave (km/s) = 6.21859 6.63948 6.43248
#
# Compressibility (1/GPa) = 0.01927735
#
# Stress axis : x y z
#
# Youngs Moduli (GPa) = 147.48895 140.21789 104.91340
#
# Poissons Ratio (x) = 0.06089 0.20376
# Poissons Ratio (y) = 0.06405 -0.03077
# Poissons Ratio (z) = 0.28645 -0.04113
#
# Static dielectric constant tensor:
#      x y z
#    x 2.113200 0.000000 0.196150 
#    y 0.000000 2.275820 0.000000 
#    z 0.196150 0.000000 2.454730 
# 
# From -- ./inp_files/152400.got.cif
#   From: 2010.05.17/outbox.cif.g08.bks.cpg/sg15_77_cif.got.tgz:152400.got - 2010.06.03 18:47:42.
