data_PCOD9304292
_publ_section_title
;
Structure prediction by ZEFSAII (Michael W. Deem and Ramdas Pophale) SiO2 
 PCOD9304292
Probable space group: C 2/C
;
_chemical_formula_sum "Si O2"
_cell_formula_units_Z 32
_cell_length_a 13.136813
_cell_length_b 6.866171
_cell_length_c 19.953297
_cell_angle_alpha 90.000000
_cell_angle_beta 143.616693
_cell_angle_gamma 90.000000
_cell_volume 1067.601044
_symmetry_space_group_name_H-M "C 2/C"
_symmetry_group_IT_number 15
_symmetry_cell_setting 'monoclinic'
loop_
_space_group_symop_operation_xyz
x,y,z
-x,y,1/2-z
-x,-y,-z
x,-y,1/2+z
1/2+x,1/2+y,z
1/2-x,1/2+y,1/2-z
1/2-x,1/2-y,-z
1/2+x,1/2-y,1/2+z
loop_
_atom_site_type_symbol
_atom_site_label
_atom_site_fract_x
_atom_site_fract_y
_atom_site_fract_z
Si Si1 0.305926 0.676329 0.905976
Si Si2 0.588522 0.169963 0.455869
Si Si3 0.064329 0.290966 0.163674
Si Si4 0.808469 0.230549 0.672575
O O1 0.454332 0.705857 0.928318
O O2 0.139022 0.769568 0.775861
O O3 0.245210 0.450631 0.876069
O O4 0.407113 0.704776 0.033029
O O5 0.750000 0.250000 0.500000
O O6 0.691912 0.069992 0.571390
O O7 0.495589 0.013336 0.361694
O O8 0.231364 0.292116 0.204959
O O9 0.000000 0.196072 0.750000
#
# Coordination Sequence:
#
# PCOD9304292 Si02
#       4
#     8   8   8   8
#     4  11  23  43  69 101 139 180 229 284 342 408
#     4  11  23  43  70 100 136 182 231 285 344 407
#     4  11  23  43  72 102 136 182 230 282 343 409
#     4  11  23  43  68  99 140 182 227 285 344 408
#
# _framework density 29.973746999999999
#
# number of rings (size 3 to 8) (size 9 to 14) (size 15 to 20)
#    0.000    1.000    0.000   10.500    0.000    0.000 
#    0.000   23.750    0.000    3.000    0.000    0.000 
#    0.000    0.000    0.000    0.000    0.000    0.000 
#
# Total GULP energy -89110.042598 kJ/mol
# GULP energy per Si atom -5569.377662 kJ/mol
# Density = 2.990553 g / cm^3
# Si number density = 29.973747 Si / 1000 Ang^3
#
#
#
# Elastic Constant Matrix: (Units=GPa)
#
#
# Indices 1 2 3 4 5 6 
#
# 1 205.7535 53.6617 74.0300 0.0000 53.9556 0.0000
# 2 53.6617 58.5598 68.1168 0.0000 20.8933 0.0000
# 3 74.0300 68.1168 314.7403 0.0000 -35.6395 0.0000
# 4 0.0000 0.0000 0.0000 31.0394 0.0000 -28.3052
# 5 53.9556 20.8933 -35.6395 0.0000 73.2429 0.0000
# 6 0.0000 0.0000 0.0000 -28.3052 0.0000 -14.8305
#
#
#
# Elastic Compliance Matrix: (Units=1/GPa)
#
#
# Indices 1 2 3 4 5 6 
#
# 1 0.007826 -0.002904 -0.001874 0.000000 -0.005849 0.000000
# 2 -0.002904 0.032334 -0.007532 0.000000 -0.010749 0.000000
# 3 -0.001874 -0.007532 0.005977 0.000000 0.006438 0.000000
# 4 0.000000 0.000000 0.000000 0.011756 0.000000 -0.022437
# 5 -0.005849 -0.010749 0.006438 0.000000 0.024161 0.000000
# 6 0.000000 0.000000 0.000000 -0.022437 0.000000 -0.024605
#
#
# Mechanical properties :
#
#
# Convention : Reuss Voigt Hill
#
# Bulk Modulus (GPa) = 46.47698 107.85230 77.16464
# Shear Modulus (GPa) = 56.02751 43.44003 49.73377
#
# Velocity S-wave (km/s) = 4.32814 3.81106 4.07780
# Velocity P-wave (km/s) = 6.36526 7.44486 6.92613
#
# Compressibility (1/GPa) = 0.02151603
#
# Stress axis : x y z
#
# Youngs Moduli (GPa) = 127.78369 30.92710 167.30310
#
# Poissons Ratio (x) = 0.08982 0.31360
# Poissons Ratio (y) = 0.37110 1.26012
# Poissons Ratio (z) = 0.23952 0.23294
#
# Static dielectric constant tensor:
#      x y z
#    x 2.257440 0.000000 -0.212270 
#    y 0.000000 2.474970 0.000000 
#    z -0.212270 0.000000 2.668680 
# 
# From -- ./inp_files/272986.got.cif
#   From: 2010.05.17/outbox.cif.g08.bks.cpg/sg15_137_cif.got.tgz:272986.got - 2010.06.03 18:47:42.
