data_PCOD9304276
_publ_section_title
;
Structure prediction by ZEFSAII (Michael W. Deem and Ramdas Pophale) SiO2 
 PCOD9304276
Probable space group: C 2/C
;
_chemical_formula_sum "Si O2"
_cell_formula_units_Z 56
_cell_length_a 14.507370
_cell_length_b 18.662060
_cell_length_c 9.005555
_cell_angle_alpha 90.000000
_cell_angle_beta 99.233565
_cell_angle_gamma 90.000000
_cell_volume 2406.548263
_symmetry_space_group_name_H-M "C 2/C"
_symmetry_group_IT_number 15
_symmetry_cell_setting 'monoclinic'
loop_
_space_group_symop_operation_xyz
x,y,z
-x,y,1/2-z
-x,-y,-z
x,-y,1/2+z
1/2+x,1/2+y,z
1/2-x,1/2+y,1/2-z
1/2-x,1/2-y,-z
1/2+x,1/2-y,1/2+z
loop_
_atom_site_type_symbol
_atom_site_label
_atom_site_fract_x
_atom_site_fract_y
_atom_site_fract_z
Si Si1 0.893129 0.117679 0.666054
Si Si2 0.350605 0.213234 0.649522
Si Si3 0.432787 0.533543 0.107441
Si Si4 0.903691 0.436606 0.310106
Si Si5 0.893738 0.420962 0.663136
Si Si6 0.722251 0.311602 0.608231
Si Si7 0.843634 0.172136 0.954702
O O1 0.874870 0.032490 0.661176
O O2 0.859052 0.143688 0.497398
O O3 0.842127 0.164585 0.776912
O O4 0.000000 0.124497 0.750000
O O5 0.383126 0.143695 0.747208
O O6 0.320478 0.273289 0.759917
O O7 0.264053 0.182145 0.534227
O O8 0.402960 0.261726 0.538439
O O9 0.500000 0.563890 0.250000
O O10 0.500000 0.500000 0.000000
O O11 0.376247 0.596881 0.023050
O O12 0.903859 0.435836 0.488385
O O13 0.852368 0.508036 0.235990
O O14 0.000000 0.450896 0.250000
O O15 0.814694 0.359552 0.660744
O O16 0.000000 0.402110 0.750000
O O17 0.750000 0.250000 0.500000
#
# Coordination Sequence:
#
# PCOD9304276 Si02
#       7
#     8   8   8   8   8   8   8
#     4  11  24  44  71 102 141 188 234 287 351 430
#     4  11  27  46  66 104 144 185 237 292 352 428
#     4  11  23  43  68 104 139 180 239 287 352 432
#     4  11  24  46  71 105 139 179 242 295 355 423
#     4  11  25  47  77 105 139 188 242 294 355 417
#     4  12  25  49  70 104 143 183 238 290 355 425
#     4  11  24  44  65  97 146 183 234 287 351 418
#
# _framework density 23.269842000000001
#
# number of rings (size 3 to 8) (size 9 to 14) (size 15 to 20)
#    0.000    0.857    5.714    1.714    4.000    6.857 
#    0.000    0.000    0.000    0.000    0.000    0.000 
#    0.000    0.000    0.000    0.000    0.000    0.000 
#
# Total GULP energy -156189.851124 kJ/mol
# GULP energy per Si atom -5578.208969 kJ/mol
# Density = 2.321688 g / cm^3
# Si number density = 23.269842 Si / 1000 Ang^3
#
#
#
# Elastic Constant Matrix: (Units=GPa)
#
#
# Indices 1 2 3 4 5 6 
#
# 1 42.4906 39.8244 14.2136 0.0000 12.7205 0.0000
# 2 39.8244 156.6464 62.3547 0.0000 17.9355 0.0000
# 3 14.2136 62.3547 133.5983 0.0000 12.9175 0.0000
# 4 0.0000 0.0000 0.0000 53.9377 0.0000 7.6500
# 5 12.7205 17.9355 12.9175 0.0000 33.0713 0.0000
# 6 0.0000 0.0000 0.0000 7.6500 0.0000 50.0289
#
#
#
# Elastic Compliance Matrix: (Units=1/GPa)
#
#
# Indices 1 2 3 4 5 6 
#
# 1 0.033194 -0.007806 0.000974 0.000000 -0.008915 0.000000
# 2 -0.007806 0.009960 -0.003727 0.000000 -0.000943 0.000000
# 3 0.000974 -0.003727 0.009314 0.000000 -0.001991 0.000000
# 4 0.000000 0.000000 0.000000 0.018951 0.000000 -0.002898
# 5 -0.008915 -0.000943 -0.001991 0.000000 0.034956 0.000000
# 6 0.000000 0.000000 0.000000 -0.002898 0.000000 0.020432
#
#
# Mechanical properties :
#
#
# Convention : Reuss Voigt Hill
#
# Bulk Modulus (GPa) = 31.89894 62.83565 47.36730
# Shear Modulus (GPa) = 31.57102 41.83041 36.70071
#
# Velocity S-wave (km/s) = 3.68738 4.24444 3.97568
# Velocity P-wave (km/s) = 5.64510 7.14717 6.44007
#
# Compressibility (1/GPa) = 0.03134900
#
# Stress axis : x y z
#
# Youngs Moduli (GPa) = 30.12622 100.40344 107.37079
#
# Poissons Ratio (x) = 0.78372 -0.10454
# Poissons Ratio (y) = 0.23516 0.40016
# Poissons Ratio (z) = -0.02933 0.37419
#
# Static dielectric constant tensor:
#      x y z
#    x 2.025470 0.000000 0.013540 
#    y 0.000000 2.138010 0.000000 
#    z 0.013540 0.000000 1.934460 
# 
# From -- ./inp_files/49152.got.cif
#   From: 2010.05.17/outbox.cif.g08.bks.cpg/sg15_25_cif.got.tgz:49152.got - 2010.06.03 18:47:42.
