data_PCOD9304629
_publ_section_title
;
Structure prediction by ZEFSAII (Michael W. Deem and Ramdas Pophale) SiO2 
 PCOD9304629
Probable space group: C 2/C
;
_chemical_formula_sum "Si O2"
_cell_formula_units_Z 52
_cell_length_a 29.474608
_cell_length_b 5.519847
_cell_length_c 13.971077
_cell_angle_alpha 90.000000
_cell_angle_beta 121.216691
_cell_angle_gamma 90.000000
_cell_volume 1943.924612
_symmetry_space_group_name_H-M "C 2/C"
_symmetry_group_IT_number 15
_symmetry_cell_setting 'monoclinic'
loop_
_space_group_symop_operation_xyz
x,y,z
-x,y,1/2-z
-x,-y,-z
x,-y,1/2+z
1/2+x,1/2+y,z
1/2-x,1/2+y,1/2-z
1/2-x,1/2-y,-z
1/2+x,1/2-y,1/2+z
loop_
_atom_site_type_symbol
_atom_site_label
_atom_site_fract_x
_atom_site_fract_y
_atom_site_fract_z
Si Si1 0.694536 0.101188 0.279116
Si Si2 0.811021 0.076959 0.922572
Si Si3 0.000000 0.237472 0.750000
Si Si4 0.637263 0.077966 0.886483
Si Si5 0.450865 0.088275 0.549060
Si Si6 0.118229 0.773639 0.610170
Si Si7 0.447733 0.611411 0.316673
O O1 0.756382 0.068809 0.367099
O O2 0.664225 0.128390 0.348863
O O3 0.669786 0.845552 0.214384
O O4 0.688954 0.278446 0.180677
O O5 0.860412 0.892018 0.963678
O O6 0.816904 0.244128 0.022863
O O7 0.013639 0.398517 0.854199
O O8 0.047065 0.072211 0.764898
O O9 0.591385 0.187113 0.768794
O O10 0.602795 0.083677 0.946975
O O11 0.427838 0.933704 0.436722
O O12 0.491630 0.311945 0.591336
O O13 0.086913 0.984343 0.632970
#
# Coordination Sequence:
#
# PCOD9304629 Si02
#       7
#     8   8   4   8   8   8   8
#     4  11  25  45  71  99 140 177 231 295 344 414
#     4  12  24  49  69 104 138 178 240 285 354 416
#     4  12  22  38  66  90 138 178 226 272 348 402
#     4  11  23  45  70  98 138 182 225 288 346 412
#     4  12  23  43  64 100 138 180 227 286 342 412
#     4  11  26  41  71  97 136 185 226 288 353 410
#     4  11  24  44  63 101 137 181 233 283 336 422
#
# _framework density 26.750007
#
# number of rings (size 3 to 8) (size 9 to 14) (size 15 to 20)
#    0.000    0.615    6.154    1.846    2.154    0.615 
#    0.000    1.538    0.000    0.000    0.000    0.000 
#    0.000    0.000    0.000    0.000    0.000    0.000 
#
# Total GULP energy -144963.987246 kJ/mol
# GULP energy per Si atom -5575.537971 kJ/mol
# Density = 2.668912 g / cm^3
# Si number density = 26.750007 Si / 1000 Ang^3
#
#
#
# Elastic Constant Matrix: (Units=GPa)
#
#
# Indices 1 2 3 4 5 6 
#
# 1 121.3561 16.1596 5.4564 0.0000 4.5959 0.0000
# 2 16.1596 31.3875 1.1185 0.0000 12.3151 -0.0001
# 3 5.4564 1.1185 101.9485 0.0000 24.7982 0.0000
# 4 0.0000 0.0000 0.0000 25.6607 0.0000 -11.9482
# 5 4.5959 12.3151 24.7982 0.0000 34.9643 0.0000
# 6 0.0000 -0.0001 0.0000 -11.9482 0.0000 26.5144
#
#
#
# Elastic Compliance Matrix: (Units=1/GPa)
#
#
# Indices 1 2 3 4 5 6 
#
# 1 0.008893 -0.004972 -0.000680 0.000000 0.001065 0.000000
# 2 -0.004972 0.040713 0.003805 0.000000 -0.016385 0.000000
# 3 -0.000680 0.003805 0.012215 0.000000 -0.009914 0.000000
# 4 0.000000 0.000000 0.000000 0.049318 0.000000 0.022224
# 5 0.001065 -0.016385 -0.009914 0.000000 0.041263 0.000000
# 6 0.000000 0.000000 0.000000 0.022224 0.000000 0.047730
#
#
# Mechanical properties :
#
#
# Convention : Reuss Voigt Hill
#
# Bulk Modulus (GPa) = 17.20411 33.35124 25.27768
# Shear Modulus (GPa) = 22.40123 32.89171 27.64647
#
# Velocity S-wave (km/s) = 2.89698 3.51036 3.21832
# Velocity P-wave (km/s) = 4.19945 5.37820 4.82496
#
# Compressibility (1/GPa) = 0.05812563
#
# Stress axis : x y z
#
# Youngs Moduli (GPa) = 112.45421 24.56244 81.86589
#
# Poissons Ratio (x) = 0.12212 0.05570
# Poissons Ratio (y) = 0.55910 -0.31149
# Poissons Ratio (z) = 0.07651 -0.09346
#
# Static dielectric constant tensor:
#      x y z
#    x 2.181640 0.000000 -0.147230 
#    y 0.000000 2.276000 0.000000 
#    z -0.147230 0.000000 2.183050 
# 
# From -- ./inp_files/180175.got.cif
#   From: 2010.05.17/outbox.cif.g08.bks.cpg/sg15_91_cif.got.tgz:180175.got - 2010.06.03 18:47:42.
