data_PCOD9304833
_publ_section_title
;
Structure prediction by ZEFSAII (Michael W. Deem and Ramdas Pophale) SiO2 
 PCOD9304833
Probable space group: C 2/C
;
_chemical_formula_sum "Si O2"
_cell_formula_units_Z 60
_cell_length_a 31.480727
_cell_length_b 9.190968
_cell_length_c 8.372736
_cell_angle_alpha 90.000000
_cell_angle_beta 66.784280
_cell_angle_gamma 90.000000
_cell_volume 2226.392754
_symmetry_space_group_name_H-M "C 2/C"
_symmetry_group_IT_number 15
_symmetry_cell_setting 'monoclinic'
loop_
_space_group_symop_operation_xyz
x,y,z
-x,y,1/2-z
-x,-y,-z
x,-y,1/2+z
1/2+x,1/2+y,z
1/2-x,1/2+y,1/2-z
1/2-x,1/2-y,-z
1/2+x,1/2-y,1/2+z
loop_
_atom_site_type_symbol
_atom_site_label
_atom_site_fract_x
_atom_site_fract_y
_atom_site_fract_z
Si Si1 0.528615 0.699571 0.046203
Si Si2 0.750000 0.250000 0.000000
Si Si3 0.774474 0.337510 0.317848
Si Si4 0.830069 0.623204 0.269561
Si Si5 0.361139 0.359732 0.658007
Si Si6 0.432026 0.963380 0.684025
Si Si7 0.871257 0.139533 0.508765
Si Si8 0.048121 0.271672 0.545639
O O1 0.500000 0.675454 0.250000
O O2 0.494991 0.672478 0.943786
O O3 0.545402 0.866167 0.990378
O O4 0.578962 0.626970 0.978639
O O5 0.750909 0.191808 0.810723
O O6 0.786250 0.489880 0.826227
O O7 0.750000 0.250000 0.500000
O O8 0.824760 0.267650 0.228046
O O9 0.659461 0.492632 0.380861
O O10 0.807188 0.743028 0.416141
O O11 0.876559 0.553268 0.269317
O O12 0.848028 0.705431 0.085120
O O13 0.405521 0.316198 0.490182
O O14 0.378032 0.382542 0.813148
O O15 0.443454 0.128284 0.624705
O O16 0.452486 0.885794 0.808839
#
# Coordination Sequence:
#
# PCOD9304833 Si02
#       8
#     8   4   8   8   8   8   8   8
#     4  11  23  47  71 110 155 209 262 332 388 477
#     4  12  30  48  82 120 162 202 272 326 400 494
#     4  12  30  53  86 125 162 212 268 337 412 487
#     4  11  28  52  83 117 162 210 262 330 403 487
#     4  12  28  51  79 112 161 214 267 331 408 478
#     4  11  25  43  77 114 155 203 263 324 404 471
#     4  11  29  51  78 114 162 213 270 331 401 486
#     4  12  24  44  76 113 157 206 266 328 399 476
#
# _framework density 26.949422999999999
#
# number of rings (size 3 to 8) (size 9 to 14) (size 15 to 20)
#    0.000    0.533    2.667    3.200   13.067    0.533 
#    0.000    0.000    0.000    0.000    0.000    0.000 
#    0.000    0.000    0.000    0.000    0.000    0.000 
#
# Total GULP energy -167447.916007 kJ/mol
# GULP energy per Si atom -5581.597200 kJ/mol
# Density = 2.688809 g / cm^3
# Si number density = 26.949423 Si / 1000 Ang^3
#
#
#
# Elastic Constant Matrix: (Units=GPa)
#
#
# Indices 1 2 3 4 5 6 
#
# 1 113.2992 -16.2352 20.6354 0.0000 -10.2554 0.0000
# 2 -16.2352 53.6943 8.4071 0.0000 8.2062 0.0000
# 3 20.6354 8.4071 119.5819 0.0000 16.8147 0.0000
# 4 0.0000 0.0000 0.0000 26.2628 0.0000 -3.1989
# 5 -10.2554 8.2062 16.8147 0.0000 54.1679 0.0000
# 6 0.0000 0.0000 0.0000 -3.1989 0.0000 39.7863
#
#
#
# Elastic Compliance Matrix: (Units=1/GPa)
#
#
# Indices 1 2 3 4 5 6 
#
# 1 0.009848 0.003003 -0.002205 0.000000 0.002094 0.000000
# 2 0.003003 0.020091 -0.001655 0.000000 -0.001961 0.000000
# 3 -0.002205 -0.001655 0.009288 0.000000 -0.003050 0.000000
# 4 0.000000 0.000000 0.000000 0.038453 0.000000 0.003092
# 5 0.002094 -0.001961 -0.003050 0.000000 0.020101 0.000000
# 6 0.000000 0.000000 0.000000 0.003092 0.000000 0.025383
#
#
# Mechanical properties :
#
#
# Convention : Reuss Voigt Hill
#
# Bulk Modulus (GPa) = 26.65770 34.68778 30.67274
# Shear Modulus (GPa) = 36.39485 42.29461 39.34473
#
# Velocity S-wave (km/s) = 3.67888 3.96587 3.82507
# Velocity P-wave (km/s) = 5.28761 5.81981 5.56008
#
# Compressibility (1/GPa) = 0.03751262
#
# Stress axis : x y z
#
# Youngs Moduli (GPa) = 101.54778 49.77415 107.66408
#
# Poissons Ratio (x) = -0.14946 0.23738
# Poissons Ratio (y) = -0.30492 0.17817
# Poissons Ratio (z) = 0.22390 0.08237
#
# Static dielectric constant tensor:
#      x y z
#    x 2.082530 0.000000 -0.046920 
#    y 0.000000 2.002020 0.000000 
#    z -0.046920 0.000000 2.153070 
# 
# From -- ./inp_files/67262.got.cif
#   From: 2010.05.17/outbox.cif.g08.bks.cpg/sg15_34_cif.got.tgz:67262.got - 2010.06.03 18:47:42.
