data_PCOD9304925
_publ_section_title
;
Structure prediction by ZEFSAII (Michael W. Deem and Ramdas Pophale) SiO2 
 PCOD9304925
Probable space group: C 2/C
;
_chemical_formula_sum "Si O2"
_cell_formula_units_Z 32
_cell_length_a 29.208305
_cell_length_b 10.884226
_cell_length_c 9.210609
_cell_angle_alpha 90.000000
_cell_angle_beta 26.709658
_cell_angle_gamma 90.000000
_cell_volume 1316.111121
_symmetry_space_group_name_H-M "C 2/C"
_symmetry_group_IT_number 15
_symmetry_cell_setting 'monoclinic'
loop_
_space_group_symop_operation_xyz
x,y,z
-x,y,1/2-z
-x,-y,-z
x,-y,1/2+z
1/2+x,1/2+y,z
1/2-x,1/2+y,1/2-z
1/2-x,1/2-y,-z
1/2+x,1/2-y,1/2+z
loop_
_atom_site_type_symbol
_atom_site_label
_atom_site_fract_x
_atom_site_fract_y
_atom_site_fract_z
Si Si1 0.500000 0.316125 0.750000
Si Si2 0.736774 0.888256 0.597517
Si Si3 0.959870 0.366052 0.142623
Si Si4 0.500000 0.718370 0.750000
Si Si5 0.347062 0.519511 0.060420
O O1 0.465759 0.222008 0.973431
O O2 0.579273 0.403392 0.611389
O O3 0.750000 0.750000 0.500000
O O4 0.821944 0.947005 0.465886
O O5 0.745154 0.980891 0.437220
O O6 0.639239 0.880467 0.976978
O O7 0.950396 0.299329 0.016456
O O8 0.000000 0.500000 0.000000
O O9 0.590294 0.633553 0.555006
#
# Coordination Sequence:
#
# PCOD9304925 Si02
#       5
#     4   8   8   4   8
#     4  11  23  52  82 112 157 215 262 312 394 483
#     4  12  28  50  76 118 155 196 261 332 390 460
#     4  12  28  48  75 114 163 207 254 325 398 460
#     4  11  27  50  78 112 151 217 264 308 400 483
#     4  11  26  50  84 110 154 209 268 323 385 479
#
# _framework density 24.314056000000001
#
# number of rings (size 3 to 8) (size 9 to 14) (size 15 to 20)
#    0.000    0.500    2.500    3.750    7.000    5.000 
#    0.000    0.000    0.000    0.000    0.000    0.000 
#    0.000    0.000    0.000    0.000    0.000    0.000 
#
# Total GULP energy -89490.365692 kJ/mol
# GULP energy per Si atom -5593.147856 kJ/mol
# Density = 2.425872 g / cm^3
# Si number density = 24.314056 Si / 1000 Ang^3
#
#
#
# Elastic Constant Matrix: (Units=GPa)
#
#
# Indices 1 2 3 4 5 6 
#
# 1 124.7241 64.1868 15.4322 0.0000 21.5674 0.0000
# 2 64.1868 184.6587 64.7582 0.0000 21.0803 0.0000
# 3 15.4322 64.7582 153.8271 0.0000 20.8880 0.0000
# 4 0.0000 0.0000 0.0000 53.2809 0.0000 23.0666
# 5 21.5674 21.0803 20.8880 0.0000 40.9352 0.0000
# 6 0.0000 0.0000 0.0000 23.0666 0.0000 34.2964
#
#
#
# Elastic Compliance Matrix: (Units=1/GPa)
#
#
# Indices 1 2 3 4 5 6 
#
# 1 0.010417 -0.003490 0.000994 0.000000 -0.004198 0.000000
# 2 -0.003490 0.007687 -0.002791 0.000000 -0.000695 0.000000
# 3 0.000994 -0.002791 0.008007 0.000000 -0.003172 0.000000
# 4 0.000000 0.000000 0.000000 0.026478 0.000000 -0.017808
# 5 -0.004198 -0.000695 -0.003172 0.000000 0.028617 0.000000
# 6 0.000000 0.000000 0.000000 -0.017808 0.000000 0.041135
#
#
# Mechanical properties :
#
#
# Convention : Reuss Voigt Hill
#
# Bulk Modulus (GPa) = 64.36706 83.55158 73.95932
# Shear Modulus (GPa) = 36.20707 46.95802 41.58254
#
# Velocity S-wave (km/s) = 3.86313 4.39944 4.13997
# Velocity P-wave (km/s) = 6.81388 7.76175 7.30321
#
# Compressibility (1/GPa) = 0.01553590
#
# Stress axis : x y z
#
# Youngs Moduli (GPa) = 95.99826 130.09081 124.89162
#
# Poissons Ratio (x) = 0.45406 -0.12419
# Poissons Ratio (y) = 0.33507 0.34863
# Poissons Ratio (z) = -0.09546 0.36315
#
# Static dielectric constant tensor:
#      x y z
#    x 1.974760 0.000000 -0.115190 
#    y 0.000000 1.892140 0.000000 
#    z -0.115190 0.000000 2.037420 
# 
# From -- ./inp_files/45665.got.cif
#   From: 2010.05.17/outbox.cif.g08.bks.cpg/sg15_23_cif.got.tgz:45665.got - 2010.06.03 18:47:42.
