data_PCOD9304890
_publ_section_title
;
Structure prediction by ZEFSAII (Michael W. Deem and Ramdas Pophale) SiO2 
 PCOD9304890
Probable space group: C 2/C
;
_chemical_formula_sum "Si O2"
_cell_formula_units_Z 52
_cell_length_a 20.366409
_cell_length_b 11.776128
_cell_length_c 8.181133
_cell_angle_alpha 90.000000
_cell_angle_beta 103.172224
_cell_angle_gamma 90.000000
_cell_volume 1910.517031
_symmetry_space_group_name_H-M "C 2/C"
_symmetry_group_IT_number 15
_symmetry_cell_setting 'monoclinic'
loop_
_space_group_symop_operation_xyz
x,y,z
-x,y,1/2-z
-x,-y,-z
x,-y,1/2+z
1/2+x,1/2+y,z
1/2-x,1/2+y,1/2-z
1/2-x,1/2-y,-z
1/2+x,1/2-y,1/2+z
loop_
_atom_site_type_symbol
_atom_site_label
_atom_site_fract_x
_atom_site_fract_y
_atom_site_fract_z
Si Si1 0.604898 0.319690 0.131215
Si Si2 0.573600 0.949467 0.032054
Si Si3 0.869497 0.256633 0.219781
Si Si4 0.706219 0.073041 0.008603
Si Si5 0.000000 0.688993 0.250000
Si Si6 0.444974 0.442934 0.850655
Si Si7 0.723842 0.833368 0.844201
O O1 0.531968 0.265656 0.128146
O O2 0.601971 0.446090 0.204603
O O3 0.661584 0.243124 0.246027
O O4 0.617802 0.306693 0.945312
O O5 0.586056 0.862874 0.187010
O O6 0.632950 0.040762 0.048395
O O7 0.562689 0.881114 0.857453
O O8 0.500000 0.000000 0.000000
O O9 0.893467 0.159312 0.361265
O O10 0.803542 0.333418 0.139032
O O11 0.751343 0.121756 0.181581
O O12 0.722798 0.953288 0.938482
O O13 0.500000 0.400099 0.750000
O O14 0.500000 0.500000 0.000000
O O15 0.750000 0.750000 0.000000
#
# Coordination Sequence:
#
# PCOD9304890 Si02
#       7
#     8   8   8   8   4   8   8
#     4  11  24  44  67  97 141 187 232 286 347 418
#     4  12  23  36  62 102 143 181 222 274 353 426
#     4  11  25  41  62  96 145 183 228 284 339 420
#     4  11  23  48  71 106 136 177 235 297 358 423
#     4  12  22  34  62 102 138 182 222 270 344 424
#     4  12  24  39  61  93 146 190 231 272 336 419
#     4  11  25  51  76 101 141 179 239 303 355 418
#
# _framework density 27.217760999999999
#
# number of rings (size 3 to 8) (size 9 to 14) (size 15 to 20)
#    0.000    0.615    5.385    3.692    2.154    0.000 
#    5.538    0.769    0.000    0.000    0.000    0.000 
#    0.000    0.000    0.000    0.000    0.000    0.000 
#
# Total GULP energy -145048.734074 kJ/mol
# GULP energy per Si atom -5578.797464 kJ/mol
# Density = 2.715581 g / cm^3
# Si number density = 27.217761 Si / 1000 Ang^3
#
#
#
# Elastic Constant Matrix: (Units=GPa)
#
#
# Indices 1 2 3 4 5 6 
#
# 1 51.1814 27.8924 13.9276 0.0000 -3.5572 0.0000
# 2 27.8924 225.1707 55.0194 0.0000 15.2357 0.0000
# 3 13.9276 55.0194 151.5224 0.0000 28.0786 0.0000
# 4 0.0000 0.0000 0.0000 53.6696 0.0000 6.8896
# 5 -3.5572 15.2357 28.0786 0.0000 28.4361 0.0000
# 6 0.0000 0.0000 0.0000 6.8896 0.0000 43.6184
#
#
#
# Elastic Compliance Matrix: (Units=1/GPa)
#
#
# Indices 1 2 3 4 5 6 
#
# 1 0.022018 -0.002607 -0.002260 0.000000 0.006383 0.000000
# 2 -0.002607 0.005208 -0.001315 0.000000 -0.001819 0.000000
# 3 -0.002260 -0.001315 0.008821 0.000000 -0.008288 0.000000
# 4 0.000000 0.000000 0.000000 0.019018 0.000000 -0.003004
# 5 0.006383 -0.001819 -0.008288 0.000000 0.045123 0.000000
# 6 0.000000 0.000000 0.000000 -0.003004 0.000000 0.023401
#
#
# Mechanical properties :
#
#
# Convention : Reuss Voigt Hill
#
# Bulk Modulus (GPa) = 42.22343 69.06147 55.64245
# Shear Modulus (GPa) = 34.75939 47.21383 40.98661
#
# Velocity S-wave (km/s) = 3.57751 4.16946 3.88477
# Velocity P-wave (km/s) = 5.71066 6.97194 6.37258
#
# Compressibility (1/GPa) = 0.02368353
#
# Stress axis : x y z
#
# Youngs Moduli (GPa) = 45.41806 192.00236 113.37102
#
# Poissons Ratio (x) = 0.50056 0.25621
# Poissons Ratio (y) = 0.11841 0.14903
# Poissons Ratio (z) = 0.10264 0.25239
#
# Static dielectric constant tensor:
#      x y z
#    x -16.132280 0.000000 12.382990 
#    y 0.000000 2.272760 0.000000 
#    z 12.382990 0.000000 -6.125960 
# 
# From -- ./inp_files/65591.got.cif
#   From: 2010.05.17/outbox.cif.g08.bks.cpg/sg15_33_cif.got.tgz:65591.got - 2010.06.03 18:47:42.
