data_PCOD9304451
_publ_section_title
;
Structure prediction by ZEFSAII (Michael W. Deem and Ramdas Pophale) SiO2 
 PCOD9304451
Probable space group: C 2/C
;
_chemical_formula_sum "Si O2"
_cell_formula_units_Z 48
_cell_length_a 11.644050
_cell_length_b 17.311783
_cell_length_c 11.481534
_cell_angle_alpha 90.000000
_cell_angle_beta 76.491270
_cell_angle_gamma 90.000000
_cell_volume 2250.408717
_symmetry_space_group_name_H-M "C 2/C"
_symmetry_group_IT_number 15
_symmetry_cell_setting 'monoclinic'
loop_
_space_group_symop_operation_xyz
x,y,z
-x,y,1/2-z
-x,-y,-z
x,-y,1/2+z
1/2+x,1/2+y,z
1/2-x,1/2+y,1/2-z
1/2-x,1/2-y,-z
1/2+x,1/2-y,1/2+z
loop_
_atom_site_type_symbol
_atom_site_label
_atom_site_fract_x
_atom_site_fract_y
_atom_site_fract_z
Si Si1 0.701302 0.859023 0.960503
Si Si2 0.874849 0.205737 0.611701
Si Si3 0.262047 0.601517 0.813168
Si Si4 0.498637 0.950187 0.119034
Si Si5 0.429590 0.581920 0.988718
Si Si6 0.636717 0.449446 0.758456
O O1 0.624315 0.797712 0.904233
O O2 0.774179 0.914061 0.856656
O O3 0.800587 0.820331 0.016500
O O4 0.614355 0.899237 0.072485
O O5 0.808598 0.179763 0.744911
O O6 0.989628 0.151998 0.575461
O O7 0.328025 0.576655 0.916230
O O8 0.308317 0.531919 0.719299
O O9 0.122439 0.598124 0.857036
O O10 0.500000 0.986256 0.250000
O O11 0.500000 0.000000 0.000000
O O12 0.500000 0.500000 0.000000
O O13 0.372552 0.602899 0.125603
O O14 0.500000 0.458876 0.750000
#
# Coordination Sequence:
#
# PCOD9304451 Si02
#       6
#     8   8   8   8   8   8
#     4  11  25  45  66  99 136 186 227 279 348 425
#     4  11  23  44  68  98 138 176 232 290 339 411
#     4  12  24  42  72 101 137 179 232 294 354 410
#     4  12  27  46  72 103 146 189 237 285 353 437
#     4  12  23  40  70 105 133 173 230 298 355 404
#     4  12  22  40  70 102 134 174 236 288 342 415
#
# _framework density 21.329457000000001
#
# number of rings (size 3 to 8) (size 9 to 14) (size 15 to 20)
#    0.000    0.333    8.333    0.500    2.333    1.333 
#    0.000    6.667    0.000    0.000    0.000    0.000 
#    0.000    0.000    0.000    0.000    0.000    0.000 
#
# Total GULP energy -133869.000709 kJ/mol
# GULP energy per Si atom -5577.875030 kJ/mol
# Density = 2.128091 g / cm^3
# Si number density = 21.329457 Si / 1000 Ang^3
#
#
#
# Elastic Constant Matrix: (Units=GPa)
#
#
# Indices 1 2 3 4 5 6 
#
# 1 73.7069 8.4124 25.4840 0.0000 -13.5097 0.0000
# 2 8.4124 54.4721 20.0130 0.0000 -6.5915 0.0000
# 3 25.4840 20.0130 129.1633 0.0000 -14.1840 0.0000
# 4 0.0000 0.0000 0.0000 24.4209 0.0000 8.4208
# 5 -13.5097 -6.5915 -14.1840 0.0000 42.4578 0.0000
# 6 0.0000 0.0000 0.0000 8.4208 0.0000 21.6318
#
#
#
# Elastic Compliance Matrix: (Units=1/GPa)
#
#
# Indices 1 2 3 4 5 6 
#
# 1 0.015230 -0.000991 -0.002425 0.000000 0.003882 0.000000
# 2 -0.000991 0.019711 -0.002655 0.000000 0.001858 0.000000
# 3 -0.002425 -0.002655 0.008826 0.000000 0.001765 0.000000
# 4 0.000000 0.000000 0.000000 0.047297 0.000000 -0.018412
# 5 0.003882 0.001858 0.001765 0.000000 0.025666 0.000000
# 6 0.000000 0.000000 0.000000 -0.018412 0.000000 0.053396
#
#
# Mechanical properties :
#
#
# Convention : Reuss Voigt Hill
#
# Bulk Modulus (GPa) = 31.62013 40.57346 36.09680
# Shear Modulus (GPa) = 25.93229 31.26428 28.59829
#
# Velocity S-wave (km/s) = 3.49061 3.83270 3.66565
# Velocity P-wave (km/s) = 5.57697 6.21689 5.90561
#
# Compressibility (1/GPa) = 0.03162542
#
# Stress axis : x y z
#
# Youngs Moduli (GPa) = 65.65815 50.73254 113.30559
#
# Poissons Ratio (x) = 0.05030 0.27477
# Poissons Ratio (y) = 0.06509 0.30077
# Poissons Ratio (z) = 0.15922 0.13467
#
# Static dielectric constant tensor:
#      x y z
#    x 1.824450 0.000000 0.035570 
#    y 0.000000 1.866180 0.000000 
#    z 0.035570 0.000000 1.825770 
# 
# From -- ./inp_files/87750.got.cif
#   From: 2010.05.17/outbox.cif.g08.bks.cpg/sg15_44_cif.got.tgz:87750.got - 2010.06.03 18:47:42.
