data_PCOD9304003
_publ_section_title
;
Structure prediction by ZEFSAII (Michael W. Deem and Ramdas Pophale) SiO2 
 PCOD9304003
Probable space group: C 2/C
;
_chemical_formula_sum "Si O2"
_cell_formula_units_Z 56
_cell_length_a 8.584873
_cell_length_b 11.232572
_cell_length_c 28.494719
_cell_angle_alpha 90.000000
_cell_angle_beta 100.644819
_cell_angle_gamma 90.000000
_cell_volume 2700.465936
_symmetry_space_group_name_H-M "C 2/C"
_symmetry_group_IT_number 15
_symmetry_cell_setting 'monoclinic'
loop_
_space_group_symop_operation_xyz
x,y,z
-x,y,1/2-z
-x,-y,-z
x,-y,1/2+z
1/2+x,1/2+y,z
1/2-x,1/2+y,1/2-z
1/2-x,1/2-y,-z
1/2+x,1/2-y,1/2+z
loop_
_atom_site_type_symbol
_atom_site_label
_atom_site_fract_x
_atom_site_fract_y
_atom_site_fract_z
Si Si1 0.534277 0.559797 0.146176
Si Si2 0.574497 0.194562 0.483591
Si Si3 0.357321 0.400952 0.212825
Si Si4 0.842084 0.488829 0.718213
Si Si5 0.023973 0.326489 0.165644
Si Si6 0.055686 0.440352 0.434634
Si Si7 0.930442 0.937091 0.449956
O O1 0.436073 0.469775 0.173833
O O2 0.720828 0.558566 0.171866
O O3 0.471865 0.693610 0.149828
O O4 0.520844 0.512837 0.092621
O O5 0.750000 0.250000 0.500000
O O6 0.513751 0.152746 0.531381
O O7 0.487811 0.302327 0.453472
O O8 0.541883 0.075859 0.451571
O O9 0.500000 0.342505 0.250000
O O10 0.275701 0.492560 0.244588
O O11 0.207739 0.321104 0.191218
O O12 0.000000 0.430499 0.750000
O O13 0.915194 0.609803 0.698827
O O14 0.017880 0.410833 0.119706
O O15 0.242984 0.427186 0.441689
O O16 0.000000 0.000000 0.500000
#
# Coordination Sequence:
#
# PCOD9304003 Si02
#       7
#     8   8   8   8   8   8   8
#     4  11  24  41  66 100 135 175 222 276 338 402
#     4  11  25  44  68  95 139 174 231 281 326 401
#     4   9  22  41  65  96 132 169 223 270 340 399
#     4   9  20  43  64  95 129 170 222 272 332 408
#     4  11  23  41  69  94 138 170 221 277 335 403
#     4  11  25  43  66 101 129 184 226 272 346 397
#     4  12  24  43  69  96 139 180 226 278 338 403
#
# _framework density 20.737162999999999
#
# number of rings (size 3 to 8) (size 9 to 14) (size 15 to 20)
#    0.000    1.429    2.857    1.286    2.000    6.857 
#    0.000    2.857    0.000    0.000    0.000    0.000 
#    0.000    0.000    0.000    0.000    0.000    0.000 
#
# Total GULP energy -156173.266403 kJ/mol
# GULP energy per Si atom -5577.616657 kJ/mol
# Density = 2.068996 g / cm^3
# Si number density = 20.737163 Si / 1000 Ang^3
#
#
#
# Elastic Constant Matrix: (Units=GPa)
#
#
# Indices 1 2 3 4 5 6 
#
# 1 78.1794 6.1740 24.5718 0.0000 -8.9102 0.0000
# 2 6.1740 77.7509 24.7929 0.0000 -11.5971 0.0000
# 3 24.5718 24.7929 128.5247 0.0000 -12.3292 0.0000
# 4 0.0000 0.0000 0.0000 6.0436 0.0000 0.3840
# 5 -8.9102 -11.5971 -12.3292 0.0000 29.8176 0.0000
# 6 0.0000 0.0000 0.0000 0.3840 0.0000 20.6852
#
#
#
# Elastic Compliance Matrix: (Units=1/GPa)
#
#
# Indices 1 2 3 4 5 6 
#
# 1 0.013894 0.000134 -0.002373 0.000000 0.003223 0.000000
# 2 0.000134 0.014287 -0.002337 0.000000 0.004630 0.000000
# 3 -0.002373 -0.002337 0.008882 0.000000 0.002054 0.000000
# 4 0.000000 0.000000 0.000000 0.165660 0.000000 -0.003076
# 5 0.003223 0.004630 0.002054 0.000000 0.037151 0.000000
# 6 0.000000 0.000000 0.000000 -0.003076 0.000000 0.048401
#
#
# Mechanical properties :
#
#
# Convention : Reuss Voigt Hill
#
# Bulk Modulus (GPa) = 35.82919 43.94805 39.88862
# Shear Modulus (GPa) = 16.30096 26.57037 21.43567
#
# Velocity S-wave (km/s) = 2.80674 3.58340 3.21858
# Velocity P-wave (km/s) = 5.27437 6.19354 5.75234
#
# Compressibility (1/GPa) = 0.02791021
#
# Stress axis : x y z
#
# Youngs Moduli (GPa) = 71.97553 69.99397 112.58393
#
# Poissons Ratio (x) = -0.00939 0.26716
# Poissons Ratio (y) = -0.00965 0.26316
# Poissons Ratio (z) = 0.17079 0.16361
#
# Static dielectric constant tensor:
#      x y z
#    x 1.746150 0.000000 0.031590 
#    y 0.000000 1.703210 0.000000 
#    z 0.031590 0.000000 1.771100 
# 
# From -- ./inp_files/307259.got.cif
#   From: 2010.05.17/outbox.cif.g08.bks.cpg/sg15_154_cif.got.tgz:307259.got - 2010.06.03 18:47:42.
