data_PCOD9304622
_publ_section_title
;
Structure prediction by ZEFSAII (Michael W. Deem and Ramdas Pophale) SiO2 
 PCOD9304622
Probable space group: C 2/C
;
_chemical_formula_sum "Si O2"
_cell_formula_units_Z 40
_cell_length_a 7.552865
_cell_length_b 13.983860
_cell_length_c 13.694984
_cell_angle_alpha 90.000000
_cell_angle_beta 100.796290
_cell_angle_gamma 90.000000
_cell_volume 1420.836776
_symmetry_space_group_name_H-M "C 2/C"
_symmetry_group_IT_number 15
_symmetry_cell_setting 'monoclinic'
loop_
_space_group_symop_operation_xyz
x,y,z
-x,y,1/2-z
-x,-y,-z
x,-y,1/2+z
1/2+x,1/2+y,z
1/2-x,1/2+y,1/2-z
1/2-x,1/2-y,-z
1/2+x,1/2-y,1/2+z
loop_
_atom_site_type_symbol
_atom_site_label
_atom_site_fract_x
_atom_site_fract_y
_atom_site_fract_z
Si Si1 0.322658 0.561675 0.288938
Si Si2 0.893657 0.599881 0.421596
Si Si3 0.835000 0.124360 0.917191
Si Si4 0.183550 0.274872 0.225120
Si Si5 0.748947 0.389382 0.460581
O O1 0.500000 0.523145 0.250000
O O2 0.169423 0.591833 0.196302
O O3 0.276529 0.477656 0.359914
O O4 0.374499 0.670529 0.320924
O O5 0.783347 0.647492 0.499926
O O6 0.836260 0.491020 0.443375
O O7 0.094571 0.643096 0.449056
O O8 0.041963 0.108143 0.969316
O O9 0.814791 0.205090 0.831015
O O10 0.247699 0.331974 0.139057
O O11 0.000000 0.318682 0.250000
#
# Coordination Sequence:
#
# PCOD9304622 Si02
#       5
#     8   8   8   8   8
#     4  11  24  45  74 104 145 192 238 289 370 424
#     4  11  24  44  75 106 141 190 237 297 355 424
#     4  12  23  48  77 100 143 195 235 299 357 420
#     4  11  23  45  73 102 145 191 232 299 361 418
#     4  11  23  45  70 104 141 184 240 291 349 425
#
# _framework density 28.152425000000001
#
# number of rings (size 3 to 8) (size 9 to 14) (size 15 to 20)
#    0.000    0.800    6.000    1.200    0.000    0.800 
#    0.000   12.000    0.000    0.000    0.000    0.000 
#    0.000    0.000    0.000    0.000    0.000    0.000 
#
# Total GULP energy -111882.530448 kJ/mol
# GULP energy per Si atom -5594.126522 kJ/mol
# Density = 2.808835 g / cm^3
# Si number density = 28.152425 Si / 1000 Ang^3
#
#
#
# Elastic Constant Matrix: (Units=GPa)
#
#
# Indices 1 2 3 4 5 6 
#
# 1 153.3805 16.9405 55.7829 0.0000 17.9930 0.0000
# 2 16.9405 128.1652 24.8819 0.0000 -19.7735 0.0000
# 3 55.7829 24.8819 172.3168 0.0000 22.6975 0.0000
# 4 0.0000 0.0000 0.0000 30.3669 0.0000 1.0253
# 5 17.9930 -19.7735 22.6975 0.0000 57.2053 0.0000
# 6 0.0000 0.0000 0.0000 1.0253 0.0000 22.5601
#
#
#
# Elastic Compliance Matrix: (Units=1/GPa)
#
#
# Indices 1 2 3 4 5 6 
#
# 1 0.007595 -0.000888 -0.002084 0.000000 -0.001869 0.000000
# 2 -0.000888 0.008817 -0.001503 0.000000 0.003923 0.000000
# 3 -0.002084 -0.001503 0.007045 0.000000 -0.002659 0.000000
# 4 0.000000 0.000000 0.000000 0.032981 0.000000 -0.001499
# 5 -0.001869 0.003923 -0.002659 0.000000 0.020480 0.000000
# 6 0.000000 0.000000 0.000000 -0.001499 0.000000 0.044394
#
#
# Mechanical properties :
#
#
# Convention : Reuss Voigt Hill
#
# Bulk Modulus (GPa) = 68.92699 72.11924 70.52311
# Shear Modulus (GPa) = 37.01049 45.77695 41.39372
#
# Velocity S-wave (km/s) = 3.62974 4.03679 3.83866
# Velocity P-wave (km/s) = 6.48871 6.88481 6.68969
#
# Compressibility (1/GPa) = 0.01450810
#
# Stress axis : x y z
#
# Youngs Moduli (GPa) = 131.66488 113.42164 141.93978
#
# Poissons Ratio (x) = 0.10066 0.29586
# Poissons Ratio (y) = 0.11686 0.21326
# Poissons Ratio (z) = 0.27444 0.17042
#
# Static dielectric constant tensor:
#      x y z
#    x 2.183350 0.000000 0.097870 
#    y 0.000000 2.396700 0.000000 
#    z 0.097870 0.000000 2.351120 
# 
# From -- ./inp_files/197471.got.cif
#   From: 2010.05.17/outbox.cif.g08.bks.cpg/sg15_99_cif.got.tgz:197471.got - 2010.06.03 18:47:42.
