data_PCOD9304402
_publ_section_title
;
Structure prediction by ZEFSAII (Michael W. Deem and Ramdas Pophale) SiO2 
 PCOD9304402
Probable space group: C 2/C
;
_chemical_formula_sum "Si O2"
_cell_formula_units_Z 44
_cell_length_a 11.874789
_cell_length_b 17.113354
_cell_length_c 12.351304
_cell_angle_alpha 90.000000
_cell_angle_beta 123.340117
_cell_angle_gamma 90.000000
_cell_volume 2096.911695
_symmetry_space_group_name_H-M "C 2/C"
_symmetry_group_IT_number 15
_symmetry_cell_setting 'monoclinic'
loop_
_space_group_symop_operation_xyz
x,y,z
-x,y,1/2-z
-x,-y,-z
x,-y,1/2+z
1/2+x,1/2+y,z
1/2-x,1/2+y,1/2-z
1/2-x,1/2-y,-z
1/2+x,1/2-y,1/2+z
loop_
_atom_site_type_symbol
_atom_site_label
_atom_site_fract_x
_atom_site_fract_y
_atom_site_fract_z
Si Si1 0.876164 0.781427 0.992252
Si Si2 0.107753 0.487649 0.402910
Si Si3 0.500000 0.345230 0.250000
Si Si4 0.356481 0.541189 0.403867
Si Si5 0.258908 0.942030 0.332767
Si Si6 0.459147 0.832710 0.344100
O O1 0.851307 0.866834 0.926925
O O2 0.927612 0.725270 0.924878
O O3 0.750000 0.750000 0.000000
O O4 0.995453 0.793199 0.141429
O O5 0.253947 0.499438 0.430695
O O6 0.123544 0.540598 0.518539
O O7 0.000000 0.509812 0.250000
O O8 0.073413 0.399304 0.418074
O O9 0.633243 0.397616 0.318937
O O10 0.500000 0.500000 0.500000
O O11 0.299993 0.518853 0.255523
O O12 0.324087 0.886372 0.275638
O O13 0.500000 0.795819 0.250000
#
# Coordination Sequence:
#
# PCOD9304402 Si02
#       6
#     8   8   4   8   8   8
#     4  12  26  47  72 110 149 200 250 305 386 453
#     4  11  23  43  75 108 141 192 256 314 369 447
#     4  12  24  46  74 102 158 190 248 312 374 448
#     4  12  24  45  74 106 143 198 249 298 383 461
#     4  12  22  46  73 106 144 196 247 312 367 453
#     4  11  24  46  69 107 154 185 245 320 379 432
#
# _framework density 20.983238
#
# number of rings (size 3 to 8) (size 9 to 14) (size 15 to 20)
#    0.000    0.364    9.091    0.545    0.000    1.455 
#    8.182    1.818    0.000    0.000    0.000    0.000 
#    0.000    0.000    0.000    0.000    0.000    0.000 
#
# Total GULP energy -122644.364853 kJ/mol
# GULP energy per Si atom -5574.743857 kJ/mol
# Density = 2.093548 g / cm^3
# Si number density = 20.983238 Si / 1000 Ang^3
#
#
#
# Elastic Constant Matrix: (Units=GPa)
#
#
# Indices 1 2 3 4 5 6 
#
# 1 161.2240 65.4152 46.0358 0.0000 -6.4586 0.0000
# 2 65.4152 140.1826 64.9321 0.0000 -14.1256 0.0000
# 3 46.0358 64.9321 145.0128 0.0000 -17.3512 0.0000
# 4 0.0000 0.0000 0.0000 38.4034 0.0000 -13.9765
# 5 -6.4586 -14.1256 -17.3512 0.0000 38.7487 0.0000
# 6 0.0000 0.0000 0.0000 -13.9765 0.0000 43.1524
#
#
#
# Elastic Compliance Matrix: (Units=1/GPa)
#
#
# Indices 1 2 3 4 5 6 
#
# 1 0.007784 -0.003158 -0.001098 0.000000 -0.000346 0.000000
# 2 -0.003158 0.010372 -0.003436 0.000000 0.001716 0.000000
# 3 -0.001098 -0.003436 0.009099 0.000000 0.002639 0.000000
# 4 0.000000 0.000000 0.000000 0.029519 0.000000 0.009561
# 5 -0.000346 0.001716 0.002639 0.000000 0.027557 0.000000
# 6 0.000000 0.000000 0.000000 0.009561 0.000000 0.026270
#
#
# Mechanical properties :
#
#
# Convention : Reuss Voigt Hill
#
# Bulk Modulus (GPa) = 84.25307 88.79840 86.52574
# Shear Modulus (GPa) = 38.47853 42.06334 40.27093
#
# Velocity S-wave (km/s) = 4.28691 4.48215 4.38561
# Velocity P-wave (km/s) = 8.04631 8.31846 8.18352
#
# Compressibility (1/GPa) = 0.01186900
#
# Stress axis : x y z
#
# Youngs Moduli (GPa) = 128.47250 96.41375 109.90290
#
# Poissons Ratio (x) = 0.30451 0.12069
# Poissons Ratio (y) = 0.40577 0.37765
# Poissons Ratio (z) = 0.14108 0.33130
#
# Static dielectric constant tensor:
#      x y z
#    x 1.798400 0.000000 -0.068730 
#    y 0.000000 1.796080 0.000000 
#    z -0.068730 0.000000 1.873180 
# 
# From -- ./inp_files/87956.got.cif
#   From: 2010.05.17/outbox.cif.g08.bks.cpg/sg15_44_cif.got.tgz:87956.got - 2010.06.03 18:47:42.
