data_PCOD9304729
_publ_section_title
;
Structure prediction by ZEFSAII (Michael W. Deem and Ramdas Pophale) SiO2 
 PCOD9304729
Probable space group: C 2/C
;
_chemical_formula_sum "Si O2"
_cell_formula_units_Z 56
_cell_length_a 11.259662
_cell_length_b 26.734065
_cell_length_c 10.355600
_cell_angle_alpha 90.000000
_cell_angle_beta 52.012425
_cell_angle_gamma 90.000000
_cell_volume 2456.808632
_symmetry_space_group_name_H-M "C 2/C"
_symmetry_group_IT_number 15
_symmetry_cell_setting 'monoclinic'
loop_
_space_group_symop_operation_xyz
x,y,z
-x,y,1/2-z
-x,-y,-z
x,-y,1/2+z
1/2+x,1/2+y,z
1/2-x,1/2+y,1/2-z
1/2-x,1/2-y,-z
1/2+x,1/2-y,1/2+z
loop_
_atom_site_type_symbol
_atom_site_label
_atom_site_fract_x
_atom_site_fract_y
_atom_site_fract_z
Si Si1 0.049814 0.630875 0.425950
Si Si2 0.654460 0.063710 0.566517
Si Si3 0.717268 0.380936 0.077692
Si Si4 0.334117 0.316822 0.606034
Si Si5 0.600621 0.216534 0.800769
Si Si6 0.351470 0.357495 0.082805
Si Si7 0.598355 0.515952 0.559225
O O1 0.114158 0.580791 0.449078
O O2 0.180176 0.660483 0.264959
O O3 0.898051 0.616604 0.452355
O O4 0.988490 0.669809 0.576198
O O5 0.500000 0.064642 0.750000
O O6 0.767085 0.106120 0.543003
O O7 0.744777 0.013369 0.532209
O O8 0.668104 0.380671 0.259932
O O9 0.642816 0.425972 0.047633
O O10 0.668551 0.329143 0.043972
O O11 0.362138 0.259814 0.623521
O O12 0.477046 0.347052 0.565471
O O13 0.500000 0.235832 0.750000
O O14 0.758349 0.194108 0.646268
O O15 0.500000 0.502061 0.750000
O O16 0.500000 0.500000 0.500000
#
# Coordination Sequence:
#
# PCOD9304729 Si02
#       7
#     8   8   8   8   8   8   8
#     4  11  25  44  72 103 145 186 244 292 360 436
#     4  12  24  47  73 104 138 193 234 296 372 433
#     4  11  25  51  68  98 153 193 228 299 371 434
#     4  12  26  38  71 107 138 189 241 294 346 426
#     4  11  23  46  68 102 147 193 238 295 368 436
#     4  11  23  46  73  97 149 189 232 299 368 424
#     4  12  29  50  78 112 145 187 254 309 372 440
#
# _framework density 22.793799
#
# number of rings (size 3 to 8) (size 9 to 14) (size 15 to 20)
#    0.000    0.571    4.286    4.286    6.000    5.143 
#    0.000    5.714    0.000    0.000    0.000    0.000 
#    0.000    0.000    0.000    0.000    0.000    0.000 
#
# Total GULP energy -156714.016631 kJ/mol
# GULP energy per Si atom -5596.929165 kJ/mol
# Density = 2.274192 g / cm^3
# Si number density = 22.793799 Si / 1000 Ang^3
#
#
#
# Elastic Constant Matrix: (Units=GPa)
#
#
# Indices 1 2 3 4 5 6 
#
# 1 140.2029 47.0763 20.2641 0.0000 -5.7941 0.0000
# 2 47.0763 85.3566 -13.0005 0.0000 1.3132 0.0000
# 3 20.2641 -13.0005 54.3776 0.0000 -22.7572 0.0000
# 4 0.0000 0.0000 0.0000 25.6715 0.0000 -3.3414
# 5 -5.7941 1.3132 -22.7572 0.0000 46.7795 0.0000
# 6 0.0000 0.0000 0.0000 -3.3414 0.0000 27.3899
#
#
#
# Elastic Compliance Matrix: (Units=1/GPa)
#
#
# Indices 1 2 3 4 5 6 
#
# 1 0.010089 -0.006441 -0.005903 0.000000 -0.001441 0.000000
# 2 -0.006441 0.016339 0.007258 0.000000 0.002275 0.000000
# 3 -0.005903 0.007258 0.027541 0.000000 0.012463 0.000000
# 4 0.000000 0.000000 0.000000 0.039582 0.000000 0.004829
# 5 -0.001441 0.002275 0.012463 0.000000 0.027198 0.000000
# 6 0.000000 0.000000 0.000000 0.004829 0.000000 0.037099
#
#
# Mechanical properties :
#
#
# Convention : Reuss Voigt Hill
#
# Bulk Modulus (GPa) = 22.83245 43.17965 33.00605
# Shear Modulus (GPa) = 27.37978 35.00802 31.19390
#
# Velocity S-wave (km/s) = 3.46958 3.92325 3.70337
# Velocity P-wave (km/s) = 5.10778 6.28548 5.72698
#
# Compressibility (1/GPa) = 0.04379732
#
# Stress axis : x y z
#
# Youngs Moduli (GPa) = 99.11936 61.20512 36.30984
#
# Poissons Ratio (x) = 0.39423 0.21433
# Poissons Ratio (y) = 0.63844 -0.26355
# Poissons Ratio (z) = 0.58507 -0.44425
#
# Static dielectric constant tensor:
#      x y z
#    x 1.852090 0.000000 -0.001070 
#    y 0.000000 1.883960 0.000000 
#    z -0.001070 0.000000 1.854580 
# 
# From -- ./inp_files/91983.got.cif
#   From: 2010.05.17/outbox.cif.g08.bks.cpg/sg15_46_cif.got.tgz:91983.got - 2010.06.03 18:47:42.
