data_PCOD9304293
_publ_section_title
;
Structure prediction by ZEFSAII (Michael W. Deem and Ramdas Pophale) SiO2 
 PCOD9304293
Probable space group: C 2/C
;
_chemical_formula_sum "Si O2"
_cell_formula_units_Z 60
_cell_length_a 23.214333
_cell_length_b 9.458189
_cell_length_c 25.437377
_cell_angle_alpha 90.000000
_cell_angle_beta 31.903828
_cell_angle_gamma 90.000000
_cell_volume 2951.735593
_symmetry_space_group_name_H-M "C 2/C"
_symmetry_group_IT_number 15
_symmetry_cell_setting 'monoclinic'
loop_
_space_group_symop_operation_xyz
x,y,z
-x,y,1/2-z
-x,-y,-z
x,-y,1/2+z
1/2+x,1/2+y,z
1/2-x,1/2+y,1/2-z
1/2-x,1/2-y,-z
1/2+x,1/2-y,1/2+z
loop_
_atom_site_type_symbol
_atom_site_label
_atom_site_fract_x
_atom_site_fract_y
_atom_site_fract_z
Si Si1 0.381273 0.589010 0.486583
Si Si2 0.246963 0.562163 0.694644
Si Si3 0.500000 0.010400 0.750000
Si Si4 0.435658 0.084451 0.505512
Si Si5 0.940275 0.136178 0.623380
Si Si6 0.226858 0.242142 0.678029
Si Si7 0.997469 0.375421 0.134899
Si Si8 0.268864 0.863262 0.940450
O O1 0.296761 0.609717 0.599926
O O2 0.479841 0.495092 0.433310
O O3 0.433851 0.733314 0.426118
O O4 0.316103 0.494341 0.494427
O O5 0.334533 0.606819 0.669967
O O6 0.238801 0.390472 0.700052
O O7 0.125781 0.625627 0.792895
O O8 0.391330 0.920716 0.844231
O O9 0.514837 0.092931 0.793557
O O10 0.493619 0.234429 0.452060
O O11 0.315671 0.121352 0.619056
O O12 0.500000 0.000000 0.500000
O O13 0.442187 0.997616 0.445876
O O14 0.892363 0.183904 0.716655
O O15 0.246729 0.285654 0.602916
O O16 0.250000 0.750000 0.000000
#
# Coordination Sequence:
#
# PCOD9304293 Si02
#       8
#     8   8   4   8   8   8   8   8
#     4  11  26  46  69 104 137 181 233 285 350 420
#     4  11  23  43  68  99 142 185 222 281 351 416
#     4  12  24  48  74  96 142 184 226 304 344 410
#     4  12  24  41  70 106 138 182 231 284 346 423
#     4  12  24  40  70  99 142 181 228 281 342 422
#     4  11  24  43  64 105 132 176 240 275 340 421
#     4  12  26  46  70 101 144 179 233 288 358 408
#     4  11  24  47  76  99 133 182 236 290 349 406
#
# _framework density 20.327024000000002
#
# number of rings (size 3 to 8) (size 9 to 14) (size 15 to 20)
#    0.000    0.533    6.667    2.800    5.600    1.600 
#    2.400    0.000    0.000    0.000    0.000    0.000 
#    0.000    0.000    0.000    0.000    0.000    0.000 
#
# Total GULP energy -167722.094871 kJ/mol
# GULP energy per Si atom -5590.736496 kJ/mol
# Density = 2.028076 g / cm^3
# Si number density = 20.327024 Si / 1000 Ang^3
#
#
#
# Elastic Constant Matrix: (Units=GPa)
#
#
# Indices 1 2 3 4 5 6 
#
# 1 68.4970 28.8075 10.1407 0.0003 -10.3316 -0.0003
# 2 28.8075 81.5579 34.8566 0.0012 -2.3194 -0.0010
# 3 10.1407 34.8566 108.9686 0.0003 -11.9783 -0.0003
# 4 0.0003 0.0012 0.0003 27.5959 -0.0002 6.2390
# 5 -10.3316 -2.3194 -11.9783 -0.0002 37.4958 0.0001
# 6 -0.0003 -0.0010 -0.0003 6.2390 0.0001 24.4628
#
#
#
# Elastic Compliance Matrix: (Units=1/GPa)
#
#
# Indices 1 2 3 4 5 6 
#
# 1 0.017975 -0.006631 0.000982 0.000000 0.004856 0.000000
# 2 -0.006631 0.016662 -0.004975 -0.000001 -0.002386 0.000001
# 3 0.000982 -0.004975 0.011061 0.000000 0.003496 0.000000
# 4 0.000000 -0.000001 0.000000 0.038455 0.000000 -0.009808
# 5 0.004856 -0.002386 0.003496 0.000000 0.028977 0.000000
# 6 0.000000 0.000001 0.000000 -0.009808 0.000000 0.043380
#
#
# Mechanical properties :
#
#
# Convention : Reuss Voigt Hill
#
# Bulk Modulus (GPa) = 40.89825 45.18146 43.03985
# Shear Modulus (GPa) = 26.89524 30.25881 28.57703
#
# Velocity S-wave (km/s) = 3.64143 3.86242 3.75355
# Velocity P-wave (km/s) = 6.15173 6.49358 6.32497
#
# Compressibility (1/GPa) = 0.02445093
#
# Stress axis : x y z
#
# Youngs Moduli (GPa) = 55.63307 60.01823 90.40562
#
# Poissons Ratio (x) = 0.39796 -0.08878
# Poissons Ratio (y) = 0.36888 0.44976
# Poissons Ratio (z) = -0.05464 0.29858
#
# Static dielectric constant tensor:
#      x y z
#    x 1.773680 0.000000 -0.014410 
#    y 0.000000 1.725110 0.000000 
#    z -0.014410 0.000000 1.728050 
# 
# From -- ./inp_files/302044.got.cif
#   From: 2010.05.17/outbox.cif.g08.bks.cpg/sg15_152_cif.got.tgz:302044.got - 2010.06.03 18:47:42.
