data_PCOD9304521
_publ_section_title
;
Structure prediction by ZEFSAII (Michael W. Deem and Ramdas Pophale) SiO2 
 PCOD9304521
Probable space group: C 2/C
;
_chemical_formula_sum "Si O2"
_cell_formula_units_Z 36
_cell_length_a 12.369595
_cell_length_b 14.894879
_cell_length_c 8.086204
_cell_angle_alpha 90.000000
_cell_angle_beta 109.001844
_cell_angle_gamma 90.000000
_cell_volume 1408.647750
_symmetry_space_group_name_H-M "C 2/C"
_symmetry_group_IT_number 15
_symmetry_cell_setting 'monoclinic'
loop_
_space_group_symop_operation_xyz
x,y,z
-x,y,1/2-z
-x,-y,-z
x,-y,1/2+z
1/2+x,1/2+y,z
1/2-x,1/2+y,1/2-z
1/2-x,1/2-y,-z
1/2+x,1/2-y,1/2+z
loop_
_atom_site_type_symbol
_atom_site_label
_atom_site_fract_x
_atom_site_fract_y
_atom_site_fract_z
Si Si1 0.441105 0.861620 0.381525
Si Si2 0.272141 0.594481 0.887698
Si Si3 0.011619 0.842598 0.564417
Si Si4 0.740465 0.890582 0.767932
Si Si5 0.500000 0.121706 0.250000
O O1 0.500000 0.901840 0.250000
O O2 0.310510 0.844572 0.264765
O O3 0.498160 0.764639 0.441202
O O4 0.465233 0.917699 0.556018
O O5 0.232058 0.495306 0.814975
O O6 0.406196 0.610833 0.920131
O O7 0.251335 0.613895 0.072783
O O8 0.141887 0.862692 0.584717
O O9 0.000000 0.872729 0.750000
O O10 0.626917 0.839194 0.770918
#
# Coordination Sequence:
#
# PCOD9304521 Si02
#       5
#     8   8   8   8   4
#     4  11  24  44  71  99 140 179 223 282 338 403
#     4  11  23  44  71  98 139 179 225 282 339 400
#     4   9  23  43  70  98 136 183 224 278 343 399
#     4  11  24  42  68 101 138 178 229 278 338 403
#     4  12  26  42  68 106 138 176 232 276 336 410
#
# _framework density 25.556424
#
# number of rings (size 3 to 8) (size 9 to 14) (size 15 to 20)
#    0.000    1.333    2.222    2.000    4.667    5.333 
#    4.000    0.000    0.000    0.000    0.000    0.000 
#    0.000    0.000    0.000    0.000    0.000    0.000 
#
# Total GULP energy -100493.290696 kJ/mol
# GULP energy per Si atom -5582.960594 kJ/mol
# Density = 2.549826 g / cm^3
# Si number density = 25.556424 Si / 1000 Ang^3
#
#
#
# Elastic Constant Matrix: (Units=GPa)
#
#
# Indices 1 2 3 4 5 6 
#
# 1 193.3944 3.8116 64.5623 0.0000 42.6295 0.0000
# 2 3.8116 28.9225 13.2193 0.0000 -1.1262 0.0000
# 3 64.5623 13.2193 168.5983 0.0000 24.0638 0.0000
# 4 0.0000 0.0000 0.0000 18.6751 0.0000 -4.3160
# 5 42.6295 -1.1262 24.0638 0.0000 46.4458 0.0000
# 6 0.0000 0.0000 0.0000 -4.3160 0.0000 2.6735
#
#
#
# Elastic Compliance Matrix: (Units=1/GPa)
#
#
# Indices 1 2 3 4 5 6 
#
# 1 0.007009 -0.000276 -0.001882 0.000000 -0.005465 0.000000
# 2 -0.000276 0.036145 -0.003120 0.000000 0.002746 0.000000
# 3 -0.001882 -0.003120 0.007193 0.000000 -0.002075 0.000000
# 4 0.000000 0.000000 0.000000 0.085415 0.000000 0.137889
# 5 -0.005465 0.002746 -0.002075 0.000000 0.027688 0.000000
# 6 0.000000 0.000000 0.000000 0.137889 0.000000 0.596638
#
#
# Mechanical properties :
#
#
# Convention : Reuss Voigt Hill
#
# Bulk Modulus (GPa) = 25.13257 61.56686 43.34971
# Shear Modulus (GPa) = 6.37830 34.18036 20.27933
#
# Velocity S-wave (km/s) = 1.58151 3.66108 2.81999
# Velocity P-wave (km/s) = 3.63186 6.48184 5.25379
#
# Compressibility (1/GPa) = 0.03978901
#
# Stress axis : x y z
#
# Youngs Moduli (GPa) = 142.66891 27.66665 139.02670
#
# Poissons Ratio (x) = 0.00764 0.26171
# Poissons Ratio (y) = 0.03939 0.43380
# Poissons Ratio (z) = 0.26857 0.08633
#
# Static dielectric constant tensor:
#      x y z
#    x 2.089730 0.000000 -0.014360 
#    y 0.000000 2.047620 0.000000 
#    z -0.014360 0.000000 1.973140 
# 
# From -- ./inp_files/29421.got.cif
#   From: 2010.05.17/outbox.cif.g08.bks.cpg/sg15_15_cif.got.tgz:29421.got - 2010.06.03 18:47:42.
