data_PCOD9304536
_publ_section_title
;
Structure prediction by ZEFSAII (Michael W. Deem and Ramdas Pophale) SiO2 
 PCOD9304536
Probable space group: C 2/C
;
_chemical_formula_sum "Si O2"
_cell_formula_units_Z 64
_cell_length_a 27.379093
_cell_length_b 15.572531
_cell_length_c 11.759712
_cell_angle_alpha 90.000000
_cell_angle_beta 143.398601
_cell_angle_gamma 90.000000
_cell_volume 2989.505222
_symmetry_space_group_name_H-M "C 2/C"
_symmetry_group_IT_number 15
_symmetry_cell_setting 'monoclinic'
loop_
_space_group_symop_operation_xyz
x,y,z
-x,y,1/2-z
-x,-y,-z
x,-y,1/2+z
1/2+x,1/2+y,z
1/2-x,1/2+y,1/2-z
1/2-x,1/2-y,-z
1/2+x,1/2-y,1/2+z
loop_
_atom_site_type_symbol
_atom_site_label
_atom_site_fract_x
_atom_site_fract_y
_atom_site_fract_z
Si Si1 0.356547 0.420786 0.260611
Si Si2 0.790039 0.660976 0.399535
Si Si3 0.274094 0.164381 0.115395
Si Si4 0.984609 0.184158 0.850181
Si Si5 0.936047 0.448854 0.232382
Si Si6 0.901351 0.172081 0.076619
Si Si7 0.138620 0.883850 0.758959
Si Si8 0.547462 0.867388 0.621916
O O1 0.418578 0.376758 0.287337
O O2 0.367725 0.367125 0.396721
O O3 0.372034 0.520504 0.310082
O O4 0.268252 0.409948 0.037049
O O5 0.746036 0.664071 0.193924
O O6 0.847459 0.578425 0.523194
O O7 0.852786 0.740770 0.515018
O O8 0.723706 0.656238 0.375587
O O9 0.371561 0.151924 0.300774
O O10 0.250000 0.250000 0.000000
O O11 0.000000 0.158812 0.750000
O O12 0.960388 0.283819 0.814802
O O13 0.067070 0.174452 0.075712
O O14 0.937979 0.545733 0.281388
O O15 0.000000 0.440605 0.250000
O O16 0.969906 0.386984 0.396252
O O17 0.877199 0.110874 0.136195
O O18 0.000000 0.183480 0.250000
#
# Coordination Sequence:
#
# PCOD9304536 Si02
#       8
#     8   8   8   8   8   8   8   8
#     4  12  27  47  71 105 139 196 237 290 358 428
#     4  12  25  47  72 106 143 187 239 300 367 423
#     4  12  23  44  71 101 142 188 242 291 360 434
#     4  12  25  44  72 103 146 185 235 285 359 431
#     4  11  23  44  73 101 146 186 245 305 362 426
#     4  12  26  47  76 102 141 190 243 291 357 440
#     4  12  29  45  71 109 144 183 241 301 355 417
#     4  11  24  44  70 109 136 191 244 293 359 434
#
# _framework density 21.408225000000002
#
# number of rings (size 3 to 8) (size 9 to 14) (size 15 to 20)
#    0.000    0.250    5.000    3.750    3.500    0.000 
#    0.000    0.000    0.000    0.000    0.000    0.000 
#    0.000    0.000    0.000    0.000    0.000    0.000 
#
# Total GULP energy -179030.044953 kJ/mol
# GULP energy per Si atom -5594.688905 kJ/mol
# Density = 2.135950 g / cm^3
# Si number density = 21.408225 Si / 1000 Ang^3
#
#
#
# Elastic Constant Matrix: (Units=GPa)
#
#
# Indices 1 2 3 4 5 6 
#
# 1 122.4909 22.2754 27.8777 0.0000 -6.3631 0.0000
# 2 22.2754 84.8250 16.7278 0.0000 3.1092 0.0000
# 3 27.8777 16.7278 68.2691 0.0000 -0.4674 0.0000
# 4 0.0000 0.0000 0.0000 14.0119 0.0000 -4.5699
# 5 -6.3631 3.1092 -0.4674 0.0000 34.1245 0.0000
# 6 0.0000 0.0000 0.0000 -4.5699 0.0000 21.8465
#
#
#
# Elastic Compliance Matrix: (Units=1/GPa)
#
#
# Indices 1 2 3 4 5 6 
#
# 1 0.009364 -0.001866 -0.003354 0.000000 0.001870 0.000000
# 2 -0.001866 0.012806 -0.002386 0.000000 -0.001547 0.000000
# 3 -0.003354 -0.002386 0.016601 0.000000 -0.000181 0.000000
# 4 0.000000 0.000000 0.000000 0.076593 0.000000 0.016022
# 5 0.001870 -0.001547 -0.000181 0.000000 0.029792 0.000000
# 6 0.000000 0.000000 0.000000 0.016022 0.000000 0.049125
#
#
# Mechanical properties :
#
#
# Convention : Reuss Voigt Hill
#
# Bulk Modulus (GPa) = 42.44755 45.48298 43.96527
# Shear Modulus (GPa) = 23.00472 27.91018 25.45745
#
# Velocity S-wave (km/s) = 3.28163 3.61461 3.45214
# Velocity P-wave (km/s) = 5.85060 6.22192 6.03911
#
# Compressibility (1/GPa) = 0.02355848
#
# Stress axis : x y z
#
# Youngs Moduli (GPa) = 106.79622 78.08608 60.23781
#
# Poissons Ratio (x) = 0.14572 0.20201
# Poissons Ratio (y) = 0.19930 0.14376
# Poissons Ratio (z) = 0.35815 0.18635
#
# Static dielectric constant tensor:
#      x y z
#    x 1.791640 0.000000 -0.005130 
#    y 0.000000 1.772950 0.000000 
#    z -0.005130 0.000000 1.792640 
# 
# From -- ./inp_files/123564.got.cif
#   From: 2010.05.17/outbox.cif.g08.bks.cpg/sg15_62_cif.got.tgz:123564.got - 2010.06.03 18:47:42.
