data_PCOD9304219
_publ_section_title
;
Structure prediction by ZEFSAII (Michael W. Deem and Ramdas Pophale) SiO2 
 PCOD9304219
Probable space group: C 2/C
;
_chemical_formula_sum "Si O2"
_cell_formula_units_Z 60
_cell_length_a 13.426937
_cell_length_b 18.083508
_cell_length_c 19.170784
_cell_angle_alpha 90.000000
_cell_angle_beta 142.949453
_cell_angle_gamma 90.000000
_cell_volume 2804.597288
_symmetry_space_group_name_H-M "C 2/C"
_symmetry_group_IT_number 15
_symmetry_cell_setting 'monoclinic'
loop_
_space_group_symop_operation_xyz
x,y,z
-x,y,1/2-z
-x,-y,-z
x,-y,1/2+z
1/2+x,1/2+y,z
1/2-x,1/2+y,1/2-z
1/2-x,1/2-y,-z
1/2+x,1/2-y,1/2+z
loop_
_atom_site_type_symbol
_atom_site_label
_atom_site_fract_x
_atom_site_fract_y
_atom_site_fract_z
Si Si1 0.183128 0.326788 0.992388
Si Si2 0.379743 0.602309 0.859019
Si Si3 0.159761 0.170375 0.105214
Si Si4 0.500000 0.824407 0.750000
Si Si5 0.443403 0.036927 0.541009
Si Si6 0.402374 0.466369 0.125443
Si Si7 0.605568 0.817613 0.110782
Si Si8 0.157537 0.511976 0.286276
O O1 0.069154 0.355854 0.864022
O O2 0.250000 0.250000 0.000000
O O3 0.333065 0.382876 0.087425
O O4 0.103276 0.321933 0.024274
O O5 0.475638 0.536367 0.871813
O O6 0.264843 0.646159 0.739217
O O7 0.274161 0.560097 0.859710
O O8 0.514808 0.655953 0.968856
O O9 0.331734 0.213239 0.181587
O O10 0.089698 0.230603 0.120229
O O11 0.236817 0.087777 0.155641
O O12 0.462873 0.125062 0.551744
O O13 0.578129 0.003183 0.667679
O O14 0.500000 0.000000 0.500000
O O15 0.262861 0.014308 0.466247
O O16 0.500000 0.483048 0.250000
O O17 0.000000 0.514493 0.250000
#
# Coordination Sequence:
#
# PCOD9304219 Si02
#       8
#     8   8   8   4   8   8   8   8
#     4  12  23  35  58  92 139 178 214 271 341 409
#     4  11  24  43  66 100 133 181 229 283 342 411
#     4  12  24  37  63  98 135 167 218 284 345 406
#     4  12  24  32  56  94 136 180 206 262 358 402
#     4  11  23  43  64  95 137 192 227 272 340 424
#     4  12  21  39  63  91 131 173 229 273 328 401
#     4  11  25  40  63  96 138 175 223 278 345 406
#     4  11  24  45  70  98 136 180 231 284 351 416
#
# _framework density 21.393445
#
# number of rings (size 3 to 8) (size 9 to 14) (size 15 to 20)
#    0.000    0.533    6.000    2.800    4.667    0.000 
#    0.000    0.000    0.000    8.000    0.000    0.000 
#    0.000    0.000    0.000    0.000    0.000    0.000 
#
# Total GULP energy -167025.567927 kJ/mol
# GULP energy per Si atom -5567.518931 kJ/mol
# Density = 2.134475 g / cm^3
# Si number density = 21.393445 Si / 1000 Ang^3
#
#
#
# Elastic Constant Matrix: (Units=GPa)
#
#
# Indices 1 2 3 4 5 6 
#
# 1 55.3610 47.3830 19.2384 0.0000 4.1760 0.0000
# 2 47.3830 125.0418 32.8136 0.0000 12.2810 0.0000
# 3 19.2384 32.8136 107.5382 0.0000 4.4372 0.0000
# 4 0.0000 0.0000 0.0000 22.3348 0.0000 1.3154
# 5 4.1760 12.2810 4.4372 0.0000 32.2715 0.0000
# 6 0.0000 0.0000 0.0000 1.3154 0.0000 28.1430
#
#
#
# Elastic Compliance Matrix: (Units=1/GPa)
#
#
# Indices 1 2 3 4 5 6 
#
# 1 0.027080 -0.009819 -0.001869 0.000000 0.000490 0.000000
# 2 -0.009819 0.012545 -0.001938 0.000000 -0.003237 0.000000
# 3 -0.001869 -0.001938 0.010242 0.000000 -0.000429 0.000000
# 4 0.000000 0.000000 0.000000 0.044897 0.000000 -0.002098
# 5 0.000490 -0.003237 -0.000429 0.000000 0.032215 0.000000
# 6 0.000000 0.000000 0.000000 -0.002098 0.000000 0.035631
#
#
# Mechanical properties :
#
#
# Convention : Reuss Voigt Hill
#
# Bulk Modulus (GPa) = 44.21666 54.09009 49.15337
# Shear Modulus (GPa) = 25.32946 29.11694 27.22320
#
# Velocity S-wave (km/s) = 3.44464 3.69320 3.57108
# Velocity P-wave (km/s) = 6.04433 6.59733 6.32687
#
# Compressibility (1/GPa) = 0.02261591
#
# Stress axis : x y z
#
# Youngs Moduli (GPa) = 36.92761 79.71547 97.63503
#
# Poissons Ratio (x) = 0.78276 0.18243
# Poissons Ratio (y) = 0.36261 0.18917
# Poissons Ratio (z) = 0.06900 0.15445
#
# Static dielectric constant tensor:
#      x y z
#    x 1.844930 0.000000 0.029220 
#    y 0.000000 1.884230 0.000000 
#    z 0.029220 0.000000 1.813130 
# 
# From -- ./inp_files/245461.got.cif
#   From: 2010.05.17/outbox.cif.g08.bks.cpg/sg15_123_cif.got.tgz:245461.got - 2010.06.03 18:47:42.
