data_PCOD9304258
_publ_section_title
;
Structure prediction by ZEFSAII (Michael W. Deem and Ramdas Pophale) SiO2 
 PCOD9304258
Probable space group: C 2/C
;
_chemical_formula_sum "Si O2"
_cell_formula_units_Z 36
_cell_length_a 13.551367
_cell_length_b 12.863337
_cell_length_c 13.806910
_cell_angle_alpha 90.000000
_cell_angle_beta 140.499690
_cell_angle_gamma 90.000000
_cell_volume 1530.899300
_symmetry_space_group_name_H-M "C 2/C"
_symmetry_group_IT_number 15
_symmetry_cell_setting 'monoclinic'
loop_
_space_group_symop_operation_xyz
x,y,z
-x,y,1/2-z
-x,-y,-z
x,-y,1/2+z
1/2+x,1/2+y,z
1/2-x,1/2+y,1/2-z
1/2-x,1/2-y,-z
1/2+x,1/2-y,1/2+z
loop_
_atom_site_type_symbol
_atom_site_label
_atom_site_fract_x
_atom_site_fract_y
_atom_site_fract_z
Si Si1 0.097871 0.816996 0.603068
Si Si2 0.786547 0.343060 0.454000
Si Si3 0.253960 0.790750 0.112918
Si Si4 0.000000 0.033336 0.750000
Si Si5 0.759369 0.509271 0.089837
O O1 0.123840 0.709802 0.563496
O O2 0.169495 0.797024 0.762648
O O3 0.913977 0.820220 0.471372
O O4 0.189998 0.910072 0.617055
O O5 0.750000 0.250000 0.500000
O O6 0.625661 0.391744 0.294010
O O7 0.854384 0.429799 0.577604
O O8 0.336517 0.903428 0.182001
O O9 0.250000 0.750000 0.000000
O O10 0.895418 0.978306 0.591306
#
# Coordination Sequence:
#
# PCOD9304258 Si02
#       5
#     8   8   8   4   8
#     4  11  23  43  67  96 124 171 222 259 315 383
#     4   8  17  34  63  96 119 150 214 271 306 356
#     4  12  27  42  63  93 136 172 214 262 321 376
#     4   8  16  34  70  88 126 154 222 246 320 368
#     4   9  21  41  69  94 122 172 216 261 309 401
#
# _framework density 23.515591000000001
#
# number of rings (size 3 to 8) (size 9 to 14) (size 15 to 20)
#    1.333    0.889    0.000    2.667    3.111    1.778 
#    0.000    6.667    0.000    0.000    0.000    0.000 
#    0.000    0.000    0.000    0.000    0.000    0.000 
#
# Total GULP energy -100308.491497 kJ/mol
# GULP energy per Si atom -5572.693972 kJ/mol
# Density = 2.346207 g / cm^3
# Si number density = 23.515591 Si / 1000 Ang^3
#
#
#
# Elastic Constant Matrix: (Units=GPa)
#
#
# Indices 1 2 3 4 5 6 
#
# 1 87.4383 23.1493 11.0918 0.0000 -11.7030 0.0000
# 2 23.1493 91.8266 2.5466 0.0000 -7.9434 0.0000
# 3 11.0918 2.5466 63.4462 0.0000 -27.6112 0.0000
# 4 0.0000 0.0000 0.0000 46.5415 0.0000 -54.9963
# 5 -11.7030 -7.9434 -27.6112 0.0000 35.3773 0.0000
# 6 0.0000 0.0000 0.0000 -54.9963 0.0000 164.2823
#
#
#
# Elastic Compliance Matrix: (Units=1/GPa)
#
#
# Indices 1 2 3 4 5 6 
#
# 1 0.012706 -0.002930 -0.000849 0.000000 0.002882 0.000000
# 2 -0.002930 0.011821 0.001168 0.000000 0.002596 0.000000
# 3 -0.000849 0.001168 0.024010 0.000000 0.018721 0.000000
# 4 0.000000 0.000000 0.000000 0.035549 0.000000 0.011900
# 5 0.002882 0.002596 0.018721 0.000000 0.044414 0.000000
# 6 0.000000 0.000000 0.000000 0.011900 0.000000 0.010071
#
#
# Mechanical properties :
#
#
# Convention : Reuss Voigt Hill
#
# Bulk Modulus (GPa) = 23.08764 35.14293 29.11528
# Shear Modulus (GPa) = 31.59917 62.96846 47.28381
#
# Velocity S-wave (km/s) = 3.66970 5.18029 4.48900
# Velocity P-wave (km/s) = 5.27209 7.12443 6.26708
#
# Compressibility (1/GPa) = 0.04331322
#
# Stress axis : x y z
#
# Youngs Moduli (GPa) = 78.70338 84.59515 41.64933
#
# Poissons Ratio (x) = 0.24788 0.03537
# Poissons Ratio (y) = 0.23062 -0.04863
# Poissons Ratio (z) = 0.06684 -0.09878
#
# Static dielectric constant tensor:
#      x y z
#    x 1.936240 0.000000 0.068390 
#    y 0.000000 1.960800 0.000000 
#    z 0.068390 0.000000 1.984450 
# 
# From -- ./inp_files/153677.got.cif
#   From: 2010.05.17/outbox.cif.g08.bks.cpg/sg15_77_cif.got.tgz:153677.got - 2010.06.03 18:47:42.
