data_PCOD9304951
_publ_section_title
;
Structure prediction by ZEFSAII (Michael W. Deem and Ramdas Pophale) SiO2 
 PCOD9304951
Probable space group: C 2/C
;
_chemical_formula_sum "Si O2"
_cell_formula_units_Z 40
_cell_length_a 12.498466
_cell_length_b 11.115460
_cell_length_c 23.020250
_cell_angle_alpha 90.000000
_cell_angle_beta 30.421717
_cell_angle_gamma 90.000000
_cell_volume 1619.400007
_symmetry_space_group_name_H-M "C 2/C"
_symmetry_group_IT_number 15
_symmetry_cell_setting 'monoclinic'
loop_
_space_group_symop_operation_xyz
x,y,z
-x,y,1/2-z
-x,-y,-z
x,-y,1/2+z
1/2+x,1/2+y,z
1/2-x,1/2+y,1/2-z
1/2-x,1/2-y,-z
1/2+x,1/2-y,1/2+z
loop_
_atom_site_type_symbol
_atom_site_label
_atom_site_fract_x
_atom_site_fract_y
_atom_site_fract_z
Si Si1 0.236865 0.696271 0.162340
Si Si2 0.754919 0.059960 0.620333
Si Si3 0.177615 0.826039 0.296554
Si Si4 0.352322 0.115355 0.954490
Si Si5 0.676262 0.427948 0.121827
O O1 0.339722 0.570977 0.098930
O O2 0.223430 0.704694 0.238613
O O3 0.299274 0.819932 0.098902
O O4 0.000000 0.686227 0.250000
O O5 0.500000 0.066862 0.750000
O O6 0.835336 0.161004 0.628400
O O7 0.760053 0.062316 0.549057
O O8 0.396217 0.891840 0.175498
O O9 0.965635 0.872568 0.364349
O O10 0.250000 0.250000 0.000000
O O11 0.302157 0.037271 0.034767
O O12 0.500000 0.472794 0.250000
#
# Coordination Sequence:
#
# PCOD9304951 Si02
#       5
#     8   8   8   8   8
#     4   8  17  37  62  87 116 162 215 245 297 368
#     4   9  19  38  62  87 124 161 206 255 306 368
#     4   9  20  39  62  90 123 163 199 258 319 354
#     4  11  24  39  59  96 130 161 207 256 313 373
#     4   9  21  40  63  88 124 162 213 256 304 366
#
# _framework density 24.700505
#
# number of rings (size 3 to 8) (size 9 to 14) (size 15 to 20)
#    0.000    3.200    0.000    0.000    2.800    7.200 
#    3.600    0.000    4.400    0.000    0.000    0.000 
#    0.000    0.000    0.000    0.000    0.000    0.000 
#
# Total GULP energy -111375.129743 kJ/mol
# GULP energy per Si atom -5568.756487 kJ/mol
# Density = 2.464429 g / cm^3
# Si number density = 24.700505 Si / 1000 Ang^3
#
#
#
# Elastic Constant Matrix: (Units=GPa)
#
#
# Indices 1 2 3 4 5 6 
#
# 1 103.0954 17.8120 -0.0934 0.0001 15.2763 -0.0001
# 2 17.8120 93.3625 24.3342 -0.0008 21.5587 0.0000
# 3 -0.0934 24.3342 66.7996 -0.0042 12.2726 0.0000
# 4 0.0001 -0.0008 -0.0042 36.7732 0.0002 4.3280
# 5 15.2763 21.5587 12.2726 0.0002 51.5410 0.0002
# 6 -0.0001 0.0000 0.0000 4.3280 0.0002 14.9126
#
#
#
# Elastic Compliance Matrix: (Units=1/GPa)
#
#
# Indices 1 2 3 4 5 6 
#
# 1 0.010379 -0.001657 0.001104 0.000000 -0.002646 0.000000
# 2 -0.001657 0.012991 -0.004002 0.000000 -0.003990 0.000000
# 3 0.001104 -0.004002 0.016922 0.000002 -0.002683 -0.000001
# 4 0.000000 0.000000 0.000002 0.028155 0.000000 -0.008172
# 5 -0.002646 -0.003990 -0.002683 0.000000 0.022494 0.000000
# 6 0.000000 0.000000 -0.000001 -0.008172 0.000000 0.069429
#
#
# Mechanical properties :
#
#
# Convention : Reuss Voigt Hill
#
# Bulk Modulus (GPa) = 32.06778 38.59591 35.33185
# Shear Modulus (GPa) = 27.79699 35.39233 31.59466
#
# Velocity S-wave (km/s) = 3.35828 3.78942 3.58034
# Velocity P-wave (km/s) = 5.29606 5.89964 5.60598
#
# Compressibility (1/GPa) = 0.03118394
#
# Stress axis : x y z
#
# Youngs Moduli (GPa) = 96.34722 76.97354 59.09316
#
# Poissons Ratio (x) = 0.12754 -0.06526
# Poissons Ratio (y) = 0.15964 0.23648
# Poissons Ratio (z) = -0.10639 0.30804
#
# Static dielectric constant tensor:
#      x y z
#    x 1.972050 0.000000 -0.055310 
#    y 0.000000 2.094990 0.000000 
#    z -0.055310 0.000000 2.112390 
# 
# From -- ./inp_files/237372.got.cif
#   From: 2010.05.17/outbox.cif.g08.bks.cpg/sg15_119_cif.got.tgz:237372.got - 2010.06.03 18:47:42.
