data_PCOD9304474
_publ_section_title
;
Structure prediction by ZEFSAII (Michael W. Deem and Ramdas Pophale) SiO2 
 PCOD9304474
Probable space group: C 2/C
;
_chemical_formula_sum "Si O2"
_cell_formula_units_Z 56
_cell_length_a 8.104981
_cell_length_b 11.687064
_cell_length_c 24.534021
_cell_angle_alpha 90.000000
_cell_angle_beta 90.169866
_cell_angle_gamma 90.000000
_cell_volume 2323.936448
_symmetry_space_group_name_H-M "C 2/C"
_symmetry_group_IT_number 15
_symmetry_cell_setting 'monoclinic'
loop_
_space_group_symop_operation_xyz
x,y,z
-x,y,1/2-z
-x,-y,-z
x,-y,1/2+z
1/2+x,1/2+y,z
1/2-x,1/2+y,1/2-z
1/2-x,1/2-y,-z
1/2+x,1/2-y,1/2+z
loop_
_atom_site_type_symbol
_atom_site_label
_atom_site_fract_x
_atom_site_fract_y
_atom_site_fract_z
Si Si1 0.406826 0.501483 0.941202
Si Si2 0.871890 0.504620 0.700326
Si Si3 0.972201 0.743990 0.154718
Si Si4 0.362886 0.183712 0.541832
Si Si5 0.366517 0.259509 0.657155
Si Si6 0.486618 0.492991 0.177840
Si Si7 0.361649 0.178858 0.039613
O O1 0.271118 0.599715 0.934224
O O2 0.517955 0.505511 0.888356
O O3 0.275933 0.401223 0.936134
O O4 0.500000 0.500000 0.000000
O O5 0.918423 0.630814 0.675753
O O6 0.671295 0.510948 0.703833
O O7 0.000000 0.496499 0.750000
O O8 0.900855 0.379879 0.672246
O O9 0.168766 0.736922 0.161779
O O10 0.914381 0.861868 0.185273
O O11 0.938412 0.747522 0.089686
O O12 0.250000 0.250000 0.500000
O O13 0.420810 0.258735 0.593121
O O14 0.501918 0.131065 0.502547
O O15 0.423036 0.376388 0.687767
O O16 0.250000 0.250000 0.000000
#
# Coordination Sequence:
#
# PCOD9304474 Si02
#       7
#     8   8   8   8   8   8   8
#     4  12  23  40  59  96 145 189 232 288 337 418
#     4  11  26  49  73  98 136 180 235 299 353 411
#     4  11  23  46  67 103 139 179 236 287 345 423
#     4  12  21  38  62  99 141 186 229 275 340 423
#     4  11  24  45  71 102 143 181 228 289 350 423
#     4  11  23  44  69  99 139 178 227 289 351 414
#     4  12  23  37  62  97 140 191 233 273 348 418
#
# _framework density 24.097047
#
# number of rings (size 3 to 8) (size 9 to 14) (size 15 to 20)
#    0.000    0.571    5.714    3.857    0.000    3.429 
#    2.571    0.714    0.000    0.000    0.000    0.000 
#    0.000    0.000    0.000    0.000    0.000    0.000 
#
# Total GULP energy -155873.677983 kJ/mol
# GULP energy per Si atom -5566.917071 kJ/mol
# Density = 2.404220 g / cm^3
# Si number density = 24.097047 Si / 1000 Ang^3
#
#
#
# Elastic Constant Matrix: (Units=GPa)
#
#
# Indices 1 2 3 4 5 6 
#
# 1 57.2673 41.2976 4.5884 0.0000 24.8065 0.0000
# 2 41.2976 214.2488 39.1076 0.0000 8.2495 0.0000
# 3 4.5884 39.1076 98.2366 0.0000 33.1034 0.0000
# 4 0.0000 0.0000 0.0000 24.2746 0.0000 12.9484
# 5 24.8065 8.2495 33.1034 0.0000 29.1766 0.0000
# 6 0.0000 0.0000 0.0000 12.9484 0.0000 37.6740
#
#
#
# Elastic Compliance Matrix: (Units=1/GPa)
#
#
# Indices 1 2 3 4 5 6 
#
# 1 0.061028 -0.014175 0.030642 0.000000 -0.082646 0.000000
# 2 -0.014175 0.008360 -0.009601 0.000000 0.020581 0.000000
# 3 0.030642 -0.009601 0.033084 0.000000 -0.060874 0.000000
# 4 0.000000 0.000000 0.000000 0.050443 0.000000 -0.017337
# 5 -0.082646 0.020581 -0.060874 0.000000 0.167789 0.000000
# 6 0.000000 0.000000 0.000000 -0.017337 0.000000 0.032502
#
#
# Mechanical properties :
#
#
# Convention : Reuss Voigt Hill
#
# Bulk Modulus (GPa) = 8.60556 59.97111 34.28834
# Shear Modulus (GPa) = 13.22023 37.20899 25.21461
#
# Velocity S-wave (km/s) = 2.34481 3.93381 3.23829
# Velocity P-wave (km/s) = 3.30300 6.75089 5.31433
#
# Compressibility (1/GPa) = 0.11620394
#
# Stress axis : x y z
#
# Youngs Moduli (GPa) = 16.38584 119.62013 30.22636
#
# Poissons Ratio (x) = 1.69556 -0.92620
# Poissons Ratio (y) = 0.23226 0.29022
# Poissons Ratio (z) = -0.50209 1.14852
#
# Static dielectric constant tensor:
#      x y z
#    x 2.187790 0.000000 -0.601780 
#    y 0.000000 1.960530 0.000000 
#    z -0.601780 0.000000 2.729770 
# 
# From -- ./inp_files/288053.got.cif
#   From: 2010.05.17/outbox.cif.g08.bks.cpg/sg15_145_cif.got.tgz:288053.got - 2010.06.03 18:47:42.
