data_PCOD9304078
_publ_section_title
;
Structure prediction by ZEFSAII (Michael W. Deem and Ramdas Pophale) SiO2 
 PCOD9304078
Probable space group: C 2/C
;
_chemical_formula_sum "Si O2"
_cell_formula_units_Z 48
_cell_length_a 26.854511
_cell_length_b 7.309094
_cell_length_c 9.531673
_cell_angle_alpha 90.000000
_cell_angle_beta 89.434750
_cell_angle_gamma 90.000000
_cell_volume 1870.806180
_symmetry_space_group_name_H-M "C 2/C"
_symmetry_group_IT_number 15
_symmetry_cell_setting 'monoclinic'
loop_
_space_group_symop_operation_xyz
x,y,z
-x,y,1/2-z
-x,-y,-z
x,-y,1/2+z
1/2+x,1/2+y,z
1/2-x,1/2+y,1/2-z
1/2-x,1/2-y,-z
1/2+x,1/2-y,1/2+z
loop_
_atom_site_type_symbol
_atom_site_label
_atom_site_fract_x
_atom_site_fract_y
_atom_site_fract_z
Si Si1 0.441159 0.043462 0.499543
Si Si2 0.057686 0.977776 0.024216
Si Si3 0.374272 0.975982 0.246819
Si Si4 0.382383 0.429242 0.737778
Si Si5 0.292573 0.496068 0.937814
Si Si6 0.715435 0.736997 0.791034
O O1 0.435788 0.259097 0.466653
O O2 0.397098 0.964948 0.401192
O O3 0.500000 0.000000 0.500000
O O4 0.422243 0.981953 0.651971
O O5 0.094666 0.032685 0.895961
O O6 0.069313 0.088684 0.164277
O O7 0.000000 0.000000 0.000000
O O8 0.329693 0.117891 0.223432
O O9 0.360529 0.769217 0.201494
O O10 0.345011 0.514906 0.853268
O O11 0.268351 0.674271 0.865272
O O12 0.261105 0.334945 0.866196
O O13 0.296870 0.432910 0.099617
#
# Coordination Sequence:
#
# PCOD9304078 Si02
#       6
#     8   8   8   8   8   8
#     4  11  24  41  64  94 132 177 224 279 345 417
#     4  11  24  40  63  96 131 173 224 279 342 412
#     4  11  24  43  66  95 132 177 226 283 347 414
#     4  11  23  42  66  94 132 174 224 282 343 410
#     4  11  24  43  69 101 139 183 233 292 352 416
#     4  11  25  45  70 102 140 183 235 292 353 424
#
# _framework density 25.657385999999999
#
# number of rings (size 3 to 8) (size 9 to 14) (size 15 to 20)
#    0.000    1.000    0.000    6.000    0.000   11.333 
#    0.000    0.000    0.000    0.000    0.000    0.000 
#    0.000    0.000    0.000    0.000    0.000    0.000 
#
# Total GULP energy -133931.833135 kJ/mol
# GULP energy per Si atom -5580.493047 kJ/mol
# Density = 2.559899 g / cm^3
# Si number density = 25.657386 Si / 1000 Ang^3
#
#
#
# Elastic Constant Matrix: (Units=GPa)
#
#
# Indices 1 2 3 4 5 6 
#
# 1 71.6554 -12.3352 18.3690 0.0000 -0.1030 0.0000
# 2 -12.3352 96.5475 6.0483 0.0000 -5.4966 0.0000
# 3 18.3690 6.0483 134.6704 0.0000 -2.9029 0.0000
# 4 0.0000 0.0000 0.0000 34.9855 0.0000 8.1792
# 5 -0.1030 -5.4966 -2.9029 0.0000 35.8083 0.0000
# 6 0.0000 0.0000 0.0000 8.1792 0.0000 43.3997
#
#
#
# Elastic Compliance Matrix: (Units=1/GPa)
#
#
# Indices 1 2 3 4 5 6 
#
# 1 0.014849 0.002040 -0.002113 0.000000 0.000185 0.000000
# 2 0.002040 0.010755 -0.000727 0.000000 0.001598 0.000000
# 3 -0.002113 -0.000727 0.007757 0.000000 0.000511 0.000000
# 4 0.000000 0.000000 0.000000 0.029901 0.000000 -0.005635
# 5 0.000185 0.001598 0.000511 0.000000 0.028214 0.000000
# 6 0.000000 0.000000 0.000000 -0.005635 0.000000 0.024104
#
#
# Mechanical properties :
#
#
# Convention : Reuss Voigt Hill
#
# Bulk Modulus (GPa) = 31.48489 36.33752 33.91120
# Shear Modulus (GPa) = 39.13409 42.22477 40.67943
#
# Velocity S-wave (km/s) = 3.90969 4.06114 3.98614
# Velocity P-wave (km/s) = 5.71654 6.01530 5.86782
#
# Compressibility (1/GPa) = 0.03176127
#
# Stress axis : x y z
#
# Youngs Moduli (GPa) = 67.34545 92.98235 128.90892
#
# Poissons Ratio (x) = -0.18968 0.27239
# Poissons Ratio (y) = -0.13739 0.09370
# Poissons Ratio (z) = 0.14230 0.06758
#
# Static dielectric constant tensor:
#      x y z
#    x 2.061980 0.000000 0.028130 
#    y 0.000000 2.157060 0.000000 
#    z 0.028130 0.000000 2.123390 
# 
# From -- ./inp_files/68593.got.cif
#   From: 2010.05.17/outbox.cif.g08.bks.cpg/sg15_35_cif.got.tgz:68593.got - 2010.06.03 18:47:42.
