data_PCOD9304350
_publ_section_title
;
Structure prediction by ZEFSAII (Michael W. Deem and Ramdas Pophale) SiO2 
 PCOD9304350
Probable space group: C 2/C
;
_chemical_formula_sum "Si O2"
_cell_formula_units_Z 48
_cell_length_a 14.046077
_cell_length_b 11.863267
_cell_length_c 21.781070
_cell_angle_alpha 90.000000
_cell_angle_beta 40.835677
_cell_angle_gamma 90.000000
_cell_volume 2373.255417
_symmetry_space_group_name_H-M "C 2/C"
_symmetry_group_IT_number 15
_symmetry_cell_setting 'monoclinic'
loop_
_space_group_symop_operation_xyz
x,y,z
-x,y,1/2-z
-x,-y,-z
x,-y,1/2+z
1/2+x,1/2+y,z
1/2-x,1/2+y,1/2-z
1/2-x,1/2-y,-z
1/2+x,1/2-y,1/2+z
loop_
_atom_site_type_symbol
_atom_site_label
_atom_site_fract_x
_atom_site_fract_y
_atom_site_fract_z
Si Si1 0.426044 0.926590 0.851751
Si Si2 0.837011 0.225050 0.175554
Si Si3 0.417562 0.542164 0.228555
Si Si4 0.919944 0.471744 0.102581
Si Si5 0.984654 0.801886 0.141002
Si Si6 0.121672 0.088005 0.462860
O O1 0.500000 0.953862 0.750000
O O2 0.430447 0.791069 0.860752
O O3 0.258739 0.965919 0.930954
O O4 0.507691 0.975061 0.871630
O O5 0.925675 0.146183 0.178163
O O6 0.916052 0.338004 0.115889
O O7 0.682686 0.261979 0.279285
O O8 0.809514 0.147905 0.129797
O O9 0.500000 0.571317 0.250000
O O10 0.246497 0.514894 0.320740
O O11 0.486169 0.426352 0.169340
O O12 0.000000 0.500000 0.000000
O O13 0.049980 0.818798 0.041815
O O14 0.000000 0.000000 0.500000
#
# Coordination Sequence:
#
# PCOD9304350 Si02
#       6
#     8   8   8   8   8   8
#     4  12  24  45  70 103 138 184 232 287 351 408
#     4  11  24  46  66 102 139 179 226 284 349 409
#     4  11  24  43  67  97 139 179 227 280 340 405
#     4  11  26  45  68 102 142 180 228 283 347 418
#     4  11  23  43  71  99 137 177 229 292 340 408
#     4  12  25  44  73 102 138 177 237 287 343 411
#
# _framework density 20.225383999999998
#
# number of rings (size 3 to 8) (size 9 to 14) (size 15 to 20)
#    0.000    0.667    5.000    2.000    7.000    0.667 
#    0.000    1.667    0.000    0.000    0.000    0.000 
#    0.000    0.000    0.000    0.000    0.000    0.000 
#
# Total GULP energy -134179.195284 kJ/mol
# GULP energy per Si atom -5590.799804 kJ/mol
# Density = 2.017935 g / cm^3
# Si number density = 20.225384 Si / 1000 Ang^3
#
#
#
# Elastic Constant Matrix: (Units=GPa)
#
#
# Indices 1 2 3 4 5 6 
#
# 1 150.8988 31.8671 47.9794 0.0000 8.1193 0.0000
# 2 31.8671 74.2685 10.1110 0.0000 -0.6873 0.0000
# 3 47.9794 10.1110 75.7857 0.0000 4.3807 0.0000
# 4 0.0000 0.0000 0.0000 26.4504 0.0000 3.4413
# 5 8.1193 -0.6873 4.3807 0.0000 34.1166 0.0000
# 6 0.0000 0.0000 0.0000 3.4413 0.0000 30.8336
#
#
#
# Elastic Compliance Matrix: (Units=1/GPa)
#
#
# Indices 1 2 3 4 5 6 
#
# 1 0.009038 -0.003183 -0.005208 0.000000 -0.001546 0.000000
# 2 -0.003183 0.014844 -0.000026 0.000000 0.001060 0.000000
# 3 -0.005208 -0.000026 0.016547 0.000000 -0.000886 0.000000
# 4 0.000000 0.000000 0.000000 0.038364 0.000000 -0.004282
# 5 -0.001546 0.001060 -0.000886 0.000000 0.029814 0.000000
# 6 0.000000 0.000000 0.000000 -0.004282 0.000000 0.032910
#
#
# Mechanical properties :
#
#
# Convention : Reuss Voigt Hill
#
# Bulk Modulus (GPa) = 42.38393 53.42978 47.90685
# Shear Modulus (GPa) = 30.08106 32.34649 31.21377
#
# Velocity S-wave (km/s) = 3.86073 4.00347 3.93274
# Velocity P-wave (km/s) = 6.39335 6.91700 6.66032
#
# Compressibility (1/GPa) = 0.02359385
#
# Stress axis : x y z
#
# Youngs Moduli (GPa) = 110.63915 67.36726 60.43405
#
# Poissons Ratio (x) = 0.21446 0.31474
# Poissons Ratio (y) = 0.35222 0.00159
# Poissons Ratio (z) = 0.57621 0.00177
#
# Static dielectric constant tensor:
#      x y z
#    x 1.740050 0.000000 0.011820 
#    y 0.000000 1.713100 0.000000 
#    z 0.011820 0.000000 1.727770 
# 
# From -- ./inp_files/152027.got.cif
#   From: 2010.05.17/outbox.cif.g08.bks.cpg/sg15_77_cif.got.tgz:152027.got - 2010.06.03 18:47:42.
