data_PCOD9304095
_publ_section_title
;
Structure prediction by ZEFSAII (Michael W. Deem and Ramdas Pophale) SiO2 
 PCOD9304095
Probable space group: C 2/C
;
_chemical_formula_sum "Si O2"
_cell_formula_units_Z 40
_cell_length_a 12.502021
_cell_length_b 15.759343
_cell_length_c 9.180006
_cell_angle_alpha 90.000000
_cell_angle_beta 72.440931
_cell_angle_gamma 90.000000
_cell_volume 1724.405401
_symmetry_space_group_name_H-M "C 2/C"
_symmetry_group_IT_number 15
_symmetry_cell_setting 'monoclinic'
loop_
_space_group_symop_operation_xyz
x,y,z
-x,y,1/2-z
-x,-y,-z
x,-y,1/2+z
1/2+x,1/2+y,z
1/2-x,1/2+y,1/2-z
1/2-x,1/2-y,-z
1/2+x,1/2-y,1/2+z
loop_
_atom_site_type_symbol
_atom_site_label
_atom_site_fract_x
_atom_site_fract_y
_atom_site_fract_z
Si Si1 0.174271 0.398241 0.236357
Si Si2 0.787025 0.579297 0.339357
Si Si3 0.687119 0.820946 0.933956
Si Si4 0.935130 0.297650 0.973202
Si Si5 0.379024 0.616035 0.859112
O O1 0.158322 0.498726 0.263038
O O2 0.097719 0.330813 0.352521
O O3 0.296322 0.379202 0.254932
O O4 0.163643 0.389086 0.068666
O O5 0.744664 0.640456 0.227903
O O6 0.878535 0.629801 0.396813
O O7 0.685264 0.559595 0.492712
O O8 0.568800 0.792230 0.916089
O O9 0.750000 0.750000 0.000000
O O10 0.889171 0.208102 0.933192
O O11 0.500000 0.588856 0.750000
#
# Coordination Sequence:
#
# PCOD9304095 Si02
#       5
#     8   8   8   8   8
#     4  11  24  41  64  96 131 168 218 274 327 392
#     4  11  24  41  64  96 132 171 216 272 334 392
#     4  12  23  39  65  98 128 165 221 273 320 388
#     4  11  23  42  67  92 130 178 216 263 332 398
#     4  11  23  45  68  89 130 183 224 265 330 398
#
# _framework density 23.196401999999999
#
# number of rings (size 3 to 8) (size 9 to 14) (size 15 to 20)
#    0.000    0.800    0.000   10.800    0.000    5.600 
#    0.000    5.000    0.000    0.000    0.000    0.000 
#    0.000    0.000    0.000    0.000    0.000    0.000 
#
# Total GULP energy -111786.254905 kJ/mol
# GULP energy per Si atom -5589.312745 kJ/mol
# Density = 2.314361 g / cm^3
# Si number density = 23.196402 Si / 1000 Ang^3
#
#
#
# Elastic Constant Matrix: (Units=GPa)
#
#
# Indices 1 2 3 4 5 6 
#
# 1 70.8201 -6.9834 15.9663 0.0000 4.0887 0.0000
# 2 -6.9834 70.0798 5.4807 0.0000 14.1652 0.0000
# 3 15.9663 5.4807 118.1652 0.0000 15.1884 0.0000
# 4 0.0000 0.0000 0.0000 41.4851 0.0000 9.0027
# 5 4.0887 14.1652 15.1884 0.0000 32.6038 0.0000
# 6 0.0000 0.0000 0.0000 9.0027 0.0000 5.6443
#
#
#
# Elastic Compliance Matrix: (Units=1/GPa)
#
#
# Indices 1 2 3 4 5 6 
#
# 1 0.014844 0.002002 -0.001859 0.000000 -0.001865 0.000000
# 2 0.002002 0.015916 -0.000093 0.000000 -0.007122 0.000000
# 3 -0.001859 -0.000093 0.009236 0.000000 -0.004029 0.000000
# 4 0.000000 0.000000 0.000000 0.036865 0.000000 -0.058799
# 5 -0.001865 -0.007122 -0.004029 0.000000 0.035877 0.000000
# 6 0.000000 0.000000 0.000000 -0.058799 0.000000 0.270953
#
#
# Mechanical properties :
#
#
# Convention : Reuss Voigt Hill
#
# Bulk Modulus (GPa) = 24.94036 31.99912 28.46974
# Shear Modulus (GPa) = 12.59584 32.25343 22.42463
#
# Velocity S-wave (km/s) = 2.33278 3.73292 3.11260
# Velocity P-wave (km/s) = 4.24629 5.69249 5.02172
#
# Compressibility (1/GPa) = 0.04009566
#
# Stress axis : x y z
#
# Youngs Moduli (GPa) = 67.36532 62.83038 108.27096
#
# Poissons Ratio (x) = -0.12576 0.20126
# Poissons Ratio (y) = -0.13484 0.01009
# Poissons Ratio (z) = 0.12522 0.00585
#
# Static dielectric constant tensor:
#      x y z
#    x 1.847600 0.000000 -0.069740 
#    y 0.000000 2.023260 0.000000 
#    z -0.069740 0.000000 1.952090 
# 
# From -- ./inp_files/29084.got.cif
#   From: 2010.05.17/outbox.cif.g08.bks.cpg/sg15_15_cif.got.tgz:29084.got - 2010.06.03 18:47:42.
