data_PCOD9304110
_publ_section_title
;
Structure prediction by ZEFSAII (Michael W. Deem and Ramdas Pophale) SiO2 
 PCOD9304110
Probable space group: C 2/C
;
_chemical_formula_sum "Si O2"
_cell_formula_units_Z 48
_cell_length_a 12.662134
_cell_length_b 13.438391
_cell_length_c 21.224177
_cell_angle_alpha 90.000000
_cell_angle_beta 144.437630
_cell_angle_gamma 90.000000
_cell_volume 2100.395559
_symmetry_space_group_name_H-M "C 2/C"
_symmetry_group_IT_number 15
_symmetry_cell_setting 'monoclinic'
loop_
_space_group_symop_operation_xyz
x,y,z
-x,y,1/2-z
-x,-y,-z
x,-y,1/2+z
1/2+x,1/2+y,z
1/2-x,1/2+y,1/2-z
1/2-x,1/2-y,-z
1/2+x,1/2-y,1/2+z
loop_
_atom_site_type_symbol
_atom_site_label
_atom_site_fract_x
_atom_site_fract_y
_atom_site_fract_z
Si Si1 0.237343 0.704305 0.316067
Si Si2 0.201543 0.880067 0.524335
Si Si3 0.469436 0.426578 0.596981
Si Si4 0.156330 0.415090 0.533966
Si Si5 0.003085 0.689735 0.082762
Si Si6 0.243186 0.440214 0.183184
O O1 0.193241 0.659249 0.362932
O O2 0.436008 0.659482 0.397047
O O3 0.215884 0.823398 0.305027
O O4 0.131081 0.667368 0.203395
O O5 0.029350 0.807162 0.437881
O O6 0.314004 0.856634 0.515545
O O7 0.143274 0.993717 0.498778
O O8 0.322581 0.378462 0.572989
O O9 0.618322 0.496885 0.706046
O O10 0.241367 0.506688 0.614478
O O11 0.082155 0.347513 0.555310
O O12 0.974692 0.443242 0.406157
#
# Coordination Sequence:
#
# PCOD9304110 Si02
#       6
#     8   8   8   8   8   8
#     4  12  25  43  68 104 140 177 229 287 352 404
#     4  11  24  43  67 101 138 181 227 286 345 404
#     4  12  26  42  74 101 139 182 226 289 352 408
#     4  11  24  45  71 102 135 182 235 285 335 412
#     4  11  23  42  70 100 136 181 234 282 336 413
#     4  11  23  42  68 101 136 178 233 280 334 415
#
# _framework density 22.852838999999999
#
# number of rings (size 3 to 8) (size 9 to 14) (size 15 to 20)
#    0.000    0.667    5.000    3.500    2.333    2.000 
#    0.000    0.000    0.000    0.000    0.000    0.000 
#    0.000    0.000    0.000    0.000    0.000    0.000 
#
# Total GULP energy -134016.481392 kJ/mol
# GULP energy per Si atom -5584.020058 kJ/mol
# Density = 2.280082 g / cm^3
# Si number density = 22.852839 Si / 1000 Ang^3
#
#
#
# Elastic Constant Matrix: (Units=GPa)
#
#
# Indices 1 2 3 4 5 6 
#
# 1 141.7100 47.6317 14.9308 0.0000 4.5850 0.0000
# 2 47.6317 66.6995 7.1991 0.0000 -0.0820 0.0000
# 3 14.9308 7.1991 97.0905 0.0001 -15.6707 0.0000
# 4 0.0000 0.0000 0.0001 24.6071 0.0000 -4.3303
# 5 4.5850 -0.0820 -15.6707 0.0000 25.4484 0.0000
# 6 0.0000 0.0000 0.0000 -4.3303 0.0000 27.1484
#
#
#
# Elastic Compliance Matrix: (Units=1/GPa)
#
#
# Indices 1 2 3 4 5 6 
#
# 1 0.009524 -0.006654 -0.001390 0.000000 -0.002593 0.000000
# 2 -0.006654 0.019775 -0.000266 0.000000 0.001099 0.000000
# 3 -0.001390 -0.000266 0.011740 0.000000 0.007479 0.000000
# 4 0.000000 0.000000 0.000000 0.041812 0.000000 0.006669
# 5 -0.002593 0.001099 0.007479 0.000000 0.044371 0.000000
# 6 0.000000 0.000000 0.000000 0.006669 0.000000 0.037898
#
#
# Mechanical properties :
#
#
# Convention : Reuss Voigt Hill
#
# Bulk Modulus (GPa) = 40.95099 49.44702 45.19900
# Shear Modulus (GPa) = 26.33253 31.15666 28.74459
#
# Velocity S-wave (km/s) = 3.39819 3.69638 3.55041
# Velocity P-wave (km/s) = 5.77540 6.31678 6.05215
#
# Compressibility (1/GPa) = 0.02441943
#
# Stress axis : x y z
#
# Youngs Moduli (GPa) = 105.00214 50.57001 85.17745
#
# Poissons Ratio (x) = 0.33650 0.11837
# Poissons Ratio (y) = 0.69871 0.02262
# Poissons Ratio (z) = 0.14592 0.01343
#
# Static dielectric constant tensor:
#      x y z
#    x 1.840240 0.000000 0.044380 
#    y 0.000000 1.888530 0.000000 
#    z 0.044380 0.000000 1.940460 
# 
# From -- ./inp_files/239010.got.cif
#   From: 2010.05.17/outbox.cif.g08.bks.cpg/sg15_120_cif.got.tgz:239010.got - 2010.06.03 18:47:42.
