data_PCOD9304263
_publ_section_title
;
Structure prediction by ZEFSAII (Michael W. Deem and Ramdas Pophale) SiO2 
 PCOD9304263
Probable space group: C 2/C
;
_chemical_formula_sum "Si O2"
_cell_formula_units_Z 48
_cell_length_a 25.690706
_cell_length_b 9.722628
_cell_length_c 10.009792
_cell_angle_alpha 90.000000
_cell_angle_beta 89.532092
_cell_angle_gamma 90.000000
_cell_volume 2500.174259
_symmetry_space_group_name_H-M "C 2/C"
_symmetry_group_IT_number 15
_symmetry_cell_setting 'monoclinic'
loop_
_space_group_symop_operation_xyz
x,y,z
-x,y,1/2-z
-x,-y,-z
x,-y,1/2+z
1/2+x,1/2+y,z
1/2-x,1/2+y,1/2-z
1/2-x,1/2-y,-z
1/2+x,1/2-y,1/2+z
loop_
_atom_site_type_symbol
_atom_site_label
_atom_site_fract_x
_atom_site_fract_y
_atom_site_fract_z
Si Si1 0.937061 0.236444 0.281870
Si Si2 0.964878 0.955928 0.377921
Si Si3 0.139522 0.447599 0.085432
Si Si4 0.110160 0.751975 0.008348
Si Si5 0.781069 0.825095 0.380253
Si Si6 0.707323 0.924041 0.822551
O O1 0.908250 0.349585 0.372848
O O2 0.905824 0.229103 0.144058
O O3 0.000000 0.256634 0.250000
O O4 0.929822 0.088674 0.350721
O O5 0.936167 0.816148 0.407088
O O6 0.000000 0.938148 0.250000
O O7 0.000000 0.000000 0.500000
O O8 0.172307 0.487693 0.217766
O O9 0.118036 0.592491 0.034222
O O10 0.176455 0.397187 0.962393
O O11 0.161060 0.830338 0.060837
O O12 0.750000 0.750000 0.500000
O O13 0.780099 0.719303 0.253987
O O14 0.755595 0.973168 0.351121
#
# Coordination Sequence:
#
# PCOD9304263 Si02
#       6
#     8   8   8   8   8   8
#     4  11  23  44  69  96 136 176 221 275 328 390
#     4  11  23  44  66  94 135 171 219 275 325 391
#     4  11  23  44  68  96 137 170 226 273 328 393
#     4  11  23  43  67  98 133 175 215 275 329 391
#     4  11  23  44  69  96 137 172 217 273 334 391
#     4  11  23  45  67  97 136 174 217 281 325 395
#
# _framework density 19.198663
#
# number of rings (size 3 to 8) (size 9 to 14) (size 15 to 20)
#    0.000    1.000    8.333    0.000    0.000    7.333 
#    3.000    0.000    0.000    0.000    0.000    0.000 
#    0.000    0.000    0.000    0.000    0.000    0.000 
#
# Total GULP energy -133879.907386 kJ/mol
# GULP energy per Si atom -5578.329474 kJ/mol
# Density = 1.915497 g / cm^3
# Si number density = 19.198663 Si / 1000 Ang^3
#
#
#
# Elastic Constant Matrix: (Units=GPa)
#
#
# Indices 1 2 3 4 5 6 
#
# 1 62.4520 36.3492 40.6987 0.0000 -3.6715 0.0000
# 2 36.3492 54.6834 22.5228 0.0000 5.4129 0.0000
# 3 40.6987 22.5228 118.6792 0.0000 2.1394 0.0000
# 4 0.0000 0.0000 0.0000 17.0784 0.0000 3.8979
# 5 -3.6715 5.4129 2.1394 0.0000 36.7141 0.0000
# 6 0.0000 0.0000 0.0000 3.8979 0.0000 29.1640
#
#
#
# Elastic Compliance Matrix: (Units=1/GPa)
#
#
# Indices 1 2 3 4 5 6 
#
# 1 0.032481 -0.019091 -0.007633 0.000000 0.006508 0.000000
# 2 -0.019091 0.031331 0.000719 0.000000 -0.006570 0.000000
# 3 -0.007633 0.000719 0.010934 0.000000 -0.001507 0.000000
# 4 0.000000 0.000000 0.000000 0.060396 0.000000 -0.008072
# 5 0.006508 -0.006570 -0.001507 0.000000 0.028945 0.000000
# 6 0.000000 0.000000 0.000000 -0.008072 0.000000 0.035368
#
#
# Mechanical properties :
#
#
# Convention : Reuss Voigt Hill
#
# Bulk Modulus (GPa) = 43.98072 48.32847 46.15460
# Shear Modulus (GPa) = 19.30183 25.67422 22.48802
#
# Velocity S-wave (km/s) = 3.17420 3.66087 3.42619
# Velocity P-wave (km/s) = 6.03258 6.56481 6.30432
#
# Compressibility (1/GPa) = 0.02273723
#
# Stress axis : x y z
#
# Youngs Moduli (GPa) = 30.78756 31.91684 91.45554
#
# Poissons Ratio (x) = 0.60932 0.69807
# Poissons Ratio (y) = 0.58776 -0.06578
# Poissons Ratio (z) = 0.23500 -0.02296
#
# Static dielectric constant tensor:
#      x y z
#    x 1.680370 0.000000 -0.009320 
#    y 0.000000 1.667250 0.000000 
#    z -0.009320 0.000000 1.689480 
# 
# From -- ./inp_files/116379.got.cif
#   From: 2010.05.17/outbox.cif.g08.bks.cpg/sg15_59_cif.got.tgz:116379.got - 2010.06.03 18:47:42.
