data_PCOD9304396
_publ_section_title
;
Structure prediction by ZEFSAII (Michael W. Deem and Ramdas Pophale) SiO2 
 PCOD9304396
Probable space group: C 2/C
;
_chemical_formula_sum "Si O2"
_cell_formula_units_Z 64
_cell_length_a 12.048517
_cell_length_b 18.237781
_cell_length_c 14.681109
_cell_angle_alpha 90.000000
_cell_angle_beta 48.316889
_cell_angle_gamma 90.000000
_cell_volume 2409.287761
_symmetry_space_group_name_H-M "C 2/C"
_symmetry_group_IT_number 15
_symmetry_cell_setting 'monoclinic'
loop_
_space_group_symop_operation_xyz
x,y,z
-x,y,1/2-z
-x,-y,-z
x,-y,1/2+z
1/2+x,1/2+y,z
1/2-x,1/2+y,1/2-z
1/2-x,1/2-y,-z
1/2+x,1/2-y,1/2+z
loop_
_atom_site_type_symbol
_atom_site_label
_atom_site_fract_x
_atom_site_fract_y
_atom_site_fract_z
Si Si1 0.318152 0.765007 0.090109
Si Si2 0.105600 0.411790 0.496044
Si Si3 0.594315 0.439371 0.104978
Si Si4 0.842730 0.497910 0.212830
Si Si5 0.646655 0.373655 0.801118
Si Si6 0.071989 0.191219 0.850550
Si Si7 0.680097 0.394586 0.576049
Si Si8 0.656066 0.844514 0.177873
O O1 0.417779 0.838634 0.050966
O O2 0.315063 0.692804 0.154565
O O3 0.153463 0.795087 0.209422
O O4 0.421049 0.737341 0.948677
O O5 0.251632 0.394510 0.475103
O O6 0.157991 0.469790 0.391467
O O7 0.981893 0.445433 0.629715
O O8 0.500000 0.443808 0.250000
O O9 0.481713 0.392914 0.105683
O O10 0.651816 0.521204 0.061875
O O11 0.700414 0.548340 0.313813
O O12 0.859474 0.424774 0.263987
O O13 0.714337 0.380549 0.662583
O O14 0.475840 0.362148 0.870484
O O15 0.209770 0.198486 0.846095
O O16 0.803863 0.361731 0.446736
O O17 0.500000 0.804076 0.250000
#
# Coordination Sequence:
#
# PCOD9304396 Si02
#       8
#     8   8   8   8   8   8   8   8
#     4  12  26  49  70 112 158 205 259 307 414 463
#     4  11  23  44  77 107 154 203 252 319 383 474
#     4  12  21  45  77 107 141 196 260 318 387 452
#     4  11  23  45  76 110 146 202 256 325 381 454
#     4  11  23  43  74 105 147 198 255 316 384 464
#     4  12  28  48  75 106 155 209 256 327 386 479
#     4  11  23  43  75 114 143 192 262 325 384 457
#     4  12  26  45  72 115 147 191 260 329 387 460
#
# _framework density 26.563869
#
# number of rings (size 3 to 8) (size 9 to 14) (size 15 to 20)
#    0.000    0.500    6.250    2.250    3.500    2.500 
#    2.250    1.250    0.000    0.000    0.000    0.000 
#    0.000    0.000    0.000    0.000    0.000    0.000 
#
# Total GULP energy -178549.371518 kJ/mol
# GULP energy per Si atom -5579.667860 kJ/mol
# Density = 2.650341 g / cm^3
# Si number density = 26.563869 Si / 1000 Ang^3
#
#
#
# Elastic Constant Matrix: (Units=GPa)
#
#
# Indices 1 2 3 4 5 6 
#
# 1 69.0433 -6.4715 17.6004 0.0000 -15.2136 0.0000
# 2 -6.4715 93.1230 23.3959 0.0000 5.3013 0.0000
# 3 17.6004 23.3959 153.1056 0.0000 -9.4924 0.0000
# 4 0.0000 0.0000 0.0000 34.7582 0.0000 9.3391
# 5 -15.2136 5.3013 -9.4924 0.0000 31.1664 0.0000
# 6 0.0000 0.0000 0.0000 9.3391 0.0000 -9.2596
#
#
#
# Elastic Compliance Matrix: (Units=1/GPa)
#
#
# Indices 1 2 3 4 5 6 
#
# 1 0.016644 0.001142 -0.001627 0.000000 0.007435 0.000000
# 2 0.001142 0.011435 -0.002002 0.000000 -0.001997 0.000000
# 3 -0.001627 -0.002002 0.007131 0.000000 0.001718 0.000000
# 4 0.000000 0.000000 0.000000 0.022636 0.000000 0.022830
# 5 0.007435 -0.001997 0.001718 0.000000 0.036578 0.000000
# 6 0.000000 0.000000 0.000000 0.022830 0.000000 -0.084970
#
#
# Mechanical properties :
#
#
# Convention : Reuss Voigt Hill
#
# Bulk Modulus (GPa) = 33.07435 42.70240 37.88837
# Shear Modulus (GPa) = 204.02645 30.04946 117.03795
#
# Velocity S-wave (km/s) = 8.77341 3.36700 6.64490
# Velocity P-wave (km/s) = 10.72885 5.58801 8.55377
#
# Compressibility (1/GPa) = 0.03023491
#
# Stress axis : x y z
#
# Youngs Moduli (GPa) = 60.08292 87.45348 140.23303
#
# Poissons Ratio (x) = -0.09988 0.22814
# Poissons Ratio (y) = -0.06862 0.28081
# Poissons Ratio (z) = 0.09775 0.17512
#
# Static dielectric constant tensor:
#      x y z
#    x 2.359850 0.000000 -0.052380 
#    y 0.000000 2.198980 0.000000 
#    z -0.052380 0.000000 2.091200 
# 
# From -- ./inp_files/206458.got.cif
#   From: 2010.05.17/outbox.cif.g08.bks.cpg/sg15_104_cif.got.tgz:206458.got - 2010.06.03 18:47:42.
