data_PCOD9304594
_publ_section_title
;
Structure prediction by ZEFSAII (Michael W. Deem and Ramdas Pophale) SiO2 
 PCOD9304594
Probable space group: C 2/C
;
_chemical_formula_sum "Si O2"
_cell_formula_units_Z 32
_cell_length_a 4.931287
_cell_length_b 19.138659
_cell_length_c 13.179473
_cell_angle_alpha 90.000000
_cell_angle_beta 91.041217
_cell_angle_gamma 90.000000
_cell_volume 1243.649823
_symmetry_space_group_name_H-M "C 2/C"
_symmetry_group_IT_number 15
_symmetry_cell_setting 'monoclinic'
loop_
_space_group_symop_operation_xyz
x,y,z
-x,y,1/2-z
-x,-y,-z
x,-y,1/2+z
1/2+x,1/2+y,z
1/2-x,1/2+y,1/2-z
1/2-x,1/2-y,-z
1/2+x,1/2-y,1/2+z
loop_
_atom_site_type_symbol
_atom_site_label
_atom_site_fract_x
_atom_site_fract_y
_atom_site_fract_z
Si Si1 0.585038 0.696867 0.132215
Si Si2 0.593180 0.107521 0.078537
Si Si3 0.739046 0.335611 0.315379
Si Si4 0.715637 0.530571 0.921295
O O1 0.500000 0.699321 0.250000
O O2 0.654807 0.777017 0.105600
O O3 0.846809 0.648717 0.125148
O O4 0.343192 0.660270 0.069031
O O5 0.693661 0.038209 0.138809
O O6 0.467811 0.070239 0.977817
O O7 0.000000 0.000000 0.000000
O O8 0.500000 0.299146 0.250000
O O9 0.602306 0.405043 0.357721
O O10 0.000000 0.355167 0.250000
#
# Coordination Sequence:
#
# PCOD9304594 Si02
#       4
#     8   8   8   8
#     4  11  23  45  68 102 138 180 237 289 343 409
#     4  11  24  43  71  98 137 184 227 293 335 420
#     4  11  27  46  71 101 141 185 233 292 352 415
#     4  11  26  48  67 106 142 181 235 283 350 421
#
# _framework density 25.730713999999999
#
# number of rings (size 3 to 8) (size 9 to 14) (size 15 to 20)
#    0.000    1.000    2.500    3.750    7.000    5.000 
#    0.000    0.000    0.000    0.000    0.000    0.000 
#    0.000    0.000    0.000    0.000    0.000    0.000 
#
# Total GULP energy -89546.028143 kJ/mol
# GULP energy per Si atom -5596.626759 kJ/mol
# Density = 2.567215 g / cm^3
# Si number density = 25.730714 Si / 1000 Ang^3
#
#
#
# Elastic Constant Matrix: (Units=GPa)
#
#
# Indices 1 2 3 4 5 6 
#
# 1 179.0055 80.0536 24.9179 0.0000 3.3556 0.0000
# 2 80.0536 210.1652 30.2550 0.0000 -6.6673 0.0000
# 3 24.9179 30.2550 46.0339 0.0000 5.8139 0.0000
# 4 0.0000 0.0000 0.0000 17.9388 0.0000 -21.3950
# 5 3.3556 -6.6673 5.8139 0.0000 43.6464 0.0000
# 6 0.0000 0.0000 0.0000 -21.3950 0.0000 22.8686
#
#
#
# Elastic Compliance Matrix: (Units=1/GPa)
#
#
# Indices 1 2 3 4 5 6 
#
# 1 0.006950 -0.002359 -0.002134 0.000000 -0.000610 0.000000
# 2 -0.002359 0.006128 -0.002941 0.000000 0.001509 0.000000
# 3 -0.002134 -0.002941 0.025273 0.000000 -0.003652 0.000000
# 4 0.000000 0.000000 0.000000 -0.481320 0.000000 -0.450306
# 5 -0.000610 0.001509 -0.003652 0.000000 0.023675 0.000000
# 6 0.000000 0.000000 0.000000 -0.450306 0.000000 -0.377563
#
#
# Mechanical properties :
#
#
# Convention : Reuss Voigt Hill
#
# Bulk Modulus (GPa) = 42.58723 78.40639 60.49681
# Shear Modulus (GPa) = -6.45862 36.88930 15.21534
#
# Velocity S-wave (km/s) = -1.58604 3.79049 2.43437
# Velocity P-wave (km/s) = 3.63772 7.04948 5.60928
#
# Compressibility (1/GPa) = 0.02348122
#
# Stress axis : x y z
#
# Youngs Moduli (GPa) = 143.88176 163.18049 39.56869
#
# Poissons Ratio (x) = 0.38502 0.08445
# Poissons Ratio (y) = 0.33949 0.11637
# Poissons Ratio (z) = 0.30708 0.47993
#
# Static dielectric constant tensor:
#      x y z
#    x 2.036020 0.000000 0.104800 
#    y 0.000000 2.118450 0.000000 
#    z 0.104800 0.000000 2.218630 
# 
# From -- ./inp_files/226563.got.cif
#   From: 2010.05.17/outbox.cif.g08.bks.cpg/sg15_114_cif.got.tgz:226563.got - 2010.06.03 18:47:42.
