data_PCOD9304459
_publ_section_title
;
Structure prediction by ZEFSAII (Michael W. Deem and Ramdas Pophale) SiO2 
 PCOD9304459
Probable space group: C 2/C
;
_chemical_formula_sum "Si O2"
_cell_formula_units_Z 60
_cell_length_a 20.166493
_cell_length_b 8.178906
_cell_length_c 21.060548
_cell_angle_alpha 90.000000
_cell_angle_beta 56.361171
_cell_angle_gamma 90.000000
_cell_volume 2892.034789
_symmetry_space_group_name_H-M "C 2/C"
_symmetry_group_IT_number 15
_symmetry_cell_setting 'monoclinic'
loop_
_space_group_symop_operation_xyz
x,y,z
-x,y,1/2-z
-x,-y,-z
x,-y,1/2+z
1/2+x,1/2+y,z
1/2-x,1/2+y,1/2-z
1/2-x,1/2-y,-z
1/2+x,1/2-y,1/2+z
loop_
_atom_site_type_symbol
_atom_site_label
_atom_site_fract_x
_atom_site_fract_y
_atom_site_fract_z
Si Si1 0.500000 0.702306 0.250000
Si Si2 0.430983 0.573880 0.172526
Si Si3 0.707306 0.376688 0.439296
Si Si4 0.372558 0.851776 0.411774
Si Si5 0.929446 0.575576 0.495053
Si Si6 0.177404 0.232668 0.812555
Si Si7 0.555928 0.438675 0.027105
Si Si8 0.658715 0.111852 0.833810
O O1 0.435938 0.595773 0.244939
O O2 0.445891 0.804872 0.327347
O O3 0.381876 0.416417 0.174534
O O4 0.521326 0.539088 0.103736
O O5 0.401733 0.747175 0.159252
O O6 0.669072 0.282214 0.519734
O O7 0.798850 0.411521 0.406837
O O8 0.696792 0.281783 0.377919
O O9 0.647907 0.529665 0.464041
O O10 0.405262 0.975968 0.446719
O O11 0.958793 0.750053 0.456710
O O12 0.857092 0.598133 0.582806
O O13 0.000000 0.500000 0.500000
O O14 0.256946 0.185648 0.731925
O O15 0.152136 0.422117 0.813146
O O16 0.500000 0.500000 0.000000
#
# Coordination Sequence:
#
# PCOD9304459 Si02
#       8
#     4   8   8   8   8   8   8   8
#     4  12  26  48  70 100 148 194 238 304 378 430
#     4  12  25  46  71 103 141 190 240 301 366 436
#     4  11  23  44  69 101 141 187 239 295 364 444
#     4  11  25  44  73 101 144 194 239 294 375 441
#     4  12  24  43  72 108 140 188 246 296 365 450
#     4  12  24  42  70 109 138 186 243 302 363 435
#     4  12  22  43  74 103 138 182 246 305 358 435
#     4  12  24  42  71 106 146 180 241 304 365 434
#
# _framework density 20.746638000000001
#
# number of rings (size 3 to 8) (size 9 to 14) (size 15 to 20)
#    0.000    0.267    6.667    3.200    0.000    0.533 
#    0.000    4.000    0.000    0.000    0.000    0.000 
#    0.000    0.000    0.000    0.000    0.000    0.000 
#
# Total GULP energy -167403.628248 kJ/mol
# GULP energy per Si atom -5580.120942 kJ/mol
# Density = 2.069942 g / cm^3
# Si number density = 20.746638 Si / 1000 Ang^3
#
#
#
# Elastic Constant Matrix: (Units=GPa)
#
#
# Indices 1 2 3 4 5 6 
#
# 1 118.5030 72.7325 33.8029 -0.0001 -2.6144 -0.0001
# 2 72.7325 157.1560 40.9961 -0.0002 -3.0922 -0.0004
# 3 33.8029 40.9961 132.8216 0.0000 -10.1124 0.0000
# 4 -0.0001 -0.0002 0.0000 30.2778 0.0000 -1.7673
# 5 -2.6144 -3.0922 -10.1124 0.0000 36.6584 0.0000
# 6 -0.0001 -0.0004 0.0000 -1.7673 0.0000 26.7858
#
#
#
# Elastic Compliance Matrix: (Units=1/GPa)
#
#
# Indices 1 2 3 4 5 6 
#
# 1 0.012042 -0.005192 -0.001461 0.000000 0.000018 0.000000
# 2 -0.005192 0.009159 -0.001507 0.000000 -0.000013 0.000000
# 3 -0.001461 -0.001507 0.008527 0.000000 0.002121 0.000000
# 4 0.000000 0.000000 0.000000 0.033155 0.000000 0.002188
# 5 0.000018 -0.000013 0.002121 0.000000 0.027864 0.000000
# 6 0.000000 0.000000 0.000000 0.002188 0.000000 0.037477
#
#
# Mechanical properties :
#
#
# Convention : Reuss Voigt Hill
#
# Bulk Modulus (GPa) = 74.57363 78.17152 76.37257
# Shear Modulus (GPa) = 33.55410 36.14102 34.84756
#
# Velocity S-wave (km/s) = 4.02596 4.17828 4.10283
# Velocity P-wave (km/s) = 7.59171 7.81270 7.70300
#
# Compressibility (1/GPa) = 0.01340957
#
# Stress axis : x y z
#
# Youngs Moduli (GPa) = 83.04119 109.18681 117.27187
#
# Poissons Ratio (x) = 0.56687 0.17132
# Poissons Ratio (y) = 0.43113 0.17668
# Poissons Ratio (z) = 0.12132 0.16450
#
# Static dielectric constant tensor:
#      x y z
#    x 1.772930 0.000000 0.008070 
#    y 0.000000 1.754930 0.000000 
#    z 0.008070 0.000000 1.814560 
# 
# From -- ./inp_files/247819.got.cif
#   From: 2010.05.17/outbox.cif.g08.bks.cpg/sg15_124_cif.got.tgz:247819.got - 2010.06.03 18:47:42.
