data_PCOD9304158
_publ_section_title
;
Structure prediction by ZEFSAII (Michael W. Deem and Ramdas Pophale) SiO2 
 PCOD9304158
Probable space group: C 2/C
;
_chemical_formula_sum "Si O2"
_cell_formula_units_Z 52
_cell_length_a 9.485742
_cell_length_b 23.303969
_cell_length_c 18.214814
_cell_angle_alpha 90.000000
_cell_angle_beta 36.978676
_cell_angle_gamma 90.000000
_cell_volume 2422.001403
_symmetry_space_group_name_H-M "C 2/C"
_symmetry_group_IT_number 15
_symmetry_cell_setting 'monoclinic'
loop_
_space_group_symop_operation_xyz
x,y,z
-x,y,1/2-z
-x,-y,-z
x,-y,1/2+z
1/2+x,1/2+y,z
1/2-x,1/2+y,1/2-z
1/2-x,1/2-y,-z
1/2+x,1/2-y,1/2+z
loop_
_atom_site_type_symbol
_atom_site_label
_atom_site_fract_x
_atom_site_fract_y
_atom_site_fract_z
Si Si1 0.117517 0.184279 0.126792
Si Si2 0.547671 0.641089 0.872144
Si Si3 0.743113 0.536439 0.878817
Si Si4 0.714818 0.438134 0.105267
Si Si5 0.000000 0.790331 0.250000
Si Si6 0.791156 0.564130 0.021422
Si Si7 0.539123 0.729315 0.460937
O O1 0.000000 0.204991 0.250000
O O2 0.975523 0.199307 0.112455
O O3 0.148718 0.116185 0.114481
O O4 0.365562 0.216781 0.023618
O O5 0.688267 0.584654 0.840246
O O6 0.302660 0.611492 0.948646
O O7 0.617923 0.674054 0.768050
O O8 0.535955 0.685583 0.943727
O O9 0.792783 0.569762 0.933608
O O10 0.000000 0.508050 0.750000
O O11 0.500000 0.500000 0.000000
O O12 0.500000 0.431799 0.250000
O O13 0.952303 0.433969 0.050985
O O14 0.694985 0.501086 0.079070
O O15 0.797343 0.752181 0.369374
#
# Coordination Sequence:
#
# PCOD9304158 Si02
#       7
#     8   8   8   8   4   8   8
#     4  11  24  46  69  99 142 186 241 298 370 442
#     4  12  24  45  72 104 147 192 244 304 369 441
#     4  12  27  48  74 111 152 195 246 307 376 451
#     4  11  23  42  70 106 139 185 237 296 371 446
#     4  12  26  44  72 104 144 188 246 300 368 444
#     4  11  24  44  71 102 142 188 237 301 366 443
#     4  11  26  45  69 105 139 191 245 301 370 434
#
# _framework density 21.469847000000001
#
# number of rings (size 3 to 8) (size 9 to 14) (size 15 to 20)
#    0.000    0.615    3.846    3.692    2.154    1.846 
#    1.385    0.000    0.000    0.000    0.000    0.000 
#    0.000    0.000    0.000    0.000    0.000    0.000 
#
# Total GULP energy -145110.350068 kJ/mol
# GULP energy per Si atom -5581.167310 kJ/mol
# Density = 2.142098 g / cm^3
# Si number density = 21.469847 Si / 1000 Ang^3
#
#
#
# Elastic Constant Matrix: (Units=GPa)
#
#
# Indices 1 2 3 4 5 6 
#
# 1 106.7234 23.0851 20.3285 -0.0125 21.9838 0.0043
# 2 23.0851 75.4393 13.3462 -0.0146 0.4620 0.0050
# 3 20.3285 13.3462 79.3854 -0.0570 5.2187 0.0195
# 4 -0.0125 -0.0146 -0.0570 89.1318 0.0094 -14.8172
# 5 21.9838 0.4620 5.2187 0.0094 34.9694 -0.0032
# 6 0.0043 0.0050 0.0195 -14.8172 -0.0032 27.9721
#
#
#
# Elastic Compliance Matrix: (Units=1/GPa)
#
#
# Indices 1 2 3 4 5 6 
#
# 1 0.011935 -0.003248 -0.002040 0.000001 -0.007156 0.000000
# 2 -0.003248 0.014547 -0.001753 0.000001 0.002111 0.000000
# 3 -0.002040 -0.001753 0.013460 0.000007 -0.000703 -0.000005
# 4 0.000001 0.000001 0.000007 0.012303 -0.000004 0.006517
# 5 -0.007156 0.002111 -0.000703 -0.000004 0.033172 0.000003
# 6 0.000000 0.000000 -0.000005 0.006517 0.000003 0.039202
#
#
# Mechanical properties :
#
#
# Convention : Reuss Voigt Hill
#
# Bulk Modulus (GPa) = 38.66762 41.67419 40.17090
# Shear Modulus (GPa) = 33.93995 44.06724 39.00359
#
# Velocity S-wave (km/s) = 3.98027 4.53539 4.26686
# Velocity P-wave (km/s) = 6.25881 6.84683 6.55941
#
# Compressibility (1/GPa) = 0.02586143
#
# Stress axis : x y z
#
# Youngs Moduli (GPa) = 83.78700 68.74454 74.29409
#
# Poissons Ratio (x) = 0.22325 0.15155
# Poissons Ratio (y) = 0.27210 0.13022
# Poissons Ratio (z) = 0.17091 0.12049
#
# Static dielectric constant tensor:
#      x y z
#    x 1.797570 0.000000 0.001490 
#    y 0.000000 1.804530 0.000000 
#    z 0.001490 0.000000 1.799040 
# 
# From -- ./inp_files/193677.got.cif
#   From: 2010.05.17/outbox.cif.g08.bks.cpg/sg15_97_cif.got.tgz:193677.got - 2010.06.03 18:47:42.
