data_PCOD9304903
_publ_section_title
;
Structure prediction by ZEFSAII (Michael W. Deem and Ramdas Pophale) SiO2 
 PCOD9304903
Probable space group: C 2/C
;
_chemical_formula_sum "Si O2"
_cell_formula_units_Z 44
_cell_length_a 13.158110
_cell_length_b 8.145466
_cell_length_c 22.699655
_cell_angle_alpha 90.000000
_cell_angle_beta 51.494772
_cell_angle_gamma 90.000000
_cell_volume 1903.888675
_symmetry_space_group_name_H-M "C 2/C"
_symmetry_group_IT_number 15
_symmetry_cell_setting 'monoclinic'
loop_
_space_group_symop_operation_xyz
x,y,z
-x,y,1/2-z
-x,-y,-z
x,-y,1/2+z
1/2+x,1/2+y,z
1/2-x,1/2+y,1/2-z
1/2-x,1/2-y,-z
1/2+x,1/2-y,1/2+z
loop_
_atom_site_type_symbol
_atom_site_label
_atom_site_fract_x
_atom_site_fract_y
_atom_site_fract_z
Si Si1 0.598340 0.018333 0.310999
Si Si2 0.500000 0.232875 0.750000
Si Si3 0.090408 0.447081 0.022265
Si Si4 0.717548 0.281124 0.188684
Si Si5 0.378676 0.490154 0.374836
Si Si6 0.021724 0.092167 0.431559
O O1 0.576422 0.885268 0.267123
O O2 0.470011 0.027447 0.397412
O O3 0.710580 0.942305 0.311933
O O4 0.642505 0.185871 0.266219
O O5 0.587022 0.351992 0.677988
O O6 0.070799 0.252307 0.037132
O O7 0.237199 0.492350 0.955254
O O8 0.000000 0.500000 0.000000
O O9 0.630610 0.337367 0.165740
O O10 0.833059 0.161125 0.126096
O O11 0.483918 0.485071 0.388614
O O12 0.000000 0.000000 0.500000
#
# Coordination Sequence:
#
# PCOD9304903 Si02
#       6
#     8   4   8   8   8   8
#     4  11  25  46  72 109 144 198 244 307 378 437
#     4  12  26  46  76 106 144 194 254 306 380 440
#     4  11  23  48  75 103 144 195 244 303 372 443
#     4  11  25  48  72 106 150 194 250 309 373 451
#     4  12  25  49  75 105 148 196 249 310 374 444
#     4  11  26  45  73 109 145 192 245 309 378 440
#
# _framework density 23.110596000000001
#
# number of rings (size 3 to 8) (size 9 to 14) (size 15 to 20)
#    0.000    0.727    7.273    1.636    2.545    1.455 
#    3.273    0.000    0.000    0.000    0.000    0.000 
#    0.000    0.000    0.000    0.000    0.000    0.000 
#
# Total GULP energy -123332.616488 kJ/mol
# GULP energy per Si atom -5606.028022 kJ/mol
# Density = 2.305800 g / cm^3
# Si number density = 23.110596 Si / 1000 Ang^3
#
#
#
# Elastic Constant Matrix: (Units=GPa)
#
#
# Indices 1 2 3 4 5 6 
#
# 1 105.8716 38.8434 25.8375 0.0000 25.2632 0.0000
# 2 38.8434 64.6391 61.0952 0.0000 -2.2760 0.0000
# 3 25.8375 61.0952 157.9626 0.0000 3.4825 0.0000
# 4 0.0000 0.0000 0.0000 49.6067 0.0000 14.7302
# 5 25.2632 -2.2760 3.4825 0.0000 42.2029 0.0000
# 6 0.0000 0.0000 0.0000 14.7302 0.0000 37.2004
#
#
#
# Elastic Compliance Matrix: (Units=1/GPa)
#
#
# Indices 1 2 3 4 5 6 
#
# 1 0.015724 -0.011967 0.002282 0.000000 -0.010246 0.000000
# 2 -0.011967 0.033679 -0.011287 0.000000 0.009911 0.000000
# 3 0.002282 -0.011287 0.010385 0.000000 -0.002832 0.000000
# 4 0.000000 0.000000 0.000000 0.022845 0.000000 -0.009046
# 5 -0.010246 0.009911 -0.002832 0.000000 0.030597 0.000000
# 6 0.000000 0.000000 0.000000 -0.009046 0.000000 0.030463
#
#
# Mechanical properties :
#
#
# Convention : Reuss Voigt Hill
#
# Bulk Modulus (GPa) = 56.03863 64.44728 60.24295
# Shear Modulus (GPa) = 26.09808 39.31515 32.70662
#
# Velocity S-wave (km/s) = 3.36411 4.12900 3.76602
# Velocity P-wave (km/s) = 6.27617 7.11889 6.71077
#
# Compressibility (1/GPa) = 0.01784483
#
# Stress axis : x y z
#
# Youngs Moduli (GPa) = 63.59711 29.69194 96.29042
#
# Poissons Ratio (x) = 0.35533 -0.21978
# Poissons Ratio (y) = 0.76107 1.08685
# Poissons Ratio (z) = -0.14516 0.33514
#
# Static dielectric constant tensor:
#      x y z
#    x 1.877250 0.000000 0.001100 
#    y 0.000000 1.862110 0.000000 
#    z 0.001100 0.000000 1.859930 
# 
# From -- ./inp_files/272562.got.cif
#   From: 2010.05.17/outbox.cif.g08.bks.cpg/sg15_137_cif.got.tgz:272562.got - 2010.06.03 18:47:42.
