data_PCOD9304272
_publ_section_title
;
Structure prediction by ZEFSAII (Michael W. Deem and Ramdas Pophale) SiO2 
 PCOD9304272
Probable space group: C 2/C
;
_chemical_formula_sum "Si O2"
_cell_formula_units_Z 40
_cell_length_a 22.026373
_cell_length_b 9.013746
_cell_length_c 9.372475
_cell_angle_alpha 90.000000
_cell_angle_beta 89.387470
_cell_angle_gamma 90.000000
_cell_volume 1860.706084
_symmetry_space_group_name_H-M "C 2/C"
_symmetry_group_IT_number 15
_symmetry_cell_setting 'monoclinic'
loop_
_space_group_symop_operation_xyz
x,y,z
-x,y,1/2-z
-x,-y,-z
x,-y,1/2+z
1/2+x,1/2+y,z
1/2-x,1/2+y,1/2-z
1/2-x,1/2-y,-z
1/2+x,1/2-y,1/2+z
loop_
_atom_site_type_symbol
_atom_site_label
_atom_site_fract_x
_atom_site_fract_y
_atom_site_fract_z
Si Si1 0.403407 0.866511 0.452626
Si Si2 0.925326 0.338136 0.117435
Si Si3 0.204569 0.813770 0.886593
Si Si4 0.734045 0.125359 0.612231
Si Si5 0.515729 0.347174 0.420042
O O1 0.430658 0.846492 0.290750
O O2 0.334493 0.920421 0.425290
O O3 0.416877 0.713778 0.539538
O O4 0.424451 0.994678 0.559385
O O5 0.864887 0.237656 0.091765
O O6 0.974764 0.266257 0.011778
O O7 0.227015 0.721563 0.751991
O O8 0.219673 0.988615 0.875861
O O9 0.250000 0.750000 0.000000
O O10 0.750000 0.250000 0.500000
O O11 0.500000 0.350673 0.250000
O O12 0.500000 0.500000 0.500000
#
# Coordination Sequence:
#
# PCOD9304272 Si02
#       5
#     8   8   8   8   8
#     4  11  24  44  70 102 139 189 233 294 356 429
#     4  11  24  44  71 103 142 186 240 292 360 428
#     4  11  23  43  68 102 143 185 239 297 353 432
#     4  11  25  42  68 102 142 187 240 293 360 426
#     4  12  27  48  72 103 140 181 237 301 363 431
#
# _framework density 21.497216999999999
#
# number of rings (size 3 to 8) (size 9 to 14) (size 15 to 20)
#    0.000    0.800    2.000    4.800    5.600    1.600 
#    0.000    0.000    0.000    0.000    0.000    0.000 
#    0.000    0.000    0.000    0.000    0.000    0.000 
#
# Total GULP energy -111441.695270 kJ/mol
# GULP energy per Si atom -5572.084764 kJ/mol
# Density = 2.144829 g / cm^3
# Si number density = 21.497217 Si / 1000 Ang^3
#
#
#
# Elastic Constant Matrix: (Units=GPa)
#
#
# Indices 1 2 3 4 5 6 
#
# 1 64.4408 25.4484 43.1336 0.0000 -3.0048 0.0000
# 2 25.4484 138.5239 12.9774 0.0000 11.8135 0.0000
# 3 43.1336 12.9774 121.2808 0.0000 25.6191 0.0000
# 4 0.0000 0.0000 0.0000 39.6203 0.0000 2.9258
# 5 -3.0048 11.8135 25.6191 0.0000 29.7405 0.0000
# 6 0.0000 0.0000 0.0000 2.9258 0.0000 33.1313
#
#
#
# Elastic Compliance Matrix: (Units=1/GPa)
#
#
# Indices 1 2 3 4 5 6 
#
# 1 0.026136 -0.004954 -0.011905 0.000000 0.014864 0.000000
# 2 -0.004954 0.008415 0.002045 0.000000 -0.005605 0.000000
# 3 -0.011905 0.002045 0.015508 0.000000 -0.015374 0.000000
# 4 0.000000 0.000000 0.000000 0.025405 0.000000 -0.002244
# 5 0.014864 -0.005605 -0.015374 0.000000 0.050596 0.000000
# 6 0.000000 0.000000 0.000000 -0.002244 0.000000 0.030381
#
#
# Mechanical properties :
#
#
# Convention : Reuss Voigt Hill
#
# Bulk Modulus (GPa) = 48.94087 54.15160 51.54623
# Shear Modulus (GPa) = 25.92281 36.67748 31.30015
#
# Velocity S-wave (km/s) = 3.47633 4.13504 3.81991
# Velocity P-wave (km/s) = 6.23929 6.93129 6.59437
#
# Compressibility (1/GPa) = 0.02043282
#
# Stress axis : x y z
#
# Youngs Moduli (GPa) = 38.26111 118.82926 64.48221
#
# Poissons Ratio (x) = 0.58866 0.76766
# Poissons Ratio (y) = 0.18954 -0.13189
# Poissons Ratio (z) = 0.45550 -0.24305
#
# Static dielectric constant tensor:
#      x y z
#    x 1.955080 0.000000 0.014250 
#    y 0.000000 1.815010 0.000000 
#    z 0.014250 0.000000 1.672370 
# 
# From -- ./inp_files/59952.got.cif
#   From: 2010.05.17/outbox.cif.g08.bks.cpg/sg15_30_cif.got.tgz:59952.got - 2010.06.03 18:47:42.
