data_PCOD9304608
_publ_section_title
;
Structure prediction by ZEFSAII (Michael W. Deem and Ramdas Pophale) SiO2 
 PCOD9304608
Probable space group: C 2/C
;
_chemical_formula_sum "Si O2"
_cell_formula_units_Z 52
_cell_length_a 18.084972
_cell_length_b 19.729993
_cell_length_c 8.966127
_cell_angle_alpha 90.000000
_cell_angle_beta 51.996875
_cell_angle_gamma 90.000000
_cell_volume 2520.944559
_symmetry_space_group_name_H-M "C 2/C"
_symmetry_group_IT_number 15
_symmetry_cell_setting 'monoclinic'
loop_
_space_group_symop_operation_xyz
x,y,z
-x,y,1/2-z
-x,-y,-z
x,-y,1/2+z
1/2+x,1/2+y,z
1/2-x,1/2+y,1/2-z
1/2-x,1/2-y,-z
1/2+x,1/2-y,1/2+z
loop_
_atom_site_type_symbol
_atom_site_label
_atom_site_fract_x
_atom_site_fract_y
_atom_site_fract_z
Si Si1 0.345592 0.414516 0.133069
Si Si2 0.090544 0.406170 0.730469
Si Si3 0.212805 0.296934 0.413006
Si Si4 0.091339 0.612511 0.567025
Si Si5 0.000000 0.142131 0.250000
Si Si6 0.356079 0.245981 0.812867
Si Si7 0.746556 0.015134 0.478203
O O1 0.297092 0.343574 0.242284
O O2 0.320233 0.469482 0.293040
O O3 0.450797 0.400464 0.944040
O O4 0.294074 0.443806 0.051479
O O5 0.139583 0.348182 0.574918
O O6 0.166797 0.465784 0.643372
O O7 0.000000 0.427316 0.750000
O O8 0.069723 0.377623 0.920207
O O9 0.250000 0.250000 0.500000
O O10 0.158052 0.260274 0.346917
O O11 0.104419 0.679379 0.651945
O O12 0.186385 0.568985 0.458129
O O13 0.000000 0.576921 0.750000
O O14 0.080292 0.190753 0.218909
O O15 0.250000 0.250000 0.000000
#
# Coordination Sequence:
#
# PCOD9304608 Si02
#       7
#     8   8   8   8   4   8   8
#     4  11  25  46  71 103 136 189 244 297 353 434
#     4  11  25  38  63 104 147 183 236 303 358 438
#     4  11  24  43  70 104 147 188 235 299 366 433
#     4  12  23  38  68 101 139 186 235 290 366 435
#     4  12  26  46  76 104 142 192 250 292 368 432
#     4  12  23  43  72 104 143 189 239 291 361 439
#     4  11  23  45  69  95 140 190 239 295 360 412
#
# _framework density 20.627189000000001
#
# number of rings (size 3 to 8) (size 9 to 14) (size 15 to 20)
#    0.000    0.615    5.385    2.308    2.154    1.846 
#    0.000    0.000    0.000    0.000    0.000    0.000 
#    0.000    0.000    0.000    0.000    0.000    0.000 
#
# Total GULP energy -145260.436223 kJ/mol
# GULP energy per Si atom -5586.939855 kJ/mol
# Density = 2.058024 g / cm^3
# Si number density = 20.627189 Si / 1000 Ang^3
#
#
#
# Elastic Constant Matrix: (Units=GPa)
#
#
# Indices 1 2 3 4 5 6 
#
# 1 110.4920 44.8757 48.1992 0.0000 11.6754 0.0000
# 2 44.8757 80.8998 32.6640 0.0000 -6.6325 0.0000
# 3 48.1992 32.6640 127.4834 0.0000 -5.5307 0.0000
# 4 0.0000 0.0000 0.0000 42.4597 0.0000 -1.8889
# 5 11.6754 -6.6325 -5.5307 0.0000 43.2106 0.0000
# 6 0.0000 0.0000 0.0000 -1.8889 0.0000 24.9693
#
#
#
# Elastic Compliance Matrix: (Units=1/GPa)
#
#
# Indices 1 2 3 4 5 6 
#
# 1 0.013968 -0.006644 -0.003808 0.000000 -0.005281 0.000000
# 2 -0.006644 0.017069 -0.001679 0.000000 0.004200 0.000000
# 3 -0.003808 -0.001679 0.009802 0.000000 0.002026 0.000000
# 4 0.000000 0.000000 0.000000 0.023631 0.000000 0.001788
# 5 -0.005281 0.004200 0.002026 0.000000 0.025473 0.000000
# 6 0.000000 0.000000 0.000000 0.001788 0.000000 0.040184
#
#
# Mechanical properties :
#
#
# Convention : Reuss Voigt Hill
#
# Bulk Modulus (GPa) = 60.32493 63.37257 61.84875
# Shear Modulus (GPa) = 31.26669 35.00367 33.13518
#
# Velocity S-wave (km/s) = 3.89755 4.12390 4.01232
# Velocity P-wave (km/s) = 7.04013 7.31197 7.17733
#
# Compressibility (1/GPa) = 0.01657689
#
# Stress axis : x y z
#
# Youngs Moduli (GPa) = 71.59324 58.58722 102.01996
#
# Poissons Ratio (x) = 0.38923 0.38848
# Poissons Ratio (y) = 0.47563 0.17132
# Poissons Ratio (z) = 0.27262 0.09839
#
# Static dielectric constant tensor:
#      x y z
#    x 1.909390 0.000000 -0.017360 
#    y 0.000000 1.782830 0.000000 
#    z -0.017360 0.000000 1.754640 
# 
# From -- ./inp_files/50583.got.cif
#   From: 2010.05.17/outbox.cif.g08.bks.cpg/sg15_26_cif.got.tgz:50583.got - 2010.06.03 18:47:42.
