data_PCOD9304485
_publ_section_title
;
Structure prediction by ZEFSAII (Michael W. Deem and Ramdas Pophale) SiO2 
 PCOD9304485
Probable space group: C 2/C
;
_chemical_formula_sum "Si O2"
_cell_formula_units_Z 64
_cell_length_a 28.983617
_cell_length_b 8.227253
_cell_length_c 15.247490
_cell_angle_alpha 90.000000
_cell_angle_beta 49.391300
_cell_angle_gamma 90.000000
_cell_volume 2760.236218
_symmetry_space_group_name_H-M "C 2/C"
_symmetry_group_IT_number 15
_symmetry_cell_setting 'monoclinic'
loop_
_space_group_symop_operation_xyz
x,y,z
-x,y,1/2-z
-x,-y,-z
x,-y,1/2+z
1/2+x,1/2+y,z
1/2-x,1/2+y,1/2-z
1/2-x,1/2-y,-z
1/2+x,1/2-y,1/2+z
loop_
_atom_site_type_symbol
_atom_site_label
_atom_site_fract_x
_atom_site_fract_y
_atom_site_fract_z
Si Si1 0.265253 0.300403 0.798307
Si Si2 0.330120 0.590424 0.952920
Si Si3 0.833660 0.919205 0.128491
Si Si4 0.963566 0.870065 0.208932
Si Si5 0.980868 0.756776 0.674123
Si Si6 0.360836 0.915408 0.273046
Si Si7 0.567597 0.180557 0.418809
Si Si8 0.210242 0.561762 0.983841
O O1 0.224576 0.195269 0.783529
O O2 0.317554 0.412157 0.693760
O O3 0.300292 0.174982 0.816756
O O4 0.217157 0.418591 0.905692
O O5 0.393456 0.608949 0.824266
O O6 0.309254 0.760068 0.023298
O O7 0.337891 0.456146 0.019326
O O8 0.275984 0.560971 0.950771
O O9 0.889999 0.827675 0.099904
O O10 0.966816 0.745864 0.124823
O O11 0.000000 0.815171 0.250000
O O12 0.988190 0.048890 0.152224
O O13 0.911447 0.710554 0.742058
O O14 0.000000 0.720919 0.750000
O O15 0.021035 0.655327 0.555634
O O16 0.390420 0.030096 0.162123
O O17 0.340016 0.021960 0.380943
#
# Coordination Sequence:
#
# PCOD9304485 Si02
#       8
#     8   8   8   8   8   8   8   8
#     4  12  26  42  69 103 142 185 236 293 364 443
#     4  11  23  44  70 105 143 183 243 294 358 435
#     4  12  25  42  68 104 143 185 233 296 370 431
#     4  11  24  46  75 104 139 193 247 292 360 437
#     4  11  26  46  73 102 141 191 244 298 362 436
#     4  12  25  46  69 103 140 192 239 299 366 419
#     4  12  26  47  71 104 146 186 241 307 360 435
#     4  11  24  43  71 101 143 188 238 295 364 429
#
# _framework density 23.186422
#
# number of rings (size 3 to 8) (size 9 to 14) (size 15 to 20)
#    0.000    0.500    2.500    6.375    5.250    1.500 
#    0.000    0.000    0.000    0.000    0.000    0.000 
#    0.000    0.000    0.000    0.000    0.000    0.000 
#
# Total GULP energy -179227.773153 kJ/mol
# GULP energy per Si atom -5600.867911 kJ/mol
# Density = 2.313365 g / cm^3
# Si number density = 23.186422 Si / 1000 Ang^3
#
#
#
# Elastic Constant Matrix: (Units=GPa)
#
#
# Indices 1 2 3 4 5 6 
#
# 1 78.8738 19.3076 1.4126 0.0000 3.3252 -0.0001
# 2 19.3076 73.4761 5.1385 0.0001 17.1899 -0.0002
# 3 1.4126 5.1385 83.6005 0.0000 2.3301 0.0000
# 4 0.0000 0.0001 0.0000 24.3313 0.0000 -4.8407
# 5 3.3252 17.1899 2.3301 0.0000 20.1977 0.0000
# 6 -0.0001 -0.0002 0.0000 -4.8407 0.0000 24.2392
#
#
#
# Elastic Compliance Matrix: (Units=1/GPa)
#
#
# Indices 1 2 3 4 5 6 
#
# 1 0.013566 -0.003797 -0.000024 0.000000 0.001001 0.000000
# 2 -0.003797 0.018091 -0.000638 0.000000 -0.014698 0.000000
# 3 -0.000024 -0.000638 0.012025 0.000000 -0.000840 0.000000
# 4 0.000000 0.000000 0.000000 0.042800 0.000000 0.008547
# 5 0.001001 -0.014698 -0.000840 0.000000 0.061952 0.000000
# 6 0.000000 0.000000 0.000000 0.008547 0.000000 0.042962
#
#
# Mechanical properties :
#
#
# Convention : Reuss Voigt Hill
#
# Bulk Modulus (GPa) = 28.76592 31.96310 30.36451
# Shear Modulus (GPa) = 23.59578 27.75977 25.67777
#
# Velocity S-wave (km/s) = 3.19353 3.46387 3.33145
# Velocity P-wave (km/s) = 5.10211 5.46014 5.28415
#
# Compressibility (1/GPa) = 0.03476336
#
# Stress axis : x y z
#
# Youngs Moduli (GPa) = 73.71224 55.27612 83.16224
#
# Poissons Ratio (x) = 0.20991 0.00197
# Poissons Ratio (y) = 0.27992 0.05307
# Poissons Ratio (z) = 0.00175 0.03527
#
# Static dielectric constant tensor:
#      x y z
#    x 1.812510 0.000000 0.018540 
#    y 0.000000 1.893850 0.000000 
#    z 0.018540 0.000000 1.886040 
# 
# From -- ./inp_files/181128.got.cif
#   From: 2010.05.17/outbox.cif.g08.bks.cpg/sg15_91_cif.got.tgz:181128.got - 2010.06.03 18:47:42.
