data_PCOD9304977
_publ_section_title
;
Structure prediction by ZEFSAII (Michael W. Deem and Ramdas Pophale) SiO2 
 PCOD9304977
Probable space group: C 2/C
;
_chemical_formula_sum "Si O2"
_cell_formula_units_Z 60
_cell_length_a 6.557384
_cell_length_b 17.918143
_cell_length_c 26.845756
_cell_angle_alpha 90.000000
_cell_angle_beta 84.103063
_cell_angle_gamma 90.000000
_cell_volume 3137.581388
_symmetry_space_group_name_H-M "C 2/C"
_symmetry_group_IT_number 15
_symmetry_cell_setting 'monoclinic'
loop_
_space_group_symop_operation_xyz
x,y,z
-x,y,1/2-z
-x,-y,-z
x,-y,1/2+z
1/2+x,1/2+y,z
1/2-x,1/2+y,1/2-z
1/2-x,1/2-y,-z
1/2+x,1/2-y,1/2+z
loop_
_atom_site_type_symbol
_atom_site_label
_atom_site_fract_x
_atom_site_fract_y
_atom_site_fract_z
Si Si1 0.217237 0.490456 0.970313
Si Si2 0.165987 0.286551 0.102544
Si Si3 0.324493 0.709484 0.048427
Si Si4 0.360771 0.887106 0.300588
Si Si5 0.901050 0.462670 0.700246
Si Si6 0.967860 0.893110 0.031956
Si Si7 0.415379 0.864568 0.603967
Si Si8 0.000000 0.040370 0.750000
O O1 0.331900 0.566312 0.949809
O O2 0.181332 0.428729 0.928800
O O3 0.332422 0.460678 0.016438
O O4 0.000000 0.500000 0.000000
O O5 0.136833 0.328089 0.155495
O O6 0.329091 0.337281 0.067627
O O7 0.268947 0.206613 0.107838
O O8 0.955006 0.267478 0.078466
O O9 0.135008 0.667555 0.079560
O O10 0.250000 0.750000 0.000000
O O11 0.471651 0.647906 0.020693
O O12 0.500000 0.863012 0.250000
O O13 0.137694 0.909865 0.284295
O O14 0.468478 0.963333 0.316962
O O15 0.926111 0.401322 0.657799
O O16 0.668468 0.490032 0.716878
O O17 0.000000 0.437359 0.750000
#
# Coordination Sequence:
#
# PCOD9304977 Si02
#       8
#     8   8   8   8   8   8   8   4
#     4  11  24  40  63  95 127 171 220 276 312 389
#     4  12  26  41  66  97 130 178 218 267 335 394
#     4  12  24  43  63  89 140 175 212 266 323 387
#     4   9  22  44  67  96 125 166 220 271 320 400
#     4   9  22  43  67  97 126 164 217 272 326 394
#     4  11  24  41  62  92 129 171 221 267 318 389
#     4  12  25  41  66  99 130 175 217 270 338 389
#     4   8  18  44  72  88 128 162 214 282 328 378
#
# _framework density 19.123009
#
# number of rings (size 3 to 8) (size 9 to 14) (size 15 to 20)
#    0.000    1.600    4.000    1.200    3.733    4.267 
#    4.800    0.000    0.000    0.000    0.000    0.000 
#    0.000    0.000    0.000    0.000    0.000    0.000 
#
# Total GULP energy -167242.818546 kJ/mol
# GULP energy per Si atom -5574.760618 kJ/mol
# Density = 1.907948 g / cm^3
# Si number density = 19.123009 Si / 1000 Ang^3
#
#
#
# Elastic Constant Matrix: (Units=GPa)
#
#
# Indices 1 2 3 4 5 6 
#
# 1 131.5975 51.2344 65.1217 0.0000 8.2094 0.0000
# 2 51.2344 102.7079 77.0847 0.0000 6.7111 0.0000
# 3 65.1217 77.0847 127.6218 0.0000 2.9876 0.0000
# 4 0.0000 0.0000 0.0000 60.7084 0.0000 2.2489
# 5 8.2094 6.7111 2.9876 0.0000 13.2347 0.0000
# 6 0.0000 0.0000 0.0000 2.2489 0.0000 30.5872
#
#
#
# Elastic Compliance Matrix: (Units=1/GPa)
#
#
# Indices 1 2 3 4 5 6 
#
# 1 0.010713 -0.001856 -0.004235 0.000000 -0.004748 0.000000
# 2 -0.001856 0.018731 -0.010225 0.000000 -0.006039 0.000000
# 3 -0.004235 -0.010225 0.016075 0.000000 0.004183 0.000000
# 4 0.000000 0.000000 0.000000 0.016517 0.000000 -0.001214
# 5 -0.004748 -0.006039 0.004183 0.000000 0.080623 0.000000
# 6 0.000000 0.000000 0.000000 -0.001214 0.000000 0.032783
#
#
# Mechanical properties :
#
#
# Convention : Reuss Voigt Hill
#
# Bulk Modulus (GPa) = 77.59443 83.20099 80.39771
# Shear Modulus (GPa) = 23.54395 32.13847 27.84121
#
# Velocity S-wave (km/s) = 3.51263 4.10398 3.81977
# Velocity P-wave (km/s) = 7.55751 8.12771 7.84779
#
# Compressibility (1/GPa) = 0.01288752
#
# Stress axis : x y z
#
# Youngs Moduli (GPa) = 93.34356 53.38717 62.20917
#
# Poissons Ratio (x) = 0.09907 0.26343
# Poissons Ratio (y) = 0.17321 0.63612
# Poissons Ratio (z) = 0.39527 0.54591
#
# Static dielectric constant tensor:
#      x y z
#    x 1.942840 0.000000 0.019560 
#    y 0.000000 1.816630 0.000000 
#    z 0.019560 0.000000 1.575770 
# 
# From -- ./inp_files/305665.got.cif
#   From: 2010.05.17/outbox.cif.g08.bks.cpg/sg15_153_cif.got.tgz:305665.got - 2010.06.03 18:47:42.
