data_PCOD9304193
_publ_section_title
;
Structure prediction by ZEFSAII (Michael W. Deem and Ramdas Pophale) SiO2 
 PCOD9304193
Probable space group: C 2/C
;
_chemical_formula_sum "Si O2"
_cell_formula_units_Z 44
_cell_length_a 16.300691
_cell_length_b 8.957383
_cell_length_c 14.019306
_cell_angle_alpha 90.000000
_cell_angle_beta 103.467475
_cell_angle_gamma 90.000000
_cell_volume 1990.693067
_symmetry_space_group_name_H-M "C 2/C"
_symmetry_group_IT_number 15
_symmetry_cell_setting 'monoclinic'
loop_
_space_group_symop_operation_xyz
x,y,z
-x,y,1/2-z
-x,-y,-z
x,-y,1/2+z
1/2+x,1/2+y,z
1/2-x,1/2+y,1/2-z
1/2-x,1/2-y,-z
1/2+x,1/2-y,1/2+z
loop_
_atom_site_type_symbol
_atom_site_label
_atom_site_fract_x
_atom_site_fract_y
_atom_site_fract_z
Si Si1 0.582976 0.010242 0.085568
Si Si2 0.679025 0.497168 0.729875
Si Si3 0.365449 0.725896 0.636090
Si Si4 0.722940 0.764210 0.605198
Si Si5 0.829366 0.208412 0.423804
Si Si6 0.000000 0.555648 0.250000
O O1 0.627840 0.169758 0.084330
O O2 0.559027 0.976963 0.188854
O O3 0.646555 0.881307 0.069857
O O4 0.500000 0.000000 0.000000
O O5 0.624646 0.608539 0.777584
O O6 0.727511 0.610163 0.668306
O O7 0.728610 0.391734 0.819045
O O8 0.629859 0.383106 0.649728
O O9 0.271655 0.798508 0.618512
O O10 0.360161 0.647557 0.532719
O O11 0.438074 0.845320 0.668209
O O12 0.750000 0.750000 0.500000
#
# Coordination Sequence:
#
# PCOD9304193 Si02
#       6
#     8   8   8   8   8   4
#     4  12  25  46  73 104 142 187 246 299 358 440
#     4  12  22  43  70 106 145 185 242 302 349 438
#     4  11  23  42  72  99 145 187 235 291 363 428
#     4  12  26  43  74 111 142 194 253 297 366 440
#     4  11  24  44  73 105 137 194 241 291 362 438
#     4  12  24  46  70 106 142 190 232 304 370 420
#
# _framework density 22.102854000000001
#
# number of rings (size 3 to 8) (size 9 to 14) (size 15 to 20)
#    0.000    0.364    7.273    1.091    2.545    2.909 
#    0.000    6.364    0.000    0.000    0.000    0.000 
#    0.000    0.000    0.000    0.000    0.000    0.000 
#
# Total GULP energy -122781.489517 kJ/mol
# GULP energy per Si atom -5580.976796 kJ/mol
# Density = 2.205255 g / cm^3
# Si number density = 22.102854 Si / 1000 Ang^3
#
#
#
# Elastic Constant Matrix: (Units=GPa)
#
#
# Indices 1 2 3 4 5 6 
#
# 1 61.2014 14.9326 28.1113 0.0000 1.2074 0.0000
# 2 14.9326 90.6227 33.8878 0.0000 -2.0468 0.0000
# 3 28.1113 33.8878 145.7399 0.0000 -33.8287 0.0000
# 4 0.0000 0.0000 0.0000 33.2526 0.0000 -12.1192
# 5 1.2074 -2.0468 -33.8287 0.0000 36.6762 0.0000
# 6 0.0000 0.0000 0.0000 -12.1192 0.0000 14.9955
#
#
#
# Elastic Compliance Matrix: (Units=1/GPa)
#
#
# Indices 1 2 3 4 5 6 
#
# 1 0.018821 -0.001577 -0.004362 0.000000 -0.004731 0.000000
# 2 -0.001577 0.012392 -0.003060 0.000000 -0.002079 0.000000
# 3 -0.004362 -0.003060 0.010698 0.000000 0.009841 0.000000
# 4 0.000000 0.000000 0.000000 0.042629 0.000000 0.034453
# 5 -0.004731 -0.002079 0.009841 0.000000 0.036382 0.000000
# 6 0.000000 0.000000 0.000000 0.034453 0.000000 0.094531
#
#
# Mechanical properties :
#
#
# Convention : Reuss Voigt Hill
#
# Bulk Modulus (GPa) = 41.81572 50.15859 45.98715
# Shear Modulus (GPa) = 20.71060 31.69367 26.20213
#
# Velocity S-wave (km/s) = 3.06438 3.79082 3.44679
# Velocity P-wave (km/s) = 5.61074 6.47325 6.05736
#
# Compressibility (1/GPa) = 0.02391445
#
# Stress axis : x y z
#
# Youngs Moduli (GPa) = 53.13198 80.69833 93.47109
#
# Poissons Ratio (x) = 0.12727 0.40769
# Poissons Ratio (y) = 0.08379 0.28599
# Poissons Ratio (z) = 0.23174 0.24691
#
# Static dielectric constant tensor:
#      x y z
#    x 1.868320 0.000000 -0.041670 
#    y 0.000000 1.811030 0.000000 
#    z -0.041670 0.000000 1.862760 
# 
# From -- ./inp_files/159293.got.cif
#   From: 2010.05.17/outbox.cif.g08.bks.cpg/sg15_80_cif.got.tgz:159293.got - 2010.06.03 18:47:42.
