data_PCOD9304246
_publ_section_title
;
Structure prediction by ZEFSAII (Michael W. Deem and Ramdas Pophale) SiO2 
 PCOD9304246
Probable space group: C 2/C
;
_chemical_formula_sum "Si O2"
_cell_formula_units_Z 36
_cell_length_a 21.395459
_cell_length_b 11.244086
_cell_length_c 14.073917
_cell_angle_alpha 90.000000
_cell_angle_beta 154.482953
_cell_angle_gamma 90.000000
_cell_volume 1458.531797
_symmetry_space_group_name_H-M "C 2/C"
_symmetry_group_IT_number 15
_symmetry_cell_setting 'monoclinic'
loop_
_space_group_symop_operation_xyz
x,y,z
-x,y,1/2-z
-x,-y,-z
x,-y,1/2+z
1/2+x,1/2+y,z
1/2-x,1/2+y,1/2-z
1/2-x,1/2-y,-z
1/2+x,1/2-y,1/2+z
loop_
_atom_site_type_symbol
_atom_site_label
_atom_site_fract_x
_atom_site_fract_y
_atom_site_fract_z
Si Si1 0.614030 0.080431 0.217462
Si Si2 0.040218 0.150272 0.600271
Si Si3 0.122073 0.967823 0.025463
Si Si4 0.727376 0.225478 0.081006
Si Si5 0.000000 0.530440 0.750000
O O1 0.760177 0.047220 0.364584
O O2 0.582021 0.040511 0.280838
O O3 0.606358 0.222321 0.210125
O O4 0.500000 0.000000 0.000000
O O5 0.882303 0.191420 0.339956
O O6 0.132163 0.078818 0.647953
O O7 0.015294 0.056287 0.651239
O O8 0.144311 0.842788 0.003255
O O9 0.750000 0.250000 0.000000
O O10 0.620425 0.118123 0.957950
#
# Coordination Sequence:
#
# PCOD9304246 Si02
#       5
#     8   8   8   8   4
#     4  12  23  45  69 100 146 188 231 297 358 424
#     4  11  25  42  72 101 141 194 239 285 368 425
#     4  11  23  43  67 100 137 187 239 294 346 426
#     4  12  22  43  69 106 140 184 242 297 352 428
#     4  12  26  44  74 110 142 184 240 298 360 430
#
# _framework density 24.682357
#
# number of rings (size 3 to 8) (size 9 to 14) (size 15 to 20)
#    0.000    0.444    4.444    5.333    0.000    0.000 
#    0.000    6.667    0.000    0.000    0.000    0.000 
#    0.000    0.000    0.000    0.000    0.000    0.000 
#
# Total GULP energy -100626.508902 kJ/mol
# GULP energy per Si atom -5590.361606 kJ/mol
# Density = 2.462618 g / cm^3
# Si number density = 24.682357 Si / 1000 Ang^3
#
#
#
# Elastic Constant Matrix: (Units=GPa)
#
#
# Indices 1 2 3 4 5 6 
#
# 1 221.3414 99.1706 34.4443 0.0000 40.4653 0.0000
# 2 99.1706 243.8599 22.3426 0.0000 22.1807 0.0000
# 3 34.4443 22.3426 51.9794 0.0000 6.6485 0.0000
# 4 0.0000 0.0000 0.0000 -761.4191 0.0000 -598.0135
# 5 40.4653 22.1807 6.6485 0.0000 28.9772 0.0000
# 6 0.0000 0.0000 0.0000 -598.0135 0.0000 -403.5670
#
#
#
# Elastic Compliance Matrix: (Units=1/GPa)
#
#
# Indices 1 2 3 4 5 6 
#
# 1 0.007341 -0.001980 -0.002984 0.000000 -0.008052 0.000000
# 2 -0.001980 0.005059 -0.000743 0.000000 -0.000937 0.000000
# 3 -0.002984 -0.000743 0.021562 0.000000 -0.000212 0.000000
# 4 0.000000 0.000000 0.000000 0.008017 0.000000 -0.011880
# 5 -0.008052 -0.000937 -0.000212 0.000000 0.046520 0.000000
# 6 0.000000 0.000000 0.000000 -0.011880 0.000000 0.015127
#
#
# Mechanical properties :
#
#
# Convention : Reuss Voigt Hill
#
# Bulk Modulus (GPa) = 44.34672 92.12176 68.23424
# Shear Modulus (GPa) = 40.79780 -203.12024 -81.16122
#
# Velocity S-wave (km/s) = 4.07001 -9.08143 -5.74053
# Velocity P-wave (km/s) = 6.33188 8.51817 4.02905
#
# Compressibility (1/GPa) = 0.02254958
#
# Stress axis : x y z
#
# Youngs Moduli (GPa) = 136.21648 197.66200 46.37784
#
# Poissons Ratio (x) = 0.39132 0.13839
# Poissons Ratio (y) = 0.26967 0.03445
# Poissons Ratio (z) = 0.40645 0.14683
#
# Static dielectric constant tensor:
#      x y z
#    x 1.867740 0.000000 -0.029560 
#    y 0.000000 1.934360 0.000000 
#    z -0.029560 0.000000 2.049880 
# 
# From -- ./inp_files/167777.got.cif
#   From: 2010.05.17/outbox.cif.g08.bks.cpg/sg15_84_cif.got.tgz:167777.got - 2010.06.03 18:47:42.
