data_PCOD9304129
_publ_section_title
;
Structure prediction by ZEFSAII (Michael W. Deem and Ramdas Pophale) SiO2 
 PCOD9304129
Probable space group: C 2/C
;
_chemical_formula_sum "Si O2"
_cell_formula_units_Z 56
_cell_length_a 14.201251
_cell_length_b 19.287883
_cell_length_c 9.612026
_cell_angle_alpha 90.000000
_cell_angle_beta 63.468912
_cell_angle_gamma 90.000000
_cell_volume 2355.590096
_symmetry_space_group_name_H-M "C 2/C"
_symmetry_group_IT_number 15
_symmetry_cell_setting 'monoclinic'
loop_
_space_group_symop_operation_xyz
x,y,z
-x,y,1/2-z
-x,-y,-z
x,-y,1/2+z
1/2+x,1/2+y,z
1/2-x,1/2+y,1/2-z
1/2-x,1/2-y,-z
1/2+x,1/2-y,1/2+z
loop_
_atom_site_type_symbol
_atom_site_label
_atom_site_fract_x
_atom_site_fract_y
_atom_site_fract_z
Si Si1 0.616568 0.395397 0.221011
Si Si2 0.399273 0.769469 0.725316
Si Si3 0.076858 0.486726 0.820027
Si Si4 0.761053 0.401743 0.382797
Si Si5 0.106045 0.723350 0.607227
Si Si6 0.743226 0.615871 0.374472
Si Si7 0.613785 0.617288 0.204509
O O1 0.500000 0.419200 0.250000
O O2 0.609509 0.312029 0.241077
O O3 0.668088 0.415717 0.333536
O O4 0.704597 0.411602 0.047116
O O5 0.500000 0.793490 0.750000
O O6 0.403373 0.782217 0.554658
O O7 0.297349 0.809546 0.847797
O O8 0.138044 0.555475 0.731174
O O9 0.169514 0.430271 0.761122
O O10 0.000000 0.462476 0.750000
O O11 0.000000 0.500000 0.000000
O O12 0.802457 0.323198 0.383555
O O13 0.706335 0.421992 0.563479
O O14 0.114005 0.803997 0.645263
O O15 0.000000 0.697388 0.750000
O O16 0.639806 0.620481 0.348428
O O17 0.500000 0.587173 0.250000
#
# Coordination Sequence:
#
# PCOD9304129 Si02
#       7
#     8   8   8   8   8   8   8
#     4  11  25  43  65 100 140 181 226 286 347 412
#     4  11  24  41  68 105 144 178 224 286 358 416
#     4  12  28  49  72 102 136 177 234 291 341 410
#     4  12  23  45  71  96 136 186 231 282 345 404
#     4  11  24  39  70 108 137 179 231 283 351 419
#     4  12  25  44  67  98 139 185 229 282 350 407
#     4  11  23  42  69 101 139 174 232 286 336 410
#
# _framework density 23.773235
#
# number of rings (size 3 to 8) (size 9 to 14) (size 15 to 20)
#    0.000    0.571    2.857    5.143   10.000    0.000 
#    0.000    4.286    0.000    0.000    0.000    0.000 
#    0.000    0.000    0.000    0.000    0.000    0.000 
#
# Total GULP energy -156580.745892 kJ/mol
# GULP energy per Si atom -5592.169496 kJ/mol
# Density = 2.371913 g / cm^3
# Si number density = 23.773235 Si / 1000 Ang^3
#
#
#
# Elastic Constant Matrix: (Units=GPa)
#
#
# Indices 1 2 3 4 5 6 
#
# 1 133.6554 6.5631 15.9720 0.0000 14.0349 0.0000
# 2 6.5631 73.0274 7.4305 0.0000 -2.8491 0.0000
# 3 15.9720 7.4305 84.4954 0.0000 -2.8256 0.0000
# 4 0.0000 0.0000 0.0000 -101.8830 0.0000 238.4418
# 5 14.0349 -2.8491 -2.8256 0.0000 55.8742 0.0000
# 6 0.0000 0.0000 0.0000 238.4418 0.0000 -504.2210
#
#
#
# Elastic Compliance Matrix: (Units=1/GPa)
#
#
# Indices 1 2 3 4 5 6 
#
# 1 0.007914 -0.000639 -0.001510 0.000000 -0.002097 0.000000
# 2 -0.000639 0.013892 -0.001074 0.000000 0.000815 0.000000
# 3 -0.001510 -0.001074 0.012246 0.000000 0.000944 0.000000
# 4 0.000000 0.000000 0.000000 0.091962 0.000000 0.043488
# 5 -0.002097 0.000815 0.000944 0.000000 0.018513 0.000000
# 6 0.000000 0.000000 0.000000 0.043488 0.000000 0.018582
#
#
# Mechanical properties :
#
#
# Convention : Reuss Voigt Hill
#
# Bulk Modulus (GPa) = 36.22319 39.01216 37.61768
# Shear Modulus (GPa) = 27.97093 -92.63181 -32.33044
#
# Velocity S-wave (km/s) = 3.43384 -6.24895 -3.69175
# Velocity P-wave (km/s) = 5.56702 5.96825 1.52123
#
# Compressibility (1/GPa) = 0.02760662
#
# Stress axis : x y z
#
# Youngs Moduli (GPa) = 126.35928 71.98398 81.65713
#
# Poissons Ratio (x) = 0.04603 0.12329
# Poissons Ratio (y) = 0.08080 0.08766
# Poissons Ratio (z) = 0.19078 0.07728
#
# Static dielectric constant tensor:
#      x y z
#    x 1.878770 0.000000 0.000420 
#    y 0.000000 1.952330 0.000000 
#    z 0.000420 0.000000 1.840590 
# 
# From -- ./inp_files/42512.got.cif
#   From: 2010.05.17/outbox.cif.g08.bks.cpg/sg15_22_cif.got.tgz:42512.got - 2010.06.03 18:47:42.
