data_PCOD9304895
_publ_section_title
;
Structure prediction by ZEFSAII (Michael W. Deem and Ramdas Pophale) SiO2 
 PCOD9304895
Probable space group: C 2/C
;
_chemical_formula_sum "Si O2"
_cell_formula_units_Z 44
_cell_length_a 14.007445
_cell_length_b 9.143086
_cell_length_c 16.420290
_cell_angle_alpha 90.000000
_cell_angle_beta 112.273169
_cell_angle_gamma 90.000000
_cell_volume 1946.059409
_symmetry_space_group_name_H-M "C 2/C"
_symmetry_group_IT_number 15
_symmetry_cell_setting 'monoclinic'
loop_
_space_group_symop_operation_xyz
x,y,z
-x,y,1/2-z
-x,-y,-z
x,-y,1/2+z
1/2+x,1/2+y,z
1/2-x,1/2+y,1/2-z
1/2-x,1/2-y,-z
1/2+x,1/2-y,1/2+z
loop_
_atom_site_type_symbol
_atom_site_label
_atom_site_fract_x
_atom_site_fract_y
_atom_site_fract_z
Si Si1 0.435200 0.229100 0.857108
Si Si2 0.774334 0.363094 0.434858
Si Si3 0.139278 0.988948 0.249061
Si Si4 0.652326 0.850285 0.455010
Si Si5 0.000000 0.244144 0.750000
Si Si6 0.648551 0.002537 0.783043
O O1 0.344288 0.225216 0.893473
O O2 0.413604 0.355964 0.784967
O O3 0.545969 0.235045 0.934649
O O4 0.427255 0.074405 0.807825
O O5 0.750000 0.250000 0.500000
O O6 0.682010 0.440447 0.352222
O O7 0.838079 0.501103 0.490329
O O8 0.241000 0.997221 0.225714
O O9 0.052538 0.866131 0.201792
O O10 0.750000 0.750000 0.500000
O O11 0.656882 0.894495 0.362534
O O12 0.096743 0.352321 0.796179
#
# Coordination Sequence:
#
# PCOD9304895 Si02
#       6
#     8   8   8   8   4   8
#     4  11  24  47  73 103 149 197 249 304 378 468
#     4  11  25  47  75 109 151 189 249 322 390 444
#     4  11  26  45  75 108 141 195 255 311 370 468
#     4  12  25  44  71 106 147 195 240 311 387 445
#     4  12  24  42  80 104 142 190 254 308 374 434
#     4  11  23  48  73 105 140 195 256 306 374 462
#
# _framework density 22.609791999999999
#
# number of rings (size 3 to 8) (size 9 to 14) (size 15 to 20)
#    0.000    0.727    1.818    6.000    5.091    1.455 
#    6.545    1.818    0.000    0.000    0.000    0.000 
#    0.000    0.000    0.000    0.000    0.000    0.000 
#
# Total GULP energy -122869.231890 kJ/mol
# GULP energy per Si atom -5584.965086 kJ/mol
# Density = 2.255833 g / cm^3
# Si number density = 22.609792 Si / 1000 Ang^3
#
#
#
# Elastic Constant Matrix: (Units=GPa)
#
#
# Indices 1 2 3 4 5 6 
#
# 1 147.1605 64.2007 53.1039 0.0000 22.1834 0.0000
# 2 64.2007 131.2210 41.9901 0.0000 4.6576 0.0000
# 3 53.1039 41.9901 92.9034 0.0000 -1.6062 0.0000
# 4 0.0000 0.0000 0.0000 46.0179 0.0000 6.6912
# 5 22.1834 4.6576 -1.6062 0.0000 36.0155 0.0000
# 6 0.0000 0.0000 0.0000 6.6912 0.0000 38.5273
#
#
#
# Elastic Compliance Matrix: (Units=1/GPa)
#
#
# Indices 1 2 3 4 5 6 
#
# 1 0.011128 -0.003669 -0.004817 0.000000 -0.006595 0.000000
# 2 -0.003669 0.010183 -0.002491 0.000000 0.000832 0.000000
# 3 -0.004817 -0.002491 0.014711 0.000000 0.003945 0.000000
# 4 0.000000 0.000000 0.000000 0.022294 0.000000 -0.003872
# 5 -0.006595 0.000832 0.003945 0.000000 0.031896 0.000000
# 6 0.000000 0.000000 0.000000 -0.003872 0.000000 0.026628
#
#
# Mechanical properties :
#
#
# Convention : Reuss Voigt Hill
#
# Bulk Modulus (GPa) = 71.07659 76.65270 73.86464
# Shear Modulus (GPa) = 34.84715 38.24483 36.54599
#
# Velocity S-wave (km/s) = 3.93012 4.11727 4.02478
# Velocity P-wave (km/s) = 7.21796 7.52187 7.37148
#
# Compressibility (1/GPa) = 0.01406933
#
# Stress axis : x y z
#
# Youngs Moduli (GPa) = 89.86171 98.19823 67.97599
#
# Poissons Ratio (x) = 0.36031 0.32741
# Poissons Ratio (y) = 0.32972 0.16933
# Poissons Ratio (z) = 0.43282 0.24461
#
# Static dielectric constant tensor:
#      x y z
#    x 1.874960 0.000000 0.038930 
#    y 0.000000 1.941120 0.000000 
#    z 0.038930 0.000000 1.860090 
# 
# From -- ./inp_files/203070.got.cif
#   From: 2010.05.17/outbox.cif.g08.bks.cpg/sg15_102_cif.got.tgz:203070.got - 2010.06.03 18:47:42.
