data_PCOD9304201
_publ_section_title
;
Structure prediction by ZEFSAII (Michael W. Deem and Ramdas Pophale) SiO2 
 PCOD9304201
Probable space group: C 2/C
;
_chemical_formula_sum "Si O2"
_cell_formula_units_Z 56
_cell_length_a 27.563167
_cell_length_b 8.904265
_cell_length_c 17.498294
_cell_angle_alpha 90.000000
_cell_angle_beta 144.208126
_cell_angle_gamma 90.000000
_cell_volume 2511.666255
_symmetry_space_group_name_H-M "C 2/C"
_symmetry_group_IT_number 15
_symmetry_cell_setting 'monoclinic'
loop_
_space_group_symop_operation_xyz
x,y,z
-x,y,1/2-z
-x,-y,-z
x,-y,1/2+z
1/2+x,1/2+y,z
1/2-x,1/2+y,1/2-z
1/2-x,1/2-y,-z
1/2+x,1/2-y,1/2+z
loop_
_atom_site_type_symbol
_atom_site_label
_atom_site_fract_x
_atom_site_fract_y
_atom_site_fract_z
Si Si1 0.726012 0.575276 0.480506
Si Si2 0.190526 0.172193 0.675207
Si Si3 0.132087 0.033050 0.213836
Si Si4 0.005637 0.823403 0.123847
Si Si5 0.429021 0.609629 0.108677
Si Si6 0.120956 0.664050 0.641957
Si Si7 0.356362 0.119625 0.241539
O O1 0.750000 0.750000 0.500000
O O2 0.699878 0.507902 0.365722
O O3 0.644381 0.571959 0.427482
O O4 0.792690 0.474364 0.609116
O O5 0.116849 0.197364 0.519363
O O6 0.280950 0.169512 0.752883
O O7 0.184004 0.275144 0.743177
O O8 0.172461 0.005118 0.684417
O O9 0.106233 0.205228 0.185230
O O10 0.053266 0.926919 0.122623
O O11 0.082245 0.710221 0.236630
O O12 0.968790 0.951775 0.130955
O O13 0.933471 0.719189 0.998511
O O14 0.500000 0.689669 0.250000
O O15 0.097993 0.505625 0.648541
#
# Coordination Sequence:
#
# PCOD9304201 Si02
#       7
#     8   8   8   8   8   8   8
#     4  12  24  47  74 105 147 192 243 295 365 433
#     4  11  24  43  71 105 138 190 244 293 358 437
#     4  11  23  42  74 100 135 195 237 288 360 439
#     4  11  25  42  68 103 141 184 240 298 358 436
#     4  12  24  46  75  99 140 191 248 293 360 440
#     4  12  21  43  70 101 141 183 241 296 354 425
#     4  11  25  41  70 109 143 186 236 304 360 422
#
# _framework density 22.295954999999999
#
# number of rings (size 3 to 8) (size 9 to 14) (size 15 to 20)
#    0.000    0.571    5.714    2.571    2.000    2.286 
#    5.143    0.000    0.000    0.000    0.000    0.000 
#    0.000    0.000    0.000    0.000    0.000    0.000 
#
# Total GULP energy -156241.035529 kJ/mol
# GULP energy per Si atom -5580.036983 kJ/mol
# Density = 2.224521 g / cm^3
# Si number density = 22.295955 Si / 1000 Ang^3
#
#
#
# Elastic Constant Matrix: (Units=GPa)
#
#
# Indices 1 2 3 4 5 6 
#
# 1 54.0296 5.9153 27.4773 0.0000 12.3734 0.0000
# 2 5.9153 68.4420 2.9829 0.0000 16.6502 0.0000
# 3 27.4773 2.9829 134.3590 0.0000 -2.0466 0.0000
# 4 0.0000 0.0000 0.0000 27.0126 0.0000 -4.3231
# 5 12.3734 16.6502 -2.0466 0.0000 41.8168 0.0000
# 6 0.0000 0.0000 0.0000 -4.3231 0.0000 19.8515
#
#
#
# Elastic Compliance Matrix: (Units=1/GPa)
#
#
# Indices 1 2 3 4 5 6 
#
# 1 0.022475 -0.000071 -0.004699 0.000000 -0.006852 0.000000
# 2 -0.000071 0.016206 -0.000444 0.000000 -0.006454 0.000000
# 3 -0.004699 -0.000444 0.008444 0.000000 0.001980 0.000000
# 4 0.000000 0.000000 0.000000 0.038357 0.000000 0.008353
# 5 -0.006852 -0.006454 0.001980 0.000000 0.028608 0.000000
# 6 0.000000 0.000000 0.000000 0.008353 0.000000 0.052193
#
#
# Mechanical properties :
#
#
# Convention : Reuss Voigt Hill
#
# Bulk Modulus (GPa) = 27.24924 36.62016 31.93470
# Shear Modulus (GPa) = 26.46309 32.43320 29.44814
#
# Velocity S-wave (km/s) = 3.44888 3.81815 3.63820
# Velocity P-wave (km/s) = 5.30168 5.99149 5.65711
#
# Compressibility (1/GPa) = 0.03669826
#
# Stress axis : x y z
#
# Youngs Moduli (GPa) = 44.49374 61.70416 118.43065
#
# Poissons Ratio (x) = 0.00436 0.55652
# Poissons Ratio (y) = 0.00315 0.05254
# Poissons Ratio (z) = 0.20908 0.02737
#
# Static dielectric constant tensor:
#      x y z
#    x 1.831320 0.000000 -0.024270 
#    y 0.000000 1.876090 0.000000 
#    z -0.024270 0.000000 1.906900 
# 
# From -- ./inp_files/259035.got.cif
#   From: 2010.05.17/outbox.cif.g08.bks.cpg/sg15_130_cif.got.tgz:259035.got - 2010.06.03 18:47:42.
