data_PCOD9304454
_publ_section_title
;
Structure prediction by ZEFSAII (Michael W. Deem and Ramdas Pophale) SiO2 
 PCOD9304454
Probable space group: C 2/C
;
_chemical_formula_sum "Si O2"
_cell_formula_units_Z 52
_cell_length_a 27.514945
_cell_length_b 15.785019
_cell_length_c 16.461237
_cell_angle_alpha 90.000000
_cell_angle_beta 20.000529
_cell_angle_gamma 90.000000
_cell_volume 2445.338170
_symmetry_space_group_name_H-M "C 2/C"
_symmetry_group_IT_number 15
_symmetry_cell_setting 'monoclinic'
loop_
_space_group_symop_operation_xyz
x,y,z
-x,y,1/2-z
-x,-y,-z
x,-y,1/2+z
1/2+x,1/2+y,z
1/2-x,1/2+y,1/2-z
1/2-x,1/2-y,-z
1/2+x,1/2-y,1/2+z
loop_
_atom_site_type_symbol
_atom_site_label
_atom_site_fract_x
_atom_site_fract_y
_atom_site_fract_z
Si Si1 0.446512 0.883884 0.503969
Si Si2 0.471056 0.536978 0.199434
Si Si3 0.769024 0.310847 0.047677
Si Si4 0.033827 0.806871 0.899699
Si Si5 0.846475 0.891615 0.634704
Si Si6 0.841859 0.534733 0.338218
Si Si7 0.000000 0.197429 0.750000
O O1 0.522389 0.792762 0.397072
O O2 0.309027 0.882581 0.661067
O O3 0.390220 0.917649 0.679727
O O4 0.559884 0.954311 0.299220
O O5 0.500000 0.532496 0.250000
O O6 0.454139 0.633632 0.197199
O O7 0.320380 0.493488 0.417666
O O8 0.597295 0.488843 0.951436
O O9 0.617563 0.328317 0.322608
O O10 0.750000 0.250000 0.000000
O O11 0.847852 0.395617 0.898490
O O12 0.863791 0.256294 0.958233
O O13 0.142444 0.839912 0.798608
O O14 0.964956 0.855664 0.385058
#
# Coordination Sequence:
#
# PCOD9304454 Si02
#       7
#     8   8   8   8   8   8   4
#     4  11  24  44  70 102 141 188 231 286 348 414
#     4  12  25  45  72  97 137 193 233 279 359 428
#     4  12  21  40  69 109 132 170 230 296 340 401
#     4  12  26  42  73 105 137 182 240 289 343 425
#     4  12  21  42  71 103 138 178 237 287 349 411
#     4  11  23  44  68  99 143 182 230 287 346 408
#     4  12  20  36  74 100 134 176 222 290 350 402
#
# _framework density 21.264953999999999
#
# number of rings (size 3 to 8) (size 9 to 14) (size 15 to 20)
#    0.000    0.308    8.462    0.462    0.000    3.077 
#    0.000    0.000    0.000    0.000    0.000    0.000 
#    0.000    0.000    0.000    0.000    0.000    0.000 
#
# Total GULP energy -145358.144341 kJ/mol
# GULP energy per Si atom -5590.697859 kJ/mol
# Density = 2.121655 g / cm^3
# Si number density = 21.264954 Si / 1000 Ang^3
#
#
#
# Elastic Constant Matrix: (Units=GPa)
#
#
# Indices 1 2 3 4 5 6 
#
# 1 61.4994 46.3704 23.0753 0.0002 -25.1413 -0.0001
# 2 46.3704 177.6165 31.8894 0.0003 -9.0224 -0.0001
# 3 23.0753 31.8894 37.1918 0.0004 -19.8040 -0.0002
# 4 0.0002 0.0003 0.0004 32.5712 -0.0003 -1.0089
# 5 -25.1413 -9.0224 -19.8040 -0.0003 29.3920 0.0002
# 6 -0.0001 -0.0001 -0.0002 -1.0089 0.0002 27.4614
#
#
#
# Elastic Compliance Matrix: (Units=1/GPa)
#
#
# Indices 1 2 3 4 5 6 
#
# 1 0.031807 -0.006931 -0.000682 0.000000 0.024620 0.000000
# 2 -0.006931 0.008317 -0.007218 0.000000 -0.008239 0.000000
# 3 -0.000682 -0.007218 0.049920 0.000000 0.030836 0.000000
# 4 0.000000 0.000000 0.000000 0.030737 0.000000 0.001129
# 5 0.024620 -0.008239 0.030836 0.000000 0.073330 0.000000
# 6 0.000000 0.000000 0.000000 0.001129 0.000000 0.036456
#
#
# Mechanical properties :
#
#
# Convention : Reuss Voigt Hill
#
# Bulk Modulus (GPa) = 16.56129 53.21975 34.89052
# Shear Modulus (GPa) = 17.83450 29.54977 23.69213
#
# Velocity S-wave (km/s) = 2.89914 3.73178 3.34149
# Velocity P-wave (km/s) = 4.36024 6.60678 5.59737
#
# Compressibility (1/GPa) = 0.06038175
#
# Stress axis : x y z
#
# Youngs Moduli (GPa) = 31.43994 120.23614 20.03220
#
# Poissons Ratio (x) = 0.83333 0.01366
# Poissons Ratio (y) = 0.21790 0.14460
# Poissons Ratio (z) = 0.02144 0.86789
#
# Static dielectric constant tensor:
#      x y z
#    x -8.756590 0.000010 9.044030 
#    y 0.000010 1.800900 -0.000010 
#    z 9.044030 -0.000010 -6.029600 
# 
# From -- ./inp_files/225462.got.cif
#   From: 2010.05.17/outbox.cif.g08.bks.cpg/sg15_113_cif.got.tgz:225462.got - 2010.06.03 18:47:42.
