data_PCOD9304119
_publ_section_title
;
Structure prediction by ZEFSAII (Michael W. Deem and Ramdas Pophale) SiO2 
 PCOD9304119
Probable space group: C 2/C
;
_chemical_formula_sum "Si O2"
_cell_formula_units_Z 40
_cell_length_a 9.850894
_cell_length_b 28.306395
_cell_length_c 12.664496
_cell_angle_alpha 90.000000
_cell_angle_beta 142.945197
_cell_angle_gamma 90.000000
_cell_volume 2127.952113
_symmetry_space_group_name_H-M "C 2/C"
_symmetry_group_IT_number 15
_symmetry_cell_setting 'monoclinic'
loop_
_space_group_symop_operation_xyz
x,y,z
-x,y,1/2-z
-x,-y,-z
x,-y,1/2+z
1/2+x,1/2+y,z
1/2-x,1/2+y,1/2-z
1/2-x,1/2-y,-z
1/2+x,1/2-y,1/2+z
loop_
_atom_site_type_symbol
_atom_site_label
_atom_site_fract_x
_atom_site_fract_y
_atom_site_fract_z
Si Si1 0.503986 0.726447 0.863191
Si Si2 0.909317 0.442493 0.071852
Si Si3 0.000000 0.126896 0.250000
Si Si4 0.000000 0.609537 0.250000
Si Si5 0.234589 0.450977 0.076792
Si Si6 0.178669 0.816800 0.663617
O O1 0.500000 0.698389 0.750000
O O2 0.325837 0.768861 0.765453
O O3 0.750000 0.750000 0.000000
O O4 0.494253 0.695263 0.960564
O O5 0.000000 0.439640 0.250000
O O6 0.109250 0.437563 0.108876
O O7 0.707460 0.405566 0.920966
O O8 0.812200 0.494527 0.984396
O O9 0.916861 0.161377 0.290434
O O10 0.834423 0.643530 0.209875
O O11 0.129904 0.578706 0.416317
O O12 0.500000 0.443378 0.250000
#
# Coordination Sequence:
#
# PCOD9304119 Si02
#       6
#     8   8   4   4   8   8
#     4   9  18  40  67  92 124 163 216 277 335 384
#     4  11  25  45  65  97 140 181 215 275 340 382
#     4  12  26  46  64 100 144 174 222 276 332 406
#     4  12  22  42  66 104 126 172 240 268 314 404
#     4  11  25  42  70  97 132 182 227 271 326 390
#     4  11  23  42  68  94 133 173 216 287 333 396
#
# _framework density 18.797415000000001
#
# number of rings (size 3 to 8) (size 9 to 14) (size 15 to 20)
#    0.000    1.200    7.000    0.000    2.800    2.400 
#    7.200    0.000    0.000    0.000    0.000    0.000 
#    0.000    0.000    0.000    0.000    0.000    0.000 
#
# Total GULP energy -111534.798939 kJ/mol
# GULP energy per Si atom -5576.739947 kJ/mol
# Density = 1.875463 g / cm^3
# Si number density = 18.797415 Si / 1000 Ang^3
#
#
#
# Elastic Constant Matrix: (Units=GPa)
#
#
# Indices 1 2 3 4 5 6 
#
# 1 195.7479 78.9075 93.5212 0.0000 -28.5388 0.0000
# 2 78.9075 95.9338 63.2683 0.0000 -11.0189 0.0000
# 3 93.5212 63.2683 147.9568 0.0000 -24.7769 0.0000
# 4 0.0000 0.0000 0.0000 63.6000 0.0000 -24.2616
# 5 -28.5388 -11.0189 -24.7769 0.0000 32.9974 0.0000
# 6 0.0000 0.0000 0.0000 -24.2616 0.0000 41.2174
#
#
#
# Elastic Compliance Matrix: (Units=1/GPa)
#
#
# Indices 1 2 3 4 5 6 
#
# 1 0.009165 -0.005154 -0.002917 0.000000 0.004016 0.000000
# 2 -0.005154 0.017417 -0.004533 0.000000 -0.002045 0.000000
# 3 -0.002917 -0.004533 0.011284 0.000000 0.004436 0.000000
# 4 0.000000 0.000000 0.000000 0.020276 0.000000 0.011935
# 5 0.004016 -0.002045 0.004436 0.000000 0.036427 0.000000
# 6 0.000000 0.000000 0.000000 0.011935 0.000000 0.031287
#
#
# Mechanical properties :
#
#
# Convention : Reuss Voigt Hill
#
# Bulk Modulus (GPa) = 78.99205 101.22581 90.10893
# Shear Modulus (GPa) = 32.19948 41.15905 36.67926
#
# Velocity S-wave (km/s) = 4.14330 4.68441 4.42214
# Velocity P-wave (km/s) = 8.06246 9.12283 8.60899
#
# Compressibility (1/GPa) = 0.01265950
#
# Stress axis : x y z
#
# Youngs Moduli (GPa) = 109.10969 57.41431 88.62391
#
# Poissons Ratio (x) = 0.29589 0.25851
# Poissons Ratio (y) = 0.56230 0.40171
# Poissons Ratio (z) = 0.31827 0.26025
#
# Static dielectric constant tensor:
#      x y z
#    x 1.611200 0.000000 -0.034750 
#    y 0.000000 1.643210 0.000000 
#    z -0.034750 0.000000 1.764500 
# 
# From -- ./inp_files/23563.got.cif
#   From: 2010.05.17/outbox.cif.g08.bks.cpg/sg15_12_cif.got.tgz:23563.got - 2010.06.03 18:47:42.
