data_PCOD9304160
_publ_section_title
;
Structure prediction by ZEFSAII (Michael W. Deem and Ramdas Pophale) SiO2 
 PCOD9304160
Probable space group: C 2/C
;
_chemical_formula_sum "Si O2"
_cell_formula_units_Z 48
_cell_length_a 13.260121
_cell_length_b 15.099256
_cell_length_c 9.630206
_cell_angle_alpha 90.000000
_cell_angle_beta 116.061867
_cell_angle_gamma 90.000000
_cell_volume 1732.087259
_symmetry_space_group_name_H-M "C 2/C"
_symmetry_group_IT_number 15
_symmetry_cell_setting 'monoclinic'
loop_
_space_group_symop_operation_xyz
x,y,z
-x,y,1/2-z
-x,-y,-z
x,-y,1/2+z
1/2+x,1/2+y,z
1/2-x,1/2+y,1/2-z
1/2-x,1/2-y,-z
1/2+x,1/2-y,1/2+z
loop_
_atom_site_type_symbol
_atom_site_label
_atom_site_fract_x
_atom_site_fract_y
_atom_site_fract_z
Si Si1 0.507987 0.749660 0.997150
Si Si2 0.811565 0.157522 0.028103
Si Si3 0.110082 0.022512 0.220156
Si Si4 0.339554 0.606459 0.529815
Si Si5 0.113228 0.397199 0.730304
Si Si6 0.612777 0.092680 0.723909
O O1 0.436226 0.680297 0.046230
O O2 0.411918 0.813695 0.880106
O O3 0.581658 0.691831 0.936120
O O4 0.592672 0.818265 0.123362
O O5 0.724460 0.101454 0.883483
O O6 0.750000 0.250000 0.000000
O O7 0.822610 0.107422 0.180547
O O8 0.109232 0.037603 0.055348
O O9 0.000000 0.023781 0.250000
O O10 0.162245 0.932705 0.316634
O O11 0.215279 0.619415 0.396573
O O12 0.120436 0.494210 0.662346
O O13 0.000000 0.402857 0.750000
O O14 0.500000 0.092578 0.750000
#
# Coordination Sequence:
#
# PCOD9304160 Si02
#       6
#     8   8   8   8   8   8
#     4  12  25  44  75 110 154 204 261 326 388 475
#     4  12  23  42  73 111 148 198 267 323 374 466
#     4  12  26  49  76 117 156 201 260 323 399 465
#     4  12  28  50  81 115 155 207 266 328 396 473
#     4  11  27  50  71 109 159 208 258 325 406 473
#     4  11  23  42  70 107 149 202 258 317 388 461
#
# _framework density 27.712230999999999
#
# number of rings (size 3 to 8) (size 9 to 14) (size 15 to 20)
#    0.000    0.333    5.000    4.000    0.000    2.667 
#    0.000    0.000    0.000    0.000    0.000    0.000 
#    0.000    0.000    0.000    0.000    0.000    0.000 
#
# Total GULP energy -134575.625194 kJ/mol
# GULP energy per Si atom -5607.317716 kJ/mol
# Density = 2.764916 g / cm^3
# Si number density = 27.712231 Si / 1000 Ang^3
#
#
#
# Elastic Constant Matrix: (Units=GPa)
#
#
# Indices 1 2 3 4 5 6 
#
# 1 123.2632 33.2106 18.4139 0.0000 5.3751 0.0000
# 2 33.2106 152.4534 39.5134 0.0000 -5.0320 0.0000
# 3 18.4139 39.5134 96.4121 0.0000 -3.0431 0.0000
# 4 0.0000 0.0000 0.0000 43.8352 0.0000 -6.0607
# 5 5.3751 -5.0320 -3.0431 0.0000 50.5911 0.0000
# 6 0.0000 0.0000 0.0000 -6.0607 0.0000 49.7955
#
#
#
# Elastic Compliance Matrix: (Units=1/GPa)
#
#
# Indices 1 2 3 4 5 6 
#
# 1 0.008770 -0.001684 -0.001021 0.000000 -0.001161 0.000000
# 2 -0.001684 0.007678 -0.002801 0.000000 0.000774 0.000000
# 3 -0.001021 -0.002801 0.011732 0.000000 0.000536 0.000000
# 4 0.000000 0.000000 0.000000 0.023203 0.000000 0.002824
# 5 -0.001161 0.000774 0.000536 0.000000 0.019999 0.000000
# 6 0.000000 0.000000 0.000000 0.002824 0.000000 0.020426
#
#
# Mechanical properties :
#
#
# Convention : Reuss Voigt Hill
#
# Bulk Modulus (GPa) = 58.25012 61.60050 59.92531
# Shear Modulus (GPa) = 46.06543 47.57709 46.82126
#
# Velocity S-wave (km/s) = 4.08153 4.14796 4.11488
# Velocity P-wave (km/s) = 6.57853 6.72440 6.65187
#
# Compressibility (1/GPa) = 0.01716735
#
# Stress axis : x y z
#
# Youngs Moduli (GPa) = 114.02996 130.24866 85.23772
#
# Poissons Ratio (x) = 0.21933 0.08706
# Poissons Ratio (y) = 0.19202 0.23871
# Poissons Ratio (z) = 0.11647 0.36477
#
# Static dielectric constant tensor:
#      x y z
#    x 2.214620 0.000000 0.024840 
#    y 0.000000 2.186380 0.000000 
#    z 0.024840 0.000000 2.124890 
# 
# From -- ./inp_files/97199.got.cif
#   From: 2010.05.17/outbox.cif.g08.bks.cpg/sg15_49_cif.got.tgz:97199.got - 2010.06.03 18:47:42.
