data_PCOD9304610
_publ_section_title
;
Structure prediction by ZEFSAII (Michael W. Deem and Ramdas Pophale) SiO2 
 PCOD9304610
Probable space group: C 2/C
;
_chemical_formula_sum "Si O2"
_cell_formula_units_Z 60
_cell_length_a 16.597889
_cell_length_b 28.016675
_cell_length_c 11.181291
_cell_angle_alpha 90.000000
_cell_angle_beta 33.122283
_cell_angle_gamma 90.000000
_cell_volume 2841.149718
_symmetry_space_group_name_H-M "C 2/C"
_symmetry_group_IT_number 15
_symmetry_cell_setting 'monoclinic'
loop_
_space_group_symop_operation_xyz
x,y,z
-x,y,1/2-z
-x,-y,-z
x,-y,1/2+z
1/2+x,1/2+y,z
1/2-x,1/2+y,1/2-z
1/2-x,1/2-y,-z
1/2+x,1/2-y,1/2+z
loop_
_atom_site_type_symbol
_atom_site_label
_atom_site_fract_x
_atom_site_fract_y
_atom_site_fract_z
Si Si1 0.452112 0.604678 0.545241
Si Si2 0.402673 0.239695 0.608789
Si Si3 0.500000 0.460426 0.750000
Si Si4 0.635342 0.663762 0.486979
Si Si5 0.985144 0.454104 0.939379
Si Si6 0.890116 0.803037 0.991501
Si Si7 0.965155 0.644050 0.156050
Si Si8 0.233616 0.963338 0.059020
O O1 0.467605 0.571540 0.408315
O O2 0.598443 0.626926 0.424569
O O3 0.366965 0.652139 0.608329
O O4 0.375145 0.574804 0.746068
O O5 0.358711 0.283098 0.575995
O O6 0.524542 0.261939 0.543123
O O7 0.463721 0.194888 0.460661
O O8 0.264105 0.219250 0.854292
O O9 0.364618 0.494259 0.874722
O O10 0.791721 0.651462 0.349580
O O11 0.500000 0.661822 0.750000
O O12 0.959380 0.399548 0.012878
O O13 0.151389 0.447051 0.683431
O O14 0.853700 0.470863 0.014977
O O15 0.000000 0.500000 0.000000
O O16 0.000000 0.818905 0.750000
O O17 0.000000 0.631161 0.250000
#
# Coordination Sequence:
#
# PCOD9304610 Si02
#       8
#     8   8   4   8   8   8   8   8
#     4  11  25  45  70 104 136 185 235 294 361 425
#     4  11  24  42  70 104 140 184 234 290 359 427
#     4  12  26  44  74 100 134 186 240 296 360 418
#     4  11  26  43  71 106 146 182 237 296 355 436
#     4  11  25  44  67 100 145 185 231 290 359 424
#     4  11  23  45  69  96 143 183 239 290 353 431
#     4  12  25  43  72 104 141 188 234 292 366 424
#     4  11  24  43  68 100 133 184 233 295 350 421
#
# _framework density 21.118210000000001
#
# number of rings (size 3 to 8) (size 9 to 14) (size 15 to 20)
#    0.000    0.800    3.333    3.600    8.400    1.067 
#    0.000    0.000    2.933    0.000    0.000    0.000 
#    0.000    0.000    0.000    0.000    0.000    0.000 
#
# Total GULP energy -167364.287333 kJ/mol
# GULP energy per Si atom -5578.809578 kJ/mol
# Density = 2.107014 g / cm^3
# Si number density = 21.118210 Si / 1000 Ang^3
#
#
#
# Elastic Constant Matrix: (Units=GPa)
#
#
# Indices 1 2 3 4 5 6 
#
# 1 67.6460 65.2841 43.2543 -0.0012 -19.3251 -0.0017
# 2 65.2841 147.3350 46.0523 -0.0002 -11.6368 -0.0004
# 3 43.2543 46.0523 78.1022 -0.0039 -19.3241 -0.0060
# 4 -0.0012 -0.0002 -0.0039 13.1028 0.0017 -14.1050
# 5 -19.3251 -11.6368 -19.3241 0.0017 32.8880 0.0026
# 6 -0.0017 -0.0004 -0.0060 -14.1050 0.0026 -50.4405
#
#
#
# Elastic Compliance Matrix: (Units=1/GPa)
#
#
# Indices 1 2 3 4 5 6 
#
# 1 0.035807 -0.011830 -0.010162 -0.000001 0.010883 0.000001
# 2 -0.011830 0.012229 -0.001531 0.000000 -0.003524 0.000000
# 3 -0.010162 -0.001531 0.020738 0.000002 0.005672 -0.000002
# 4 -0.000001 0.000000 0.000002 0.058661 -0.000001 -0.016404
# 5 0.010883 -0.003524 0.005672 -0.000001 0.038887 0.000001
# 6 0.000001 0.000000 -0.000002 -0.016404 0.000001 -0.015238
#
#
# Mechanical properties :
#
#
# Convention : Reuss Voigt Hill
#
# Bulk Modulus (GPa) = 46.02484 66.91828 56.47156
# Shear Modulus (GPa) = 24.34588 8.34289 16.34438
#
# Velocity S-wave (km/s) = 3.39903 1.98976 2.78501
# Velocity P-wave (km/s) = 6.10293 6.08565 6.09430
#
# Compressibility (1/GPa) = 0.02172740
#
# Stress axis : x y z
#
# Youngs Moduli (GPa) = 27.92758 81.77000 48.22086
#
# Poissons Ratio (x) = 0.96734 0.49003
# Poissons Ratio (y) = 0.33038 0.07384
# Poissons Ratio (z) = 0.28380 0.12521
#
# Static dielectric constant tensor:
#      x y z
#    x 1.761100 0.000000 0.029440 
#    y 0.000000 1.896480 0.000000 
#    z 0.029440 0.000000 1.770050 
# 
# From -- ./inp_files/108401.got.cif
#   From: 2010.05.17/outbox.cif.g08.bks.cpg/sg15_55_cif.got.tgz:108401.got - 2010.06.03 18:47:42.
