data_PCOD9304859
_publ_section_title
;
Structure prediction by ZEFSAII (Michael W. Deem and Ramdas Pophale) SiO2 
 PCOD9304859
Probable space group: C 2/C
;
_chemical_formula_sum "Si O2"
_cell_formula_units_Z 40
_cell_length_a 9.378601
_cell_length_b 14.250992
_cell_length_c 13.888575
_cell_angle_alpha 90.000000
_cell_angle_beta 66.369202
_cell_angle_gamma 90.000000
_cell_volume 1700.615752
_symmetry_space_group_name_H-M "C 2/C"
_symmetry_group_IT_number 15
_symmetry_cell_setting 'monoclinic'
loop_
_space_group_symop_operation_xyz
x,y,z
-x,y,1/2-z
-x,-y,-z
x,-y,1/2+z
1/2+x,1/2+y,z
1/2-x,1/2+y,1/2-z
1/2-x,1/2-y,-z
1/2+x,1/2-y,1/2+z
loop_
_atom_site_type_symbol
_atom_site_label
_atom_site_fract_x
_atom_site_fract_y
_atom_site_fract_z
Si Si1 0.814404 0.196216 0.280373
Si Si2 0.159685 0.134635 0.925762
Si Si3 0.334283 0.017129 0.497995
Si Si4 0.799189 0.821732 0.568218
Si Si5 0.321167 0.517949 0.775281
O O1 0.727114 0.263648 0.378872
O O2 0.788933 0.223766 0.176106
O O3 0.757413 0.088331 0.294345
O O4 0.000000 0.201272 0.250000
O O5 0.251137 0.078273 0.984139
O O6 0.189185 0.073486 0.820967
O O7 0.977720 0.142422 0.003534
O O8 0.245245 0.064810 0.611382
O O9 0.500000 0.000000 0.500000
O O10 0.315941 0.089689 0.415420
O O11 0.750000 0.750000 0.500000
O O12 0.500000 0.505946 0.750000
#
# Coordination Sequence:
#
# PCOD9304859 Si02
#       5
#     8   8   8   8   8
#     4  11  27  45  75 111 150 198 257 307 377 461
#     4  12  26  50  79 106 161 202 248 323 382 451
#     4  12  28  47  77 110 151 200 255 318 386 453
#     4  12  27  50  77 113 151 205 261 309 389 468
#     4  11  23  47  75 104 144 204 251 302 386 453
#
# _framework density 23.520890999999999
#
# number of rings (size 3 to 8) (size 9 to 14) (size 15 to 20)
#    0.000    0.400    4.000    4.200    8.400    1.600 
#    0.000    0.000    0.000    0.000    0.000    0.000 
#    0.000    0.000    0.000    0.000    0.000    0.000 
#
# Total GULP energy -111853.532589 kJ/mol
# GULP energy per Si atom -5592.676629 kJ/mol
# Density = 2.346736 g / cm^3
# Si number density = 23.520891 Si / 1000 Ang^3
#
#
#
# Elastic Constant Matrix: (Units=GPa)
#
#
# Indices 1 2 3 4 5 6 
#
# 1 142.4774 34.5304 27.8931 0.0000 11.9174 0.0000
# 2 34.5304 111.6593 5.9961 0.0000 9.3621 0.0000
# 3 27.8931 5.9961 98.9693 0.0000 26.2661 0.0000
# 4 0.0000 0.0000 0.0000 49.7972 0.0000 9.2812
# 5 11.9174 9.3621 26.2661 0.0000 39.5963 0.0000
# 6 0.0000 0.0000 0.0000 9.2812 0.0000 33.8137
#
#
#
# Elastic Compliance Matrix: (Units=1/GPa)
#
#
# Indices 1 2 3 4 5 6 
#
# 1 0.008015 -0.002326 -0.001971 0.000000 -0.000555 0.000000
# 2 -0.002326 0.009812 0.000596 0.000000 -0.002015 0.000000
# 3 -0.001971 0.000596 0.012748 0.000000 -0.008004 0.000000
# 4 0.000000 0.000000 0.000000 0.021164 0.000000 -0.005809
# 5 -0.000555 -0.002015 -0.008004 0.000000 0.031208 0.000000
# 6 0.000000 0.000000 0.000000 -0.005809 0.000000 0.031168
#
#
# Mechanical properties :
#
#
# Convention : Reuss Voigt Hill
#
# Bulk Modulus (GPa) = 43.15401 54.43835 48.79618
# Shear Modulus (GPa) = 38.68758 43.62055 41.15407
#
# Velocity S-wave (km/s) = 4.06004 4.31111 4.18746
# Velocity P-wave (km/s) = 6.35338 6.92646 6.64610
#
# Compressibility (1/GPa) = 0.02317282
#
# Stress axis : x y z
#
# Youngs Moduli (GPa) = 124.77193 101.91463 78.44590
#
# Poissons Ratio (x) = 0.23707 0.15458
# Poissons Ratio (y) = 0.29024 -0.04675
# Poissons Ratio (z) = 0.24587 -0.06074
#
# Static dielectric constant tensor:
#      x y z
#    x 1.814850 0.000000 0.028890 
#    y 0.000000 1.995380 0.000000 
#    z 0.028890 0.000000 1.910280 
# 
# From -- ./inp_files/133057.got.cif
#   From: 2010.05.17/outbox.cif.g08.bks.cpg/sg15_67_cif.got.tgz:133057.got - 2010.06.03 18:47:42.
