data_PCOD9304278
_publ_section_title
;
Structure prediction by ZEFSAII (Michael W. Deem and Ramdas Pophale) SiO2 
 PCOD9304278
Probable space group: C 2/C
;
_chemical_formula_sum "Si O2"
_cell_formula_units_Z 40
_cell_length_a 20.672728
_cell_length_b 7.883927
_cell_length_c 28.045023
_cell_angle_alpha 90.000000
_cell_angle_beta 156.303568
_cell_angle_gamma 90.000000
_cell_volume 1836.979039
_symmetry_space_group_name_H-M "C 2/C"
_symmetry_group_IT_number 15
_symmetry_cell_setting 'monoclinic'
loop_
_space_group_symop_operation_xyz
x,y,z
-x,y,1/2-z
-x,-y,-z
x,-y,1/2+z
1/2+x,1/2+y,z
1/2-x,1/2+y,1/2-z
1/2-x,1/2-y,-z
1/2+x,1/2-y,1/2+z
loop_
_atom_site_type_symbol
_atom_site_label
_atom_site_fract_x
_atom_site_fract_y
_atom_site_fract_z
Si Si1 0.846272 0.751632 0.015819
Si Si2 0.321785 0.445157 0.650774
Si Si3 0.833592 0.441974 0.363306
Si Si4 0.690923 0.897993 0.757063
Si Si5 0.818349 0.557977 0.647769
O O1 0.787099 0.587800 0.946734
O O2 0.797797 0.921080 0.955043
O O3 0.750000 0.750000 0.000000
O O4 0.032896 0.721093 0.150496
O O5 0.500000 0.467424 0.750000
O O6 0.303326 0.481455 0.694304
O O7 0.271750 0.252163 0.606390
O O8 0.831824 0.237807 0.360323
O O9 0.807266 0.509383 0.292239
O O10 0.000000 0.500000 0.500000
O O11 0.819189 0.522829 0.704859
O O12 0.000000 0.530997 0.750000
#
# Coordination Sequence:
#
# PCOD9304278 Si02
#       5
#     8   8   8   8   8
#     4  12  23  43  72 102 140 185 238 297 355 419
#     4  11  24  45  69 101 144 183 235 297 350 428
#     4  12  25  46  71 103 147 187 239 298 357 428
#     4  12  24  44  71 101 143 193 236 295 360 420
#     4  11  23  43  68 104 143 184 239 294 354 429
#
# _framework density 21.774882000000002
#
# number of rings (size 3 to 8) (size 9 to 14) (size 15 to 20)
#    0.000    0.400    6.000    3.000    0.000    2.400 
#    3.600    4.000    0.000    0.000    0.000    0.000 
#    0.000    0.000    0.000    0.000    0.000    0.000 
#
# Total GULP energy -111948.336554 kJ/mol
# GULP energy per Si atom -5597.416828 kJ/mol
# Density = 2.172532 g / cm^3
# Si number density = 21.774882 Si / 1000 Ang^3
#
#
#
# Elastic Constant Matrix: (Units=GPa)
#
#
# Indices 1 2 3 4 5 6 
#
# 1 159.4694 7.1069 -1.6412 -0.0044 -21.1915 -0.0007
# 2 7.1069 120.8482 15.9029 -0.0058 -6.8614 -0.0008
# 3 -1.6412 15.9029 24.6751 -0.0157 -6.7268 -0.0013
# 4 -0.0044 -0.0058 -0.0157 0.7441 -0.0001 -19.2754
# 5 -21.1915 -6.8614 -6.7268 -0.0001 29.7203 -0.0001
# 6 -0.0007 -0.0008 -0.0013 -19.2754 -0.0001 33.7003
#
#
#
# Elastic Compliance Matrix: (Units=1/GPa)
#
#
# Indices 1 2 3 4 5 6 
#
# 1 0.007031 -0.000395 0.002200 -0.000007 0.005420 -0.000004
# 2 -0.000395 0.009083 -0.005739 0.000004 0.000516 0.000002
# 3 0.002200 -0.005739 0.047361 -0.000073 0.010963 -0.000040
# 4 -0.000007 0.000004 -0.000073 -0.097269 -0.000021 -0.055634
# 5 0.005420 0.000516 0.010963 -0.000021 0.040112 -0.000011
# 6 -0.000004 0.000002 -0.000040 -0.055634 -0.000011 -0.002148
#
#
# Mechanical properties :
#
#
# Convention : Reuss Voigt Hill
#
# Bulk Modulus (GPa) = 17.98382 38.63666 28.31024
# Shear Modulus (GPa) = 163.53341 31.74121 97.63731
#
# Velocity S-wave (km/s) = 8.67553 3.82212 6.70349
# Velocity P-wave (km/s) = 10.42258 6.10413 8.54080
#
# Compressibility (1/GPa) = 0.05560555
#
# Stress axis : x y z
#
# Youngs Moduli (GPa) = 142.22049 110.10001 21.11459
#
# Poissons Ratio (x) = 0.04352 -0.04645
# Poissons Ratio (y) = 0.05622 0.12118
# Poissons Ratio (z) = -0.31289 0.63190
#
# Static dielectric constant tensor:
#      x y z
#    x 1.819910 0.000000 0.050780 
#    y 0.000000 1.900160 -0.000050 
#    z 0.050780 -0.000050 1.820020 
# 
# From -- ./inp_files/276763.got.cif
#   From: 2010.05.17/outbox.cif.g08.bks.cpg/sg15_139_cif.got.tgz:276763.got - 2010.06.03 18:47:42.
