data_PCOD9304811
_publ_section_title
;
Structure prediction by ZEFSAII (Michael W. Deem and Ramdas Pophale) SiO2 
 PCOD9304811
Probable space group: C 2/C
;
_chemical_formula_sum "Si O2"
_cell_formula_units_Z 32
_cell_length_a 6.761728
_cell_length_b 11.622543
_cell_length_c 16.652542
_cell_angle_alpha 90.000000
_cell_angle_beta 123.961065
_cell_angle_gamma 90.000000
_cell_volume 1085.456756
_symmetry_space_group_name_H-M "C 2/C"
_symmetry_group_IT_number 15
_symmetry_cell_setting 'monoclinic'
loop_
_space_group_symop_operation_xyz
x,y,z
-x,y,1/2-z
-x,-y,-z
x,-y,1/2+z
1/2+x,1/2+y,z
1/2-x,1/2+y,1/2-z
1/2-x,1/2-y,-z
1/2+x,1/2-y,1/2+z
loop_
_atom_site_type_symbol
_atom_site_label
_atom_site_fract_x
_atom_site_fract_y
_atom_site_fract_z
Si Si1 0.130572 0.907597 0.405349
Si Si2 0.172910 0.619647 0.972009
Si Si3 0.742638 0.767990 0.731313
Si Si4 0.197979 0.397862 0.890209
O O1 0.245637 0.670090 0.319126
O O2 0.136814 0.860016 0.498411
O O3 0.910562 0.850671 0.309301
O O4 0.157715 0.042964 0.430785
O O5 0.189906 0.536780 0.895695
O O6 0.890327 0.616207 0.926411
O O7 0.250000 0.750000 0.000000
O O8 0.566855 0.855623 0.645265
O O9 0.000000 0.757441 0.750000
#
# Coordination Sequence:
#
# PCOD9304811 Si02
#       4
#     8   8   8   8
#     4   9  21  47  90 132 178 240 320 385 474 560
#     4   9  20  48  96 126 174 239 321 399 461 564
#     4  11  23  46  90 131 193 241 304 393 477 574
#     4   9  22  48  84 131 179 237 319 376 477 557
#
# _framework density 29.48068
#
# number of rings (size 3 to 8) (size 9 to 14) (size 15 to 20)
#    1.500    1.000    0.000    0.750    0.000    1.000 
#    9.000    6.250   33.000    1.500    0.000    0.000 
#    0.000    0.000    0.000    0.000    0.000    0.000 
#
# Total GULP energy -89462.459501 kJ/mol
# GULP energy per Si atom -5591.403719 kJ/mol
# Density = 2.941358 g / cm^3
# Si number density = 29.480680 Si / 1000 Ang^3
#
#
#
# Elastic Constant Matrix: (Units=GPa)
#
#
# Indices 1 2 3 4 5 6 
#
# 1 241.2656 127.8303 127.9557 0.0000 14.3315 0.0000
# 2 127.8303 321.8655 95.5380 0.0000 10.7589 0.0000
# 3 127.9557 95.5380 179.2992 0.0000 17.5191 0.0000
# 4 0.0000 0.0000 0.0000 70.7695 0.0000 15.4003
# 5 14.3315 10.7589 17.5191 0.0000 70.1548 0.0000
# 6 0.0000 0.0000 0.0000 15.4003 0.0000 58.1573
#
#
#
# Elastic Compliance Matrix: (Units=1/GPa)
#
#
# Indices 1 2 3 4 5 6 
#
# 1 0.007311 -0.001609 -0.004344 0.000000 -0.000162 0.000000
# 2 -0.001609 0.004045 -0.001003 0.000000 -0.000041 0.000000
# 3 -0.004344 -0.001003 0.009338 0.000000 -0.001291 0.000000
# 4 0.000000 0.000000 0.000000 0.014994 0.000000 -0.003971
# 5 -0.000162 -0.000041 -0.001291 0.000000 0.014616 0.000000
# 6 0.000000 0.000000 0.000000 -0.003971 0.000000 0.018246
#
#
# Mechanical properties :
#
#
# Convention : Reuss Voigt Hill
#
# Bulk Modulus (GPa) = 147.46020 160.56428 154.01224
# Shear Modulus (GPa) = 59.01564 65.89009 62.45287
#
# Velocity S-wave (km/s) = 4.47905 4.73274 4.60764
# Velocity P-wave (km/s) = 8.76795 9.18953 8.98122
#
# Compressibility (1/GPa) = 0.00678149
#
# Stress axis : x y z
#
# Youngs Moduli (GPa) = 136.78566 247.22303 107.08610
#
# Poissons Ratio (x) = 0.39767 0.46521
# Poissons Ratio (y) = 0.22003 0.10744
# Poissons Ratio (z) = 0.59424 0.24805
#
# Static dielectric constant tensor:
#      x y z
#    x 2.509050 0.000000 -0.067470 
#    y 0.000000 2.287450 0.000000 
#    z -0.067470 0.000000 2.337220 
# 
# From -- ./inp_files/93488.got.cif
#   From: 2010.05.17/outbox.cif.g08.bks.cpg/sg15_47_cif.got.tgz:93488.got - 2010.06.03 18:47:42.
