data_PCOD9304883
_publ_section_title
;
Structure prediction by ZEFSAII (Michael W. Deem and Ramdas Pophale) SiO2 
 PCOD9304883
Probable space group: C 2/C
;
_chemical_formula_sum "Si O2"
_cell_formula_units_Z 36
_cell_length_a 28.012439
_cell_length_b 6.676214
_cell_length_c 28.615261
_cell_angle_alpha 90.000000
_cell_angle_beta 160.373702
_cell_angle_gamma 90.000000
_cell_volume 1797.496716
_symmetry_space_group_name_H-M "C 2/C"
_symmetry_group_IT_number 15
_symmetry_cell_setting 'monoclinic'
loop_
_space_group_symop_operation_xyz
x,y,z
-x,y,1/2-z
-x,-y,-z
x,-y,1/2+z
1/2+x,1/2+y,z
1/2-x,1/2+y,1/2-z
1/2-x,1/2-y,-z
1/2+x,1/2-y,1/2+z
loop_
_atom_site_type_symbol
_atom_site_label
_atom_site_fract_x
_atom_site_fract_y
_atom_site_fract_z
Si Si1 0.859372 0.138756 0.066322
Si Si2 0.904843 0.524885 0.842795
Si Si3 0.595405 0.305527 0.079279
Si Si4 0.500000 0.718791 0.750000
Si Si5 0.392220 0.044587 0.723107
O O1 0.998746 0.274602 0.188023
O O2 0.900990 0.929788 0.128744
O O3 0.750000 0.250000 0.000000
O O4 0.769776 0.109112 0.936412
O O5 0.754661 0.632411 0.713748
O O6 0.906493 0.325493 0.875344
O O7 0.917811 0.484718 0.799977
O O8 0.026859 0.669072 0.975599
O O9 0.500000 0.500000 0.000000
O O10 0.422900 0.864039 0.715636
#
# Coordination Sequence:
#
# PCOD9304883 Si02
#       5
#     8   8   8   4   8
#     4  12  23  47  65  94 142 176 217 281 326 383
#     4  11  25  44  71 100 131 175 224 271 337 396
#     4  11  23  48  69  95 138 172 216 285 332 393
#     4  12  24  44  68  94 140 176 220 268 330 392
#     4  12  26  42  71 101 130 179 224 270 330 401
#
# _framework density 20.027854000000001
#
# number of rings (size 3 to 8) (size 9 to 14) (size 15 to 20)
#    0.000    0.444    6.667    2.000    0.000    3.556 
#    0.000    0.000    0.000    0.000    0.000    0.000 
#    0.000    0.000    0.000    0.000    0.000    0.000 
#
# Total GULP energy -100703.935910 kJ/mol
# GULP energy per Si atom -5594.663106 kJ/mol
# Density = 1.998227 g / cm^3
# Si number density = 20.027854 Si / 1000 Ang^3
#
#
#
# Elastic Constant Matrix: (Units=GPa)
#
#
# Indices 1 2 3 4 5 6 
#
# 1 103.4470 47.5478 47.8309 0.0017 -30.7255 0.0005
# 2 47.5478 122.8468 64.7663 0.0073 1.1279 0.0040
# 3 47.8309 64.7663 142.0027 0.0018 -18.7407 0.0010
# 4 0.0017 0.0073 0.0018 40.2554 -0.0008 -0.4108
# 5 -30.7255 1.1279 -18.7407 -0.0008 28.6754 -0.0011
# 6 0.0005 0.0040 0.0010 -0.4108 -0.0011 12.6299
#
#
#
# Elastic Compliance Matrix: (Units=1/GPa)
#
#
# Indices 1 2 3 4 5 6 
#
# 1 0.019556 -0.007573 -0.000360 0.000001 0.021017 0.000003
# 2 -0.007573 0.014076 -0.005486 -0.000002 -0.012253 -0.000005
# 3 -0.000360 -0.005486 0.010553 0.000001 0.006728 0.000001
# 4 0.000001 -0.000002 0.000001 0.024850 0.000002 0.000808
# 5 0.021017 -0.012253 0.006728 0.000002 0.062271 0.000008
# 6 0.000003 -0.000005 0.000001 0.000808 0.000008 0.079204
#
#
# Mechanical properties :
#
#
# Convention : Reuss Voigt Hill
#
# Bulk Modulus (GPa) = 57.64200 76.50960 67.07580
# Shear Modulus (GPa) = 20.56511 30.18892 25.37702
#
# Velocity S-wave (km/s) = 3.20789 3.88667 3.56348
# Velocity P-wave (km/s) = 6.52412 7.64370 7.10599
#
# Compressibility (1/GPa) = 0.01734846
#
# Stress axis : x y z
#
# Youngs Moduli (GPa) = 51.13512 71.04191 94.75560
#
# Poissons Ratio (x) = 0.53797 0.03407
# Poissons Ratio (y) = 0.38722 0.51988
# Poissons Ratio (z) = 0.01839 0.38977
#
# Static dielectric constant tensor:
#      x y z
#    x 1.673420 0.000000 -0.014470 
#    y 0.000000 1.686690 0.000000 
#    z -0.014470 0.000000 1.722910 
# 
# From -- ./inp_files/120573.got.cif
#   From: 2010.05.17/outbox.cif.g08.bks.cpg/sg15_61_cif.got.tgz:120573.got - 2010.06.03 18:47:42.
