data_PCOD9304020
_publ_section_title
;
Structure prediction by ZEFSAII (Michael W. Deem and Ramdas Pophale) SiO2 
 PCOD9304020
Probable space group: C 2/C
;
_chemical_formula_sum "Si O2"
_cell_formula_units_Z 32
_cell_length_a 32.136805
_cell_length_b 7.180312
_cell_length_c 11.102943
_cell_angle_alpha 90.000000
_cell_angle_beta 146.624019
_cell_angle_gamma 90.000000
_cell_volume 1409.451111
_symmetry_space_group_name_H-M "C 2/C"
_symmetry_group_IT_number 15
_symmetry_cell_setting 'monoclinic'
loop_
_space_group_symop_operation_xyz
x,y,z
-x,y,1/2-z
-x,-y,-z
x,-y,1/2+z
1/2+x,1/2+y,z
1/2-x,1/2+y,1/2-z
1/2-x,1/2-y,-z
1/2+x,1/2-y,1/2+z
loop_
_atom_site_type_symbol
_atom_site_label
_atom_site_fract_x
_atom_site_fract_y
_atom_site_fract_z
Si Si1 0.486804 0.627595 0.349805
Si Si2 0.329516 0.231360 0.556466
Si Si3 0.130585 0.629826 0.230249
Si Si4 0.766606 0.873305 0.886731
O O1 0.500000 0.535420 0.250000
O O2 0.500000 0.500000 0.500000
O O3 0.402813 0.708892 0.156722
O O4 0.548177 0.793793 0.504266
O O5 0.264374 0.125053 0.323564
O O6 0.292814 0.428148 0.501931
O O7 0.361928 0.090344 0.733408
O O8 0.163089 0.734869 0.427143
O O9 0.192783 0.689156 0.282423
#
# Coordination Sequence:
#
# PCOD9304020 Si02
#       4
#     8   8   8   8
#     4  12  26  49  73 104 148 191 241 299 362 432
#     4  12  23  44  71 102 140 192 237 296 366 428
#     4  11  24  44  68 101 140 186 238 300 355 427
#     4  11  23  41  71 100 140 182 241 295 357 428
#
# _framework density 22.703873000000002
#
# number of rings (size 3 to 8) (size 9 to 14) (size 15 to 20)
#    0.000    0.500    7.500    1.500    0.000    0.000 
#    9.000    0.000    0.000    0.000    0.000    0.000 
#    0.000    0.000    0.000    0.000    0.000    0.000 
#
# Total GULP energy -89330.561235 kJ/mol
# GULP energy per Si atom -5583.160077 kJ/mol
# Density = 2.265220 g / cm^3
# Si number density = 22.703873 Si / 1000 Ang^3
#
#
#
# Elastic Constant Matrix: (Units=GPa)
#
#
# Indices 1 2 3 4 5 6 
#
# 1 66.4036 -6.0505 38.1397 0.0000 13.2530 0.0000
# 2 -6.0505 88.8433 35.4031 0.0000 0.5960 0.0000
# 3 38.1397 35.4031 110.1294 0.0000 2.8161 0.0000
# 4 0.0000 0.0000 0.0000 37.9680 0.0000 6.2288
# 5 13.2530 0.5960 2.8161 0.0000 31.4608 0.0000
# 6 0.0000 0.0000 0.0000 6.2288 0.0000 18.1583
#
#
#
# Elastic Compliance Matrix: (Units=1/GPa)
#
#
# Indices 1 2 3 4 5 6 
#
# 1 0.022665 0.005323 -0.009335 0.000000 -0.008813 0.000000
# 2 0.005323 0.014160 -0.006346 0.000000 -0.001942 0.000000
# 3 -0.009335 -0.006346 0.014282 0.000000 0.002774 0.000000
# 4 0.000000 0.000000 0.000000 0.027909 0.000000 -0.009573
# 5 -0.008813 -0.001942 0.002774 0.000000 0.035287 0.000000
# 6 0.000000 0.000000 0.000000 -0.009573 0.000000 0.058355
#
#
# Mechanical properties :
#
#
# Convention : Reuss Voigt Hill
#
# Bulk Modulus (GPa) = 32.90452 44.48454 38.69453
# Shear Modulus (GPa) = 24.56961 30.70968 27.63965
#
# Velocity S-wave (km/s) = 3.29321 3.68179 3.49291
# Velocity P-wave (km/s) = 5.38375 6.14084 5.77472
#
# Compressibility (1/GPa) = 0.03039096
#
# Stress axis : x y z
#
# Youngs Moduli (GPa) = 44.12102 70.62183 70.01804
#
# Poissons Ratio (x) = -0.37589 0.65361
# Poissons Ratio (y) = -0.23484 0.44431
# Poissons Ratio (z) = 0.41187 0.44814
#
# Static dielectric constant tensor:
#      x y z
#    x 1.930540 0.000000 -0.097780 
#    y 0.000000 1.858780 0.000000 
#    z -0.097780 0.000000 1.851080 
# 
# From -- ./inp_files/116113.got.cif
#   From: 2010.05.17/outbox.cif.g08.bks.cpg/sg15_59_cif.got.tgz:116113.got - 2010.06.03 18:47:42.
