data_PCOD9304290
_publ_section_title
;
Structure prediction by ZEFSAII (Michael W. Deem and Ramdas Pophale) SiO2 
 PCOD9304290
Probable space group: C 2/C
;
_chemical_formula_sum "Si O2"
_cell_formula_units_Z 60
_cell_length_a 27.908798
_cell_length_b 9.536645
_cell_length_c 23.412553
_cell_angle_alpha 90.000000
_cell_angle_beta 28.568782
_cell_angle_gamma 90.000000
_cell_volume 2979.938315
_symmetry_space_group_name_H-M "C 2/C"
_symmetry_group_IT_number 15
_symmetry_cell_setting 'monoclinic'
loop_
_space_group_symop_operation_xyz
x,y,z
-x,y,1/2-z
-x,-y,-z
x,-y,1/2+z
1/2+x,1/2+y,z
1/2-x,1/2+y,1/2-z
1/2-x,1/2-y,-z
1/2+x,1/2-y,1/2+z
loop_
_atom_site_type_symbol
_atom_site_label
_atom_site_fract_x
_atom_site_fract_y
_atom_site_fract_z
Si Si1 0.926683 0.701188 0.776625
Si Si2 0.205276 0.090856 0.152857
Si Si3 0.000000 0.500000 0.500000
Si Si4 0.976716 0.286864 0.918747
Si Si5 0.796823 0.297042 0.029998
Si Si6 0.131132 0.389842 0.662611
Si Si7 0.008528 0.025828 0.424253
Si Si8 0.412230 0.195422 0.991317
O O1 0.843154 0.811369 0.845054
O O2 0.877390 0.552897 0.843564
O O3 0.000000 0.751840 0.750000
O O4 0.999870 0.669522 0.646773
O O5 0.118258 0.082576 0.291866
O O6 0.306451 0.155057 0.073752
O O7 0.228051 0.935867 0.105086
O O8 0.001875 0.372985 0.546410
O O9 0.061990 0.602107 0.480644
O O10 0.862618 0.300876 0.017643
O O11 0.043496 0.345949 0.797076
O O12 0.996672 0.122763 0.905985
O O13 0.864162 0.309768 0.902585
O O14 0.731075 0.158331 0.091097
O O15 0.926230 0.140622 0.491809
O O16 0.000000 0.000000 0.500000
#
# Coordination Sequence:
#
# PCOD9304290 Si02
#       8
#     8   8   4   8   8   8   8   8
#     4  11  24  44  70  98 138 181 224 288 347 408
#     4  11  24  47  69 101 139 178 238 282 344 420
#     4  12  22  42  74  92 140 178 230 278 334 404
#     4  12  23  45  69  97 141 180 226 288 344 399
#     4  11  24  42  68 103 133 177 229 283 347 417
#     4  11  23  43  68  99 133 177 228 283 351 410
#     4  11  25  46  64  99 143 177 228 285 338 404
#     4  11  24  45  68 100 134 184 229 280 341 414
#
# _framework density 20.134644000000002
#
# number of rings (size 3 to 8) (size 9 to 14) (size 15 to 20)
#    0.000    0.800    5.333    2.000    1.867    2.133 
#   16.800    0.000    0.000    0.000    0.000    0.000 
#    0.000    0.000    0.000    0.000    0.000    0.000 
#
# Total GULP energy -167096.701215 kJ/mol
# GULP energy per Si atom -5569.890041 kJ/mol
# Density = 2.008882 g / cm^3
# Si number density = 20.134644 Si / 1000 Ang^3
#
#
#
# Elastic Constant Matrix: (Units=GPa)
#
#
# Indices 1 2 3 4 5 6 
#
# 1 120.7724 9.3544 27.9613 -0.0010 -24.3239 0.0000
# 2 9.3544 77.0495 18.8839 -0.0034 -20.7975 0.0009
# 3 27.9613 18.8839 39.2655 -0.0010 -18.3411 0.0003
# 4 -0.0010 -0.0034 -0.0010 28.2676 0.0000 -1.1035
# 5 -24.3239 -20.7975 -18.3411 0.0000 23.7385 0.0001
# 6 0.0000 0.0009 0.0003 -1.1035 0.0001 33.8589
#
#
#
# Elastic Compliance Matrix: (Units=1/GPa)
#
#
# Indices 1 2 3 4 5 6 
#
# 1 0.011158 0.002476 -0.004354 0.000001 0.010239 0.000000
# 2 0.002476 0.017640 -0.002883 0.000002 0.015764 0.000000
# 3 -0.004354 -0.002883 0.041763 0.000001 0.025280 0.000000
# 4 0.000001 0.000002 0.000001 0.035421 0.000003 0.001154
# 5 0.010239 0.015764 0.025280 0.000003 0.085959 -0.000001
# 6 0.000000 0.000000 0.000000 0.001154 -0.000001 0.029572
#
#
# Mechanical properties :
#
#
# Convention : Reuss Voigt Hill
#
# Bulk Modulus (GPa) = 16.38319 38.83186 27.60752
# Shear Modulus (GPa) = 19.88994 29.23219 24.56107
#
# Velocity S-wave (km/s) = 3.14641 3.81443 3.49641
# Velocity P-wave (km/s) = 4.62108 6.22317 5.48097
#
# Compressibility (1/GPa) = 0.06103819
#
# Stress axis : x y z
#
# Youngs Moduli (GPa) = 89.61800 56.69015 23.94446
#
# Poissons Ratio (x) = -0.14037 0.10426
# Poissons Ratio (y) = -0.22191 0.06904
# Poissons Ratio (z) = 0.39023 0.16346
#
# Static dielectric constant tensor:
#      x y z
#    x 1.698090 0.000000 -0.010720 
#    y 0.000000 1.732800 0.000000 
#    z -0.010720 0.000000 1.730040 
# 
# From -- ./inp_files/283365.got.cif
#   From: 2010.05.17/outbox.cif.g08.bks.cpg/sg15_142_cif.got.tgz:283365.got - 2010.06.03 18:47:42.
