data_PCOD9304052
_publ_section_title
;
Structure prediction by ZEFSAII (Michael W. Deem and Ramdas Pophale) SiO2 
 PCOD9304052
Probable space group: C 2/C
;
_chemical_formula_sum "Si O2"
_cell_formula_units_Z 52
_cell_length_a 17.255314
_cell_length_b 5.582081
_cell_length_c 28.524475
_cell_angle_alpha 90.000000
_cell_angle_beta 62.353904
_cell_angle_gamma 90.000000
_cell_volume 2433.813628
_symmetry_space_group_name_H-M "C 2/C"
_symmetry_group_IT_number 15
_symmetry_cell_setting 'monoclinic'
loop_
_space_group_symop_operation_xyz
x,y,z
-x,y,1/2-z
-x,-y,-z
x,-y,1/2+z
1/2+x,1/2+y,z
1/2-x,1/2+y,1/2-z
1/2-x,1/2-y,-z
1/2+x,1/2-y,1/2+z
loop_
_atom_site_type_symbol
_atom_site_label
_atom_site_fract_x
_atom_site_fract_y
_atom_site_fract_z
Si Si1 0.474501 0.972627 0.689213
Si Si2 0.011452 0.442403 0.074785
Si Si3 0.424542 0.302375 0.515848
Si Si4 0.000000 0.129306 0.250000
Si Si5 0.726593 0.175261 0.091646
Si Si6 0.128140 0.751439 0.205143
Si Si7 0.824518 0.809910 0.940597
O O1 0.389176 0.910546 0.744434
O O2 0.548960 0.796774 0.689338
O O3 0.469822 0.975088 0.635269
O O4 0.508236 0.221747 0.700130
O O5 0.078667 0.222206 0.064737
O O6 0.941206 0.373338 0.055329
O O7 0.065217 0.654760 0.034919
O O8 0.500000 0.500000 0.500000
O O9 0.325276 0.380570 0.548805
O O10 0.904758 0.009139 0.270286
O O11 0.713803 0.218165 0.150860
O O12 0.695256 0.427413 0.076084
O O13 0.677883 0.926256 0.092469
O O14 0.750000 0.750000 0.000000
#
# Coordination Sequence:
#
# PCOD9304052 Si02
#       7
#     8   8   8   4   8   8   8
#     4   9  18  35  59  93 127 160 217 264 329 389
#     4  11  23  42  64  95 129 181 215 276 332 404
#     4  11  27  43  63  90 139 180 219 265 347 398
#     4   8  16  32  58  94 126 160 206 278 332 374
#     4  12  25  42  68 102 131 172 216 290 322 394
#     4   9  19  33  60  96 125 161 210 276 325 381
#     4  12  24  40  69 101 129 165 230 275 330 382
#
# _framework density 21.365648
#
# number of rings (size 3 to 8) (size 9 to 14) (size 15 to 20)
#    0.000    1.846    3.077    2.308    6.462    2.462 
#    0.000    0.000    6.769    0.000    0.000    0.000 
#    0.000    0.000    0.000    0.000    0.000    0.000 
#
# Total GULP energy -144840.391133 kJ/mol
# GULP energy per Si atom -5570.784274 kJ/mol
# Density = 2.131702 g / cm^3
# Si number density = 21.365648 Si / 1000 Ang^3
#
#
#
# Elastic Constant Matrix: (Units=GPa)
#
#
# Indices 1 2 3 4 5 6 
#
# 1 42.8847 26.6039 20.2097 -0.0028 -0.3254 -0.0006
# 2 26.6039 80.5993 32.3149 0.0080 -4.8427 -0.0061
# 3 20.2097 32.3149 179.7731 0.0066 8.2818 -0.0010
# 4 -0.0028 0.0080 0.0066 10.7146 -0.0024 -1.9379
# 5 -0.3254 -4.8427 8.2818 -0.0024 25.5399 -0.0019
# 6 -0.0006 -0.0061 -0.0010 -1.9379 -0.0019 28.3158
#
#
#
# Elastic Compliance Matrix: (Units=1/GPa)
#
#
# Indices 1 2 3 4 5 6 
#
# 1 0.029817 -0.009228 -0.001655 0.000015 -0.000833 0.000000
# 2 -0.009228 0.016518 -0.002102 -0.000012 0.003696 0.000003
# 3 -0.001655 -0.002102 0.006239 -0.000003 -0.002443 -0.000001
# 4 0.000015 -0.000012 -0.000003 0.094500 0.000008 0.006467
# 5 -0.000833 0.003696 -0.002443 0.000008 0.040637 0.000004
# 6 0.000000 0.000003 -0.000001 0.006467 0.000004 0.035759
#
#
# Mechanical properties :
#
#
# Convention : Reuss Voigt Hill
#
# Bulk Modulus (GPa) = 37.58916 51.27934 44.43425
# Shear Modulus (GPa) = 19.35681 27.85597 23.60639
#
# Velocity S-wave (km/s) = 3.01321 3.61470 3.32757
# Velocity P-wave (km/s) = 5.45320 6.44006 5.96706
#
# Compressibility (1/GPa) = 0.02660342
#
# Stress axis : x y z
#
# Youngs Moduli (GPa) = 33.53820 60.54020 160.28311
#
# Poissons Ratio (x) = 0.55869 0.26522
# Poissons Ratio (y) = 0.30950 0.33691
# Poissons Ratio (z) = 0.05550 0.12725
#
# Static dielectric constant tensor:
#      x y z
#    x 1.812640 0.000030 0.060800 
#    y 0.000030 1.890640 0.000030 
#    z 0.060800 0.000030 2.221560 
# 
# From -- ./inp_files/297444.got.cif
#   From: 2010.05.17/outbox.cif.g08.bks.cpg/sg15_149_cif.got.tgz:297444.got - 2010.06.03 18:47:42.
