data_PCOD9304716
_publ_section_title
;
Structure prediction by ZEFSAII (Michael W. Deem and Ramdas Pophale) SiO2 
 PCOD9304716
Probable space group: C 2/C
;
_chemical_formula_sum "Si O2"
_cell_formula_units_Z 52
_cell_length_a 10.409186
_cell_length_b 9.120398
_cell_length_c 28.045188
_cell_angle_alpha 90.000000
_cell_angle_beta 56.085412
_cell_angle_gamma 90.000000
_cell_volume 2209.525977
_symmetry_space_group_name_H-M "C 2/C"
_symmetry_group_IT_number 15
_symmetry_cell_setting 'monoclinic'
loop_
_space_group_symop_operation_xyz
x,y,z
-x,y,1/2-z
-x,-y,-z
x,-y,1/2+z
1/2+x,1/2+y,z
1/2-x,1/2+y,1/2-z
1/2-x,1/2-y,-z
1/2+x,1/2-y,1/2+z
loop_
_atom_site_type_symbol
_atom_site_label
_atom_site_fract_x
_atom_site_fract_y
_atom_site_fract_z
Si Si1 0.500000 0.540822 0.750000
Si Si2 0.006502 0.569330 0.550766
Si Si3 0.271961 0.264913 0.720753
Si Si4 0.051537 0.488906 0.792198
Si Si5 0.308879 0.410035 0.874481
Si Si6 0.773911 0.569401 0.911211
Si Si7 0.034560 0.894457 0.907805
O O1 0.636500 0.651768 0.736002
O O2 0.432989 0.446966 0.807762
O O3 0.850238 0.495523 0.605124
O O4 0.993908 0.745146 0.556961
O O5 0.000000 0.500000 0.500000
O O6 0.165498 0.547728 0.547550
O O7 0.195062 0.381785 0.772088
O O8 0.396737 0.156775 0.717326
O O9 0.346803 0.343862 0.659279
O O10 0.000000 0.450988 0.750000
O O11 0.906222 0.477038 0.856275
O O12 0.282285 0.237591 0.891078
O O13 0.389753 0.457467 0.907887
O O14 0.612150 0.507540 0.927437
#
# Coordination Sequence:
#
# PCOD9304716 Si02
#       7
#     4   8   8   8   8   8   8
#     4  12  22  40  70  98 140 184 220 268 348 414
#     4  11  26  50  73  97 136 181 234 291 340 401
#     4  12  23  42  62  98 143 184 217 272 332 414
#     4  12  24  39  62  95 139 181 217 268 333 410
#     4  11  25  44  69 103 136 182 227 277 343 415
#     4  11  25  44  67 103 139 177 230 283 342 408
#     4  11  23  46  65 101 138 171 229 283 339 402
#
# _framework density 23.534461
#
# number of rings (size 3 to 8) (size 9 to 14) (size 15 to 20)
#    0.000    0.615    6.923    0.923    1.077    5.538 
#    0.000    1.538    0.000    0.000    0.000    0.000 
#    0.000    0.000    0.000    0.000    0.000    0.000 
#
# Total GULP energy -145368.041922 kJ/mol
# GULP energy per Si atom -5591.078535 kJ/mol
# Density = 2.348090 g / cm^3
# Si number density = 23.534461 Si / 1000 Ang^3
#
#
#
# Elastic Constant Matrix: (Units=GPa)
#
#
# Indices 1 2 3 4 5 6 
#
# 1 128.3731 48.8521 -0.9446 0.0000 25.3181 0.0000
# 2 48.8521 77.8576 5.8282 0.0000 13.3807 0.0000
# 3 -0.9446 5.8282 72.9827 0.0000 2.9700 0.0000
# 4 0.0000 0.0000 0.0000 10.3260 0.0000 10.9827
# 5 25.3181 13.3807 2.9700 0.0000 17.9796 0.0000
# 6 0.0000 0.0000 0.0000 10.9827 0.0000 40.9368
#
#
#
# Elastic Compliance Matrix: (Units=1/GPa)
#
#
# Indices 1 2 3 4 5 6 
#
# 1 0.012685 -0.005669 0.001180 0.000000 -0.013838 0.000000
# 2 -0.005669 0.017301 -0.001264 0.000000 -0.004683 0.000000
# 3 0.001180 -0.001264 0.013941 0.000000 -0.003024 0.000000
# 4 0.000000 0.000000 0.000000 0.135511 0.000000 -0.036355
# 5 -0.013838 -0.004683 -0.003024 0.000000 0.079090 0.000000
# 6 0.000000 0.000000 0.000000 -0.036355 0.000000 0.034181
#
#
# Mechanical properties :
#
#
# Convention : Reuss Voigt Hill
#
# Bulk Modulus (GPa) = 30.84550 42.96497 36.90523
# Shear Modulus (GPa) = 15.87184 28.88033 22.37608
#
# Velocity S-wave (km/s) = 2.59975 3.50687 3.08682
# Velocity P-wave (km/s) = 4.70602 5.89011 5.33104
#
# Compressibility (1/GPa) = 0.03241964
#
# Stress axis : x y z
#
# Youngs Moduli (GPa) = 78.83197 57.80076 71.73004
#
# Poissons Ratio (x) = 0.32770 -0.08465
# Poissons Ratio (y) = 0.44693 0.09069
# Poissons Ratio (z) = -0.09303 0.07308
#
# Static dielectric constant tensor:
#      x y z
#    x 1.936870 0.000000 -0.026420 
#    y 0.000000 1.851360 0.000000 
#    z -0.026420 0.000000 1.945810 
# 
# From -- ./inp_files/291459.got.cif
#   From: 2010.05.17/outbox.cif.g08.bks.cpg/sg15_146_cif.got.tgz:291459.got - 2010.06.03 18:47:42.
