data_PCOD9304837
_publ_section_title
;
Structure prediction by ZEFSAII (Michael W. Deem and Ramdas Pophale) SiO2 
 PCOD9304837
Probable space group: C 2/C
;
_chemical_formula_sum "Si O2"
_cell_formula_units_Z 52
_cell_length_a 9.068600
_cell_length_b 21.059473
_cell_length_c 17.536065
_cell_angle_alpha 90.000000
_cell_angle_beta 133.121050
_cell_angle_gamma 90.000000
_cell_volume 2444.499307
_symmetry_space_group_name_H-M "C 2/C"
_symmetry_group_IT_number 15
_symmetry_cell_setting 'monoclinic'
loop_
_space_group_symop_operation_xyz
x,y,z
-x,y,1/2-z
-x,-y,-z
x,-y,1/2+z
1/2+x,1/2+y,z
1/2-x,1/2+y,1/2-z
1/2-x,1/2-y,-z
1/2+x,1/2-y,1/2+z
loop_
_atom_site_type_symbol
_atom_site_label
_atom_site_fract_x
_atom_site_fract_y
_atom_site_fract_z
Si Si1 0.892091 0.196412 0.870700
Si Si2 0.157418 0.427538 0.243364
Si Si3 0.810269 0.822505 0.632656
Si Si4 0.894280 0.168193 0.398961
Si Si5 0.093096 0.437140 0.497040
Si Si6 0.500000 0.252982 0.250000
Si Si7 0.462832 0.472944 0.902369
O O1 0.735677 0.139745 0.801229
O O2 0.777637 0.259367 0.859968
O O3 0.003853 0.207992 0.829985
O O4 0.040651 0.175781 0.990640
O O5 0.343088 0.476528 0.309231
O O6 0.000000 0.453685 0.250000
O O7 0.044577 0.419613 0.123811
O O8 0.635033 0.875195 0.563457
O O9 0.000000 0.846293 0.750000
O O10 0.915177 0.811718 0.587103
O O11 0.700892 0.210817 0.314896
O O12 0.849991 0.094463 0.366901
O O13 0.317124 0.456530 0.550762
O O14 0.000000 0.500000 0.500000
O O15 0.500000 0.500000 0.000000
#
# Coordination Sequence:
#
# PCOD9304837 Si02
#       7
#     8   8   8   8   8   4   8
#     4  12  26  46  72 103 146 183 241 291 353 434
#     4  12  25  46  74 104 141 190 240 291 359 424
#     4  11  24  47  74 101 141 188 241 285 353 427
#     4  11  25  46  71 102 139 187 242 289 348 427
#     4  11  28  44  75 108 144 186 237 300 361 418
#     4  12  28  42  68 106 140 190 220 300 366 410
#     4  11  23  47  72 104 137 185 238 290 352 424
#
# _framework density 21.272248999999999
#
# number of rings (size 3 to 8) (size 9 to 14) (size 15 to 20)
#    0.000    0.615    4.615    2.308    7.538    2.462 
#    0.000    0.000    0.000    0.000    0.000    0.000 
#    0.000    0.000    0.000    0.000    0.000    0.000 
#
# Total GULP energy -145477.004258 kJ/mol
# GULP energy per Si atom -5595.269395 kJ/mol
# Density = 2.122383 g / cm^3
# Si number density = 21.272249 Si / 1000 Ang^3
#
#
#
# Elastic Constant Matrix: (Units=GPa)
#
#
# Indices 1 2 3 4 5 6 
#
# 1 57.3149 26.6868 1.8060 0.0000 -11.7738 0.0000
# 2 26.6868 103.5242 64.3227 0.0000 -0.3890 0.0000
# 3 1.8060 64.3227 138.6520 0.0001 -3.5552 0.0000
# 4 0.0000 0.0000 0.0001 -10.1404 0.0000 -14.0960
# 5 -11.7738 -0.3890 -3.5552 0.0000 32.9053 0.0000
# 6 0.0000 0.0000 0.0000 -14.0960 0.0000 25.5539
#
#
#
# Elastic Compliance Matrix: (Units=1/GPa)
#
#
# Indices 1 2 3 4 5 6 
#
# 1 0.022880 -0.008172 0.003711 0.000000 0.008491 0.000000
# 2 -0.008172 0.016499 -0.007639 0.000000 -0.003554 0.000000
# 3 0.003711 -0.007639 0.010769 0.000000 0.002401 0.000000
# 4 0.000000 0.000000 0.000000 -0.055816 0.000000 -0.030789
# 5 0.008491 -0.003554 0.002401 0.000000 0.033646 0.000000
# 6 0.000000 0.000000 0.000000 -0.030789 0.000000 0.022149
#
#
# Mechanical properties :
#
#
# Convention : Reuss Voigt Hill
#
# Bulk Modulus (GPa) = 38.53823 53.90247 46.22035
# Shear Modulus (GPa) = 60.25875 23.44213 41.85044
#
# Velocity S-wave (km/s) = 5.32812 3.32325 4.44032
# Velocity P-wave (km/s) = 7.48384 6.33401 6.93280
#
# Compressibility (1/GPa) = 0.02594826
#
# Stress axis : x y z
#
# Youngs Moduli (GPa) = 43.70715 60.61002 92.85672
#
# Poissons Ratio (x) = 0.49528 -0.34455
# Poissons Ratio (y) = 0.35716 0.70931
# Poissons Ratio (z) = -0.16218 0.46299
#
# Static dielectric constant tensor:
#      x y z
#    x 1.789160 0.000000 -0.023750 
#    y 0.000000 1.795840 0.000000 
#    z -0.023750 0.000000 1.758490 
# 
# From -- ./inp_files/192593.got.cif
#   From: 2010.05.17/outbox.cif.g08.bks.cpg/sg15_97_cif.got.tgz:192593.got - 2010.06.03 18:47:42.
