data_PCOD9304677
_publ_section_title
;
Structure prediction by ZEFSAII (Michael W. Deem and Ramdas Pophale) SiO2 
 PCOD9304677
Probable space group: C 2/C
;
_chemical_formula_sum "Si O2"
_cell_formula_units_Z 40
_cell_length_a 8.211959
_cell_length_b 22.809341
_cell_length_c 16.426182
_cell_angle_alpha 90.000000
_cell_angle_beta 143.575398
_cell_angle_gamma 90.000000
_cell_volume 1826.881285
_symmetry_space_group_name_H-M "C 2/C"
_symmetry_group_IT_number 15
_symmetry_cell_setting 'monoclinic'
loop_
_space_group_symop_operation_xyz
x,y,z
-x,y,1/2-z
-x,-y,-z
x,-y,1/2+z
1/2+x,1/2+y,z
1/2-x,1/2+y,1/2-z
1/2-x,1/2-y,-z
1/2+x,1/2-y,1/2+z
loop_
_atom_site_type_symbol
_atom_site_label
_atom_site_fract_x
_atom_site_fract_y
_atom_site_fract_z
Si Si1 0.820050 0.387214 0.796352
Si Si2 0.649205 0.542613 0.996440
Si Si3 0.262679 0.072889 0.459213
Si Si4 0.201039 0.128627 0.751277
Si Si5 0.468207 0.244375 0.335187
O O1 0.540202 0.404416 0.639288
O O2 0.799947 0.411059 0.880214
O O3 0.840710 0.317328 0.809139
O O4 0.094399 0.417769 0.872991
O O5 0.761848 0.496264 0.975096
O O6 0.431753 0.585866 0.868136
O O7 0.500000 0.500000 0.000000
O O8 0.503215 0.104715 0.604901
O O9 0.199053 0.195529 0.719458
O O10 0.000000 0.126930 0.750000
O O11 0.500000 0.240169 0.250000
O O12 0.750000 0.250000 0.500000
#
# Coordination Sequence:
#
# PCOD9304677 Si02
#       5
#     8   8   8   8   8
#     4  11  24  44  70 105 140 183 242 291 365 423
#     4  12  26  44  70 103 144 186 238 298 357 431
#     4  11  25  42  69 105 141 188 230 297 359 437
#     4  11  23  45  73  99 137 193 243 281 363 437
#     4  11  23  45  76 102 141 191 245 302 356 435
#
# _framework density 21.895237999999999
#
# number of rings (size 3 to 8) (size 9 to 14) (size 15 to 20)
#    0.000    0.800    4.000    3.000    5.600    3.200 
#    0.000    4.000    0.000    0.000    0.000    0.000 
#    0.000    0.000    0.000    0.000    0.000    0.000 
#
# Total GULP energy -111902.507364 kJ/mol
# GULP energy per Si atom -5595.125368 kJ/mol
# Density = 2.184540 g / cm^3
# Si number density = 21.895238 Si / 1000 Ang^3
#
#
#
# Elastic Constant Matrix: (Units=GPa)
#
#
# Indices 1 2 3 4 5 6 
#
# 1 85.1327 39.7090 35.4870 0.0002 -1.2911 0.0003
# 2 39.7090 213.6495 78.5295 -0.0009 10.2645 -0.0008
# 3 35.4870 78.5295 210.8179 -0.0056 29.7169 -0.0053
# 4 0.0002 -0.0009 -0.0056 33.4898 -0.0002 7.2239
# 5 -1.2911 10.2645 29.7169 -0.0002 38.1455 0.0002
# 6 0.0003 -0.0008 -0.0053 7.2239 0.0002 36.6312
#
#
#
# Elastic Compliance Matrix: (Units=1/GPa)
#
#
# Indices 1 2 3 4 5 6 
#
# 1 0.013472 -0.001925 -0.001896 0.000000 0.002451 0.000000
# 2 -0.001925 0.005699 -0.001768 0.000000 -0.000222 0.000000
# 3 -0.001896 -0.001768 0.006362 0.000001 -0.004545 0.000001
# 4 0.000000 0.000000 0.000001 0.031187 0.000000 -0.006150
# 5 0.002451 -0.000222 -0.004545 0.000000 0.029898 -0.000001
# 6 0.000000 0.000000 0.000001 -0.006150 -0.000001 0.028512
#
#
# Mechanical properties :
#
#
# Convention : Reuss Voigt Hill
#
# Bulk Modulus (GPa) = 69.66169 90.78344 80.22257
# Shear Modulus (GPa) = 38.14154 45.37827 41.75991
#
# Velocity S-wave (km/s) = 4.17826 4.55743 4.37196
# Velocity P-wave (km/s) = 7.42712 8.32143 7.88696
#
# Compressibility (1/GPa) = 0.01435509
#
# Stress axis : x y z
#
# Youngs Moduli (GPa) = 74.22962 175.48200 157.19242
#
# Poissons Ratio (x) = 0.33774 0.29808
# Poissons Ratio (y) = 0.14286 0.27784
# Poissons Ratio (z) = 0.14076 0.31017
#
# Static dielectric constant tensor:
#      x y z
#    x 1.902640 0.000000 -0.015250 
#    y 0.000000 1.761000 0.000000 
#    z -0.015250 0.000000 1.767790 
# 
# From -- ./inp_files/193450.got.cif
#   From: 2010.05.17/outbox.cif.g08.bks.cpg/sg15_97_cif.got.tgz:193450.got - 2010.06.03 18:47:42.
