data_PCOD9304725
_publ_section_title
;
Structure prediction by ZEFSAII (Michael W. Deem and Ramdas Pophale) SiO2 
 PCOD9304725
Probable space group: C 2/C
;
_chemical_formula_sum "Si O2"
_cell_formula_units_Z 64
_cell_length_a 9.909769
_cell_length_b 11.433545
_cell_length_c 23.712713
_cell_angle_alpha 90.000000
_cell_angle_beta 107.149807
_cell_angle_gamma 90.000000
_cell_volume 2567.279840
_symmetry_space_group_name_H-M "C 2/C"
_symmetry_group_IT_number 15
_symmetry_cell_setting 'monoclinic'
loop_
_space_group_symop_operation_xyz
x,y,z
-x,y,1/2-z
-x,-y,-z
x,-y,1/2+z
1/2+x,1/2+y,z
1/2-x,1/2+y,1/2-z
1/2-x,1/2-y,-z
1/2+x,1/2-y,1/2+z
loop_
_atom_site_type_symbol
_atom_site_label
_atom_site_fract_x
_atom_site_fract_y
_atom_site_fract_z
Si Si1 0.172516 0.621977 0.506572
Si Si2 0.039221 0.892301 0.895862
Si Si3 0.726158 0.283518 0.107421
Si Si4 0.598255 0.981068 0.885114
Si Si5 0.258534 0.705844 0.334745
Si Si6 0.444644 0.662203 0.503507
Si Si7 0.178533 0.376757 0.703660
Si Si8 0.603156 0.437086 0.310349
O O1 0.250000 0.750000 0.500000
O O2 0.087011 0.547533 0.450488
O O3 0.330787 0.575674 0.524536
O O4 0.064393 0.699561 0.527603
O O5 0.925053 0.807954 0.849983
O O6 0.979562 0.904198 0.950829
O O7 0.190360 0.826363 0.910797
O O8 0.032390 0.006914 0.856009
O O9 0.827512 0.396463 0.118071
O O10 0.578585 0.313741 0.059604
O O11 0.690276 0.237490 0.165714
O O12 0.701119 0.876938 0.877061
O O13 0.453919 0.953052 0.834622
O O14 0.182819 0.659961 0.268851
O O15 0.210153 0.836370 0.341662
O O16 0.313535 0.457159 0.708560
O O17 0.500000 0.388673 0.250000
#
# Coordination Sequence:
#
# PCOD9304725 Si02
#       8
#     8   8   8   8   8   8   8   8
#     4   8  18  39  65  90 134 172 229 278 328 407
#     4  11  23  46  67 104 136 175 233 280 343 421
#     4  11  25  40  72  99 138 182 219 286 352 405
#     4  12  23  43  63 102 132 176 231 276 349 412
#     4  12  25  44  69  96 137 181 228 284 343 413
#     4   9  19  45  67  94 137 177 227 282 338 408
#     4  11  24  45  66  97 141 172 233 289 338 420
#     4  11  24  44  68  96 133 182 226 281 350 412
#
# _framework density 24.929110999999999
#
# number of rings (size 3 to 8) (size 9 to 14) (size 15 to 20)
#    0.750    0.500    3.750    2.250    1.750    1.500 
#    6.750    0.625    0.000    0.000    0.000    0.000 
#    0.000    0.000    0.000    0.000    0.000    0.000 
#
# Total GULP energy -178252.577441 kJ/mol
# GULP energy per Si atom -5570.393045 kJ/mol
# Density = 2.487237 g / cm^3
# Si number density = 24.929111 Si / 1000 Ang^3
#
#
#
# Elastic Constant Matrix: (Units=GPa)
#
#
# Indices 1 2 3 4 5 6 
#
# 1 48.1751 -7.1689 12.4614 0.0000 19.9665 0.0000
# 2 -7.1689 87.0398 14.3803 0.0000 -10.0499 0.0000
# 3 12.4614 14.3803 66.2978 0.0000 4.2065 0.0000
# 4 0.0000 0.0000 0.0000 20.8101 0.0000 -5.2056
# 5 19.9665 -10.0499 4.2065 0.0000 39.3224 0.0000
# 6 0.0000 0.0000 0.0000 -5.2056 0.0000 59.4707
#
#
#
# Elastic Compliance Matrix: (Units=1/GPa)
#
#
# Indices 1 2 3 4 5 6 
#
# 1 0.027649 0.001535 -0.004696 0.000000 -0.013144 0.000000
# 2 0.001535 0.012455 -0.003164 0.000000 0.002742 0.000000
# 3 -0.004696 -0.003164 0.016666 0.000000 -0.000207 0.000000
# 4 0.000000 0.000000 0.000000 0.049129 0.000000 0.004300
# 5 -0.013144 0.002742 -0.000207 0.000000 0.032828 0.000000
# 6 0.000000 0.000000 0.000000 0.004300 0.000000 0.017191
#
#
# Mechanical properties :
#
#
# Convention : Reuss Voigt Hill
#
# Bulk Modulus (GPa) = 22.66560 26.76201 24.71380
# Shear Modulus (GPa) = 27.28166 36.04330 31.66248
#
# Velocity S-wave (km/s) = 3.31171 3.80653 3.56771
# Velocity P-wave (km/s) = 4.87186 5.48436 5.18716
#
# Compressibility (1/GPa) = 0.04411973
#
# Stress axis : x y z
#
# Youngs Moduli (GPa) = 36.16831 80.29025 60.00407
#
# Poissons Ratio (x) = -0.12328 0.28177
# Poissons Ratio (y) = -0.05553 0.18986
# Poissons Ratio (z) = 0.16984 0.25404
#
# Static dielectric constant tensor:
#      x y z
#    x 1.786810 0.000000 0.021160 
#    y 0.000000 1.935170 0.000000 
#    z 0.021160 0.000000 2.442110 
# 
# From -- ./inp_files/292046.got.cif
#   From: 2010.05.17/outbox.cif.g08.bks.cpg/sg15_147_cif.got.tgz:292046.got - 2010.06.03 18:47:42.
