data_PCOD9304697
_publ_section_title
;
Structure prediction by ZEFSAII (Michael W. Deem and Ramdas Pophale) SiO2 
 PCOD9304697
Probable space group: C 2/C
;
_chemical_formula_sum "Si O2"
_cell_formula_units_Z 48
_cell_length_a 7.369691
_cell_length_b 16.253617
_cell_length_c 25.112683
_cell_angle_alpha 90.000000
_cell_angle_beta 43.989435
_cell_angle_gamma 90.000000
_cell_volume 2089.203509
_symmetry_space_group_name_H-M "C 2/C"
_symmetry_group_IT_number 15
_symmetry_cell_setting 'monoclinic'
loop_
_space_group_symop_operation_xyz
x,y,z
-x,y,1/2-z
-x,-y,-z
x,-y,1/2+z
1/2+x,1/2+y,z
1/2-x,1/2+y,1/2-z
1/2-x,1/2-y,-z
1/2+x,1/2-y,1/2+z
loop_
_atom_site_type_symbol
_atom_site_label
_atom_site_fract_x
_atom_site_fract_y
_atom_site_fract_z
Si Si1 0.293959 0.169150 0.433055
Si Si2 0.921716 0.977862 0.187415
Si Si3 0.881628 0.500782 0.857718
Si Si4 0.644098 0.297942 0.166071
Si Si5 0.282135 0.150548 0.955197
Si Si6 0.365932 0.083145 0.051581
O O1 0.305342 0.089818 0.391962
O O2 0.413174 0.243305 0.373720
O O3 0.989446 0.186823 0.507658
O O4 0.061612 0.361897 0.544805
O O5 0.786834 0.973116 0.157872
O O6 0.685792 0.994878 0.277676
O O7 0.132969 0.050173 0.138002
O O8 0.056328 0.891486 0.172902
O O9 0.820725 0.563647 0.917599
O O10 0.500000 0.268909 0.250000
O O11 0.954887 0.298631 0.110623
O O12 0.269831 0.132609 0.020571
O O13 0.500000 0.000000 0.000000
#
# Coordination Sequence:
#
# PCOD9304697 Si02
#       6
#     8   8   8   8   8   8
#     4  12  27  44  72 110 144 184 244 307 356 432
#     4  11  24  45  71 105 142 198 240 299 368 434
#     4  11  23  45  76 103 140 188 252 298 355 437
#     4  12  27  48  68 103 156 191 235 302 377 427
#     4  12  24  47  74 105 144 192 243 299 363 430
#     4  12  23  44  76 105 142 189 250 295 352 433
#
# _framework density 22.975263999999999
#
# number of rings (size 3 to 8) (size 9 to 14) (size 15 to 20)
#    0.000    0.333    6.667    2.000    2.333    0.667 
#    3.000    3.333    0.000    0.000    0.000    0.000 
#    0.000    0.000    0.000    0.000    0.000    0.000 
#
# Total GULP energy -134560.946700 kJ/mol
# GULP energy per Si atom -5606.706112 kJ/mol
# Density = 2.292297 g / cm^3
# Si number density = 22.975264 Si / 1000 Ang^3
#
#
#
# Elastic Constant Matrix: (Units=GPa)
#
#
# Indices 1 2 3 4 5 6 
#
# 1 152.6478 38.1538 69.9885 -0.0015 -0.3142 0.0024
# 2 38.1538 80.0934 50.4671 0.0004 -3.6827 -0.0003
# 3 69.9885 50.4671 117.3644 -0.0004 -6.8755 0.0014
# 4 -0.0015 0.0004 -0.0004 33.0950 0.0005 9.2691
# 5 -0.3142 -3.6827 -6.8755 0.0005 37.8655 -0.0015
# 6 0.0024 -0.0003 0.0014 9.2691 -0.0015 26.4923
#
#
#
# Elastic Compliance Matrix: (Units=1/GPa)
#
#
# Indices 1 2 3 4 5 6 
#
# 1 0.009141 -0.001273 -0.004959 0.000001 -0.000948 -0.000001
# 2 -0.001273 0.017307 -0.006656 -0.000001 0.000464 0.000001
# 3 -0.004959 -0.006656 0.014453 0.000000 0.001936 0.000000
# 4 0.000001 -0.000001 0.000000 0.033499 -0.000001 -0.011720
# 5 -0.000948 0.000464 0.001936 -0.000001 0.026798 0.000002
# 6 -0.000001 0.000001 0.000000 -0.011720 0.000002 0.041848
#
#
# Mechanical properties :
#
#
# Convention : Reuss Voigt Hill
#
# Bulk Modulus (GPa) = 66.11520 74.14717 70.13118
# Shear Modulus (GPa) = 28.75821 32.25696 30.50758
#
# Velocity S-wave (km/s) = 3.54178 3.75105 3.64791
# Velocity P-wave (km/s) = 6.75017 7.14865 6.95226
#
# Compressibility (1/GPa) = 0.01512512
#
# Stress axis : x y z
#
# Youngs Moduli (GPa) = 109.39582 57.77999 69.18916
#
# Poissons Ratio (x) = 0.07357 0.34312
# Poissons Ratio (y) = 0.13930 0.46049
# Poissons Ratio (z) = 0.54252 0.38456
#
# Static dielectric constant tensor:
#      x y z
#    x 1.859730 0.000000 -0.012980 
#    y 0.000000 1.815570 0.000000 
#    z -0.012980 0.000000 1.850300 
# 
# From -- ./inp_files/288996.got.cif
#   From: 2010.05.17/outbox.cif.g08.bks.cpg/sg15_145_cif.got.tgz:288996.got - 2010.06.03 18:47:42.
