data_PCOD9304291
_publ_section_title
;
Structure prediction by ZEFSAII (Michael W. Deem and Ramdas Pophale) SiO2 
 PCOD9304291
Probable space group: C 2/C
;
_chemical_formula_sum "Si O2"
_cell_formula_units_Z 36
_cell_length_a 15.641257
_cell_length_b 8.174538
_cell_length_c 10.528593
_cell_angle_alpha 90.000000
_cell_angle_beta 101.416539
_cell_angle_gamma 90.000000
_cell_volume 1319.550885
_symmetry_space_group_name_H-M "C 2/C"
_symmetry_group_IT_number 15
_symmetry_cell_setting 'monoclinic'
loop_
_space_group_symop_operation_xyz
x,y,z
-x,y,1/2-z
-x,-y,-z
x,-y,1/2+z
1/2+x,1/2+y,z
1/2-x,1/2+y,1/2-z
1/2-x,1/2-y,-z
1/2+x,1/2-y,1/2+z
loop_
_atom_site_type_symbol
_atom_site_label
_atom_site_fract_x
_atom_site_fract_y
_atom_site_fract_z
Si Si1 0.113770 0.195690 0.283953
Si Si2 0.235468 0.931296 0.105725
Si Si3 0.060741 0.733926 0.026754
Si Si4 0.678495 0.931308 0.109104
Si Si5 0.000000 0.888190 0.250000
O O1 0.201008 0.270697 0.377035
O O2 0.044164 0.264249 0.371094
O O3 0.135585 0.264539 0.149106
O O4 0.082525 0.009786 0.273783
O O5 0.137113 0.871554 0.064526
O O6 0.262404 0.992160 0.254487
O O7 0.268610 0.054852 0.006433
O O8 0.100168 0.559162 0.072510
O O9 0.995605 0.782855 0.120172
#
# Coordination Sequence:
#
# PCOD9304291 Si02
#       5
#     8   8   8   8   4
#     4   9  22  43  63  96 131 176 221 273 331 404
#     4   9  21  40  74  95 133 167 238 271 332 385
#     4  11  23  43  68  99 139 174 224 283 332 395
#     4   9  20  42  70  96 124 181 222 282 319 400
#     4  12  26  42  64 100 142 178 214 282 346 392
#
# _framework density 27.282011000000001
#
# number of rings (size 3 to 8) (size 9 to 14) (size 15 to 20)
#    1.333    0.889    0.000    3.333    6.222    0.889 
#    8.000    5.556    0.000    0.000    0.000    0.000 
#    0.000    0.000    0.000    0.000    0.000    0.000 
#
# Total GULP energy -100427.500457 kJ/mol
# GULP energy per Si atom -5579.305581 kJ/mol
# Density = 2.721992 g / cm^3
# Si number density = 27.282011 Si / 1000 Ang^3
#
#
#
# Elastic Constant Matrix: (Units=GPa)
#
#
# Indices 1 2 3 4 5 6 
#
# 1 87.4862 9.9872 38.7983 0.0000 -33.2260 0.0000
# 2 9.9872 58.2225 11.9848 0.0000 -15.0227 0.0000
# 3 38.7983 11.9848 199.0734 0.0000 -22.1893 0.0000
# 4 0.0000 0.0000 0.0000 53.3461 0.0000 -20.2314
# 5 -33.2260 -15.0227 -22.1893 0.0000 37.6087 0.0000
# 6 0.0000 0.0000 0.0000 -20.2314 0.0000 49.1617
#
#
#
# Elastic Compliance Matrix: (Units=1/GPa)
#
#
# Indices 1 2 3 4 5 6 
#
# 1 0.017889 0.001237 -0.001867 0.000000 0.015196 0.000000
# 2 0.001237 0.019254 -0.000451 0.000000 0.008518 0.000000
# 3 -0.001867 -0.000451 0.005577 0.000000 0.001461 0.000000
# 4 0.000000 0.000000 0.000000 0.022212 0.000000 0.009141
# 5 0.015196 0.008518 0.001461 0.000000 0.044279 0.000000
# 6 0.000000 0.000000 0.000000 0.009141 0.000000 0.024103
#
#
# Mechanical properties :
#
#
# Convention : Reuss Voigt Hill
#
# Bulk Modulus (GPa) = 24.65632 51.81363 38.23498
# Shear Modulus (GPa) = 33.55817 46.95743 40.25780
#
# Velocity S-wave (km/s) = 3.51101 4.15322 3.84554
# Velocity P-wave (km/s) = 5.04910 6.48321 5.81057
#
# Compressibility (1/GPa) = 0.04055755
#
# Stress axis : x y z
#
# Youngs Moduli (GPa) = 55.90182 51.93767 179.30373
#
# Poissons Ratio (x) = -0.06424 0.33476
# Poissons Ratio (y) = -0.06914 0.08083
# Poissons Ratio (z) = 0.10437 0.02341
#
# Static dielectric constant tensor:
#      x y z
#    x 2.322710 0.000000 0.096400 
#    y 0.000000 2.188790 0.000000 
#    z 0.096400 0.000000 2.312450 
# 
# From -- ./inp_files/102515.got.cif
#   From: 2010.05.17/outbox.cif.g08.bks.cpg/sg15_52_cif.got.tgz:102515.got - 2010.06.03 18:47:42.
