data_PCOD9304982
_publ_section_title
;
Structure prediction by ZEFSAII (Michael W. Deem and Ramdas Pophale) SiO2 
 PCOD9304982
Probable space group: C 2/C
;
_chemical_formula_sum "Si O2"
_cell_formula_units_Z 48
_cell_length_a 11.199639
_cell_length_b 24.468056
_cell_length_c 14.360265
_cell_angle_alpha 90.000000
_cell_angle_beta 149.854747
_cell_angle_gamma 90.000000
_cell_volume 1976.229456
_symmetry_space_group_name_H-M "C 2/C"
_symmetry_group_IT_number 15
_symmetry_cell_setting 'monoclinic'
loop_
_space_group_symop_operation_xyz
x,y,z
-x,y,1/2-z
-x,-y,-z
x,-y,1/2+z
1/2+x,1/2+y,z
1/2-x,1/2+y,1/2-z
1/2-x,1/2-y,-z
1/2+x,1/2-y,1/2+z
loop_
_atom_site_type_symbol
_atom_site_label
_atom_site_fract_x
_atom_site_fract_y
_atom_site_fract_z
Si Si1 0.969810 0.583150 0.614075
Si Si2 0.358542 0.662387 0.362841
Si Si3 0.903003 0.266680 0.512333
Si Si4 0.988951 0.923205 0.090273
Si Si5 0.000000 0.984285 0.750000
Si Si6 0.500000 0.661689 0.750000
Si Si7 0.787352 0.686458 0.534223
O O1 0.752985 0.547643 0.425645
O O2 0.891092 0.644644 0.530346
O O3 0.000000 0.575675 0.750000
O O4 0.233107 0.576710 0.750797
O O5 0.469322 0.712891 0.499603
O O6 0.357095 0.603015 0.410871
O O7 0.542339 0.659983 0.402546
O O8 0.109564 0.690844 0.173516
O O9 0.750000 0.250000 0.500000
O O10 0.694107 0.302784 0.325965
O O11 0.897300 0.878868 0.104050
O O12 0.971355 0.979257 0.136164
O O13 0.750000 0.750000 0.500000
O O14 0.000000 0.683840 0.750000
#
# Coordination Sequence:
#
# PCOD9304982 Si02
#       7
#     8   8   8   8   4   4   8
#     4  11  25  51  74 106 148 185 251 311 366 448
#     4  12  22  40  66  99 150 192 235 298 358 440
#     4  12  22  36  62  98 146 192 232 288 358 430
#     4  11  24  48  68 105 140 187 252 305 368 437
#     4  11  28  50  80 102 140 196 245 324 378 432
#     4  11  24  40  64  98 148 190 239 296 358 448
#     4  11  24  41  66 106 145 191 234 288 364 449
#
# _framework density 24.288677
#
# number of rings (size 3 to 8) (size 9 to 14) (size 15 to 20)
#    0.000    0.667    6.667    1.500    3.500    2.000 
#    6.000    0.000    0.000    0.000    0.000    0.000 
#    0.000    0.000    0.000    0.000    0.000    0.000 
#
# Total GULP energy -133662.862732 kJ/mol
# GULP energy per Si atom -5569.285947 kJ/mol
# Density = 2.423339 g / cm^3
# Si number density = 24.288677 Si / 1000 Ang^3
#
#
#
# Elastic Constant Matrix: (Units=GPa)
#
#
# Indices 1 2 3 4 5 6 
#
# 1 83.2532 11.7538 9.4483 0.0014 18.9898 0.0002
# 2 11.7538 111.9613 33.0166 0.0016 5.4551 0.0000
# 3 9.4483 33.0166 135.3464 0.0046 18.5576 0.0011
# 4 0.0014 0.0016 0.0046 -33.4976 0.0021 4.5481
# 5 18.9898 5.4551 18.5576 0.0021 32.2908 0.0005
# 6 0.0002 0.0000 0.0011 4.5481 0.0005 18.7103
#
#
#
# Elastic Compliance Matrix: (Units=1/GPa)
#
#
# Indices 1 2 3 4 5 6 
#
# 1 0.014024 -0.001201 0.000453 0.000000 -0.008305 0.000000
# 2 -0.001201 0.009730 -0.002346 0.000000 0.000411 0.000000
# 3 0.000453 -0.002346 0.008588 0.000001 -0.004805 -0.000001
# 4 0.000000 0.000000 0.000001 -0.028899 0.000001 0.007025
# 5 -0.008305 0.000411 -0.004805 0.000001 0.038545 -0.000001
# 6 0.000000 0.000000 -0.000001 0.007025 -0.000001 0.051739
#
#
# Mechanical properties :
#
#
# Convention : Reuss Voigt Hill
#
# Bulk Modulus (GPa) = 38.23687 48.77758 43.50723
# Shear Modulus (GPa) = 46.02683 21.92351 33.97517
#
# Velocity S-wave (km/s) = 4.35787 3.00763 3.74412
# Velocity P-wave (km/s) = 6.41079 5.67337 6.05332
#
# Compressibility (1/GPa) = 0.02615277
#
# Stress axis : x y z
#
# Youngs Moduli (GPa) = 71.30638 102.77987 116.44155
#
# Poissons Ratio (x) = 0.12345 -0.05271
# Poissons Ratio (y) = 0.08565 0.27316
# Poissons Ratio (z) = -0.03228 0.24111
#
# Static dielectric constant tensor:
#      x y z
#    x 1.962620 0.000000 -0.099300 
#    y 0.000000 2.191990 0.000000 
#    z -0.099300 0.000000 2.033630 
# 
# From -- ./inp_files/148888.got.cif
#   From: 2010.05.17/outbox.cif.g08.bks.cpg/sg15_75_cif.got.tgz:148888.got - 2010.06.03 18:47:42.
