data_PCOD9304590
_publ_section_title
;
Structure prediction by ZEFSAII (Michael W. Deem and Ramdas Pophale) SiO2 
 PCOD9304590
Probable space group: C 2/C
;
_chemical_formula_sum "Si O2"
_cell_formula_units_Z 56
_cell_length_a 10.788758
_cell_length_b 9.310677
_cell_length_c 23.690004
_cell_angle_alpha 90.000000
_cell_angle_beta 77.123421
_cell_angle_gamma 90.000000
_cell_volume 2319.832876
_symmetry_space_group_name_H-M "C 2/C"
_symmetry_group_IT_number 15
_symmetry_cell_setting 'monoclinic'
loop_
_space_group_symop_operation_xyz
x,y,z
-x,y,1/2-z
-x,-y,-z
x,-y,1/2+z
1/2+x,1/2+y,z
1/2-x,1/2+y,1/2-z
1/2-x,1/2-y,-z
1/2+x,1/2-y,1/2+z
loop_
_atom_site_type_symbol
_atom_site_label
_atom_site_fract_x
_atom_site_fract_y
_atom_site_fract_z
Si Si1 0.108560 0.075613 0.525421
Si Si2 0.124719 0.400706 0.544753
Si Si3 0.133582 0.290182 0.786067
Si Si4 0.249746 0.324494 0.652351
Si Si5 0.937178 0.560095 0.628724
Si Si6 0.494878 0.483560 0.157152
Si Si7 0.402492 0.764596 0.306995
O O1 0.102510 0.247713 0.517015
O O2 0.251484 0.027545 0.495774
O O3 0.000000 0.000000 0.500000
O O4 0.074795 0.046180 0.593260
O O5 0.173520 0.363927 0.603830
O O6 0.995026 0.488825 0.566638
O O7 0.166675 0.326232 0.718022
O O8 0.099574 0.432222 0.824826
O O9 0.262014 0.223177 0.799381
O O10 0.034972 0.163411 0.808368
O O11 0.320464 0.171000 0.636810
O O12 0.365070 0.435854 0.651793
O O13 0.055316 0.652555 0.641634
O O14 0.570757 0.596522 0.187053
O O15 0.500000 0.818614 0.250000
#
# Coordination Sequence:
#
# PCOD9304590 Si02
#       7
#     8   8   8   8   8   8   8
#     4  11  24  47  72  93 130 182 237 288 337 391
#     4  11  25  45  71  96 131 179 229 287 337 402
#     4  12  24  42  69 100 143 181 215 273 342 415
#     4  11  24  41  69 103 141 171 225 275 338 418
#     4  11  25  42  66 104 136 177 220 271 337 405
#     4  11  23  45  67  97 134 181 225 275 339 404
#     4  11  25  41  65 100 145 175 219 273 336 412
#
# _framework density 24.139669999999999
#
# number of rings (size 3 to 8) (size 9 to 14) (size 15 to 20)
#    0.000    0.857    5.714    1.714    4.000    0.000 
#    0.000    7.143    0.000    0.000    0.000    0.000 
#    0.000    0.000    0.000    0.000    0.000    0.000 
#
# Total GULP energy -156977.542421 kJ/mol
# GULP energy per Si atom -5606.340801 kJ/mol
# Density = 2.408473 g / cm^3
# Si number density = 24.139670 Si / 1000 Ang^3
#
#
#
# Elastic Constant Matrix: (Units=GPa)
#
#
# Indices 1 2 3 4 5 6 
#
# 1 84.0873 26.8778 33.5719 0.0000 -11.6227 0.0000
# 2 26.8778 109.7411 30.7562 0.0000 -25.6395 0.0000
# 3 33.5719 30.7562 143.2651 0.0000 -41.3670 0.0000
# 4 0.0000 0.0000 0.0000 31.2293 0.0000 -6.9406
# 5 -11.6227 -25.6395 -41.3670 0.0000 41.7975 0.0000
# 6 0.0000 0.0000 0.0000 -6.9406 0.0000 39.2169
#
#
#
# Elastic Compliance Matrix: (Units=1/GPa)
#
#
# Indices 1 2 3 4 5 6 
#
# 1 0.013810 -0.002739 -0.002835 0.000000 -0.000645 0.000000
# 2 -0.002739 0.011212 0.000001 0.000000 0.006117 0.000000
# 3 -0.002835 0.000001 0.010384 0.000000 0.009490 0.000000
# 4 0.000000 0.000000 0.000000 0.033332 0.000000 0.005899
# 5 -0.000645 0.006117 0.009490 0.000000 0.036890 0.000000
# 6 0.000000 0.000000 0.000000 0.005899 0.000000 0.026543
#
#
# Mechanical properties :
#
#
# Convention : Reuss Voigt Hill
#
# Bulk Modulus (GPa) = 41.21649 57.72281 49.46965
# Shear Modulus (GPa) = 33.02431 38.84126 35.93279
#
# Velocity S-wave (km/s) = 3.70273 4.01561 3.86234
# Velocity P-wave (km/s) = 5.94908 6.74271 6.35829
#
# Compressibility (1/GPa) = 0.02426213
#
# Stress axis : x y z
#
# Youngs Moduli (GPa) = 72.40951 89.18997 96.30068
#
# Poissons Ratio (x) = 0.24427 0.27297
# Poissons Ratio (y) = 0.19831 -0.00011
# Poissons Ratio (z) = 0.20525 -0.00010
#
# Static dielectric constant tensor:
#      x y z
#    x 1.942130 0.000000 0.006840 
#    y 0.000000 1.918690 0.000000 
#    z 0.006840 0.000000 2.020860 
# 
# From -- ./inp_files/291507.got.cif
#   From: 2010.05.17/outbox.cif.g08.bks.cpg/sg15_146_cif.got.tgz:291507.got - 2010.06.03 18:47:42.
