data_PCOD9304578
_publ_section_title
;
Structure prediction by ZEFSAII (Michael W. Deem and Ramdas Pophale) SiO2 
 PCOD9304578
Probable space group: C 2/C
;
_chemical_formula_sum "Si O2"
_cell_formula_units_Z 44
_cell_length_a 6.479033
_cell_length_b 25.162497
_cell_length_c 17.743299
_cell_angle_alpha 90.000000
_cell_angle_beta 133.691387
_cell_angle_gamma 90.000000
_cell_volume 2091.602922
_symmetry_space_group_name_H-M "C 2/C"
_symmetry_group_IT_number 15
_symmetry_cell_setting 'monoclinic'
loop_
_space_group_symop_operation_xyz
x,y,z
-x,y,1/2-z
-x,-y,-z
x,-y,1/2+z
1/2+x,1/2+y,z
1/2-x,1/2+y,1/2-z
1/2-x,1/2-y,-z
1/2+x,1/2-y,1/2+z
loop_
_atom_site_type_symbol
_atom_site_label
_atom_site_fract_x
_atom_site_fract_y
_atom_site_fract_z
Si Si1 0.500000 0.838804 0.750000
Si Si2 0.923921 0.603303 0.965171
Si Si3 0.547176 0.427929 0.674386
Si Si4 0.062638 0.029181 0.594827
Si Si5 0.881708 0.362114 0.139991
Si Si6 0.285073 0.693036 0.471736
O O1 0.248611 0.877961 0.712369
O O2 0.375735 0.806905 0.648509
O O3 0.710591 0.555212 0.931691
O O4 0.905143 0.628318 0.876478
O O5 0.856310 0.648533 0.009822
O O6 0.246340 0.583051 0.057617
O O7 0.500000 0.434554 0.750000
O O8 0.676395 0.482163 0.675325
O O9 0.261425 0.079264 0.628664
O O10 0.000000 0.000000 0.500000
O O11 0.000000 0.341279 0.250000
O O12 0.614744 0.325671 0.047098
O O13 0.250000 0.750000 0.500000
#
# Coordination Sequence:
#
# PCOD9304578 Si02
#       6
#     4   8   8   8   8   8
#     4  12  24  46  70 106 136 170 234 292 338 418
#     4  11  23  45  65  97 138 179 229 284 344 409
#     4  12  24  38  69 101 134 179 226 277 337 408
#     4  11  24  38  65  98 143 184 225 277 336 415
#     4  11  26  44  65 100 142 181 232 283 341 423
#     4  11  26  48  72  99 135 177 233 299 352 410
#
# _framework density 21.036498999999999
#
# number of rings (size 3 to 8) (size 9 to 14) (size 15 to 20)
#    0.000    0.727    5.455    1.636    3.818    4.364 
#    3.273    0.000    0.000    0.000    0.000    0.000 
#    0.000    0.000    0.000    0.000    0.000    0.000 
#
# Total GULP energy -123037.483947 kJ/mol
# GULP energy per Si atom -5592.612907 kJ/mol
# Density = 2.098862 g / cm^3
# Si number density = 21.036499 Si / 1000 Ang^3
#
#
#
# Elastic Constant Matrix: (Units=GPa)
#
#
# Indices 1 2 3 4 5 6 
#
# 1 106.5127 21.2576 55.6746 0.0000 -23.6838 0.0000
# 2 21.2576 114.5322 44.3271 0.0000 -9.8455 0.0000
# 3 55.6746 44.3271 130.9830 0.0000 -26.6011 0.0000
# 4 0.0000 0.0000 0.0000 13.6591 0.0000 -4.4417
# 5 -23.6838 -9.8455 -26.6011 0.0000 40.5138 0.0000
# 6 0.0000 0.0000 0.0000 -4.4417 0.0000 31.0296
#
#
#
# Elastic Compliance Matrix: (Units=1/GPa)
#
#
# Indices 1 2 3 4 5 6 
#
# 1 0.012749 -0.000271 -0.004416 0.000000 0.004487 0.000000
# 2 -0.000271 0.010055 -0.003258 0.000000 0.000146 0.000000
# 3 -0.004416 -0.003258 0.011457 0.000000 0.004149 0.000000
# 4 0.000000 0.000000 0.000000 0.076786 0.000000 0.010991
# 5 0.004487 0.000146 0.004149 0.000000 0.030066 0.000000
# 6 0.000000 0.000000 0.000000 0.010991 0.000000 0.033801
#
#
# Mechanical properties :
#
#
# Convention : Reuss Voigt Hill
#
# Bulk Modulus (GPa) = 54.43531 66.06071 60.24801
# Shear Modulus (GPa) = 25.39029 32.42508 28.90768
#
# Velocity S-wave (km/s) = 3.47791 3.93029 3.71100
# Velocity P-wave (km/s) = 6.48541 7.21577 6.86032
#
# Compressibility (1/GPa) = 0.01837043
#
# Stress axis : x y z
#
# Youngs Moduli (GPa) = 78.44003 99.45365 87.28589
#
# Poissons Ratio (x) = 0.02700 0.38542
# Poissons Ratio (y) = 0.02129 0.28436
# Poissons Ratio (z) = 0.34636 0.32400
#
# Static dielectric constant tensor:
#      x y z
#    x 1.759000 0.000000 -0.011270 
#    y 0.000000 1.706590 0.000000 
#    z -0.011270 0.000000 1.803570 
# 
# From -- ./inp_files/129382.got.cif
#   From: 2010.05.17/outbox.cif.g08.bks.cpg/sg15_65_cif.got.tgz:129382.got - 2010.06.03 18:47:42.
