data_PCOD9304514
_publ_section_title
;
Structure prediction by ZEFSAII (Michael W. Deem and Ramdas Pophale) SiO2 
 PCOD9304514
Probable space group: C 2/C
;
_chemical_formula_sum "Si O2"
_cell_formula_units_Z 56
_cell_length_a 12.003923
_cell_length_b 27.822795
_cell_length_c 8.883151
_cell_angle_alpha 90.000000
_cell_angle_beta 62.063414
_cell_angle_gamma 90.000000
_cell_volume 2621.085355
_symmetry_space_group_name_H-M "C 2/C"
_symmetry_group_IT_number 15
_symmetry_cell_setting 'monoclinic'
loop_
_space_group_symop_operation_xyz
x,y,z
-x,y,1/2-z
-x,-y,-z
x,-y,1/2+z
1/2+x,1/2+y,z
1/2-x,1/2+y,1/2-z
1/2-x,1/2-y,-z
1/2+x,1/2-y,1/2+z
loop_
_atom_site_type_symbol
_atom_site_label
_atom_site_fract_x
_atom_site_fract_y
_atom_site_fract_z
Si Si1 0.270404 0.696248 0.546718
Si Si2 0.563415 0.184029 0.921995
Si Si3 0.247318 0.858338 0.980448
Si Si4 0.864011 0.045134 0.411733
Si Si5 0.015233 0.212526 0.567966
Si Si6 0.311645 0.122489 0.113050
Si Si7 0.133135 0.940596 0.231972
O O1 0.250000 0.750000 0.500000
O O2 0.149681 0.679772 0.720059
O O3 0.388131 0.689561 0.582816
O O4 0.281071 0.663647 0.393200
O O5 0.648159 0.176005 0.015966
O O6 0.528759 0.240254 0.956354
O O7 0.449531 0.145826 0.999310
O O8 0.127878 0.825820 0.008069
O O9 0.224636 0.898383 0.122263
O O10 0.294387 0.883973 0.800600
O O11 0.743477 0.075929 0.434715
O O12 0.874614 0.050010 0.585247
O O13 0.000000 0.059766 0.250000
O O14 0.842464 0.990658 0.369629
O O15 0.000000 0.229094 0.750000
O O16 0.000000 0.923340 0.250000
#
# Coordination Sequence:
#
# PCOD9304514 Si02
#       7
#     8   8   8   8   8   8   8
#     4  12  26  44  66  98 137 183 237 298 349 415
#     4  12  26  46  65  97 141 189 233 290 347 431
#     4  12  25  43  71  98 138 184 238 289 350 418
#     4  11  24  44  72 106 143 181 233 296 359 418
#     4  12  25  42  68  96 134 184 243 288 352 406
#     4  12  26  42  67  99 142 184 229 284 358 424
#     4  11  23  44  71 106 140 179 235 300 354 417
#
# _framework density 21.365195
#
# number of rings (size 3 to 8) (size 9 to 14) (size 15 to 20)
#    0.000    0.286    2.857    7.714    4.000    1.143 
#    0.000    0.714    0.000    1.714    0.000    0.000 
#    0.000    0.000    0.000    0.000    0.000    0.000 
#
# Total GULP energy -156510.742385 kJ/mol
# GULP energy per Si atom -5589.669371 kJ/mol
# Density = 2.131657 g / cm^3
# Si number density = 21.365195 Si / 1000 Ang^3
#
#
#
# Elastic Constant Matrix: (Units=GPa)
#
#
# Indices 1 2 3 4 5 6 
#
# 1 119.8073 28.6858 50.2388 0.0000 -7.7941 0.0000
# 2 28.6858 56.1610 28.9272 0.0000 -16.7160 0.0000
# 3 50.2388 28.9272 126.5408 0.0000 24.5102 0.0000
# 4 0.0000 0.0000 0.0000 3.8382 0.0000 32.3030
# 5 -7.7941 -16.7160 24.5102 0.0000 34.4655 0.0000
# 6 0.0000 0.0000 0.0000 32.3030 0.0000 14.9809
#
#
#
# Elastic Compliance Matrix: (Units=1/GPa)
#
#
# Indices 1 2 3 4 5 6 
#
# 1 0.011232 -0.001384 -0.005225 0.000000 0.005584 0.000000
# 2 -0.001384 0.030671 -0.010766 0.000000 0.022219 0.000000
# 3 -0.005225 -0.010766 0.015863 0.000000 -0.017684 0.000000
# 4 0.000000 0.000000 0.000000 -0.015194 0.000000 0.032762
# 5 0.005584 0.022219 -0.017684 0.000000 0.053630 0.000000
# 6 0.000000 0.000000 0.000000 0.032762 0.000000 -0.003893
#
#
# Mechanical properties :
#
#
# Convention : Reuss Voigt Hill
#
# Bulk Modulus (GPa) = 43.44381 57.57919 50.51150
# Shear Modulus (GPa) = 37.11075 23.63406 30.37240
#
# Velocity S-wave (km/s) = 4.17222 3.32956 3.77448
# Velocity P-wave (km/s) = 6.60212 6.46450 6.53367
#
# Compressibility (1/GPa) = 0.02301824
#
# Stress axis : x y z
#
# Youngs Moduli (GPa) = 89.02926 32.60364 63.03865
#
# Poissons Ratio (x) = 0.04512 0.32936
# Poissons Ratio (y) = 0.12320 0.67866
# Poissons Ratio (z) = 0.46515 0.35100
#
# Static dielectric constant tensor:
#      x y z
#    x 1.811010 0.000000 -0.046030 
#    y 0.000000 1.793930 0.000000 
#    z -0.046030 0.000000 1.810450 
# 
# From -- ./inp_files/35570.got.cif
#   From: 2010.05.17/outbox.cif.g08.bks.cpg/sg15_18_cif.got.tgz:35570.got - 2010.06.03 18:47:42.
