data_PCOD9304672
_publ_section_title
;
Structure prediction by ZEFSAII (Michael W. Deem and Ramdas Pophale) SiO2 
 PCOD9304672
Probable space group: C 2/C
;
_chemical_formula_sum "Si O2"
_cell_formula_units_Z 36
_cell_length_a 13.361138
_cell_length_b 12.194389
_cell_length_c 12.104536
_cell_angle_alpha 90.000000
_cell_angle_beta 131.228997
_cell_angle_gamma 90.000000
_cell_volume 1483.257389
_symmetry_space_group_name_H-M "C 2/C"
_symmetry_group_IT_number 15
_symmetry_cell_setting 'monoclinic'
loop_
_space_group_symop_operation_xyz
x,y,z
-x,y,1/2-z
-x,-y,-z
x,-y,1/2+z
1/2+x,1/2+y,z
1/2-x,1/2+y,1/2-z
1/2-x,1/2-y,-z
1/2+x,1/2-y,1/2+z
loop_
_atom_site_type_symbol
_atom_site_label
_atom_site_fract_x
_atom_site_fract_y
_atom_site_fract_z
Si Si1 0.994791 0.343871 0.582358
Si Si2 0.805348 0.855749 0.472029
Si Si3 0.064988 0.584006 0.900138
Si Si4 0.192954 0.836272 0.290107
Si Si5 0.500000 0.480317 0.750000
O O1 0.006890 0.469432 0.628928
O O2 0.837469 0.317503 0.452016
O O3 0.055472 0.344967 0.502548
O O4 0.090932 0.265890 0.721469
O O5 0.750000 0.750000 0.500000
O O6 0.708134 0.945218 0.457417
O O7 0.784320 0.853039 0.325625
O O8 0.947470 0.900182 0.614472
O O9 0.000000 0.644854 0.750000
O O10 0.110930 0.939158 0.277912
#
# Coordination Sequence:
#
# PCOD9304672 Si02
#       5
#     8   8   8   8   4
#     4  11  26  45  73 111 145 192 238 303 364 440
#     4  12  26  47  77 105 141 193 249 302 366 439
#     4  11  23  45  73 107 142 185 246 297 365 429
#     4  12  27  48  75 108 151 193 247 300 372 432
#     4  12  30  50  70 110 150 192 242 312 374 436
#
# _framework density 24.270904999999999
#
# number of rings (size 3 to 8) (size 9 to 14) (size 15 to 20)
#    0.000    0.444    6.667    0.667    6.222    2.667 
#    0.000    0.000    0.000    0.000    0.000    0.000 
#    0.000    0.000    0.000    0.000    0.000    0.000 
#
# Total GULP energy -100538.772020 kJ/mol
# GULP energy per Si atom -5585.487334 kJ/mol
# Density = 2.421566 g / cm^3
# Si number density = 24.270905 Si / 1000 Ang^3
#
#
#
# Elastic Constant Matrix: (Units=GPa)
#
#
# Indices 1 2 3 4 5 6 
#
# 1 126.0839 7.7909 14.4388 0.0000 0.2311 0.0000
# 2 7.7909 88.0138 30.2418 0.0000 11.7928 0.0000
# 3 14.4388 30.2418 119.8192 0.0000 20.3950 0.0000
# 4 0.0000 0.0000 0.0000 38.8179 0.0000 -0.5424
# 5 0.2311 11.7928 20.3950 0.0000 38.2580 0.0000
# 6 0.0000 0.0000 0.0000 -0.5424 0.0000 22.1135
#
#
#
# Elastic Compliance Matrix: (Units=1/GPa)
#
#
# Indices 1 2 3 4 5 6 
#
# 1 0.008069 -0.000466 -0.000958 0.000000 0.000606 0.000000
# 2 -0.000466 0.012667 -0.002724 0.000000 -0.002450 0.000000
# 3 -0.000958 -0.002724 0.009904 0.000000 -0.004434 0.000000
# 4 0.000000 0.000000 0.000000 0.025770 0.000000 0.000632
# 5 0.000606 -0.002450 -0.004434 0.000000 0.029254 0.000000
# 6 0.000000 0.000000 0.000000 0.000632 0.000000 0.045237
#
#
# Mechanical properties :
#
#
# Convention : Reuss Voigt Hill
#
# Bulk Modulus (GPa) = 44.75567 48.76219 46.75893
# Shear Modulus (GPa) = 34.09622 38.60089 36.34856
#
# Velocity S-wave (km/s) = 3.75216 3.99233 3.87411
# Velocity P-wave (km/s) = 6.10341 6.43320 6.27047
#
# Compressibility (1/GPa) = 0.02234354
#
# Stress axis : x y z
#
# Youngs Moduli (GPa) = 123.93719 78.94318 100.97362
#
# Poissons Ratio (x) = 0.03681 0.09670
# Poissons Ratio (y) = 0.05779 0.27505
# Poissons Ratio (z) = 0.11869 0.21504
#
# Static dielectric constant tensor:
#      x y z
#    x 2.036190 0.000000 0.119180 
#    y 0.000000 1.955510 0.000000 
#    z 0.119180 0.000000 2.058690 
# 
# From -- ./inp_files/95496.got.cif
#   From: 2010.05.17/outbox.cif.g08.bks.cpg/sg15_48_cif.got.tgz:95496.got - 2010.06.03 18:47:42.
