data_PCOD9304662
_publ_section_title
;
Structure prediction by ZEFSAII (Michael W. Deem and Ramdas Pophale) SiO2 
 PCOD9304662
Probable space group: C 2/C
;
_chemical_formula_sum "Si O2"
_cell_formula_units_Z 52
_cell_length_a 23.786773
_cell_length_b 6.902320
_cell_length_c 18.494947
_cell_angle_alpha 90.000000
_cell_angle_beta 54.284020
_cell_angle_gamma 90.000000
_cell_volume 2465.456511
_symmetry_space_group_name_H-M "C 2/C"
_symmetry_group_IT_number 15
_symmetry_cell_setting 'monoclinic'
loop_
_space_group_symop_operation_xyz
x,y,z
-x,y,1/2-z
-x,-y,-z
x,-y,1/2+z
1/2+x,1/2+y,z
1/2-x,1/2+y,1/2-z
1/2-x,1/2-y,-z
1/2+x,1/2-y,1/2+z
loop_
_atom_site_type_symbol
_atom_site_label
_atom_site_fract_x
_atom_site_fract_y
_atom_site_fract_z
Si Si1 0.894248 0.578619 0.552357
Si Si2 0.606423 0.877158 0.797271
Si Si3 0.503603 0.598502 0.921406
Si Si4 0.572087 0.739452 0.083915
Si Si5 0.500000 0.989349 0.750000
Si Si6 0.744123 0.256102 0.123794
Si Si7 0.709581 0.548780 0.031345
O O1 0.906028 0.536349 0.629421
O O2 0.948124 0.725220 0.472061
O O3 0.905547 0.374031 0.501210
O O4 0.817258 0.668545 0.601038
O O5 0.578994 0.680009 0.852175
O O6 0.686425 0.845596 0.717167
O O7 0.554718 0.894629 0.766280
O O8 0.486911 0.421021 0.881863
O O9 0.500000 0.500000 0.000000
O O10 0.549688 0.886129 0.162198
O O11 0.634412 0.606324 0.062298
O O12 0.711982 0.441559 0.106414
O O13 0.759759 0.098477 0.050240
O O14 0.750000 0.750000 0.000000
#
# Coordination Sequence:
#
# PCOD9304662 Si02
#       7
#     8   8   8   8   4   8   8
#     4  12  25  52  73 102 151 192 243 298 364 436
#     4  12  28  47  73 109 151 188 240 313 358 429
#     4  12  25  46  76 102 137 194 245 288 371 432
#     4  12  25  45  74 106 139 194 239 298 360 434
#     4  12  28  46  72 112 150 180 246 308 364 424
#     4  11  27  45  72 110 145 190 243 296 361 438
#     4  11  23  45  73 102 144 189 234 292 368 426
#
# _framework density 21.091429999999999
#
# number of rings (size 3 to 8) (size 9 to 14) (size 15 to 20)
#    0.000    0.308    6.154    2.308    6.462    2.462 
#    5.538    0.000    0.000    0.000    0.000    0.000 
#    0.000    0.000    0.000    0.000    0.000    0.000 
#
# Total GULP energy -145039.775668 kJ/mol
# GULP energy per Si atom -5578.452910 kJ/mol
# Density = 2.104343 g / cm^3
# Si number density = 21.091430 Si / 1000 Ang^3
#
#
#
# Elastic Constant Matrix: (Units=GPa)
#
#
# Indices 1 2 3 4 5 6 
#
# 1 33.4359 20.2273 16.7983 -0.0139 12.5816 -0.0011
# 2 20.2273 69.5829 -0.1215 -0.0208 2.3215 -0.0119
# 3 16.7983 -0.1215 88.7850 -0.0094 -6.4720 -0.0065
# 4 -0.0139 -0.0208 -0.0094 28.1448 -0.0041 -8.0670
# 5 12.5816 2.3215 -6.4720 -0.0041 30.6873 0.0013
# 6 -0.0011 -0.0119 -0.0065 -8.0670 0.0013 47.8506
#
#
#
# Elastic Compliance Matrix: (Units=1/GPa)
#
#
# Indices 1 2 3 4 5 6 
#
# 1 0.053644 -0.014835 -0.011874 0.000008 -0.023376 -0.000002
# 2 -0.014835 0.018510 0.003223 0.000010 0.005362 0.000006
# 3 -0.011874 0.003223 0.014067 0.000003 0.007591 0.000003
# 4 0.000008 0.000010 0.000003 0.037335 0.000001 0.006294
# 5 -0.023376 0.005362 0.007591 0.000001 0.043366 0.000001
# 6 -0.000002 0.000006 0.000003 0.006294 0.000001 0.021959
#
#
# Mechanical properties :
#
#
# Convention : Reuss Voigt Hill
#
# Bulk Modulus (GPa) = 25.47735 29.51244 27.49490
# Shear Modulus (GPa) = 20.08543 31.66319 25.87431
#
# Velocity S-wave (km/s) = 3.08929 3.87878 3.50633
# Velocity P-wave (km/s) = 4.98304 5.83806 5.42741
#
# Compressibility (1/GPa) = 0.03925055
#
# Stress axis : x y z
#
# Youngs Moduli (GPa) = 18.64146 54.02347 71.08591
#
# Poissons Ratio (x) = 0.80143 0.84406
# Poissons Ratio (y) = 0.27654 -0.22911
# Poissons Ratio (z) = 0.22134 -0.17411
#
# Static dielectric constant tensor:
#      x y z
#    x 1.735150 0.000000 0.032190 
#    y 0.000000 1.706100 0.000000 
#    z 0.032190 0.000000 1.756870 
# 
# From -- ./inp_files/256738.got.cif
#   From: 2010.05.17/outbox.cif.g08.bks.cpg/sg15_129_cif.got.tgz:256738.got - 2010.06.03 18:47:42.
