data_PCOD9304690
_publ_section_title
;
Structure prediction by ZEFSAII (Michael W. Deem and Ramdas Pophale) SiO2 
 PCOD9304690
Probable space group: C 2/C
;
_chemical_formula_sum "Si O2"
_cell_formula_units_Z 36
_cell_length_a 12.429689
_cell_length_b 9.122098
_cell_length_c 17.742240
_cell_angle_alpha 90.000000
_cell_angle_beta 132.829268
_cell_angle_gamma 90.000000
_cell_volume 1475.346747
_symmetry_space_group_name_H-M "C 2/C"
_symmetry_group_IT_number 15
_symmetry_cell_setting 'monoclinic'
loop_
_space_group_symop_operation_xyz
x,y,z
-x,y,1/2-z
-x,-y,-z
x,-y,1/2+z
1/2+x,1/2+y,z
1/2-x,1/2+y,1/2-z
1/2-x,1/2-y,-z
1/2+x,1/2-y,1/2+z
loop_
_atom_site_type_symbol
_atom_site_label
_atom_site_fract_x
_atom_site_fract_y
_atom_site_fract_z
Si Si1 0.037078 0.149953 0.559541
Si Si2 0.619521 0.847212 0.463593
Si Si3 0.662508 0.060390 0.718410
Si Si4 0.779975 0.643718 0.928559
Si Si5 0.500000 0.820891 0.750000
O O1 0.087157 0.280538 0.529157
O O2 0.879326 0.219420 0.502517
O O3 0.179165 0.111369 0.677112
O O4 0.000000 0.000000 0.500000
O O5 0.750000 0.750000 0.500000
O O6 0.477479 0.830976 0.342653
O O7 0.676113 0.012380 0.495042
O O8 0.596644 0.921182 0.735699
O O9 0.681201 0.069291 0.635823
O O10 0.619078 0.710463 0.841890
#
# Coordination Sequence:
#
# PCOD9304690 Si02
#       5
#     8   8   8   8   4
#     4  11  23  45  75 109 145 199 248 314 382 444
#     4  11  27  47  71 113 153 197 254 318 378 462
#     4  11  25  48  76 106 157 197 255 314 389 450
#     4  11  28  47  76 114 152 198 260 317 379 462
#     4  12  26  48  80 114 148 212 248 316 386 456
#
# _framework density 24.401043999999999
#
# number of rings (size 3 to 8) (size 9 to 14) (size 15 to 20)
#    0.000    0.889    2.222    4.000    6.222    4.444 
#    0.000    0.000    0.000    0.000    0.000    0.000 
#    0.000    0.000    0.000    0.000    0.000    0.000 
#
# Total GULP energy -100318.913173 kJ/mol
# GULP energy per Si atom -5573.272954 kJ/mol
# Density = 2.434551 g / cm^3
# Si number density = 24.401044 Si / 1000 Ang^3
#
#
#
# Elastic Constant Matrix: (Units=GPa)
#
#
# Indices 1 2 3 4 5 6 
#
# 1 71.4177 30.1449 67.5114 0.0000 20.7876 0.0000
# 2 30.1449 162.2201 77.0546 0.0000 17.4631 0.0000
# 3 67.5114 77.0546 217.1061 0.0000 46.0040 0.0000
# 4 0.0000 0.0000 0.0000 34.5472 0.0000 8.1135
# 5 20.7876 17.4631 46.0040 0.0000 53.2890 0.0000
# 6 0.0000 0.0000 0.0000 8.1135 0.0000 44.4288
#
#
#
# Elastic Compliance Matrix: (Units=1/GPa)
#
#
# Indices 1 2 3 4 5 6 
#
# 1 0.020329 -0.000907 -0.005363 0.000000 -0.003003 0.000000
# 2 -0.000907 0.007457 -0.002352 0.000000 -0.000059 0.000000
# 3 -0.005363 -0.002352 0.007958 0.000000 -0.004007 0.000000
# 4 0.000000 0.000000 0.000000 0.030243 0.000000 -0.005523
# 5 -0.003003 -0.000059 -0.004007 0.000000 0.023415 0.000000
# 6 0.000000 0.000000 0.000000 -0.005523 0.000000 0.023517
#
#
# Mechanical properties :
#
#
# Convention : Reuss Voigt Hill
#
# Bulk Modulus (GPa) = 54.05712 88.90730 71.48221
# Shear Modulus (GPa) = 36.67616 44.85520 40.76568
#
# Velocity S-wave (km/s) = 3.88113 4.29213 4.09180
# Velocity P-wave (km/s) = 6.50277 7.81525 7.18902
#
# Compressibility (1/GPa) = 0.01849895
#
# Stress axis : x y z
#
# Youngs Moduli (GPa) = 49.19101 134.11098 125.66646
#
# Poissons Ratio (x) = 0.12161 0.67399
# Poissons Ratio (y) = 0.04461 0.29555
# Poissons Ratio (z) = 0.26383 0.31541
#
# Static dielectric constant tensor:
#      x y z
#    x 2.185740 0.000000 -0.011050 
#    y 0.000000 1.895860 0.000000 
#    z -0.011050 0.000000 1.935550 
# 
# From -- ./inp_files/242889.got.cif
#   From: 2010.05.17/outbox.cif.g08.bks.cpg/sg15_122_cif.got.tgz:242889.got - 2010.06.03 18:47:42.
