data_PCOD9304507
_publ_section_title
;
Structure prediction by ZEFSAII (Michael W. Deem and Ramdas Pophale) SiO2 
 PCOD9304507
Probable space group: C 2/C
;
_chemical_formula_sum "Si O2"
_cell_formula_units_Z 60
_cell_length_a 21.156233
_cell_length_b 8.225724
_cell_length_c 21.317939
_cell_angle_alpha 90.000000
_cell_angle_beta 47.155815
_cell_angle_gamma 90.000000
_cell_volume 2720.091480
_symmetry_space_group_name_H-M "C 2/C"
_symmetry_group_IT_number 15
_symmetry_cell_setting 'monoclinic'
loop_
_space_group_symop_operation_xyz
x,y,z
-x,y,1/2-z
-x,-y,-z
x,-y,1/2+z
1/2+x,1/2+y,z
1/2-x,1/2+y,1/2-z
1/2-x,1/2-y,-z
1/2+x,1/2-y,1/2+z
loop_
_atom_site_type_symbol
_atom_site_label
_atom_site_fract_x
_atom_site_fract_y
_atom_site_fract_z
Si Si1 0.769541 0.516684 0.300300
Si Si2 0.487359 0.298757 0.009683
Si Si3 0.368967 0.288575 0.677192
Si Si4 0.000000 0.585681 0.750000
Si Si5 0.554282 0.496291 0.772612
Si Si6 0.328573 0.650807 0.528923
Si Si7 0.656645 0.336834 0.620409
Si Si8 0.452167 0.162208 0.172218
O O1 0.696528 0.574210 0.301692
O O2 0.813904 0.349557 0.247892
O O3 0.720179 0.489173 0.398986
O O4 0.848885 0.640394 0.246775
O O5 0.402847 0.278867 0.023459
O O6 0.474611 0.204936 0.084413
O O7 0.500000 0.500000 0.000000
O O8 0.573084 0.227593 0.919355
O O9 0.438536 0.371773 0.675806
O O10 0.091045 0.685213 0.680398
O O11 0.009939 0.480245 0.808195
O O12 0.500000 0.440983 0.750000
O O13 0.647176 0.480709 0.677548
O O14 0.523408 0.670197 0.811697
O O15 0.362127 0.602997 0.437475
O O16 0.253820 0.778018 0.563351
#
# Coordination Sequence:
#
# PCOD9304507 Si02
#       8
#     8   8   8   4   8   8   8   8
#     4  12  25  49  72 104 142 186 239 298 364 423
#     4  12  25  44  71 104 140 184 239 296 352 423
#     4  12  25  46  74 102 146 185 237 299 357 428
#     4  12  24  48  68 104 148 184 240 296 364 424
#     4  12  22  40  70 103 135 193 238 281 358 428
#     4  11  23  44  71 103 138 178 244 287 348 425
#     4  11  25  43  73  99 139 194 233 294 355 426
#     4  12  27  45  70 106 145 185 236 300 356 427
#
# _framework density 22.058081000000001
#
# number of rings (size 3 to 8) (size 9 to 14) (size 15 to 20)
#    0.000    0.267    6.667    2.400    1.867    0.533 
#    2.400    2.000    0.000    0.000    0.000    0.000 
#    0.000    0.000    0.000    0.000    0.000    0.000 
#
# Total GULP energy -167320.373864 kJ/mol
# GULP energy per Si atom -5577.345795 kJ/mol
# Density = 2.200788 g / cm^3
# Si number density = 22.058081 Si / 1000 Ang^3
#
#
#
# Elastic Constant Matrix: (Units=GPa)
#
#
# Indices 1 2 3 4 5 6 
#
# 1 130.6962 27.9643 34.7058 0.0000 6.9312 0.0000
# 2 27.9643 59.4473 26.8485 0.0001 6.4276 -0.0001
# 3 34.7058 26.8485 137.1071 0.0000 24.4243 0.0000
# 4 0.0000 0.0001 0.0000 26.0035 0.0000 7.5729
# 5 6.9312 6.4276 24.4243 0.0000 42.3025 0.0000
# 6 0.0000 -0.0001 0.0000 7.5729 0.0000 24.1809
#
#
#
# Elastic Compliance Matrix: (Units=1/GPa)
#
#
# Indices 1 2 3 4 5 6 
#
# 1 0.008800 -0.003437 -0.001550 0.000000 -0.000025 0.000000
# 2 -0.003437 0.019820 -0.002870 0.000000 -0.000791 0.000000
# 3 -0.001550 -0.002870 0.009057 0.000000 -0.004539 0.000000
# 4 0.000000 0.000000 0.000000 0.042316 0.000000 -0.013252
# 5 -0.000025 -0.000791 -0.004539 0.000000 0.026384 0.000000
# 6 0.000000 0.000000 0.000000 -0.013252 0.000000 0.045505
#
#
# Mechanical properties :
#
#
# Convention : Reuss Voigt Hill
#
# Bulk Modulus (GPa) = 45.53282 56.25419 50.89350
# Shear Modulus (GPa) = 28.58509 34.34618 31.46563
#
# Velocity S-wave (km/s) = 3.60377 3.95026 3.78099
# Velocity P-wave (km/s) = 6.16468 6.80913 6.49490
#
# Compressibility (1/GPa) = 0.02196218
#
# Stress axis : x y z
#
# Youngs Moduli (GPa) = 113.64193 50.45379 110.41703
#
# Poissons Ratio (x) = 0.17339 0.17115
# Poissons Ratio (y) = 0.39054 0.31693
# Poissons Ratio (z) = 0.17615 0.14482
#
# Static dielectric constant tensor:
#      x y z
#    x 1.891350 0.000000 -0.099020 
#    y 0.000000 1.836470 0.000000 
#    z -0.099020 0.000000 2.287390 
# 
# From -- ./inp_files/252116.got.cif
#   From: 2010.05.17/outbox.cif.g08.bks.cpg/sg15_127_cif.got.tgz:252116.got - 2010.06.03 18:47:42.
