data_PCOD9304799
_publ_section_title
;
Structure prediction by ZEFSAII (Michael W. Deem and Ramdas Pophale) SiO2 
 PCOD9304799
Probable space group: C 2/C
;
_chemical_formula_sum "Si O2"
_cell_formula_units_Z 40
_cell_length_a 12.200660
_cell_length_b 9.022591
_cell_length_c 14.608022
_cell_angle_alpha 90.000000
_cell_angle_beta 74.557047
_cell_angle_gamma 90.000000
_cell_volume 1550.016110
_symmetry_space_group_name_H-M "C 2/C"
_symmetry_group_IT_number 15
_symmetry_cell_setting 'monoclinic'
loop_
_space_group_symop_operation_xyz
x,y,z
-x,y,1/2-z
-x,-y,-z
x,-y,1/2+z
1/2+x,1/2+y,z
1/2-x,1/2+y,1/2-z
1/2-x,1/2-y,-z
1/2+x,1/2-y,1/2+z
loop_
_atom_site_type_symbol
_atom_site_label
_atom_site_fract_x
_atom_site_fract_y
_atom_site_fract_z
Si Si1 0.939216 0.479944 0.859672
Si Si2 0.105080 0.314808 0.446752
Si Si3 0.318962 0.500880 0.837998
Si Si4 0.731176 0.303672 0.401904
Si Si5 0.055789 0.996416 0.379181
O O1 0.822615 0.567406 0.861995
O O2 0.000000 0.437099 0.750000
O O3 0.017188 0.596210 0.899871
O O4 0.914739 0.354868 0.941724
O O5 0.272683 0.116260 0.606289
O O6 0.099161 0.145434 0.417380
O O7 0.377327 0.534965 0.729546
O O8 0.424378 0.489963 0.884089
O O9 0.258155 0.342029 0.838149
O O10 0.750000 0.250000 0.500000
O O11 0.602774 0.358686 0.425358
#
# Coordination Sequence:
#
# PCOD9304799 Si02
#       5
#     8   8   8   8   8
#     4  11  23  46  76 108 155 207 254 318 384 455
#     4  11  24  46  77 114 148 204 262 309 387 462
#     4  11  23  48  74 117 152 198 256 315 382 458
#     4  12  25  48  75 108 154 199 249 319 384 448
#     4  11  25  45  80 110 156 200 250 319 383 456
#
# _framework density 25.806183999999998
#
# number of rings (size 3 to 8) (size 9 to 14) (size 15 to 20)
#    0.000    0.800    4.000    3.600    0.000    1.600 
#    3.600    0.000    0.000    1.200    0.000    0.000 
#    0.000    0.000    0.000    0.000    0.000    0.000 
#
# Total GULP energy -112225.956589 kJ/mol
# GULP energy per Si atom -5611.297829 kJ/mol
# Density = 2.574745 g / cm^3
# Si number density = 25.806184 Si / 1000 Ang^3
#
#
#
# Elastic Constant Matrix: (Units=GPa)
#
#
# Indices 1 2 3 4 5 6 
#
# 1 153.6489 95.8258 37.1570 0.0000 -16.0037 0.0000
# 2 95.8258 104.6980 10.7608 0.0000 2.0152 0.0000
# 3 37.1570 10.7608 178.6096 0.0000 -9.5461 0.0000
# 4 0.0000 0.0000 0.0000 24.8938 0.0000 -1.0389
# 5 -16.0037 2.0152 -9.5461 0.0000 38.8545 0.0000
# 6 0.0000 0.0000 0.0000 -1.0389 0.0000 43.1626
#
#
#
# Elastic Compliance Matrix: (Units=1/GPa)
#
#
# Indices 1 2 3 4 5 6 
#
# 1 0.018261 -0.016619 -0.002381 0.000000 0.007799 0.000000
# 2 -0.016619 0.024752 0.001552 0.000000 -0.007748 0.000000
# 3 -0.002381 0.001552 0.006023 0.000000 0.000419 0.000000
# 4 0.000000 0.000000 0.000000 0.040211 0.000000 0.000968
# 5 0.007799 -0.007748 0.000419 0.000000 0.029454 0.000000
# 6 0.000000 0.000000 0.000000 0.000968 0.000000 0.023191
#
#
# Mechanical properties :
#
#
# Convention : Reuss Voigt Hill
#
# Bulk Modulus (GPa) = 70.72180 80.49374 75.60777
# Shear Modulus (GPa) = 27.54797 40.92971 34.23884
#
# Velocity S-wave (km/s) = 3.27080 3.98684 3.64644
# Velocity P-wave (km/s) = 6.45977 7.24241 6.86226
#
# Compressibility (1/GPa) = 0.01413991
#
# Stress axis : x y z
#
# Youngs Moduli (GPa) = 54.76085 40.40124 166.03077
#
# Poissons Ratio (x) = 0.67143 0.39530
# Poissons Ratio (y) = 0.91008 -0.25769
# Poissons Ratio (z) = 0.13038 -0.06270
#
# Static dielectric constant tensor:
#      x y z
#    x 2.019850 0.000000 0.025150 
#    y 0.000000 2.116620 0.000000 
#    z 0.025150 0.000000 1.984290 
# 
# From -- ./inp_files/150618.got.cif
#   From: 2010.05.17/outbox.cif.g08.bks.cpg/sg15_76_cif.got.tgz:150618.got - 2010.06.03 18:47:42.
