data_PCOD9304107
_publ_section_title
;
Structure prediction by ZEFSAII (Michael W. Deem and Ramdas Pophale) SiO2 
 PCOD9304107
Probable space group: C 2/C
;
_chemical_formula_sum "Si O2"
_cell_formula_units_Z 56
_cell_length_a 10.868545
_cell_length_b 11.963868
_cell_length_c 21.000567
_cell_angle_alpha 90.000000
_cell_angle_beta 90.000726
_cell_angle_gamma 90.000000
_cell_volume 2730.700319
_symmetry_space_group_name_H-M "C 2/C"
_symmetry_group_IT_number 15
_symmetry_cell_setting 'monoclinic'
loop_
_space_group_symop_operation_xyz
x,y,z
-x,y,1/2-z
-x,-y,-z
x,-y,1/2+z
1/2+x,1/2+y,z
1/2-x,1/2+y,1/2-z
1/2-x,1/2-y,-z
1/2+x,1/2-y,1/2+z
loop_
_atom_site_type_symbol
_atom_site_label
_atom_site_fract_x
_atom_site_fract_y
_atom_site_fract_z
Si Si1 0.643947 0.026742 0.820164
Si Si2 0.856061 0.473264 0.820166
Si Si3 0.771261 0.117490 0.426437
Si Si4 0.000002 0.999997 0.865311
Si Si5 0.271256 0.617485 0.573560
Si Si6 0.750003 0.250001 0.783221
Si Si7 0.500000 0.662812 0.250000
Si Si8 0.000000 0.162807 0.750000
O O1 0.500003 0.000006 0.816213
O O2 0.698222 0.000007 0.749998
O O3 0.690854 0.153281 0.827615
O O4 0.690405 0.949001 0.875910
O O5 0.809607 0.550994 0.875918
O O6 0.809157 0.346724 0.827612
O O7 0.750002 0.250003 0.418106
O O8 0.742290 0.092167 0.499998
O O9 0.904853 0.067065 0.408989
O O10 0.095155 0.067059 0.908988
O O11 0.961684 0.093248 0.812771
O O12 0.038319 0.906746 0.812772
O O13 0.629655 0.274662 0.738703
O O14 0.870346 0.225335 0.738702
#
# Coordination Sequence:
#
# PCOD9304107 Si02
#       8
#     8   8   8   8   8   8   4   4
#     4  11  25  43  68 104 142 179 236 303 361 435
#     4  11  25  43  68 104 142 179 236 303 361 435
#     4  11  26  46  70  99 140 193 245 298 359 437
#     4  11  23  42  68 100 138 190 236 298 358 438
#     4  11  26  46  70  99 140 193 245 298 359 437
#     4  12  24  42  67 110 139 194 228 296 384 426
#     4  11  24  40  73 106 146 181 240 303 368 432
#     4  11  24  40  73 106 146 181 240 303 368 432
#
# _framework density 20.507560999999999
#
# number of rings (size 3 to 8) (size 9 to 14) (size 15 to 20)
#    0.000    0.857    2.857    3.857   12.000    0.571 
#    0.000    0.714    0.000    0.000    0.000    0.000 
#    0.000    0.000    0.000    0.000    0.000    0.000 
#
# Total GULP energy -155983.186266 kJ/mol
# GULP energy per Si atom -5570.828081 kJ/mol
# Density = 2.046089 g / cm^3
# Si number density = 20.507561 Si / 1000 Ang^3
#
#
#
# Elastic Constant Matrix: (Units=GPa)
#
#
# Indices 1 2 3 4 5 6 
#
# 1 144.2910 62.6156 36.2764 0.0000 -0.0028 0.0000
# 2 62.6156 132.3349 76.2835 0.0000 -0.0040 0.0000
# 3 36.2764 76.2835 162.8033 0.0000 -0.0017 0.0000
# 4 0.0000 0.0000 0.0000 30.2658 0.0000 -0.0006
# 5 -0.0028 -0.0040 -0.0017 0.0000 26.6914 0.0000
# 6 0.0000 0.0000 0.0000 -0.0006 0.0000 39.6087
#
#
#
# Elastic Compliance Matrix: (Units=1/GPa)
#
#
# Indices 1 2 3 4 5 6 
#
# 1 0.008721 -0.004119 -0.000013 0.000000 0.000000 0.000000
# 2 -0.004119 0.012298 -0.004845 0.000000 0.000001 0.000000
# 3 -0.000013 -0.004845 0.008415 0.000000 0.000000 0.000000
# 4 0.000000 0.000000 0.000000 0.033041 0.000000 0.000001
# 5 0.000000 0.000001 0.000000 0.000000 0.037465 0.000000
# 6 0.000000 0.000000 0.000000 0.000001 0.000000 0.025247
#
#
# Mechanical properties :
#
#
# Convention : Reuss Voigt Hill
#
# Bulk Modulus (GPa) = 87.10046 87.75338 87.42692
# Shear Modulus (GPa) = 34.02097 36.93009 35.47553
#
# Velocity S-wave (km/s) = 4.07744 4.24819 4.16369
# Velocity P-wave (km/s) = 8.04561 8.18208 8.11413
#
# Compressibility (1/GPa) = 0.01148100
#
# Stress axis : x y z
#
# Youngs Moduli (GPa) = 114.66348 81.31323 118.82991
#
# Poissons Ratio (x) = 0.33491 0.00159
# Poissons Ratio (y) = 0.47228 0.57569
# Poissons Ratio (z) = 0.00153 0.39394
#
# Static dielectric constant tensor:
#      x y z
#    x 1.844410 0.000000 0.000000 
#    y 0.000000 1.906180 0.000000 
#    z 0.000000 0.000000 1.701780 
# 
# From -- ./inp_files/237089.got.cif
#   From: 2010.05.17/outbox.cif.g08.bks.cpg/sg15_119_cif.got.tgz:237089.got - 2010.06.03 18:47:42.
