data_PCOD9304347
_publ_section_title
;
Structure prediction by ZEFSAII (Michael W. Deem and Ramdas Pophale) SiO2 
 PCOD9304347
Probable space group: C 2/C
;
_chemical_formula_sum "Si O2"
_cell_formula_units_Z 48
_cell_length_a 19.511113
_cell_length_b 16.733698
_cell_length_c 9.545264
_cell_angle_alpha 90.000000
_cell_angle_beta 44.769111
_cell_angle_gamma 90.000000
_cell_volume 2194.773651
_symmetry_space_group_name_H-M "C 2/C"
_symmetry_group_IT_number 15
_symmetry_cell_setting 'monoclinic'
loop_
_space_group_symop_operation_xyz
x,y,z
-x,y,1/2-z
-x,-y,-z
x,-y,1/2+z
1/2+x,1/2+y,z
1/2-x,1/2+y,1/2-z
1/2-x,1/2-y,-z
1/2+x,1/2-y,1/2+z
loop_
_atom_site_type_symbol
_atom_site_label
_atom_site_fract_x
_atom_site_fract_y
_atom_site_fract_z
Si Si1 0.771294 0.445199 0.385812
Si Si2 0.096361 0.379120 0.540439
Si Si3 0.113038 0.356163 0.060063
Si Si4 0.275183 0.872027 0.877115
Si Si5 0.085514 0.197232 0.523333
Si Si6 0.895633 0.177364 0.328085
O O1 0.820008 0.422061 0.462973
O O2 0.740074 0.536287 0.420597
O O3 0.683004 0.383537 0.495329
O O4 0.855953 0.429654 0.150786
O O5 0.177822 0.363624 0.539596
O O6 0.067604 0.291581 0.526176
O O7 0.000000 0.415827 0.750000
O O8 0.136060 0.268992 0.093813
O O9 0.000000 0.371486 0.250000
O O10 0.140059 0.355724 0.858464
O O11 0.185522 0.817698 0.960908
O O12 0.094102 0.162907 0.353882
O O13 0.000000 0.167119 0.750000
O O14 0.000000 0.167570 0.250000
#
# Coordination Sequence:
#
# PCOD9304347 Si02
#       6
#     8   8   8   8   8   8
#     4  12  24  44  66  98 136 175 217 268 330 397
#     4  11  25  42  66  99 134 174 220 269 325 385
#     4  11  23  43  71  95 129 176 222 269 321 393
#     4  12  26  41  67 100 137 173 213 270 335 389
#     4  11  25  46  69  98 129 170 226 279 323 385
#     4  11  25  45  73  95 125 177 227 273 323 387
#
# _framework density 21.870137
#
# number of rings (size 3 to 8) (size 9 to 14) (size 15 to 20)
#    0.000    0.667    3.333    4.000    9.333    4.667 
#    0.000    1.667    0.000    0.000    0.000    0.000 
#    0.000    0.000    0.000    0.000    0.000    0.000 
#
# Total GULP energy -134354.346216 kJ/mol
# GULP energy per Si atom -5598.097759 kJ/mol
# Density = 2.182036 g / cm^3
# Si number density = 21.870137 Si / 1000 Ang^3
#
#
#
# Elastic Constant Matrix: (Units=GPa)
#
#
# Indices 1 2 3 4 5 6 
#
# 1 54.3929 -13.9949 -14.3207 0.0000 5.3862 0.0000
# 2 -13.9949 72.2642 8.6554 0.0000 -2.0969 0.0000
# 3 -14.3207 8.6554 70.8450 0.0000 0.5305 0.0000
# 4 0.0000 0.0000 0.0000 4.2712 0.0000 2.0437
# 5 5.3862 -2.0969 0.5305 0.0000 29.6728 0.0000
# 6 0.0000 0.0000 0.0000 2.0437 0.0000 -56.6523
#
#
#
# Elastic Compliance Matrix: (Units=1/GPa)
#
#
# Indices 1 2 3 4 5 6 
#
# 1 0.020616 0.003437 0.003774 0.000000 -0.003567 0.000000
# 2 0.003437 0.014648 -0.001098 0.000000 0.000431 0.000000
# 3 0.003774 -0.001098 0.015020 0.000000 -0.001031 0.000000
# 4 0.000000 0.000000 0.000000 0.230154 0.000000 0.008303
# 5 -0.003567 0.000431 -0.001031 0.000000 0.034397 0.000000
# 6 0.000000 0.000000 0.000000 0.008303 0.000000 -0.017352
#
#
# Mechanical properties :
#
#
# Convention : Reuss Voigt Hill
#
# Bulk Modulus (GPa) = 15.99746 17.57576 16.78661
# Shear Modulus (GPa) = 16.33485 9.93581 13.13533
#
# Velocity S-wave (km/s) = 2.73592 2.13377 2.45338
# Velocity P-wave (km/s) = 4.16064 3.75825 3.96456
#
# Compressibility (1/GPa) = 0.06250993
#
# Stress axis : x y z
#
# Youngs Moduli (GPa) = 48.50617 68.26986 66.57744
#
# Poissons Ratio (x) = -0.23464 -0.25127
# Poissons Ratio (y) = -0.16672 0.07311
# Poissons Ratio (z) = -0.18307 0.07496
#
# Static dielectric constant tensor:
#      x y z
#    x 1.770350 0.000000 -0.000780 
#    y 0.000000 1.789180 0.000000 
#    z -0.000780 0.000000 1.782980 
# 
# From -- ./inp_files/56433.got.cif
#   From: 2010.05.17/outbox.cif.g08.bks.cpg/sg15_29_cif.got.tgz:56433.got - 2010.06.03 18:47:42.
