data_PCOD9304601
_publ_section_title
;
Structure prediction by ZEFSAII (Michael W. Deem and Ramdas Pophale) SiO2 
 PCOD9304601
Probable space group: C 2/C
;
_chemical_formula_sum "Si O2"
_cell_formula_units_Z 44
_cell_length_a 9.850240
_cell_length_b 10.115084
_cell_length_c 25.219607
_cell_angle_alpha 90.000000
_cell_angle_beta 128.690117
_cell_angle_gamma 90.000000
_cell_volume 1961.321584
_symmetry_space_group_name_H-M "C 2/C"
_symmetry_group_IT_number 15
_symmetry_cell_setting 'monoclinic'
loop_
_space_group_symop_operation_xyz
x,y,z
-x,y,1/2-z
-x,-y,-z
x,-y,1/2+z
1/2+x,1/2+y,z
1/2-x,1/2+y,1/2-z
1/2-x,1/2-y,-z
1/2+x,1/2-y,1/2+z
loop_
_atom_site_type_symbol
_atom_site_label
_atom_site_fract_x
_atom_site_fract_y
_atom_site_fract_z
Si Si1 0.342238 0.690249 0.251248
Si Si2 0.707405 0.970049 0.290434
Si Si3 0.808980 0.030068 0.430344
Si Si4 0.750000 0.750000 0.000000
Si Si5 0.917284 0.727928 0.597191
Si Si6 0.433781 0.850525 0.983203
O O1 0.500000 0.655719 0.250000
O O2 0.245881 0.560235 0.248578
O O3 0.428866 0.754501 0.324620
O O4 0.239605 0.815693 0.202106
O O5 0.500000 0.970357 0.250000
O O6 0.801857 0.031553 0.364909
O O7 0.736017 0.156134 0.443311
O O8 0.687184 0.906166 0.416227
O O9 0.000000 0.000000 0.500000
O O10 0.954904 0.719584 0.034457
O O11 0.774149 0.842197 0.572653
O O12 0.968988 0.718127 0.548641
O O13 0.500000 0.000000 0.000000
#
# Coordination Sequence:
#
# PCOD9304601 Si02
#       6
#     8   8   8   4   8   8
#     4  11  25  47  73  99 136 190 238 291 353 425
#     4  11  26  48  73 101 144 186 238 295 356 427
#     4  12  24  44  73 104 141 183 230 294 358 420
#     4  12  24  38  66 104 136 182 228 280 352 416
#     4  11  23  45  68  99 142 184 228 288 354 422
#     4  11  24  39  65 101 141 177 225 284 348 421
#
# _framework density 22.433854
#
# number of rings (size 3 to 8) (size 9 to 14) (size 15 to 20)
#    0.000    0.727    7.273    1.091    2.545    5.091 
#    0.000    0.000    0.000    0.000    0.000    0.000 
#    0.000    0.000    0.000    0.000    0.000    0.000 
#
# Total GULP energy -122494.449849 kJ/mol
# GULP energy per Si atom -5567.929539 kJ/mol
# Density = 2.238279 g / cm^3
# Si number density = 22.433854 Si / 1000 Ang^3
#
#
#
# Elastic Constant Matrix: (Units=GPa)
#
#
# Indices 1 2 3 4 5 6 
#
# 1 136.4286 46.2494 14.7562 0.0000 -30.4564 0.0000
# 2 46.2494 106.3689 3.3606 0.0000 -13.1341 0.0000
# 3 14.7562 3.3606 87.3872 0.0000 -11.5560 0.0000
# 4 0.0000 0.0000 0.0000 30.6888 0.0000 -6.1548
# 5 -30.4564 -13.1341 -11.5560 0.0000 32.3585 0.0000
# 6 0.0000 0.0000 0.0000 -6.1548 0.0000 34.0340
#
#
#
# Elastic Compliance Matrix: (Units=1/GPa)
#
#
# Indices 1 2 3 4 5 6 
#
# 1 0.010398 -0.003495 -0.000540 0.000000 0.008175 0.000000
# 2 -0.003495 0.011074 0.000340 0.000000 0.001327 0.000000
# 3 -0.000540 0.000340 0.012041 0.000000 0.003929 0.000000
# 4 0.000000 0.000000 0.000000 0.033812 0.000000 0.006115
# 5 0.008175 0.001327 0.003929 0.000000 0.040540 0.000000
# 6 0.000000 0.000000 0.000000 0.006115 0.000000 0.030488
#
#
# Mechanical properties :
#
#
# Convention : Reuss Voigt Hill
#
# Bulk Modulus (GPa) = 38.28096 50.99080 44.63588
# Shear Modulus (GPa) = 32.37273 37.13749 34.75511
#
# Velocity S-wave (km/s) = 3.80285 4.07310 3.94029
# Velocity P-wave (km/s) = 6.03184 6.70067 6.37503
#
# Compressibility (1/GPa) = 0.02612265
#
# Stress axis : x y z
#
# Youngs Moduli (GPa) = 96.17224 90.30328 83.04865
#
# Poissons Ratio (x) = 0.31557 0.04487
# Poissons Ratio (y) = 0.33608 -0.02821
# Poissons Ratio (z) = 0.05196 -0.03068
#
# Static dielectric constant tensor:
#      x y z
#    x 1.835550 0.000000 -0.020870 
#    y 0.000000 1.899640 0.000000 
#    z -0.020870 0.000000 1.861220 
# 
# From -- ./inp_files/263610.got.cif
#   From: 2010.05.17/outbox.cif.g08.bks.cpg/sg15_132_cif.got.tgz:263610.got - 2010.06.03 18:47:42.
