data_PCOD9304260
_publ_section_title
;
Structure prediction by ZEFSAII (Michael W. Deem and Ramdas Pophale) SiO2 
 PCOD9304260
Probable space group: C 2/C
;
_chemical_formula_sum "Si O2"
_cell_formula_units_Z 36
_cell_length_a 14.025953
_cell_length_b 7.279288
_cell_length_c 21.904238
_cell_angle_alpha 90.000000
_cell_angle_beta 141.051080
_cell_angle_gamma 90.000000
_cell_volume 1405.861934
_symmetry_space_group_name_H-M "C 2/C"
_symmetry_group_IT_number 15
_symmetry_cell_setting 'monoclinic'
loop_
_space_group_symop_operation_xyz
x,y,z
-x,y,1/2-z
-x,-y,-z
x,-y,1/2+z
1/2+x,1/2+y,z
1/2-x,1/2+y,1/2-z
1/2-x,1/2-y,-z
1/2+x,1/2-y,1/2+z
loop_
_atom_site_type_symbol
_atom_site_label
_atom_site_fract_x
_atom_site_fract_y
_atom_site_fract_z
Si Si1 0.500000 0.503588 0.750000
Si Si2 0.647904 0.834689 0.351504
Si Si3 0.196937 0.691837 0.645292
Si Si4 0.843198 0.697690 0.334881
Si Si5 0.852211 0.127028 0.506784
O O1 0.429087 0.356932 0.665996
O O2 0.359310 0.619137 0.702129
O O3 0.500000 0.942052 0.250000
O O4 0.751951 0.777796 0.346419
O O5 0.755446 0.941706 0.450689
O O6 0.106896 0.509451 0.622123
O O7 0.233030 0.813594 0.721935
O O8 0.131821 0.798449 0.555302
O O9 0.978814 0.835183 0.386287
O O10 0.750000 0.250000 0.500000
#
# Coordination Sequence:
#
# PCOD9304260 Si02
#       5
#     4   8   8   8   8
#     4   8  20  40  66  90 124 174 208 262 322 392
#     4   9  22  44  64  90 129 174 220 260 330 381
#     4  11  23  43  67  97 133 169 217 266 338 383
#     4  11  24  43  69  96 132 175 214 276 324 393
#     4  12  26  39  68 100 131 170 224 271 323 392
#
# _framework density 25.607066
#
# number of rings (size 3 to 8) (size 9 to 14) (size 15 to 20)
#    0.667    0.889    0.000    4.000    7.778    0.000 
#    0.000   10.000    0.000    0.000    0.000    0.000 
#    0.000    0.000    0.000    0.000    0.000    0.000 
#
# Total GULP energy -100640.266599 kJ/mol
# GULP energy per Si atom -5591.125922 kJ/mol
# Density = 2.554878 g / cm^3
# Si number density = 25.607066 Si / 1000 Ang^3
#
#
#
# Elastic Constant Matrix: (Units=GPa)
#
#
# Indices 1 2 3 4 5 6 
#
# 1 57.2547 -1.4331 -2.2872 0.0000 20.6822 0.0000
# 2 -1.4331 69.8893 7.9339 0.0000 0.2172 0.0000
# 3 -2.2872 7.9339 94.1091 0.0000 -11.3502 0.0000
# 4 0.0000 0.0000 0.0000 41.6755 0.0000 2.8128
# 5 20.6822 0.2172 -11.3502 0.0000 52.5800 0.0000
# 6 0.0000 0.0000 0.0000 2.8128 0.0000 32.1339
#
#
#
# Elastic Compliance Matrix: (Units=1/GPa)
#
#
# Indices 1 2 3 4 5 6 
#
# 1 0.020398 0.000504 -0.000528 0.000000 -0.008139 0.000000
# 2 0.000504 0.014465 -0.001271 0.000000 -0.000532 0.000000
# 3 -0.000528 -0.001271 0.011033 0.000000 0.002595 0.000000
# 4 0.000000 0.000000 0.000000 0.024138 0.000000 -0.002113
# 5 -0.008139 -0.000532 0.002595 0.000000 0.022783 0.000000
# 6 0.000000 0.000000 0.000000 -0.002113 0.000000 0.031305
#
#
# Mechanical properties :
#
#
# Convention : Reuss Voigt Hill
#
# Bulk Modulus (GPa) = 23.09312 25.52002 24.30657
# Shear Modulus (GPa) = 35.42405 39.74719 37.58562
#
# Velocity S-wave (km/s) = 3.72340 3.94407 3.83532
# Velocity P-wave (km/s) = 5.24622 5.54333 5.39682
#
# Compressibility (1/GPa) = 0.04330293
#
# Stress axis : x y z
#
# Youngs Moduli (GPa) = 49.02558 69.13403 90.63512
#
# Poissons Ratio (x) = -0.03481 0.04789
# Poissons Ratio (y) = -0.02469 0.11523
# Poissons Ratio (z) = 0.02590 0.08790
#
# Static dielectric constant tensor:
#      x y z
#    x 1.960340 0.000000 -0.003800 
#    y 0.000000 2.110690 0.000000 
#    z -0.003800 0.000000 2.075930 
# 
# From -- ./inp_files/102895.got.cif
#   From: 2010.05.17/outbox.cif.g08.bks.cpg/sg15_52_cif.got.tgz:102895.got - 2010.06.03 18:47:42.
