data_PCOD9304736
_publ_section_title
;
Structure prediction by ZEFSAII (Michael W. Deem and Ramdas Pophale) SiO2 
 PCOD9304736
Probable space group: C 2/C
;
_chemical_formula_sum "Si O2"
_cell_formula_units_Z 56
_cell_length_a 7.385139
_cell_length_b 12.548981
_cell_length_c 29.156533
_cell_angle_alpha 90.000000
_cell_angle_beta 68.497895
_cell_angle_gamma 90.000000
_cell_volume 2514.054181
_symmetry_space_group_name_H-M "C 2/C"
_symmetry_group_IT_number 15
_symmetry_cell_setting 'monoclinic'
loop_
_space_group_symop_operation_xyz
x,y,z
-x,y,1/2-z
-x,-y,-z
x,-y,1/2+z
1/2+x,1/2+y,z
1/2-x,1/2+y,1/2-z
1/2-x,1/2-y,-z
1/2+x,1/2-y,1/2+z
loop_
_atom_site_type_symbol
_atom_site_label
_atom_site_fract_x
_atom_site_fract_y
_atom_site_fract_z
Si Si1 0.188633 0.938331 0.149011
Si Si2 0.549468 0.964697 0.943949
Si Si3 0.339967 0.294043 0.944938
Si Si4 0.781562 0.068798 0.103781
Si Si5 0.415223 0.866702 0.359024
Si Si6 0.533876 0.786699 0.691803
Si Si7 0.120926 0.155659 0.193600
O O1 0.293512 0.950205 0.090245
O O2 0.087505 0.051379 0.166274
O O3 0.381169 0.929136 0.163605
O O4 0.065639 0.835278 0.173003
O O5 0.665641 0.853980 0.935226
O O6 0.369364 0.945447 0.925573
O O7 0.500000 0.000000 0.000000
O O8 0.517765 0.378707 0.932521
O O9 0.404678 0.194310 0.908520
O O10 0.250000 0.250000 0.000000
O O11 0.706479 0.146966 0.151360
O O12 0.764280 0.949190 0.126371
O O13 0.426503 0.769778 0.323070
O O14 0.500000 0.792837 0.750000
O O15 0.345061 0.834936 0.685723
O O16 0.000000 0.138973 0.250000
#
# Coordination Sequence:
#
# PCOD9304736 Si02
#       7
#     8   8   8   8   8   8   8
#     4  11  23  48  69 102 146 183 241 307 357 431
#     4  11  25  47  73 108 148 193 244 306 369 437
#     4  12  25  45  74 106 145 192 247 304 363 442
#     4  11  26  48  74 106 149 193 247 306 370 448
#     4  11  23  46  69 103 142 183 246 300 359 444
#     4  12  25  46  71 102 142 194 239 304 375 432
#     4  12  26  44  71 104 140 190 245 296 372 436
#
# _framework density 22.274778000000001
#
# number of rings (size 3 to 8) (size 9 to 14) (size 15 to 20)
#    0.000    0.571    5.714    3.000    2.000    3.429 
#    2.571    0.000    0.000    0.000    0.000    0.000 
#    0.000    0.000    0.000    0.000    0.000    0.000 
#
# Total GULP energy -156394.545389 kJ/mol
# GULP energy per Si atom -5585.519478 kJ/mol
# Density = 2.222408 g / cm^3
# Si number density = 22.274778 Si / 1000 Ang^3
#
#
#
# Elastic Constant Matrix: (Units=GPa)
#
#
# Indices 1 2 3 4 5 6 
#
# 1 69.5144 22.5158 9.8681 0.0000 -8.1849 0.0000
# 2 22.5158 129.4866 25.5659 0.0000 -4.9709 0.0000
# 3 9.8681 25.5659 133.4485 0.0000 -1.9812 0.0000
# 4 0.0000 0.0000 0.0000 89.9178 0.0000 -24.4867
# 5 -8.1849 -4.9709 -1.9812 0.0000 30.8773 0.0000
# 6 0.0000 0.0000 0.0000 -24.4867 0.0000 56.4384
#
#
#
# Elastic Compliance Matrix: (Units=1/GPa)
#
#
# Indices 1 2 3 4 5 6 
#
# 1 0.015713 -0.002464 -0.000635 0.000000 0.003728 0.000000
# 2 -0.002464 0.008457 -0.001429 0.000000 0.000617 0.000000
# 3 -0.000635 -0.001429 0.007816 0.000000 0.000103 0.000000
# 4 0.000000 0.000000 0.000000 0.012611 0.000000 0.005472
# 5 0.003728 0.000617 0.000103 0.000000 0.033480 0.000000
# 6 0.000000 0.000000 0.000000 0.005472 0.000000 0.020092
#
#
# Mechanical properties :
#
#
# Convention : Reuss Voigt Hill
#
# Bulk Modulus (GPa) = 43.60922 49.81656 46.71289
# Shear Modulus (GPa) = 43.52853 53.74668 48.63761
#
# Velocity S-wave (km/s) = 4.42539 4.91745 4.67789
# Velocity P-wave (km/s) = 6.76257 7.39289 7.08475
#
# Compressibility (1/GPa) = 0.02293093
#
# Stress axis : x y z
#
# Youngs Moduli (GPa) = 63.64346 118.24505 127.94726
#
# Poissons Ratio (x) = 0.29133 0.08119
# Poissons Ratio (y) = 0.15680 0.18282
# Poissons Ratio (z) = 0.04038 0.16895
#
# Static dielectric constant tensor:
#      x y z
#    x 1.883360 0.000000 -0.000640 
#    y 0.000000 1.830990 0.000000 
#    z -0.000640 0.000000 1.840890 
# 
# From -- ./inp_files/307406.got.cif
#   From: 2010.05.17/outbox.cif.g08.bks.cpg/sg15_154_cif.got.tgz:307406.got - 2010.06.03 18:47:42.
