data_PCOD9304785
_publ_section_title
;
Structure prediction by ZEFSAII (Michael W. Deem and Ramdas Pophale) SiO2 
 PCOD9304785
Probable space group: C 2/C
;
_chemical_formula_sum "Si O2"
_cell_formula_units_Z 40
_cell_length_a 22.297975
_cell_length_b 6.204090
_cell_length_c 19.873480
_cell_angle_alpha 90.000000
_cell_angle_beta 40.852843
_cell_angle_gamma 90.000000
_cell_volume 1798.348519
_symmetry_space_group_name_H-M "C 2/C"
_symmetry_group_IT_number 15
_symmetry_cell_setting 'monoclinic'
loop_
_space_group_symop_operation_xyz
x,y,z
-x,y,1/2-z
-x,-y,-z
x,-y,1/2+z
1/2+x,1/2+y,z
1/2-x,1/2+y,1/2-z
1/2-x,1/2-y,-z
1/2+x,1/2-y,1/2+z
loop_
_atom_site_type_symbol
_atom_site_label
_atom_site_fract_x
_atom_site_fract_y
_atom_site_fract_z
Si Si1 0.953022 0.400404 0.474739
Si Si2 0.804111 0.085056 0.654927
Si Si3 0.851823 0.236995 0.997069
Si Si4 0.192950 0.053647 0.081311
Si Si5 0.873500 0.835315 0.718329
O O1 0.858937 0.286492 0.576945
O O2 0.932543 0.593638 0.440884
O O3 0.000000 0.500000 0.500000
O O4 0.023407 0.225953 0.386865
O O5 0.697243 0.143077 0.741674
O O6 0.829043 0.884527 0.585874
O O7 0.839625 0.030444 0.699292
O O8 0.765199 0.379183 0.047921
O O9 0.865407 0.060368 0.927589
O O10 0.137496 0.127816 0.193367
O O11 0.250000 0.250000 0.000000
#
# Coordination Sequence:
#
# PCOD9304785 Si02
#       5
#     8   8   8   8   8
#     4  12  25  45  71 111 146 183 249 309 357 433
#     4  12  24  48  71 106 144 183 250 301 366 436
#     4  11  23  46  74  98 148 189 234 316 352 423
#     4  11  23  47  73 100 145 194 240 292 368 443
#     4  12  24  42  78 103 144 197 239 301 376 433
#
# _framework density 22.242628
#
# number of rings (size 3 to 8) (size 9 to 14) (size 15 to 20)
#    0.000    0.400    6.000    3.000    0.000    0.000 
#    0.000    6.000    0.000    0.000    0.000    0.000 
#    0.000    0.000    0.000    0.000    0.000    0.000 
#
# Total GULP energy -112005.724559 kJ/mol
# GULP energy per Si atom -5600.286228 kJ/mol
# Density = 2.219200 g / cm^3
# Si number density = 22.242628 Si / 1000 Ang^3
#
#
#
# Elastic Constant Matrix: (Units=GPa)
#
#
# Indices 1 2 3 4 5 6 
#
# 1 84.1859 22.3782 30.2688 -0.0035 14.2053 0.0045
# 2 22.3782 74.8456 14.3840 -0.0101 13.4478 0.0152
# 3 30.2688 14.3840 81.9294 -0.0039 26.6306 0.0053
# 4 -0.0035 -0.0101 -0.0039 23.1152 0.0027 6.0309
# 5 14.2053 13.4478 26.6306 0.0027 42.0615 -0.0027
# 6 0.0045 0.0152 0.0053 6.0309 -0.0027 67.2535
#
#
#
# Elastic Compliance Matrix: (Units=1/GPa)
#
#
# Indices 1 2 3 4 5 6 
#
# 1 0.014532 -0.003304 -0.004453 0.000000 -0.001032 0.000000
# 2 -0.003304 0.015033 -0.000276 0.000007 -0.003516 -0.000004
# 3 -0.004453 -0.000276 0.016849 0.000004 -0.009076 -0.000002
# 4 0.000000 0.000007 0.000004 0.044298 -0.000008 -0.003972
# 5 -0.001032 -0.003516 -0.009076 -0.000008 0.030994 0.000004
# 6 0.000000 -0.000004 -0.000002 -0.003972 0.000004 0.015225
#
#
# Mechanical properties :
#
#
# Convention : Reuss Voigt Hill
#
# Bulk Modulus (GPa) = 32.95030 41.66922 37.30976
# Shear Modulus (GPa) = 30.65341 38.08135 34.36738
#
# Velocity S-wave (km/s) = 3.71636 4.14223 3.93506
# Velocity P-wave (km/s) = 5.76726 6.45384 6.12018
#
# Compressibility (1/GPa) = 0.03034873
#
# Stress axis : x y z
#
# Youngs Moduli (GPa) = 68.81366 66.51861 59.34937
#
# Poissons Ratio (x) = 0.21976 0.26431
# Poissons Ratio (y) = 0.22734 0.01638
# Poissons Ratio (z) = 0.30645 0.01836
#
# Static dielectric constant tensor:
#      x y z
#    x 1.798120 0.000000 0.015700 
#    y 0.000000 1.844520 0.000000 
#    z 0.015700 0.000000 1.777680 
# 
# From -- ./inp_files/223742.got.cif
#   From: 2010.05.17/outbox.cif.g08.bks.cpg/sg15_112_cif.got.tgz:223742.got - 2010.06.03 18:47:42.
