data_PCOD9304053
_publ_section_title
;
Structure prediction by ZEFSAII (Michael W. Deem and Ramdas Pophale) SiO2 
 PCOD9304053
Probable space group: C 2/C
;
_chemical_formula_sum "Si O2"
_cell_formula_units_Z 56
_cell_length_a 29.391235
_cell_length_b 9.927392
_cell_length_c 9.180257
_cell_angle_alpha 90.000000
_cell_angle_beta 121.142764
_cell_angle_gamma 90.000000
_cell_volume 2292.563604
_symmetry_space_group_name_H-M "C 2/C"
_symmetry_group_IT_number 15
_symmetry_cell_setting 'monoclinic'
loop_
_space_group_symop_operation_xyz
x,y,z
-x,y,1/2-z
-x,-y,-z
x,-y,1/2+z
1/2+x,1/2+y,z
1/2-x,1/2+y,1/2-z
1/2-x,1/2-y,-z
1/2+x,1/2-y,1/2+z
loop_
_atom_site_type_symbol
_atom_site_label
_atom_site_fract_x
_atom_site_fract_y
_atom_site_fract_z
Si Si1 0.858063 0.234746 0.988653
Si Si2 0.471253 0.608114 0.354786
Si Si3 0.377908 0.593645 0.727265
Si Si4 0.776015 0.938210 0.518415
Si Si5 0.563255 0.119389 0.655829
Si Si6 0.400304 0.127429 0.117906
Si Si7 0.701587 0.014454 0.150531
O O1 0.877632 0.130595 0.898720
O O2 0.812947 0.180851 0.022410
O O3 0.830847 0.355191 0.852744
O O4 0.901177 0.307518 0.160532
O O5 0.500000 0.602160 0.250000
O O6 0.500000 0.500000 0.500000
O O7 0.411857 0.542469 0.256024
O O8 0.479910 0.761108 0.424552
O O9 0.317047 0.563892 0.580313
O O10 0.400738 0.719646 0.674942
O O11 0.752016 0.939190 0.638853
O O12 0.726117 0.940913 0.328359
O O13 0.584570 0.113160 0.527220
O O14 0.561896 0.969441 0.720652
O O15 0.339341 0.072603 0.014006
#
# Coordination Sequence:
#
# PCOD9304053 Si02
#       7
#     8   8   8   8   8   8   8
#     4  11  23  42  64  95 146 188 244 285 345 409
#     4  12  27  49  78 109 137 175 234 301 367 445
#     4  12  26  45  71 104 142 192 233 297 370 418
#     4  12  24  38  62  98 143 190 243 290 342 406
#     4  11  24  48  74 103 141 187 231 293 362 422
#     4  11  25  45  73 101 147 191 237 283 354 427
#     4  11  24  39  61  99 139 197 243 290 326 407
#
# _framework density 24.426801999999999
#
# number of rings (size 3 to 8) (size 9 to 14) (size 15 to 20)
#    0.000    0.571    2.857    6.429    6.000    1.143 
#    0.000    3.571    0.000    0.000    0.000    0.000 
#    0.000    0.000    0.000    0.000    0.000    0.000 
#
# Total GULP energy -156506.604088 kJ/mol
# GULP energy per Si atom -5589.521575 kJ/mol
# Density = 2.437121 g / cm^3
# Si number density = 24.426802 Si / 1000 Ang^3
#
#
#
# Elastic Constant Matrix: (Units=GPa)
#
#
# Indices 1 2 3 4 5 6 
#
# 1 81.1142 21.1771 23.4601 0.0000 -24.2046 0.0000
# 2 21.1771 128.5083 23.0194 0.0000 1.9759 0.0000
# 3 23.4601 23.0194 72.5891 0.0000 -12.8525 0.0000
# 4 0.0000 0.0000 0.0000 29.8609 0.0000 -8.7029
# 5 -24.2046 1.9759 -12.8525 0.0000 40.5398 0.0000
# 6 0.0000 0.0000 0.0000 -8.7029 0.0000 34.2733
#
#
#
# Elastic Compliance Matrix: (Units=1/GPa)
#
#
# Indices 1 2 3 4 5 6 
#
# 1 0.016489 -0.002318 -0.002999 0.000000 0.009007 0.000000
# 2 -0.002318 0.008642 -0.002448 0.000000 -0.002582 0.000000
# 3 -0.002999 -0.002448 0.016131 0.000000 0.003443 0.000000
# 4 0.000000 0.000000 0.000000 0.036165 0.000000 0.009183
# 5 0.009007 -0.002582 0.003443 0.000000 0.031262 0.000000
# 6 0.000000 0.000000 0.000000 0.009183 0.000000 0.031509
#
#
# Mechanical properties :
#
#
# Convention : Reuss Voigt Hill
#
# Bulk Modulus (GPa) = 38.86451 46.39165 42.62808
# Shear Modulus (GPa) = 30.43090 35.23846 32.83468
#
# Velocity S-wave (km/s) = 3.53342 3.80230 3.67032
# Velocity P-wave (km/s) = 5.70893 6.18950 5.95407
#
# Compressibility (1/GPa) = 0.02573042
#
# Stress axis : x y z
#
# Youngs Moduli (GPa) = 60.64787 115.71502 61.99076
#
# Poissons Ratio (x) = 0.26828 0.18591
# Poissons Ratio (y) = 0.14061 0.15177
# Poissons Ratio (z) = 0.18188 0.28331
#
# Static dielectric constant tensor:
#      x y z
#    x 1.963610 0.000000 0.151410 
#    y 0.000000 1.971080 0.000000 
#    z 0.151410 0.000000 1.979850 
# 
# From -- ./inp_files/69432.got.cif
#   From: 2010.05.17/outbox.cif.g08.bks.cpg/sg15_35_cif.got.tgz:69432.got - 2010.06.03 18:47:42.
