data_PCOD9304873
_publ_section_title
;
Structure prediction by ZEFSAII (Michael W. Deem and Ramdas Pophale) SiO2 
 PCOD9304873
Probable space group: C 2/C
;
_chemical_formula_sum "Si O2"
_cell_formula_units_Z 32
_cell_length_a 13.640552
_cell_length_b 8.935496
_cell_length_c 12.564502
_cell_angle_alpha 90.000000
_cell_angle_beta 59.948658
_cell_angle_gamma 90.000000
_cell_volume 1325.566757
_symmetry_space_group_name_H-M "C 2/C"
_symmetry_group_IT_number 15
_symmetry_cell_setting 'monoclinic'
loop_
_space_group_symop_operation_xyz
x,y,z
-x,y,1/2-z
-x,-y,-z
x,-y,1/2+z
1/2+x,1/2+y,z
1/2-x,1/2+y,1/2-z
1/2-x,1/2-y,-z
1/2+x,1/2-y,1/2+z
loop_
_atom_site_type_symbol
_atom_site_label
_atom_site_fract_x
_atom_site_fract_y
_atom_site_fract_z
Si Si1 0.883735 0.229078 0.952332
Si Si2 0.761274 0.176840 0.375217
Si Si3 0.000000 0.023529 0.250000
Si Si4 0.167139 0.620448 0.821321
Si Si5 0.500000 0.024927 0.250000
O O1 0.938931 0.369129 0.865714
O O2 0.947734 0.085498 0.870211
O O3 0.750000 0.250000 0.000000
O O4 0.891412 0.255576 0.073175
O O5 0.750000 0.250000 0.500000
O O6 0.731294 0.297694 0.298522
O O7 0.891099 0.125340 0.287326
O O8 0.696217 0.022800 0.379729
O O9 0.089070 0.565992 0.768960
#
# Coordination Sequence:
#
# PCOD9304873 Si02
#       5
#     8   8   4   8   4
#     4  11  23  47  78 111 158 206 271 334 401 477
#     4  12  29  51  80 120 164 206 275 336 400 486
#     4  11  27  50  80 118 158 214 272 332 416 468
#     4  12  26  48  79 115 164 212 266 332 402 484
#     4  11  25  44  72 118 152 216 258 320 408 474
#
# _framework density 24.140618
#
# number of rings (size 3 to 8) (size 9 to 14) (size 15 to 20)
#    0.000    0.500    2.500    4.500    7.000    3.000 
#    0.000    0.000    0.000    0.000    0.000    0.000 
#    0.000    0.000    0.000    0.000    0.000    0.000 
#
# Total GULP energy -89410.910199 kJ/mol
# GULP energy per Si atom -5588.181887 kJ/mol
# Density = 2.408567 g / cm^3
# Si number density = 24.140618 Si / 1000 Ang^3
#
#
#
# Elastic Constant Matrix: (Units=GPa)
#
#
# Indices 1 2 3 4 5 6 
#
# 1 39.1700 21.1425 2.3237 0.0000 -6.8225 0.0000
# 2 21.1425 151.5435 80.8278 0.0000 8.1624 0.0000
# 3 2.3237 80.8278 193.4978 0.0000 18.2753 0.0000
# 4 0.0000 0.0000 0.0000 355.3015 0.0000 113.6582
# 5 -6.8225 8.1624 18.2753 0.0000 39.0949 0.0000
# 6 0.0000 0.0000 0.0000 113.6582 0.0000 81.5892
#
#
#
# Elastic Compliance Matrix: (Units=1/GPa)
#
#
# Indices 1 2 3 4 5 6 
#
# 1 0.029133 -0.005014 0.001220 0.000000 0.005561 0.000000
# 2 -0.005014 0.009354 -0.003745 0.000000 -0.001077 0.000000
# 3 0.001220 -0.003745 0.006930 0.000000 -0.002245 0.000000
# 4 0.000000 0.000000 0.000000 0.005077 0.000000 -0.007072
# 5 0.005561 -0.001077 -0.002245 0.000000 0.027823 0.000000
# 6 0.000000 0.000000 0.000000 -0.007072 0.000000 0.022109
#
#
# Mechanical properties :
#
#
# Convention : Reuss Voigt Hill
#
# Bulk Modulus (GPa) = 32.96413 65.86658 49.41536
# Shear Modulus (GPa) = 39.80321 113.85829 76.83075
#
# Velocity S-wave (km/s) = 4.06496 6.87510 5.64760
# Velocity P-wave (km/s) = 5.97633 9.50613 7.93987
#
# Compressibility (1/GPa) = 0.03033600
#
# Stress axis : x y z
#
# Youngs Moduli (GPa) = 34.32587 106.90584 144.30228
#
# Poissons Ratio (x) = 0.53607 -0.17599
# Poissons Ratio (y) = 0.17212 0.54047
# Poissons Ratio (z) = -0.04186 0.40041
#
# Static dielectric constant tensor:
#      x y z
#    x 2.078250 0.000000 -0.095680 
#    y 0.000000 1.966120 0.000000 
#    z -0.095680 0.000000 2.054310 
# 
# From -- ./inp_files/93457.got.cif
#   From: 2010.05.17/outbox.cif.g08.bks.cpg/sg15_47_cif.got.tgz:93457.got - 2010.06.03 18:47:42.
