data_PCOD9304704
_publ_section_title
;
Structure prediction by ZEFSAII (Michael W. Deem and Ramdas Pophale) SiO2 
 PCOD9304704
Probable space group: C 2/C
;
_chemical_formula_sum "Si O2"
_cell_formula_units_Z 44
_cell_length_a 9.945078
_cell_length_b 21.693483
_cell_length_c 10.533938
_cell_angle_alpha 90.000000
_cell_angle_beta 114.394685
_cell_angle_gamma 90.000000
_cell_volume 2069.731716
_symmetry_space_group_name_H-M "C 2/C"
_symmetry_group_IT_number 15
_symmetry_cell_setting 'monoclinic'
loop_
_space_group_symop_operation_xyz
x,y,z
-x,y,1/2-z
-x,-y,-z
x,-y,1/2+z
1/2+x,1/2+y,z
1/2-x,1/2+y,1/2-z
1/2-x,1/2-y,-z
1/2+x,1/2-y,1/2+z
loop_
_atom_site_type_symbol
_atom_site_label
_atom_site_fract_x
_atom_site_fract_y
_atom_site_fract_z
Si Si1 0.305359 0.706202 0.794957
Si Si2 0.894128 0.442817 0.987448
Si Si3 0.092391 0.007760 0.908433
Si Si4 0.344975 0.841282 0.760920
Si Si5 0.880002 0.848844 0.056355
Si Si6 0.500000 0.855523 0.250000
O O1 0.322693 0.778394 0.829977
O O2 0.450219 0.670402 0.901878
O O3 0.317884 0.693334 0.647221
O O4 0.149353 0.682582 0.784334
O O5 0.742383 0.470183 0.981064
O O6 0.854817 0.402010 0.849623
O O7 0.000000 0.500000 0.000000
O O8 0.972826 0.398565 0.118165
O O9 0.126671 0.080163 0.902322
O O10 0.000000 0.986209 0.750000
O O11 0.000000 0.000000 0.000000
O O12 0.500000 0.835003 0.750000
O O13 0.216657 0.843923 0.606819
#
# Coordination Sequence:
#
# PCOD9304704 Si02
#       6
#     8   8   8   8   8   4
#     4  11  24  46  74 107 144 196 238 303 371 434
#     4  12  30  46  74 106 145 195 242 304 373 440
#     4  12  25  46  73 106 146 193 250 305 370 440
#     4  12  25  46  77 110 144 191 247 300 365 455
#     4  11  23  45  77 103 143 189 247 295 364 446
#     4  12  28  48  68 102 156 182 244 312 368 430
#
# _framework density 21.258794000000002
#
# number of rings (size 3 to 8) (size 9 to 14) (size 15 to 20)
#    0.000    0.364    3.636    6.000    8.909    0.727 
#    4.909    0.000    0.000    0.000    0.000    0.000 
#    0.000    0.000    0.000    0.000    0.000    0.000 
#
# Total GULP energy -123223.292774 kJ/mol
# GULP energy per Si atom -5601.058762 kJ/mol
# Density = 2.121041 g / cm^3
# Si number density = 21.258794 Si / 1000 Ang^3
#
#
#
# Elastic Constant Matrix: (Units=GPa)
#
#
# Indices 1 2 3 4 5 6 
#
# 1 182.5355 62.5797 45.9134 0.0000 15.3041 0.0000
# 2 62.5797 124.1027 22.8765 0.0000 8.9514 0.0000
# 3 45.9134 22.8765 120.7686 0.0000 22.4264 0.0000
# 4 0.0000 0.0000 0.0000 46.5735 0.0000 37.4705
# 5 15.3041 8.9514 22.4264 0.0000 31.5624 0.0000
# 6 0.0000 0.0000 0.0000 37.4705 0.0000 43.5333
#
#
#
# Elastic Compliance Matrix: (Units=1/GPa)
#
#
# Indices 1 2 3 4 5 6 
#
# 1 0.007141 -0.003164 -0.001888 0.000000 -0.001223 0.000000
# 2 -0.003164 0.009808 -0.000488 0.000000 -0.000901 0.000000
# 3 -0.001888 -0.000488 0.010247 0.000000 -0.006227 0.000000
# 4 0.000000 0.000000 0.000000 0.069825 0.000000 -0.060101
# 5 -0.001223 -0.000901 -0.006227 0.000000 0.036957 0.000000
# 6 0.000000 0.000000 0.000000 -0.060101 0.000000 0.074702
#
#
# Mechanical properties :
#
#
# Convention : Reuss Voigt Hill
#
# Bulk Modulus (GPa) = 62.05184 76.68288 69.36736
# Shear Modulus (GPa) = 22.20921 44.06965 33.13943
#
# Velocity S-wave (km/s) = 3.23570 4.55797 3.95252
# Velocity P-wave (km/s) = 6.57357 7.99059 7.31647
#
# Compressibility (1/GPa) = 0.01611556
#
# Stress axis : x y z
#
# Youngs Moduli (GPa) = 140.04051 101.95319 97.59118
#
# Poissons Ratio (x) = 0.32263 0.18427
# Poissons Ratio (y) = 0.44316 0.04758
# Poissons Ratio (z) = 0.26442 0.04971
#
# Static dielectric constant tensor:
#      x y z
#    x 1.666620 0.000000 0.005500 
#    y 0.000000 1.775570 0.000000 
#    z 0.005500 0.000000 1.774760 
# 
# From -- ./inp_files/78377.got.cif
#   From: 2010.05.17/outbox.cif.g08.bks.cpg/sg15_40_cif.got.tgz:78377.got - 2010.06.03 18:47:42.
