data_PCOD9304902
_publ_section_title
;
Structure prediction by ZEFSAII (Michael W. Deem and Ramdas Pophale) SiO2 
 PCOD9304902
Probable space group: C 2/C
;
_chemical_formula_sum "Si O2"
_cell_formula_units_Z 40
_cell_length_a 30.537865
_cell_length_b 7.632191
_cell_length_c 15.634410
_cell_angle_alpha 90.000000
_cell_angle_beta 27.443868
_cell_angle_gamma 90.000000
_cell_volume 1679.409837
_symmetry_space_group_name_H-M "C 2/C"
_symmetry_group_IT_number 15
_symmetry_cell_setting 'monoclinic'
loop_
_space_group_symop_operation_xyz
x,y,z
-x,y,1/2-z
-x,-y,-z
x,-y,1/2+z
1/2+x,1/2+y,z
1/2-x,1/2+y,1/2-z
1/2-x,1/2-y,-z
1/2+x,1/2-y,1/2+z
loop_
_atom_site_type_symbol
_atom_site_label
_atom_site_fract_x
_atom_site_fract_y
_atom_site_fract_z
Si Si1 0.594343 0.606188 0.640216
Si Si2 0.960133 0.190799 0.577112
Si Si3 0.701156 0.844407 0.754461
Si Si4 0.841290 0.629919 0.815928
Si Si5 0.894515 0.679406 0.902497
O O1 0.500000 0.642194 0.750000
O O2 0.583780 0.686817 0.752646
O O3 0.687507 0.692336 0.438416
O O4 0.605423 0.390632 0.620147
O O5 0.877922 0.216319 0.649195
O O6 0.055150 0.304257 0.397110
O O7 0.000000 0.000000 0.500000
O O8 0.691495 0.002436 0.702551
O O9 0.672628 0.864598 0.902015
O O10 0.868500 0.569577 0.863966
O O11 0.750000 0.750000 0.000000
O O12 0.000000 0.638496 0.750000
#
# Coordination Sequence:
#
# PCOD9304902 Si02
#       5
#     8   8   8   8   8
#     4  11  25  46  69 110 142 199 253 307 376 455
#     4  12  23  47  76 106 150 193 247 312 385 456
#     4  12  26  48  76 110 149 204 251 314 389 459
#     4  12  25  48  74 113 150 196 255 319 382 457
#     4  11  23  48  74  99 156 198 247 317 383 449
#
# _framework density 23.817890999999999
#
# number of rings (size 3 to 8) (size 9 to 14) (size 15 to 20)
#    0.000    0.400    6.000    2.400    2.800    0.000 
#   10.800    0.000    0.000    0.000    0.000    0.000 
#    0.000    0.000    0.000    0.000    0.000    0.000 
#
# Total GULP energy -111736.513385 kJ/mol
# GULP energy per Si atom -5586.825669 kJ/mol
# Density = 2.376368 g / cm^3
# Si number density = 23.817891 Si / 1000 Ang^3
#
#
#
# Elastic Constant Matrix: (Units=GPa)
#
#
# Indices 1 2 3 4 5 6 
#
# 1 121.1708 26.8073 63.8507 0.0000 13.0443 0.0000
# 2 26.8073 73.0168 34.0338 0.0000 3.3683 0.0000
# 3 63.8507 34.0338 224.2282 0.0000 14.7682 0.0000
# 4 0.0000 0.0000 0.0000 27.8526 0.0000 11.4741
# 5 13.0443 3.3683 14.7682 0.0000 75.6916 0.0000
# 6 0.0000 0.0000 0.0000 11.4741 0.0000 13.8724
#
#
#
# Elastic Compliance Matrix: (Units=1/GPa)
#
#
# Indices 1 2 3 4 5 6 
#
# 1 0.010236 -0.002563 -0.002449 0.000000 -0.001172 0.000000
# 2 -0.002563 0.015383 -0.001610 0.000000 0.000071 0.000000
# 3 -0.002449 -0.001610 0.005439 0.000000 -0.000568 0.000000
# 4 0.000000 0.000000 0.000000 0.054460 0.000000 -0.045044
# 5 -0.001172 0.000071 -0.000568 0.000000 0.013521 0.000000
# 6 0.000000 0.000000 0.000000 -0.045044 0.000000 0.109343
#
#
# Mechanical properties :
#
#
# Convention : Reuss Voigt Hill
#
# Bulk Modulus (GPa) = 56.12942 74.19993 65.16467
# Shear Modulus (GPa) = 21.97192 43.06491 32.51842
#
# Velocity S-wave (km/s) = 3.04056 4.25678 3.69900
# Velocity P-wave (km/s) = 5.99532 7.44183 6.75739
#
# Compressibility (1/GPa) = 0.01781597
#
# Stress axis : x y z
#
# Youngs Moduli (GPa) = 97.69150 65.00498 183.86574
#
# Poissons Ratio (x) = 0.16659 0.45023
# Poissons Ratio (y) = 0.25036 0.29600
# Poissons Ratio (z) = 0.23922 0.10465
#
# Static dielectric constant tensor:
#      x y z
#    x 1.785180 0.000000 -0.061250 
#    y 0.000000 1.996040 0.000000 
#    z -0.061250 0.000000 1.661960 
# 
# From -- ./inp_files/150778.got.cif
#   From: 2010.05.17/outbox.cif.g08.bks.cpg/sg15_76_cif.got.tgz:150778.got - 2010.06.03 18:47:42.
