data_PCOD9304312
_publ_section_title
;
Structure prediction by ZEFSAII (Michael W. Deem and Ramdas Pophale) SiO2 
 PCOD9304312
Probable space group: C 2/C
;
_chemical_formula_sum "Si O2"
_cell_formula_units_Z 56
_cell_length_a 13.912645
_cell_length_b 16.249997
_cell_length_c 12.681616
_cell_angle_alpha 90.000000
_cell_angle_beta 116.551233
_cell_angle_gamma 90.000000
_cell_volume 2564.690334
_symmetry_space_group_name_H-M "C 2/C"
_symmetry_group_IT_number 15
_symmetry_cell_setting 'monoclinic'
loop_
_space_group_symop_operation_xyz
x,y,z
-x,y,1/2-z
-x,-y,-z
x,-y,1/2+z
1/2+x,1/2+y,z
1/2-x,1/2+y,1/2-z
1/2-x,1/2-y,-z
1/2+x,1/2-y,1/2+z
loop_
_atom_site_type_symbol
_atom_site_label
_atom_site_fract_x
_atom_site_fract_y
_atom_site_fract_z
Si Si1 0.090339 0.908956 0.447483
Si Si2 0.149186 0.792082 0.892784
Si Si3 0.565652 0.008920 0.875639
Si Si4 0.856490 0.085554 0.762749
Si Si5 0.583046 0.730561 0.125432
Si Si6 0.632290 0.086806 0.598787
Si Si7 0.210961 0.072624 0.557867
O O1 0.130270 0.879499 0.349816
O O2 0.083527 0.837144 0.531864
O O3 0.973404 0.946583 0.356306
O O4 0.162906 0.980750 0.533354
O O5 0.144873 0.788999 0.764738
O O6 0.039394 0.759310 0.892057
O O7 0.250000 0.750000 0.000000
O O8 0.160926 0.887180 0.930239
O O9 0.500000 0.968756 0.750000
O O10 0.475107 0.057654 0.895257
O O11 0.660521 0.068439 0.883755
O O12 0.619411 0.940964 0.973465
O O13 0.740352 0.041242 0.692998
O O14 0.826146 0.127535 0.860298
O O15 0.634088 0.815619 0.110377
#
# Coordination Sequence:
#
# PCOD9304312 Si02
#       7
#     8   8   8   8   8   8   8
#     4  11  26  43  67 104 137 186 229 293 356 419
#     4  11  25  45  70 104 134 190 230 299 355 419
#     4  11  24  44  71 103 137 186 235 286 353 422
#     4  11  23  43  69  93 142 181 226 290 353 408
#     4  11  26  44  69 104 142 177 242 286 359 429
#     4  11  24  46  69 101 140 183 230 293 351 427
#     4  12  23  44  73 101 140 179 241 291 351 427
#
# _framework density 21.834994999999999
#
# number of rings (size 3 to 8) (size 9 to 14) (size 15 to 20)
#    0.000    0.857    4.286    2.143    4.000    1.714 
#    5.143    0.000    0.000    0.000    0.000    0.000 
#    0.000    0.000    0.000    0.000    0.000    0.000 
#
# Total GULP energy -155887.724847 kJ/mol
# GULP energy per Si atom -5567.418745 kJ/mol
# Density = 2.178530 g / cm^3
# Si number density = 21.834995 Si / 1000 Ang^3
#
#
#
# Elastic Constant Matrix: (Units=GPa)
#
#
# Indices 1 2 3 4 5 6 
#
# 1 128.3073 17.4188 45.8913 0.0000 0.6938 0.0000
# 2 17.4188 69.3339 37.7989 0.0000 -8.4692 0.0000
# 3 45.8913 37.7989 156.3379 0.0000 -4.3545 0.0000
# 4 0.0000 0.0000 0.0000 26.2724 0.0000 4.0579
# 5 0.6938 -8.4692 -4.3545 0.0000 52.5237 0.0000
# 6 0.0000 0.0000 0.0000 4.0579 0.0000 13.3306
#
#
#
# Elastic Compliance Matrix: (Units=1/GPa)
#
#
# Indices 1 2 3 4 5 6 
#
# 1 0.008770 -0.000979 -0.002351 0.000000 -0.000469 0.000000
# 2 -0.000979 0.017017 -0.003759 0.000000 0.002445 0.000000
# 3 -0.002351 -0.003759 0.007998 0.000000 0.000088 0.000000
# 4 0.000000 0.000000 0.000000 0.039941 0.000000 -0.012158
# 5 -0.000469 0.002445 0.000088 0.000000 0.019447 0.000000
# 6 0.000000 0.000000 0.000000 -0.012158 0.000000 0.078716
#
#
# Mechanical properties :
#
#
# Convention : Reuss Voigt Hill
#
# Bulk Modulus (GPa) = 51.00095 61.79969 56.40032
# Shear Modulus (GPa) = 25.96043 35.28336 30.62190
#
# Velocity S-wave (km/s) = 3.45184 4.02420 3.74896
# Velocity P-wave (km/s) = 6.26858 7.06801 6.68026
#
# Compressibility (1/GPa) = 0.01960748
#
# Stress axis : x y z
#
# Youngs Moduli (GPa) = 114.02520 58.76559 125.03657
#
# Poissons Ratio (x) = 0.05753 0.29392
# Poissons Ratio (y) = 0.11163 0.46999
# Poissons Ratio (z) = 0.26804 0.22089
#
# Static dielectric constant tensor:
#      x y z
#    x 1.878630 0.000000 -0.024360 
#    y 0.000000 1.815800 0.000000 
#    z -0.024360 0.000000 1.870260 
# 
# From -- ./inp_files/98848.got.cif
#   From: 2010.05.17/outbox.cif.g08.bks.cpg/sg15_50_cif.got.tgz:98848.got - 2010.06.03 18:47:42.
