data_PCOD9304511
_publ_section_title
;
Structure prediction by ZEFSAII (Michael W. Deem and Ramdas Pophale) SiO2 
 PCOD9304511
Probable space group: C 2/C
;
_chemical_formula_sum "Si O2"
_cell_formula_units_Z 56
_cell_length_a 14.589723
_cell_length_b 16.417713
_cell_length_c 19.268273
_cell_angle_alpha 90.000000
_cell_angle_beta 152.258920
_cell_angle_gamma 90.000000
_cell_volume 2148.327451
_symmetry_space_group_name_H-M "C 2/C"
_symmetry_group_IT_number 15
_symmetry_cell_setting 'monoclinic'
loop_
_space_group_symop_operation_xyz
x,y,z
-x,y,1/2-z
-x,-y,-z
x,-y,1/2+z
1/2+x,1/2+y,z
1/2-x,1/2+y,1/2-z
1/2-x,1/2-y,-z
1/2+x,1/2-y,1/2+z
loop_
_atom_site_type_symbol
_atom_site_label
_atom_site_fract_x
_atom_site_fract_y
_atom_site_fract_z
Si Si1 0.000000 0.461671 0.250000
Si Si2 0.818160 0.667890 0.707969
Si Si3 0.655327 0.830348 0.540824
Si Si4 0.750000 0.250000 0.500000
Si Si5 0.103951 0.577117 0.210374
Si Si6 0.052057 0.892481 0.450320
Si Si7 0.167999 0.660622 0.558265
Si Si8 0.805392 0.990299 0.708269
O O1 0.824438 0.404806 0.157348
O O2 0.963568 0.519966 0.160914
O O3 0.781409 0.751444 0.643460
O O4 0.034134 0.667901 0.888409
O O5 0.646889 0.645968 0.648407
O O6 0.473596 0.821799 0.473113
O O7 0.779879 0.911200 0.642957
O O8 0.874047 0.167212 0.559912
O O9 0.706126 0.266747 0.385505
O O10 0.293581 0.593876 0.384029
O O11 0.749276 0.571431 0.871313
O O12 0.161286 0.532749 0.176794
O O13 0.980103 0.657367 0.108731
O O14 0.996353 0.978676 0.377255
#
# Coordination Sequence:
#
# PCOD9304511 Si02
#       8
#     4   8   8   4   8   8   8   8
#     4  12  24  46  70 102 146 182 256 312 358 446
#     4  12  27  47  75 106 149 194 251 313 378 440
#     4  11  25  47  75 106 144 201 247 306 376 445
#     4  12  28  44  72 116 154 188 248 312 392 440
#     4  11  24  43  73 107 139 198 249 304 374 445
#     4  12  26  45  73 111 150 195 246 310 382 458
#     4  11  23  44  71 104 152 192 239 310 369 454
#     4  11  24  47  76 103 151 201 250 297 378 458
#
# _framework density 26.066790000000001
#
# number of rings (size 3 to 8) (size 9 to 14) (size 15 to 20)
#    0.000    0.571    4.286    3.857    4.000    3.429 
#    0.000    1.429    0.000    0.000    0.000    0.000 
#    0.000    0.000    0.000    0.000    0.000    0.000 
#
# Total GULP energy -156268.998289 kJ/mol
# GULP energy per Si atom -5581.035653 kJ/mol
# Density = 2.600746 g / cm^3
# Si number density = 26.066790 Si / 1000 Ang^3
#
#
#
# Elastic Constant Matrix: (Units=GPa)
#
#
# Indices 1 2 3 4 5 6 
#
# 1 100.8879 18.1504 10.0266 0.0030 -1.7269 0.0005
# 2 18.1504 124.5394 55.6062 0.0197 -6.4230 0.0111
# 3 10.0266 55.6062 167.7142 0.0190 -16.8329 0.0125
# 4 0.0030 0.0197 0.0190 37.2980 0.0037 -31.8577
# 5 -1.7269 -6.4230 -16.8329 0.0037 31.8092 0.0018
# 6 0.0005 0.0111 0.0125 -31.8577 0.0018 5.1548
#
#
#
# Elastic Compliance Matrix: (Units=1/GPa)
#
#
# Indices 1 2 3 4 5 6 
#
# 1 0.010183 -0.001421 -0.000117 0.000000 0.000204 -0.000001
# 2 -0.001421 0.009625 -0.003083 0.000003 0.000235 0.000008
# 3 -0.000117 -0.003083 0.007317 0.000003 0.003243 0.000006
# 4 0.000000 0.000003 0.000003 -0.006266 0.000005 -0.038726
# 5 0.000204 0.000235 0.003243 0.000005 0.033212 0.000012
# 6 -0.000001 0.000008 0.000006 -0.038726 0.000012 -0.045339
#
#
# Mechanical properties :
#
#
# Convention : Reuss Voigt Hill
#
# Bulk Modulus (GPa) = 55.91881 62.30088 59.10984
# Shear Modulus (GPa) = 208.89312 35.47628 122.18470
#
# Velocity S-wave (km/s) = 8.96168 3.69314 6.85386
# Velocity P-wave (km/s) = 11.33935 6.49139 9.23902
#
# Compressibility (1/GPa) = 0.01788307
#
# Stress axis : x y z
#
# Youngs Moduli (GPa) = 98.20467 103.89317 136.66572
#
# Poissons Ratio (x) = 0.14766 0.01600
# Poissons Ratio (y) = 0.13957 0.42130
# Poissons Ratio (z) = 0.01150 0.32027
#
# Static dielectric constant tensor:
#      x y z
#    x 1.846800 -0.000010 -0.033990 
#    y -0.000010 1.600480 -0.000010 
#    z -0.033990 -0.000010 2.105330 
# 
# From -- ./inp_files/207025.got.cif
#   From: 2010.05.17/outbox.cif.g08.bks.cpg/sg15_104_cif.got.tgz:207025.got - 2010.06.03 18:47:42.
