data_PCOD9304170
_publ_section_title
;
Structure prediction by ZEFSAII (Michael W. Deem and Ramdas Pophale) SiO2 
 PCOD9304170
Probable space group: C 2/C
;
_chemical_formula_sum "Si O2"
_cell_formula_units_Z 56
_cell_length_a 19.288988
_cell_length_b 17.849491
_cell_length_c 18.559858
_cell_angle_alpha 90.000000
_cell_angle_beta 157.142357
_cell_angle_gamma 90.000000
_cell_volume 2482.201587
_symmetry_space_group_name_H-M "C 2/C"
_symmetry_group_IT_number 15
_symmetry_cell_setting 'monoclinic'
loop_
_space_group_symop_operation_xyz
x,y,z
-x,y,1/2-z
-x,-y,-z
x,-y,1/2+z
1/2+x,1/2+y,z
1/2-x,1/2+y,1/2-z
1/2-x,1/2-y,-z
1/2+x,1/2-y,1/2+z
loop_
_atom_site_type_symbol
_atom_site_label
_atom_site_fract_x
_atom_site_fract_y
_atom_site_fract_z
Si Si1 0.082420 0.079994 0.598726
Si Si2 0.533577 0.911236 0.979959
Si Si3 0.414332 0.805814 0.744399
Si Si4 0.982530 0.862097 0.154196
Si Si5 0.637197 0.070365 0.039635
Si Si6 0.481992 0.655308 0.360353
Si Si7 0.614570 0.183613 0.786341
O O1 0.018074 0.141702 0.479842
O O2 0.039273 0.090815 0.640860
O O3 0.295583 0.087453 0.804335
O O4 0.000000 0.000000 0.500000
O O5 0.512491 0.841464 0.906977
O O6 0.371744 0.916419 0.881864
O O7 0.565286 0.985760 0.962571
O O8 0.500000 0.826358 0.750000
O O9 0.218266 0.838384 0.553786
O O10 0.409112 0.716026 0.741487
O O11 0.000000 0.896896 0.250000
O O12 0.835427 0.091210 0.201690
O O13 0.500798 0.126042 0.870758
O O14 0.389551 0.734550 0.254578
O O15 0.678130 0.656850 0.510413
O O16 0.500000 0.190700 0.750000
#
# Coordination Sequence:
#
# PCOD9304170 Si02
#       7
#     8   8   8   8   8   8   8
#     4  12  25  44  71 104 141 190 246 294 357 443
#     4  11  24  45  68 102 144 185 237 305 363 435
#     4  11  23  42  71 101 141 183 231 297 368 436
#     4  11  24  43  70 108 140 185 239 298 365 428
#     4  11  25  44  70 102 141 186 242 296 367 428
#     4  12  25  44  71 104 141 191 242 304 361 428
#     4  12  27  46  73 106 146 190 248 304 365 436
#
# _framework density 22.560616
#
# number of rings (size 3 to 8) (size 9 to 14) (size 15 to 20)
#    0.000    0.571    4.286    4.714    4.000    1.714 
#    0.000    2.143    0.000    0.000    0.000    0.000 
#    0.000    0.000    0.000    0.000    0.000    0.000 
#
# Total GULP energy -156529.462757 kJ/mol
# GULP energy per Si atom -5590.337956 kJ/mol
# Density = 2.250927 g / cm^3
# Si number density = 22.560616 Si / 1000 Ang^3
#
#
#
# Elastic Constant Matrix: (Units=GPa)
#
#
# Indices 1 2 3 4 5 6 
#
# 1 130.9924 52.6433 30.3758 0.2638 1.2881 -0.2211
# 2 52.6433 53.3657 13.3791 -0.8782 -0.8762 0.7445
# 3 30.3758 13.3791 110.4600 -0.7414 31.4783 0.6200
# 4 0.2638 -0.8782 -0.7414 -750.4441 -0.1072 673.1336
# 5 1.2881 -0.8762 31.4783 -0.1072 37.9293 0.0901
# 6 -0.2211 0.7445 0.6200 673.1336 0.0901 -550.6987
#
#
#
# Elastic Compliance Matrix: (Units=1/GPa)
#
#
# Indices 1 2 3 4 5 6 
#
# 1 0.013157 -0.012327 -0.002510 0.000007 0.001352 -0.000016
# 2 -0.012327 0.031162 -0.000929 -0.000015 0.001909 0.000028
# 3 -0.002510 -0.000929 0.012885 -0.000002 -0.010630 0.000010
# 4 0.000007 -0.000015 -0.000002 0.013823 0.000000 0.016896
# 5 0.001352 0.001909 -0.010630 0.000000 0.035185 -0.000004
# 6 -0.000016 0.000028 0.000010 0.016896 -0.000004 0.018836
#
#
# Mechanical properties :
#
#
# Convention : Reuss Voigt Hill
#
# Bulk Modulus (GPa) = 38.95264 54.17940 46.56602
# Shear Modulus (GPa) = 30.27798 -239.41472 -104.56837
#
# Velocity S-wave (km/s) = 3.66741 -10.31266 -6.81547
# Velocity P-wave (km/s) = 5.93603 10.85054 6.42253
#
# Compressibility (1/GPa) = 0.02567220
#
# Stress axis : x y z
#
# Youngs Moduli (GPa) = 76.00736 32.09025 77.61004
#
# Poissons Ratio (x) = 0.39557 0.19480
# Poissons Ratio (y) = 0.93692 0.07210
# Poissons Ratio (z) = 0.19078 0.02981
#
# Static dielectric constant tensor:
#      x y z
#    x 1.929180 0.000000 0.082480 
#    y 0.000000 1.822690 0.000000 
#    z 0.082480 0.000000 1.934020 
# 
# From -- ./inp_files/253391.got.cif
#   From: 2010.05.17/outbox.cif.g08.bks.cpg/sg15_127_cif.got.tgz:253391.got - 2010.06.03 18:47:42.
