data_PCOD9304710
_publ_section_title
;
Structure prediction by ZEFSAII (Michael W. Deem and Ramdas Pophale) SiO2 
 PCOD9304710
Probable space group: C 2/C
;
_chemical_formula_sum "Si O2"
_cell_formula_units_Z 44
_cell_length_a 12.366369
_cell_length_b 12.430488
_cell_length_c 13.858724
_cell_angle_alpha 90.000000
_cell_angle_beta 117.106592
_cell_angle_gamma 90.000000
_cell_volume 1896.364819
_symmetry_space_group_name_H-M "C 2/C"
_symmetry_group_IT_number 15
_symmetry_cell_setting 'monoclinic'
loop_
_space_group_symop_operation_xyz
x,y,z
-x,y,1/2-z
-x,-y,-z
x,-y,1/2+z
1/2+x,1/2+y,z
1/2-x,1/2+y,1/2-z
1/2-x,1/2-y,-z
1/2+x,1/2-y,1/2+z
loop_
_atom_site_type_symbol
_atom_site_label
_atom_site_fract_x
_atom_site_fract_y
_atom_site_fract_z
Si Si1 0.615998 0.155412 0.058897
Si Si2 0.660669 0.192671 0.860077
Si Si3 0.664446 0.778020 0.054564
Si Si4 0.107784 0.044615 0.108188
Si Si5 0.312523 0.946705 0.287447
Si Si6 0.000000 0.885728 0.750000
O O1 0.704136 0.258640 0.110860
O O2 0.646033 0.055187 0.141994
O O3 0.643991 0.133050 0.956254
O O4 0.473293 0.179319 0.018462
O O5 0.605773 0.135960 0.741723
O O6 0.590170 0.307216 0.843657
O O7 0.641911 0.666076 0.099175
O O8 0.731243 0.868142 0.145676
O O9 0.750000 0.750000 0.000000
O O10 0.069050 0.041407 0.203255
O O11 0.229840 0.977230 0.161539
O O12 0.000000 0.000000 0.000000
#
# Coordination Sequence:
#
# PCOD9304710 Si02
#       6
#     8   8   8   8   8   4
#     4  11  24  48  76 108 146 200 246 307 371 440
#     4  11  23  45  79 106 147 190 255 306 360 450
#     4  12  28  49  69 108 157 187 241 312 365 442
#     4  12  28  47  75 106 144 199 250 296 368 448
#     4  12  25  46  74 111 144 194 245 306 378 432
#     4  12  22  50  76 102 142 192 250 304 358 448
#
# _framework density 23.202287999999999
#
# number of rings (size 3 to 8) (size 9 to 14) (size 15 to 20)
#    0.000    0.364    5.455    1.636    7.636    0.000 
#    3.273    3.636    0.000    0.000    0.000    0.000 
#    0.000    0.000    0.000    0.000    0.000    0.000 
#
# Total GULP energy -122732.608061 kJ/mol
# GULP energy per Si atom -5578.754912 kJ/mol
# Density = 2.314948 g / cm^3
# Si number density = 23.202288 Si / 1000 Ang^3
#
#
#
# Elastic Constant Matrix: (Units=GPa)
#
#
# Indices 1 2 3 4 5 6 
#
# 1 96.2522 19.1686 45.2376 0.0000 -11.0183 0.0000
# 2 19.1686 127.3972 59.8704 0.0000 7.1918 0.0000
# 3 45.2376 59.8704 118.7562 0.0000 -2.8466 0.0000
# 4 0.0000 0.0000 0.0000 56.7412 0.0000 2.2605
# 5 -11.0183 7.1918 -2.8466 0.0000 50.4930 0.0000
# 6 0.0000 0.0000 0.0000 2.2605 0.0000 5.8335
#
#
#
# Elastic Compliance Matrix: (Units=1/GPa)
#
#
# Indices 1 2 3 4 5 6 
#
# 1 0.012983 0.000263 -0.005018 0.000000 0.002513 0.000000
# 2 0.000263 0.010451 -0.005410 0.000000 -0.001736 0.000000
# 3 -0.005018 -0.005410 0.013070 0.000000 0.000412 0.000000
# 4 0.000000 0.000000 0.000000 0.017900 0.000000 -0.006936
# 5 0.002513 -0.001736 0.000412 0.000000 0.020624 0.000000
# 6 0.000000 0.000000 0.000000 -0.006936 0.000000 0.174111
#
#
# Mechanical properties :
#
#
# Convention : Reuss Voigt Hill
#
# Bulk Modulus (GPa) = 61.83389 65.66209 63.74799
# Shear Modulus (GPa) = 18.19113 37.15548 27.67331
#
# Velocity S-wave (km/s) = 2.80308 4.00606 3.45729
# Velocity P-wave (km/s) = 6.09788 7.05402 6.59331
#
# Compressibility (1/GPa) = 0.01617236
#
# Stress axis : x y z
#
# Youngs Moduli (GPa) = 77.02362 95.68915 76.51379
#
# Poissons Ratio (x) = -0.02515 0.38394
# Poissons Ratio (y) = -0.02025 0.41396
# Poissons Ratio (z) = 0.38650 0.51771
#
# Static dielectric constant tensor:
#      x y z
#    x 2.992910 0.000000 0.142340 
#    y 0.000000 1.926650 0.000000 
#    z 0.142340 0.000000 1.986020 
# 
# From -- ./inp_files/142324.got.cif
#   From: 2010.05.17/outbox.cif.g08.bks.cpg/sg15_72_cif.got.tgz:142324.got - 2010.06.03 18:47:42.
