data_PCOD9304394
_publ_section_title
;
Structure prediction by ZEFSAII (Michael W. Deem and Ramdas Pophale) SiO2 
 PCOD9304394
Probable space group: C 2/C
;
_chemical_formula_sum "Si O2"
_cell_formula_units_Z 32
_cell_length_a 14.438878
_cell_length_b 19.190746
_cell_length_c 9.448267
_cell_angle_alpha 90.000000
_cell_angle_beta 33.981459
_cell_angle_gamma 90.000000
_cell_volume 1463.290940
_symmetry_space_group_name_H-M "C 2/C"
_symmetry_group_IT_number 15
_symmetry_cell_setting 'monoclinic'
loop_
_space_group_symop_operation_xyz
x,y,z
-x,y,1/2-z
-x,-y,-z
x,-y,1/2+z
1/2+x,1/2+y,z
1/2-x,1/2+y,1/2-z
1/2-x,1/2-y,-z
1/2+x,1/2-y,1/2+z
loop_
_atom_site_type_symbol
_atom_site_label
_atom_site_fract_x
_atom_site_fract_y
_atom_site_fract_z
Si Si1 0.275854 0.656584 0.680788
Si Si2 0.879389 0.480341 0.023657
Si Si3 0.693167 0.865851 0.973159
Si Si4 0.437483 0.282258 0.488306
O O1 0.248634 0.577642 0.765232
O O2 0.289113 0.655664 0.494410
O O3 0.423590 0.691375 0.579597
O O4 0.113795 0.702305 0.923785
O O5 0.800097 0.551559 0.065339
O O6 0.000000 0.451161 0.750000
O O7 0.000000 0.500000 0.000000
O O8 0.773746 0.825757 0.739995
O O9 0.500000 0.849991 0.250000
O O10 0.500000 0.293742 0.250000
#
# Coordination Sequence:
#
# PCOD9304394 Si02
#       4
#     8   8   8   8
#     4  12  25  46  72 107 146 192 239 297 362 430
#     4  11  23  43  74 104 145 192 240 291 361 432
#     4  11  24  47  74 105 143 191 238 294 363 431
#     4  12  28  45  74 109 149 186 242 303 356 429
#
# _framework density 21.868513
#
# number of rings (size 3 to 8) (size 9 to 14) (size 15 to 20)
#    0.000    0.500    5.000    4.500    3.500    1.000 
#    0.000    0.000    0.000    0.000    0.000    0.000 
#    0.000    0.000    0.000    0.000    0.000    0.000 
#
# Total GULP energy -89546.898437 kJ/mol
# GULP energy per Si atom -5596.681152 kJ/mol
# Density = 2.181874 g / cm^3
# Si number density = 21.868513 Si / 1000 Ang^3
#
#
#
# Elastic Constant Matrix: (Units=GPa)
#
#
# Indices 1 2 3 4 5 6 
#
# 1 125.4158 51.4045 47.9732 0.0006 -2.9822 -0.0020
# 2 51.4045 97.9003 52.4996 -0.0007 2.0963 0.0005
# 3 47.9732 52.4996 143.3224 -0.0002 32.3587 -0.0001
# 4 0.0006 -0.0007 -0.0002 18.9294 -0.0001 9.1577
# 5 -2.9822 2.0963 32.3587 -0.0001 37.2918 0.0002
# 6 -0.0020 0.0005 -0.0001 9.1577 0.0002 30.9755
#
#
#
# Elastic Compliance Matrix: (Units=1/GPa)
#
#
# Indices 1 2 3 4 5 6 
#
# 1 0.010918 -0.004243 -0.002924 -0.000001 0.003649 0.000001
# 2 -0.004243 0.014895 -0.004689 0.000001 0.002892 -0.000001
# 3 -0.002924 -0.004689 0.012022 0.000000 -0.010402 0.000000
# 4 -0.000001 0.000001 0.000000 0.061645 0.000000 -0.018225
# 5 0.003649 0.002892 -0.010402 0.000000 0.035971 0.000000
# 6 0.000001 -0.000001 0.000000 -0.018225 0.000000 0.037672
#
#
# Mechanical properties :
#
#
# Convention : Reuss Voigt Hill
#
# Bulk Modulus (GPa) = 70.80491 74.48812 72.64652
# Shear Modulus (GPa) = 24.80891 31.75674 28.28283
#
# Velocity S-wave (km/s) = 3.37183 3.81487 3.60017
# Velocity P-wave (km/s) = 6.89977 7.31710 7.11150
#
# Compressibility (1/GPa) = 0.01412331
#
# Stress axis : x y z
#
# Youngs Moduli (GPa) = 91.59439 67.13839 83.18004
#
# Poissons Ratio (x) = 0.28484 0.24323
# Poissons Ratio (y) = 0.38860 0.39001
# Poissons Ratio (z) = 0.26784 0.31480
#
# Static dielectric constant tensor:
#      x y z
#    x 1.844350 0.000000 0.007080 
#    y 0.000000 1.792010 0.000000 
#    z 0.007080 0.000000 1.834080 
# 
# From -- ./inp_files/40509.got.cif
#   From: 2010.05.17/outbox.cif.g08.bks.cpg/sg15_21_cif.got.tgz:40509.got - 2010.06.03 18:47:42.
