data_PCOD9304645
_publ_section_title
;
Structure prediction by ZEFSAII (Michael W. Deem and Ramdas Pophale) SiO2 
 PCOD9304645
Probable space group: C 2/C
;
_chemical_formula_sum "Si O2"
_cell_formula_units_Z 56
_cell_length_a 17.932273
_cell_length_b 19.841800
_cell_length_c 7.850029
_cell_angle_alpha 90.000000
_cell_angle_beta 111.624187
_cell_angle_gamma 90.000000
_cell_volume 2596.531511
_symmetry_space_group_name_H-M "C 2/C"
_symmetry_group_IT_number 15
_symmetry_cell_setting 'monoclinic'
loop_
_space_group_symop_operation_xyz
x,y,z
-x,y,1/2-z
-x,-y,-z
x,-y,1/2+z
1/2+x,1/2+y,z
1/2-x,1/2+y,1/2-z
1/2-x,1/2-y,-z
1/2+x,1/2-y,1/2+z
loop_
_atom_site_type_symbol
_atom_site_label
_atom_site_fract_x
_atom_site_fract_y
_atom_site_fract_z
Si Si1 0.406832 0.187144 0.999982
Si Si2 0.156953 0.079670 0.430767
Si Si3 0.160668 0.227562 0.368766
Si Si4 0.938370 0.041662 0.831646
Si Si5 0.338604 0.076013 0.497193
Si Si6 0.596611 0.792452 0.630624
Si Si7 0.583239 0.040163 0.601081
O O1 0.376747 0.218130 0.152649
O O2 0.501858 0.196463 0.059914
O O3 0.365557 0.222785 0.804631
O O4 0.401105 0.105827 0.000661
O O5 0.146749 0.148999 0.315022
O O6 0.116652 0.083470 0.584109
O O7 0.252972 0.074837 0.515430
O O8 0.117464 0.014115 0.309168
O O9 0.250000 0.250000 0.500000
O O10 0.110924 0.237429 0.499777
O O11 0.000000 0.077173 0.750000
O O12 0.000000 0.000000 0.000000
O O13 0.358065 0.142622 0.407836
O O14 0.405910 0.066773 0.698969
O O15 0.348025 0.013683 0.379068
O O16 0.500000 0.000000 0.500000
#
# Coordination Sequence:
#
# PCOD9304645 Si02
#       7
#     8   8   8   8   8   8   8
#     4  11  25  44  66 103 142 187 246 294 343 437
#     4  11  23  45  72 101 139 181 227 300 370 417
#     4  12  25  47  71 100 145 191 234 296 365 432
#     4   9  21  43  70 102 131 165 233 297 353 432
#     4  12  23  40  65 101 140 190 239 291 359 417
#     4  11  24  44  65  99 142 187 241 288 347 431
#     4  12  23  36  65  99 142 192 238 291 347 412
#
# _framework density 21.567233000000002
#
# number of rings (size 3 to 8) (size 9 to 14) (size 15 to 20)
#    0.000    0.857    4.286    2.571    2.000    4.000 
#    7.714    0.000    0.000    0.000    0.000    0.000 
#    0.000    0.000    0.000    0.000    0.000    0.000 
#
# Total GULP energy -156290.982724 kJ/mol
# GULP energy per Si atom -5581.820812 kJ/mol
# Density = 2.151814 g / cm^3
# Si number density = 21.567233 Si / 1000 Ang^3
#
#
#
# Elastic Constant Matrix: (Units=GPa)
#
#
# Indices 1 2 3 4 5 6 
#
# 1 128.9009 13.0729 45.4789 0.0000 -6.4159 0.0000
# 2 13.0729 75.9614 24.1854 0.0000 8.0586 0.0000
# 3 45.4789 24.1854 108.8912 0.0000 -7.3780 0.0000
# 4 0.0000 0.0000 0.0000 24.0518 0.0000 2.1338
# 5 -6.4159 8.0586 -7.3780 0.0000 26.7623 0.0000
# 6 0.0000 0.0000 0.0000 2.1338 0.0000 22.9022
#
#
#
# Elastic Compliance Matrix: (Units=1/GPa)
#
#
# Indices 1 2 3 4 5 6 
#
# 1 0.009156 -0.000574 -0.003603 0.000000 0.001375 0.000000
# 2 -0.000574 0.014959 -0.003462 0.000000 -0.005597 0.000000
# 3 -0.003603 -0.003462 0.011688 0.000000 0.003401 0.000000
# 4 0.000000 0.000000 0.000000 0.041924 0.000000 -0.003906
# 5 0.001375 -0.005597 0.003401 0.000000 0.040318 0.000000
# 6 0.000000 0.000000 0.000000 -0.003906 0.000000 0.044028
#
#
# Mechanical properties :
#
#
# Convention : Reuss Voigt Hill
#
# Bulk Modulus (GPa) = 48.72345 53.24754 50.98550
# Shear Modulus (GPa) = 27.14543 30.14434 28.64488
#
# Velocity S-wave (km/s) = 3.55158 3.74263 3.64836
# Velocity P-wave (km/s) = 6.28162 6.58931 6.43731
#
# Compressibility (1/GPa) = 0.02052400
#
# Stress axis : x y z
#
# Youngs Moduli (GPa) = 109.21942 66.84757 85.55962
#
# Poissons Ratio (x) = 0.03839 0.30830
# Poissons Ratio (y) = 0.06272 0.29620
# Poissons Ratio (z) = 0.39355 0.23142
#
# Static dielectric constant tensor:
#      x y z
#    x 1.791320 0.000000 -0.022620 
#    y 0.000000 1.746040 0.000000 
#    z -0.022620 0.000000 1.807000 
# 
# From -- ./inp_files/49118.got.cif
#   From: 2010.05.17/outbox.cif.g08.bks.cpg/sg15_25_cif.got.tgz:49118.got - 2010.06.03 18:47:42.
