data_PCOD9304713
_publ_section_title
;
Structure prediction by ZEFSAII (Michael W. Deem and Ramdas Pophale) SiO2 
 PCOD9304713
Probable space group: C 2/C
;
_chemical_formula_sum "Si O2"
_cell_formula_units_Z 40
_cell_length_a 11.654332
_cell_length_b 8.073369
_cell_length_c 25.347892
_cell_angle_alpha 90.000000
_cell_angle_beta 143.654096
_cell_angle_gamma 90.000000
_cell_volume 1413.476802
_symmetry_space_group_name_H-M "C 2/C"
_symmetry_group_IT_number 15
_symmetry_cell_setting 'monoclinic'
loop_
_space_group_symop_operation_xyz
x,y,z
-x,y,1/2-z
-x,-y,-z
x,-y,1/2+z
1/2+x,1/2+y,z
1/2-x,1/2+y,1/2-z
1/2-x,1/2-y,-z
1/2+x,1/2-y,1/2+z
loop_
_atom_site_type_symbol
_atom_site_label
_atom_site_fract_x
_atom_site_fract_y
_atom_site_fract_z
Si Si1 0.136946 0.745395 0.698545
Si Si2 0.057390 0.144168 0.831306
Si Si3 0.765076 0.354099 0.853940
Si Si4 0.358240 0.048147 0.067275
Si Si5 0.570169 0.490395 0.086073
O O1 0.342396 0.649763 0.779158
O O2 0.134540 0.851452 0.751882
O O3 0.957709 0.620101 0.625944
O O4 0.143811 0.856265 0.648109
O O5 0.000000 0.183012 0.750000
O O6 0.149445 0.308037 0.891590
O O7 0.797261 0.988324 0.625608
O O8 0.778583 0.157631 0.865963
O O9 0.982949 0.400844 0.917261
O O10 0.141689 0.037334 0.964630
O O11 0.500000 0.500000 0.000000
#
# Coordination Sequence:
#
# PCOD9304713 Si02
#       5
#     8   8   8   8   8
#     4  11  25  52  82 118 162 222 278 341 415 499
#     4  11  23  45  81 118 158 214 283 332 406 503
#     4  11  25  49  83 113 160 221 273 338 411 503
#     4  11  25  48  78 112 164 210 271 343 412 493
#     4  12  28  51  76 123 164 210 270 347 422 487
#
# _framework density 28.299012999999999
#
# number of rings (size 3 to 8) (size 9 to 14) (size 15 to 20)
#    0.000    0.800    2.000    4.800    2.800    2.400 
#   10.800    1.000    0.000    0.000    0.000    0.000 
#    0.000    0.000    0.000    0.000    0.000    0.000 
#
# Total GULP energy -111785.947983 kJ/mol
# GULP energy per Si atom -5589.297399 kJ/mol
# Density = 2.823460 g / cm^3
# Si number density = 28.299013 Si / 1000 Ang^3
#
#
#
# Elastic Constant Matrix: (Units=GPa)
#
#
# Indices 1 2 3 4 5 6 
#
# 1 166.9952 77.9226 10.5400 0.0000 -6.1162 0.0000
# 2 77.9226 201.1794 69.9374 0.0000 -5.4554 0.0000
# 3 10.5400 69.9374 104.2764 0.0000 13.7864 0.0000
# 4 0.0000 0.0000 0.0000 59.6109 0.0000 5.1727
# 5 -6.1162 -5.4554 13.7864 0.0000 63.7203 0.0000
# 6 0.0000 0.0000 0.0000 5.1727 0.0000 64.8876
#
#
#
# Elastic Compliance Matrix: (Units=1/GPa)
#
#
# Indices 1 2 3 4 5 6 
#
# 1 0.007497 -0.003434 0.001533 0.000000 0.000094 0.000000
# 2 -0.003434 0.008205 -0.005359 0.000000 0.001532 0.000000
# 3 0.001533 -0.005359 0.013455 0.000000 -0.003223 0.000000
# 4 0.000000 0.000000 0.000000 0.016892 0.000000 -0.001347
# 5 0.000094 0.001532 -0.003223 0.000000 0.016531 0.000000
# 6 0.000000 0.000000 0.000000 -0.001347 0.000000 0.015519
#
#
# Mechanical properties :
#
#
# Convention : Reuss Voigt Hill
#
# Bulk Modulus (GPa) = 68.31541 87.69456 78.00498
# Shear Modulus (GPa) = 51.28255 58.58048 54.93151
#
# Velocity S-wave (km/s) = 4.26157 4.55472 4.41058
# Velocity P-wave (km/s) = 6.95756 7.66267 7.31861
#
# Compressibility (1/GPa) = 0.01463799
#
# Stress axis : x y z
#
# Youngs Moduli (GPa) = 133.37923 121.87126 74.32147
#
# Poissons Ratio (x) = 0.41856 -0.11395
# Poissons Ratio (y) = 0.45808 0.39827
# Poissons Ratio (z) = -0.20450 0.65307
#
# Static dielectric constant tensor:
#      x y z
#    x 2.459930 0.000000 -0.006180 
#    y 0.000000 2.347780 0.000000 
#    z -0.006180 0.000000 2.213290 
# 
# From -- ./inp_files/272955.got.cif
#   From: 2010.05.17/outbox.cif.g08.bks.cpg/sg15_137_cif.got.tgz:272955.got - 2010.06.03 18:47:42.
