data_PCOD9304670
_publ_section_title
;
Structure prediction by ZEFSAII (Michael W. Deem and Ramdas Pophale) SiO2 
 PCOD9304670
Probable space group: C 2/C
;
_chemical_formula_sum "Si O2"
_cell_formula_units_Z 40
_cell_length_a 15.784238
_cell_length_b 11.600071
_cell_length_c 9.711428
_cell_angle_alpha 90.000000
_cell_angle_beta 76.698099
_cell_angle_gamma 90.000000
_cell_volume 1730.440330
_symmetry_space_group_name_H-M "C 2/C"
_symmetry_group_IT_number 15
_symmetry_cell_setting 'monoclinic'
loop_
_space_group_symop_operation_xyz
x,y,z
-x,y,1/2-z
-x,-y,-z
x,-y,1/2+z
1/2+x,1/2+y,z
1/2-x,1/2+y,1/2-z
1/2-x,1/2-y,-z
1/2+x,1/2-y,1/2+z
loop_
_atom_site_type_symbol
_atom_site_label
_atom_site_fract_x
_atom_site_fract_y
_atom_site_fract_z
Si Si1 0.438419 0.045660 0.401978
Si Si2 0.427418 0.308230 0.397023
Si Si3 0.810011 0.977875 0.893569
Si Si4 0.582119 0.289627 0.796447
Si Si5 0.210189 0.413692 0.188624
O O1 0.500000 0.053085 0.250000
O O2 0.400974 0.174538 0.424592
O O3 0.500000 0.000000 0.500000
O O4 0.362062 0.962845 0.387548
O O5 0.500000 0.319738 0.250000
O O6 0.348324 0.394468 0.401059
O O7 0.455714 0.330844 0.543030
O O8 0.734606 0.001341 0.806186
O O9 0.883473 0.901169 0.794851
O O10 0.788592 0.915127 0.047571
O O11 0.500000 0.233195 0.750000
O O12 0.665607 0.202883 0.762788
#
# Coordination Sequence:
#
# PCOD9304670 Si02
#       5
#     8   8   8   8   8
#     4  11  23  45  73 106 141 188 245 296 359 436
#     4  11  26  46  75 105 149 194 241 302 369 439
#     4  12  27  46  71 109 152 191 241 306 376 436
#     4  12  27  48  74 104 146 195 252 296 367 448
#     4  12  26  45  74 107 148 191 244 307 367 432
#
# _framework density 23.115504000000001
#
# number of rings (size 3 to 8) (size 9 to 14) (size 15 to 20)
#    0.000    0.400    2.000    6.600    5.600    4.800 
#    0.000    0.000    0.000    0.000    0.000    0.000 
#    0.000    0.000    0.000    0.000    0.000    0.000 
#
# Total GULP energy -111610.122995 kJ/mol
# GULP energy per Si atom -5580.506150 kJ/mol
# Density = 2.306289 g / cm^3
# Si number density = 23.115504 Si / 1000 Ang^3
#
#
#
# Elastic Constant Matrix: (Units=GPa)
#
#
# Indices 1 2 3 4 5 6 
#
# 1 54.0113 25.9831 31.0107 0.0000 8.3072 0.0000
# 2 25.9831 92.9994 30.6767 0.0000 -9.3116 0.0000
# 3 31.0107 30.6767 184.9319 0.0000 -16.7036 0.0000
# 4 0.0000 0.0000 0.0000 35.3224 0.0000 3.4246
# 5 8.3072 -9.3116 -16.7036 0.0000 29.7655 0.0000
# 6 0.0000 0.0000 0.0000 3.4246 0.0000 42.5724
#
#
#
# Elastic Compliance Matrix: (Units=1/GPa)
#
#
# Indices 1 2 3 4 5 6 
#
# 1 0.026246 -0.007112 -0.004302 0.000000 -0.011964 0.000000
# 2 -0.007112 0.013502 -0.000512 0.000000 0.005921 0.000000
# 3 -0.004302 -0.000512 0.006645 0.000000 0.004769 0.000000
# 4 0.000000 0.000000 0.000000 0.028533 0.000000 -0.002295
# 5 -0.011964 0.005921 0.004769 0.000000 0.041464 0.000000
# 6 0.000000 0.000000 0.000000 -0.002295 0.000000 0.023674
#
#
# Mechanical properties :
#
#
# Convention : Reuss Voigt Hill
#
# Bulk Modulus (GPa) = 44.36561 56.36484 50.36523
# Shear Modulus (GPa) = 29.16674 37.81686 33.49180
#
# Velocity S-wave (km/s) = 3.55601 4.04913 3.81056
# Velocity P-wave (km/s) = 6.00791 6.80423 6.41843
#
# Compressibility (1/GPa) = 0.02253998
#
# Stress axis : x y z
#
# Youngs Moduli (GPa) = 38.10110 74.06577 150.49949
#
# Poissons Ratio (x) = 0.52673 0.64745
# Poissons Ratio (y) = 0.27096 0.07710
# Poissons Ratio (z) = 0.16391 0.03794
#
# Static dielectric constant tensor:
#      x y z
#    x 1.934110 0.000000 -0.016280 
#    y 0.000000 1.993310 0.000000 
#    z -0.016280 0.000000 1.980190 
# 
# From -- ./inp_files/46192.got.cif
#   From: 2010.05.17/outbox.cif.g08.bks.cpg/sg15_24_cif.got.tgz:46192.got - 2010.06.03 18:47:42.
