data_PCOD9304120
_publ_section_title
;
Structure prediction by ZEFSAII (Michael W. Deem and Ramdas Pophale) SiO2 
 PCOD9304120
Probable space group: C 2/C
;
_chemical_formula_sum "Si O2"
_cell_formula_units_Z 40
_cell_length_a 9.944148
_cell_length_b 27.205718
_cell_length_c 12.199325
_cell_angle_alpha 90.000000
_cell_angle_beta 142.657463
_cell_angle_gamma 90.000000
_cell_volume 2001.938821
_symmetry_space_group_name_H-M "C 2/C"
_symmetry_group_IT_number 15
_symmetry_cell_setting 'monoclinic'
loop_
_space_group_symop_operation_xyz
x,y,z
-x,y,1/2-z
-x,-y,-z
x,-y,1/2+z
1/2+x,1/2+y,z
1/2-x,1/2+y,1/2-z
1/2-x,1/2-y,-z
1/2+x,1/2-y,1/2+z
loop_
_atom_site_type_symbol
_atom_site_label
_atom_site_fract_x
_atom_site_fract_y
_atom_site_fract_z
Si Si1 0.233834 0.687570 0.255102
Si Si2 0.500000 0.117306 0.250000
Si Si3 0.000000 0.868472 0.750000
Si Si4 0.463949 0.716527 0.610187
Si Si5 0.233256 0.942643 0.070983
Si Si6 0.426982 0.446950 0.079535
O O1 0.334531 0.666123 0.210960
O O2 0.409452 0.684803 0.469222
O O3 0.152858 0.743904 0.201029
O O4 0.036008 0.652983 0.169556
O O5 0.713993 0.084065 0.404935
O O6 0.867313 0.902593 0.577927
O O7 0.500000 0.690112 0.750000
O O8 0.250000 0.750000 0.500000
O O9 0.500000 0.940576 0.250000
O O10 0.123263 0.937333 0.119850
O O11 0.149329 0.996079 0.976195
O O12 0.500000 0.435784 0.250000
#
# Coordination Sequence:
#
# PCOD9304120 Si02
#       6
#     8   4   4   8   8   8
#     4  11  23  42  68  95 132 173 214 287 335 395
#     4  12  22  42  66 106 124 172 240 268 316 402
#     4  12  26  46  62 100 144 172 224 272 336 408
#     4   9  18  40  67  92 123 162 215 276 335 383
#     4  11  25  45  65  97 140 182 214 277 341 381
#     4  11  25  42  70  98 131 183 228 270 329 391
#
# _framework density 19.980629
#
# number of rings (size 3 to 8) (size 9 to 14) (size 15 to 20)
#    0.000    1.200    7.000    0.000    2.800    2.400 
#    7.200    0.000    0.000    0.000    0.000    0.000 
#    0.000    0.000    0.000    0.000    0.000    0.000 
#
# Total GULP energy -111694.895315 kJ/mol
# GULP energy per Si atom -5584.744766 kJ/mol
# Density = 1.993515 g / cm^3
# Si number density = 19.980629 Si / 1000 Ang^3
#
#
#
# Elastic Constant Matrix: (Units=GPa)
#
#
# Indices 1 2 3 4 5 6 
#
# 1 161.9829 48.6907 54.2869 0.0000 3.3361 0.0000
# 2 48.6907 81.6350 21.6957 0.0000 -3.9416 0.0000
# 3 54.2869 21.6957 98.3408 0.0000 0.8592 0.0000
# 4 0.0000 0.0000 0.0000 19.4335 0.0000 -6.0321
# 5 3.3361 -3.9416 0.8592 0.0000 35.1495 0.0000
# 6 0.0000 0.0000 0.0000 -6.0321 0.0000 33.7364
#
#
#
# Elastic Compliance Matrix: (Units=1/GPa)
#
#
# Indices 1 2 3 4 5 6 
#
# 1 0.008787 -0.004263 -0.003899 0.000000 -0.001217 0.000000
# 2 -0.004263 0.015164 -0.001011 0.000000 0.002130 0.000000
# 3 -0.003899 -0.001011 0.012545 0.000000 -0.000050 0.000000
# 4 0.000000 0.000000 0.000000 0.054481 0.000000 0.009741
# 5 -0.001217 0.002130 -0.000050 0.000000 0.028805 0.000000
# 6 0.000000 0.000000 0.000000 0.009741 0.000000 0.031383
#
#
# Mechanical properties :
#
#
# Convention : Reuss Voigt Hill
#
# Bulk Modulus (GPa) = 55.09981 65.70060 60.40020
# Shear Modulus (GPa) = 28.48003 32.14957 30.31480
#
# Velocity S-wave (km/s) = 3.77952 4.01563 3.89936
# Velocity P-wave (km/s) = 6.83248 7.37929 7.11114
#
# Compressibility (1/GPa) = 0.01814888
#
# Stress axis : x y z
#
# Youngs Moduli (GPa) = 113.80537 65.94616 79.71495
#
# Poissons Ratio (x) = 0.28115 0.31084
# Poissons Ratio (y) = 0.48519 0.08056
# Poissons Ratio (z) = 0.44378 0.06664
#
# Static dielectric constant tensor:
#      x y z
#    x 1.686030 0.000000 0.018210 
#    y 0.000000 1.730020 0.000000 
#    z 0.018210 0.000000 1.780970 
# 
# From -- ./inp_files/24468.got.cif
#   From: 2010.05.17/outbox.cif.g08.bks.cpg/sg15_13_cif.got.tgz:24468.got - 2010.06.03 18:47:42.
