data_PCOD9304073
_publ_section_title
;
Structure prediction by ZEFSAII (Michael W. Deem and Ramdas Pophale) SiO2 
 PCOD9304073
Probable space group: C 2/C
;
_chemical_formula_sum "Si O2"
_cell_formula_units_Z 56
_cell_length_a 24.562414
_cell_length_b 17.364732
_cell_length_c 8.236773
_cell_angle_alpha 90.000000
_cell_angle_beta 47.239043
_cell_angle_gamma 90.000000
_cell_volume 2579.326277
_symmetry_space_group_name_H-M "C 2/C"
_symmetry_group_IT_number 15
_symmetry_cell_setting 'monoclinic'
loop_
_space_group_symop_operation_xyz
x,y,z
-x,y,1/2-z
-x,-y,-z
x,-y,1/2+z
1/2+x,1/2+y,z
1/2-x,1/2+y,1/2-z
1/2-x,1/2-y,-z
1/2+x,1/2-y,1/2+z
loop_
_atom_site_type_symbol
_atom_site_label
_atom_site_fract_x
_atom_site_fract_y
_atom_site_fract_z
Si Si1 0.178057 0.875932 0.872463
Si Si2 0.055967 0.969045 0.252382
Si Si3 0.678747 0.073352 0.865883
Si Si4 0.846760 0.897628 0.951214
Si Si5 0.327262 0.770643 0.936835
Si Si6 0.847538 0.591806 0.960059
Si Si7 0.084936 0.253047 0.052974
O O1 0.152451 0.903406 0.746373
O O2 0.265635 0.890365 0.697960
O O3 0.130410 0.917942 0.110289
O O4 0.167852 0.785390 0.919074
O O5 0.000000 0.923093 0.250000
O O6 0.089359 0.047678 0.109238
O O7 0.000000 0.000000 0.500000
O O8 0.768586 0.070012 0.672375
O O9 0.654953 0.092072 0.730158
O O10 0.666426 0.142438 0.016158
O O11 0.640202 0.995122 0.003404
O O12 0.862016 0.809835 0.968499
O O13 0.392378 0.752517 0.680236
O O14 0.250000 0.750000 0.000000
O O15 0.899408 0.660861 0.914197
O O16 0.000000 0.231262 0.250000
#
# Coordination Sequence:
#
# PCOD9304073 Si02
#       7
#     8   8   8   8   8   8   8
#     4  11  24  40  65  94 138 180 222 274 323 407
#     4  12  25  39  60 100 145 180 212 264 337 410
#     4  11  23  42  74 100 126 171 226 289 317 398
#     4  11  23  42  65  98 136 177 221 269 338 397
#     4  12  24  42  67  99 132 169 228 274 332 394
#     4  11  23  44  69 100 133 173 234 272 340 388
#     4  12  27  45  68  99 138 179 222 282 340 400
#
# _framework density 21.711096000000001
#
# number of rings (size 3 to 8) (size 9 to 14) (size 15 to 20)
#    0.000    0.571    5.714    2.143    4.000    2.286 
#    0.000    5.000    0.000    0.000    0.000    0.000 
#    0.000    0.000    0.000    0.000    0.000    0.000 
#
# Total GULP energy -156385.704636 kJ/mol
# GULP energy per Si atom -5585.203737 kJ/mol
# Density = 2.166168 g / cm^3
# Si number density = 21.711096 Si / 1000 Ang^3
#
#
#
# Elastic Constant Matrix: (Units=GPa)
#
#
# Indices 1 2 3 4 5 6 
#
# 1 31.2979 -5.7930 -3.5199 0.0000 3.7357 0.0000
# 2 -5.7930 111.1662 -14.5866 0.0000 11.6738 0.0000
# 3 -3.5199 -14.5866 67.8990 0.0000 8.2111 0.0000
# 4 0.0000 0.0000 0.0000 33.7305 0.0000 6.7896
# 5 3.7357 11.6738 8.2111 0.0000 20.1593 0.0000
# 6 0.0000 0.0000 0.0000 6.7896 0.0000 32.7109
#
#
#
# Elastic Compliance Matrix: (Units=1/GPa)
#
#
# Indices 1 2 3 4 5 6 
#
# 1 0.034126 0.003276 0.003647 0.000000 -0.009706 0.000000
# 2 0.003276 0.010455 0.003388 0.000000 -0.008042 0.000000
# 3 0.003647 0.003388 0.016791 0.000000 -0.009477 0.000000
# 4 0.000000 0.000000 0.000000 0.030939 0.000000 -0.006422
# 5 -0.009706 -0.008042 -0.009477 0.000000 0.059920 0.000000
# 6 0.000000 0.000000 0.000000 -0.006422 0.000000 0.031904
#
#
# Mechanical properties :
#
#
# Convention : Reuss Voigt Hill
#
# Bulk Modulus (GPa) = 12.19590 18.06268 15.12929
# Shear Modulus (GPa) = 26.19929 32.93765 29.56847
#
# Velocity S-wave (km/s) = 3.47756 3.89921 3.69440
# Velocity P-wave (km/s) = 4.66413 5.34877 5.01814
#
# Compressibility (1/GPa) = 0.08199479
#
# Stress axis : x y z
#
# Youngs Moduli (GPa) = 29.30310 95.64482 59.55640
#
# Poissons Ratio (x) = -0.31335 -0.21718
# Poissons Ratio (y) = -0.09600 -0.20180
# Poissons Ratio (z) = -0.10686 -0.32409
#
# Static dielectric constant tensor:
#      x y z
#    x 1.854900 0.000000 0.038480 
#    y 0.000000 1.802440 0.000000 
#    z 0.038480 0.000000 1.794890 
# 
# From -- ./inp_files/67103.got.cif
#   From: 2010.05.17/outbox.cif.g08.bks.cpg/sg15_34_cif.got.tgz:67103.got - 2010.06.03 18:47:42.
