data_PCOD9304530
_publ_section_title
;
Structure prediction by ZEFSAII (Michael W. Deem and Ramdas Pophale) SiO2 
 PCOD9304530
Probable space group: C 2/C
;
_chemical_formula_sum "Si O2"
_cell_formula_units_Z 48
_cell_length_a 10.334549
_cell_length_b 14.968866
_cell_length_c 16.693512
_cell_angle_alpha 90.000000
_cell_angle_beta 89.785832
_cell_angle_gamma 90.000000
_cell_volume 2582.409490
_symmetry_space_group_name_H-M "C 2/C"
_symmetry_group_IT_number 15
_symmetry_cell_setting 'monoclinic'
loop_
_space_group_symop_operation_xyz
x,y,z
-x,y,1/2-z
-x,-y,-z
x,-y,1/2+z
1/2+x,1/2+y,z
1/2-x,1/2+y,1/2-z
1/2-x,1/2-y,-z
1/2+x,1/2-y,1/2+z
loop_
_atom_site_type_symbol
_atom_site_label
_atom_site_fract_x
_atom_site_fract_y
_atom_site_fract_z
Si Si1 0.874632 0.361049 0.194436
Si Si2 0.014820 0.682141 0.340791
Si Si3 0.120998 0.121930 0.804775
Si Si4 0.228654 0.205382 0.413564
Si Si5 0.135862 0.990579 0.954685
Si Si6 0.884923 0.517728 0.063314
O O1 0.748608 0.374755 0.250137
O O2 0.851633 0.271696 0.142762
O O3 0.887017 0.441970 0.131538
O O4 0.000000 0.355723 0.250000
O O5 0.083646 0.778401 0.334606
O O6 0.091589 0.612558 0.394763
O O7 0.000000 0.647403 0.250000
O O8 0.870811 0.693047 0.375624
O O9 0.000000 0.092334 0.750000
O O10 0.139243 0.056917 0.879406
O O11 0.250000 0.250000 0.500000
O O12 0.160550 0.110341 0.425170
O O13 0.251175 0.013029 0.015735
O O14 0.000000 0.000000 0.000000
O O15 0.000000 0.500000 0.000000
#
# Coordination Sequence:
#
# PCOD9304530 Si02
#       6
#     8   8   8   8   8   8
#     4  12  25  41  70 103 134 172 232 282 328 401
#     4  11  23  44  72  94 133 184 225 268 340 406
#     4  11  24  44  67  97 138 177 222 280 338 397
#     4  12  23  46  70  96 139 181 218 275 348 399
#     4  12  26  42  69 102 137 174 223 285 342 392
#     4  12  24  43  69 100 132 181 227 274 334 408
#
# _framework density 18.587292000000001
#
# number of rings (size 3 to 8) (size 9 to 14) (size 15 to 20)
#    0.000    0.333    6.667    3.500    2.333    2.667 
#    0.000    0.000    0.000    0.000    0.000    0.000 
#    0.000    0.000    0.000    0.000    0.000    0.000 
#
# Total GULP energy -134297.753423 kJ/mol
# GULP energy per Si atom -5595.739726 kJ/mol
# Density = 1.854499 g / cm^3
# Si number density = 18.587292 Si / 1000 Ang^3
#
#
#
# Elastic Constant Matrix: (Units=GPa)
#
#
# Indices 1 2 3 4 5 6 
#
# 1 183.6941 65.8613 102.8824 0.0000 2.4543 0.0000
# 2 65.8613 138.2470 93.2683 0.0000 11.3444 0.0000
# 3 102.8824 93.2683 177.6259 0.0000 8.8615 0.0000
# 4 0.0000 0.0000 0.0000 58.5654 0.0000 7.7922
# 5 2.4543 11.3444 8.8615 0.0000 58.7847 0.0000
# 6 0.0000 0.0000 0.0000 7.7922 0.0000 22.2010
#
#
#
# Elastic Compliance Matrix: (Units=1/GPa)
#
#
# Indices 1 2 3 4 5 6 
#
# 1 0.008176 -0.001122 -0.004171 0.000000 0.000504 0.000000
# 2 -0.001122 0.011453 -0.005296 0.000000 -0.001365 0.000000
# 3 -0.004171 -0.005296 0.010848 0.000000 -0.000439 0.000000
# 4 0.000000 0.000000 0.000000 0.017911 0.000000 -0.006287
# 5 0.000504 -0.001365 -0.000439 0.000000 0.017320 0.000000
# 6 0.000000 0.000000 0.000000 -0.006287 0.000000 0.047250
#
#
# Mechanical properties :
#
#
# Convention : Reuss Voigt Hill
#
# Bulk Modulus (GPa) = 107.54174 113.73235 110.63704
# Shear Modulus (GPa) = 36.43379 43.74722 40.09051
#
# Velocity S-wave (km/s) = 4.43216 4.85666 4.64926
# Velocity P-wave (km/s) = 9.17471 9.63175 9.40601
#
# Compressibility (1/GPa) = 0.00929871
#
# Stress axis : x y z
#
# Youngs Moduli (GPa) = 122.31376 87.31594 92.17897
#
# Poissons Ratio (x) = 0.09797 0.38452
# Poissons Ratio (y) = 0.13724 0.48814
# Poissons Ratio (z) = 0.51022 0.46239
#
# Static dielectric constant tensor:
#      x y z
#    x 1.628490 0.000000 -0.015810 
#    y 0.000000 1.626990 0.000000 
#    z -0.015810 0.000000 1.623030 
# 
# From -- ./inp_files/182540.got.cif
#   From: 2010.05.17/outbox.cif.g08.bks.cpg/sg15_92_cif.got.tgz:182540.got - 2010.06.03 18:47:42.
