data_PCOD9304115
_publ_section_title
;
Structure prediction by ZEFSAII (Michael W. Deem and Ramdas Pophale) SiO2 
 PCOD9304115
Probable space group: C 2/C
;
_chemical_formula_sum "Si O2"
_cell_formula_units_Z 48
_cell_length_a 5.573321
_cell_length_b 21.801911
_cell_length_c 22.170052
_cell_angle_alpha 90.000000
_cell_angle_beta 48.559391
_cell_angle_gamma 90.000000
_cell_volume 2019.432495
_symmetry_space_group_name_H-M "C 2/C"
_symmetry_group_IT_number 15
_symmetry_cell_setting 'monoclinic'
loop_
_space_group_symop_operation_xyz
x,y,z
-x,y,1/2-z
-x,-y,-z
x,-y,1/2+z
1/2+x,1/2+y,z
1/2-x,1/2+y,1/2-z
1/2-x,1/2-y,-z
1/2+x,1/2-y,1/2+z
loop_
_atom_site_type_symbol
_atom_site_label
_atom_site_fract_x
_atom_site_fract_y
_atom_site_fract_z
Si Si1 0.779934 0.781513 0.154567
Si Si2 0.905312 0.661373 0.066951
Si Si3 0.645357 0.420601 0.831225
Si Si4 0.768407 0.945340 0.556538
Si Si5 0.202009 0.032686 0.659941
Si Si6 0.065568 0.662439 0.908140
O O1 0.500000 0.769555 0.250000
O O2 0.953945 0.721596 0.098313
O O3 0.610616 0.814152 0.123798
O O4 0.065301 0.816499 0.142425
O O5 0.605121 0.628899 0.150825
O O6 0.166827 0.606000 0.025676
O O7 0.888995 0.680518 0.999705
O O8 0.601264 0.409051 0.908983
O O9 0.539338 0.491458 0.839544
O O10 0.000000 0.410006 0.750000
O O11 0.457105 0.980477 0.634067
O O12 0.000000 0.000000 0.500000
O O13 0.399502 0.088615 0.600739
O O14 0.000000 0.055589 0.750000
#
# Coordination Sequence:
#
# PCOD9304115 Si02
#       6
#     8   8   8   8   8   8
#     4  12  29  50  77 110 147 199 256 309 370 444
#     4  11  28  46  76 107 148 192 250 312 376 444
#     4  11  24  41  73 108 145 192 244 310 377 447
#     4  11  24  43  72 107 147 189 241 300 375 448
#     4  11  23  42  68 106 145 192 244 305 374 443
#     4  12  28  50  76 110 151 199 254 309 376 443
#
# _framework density 23.769053
#
# number of rings (size 3 to 8) (size 9 to 14) (size 15 to 20)
#    0.000    0.667    1.667    4.500   11.667    3.333 
#    0.000    0.000    0.000    0.000    0.000    0.000 
#    0.000    0.000    0.000    0.000    0.000    0.000 
#
# Total GULP energy -133934.078382 kJ/mol
# GULP energy per Si atom -5580.586599 kJ/mol
# Density = 2.371495 g / cm^3
# Si number density = 23.769053 Si / 1000 Ang^3
#
#
#
# Elastic Constant Matrix: (Units=GPa)
#
#
# Indices 1 2 3 4 5 6 
#
# 1 101.0868 35.9293 22.0165 0.0000 0.3897 0.0000
# 2 35.9293 83.2473 10.0271 0.0000 3.3257 0.0000
# 3 22.0165 10.0271 99.2308 0.0000 -1.2896 0.0000
# 4 0.0000 0.0000 0.0000 23.6169 0.0000 3.1591
# 5 0.3897 3.3257 -1.2896 0.0000 41.8494 0.0000
# 6 0.0000 0.0000 0.0000 3.1591 0.0000 31.3889
#
#
#
# Elastic Compliance Matrix: (Units=1/GPa)
#
#
# Indices 1 2 3 4 5 6 
#
# 1 0.012140 -0.004985 -0.002187 0.000000 0.000216 0.000000
# 2 -0.004985 0.014250 -0.000348 0.000000 -0.001097 0.000000
# 3 -0.002187 -0.000348 0.010603 0.000000 0.000375 0.000000
# 4 0.000000 0.000000 0.000000 0.042920 0.000000 -0.004320
# 5 0.000216 -0.001097 0.000375 0.000000 0.023992 0.000000
# 6 0.000000 0.000000 0.000000 -0.004320 0.000000 0.032293
#
#
# Mechanical properties :
#
#
# Convention : Reuss Voigt Hill
#
# Bulk Modulus (GPa) = 45.55312 46.61230 46.08271
# Shear Modulus (GPa) = 31.53493 33.74386 32.63939
#
# Velocity S-wave (km/s) = 3.64637 3.77192 3.70968
# Velocity P-wave (km/s) = 6.07738 6.21473 6.14644
#
# Compressibility (1/GPa) = 0.02195239
#
# Stress axis : x y z
#
# Youngs Moduli (GPa) = 82.37457 70.17783 94.31481
#
# Poissons Ratio (x) = 0.34981 0.20626
# Poissons Ratio (y) = 0.41061 0.03284
# Poissons Ratio (z) = 0.18015 0.02444
#
# Static dielectric constant tensor:
#      x y z
#    x 1.983310 0.000000 -0.025740 
#    y 0.000000 1.831290 0.000000 
#    z -0.025740 0.000000 1.878020 
# 
# From -- ./inp_files/228035.got.cif
#   From: 2010.05.17/outbox.cif.g08.bks.cpg/sg15_115_cif.got.tgz:228035.got - 2010.06.03 18:47:42.
