data_PCOD9304222
_publ_section_title
;
Structure prediction by ZEFSAII (Michael W. Deem and Ramdas Pophale) SiO2 
 PCOD9304222
Probable space group: C 2/C
;
_chemical_formula_sum "Si O2"
_cell_formula_units_Z 48
_cell_length_a 27.924264
_cell_length_b 15.771033
_cell_length_c 8.878136
_cell_angle_alpha 90.000000
_cell_angle_beta 143.508955
_cell_angle_gamma 90.000000
_cell_volume 2325.195748
_symmetry_space_group_name_H-M "C 2/C"
_symmetry_group_IT_number 15
_symmetry_cell_setting 'monoclinic'
loop_
_space_group_symop_operation_xyz
x,y,z
-x,y,1/2-z
-x,-y,-z
x,-y,1/2+z
1/2+x,1/2+y,z
1/2-x,1/2+y,1/2-z
1/2-x,1/2-y,-z
1/2+x,1/2-y,1/2+z
loop_
_atom_site_type_symbol
_atom_site_label
_atom_site_fract_x
_atom_site_fract_y
_atom_site_fract_z
Si Si1 0.287685 0.585808 0.951282
Si Si2 0.771754 0.576694 0.370665
Si Si3 0.971873 0.085064 0.506772
Si Si4 0.779385 0.744176 0.901073
Si Si5 0.469517 0.763312 0.846057
Si Si6 0.040474 0.422842 0.191049
O O1 0.277355 0.502603 0.821633
O O2 0.266983 0.668988 0.802610
O O3 0.231565 0.577831 0.956569
O O4 0.376669 0.592568 0.244912
O O5 0.737796 0.665376 0.221196
O O6 0.864123 0.566267 0.555797
O O7 0.000000 0.080193 0.750000
O O8 0.011257 0.170267 0.540901
O O9 0.000000 0.000000 0.500000
O O10 0.750000 0.750000 0.000000
O O11 0.874203 0.723125 0.124275
O O12 0.500000 0.763644 0.750000
O O13 0.519329 0.835792 0.054129
O O14 0.000000 0.419738 0.250000
O O15 0.000000 0.500000 0.000000
#
# Coordination Sequence:
#
# PCOD9304222 Si02
#       6
#     8   8   8   8   8   8
#     4  12  24  43  67  96 131 173 217 271 328 390
#     4  12  24  42  65  94 129 171 217 270 328 390
#     4  11  24  42  65  94 127 167 212 263 322 385
#     4  12  25  43  66  98 132 171 218 271 329 393
#     4  11  23  43  65  92 127 168 213 264 319 384
#     4  12  24  41  63  92 125 166 212 263 319 382
#
# _framework density 20.643422999999999
#
# number of rings (size 3 to 8) (size 9 to 14) (size 15 to 20)
#    0.000    0.333    0.000   11.000    0.000    2.000 
#    0.000    0.000    0.000    0.000    0.000    0.000 
#    0.000    0.000    0.000    0.000    0.000    0.000 
#
# Total GULP energy -134401.413051 kJ/mol
# GULP energy per Si atom -5600.058877 kJ/mol
# Density = 2.059644 g / cm^3
# Si number density = 20.643423 Si / 1000 Ang^3
#
#
#
# Elastic Constant Matrix: (Units=GPa)
#
#
# Indices 1 2 3 4 5 6 
#
# 1 116.2464 9.4327 29.8760 0.0000 -13.4646 0.0000
# 2 9.4327 164.3343 46.6019 0.0000 -31.0383 0.0000
# 3 29.8760 46.6019 123.2055 0.0000 14.0153 0.0000
# 4 0.0000 0.0000 0.0000 39.9223 0.0000 1.7141
# 5 -13.4646 -31.0383 14.0153 0.0000 50.8896 0.0000
# 6 0.0000 0.0000 0.0000 1.7141 0.0000 27.2837
#
#
#
# Elastic Compliance Matrix: (Units=1/GPa)
#
#
# Indices 1 2 3 4 5 6 
#
# 1 0.009849 0.001174 -0.003314 0.000000 0.004235 0.000000
# 2 0.001174 0.008479 -0.004249 0.000000 0.006652 0.000000
# 3 -0.003314 -0.004249 0.011275 0.000000 -0.006573 0.000000
# 4 0.000000 0.000000 0.000000 0.025116 0.000000 -0.001578
# 5 0.004235 0.006652 -0.006573 0.000000 0.026639 0.000000
# 6 0.000000 0.000000 0.000000 -0.001578 0.000000 0.036751
#
#
# Mechanical properties :
#
#
# Convention : Reuss Voigt Hill
#
# Bulk Modulus (GPa) = 59.43082 63.95638 61.69360
# Shear Modulus (GPa) = 36.63121 44.81083 40.72102
#
# Velocity S-wave (km/s) = 4.21702 4.66414 4.44620
# Velocity P-wave (km/s) = 7.25002 7.74947 7.50390
#
# Compressibility (1/GPa) = 0.01682629
#
# Stress axis : x y z
#
# Youngs Moduli (GPa) = 101.52821 117.93803 88.69152
#
# Poissons Ratio (x) = -0.13851 0.29396
# Poissons Ratio (y) = -0.11924 0.37682
# Poissons Ratio (z) = 0.33650 0.50108
#
# Static dielectric constant tensor:
#      x y z
#    x 1.744160 0.000000 0.019180 
#    y 0.000000 1.738020 0.000000 
#    z 0.019180 0.000000 1.709230 
# 
# From -- ./inp_files/66510.got.cif
#   From: 2010.05.17/outbox.cif.g08.bks.cpg/sg15_34_cif.got.tgz:66510.got - 2010.06.03 18:47:42.
