data_PCOD9304215
_publ_section_title
;
Structure prediction by ZEFSAII (Michael W. Deem and Ramdas Pophale) SiO2 
 PCOD9304215
Probable space group: C 2/C
;
_chemical_formula_sum "Si O2"
_cell_formula_units_Z 16
_cell_length_a 17.278343
_cell_length_b 12.010462
_cell_length_c 4.841429
_cell_angle_alpha 90.000000
_cell_angle_beta 37.008897
_cell_angle_gamma 90.000000
_cell_volume 604.766708
_symmetry_space_group_name_H-M "C 2/C"
_symmetry_group_IT_number 15
_symmetry_cell_setting 'monoclinic'
loop_
_space_group_symop_operation_xyz
x,y,z
-x,y,1/2-z
-x,-y,-z
x,-y,1/2+z
1/2+x,1/2+y,z
1/2-x,1/2+y,1/2-z
1/2-x,1/2-y,-z
1/2+x,1/2-y,1/2+z
loop_
_atom_site_type_symbol
_atom_site_label
_atom_site_fract_x
_atom_site_fract_y
_atom_site_fract_z
Si Si1 0.630085 0.279471 0.548810
Si Si2 0.677308 0.927363 0.291119
O O1 0.500000 0.290573 0.750000
O O2 0.623587 0.180774 0.791082
O O3 0.674014 0.390613 0.586745
O O4 0.750000 0.250000 0.000000
O O5 0.642668 0.970365 0.691802
#
# Coordination Sequence:
#
# PCOD9304215 Si02
#       2
#     8   8
#     4  11  23  43  64 100 131 168 215 271 319 382
#     4   9  22  45  64  98 124 177 212 265 320 386
#
# _framework density 26.456482000000001
#
# number of rings (size 3 to 8) (size 9 to 14) (size 15 to 20)
#    1.000    0.500    3.000    0.000    0.000    8.000 
#   20.000    0.000    0.000    0.000    0.000    0.000 
#    0.000    0.000    0.000    0.000    0.000    0.000 
#
# Total GULP energy -44735.761781 kJ/mol
# GULP energy per Si atom -5591.970223 kJ/mol
# Density = 2.639627 g / cm^3
# Si number density = 26.456482 Si / 1000 Ang^3
#
#
#
# Elastic Constant Matrix: (Units=GPa)
#
#
# Indices 1 2 3 4 5 6 
#
# 1 263.1078 46.5309 84.5644 0.0000 -37.1356 0.0000
# 2 46.5309 69.0684 32.5978 0.0000 -2.5664 0.0000
# 3 84.5644 32.5978 136.1203 0.0000 -16.6884 0.0000
# 4 0.0000 0.0000 0.0000 -9.0860 0.0000 15.2479
# 5 -37.1356 -2.5664 -16.6884 0.0000 69.3349 0.0000
# 6 0.0000 0.0000 0.0000 15.2479 0.0000 70.6547
#
#
#
# Elastic Compliance Matrix: (Units=1/GPa)
#
#
# Indices 1 2 3 4 5 6 
#
# 1 0.005315 -0.002330 -0.002478 0.000000 0.002164 0.000000
# 2 -0.002330 0.017353 -0.002867 0.000000 -0.001296 0.000000
# 3 -0.002478 -0.002867 0.009683 0.000000 0.000897 0.000000
# 4 0.000000 0.000000 0.000000 -0.080798 0.000000 0.017437
# 5 0.002164 -0.001296 0.000897 0.000000 0.015750 0.000000
# 6 0.000000 0.000000 0.000000 0.017437 0.000000 0.010390
#
#
# Mechanical properties :
#
#
# Convention : Reuss Voigt Hill
#
# Bulk Modulus (GPa) = 58.82566 88.40920 73.61743
# Shear Modulus (GPa) = -3879.28899 46.48761 -1916.40069
#
# Velocity S-wave (km/s) = -38.33372 4.19637 -26.94313
# Velocity P-wave (km/s) = 44.01153 7.54776 30.65980
#
# Compressibility (1/GPa) = 0.01699938
#
# Stress axis : x y z
#
# Youngs Moduli (GPa) = 188.15157 57.62595 103.27697
#
# Poissons Ratio (x) = 0.13429 0.25597
# Poissons Ratio (y) = 0.43847 0.29608
# Poissons Ratio (z) = 0.46633 0.16520
#
# Static dielectric constant tensor:
#      x y z
#    x 2.035630 0.000000 -0.030590 
#    y 0.000000 2.122250 0.000000 
#    z -0.030590 0.000000 2.175450 
# 
# From -- ./inp_files/12333.got.cif
#   From: 2010.05.17/outbox.cif.g08.bks.cpg/sg15_7_cif.got.tgz:12333.got - 2010.06.03 18:47:42.
