data_PCOD9304952
_publ_section_title
;
Structure prediction by ZEFSAII (Michael W. Deem and Ramdas Pophale) SiO2 
 PCOD9304952
Probable space group: C 2/C
;
_chemical_formula_sum "Si O2"
_cell_formula_units_Z 40
_cell_length_a 23.018374
_cell_length_b 7.780604
_cell_length_c 24.071761
_cell_angle_alpha 90.000000
_cell_angle_beta 155.106562
_cell_angle_gamma 90.000000
_cell_volume 1814.711895
_symmetry_space_group_name_H-M "C 2/C"
_symmetry_group_IT_number 15
_symmetry_cell_setting 'monoclinic'
loop_
_space_group_symop_operation_xyz
x,y,z
-x,y,1/2-z
-x,-y,-z
x,-y,1/2+z
1/2+x,1/2+y,z
1/2-x,1/2+y,1/2-z
1/2-x,1/2-y,-z
1/2+x,1/2-y,1/2+z
loop_
_atom_site_type_symbol
_atom_site_label
_atom_site_fract_x
_atom_site_fract_y
_atom_site_fract_z
Si Si1 0.837819 0.403061 0.104911
Si Si2 0.161370 0.679868 0.491709
Si Si3 0.295673 0.222302 0.684881
Si Si4 0.479202 0.076138 0.542587
Si Si5 0.446580 0.442764 0.265549
O O1 0.791631 0.404517 0.128699
O O2 0.000000 0.364844 0.250000
O O3 0.883759 0.111303 0.239917
O O4 0.750000 0.250000 0.000000
O O5 0.079100 0.563667 0.464551
O O6 0.318123 0.688721 0.648910
O O7 0.171016 0.568467 0.442828
O O8 0.072052 0.848798 0.404517
O O9 0.141374 0.281422 0.564288
O O10 0.379488 0.146604 0.808910
O O11 0.500000 0.000000 0.500000
O O12 0.500000 0.481811 0.250000
#
# Coordination Sequence:
#
# PCOD9304952 Si02
#       5
#     8   8   8   8   8
#     4  12  20  39  72 105 135 179 225 286 352 425
#     4  11  25  41  65 101 146 176 226 290 345 425
#     4  11  24  44  74  96 139 182 233 287 353 427
#     4  11  26  46  71  99 130 189 244 285 338 413
#     4  11  24  39  62 104 140 177 214 279 362 418
#
# _framework density 22.042066999999999
#
# number of rings (size 3 to 8) (size 9 to 14) (size 15 to 20)
#    0.000    0.800    6.000    1.800    2.800    4.800 
#    0.000    2.000    0.000    0.000    0.000    0.000 
#    0.000    0.000    0.000    0.000    0.000    0.000 
#
# Total GULP energy -112007.242267 kJ/mol
# GULP energy per Si atom -5600.362113 kJ/mol
# Density = 2.199190 g / cm^3
# Si number density = 22.042067 Si / 1000 Ang^3
#
#
#
# Elastic Constant Matrix: (Units=GPa)
#
#
# Indices 1 2 3 4 5 6 
#
# 1 105.5846 23.0584 39.1262 0.0000 -23.9465 0.0000
# 2 23.0584 80.9814 43.1241 0.0000 -12.8999 0.0000
# 3 39.1262 43.1241 169.0648 0.0001 -11.9242 0.0000
# 4 0.0000 0.0000 0.0001 40.0382 0.0000 -16.2653
# 5 -23.9465 -12.8999 -11.9242 0.0000 36.0949 0.0000
# 6 0.0000 0.0000 0.0000 -16.2653 0.0000 13.2450
#
#
#
# Elastic Compliance Matrix: (Units=1/GPa)
#
#
# Indices 1 2 3 4 5 6 
#
# 1 0.012043 -0.001282 -0.001975 0.000000 0.006879 0.000000
# 2 -0.001282 0.015012 -0.003291 0.000000 0.003428 0.000000
# 3 -0.001975 -0.003291 0.007204 0.000000 -0.000107 0.000000
# 4 0.000000 0.000000 0.000000 0.049841 0.000000 0.061206
# 5 0.006879 0.003428 -0.000107 0.000000 0.033458 0.000000
# 6 0.000000 0.000000 0.000000 0.061206 0.000000 0.150663
#
#
# Mechanical properties :
#
#
# Convention : Reuss Voigt Hill
#
# Bulk Modulus (GPa) = 47.24993 62.91646 55.08319
# Shear Modulus (GPa) = 17.33884 34.56379 25.95131
#
# Velocity S-wave (km/s) = 2.80773 3.96420 3.43498
# Velocity P-wave (km/s) = 5.65631 7.03981 6.38564
#
# Compressibility (1/GPa) = 0.02116405
#
# Stress axis : x y z
#
# Youngs Moduli (GPa) = 83.03557 66.61406 138.81474
#
# Poissons Ratio (x) = 0.08537 0.27416
# Poissons Ratio (y) = 0.10641 0.45681
# Poissons Ratio (z) = 0.16400 0.21921
#
# Static dielectric constant tensor:
#      x y z
#    x 1.757800 0.000000 0.014640 
#    y 0.000000 1.874420 0.000000 
#    z 0.014640 0.000000 1.807250 
# 
# From -- ./inp_files/303141.got.cif
#   From: 2010.05.17/outbox.cif.g08.bks.cpg/sg15_152_cif.got.tgz:303141.got - 2010.06.03 18:47:42.
