data_PCOD9304565
_publ_section_title
;
Structure prediction by ZEFSAII (Michael W. Deem and Ramdas Pophale) SiO2 
 PCOD9304565
Probable space group: C 2/C
;
_chemical_formula_sum "Si O2"
_cell_formula_units_Z 48
_cell_length_a 14.186330
_cell_length_b 8.915570
_cell_length_c 26.038568
_cell_angle_alpha 90.000000
_cell_angle_beta 42.136095
_cell_angle_gamma 90.000000
_cell_volume 2209.480233
_symmetry_space_group_name_H-M "C 2/C"
_symmetry_group_IT_number 15
_symmetry_cell_setting 'monoclinic'
loop_
_space_group_symop_operation_xyz
x,y,z
-x,y,1/2-z
-x,-y,-z
x,-y,1/2+z
1/2+x,1/2+y,z
1/2-x,1/2+y,1/2-z
1/2-x,1/2-y,-z
1/2+x,1/2-y,1/2+z
loop_
_atom_site_type_symbol
_atom_site_label
_atom_site_fract_x
_atom_site_fract_y
_atom_site_fract_z
Si Si1 0.701803 0.127328 0.346067
Si Si2 0.156134 0.375034 0.012344
Si Si3 0.493151 0.324079 0.015481
Si Si4 0.953708 0.506268 0.180347
Si Si5 0.000000 0.253979 0.750000
Si Si6 0.000000 0.739710 0.750000
Si Si7 0.734321 0.888112 0.406693
O O1 0.604456 0.273000 0.396874
O O2 0.856096 0.165440 0.306047
O O3 0.684820 0.059525 0.295870
O O4 0.643900 0.994436 0.405508
O O5 0.064178 0.465233 0.091167
O O6 0.250000 0.250000 0.000000
O O7 0.071337 0.271568 0.005746
O O8 0.254094 0.500626 0.946097
O O9 0.500000 0.500000 0.000000
O O10 0.648645 0.256895 0.959150
O O11 0.970121 0.365232 0.212349
O O12 0.979525 0.643381 0.208258
O O13 0.865312 0.158663 0.819632
#
# Coordination Sequence:
#
# PCOD9304565 Si02
#       7
#     8   8   8   8   4   4   8
#     4  11  23  48  71 102 145 195 239 312 374 435
#     4  11  23  44  76 101 138 193 245 310 374 439
#     4  11  24  42  72 102 137 184 250 305 369 442
#     4  11  24  46  68 107 151 192 244 311 376 439
#     4  11  29  40  68 108 148 190 246 306 368 452
#     4  11  27  44  74 110 156 190 258 306 372 468
#     4  11  23  47  68 103 145 184 251 305 364 458
#
# _framework density 21.724565999999999
#
# number of rings (size 3 to 8) (size 9 to 14) (size 15 to 20)
#    0.000    1.000    3.333    3.500    9.333    2.000 
#    0.000    0.000    0.000    0.000    0.000    0.000 
#    0.000    0.000    0.000    0.000    0.000    0.000 
#
# Total GULP energy -133703.981001 kJ/mol
# GULP energy per Si atom -5570.999208 kJ/mol
# Density = 2.167512 g / cm^3
# Si number density = 21.724566 Si / 1000 Ang^3
#
#
#
# Elastic Constant Matrix: (Units=GPa)
#
#
# Indices 1 2 3 4 5 6 
#
# 1 97.2833 52.9243 41.9436 0.0000 4.6930 0.0000
# 2 52.9243 165.2380 58.5856 0.0000 -6.0956 -0.0001
# 3 41.9436 58.5856 107.6355 0.0000 -2.5082 0.0000
# 4 0.0000 0.0000 0.0000 27.0178 0.0000 1.8103
# 5 4.6930 -6.0956 -2.5082 0.0000 33.3389 0.0000
# 6 0.0000 -0.0001 0.0000 1.8103 0.0000 31.9199
#
#
#
# Elastic Compliance Matrix: (Units=1/GPa)
#
#
# Indices 1 2 3 4 5 6 
#
# 1 0.013741 -0.003200 -0.003678 0.000000 -0.002796 0.000000
# 2 -0.003200 0.008282 -0.003221 0.000000 0.001722 0.000000
# 3 -0.003678 -0.003221 0.012497 0.000000 0.000869 0.000000
# 4 0.000000 0.000000 0.000000 0.037154 0.000000 -0.002107
# 5 -0.002796 0.001722 0.000869 0.000000 0.030769 0.000000
# 6 0.000000 0.000000 0.000000 -0.002107 0.000000 0.031448
#
#
# Mechanical properties :
#
#
# Convention : Reuss Voigt Hill
#
# Bulk Modulus (GPa) = 69.82011 75.22930 72.52470
# Shear Modulus (GPa) = 31.47367 32.90222 32.18795
#
# Velocity S-wave (km/s) = 3.81039 3.89590 3.85338
# Velocity P-wave (km/s) = 7.18104 7.41224 7.29755
#
# Compressibility (1/GPa) = 0.01432252
#
# Stress axis : x y z
#
# Youngs Moduli (GPa) = 72.77584 120.73806 80.01823
#
# Poissons Ratio (x) = 0.38639 0.29429
# Poissons Ratio (y) = 0.23290 0.25773
# Poissons Ratio (z) = 0.26766 0.38888
#
# Static dielectric constant tensor:
#      x y z
#    x 1.917890 0.000000 -0.036440 
#    y 0.000000 1.810690 0.000000 
#    z -0.036440 0.000000 1.863800 
# 
# From -- ./inp_files/295427.got.cif
#   From: 2010.05.17/outbox.cif.g08.bks.cpg/sg15_148_cif.got.tgz:295427.got - 2010.06.03 18:47:42.
