data_PCOD9304892
_publ_section_title
;
Structure prediction by ZEFSAII (Michael W. Deem and Ramdas Pophale) SiO2 
 PCOD9304892
Probable space group: C 2/C
;
_chemical_formula_sum "Si O2"
_cell_formula_units_Z 60
_cell_length_a 19.067058
_cell_length_b 9.357754
_cell_length_c 22.236804
_cell_angle_alpha 90.000000
_cell_angle_beta 137.652829
_cell_angle_gamma 90.000000
_cell_volume 2672.658294
_symmetry_space_group_name_H-M "C 2/C"
_symmetry_group_IT_number 15
_symmetry_cell_setting 'monoclinic'
loop_
_space_group_symop_operation_xyz
x,y,z
-x,y,1/2-z
-x,-y,-z
x,-y,1/2+z
1/2+x,1/2+y,z
1/2-x,1/2+y,1/2-z
1/2-x,1/2-y,-z
1/2+x,1/2-y,1/2+z
loop_
_atom_site_type_symbol
_atom_site_label
_atom_site_fract_x
_atom_site_fract_y
_atom_site_fract_z
Si Si1 0.226671 0.465386 0.401680
Si Si2 0.134499 0.488473 0.721179
Si Si3 0.926425 0.132261 0.949821
Si Si4 0.090422 0.786014 0.855167
Si Si5 0.250000 0.250000 0.000000
Si Si6 0.230339 0.976976 0.388931
Si Si7 0.446917 0.135767 0.548152
Si Si8 0.704256 0.328564 0.245257
O O1 0.139203 0.501849 0.296017
O O2 0.325975 0.410923 0.426591
O O3 0.181355 0.330292 0.407458
O O4 0.245968 0.592780 0.460007
O O5 0.196436 0.619599 0.729905
O O6 0.197351 0.341717 0.749759
O O7 0.020546 0.508950 0.620011
O O8 0.892775 0.145832 0.859793
O O9 0.978476 0.276197 0.008749
O O10 0.000000 0.000000 0.000000
O O11 0.051683 0.756380 0.898121
O O12 0.000000 0.754696 0.750000
O O13 0.138393 0.935678 0.863730
O O14 0.248762 0.333108 0.062317
O O15 0.202388 0.925930 0.303703
O O16 0.334566 0.072072 0.459242
#
# Coordination Sequence:
#
# PCOD9304892 Si02
#       8
#     8   8   8   8   4   8   8   8
#     4  11  23  48  72 107 148 185 240 302 365 428
#     4  11  26  45  74 107 145 191 239 300 368 431
#     4  11  27  45  74 105 140 188 246 302 357 432
#     4  12  25  46  76 107 143 197 242 298 367 440
#     4  12  24  44  76 104 146 192 234 306 364 430
#     4  12  26  47  74 105 147 190 247 299 365 436
#     4  12  25  45  77 107 144 191 248 294 368 442
#     4  11  27  48  70 104 148 189 241 306 364 431
#
# _framework density 22.449559000000001
#
# number of rings (size 3 to 8) (size 9 to 14) (size 15 to 20)
#    0.000    0.533    5.333    2.000    7.467    3.200 
#    2.400    0.667    0.000    0.000    0.000    0.000 
#    0.000    0.000    0.000    0.000    0.000    0.000 
#
# Total GULP energy -167129.621425 kJ/mol
# GULP energy per Si atom -5570.987381 kJ/mol
# Density = 2.239846 g / cm^3
# Si number density = 22.449559 Si / 1000 Ang^3
#
#
#
# Elastic Constant Matrix: (Units=GPa)
#
#
# Indices 1 2 3 4 5 6 
#
# 1 36.5101 14.4821 32.1065 0.0000 -18.4757 0.0000
# 2 14.4821 73.5097 47.2632 0.0000 2.9104 0.0000
# 3 32.1065 47.2632 129.1097 0.0000 -41.7681 0.0000
# 4 0.0000 0.0000 0.0000 26.1526 0.0000 -19.7851
# 5 -18.4757 2.9104 -41.7681 0.0000 39.9544 0.0000
# 6 0.0000 0.0000 0.0000 -19.7851 0.0000 33.2260
#
#
#
# Elastic Compliance Matrix: (Units=1/GPa)
#
#
# Indices 1 2 3 4 5 6 
#
# 1 0.040857 -0.007760 -0.001548 0.000000 0.017840 0.000000
# 2 -0.007760 0.024368 -0.013185 0.000000 -0.019147 0.000000
# 3 -0.001548 -0.013185 0.019697 0.000000 0.020836 0.000000
# 4 0.000000 0.000000 0.000000 0.069584 0.000000 0.041435
# 5 0.017840 -0.019147 0.020836 0.000000 0.056455 0.000000
# 6 0.000000 0.000000 0.000000 0.041435 0.000000 0.054770
#
#
# Mechanical properties :
#
#
# Convention : Reuss Voigt Hill
#
# Bulk Modulus (GPa) = 25.03971 47.42590 36.23280
# Shear Modulus (GPa) = 15.43073 29.55180 22.49127
#
# Velocity S-wave (km/s) = 2.62458 3.63211 3.16865
# Velocity P-wave (km/s) = 4.51249 6.22584 5.43708
#
# Compressibility (1/GPa) = 0.03993657
#
# Stress axis : x y z
#
# Youngs Moduli (GPa) = 24.47562 41.03813 50.76812
#
# Poissons Ratio (x) = 0.31847 0.07858
# Poissons Ratio (y) = 0.18994 0.66935
# Poissons Ratio (z) = 0.03788 0.54107
#
# Static dielectric constant tensor:
#      x y z
#    x 1.870010 0.000000 0.051780 
#    y 0.000000 1.857320 0.000000 
#    z 0.051780 0.000000 1.821830 
# 
# From -- ./inp_files/279732.got.cif
#   From: 2010.05.17/outbox.cif.g08.bks.cpg/sg15_140_cif.got.tgz:279732.got - 2010.06.03 18:47:42.
