data_PCOD9304210
_publ_section_title
;
Structure prediction by ZEFSAII (Michael W. Deem and Ramdas Pophale) SiO2 
 PCOD9304210
Probable space group: C 2/C
;
_chemical_formula_sum "Si O2"
_cell_formula_units_Z 36
_cell_length_a 15.303265
_cell_length_b 16.716860
_cell_length_c 14.503288
_cell_angle_alpha 90.000000
_cell_angle_beta 29.938745
_cell_angle_gamma 90.000000
_cell_volume 1851.697695
_symmetry_space_group_name_H-M "C 2/C"
_symmetry_group_IT_number 15
_symmetry_cell_setting 'monoclinic'
loop_
_space_group_symop_operation_xyz
x,y,z
-x,y,1/2-z
-x,-y,-z
x,-y,1/2+z
1/2+x,1/2+y,z
1/2-x,1/2+y,1/2-z
1/2-x,1/2-y,-z
1/2+x,1/2-y,1/2+z
loop_
_atom_site_type_symbol
_atom_site_label
_atom_site_fract_x
_atom_site_fract_y
_atom_site_fract_z
Si Si1 0.420868 0.789702 0.144623
Si Si2 0.458473 0.633703 0.530183
Si Si3 0.917578 0.993491 0.223965
Si Si4 0.857723 0.591811 0.961395
Si Si5 0.000000 0.817223 0.750000
O O1 0.236871 0.834069 0.310864
O O2 0.568603 0.857499 0.019586
O O3 0.464417 0.740783 0.197563
O O4 0.432578 0.716427 0.062415
O O5 0.519945 0.572389 0.392417
O O6 0.458030 0.581172 0.622564
O O7 0.000000 0.985267 0.250000
O O8 0.713477 0.009158 0.432032
O O9 0.000000 0.584374 0.750000
O O10 0.683376 0.634353 0.078740
#
# Coordination Sequence:
#
# PCOD9304210 Si02
#       5
#     8   8   8   8   4
#     4  12  20  37  58  96 123 155 209 250 305 377
#     4  11  24  39  66  90 126 163 207 260 314 366
#     4  11  23  43  60  90 128 168 203 257 312 370
#     4  12  22  34  65  96 123 162 205 252 322 374
#     4  12  20  34  60  96 128 154 190 270 314 354
#
# _framework density 19.441617999999998
#
# number of rings (size 3 to 8) (size 9 to 14) (size 15 to 20)
#    0.000    0.444    6.667    3.333    0.000    0.889 
#    0.000    3.333    0.000    0.000    0.000    0.000 
#    0.000    0.000    0.000    0.000    0.000    0.000 
#
# Total GULP energy -100328.141227 kJ/mol
# GULP energy per Si atom -5573.785624 kJ/mol
# Density = 1.939737 g / cm^3
# Si number density = 19.441618 Si / 1000 Ang^3
#
#
#
# Elastic Constant Matrix: (Units=GPa)
#
#
# Indices 1 2 3 4 5 6 
#
# 1 68.3449 36.2832 43.2390 0.0006 16.9825 -0.0005
# 2 36.2832 89.7267 49.9747 0.0001 16.4609 -0.0004
# 3 43.2390 49.9747 122.5919 0.0015 1.0400 -0.0009
# 4 0.0006 0.0001 0.0015 31.2930 -0.0006 11.4457
# 5 16.9825 16.4609 1.0400 -0.0006 31.2871 0.0003
# 6 -0.0005 -0.0004 -0.0009 11.4457 0.0003 14.0812
#
#
#
# Elastic Compliance Matrix: (Units=1/GPa)
#
#
# Indices 1 2 3 4 5 6 
#
# 1 0.023482 -0.003894 -0.006606 -0.000001 -0.010477 0.000001
# 2 -0.003894 0.017004 -0.005502 0.000000 -0.006650 0.000000
# 3 -0.006606 -0.005502 0.012678 -0.000001 0.006059 0.000001
# 4 -0.000001 0.000000 -0.000001 0.045476 0.000002 -0.036964
# 5 -0.010477 -0.006650 0.006059 0.000002 0.040946 -0.000003
# 6 0.000001 0.000000 0.000001 -0.036964 -0.000003 0.101063
#
#
# Mechanical properties :
#
#
# Convention : Reuss Voigt Hill
#
# Bulk Modulus (GPa) = 47.25749 59.96194 53.60972
# Shear Modulus (GPa) = 17.87593 25.41004 21.64298
#
# Velocity S-wave (km/s) = 3.03556 3.61916 3.34013
# Velocity P-wave (km/s) = 6.05362 6.95510 6.51996
#
# Compressibility (1/GPa) = 0.02116067
#
# Stress axis : x y z
#
# Youngs Moduli (GPa) = 42.58641 58.81046 78.87375
#
# Poissons Ratio (x) = 0.22901 0.52103
# Poissons Ratio (y) = 0.16583 0.43394
# Poissons Ratio (z) = 0.28132 0.32356
#
# Static dielectric constant tensor:
#      x y z
#    x 1.695900 0.000000 0.027890 
#    y 0.000000 1.762840 0.000000 
#    z 0.027890 0.000000 1.770850 
# 
# From -- ./inp_files/155034.got.cif
#   From: 2010.05.17/outbox.cif.g08.bks.cpg/sg15_78_cif.got.tgz:155034.got - 2010.06.03 18:47:42.
