data_PCOD9304787
_publ_section_title
;
Structure prediction by ZEFSAII (Michael W. Deem and Ramdas Pophale) SiO2 
 PCOD9304787
Probable space group: C 2/C
;
_chemical_formula_sum "Si O2"
_cell_formula_units_Z 40
_cell_length_a 13.668650
_cell_length_b 9.526504
_cell_length_c 24.800864
_cell_angle_alpha 90.000000
_cell_angle_beta 149.610790
_cell_angle_gamma 90.000000
_cell_volume 1633.676459
_symmetry_space_group_name_H-M "C 2/C"
_symmetry_group_IT_number 15
_symmetry_cell_setting 'monoclinic'
loop_
_space_group_symop_operation_xyz
x,y,z
-x,y,1/2-z
-x,-y,-z
x,-y,1/2+z
1/2+x,1/2+y,z
1/2-x,1/2+y,1/2-z
1/2-x,1/2-y,-z
1/2+x,1/2-y,1/2+z
loop_
_atom_site_type_symbol
_atom_site_label
_atom_site_fract_x
_atom_site_fract_y
_atom_site_fract_z
Si Si1 0.605266 0.793835 0.741657
Si Si2 0.699205 0.671352 0.422499
Si Si3 0.046685 0.598789 0.441524
Si Si4 0.015271 0.832819 0.512166
Si Si5 0.871572 0.010822 0.242104
O O1 0.500000 0.810587 0.750000
O O2 0.509828 0.884026 0.648511
O O3 0.827750 0.813251 0.865474
O O4 0.598225 0.636029 0.714317
O O5 0.750000 0.750000 0.500000
O O6 0.469021 0.650395 0.311276
O O7 0.787517 0.514837 0.469909
O O8 0.809381 0.762077 0.429729
O O9 0.852751 0.530753 0.374264
O O10 0.084332 0.743529 0.492194
O O11 0.000000 0.000000 0.500000
O O12 0.000000 0.994214 0.250000
#
# Coordination Sequence:
#
# PCOD9304787 Si02
#       5
#     8   8   8   8   8
#     4  11  27  46  74 110 150 199 256 306 381 454
#     4  12  27  47  76 110 149 204 257 307 386 461
#     4  12  26  50  79 106 160 201 247 322 378 449
#     4  12  28  49  76 113 152 196 261 319 381 459
#     4  11  23  46  75 103 145 201 250 302 379 450
#
# _framework density 24.484653000000002
#
# number of rings (size 3 to 8) (size 9 to 14) (size 15 to 20)
#    0.000    0.400    4.000    4.200    8.400    1.600 
#    0.000    0.000    0.000    0.000    0.000    0.000 
#    0.000    0.000    0.000    0.000    0.000    0.000 
#
# Total GULP energy -111768.931290 kJ/mol
# GULP energy per Si atom -5588.446564 kJ/mol
# Density = 2.442893 g / cm^3
# Si number density = 24.484653 Si / 1000 Ang^3
#
#
#
# Elastic Constant Matrix: (Units=GPa)
#
#
# Indices 1 2 3 4 5 6 
#
# 1 78.7548 23.8749 9.4682 0.0000 -23.4491 0.0000
# 2 23.8749 145.3182 25.9676 0.0001 -12.7088 0.0000
# 3 9.4682 25.9676 111.1565 0.0003 -3.0075 0.0000
# 4 0.0000 0.0001 0.0003 45.5915 0.0000 -10.3842
# 5 -23.4491 -12.7088 -3.0075 0.0000 44.5921 0.0000
# 6 0.0000 0.0000 0.0000 -10.3842 0.0000 33.5384
#
#
#
# Elastic Compliance Matrix: (Units=1/GPa)
#
#
# Indices 1 2 3 4 5 6 
#
# 1 0.015596 -0.001767 -0.000709 0.000000 0.007650 0.000000
# 2 -0.001767 0.007552 -0.001584 0.000000 0.001117 0.000000
# 3 -0.000709 -0.001584 0.009422 0.000000 -0.000189 0.000000
# 4 0.000000 0.000000 0.000000 0.023598 0.000000 0.007306
# 5 0.007650 0.001117 -0.000189 0.000000 0.026754 0.000000
# 6 0.000000 0.000000 0.000000 0.007306 0.000000 0.032079
#
#
# Mechanical properties :
#
#
# Convention : Reuss Voigt Hill
#
# Bulk Modulus (GPa) = 40.89650 50.42788 45.66219
# Shear Modulus (GPa) = 38.08953 43.13899 40.61426
#
# Velocity S-wave (km/s) = 3.94845 4.20203 4.07721
# Velocity P-wave (km/s) = 6.12586 6.64704 6.39177
#
# Compressibility (1/GPa) = 0.02445197
#
# Stress axis : x y z
#
# Youngs Moduli (GPa) = 64.11805 132.40920 106.13965
#
# Poissons Ratio (x) = 0.23392 0.07523
# Poissons Ratio (y) = 0.11328 0.16809
# Poissons Ratio (z) = 0.04544 0.20969
#
# Static dielectric constant tensor:
#      x y z
#    x 2.041790 0.000000 -0.002590 
#    y 0.000000 2.003300 0.000000 
#    z -0.002590 0.000000 1.985010 
# 
# From -- ./inp_files/313249.got.cif
#   From: 2010.05.17/outbox.cif.g08.bks.cpg/sg15_157_cif.got.tgz:313249.got - 2010.06.03 18:47:42.
