data_PCOD9304705
_publ_section_title
;
Structure prediction by ZEFSAII (Michael W. Deem and Ramdas Pophale) SiO2 
 PCOD9304705
Probable space group: C 2/C
;
_chemical_formula_sum "Si O2"
_cell_formula_units_Z 40
_cell_length_a 24.936111
_cell_length_b 10.808665
_cell_length_c 18.741443
_cell_angle_alpha 90.000000
_cell_angle_beta 162.172674
_cell_angle_gamma 90.000000
_cell_volume 1546.454593
_symmetry_space_group_name_H-M "C 2/C"
_symmetry_group_IT_number 15
_symmetry_cell_setting 'monoclinic'
loop_
_space_group_symop_operation_xyz
x,y,z
-x,y,1/2-z
-x,-y,-z
x,-y,1/2+z
1/2+x,1/2+y,z
1/2-x,1/2+y,1/2-z
1/2-x,1/2-y,-z
1/2+x,1/2-y,1/2+z
loop_
_atom_site_type_symbol
_atom_site_label
_atom_site_fract_x
_atom_site_fract_y
_atom_site_fract_z
Si Si1 0.742818 0.362974 0.044805
Si Si2 0.208730 0.024648 0.865392
Si Si3 0.293042 0.313586 0.962209
Si Si4 0.843176 0.959647 0.422896
Si Si5 0.464969 0.975067 0.573283
O O1 0.630048 0.368588 0.974406
O O2 0.927806 0.403512 0.314499
O O3 0.750000 0.250000 0.000000
O O4 0.707231 0.476813 0.945104
O O5 0.021685 0.972724 0.605329
O O6 0.241638 0.169759 0.895441
O O7 0.369070 0.975421 0.022596
O O8 0.305619 0.404605 0.909802
O O9 0.107437 0.365568 0.761048
O O10 0.500000 0.317763 0.250000
O O11 0.683620 0.930870 0.169028
#
# Coordination Sequence:
#
# PCOD9304705 Si02
#       5
#     8   8   8   8   8
#     4  11  25  48  74 102 146 206 252 298 372 465
#     4  12  25  45  75 111 144 192 254 309 379 457
#     4  11  23  45  77 106 141 192 253 317 375 446
#     4  11  25  48  71 106 156 195 246 313 385 452
#     4  11  25  48  72 107 153 192 253 314 386 451
#
# _framework density 25.865617
#
# number of rings (size 3 to 8) (size 9 to 14) (size 15 to 20)
#    0.000    0.800    0.000    9.000    0.000    9.600 
#   21.600    0.000    0.000    0.000    0.000    0.000 
#    0.000    0.000    0.000    0.000    0.000    0.000 
#
# Total GULP energy -111443.589870 kJ/mol
# GULP energy per Si atom -5572.179494 kJ/mol
# Density = 2.580675 g / cm^3
# Si number density = 25.865617 Si / 1000 Ang^3
#
#
#
# Elastic Constant Matrix: (Units=GPa)
#
#
# Indices 1 2 3 4 5 6 
#
# 1 124.2516 -2.0950 60.7295 -0.0003 14.1874 -0.0001
# 2 -2.0950 100.3969 39.4607 -0.0002 -0.4732 -0.0001
# 3 60.7295 39.4607 135.3993 -0.0008 16.8724 -0.0004
# 4 -0.0003 -0.0002 -0.0008 10.9385 -0.0004 16.9117
# 5 14.1874 -0.4732 16.8724 -0.0004 61.7044 -0.0002
# 6 -0.0001 -0.0001 -0.0004 16.9117 -0.0002 34.5462
#
#
#
# Elastic Compliance Matrix: (Units=1/GPa)
#
#
# Indices 1 2 3 4 5 6 
#
# 1 0.010857 0.002357 -0.005433 0.000000 -0.000993 0.000000
# 2 0.002357 0.011823 -0.004604 0.000000 0.000807 0.000000
# 3 -0.005433 -0.004604 0.011401 0.000002 -0.001904 -0.000001
# 4 0.000000 0.000000 0.000002 0.376003 0.000001 -0.184068
# 5 -0.000993 0.000807 -0.001904 0.000001 0.016961 -0.000001
# 6 0.000000 0.000000 -0.000001 -0.184068 -0.000001 0.119055
#
#
# Mechanical properties :
#
#
# Convention : Reuss Voigt Hill
#
# Bulk Modulus (GPa) = 53.41174 61.80424 57.60799
# Shear Modulus (GPa) = 8.80749 38.90133 23.85441
#
# Velocity S-wave (km/s) = 1.84729 3.88232 3.04014
# Velocity P-wave (km/s) = 5.02439 6.63648 5.88589
#
# Compressibility (1/GPa) = 0.01872247
#
# Stress axis : x y z
#
# Youngs Moduli (GPa) = 92.11018 84.58195 87.71080
#
# Poissons Ratio (x) = -0.19937 0.47650
# Poissons Ratio (y) = -0.21712 0.40378
# Poissons Ratio (z) = 0.50041 0.38937
#
# Static dielectric constant tensor:
#      x y z
#    x 2.493910 0.000000 0.152770 
#    y 0.000000 2.157410 0.000000 
#    z 0.152770 0.000000 2.191470 
# 
# From -- ./inp_files/219632.got.cif
#   From: 2010.05.17/outbox.cif.g08.bks.cpg/sg15_110_cif.got.tgz:219632.got - 2010.06.03 18:47:42.
