data_PCOD9304538
_publ_section_title
;
Structure prediction by ZEFSAII (Michael W. Deem and Ramdas Pophale) SiO2 
 PCOD9304538
Probable space group: C 2/C
;
_chemical_formula_sum "Si O2"
_cell_formula_units_Z 60
_cell_length_a 14.828443
_cell_length_b 11.465039
_cell_length_c 17.862606
_cell_angle_alpha 90.000000
_cell_angle_beta 120.465203
_cell_angle_gamma 90.000000
_cell_volume 2617.529306
_symmetry_space_group_name_H-M "C 2/C"
_symmetry_group_IT_number 15
_symmetry_cell_setting 'monoclinic'
loop_
_space_group_symop_operation_xyz
x,y,z
-x,y,1/2-z
-x,-y,-z
x,-y,1/2+z
1/2+x,1/2+y,z
1/2-x,1/2+y,1/2-z
1/2-x,1/2-y,-z
1/2+x,1/2-y,1/2+z
loop_
_atom_site_type_symbol
_atom_site_label
_atom_site_fract_x
_atom_site_fract_y
_atom_site_fract_z
Si Si1 0.632394 0.369127 0.244146
Si Si2 0.335496 0.064164 0.747991
Si Si3 0.621397 0.013700 0.076304
Si Si4 0.649653 0.798564 0.999327
Si Si5 0.000000 0.260437 0.250000
Si Si6 0.952696 0.933037 0.049790
Si Si7 0.835991 0.074170 0.121925
Si Si8 0.389841 0.125372 0.175431
O O1 0.732164 0.369489 0.231643
O O2 0.533185 0.391460 0.148578
O O3 0.638565 0.481585 0.300941
O O4 0.626805 0.250833 0.291351
O O5 0.369036 0.980047 0.830879
O O6 0.426233 0.156867 0.769237
O O7 0.311686 0.975611 0.669520
O O8 0.710019 0.098144 0.076641
O O9 0.667805 0.887854 0.072226
O O10 0.500000 0.000000 0.000000
O O11 0.589600 0.687056 0.001550
O O12 0.597837 0.863330 0.907750
O O13 0.750000 0.750000 0.000000
O O14 0.083278 0.180278 0.330575
O O15 0.865956 0.009218 0.057369
O O16 0.000000 0.000000 0.000000
O O17 0.500000 0.079624 0.250000
#
# Coordination Sequence:
#
# PCOD9304538 Si02
#       8
#     8   8   8   8   4   8   8   8
#     4  11  23  44  73 102 135 181 247 286 351 420
#     4  11  28  43  69 105 135 194 234 297 352 425
#     4  11  26  46  68 103 142 182 236 292 366 414
#     4  12  24  43  74 100 140 182 233 305 351 417
#     4  12  26  46  70  96 150 178 244 284 362 430
#     4  12  25  41  68 112 138 180 235 297 362 419
#     4  11  23  47  72  99 142 193 228 295 355 427
#     4  12  22  45  73  97 133 183 245 285 343 422
#
# _framework density 22.922378999999999
#
# number of rings (size 3 to 8) (size 9 to 14) (size 15 to 20)
#    0.000    0.533    6.000    1.600    7.467    0.000 
#    0.000    0.667    0.000    0.000    0.000    0.000 
#    0.000    0.000    0.000    0.000    0.000    0.000 
#
# Total GULP energy -167587.995419 kJ/mol
# GULP energy per Si atom -5586.266514 kJ/mol
# Density = 2.287021 g / cm^3
# Si number density = 22.922379 Si / 1000 Ang^3
#
#
#
# Elastic Constant Matrix: (Units=GPa)
#
#
# Indices 1 2 3 4 5 6 
#
# 1 137.5255 29.7450 5.9734 0.0000 -4.5760 0.0000
# 2 29.7450 83.9075 12.7215 0.0000 -15.7130 0.0000
# 3 5.9734 12.7215 34.0876 0.0000 -4.5765 0.0000
# 4 0.0000 0.0000 0.0000 26.5433 0.0000 -8.5408
# 5 -4.5760 -15.7130 -4.5765 0.0000 43.4168 0.0000
# 6 0.0000 0.0000 0.0000 -8.5408 0.0000 48.9929
#
#
#
# Elastic Compliance Matrix: (Units=1/GPa)
#
#
# Indices 1 2 3 4 5 6 
#
# 1 0.007881 -0.002777 -0.000373 0.000000 -0.000214 0.000000
# 2 -0.002777 0.014388 -0.004284 0.000000 0.004463 0.000000
# 3 -0.000373 -0.004284 0.031229 0.000000 0.001702 0.000000
# 4 0.000000 0.000000 0.000000 0.039913 0.000000 0.006958
# 5 -0.000214 0.004463 0.001702 0.000000 0.024805 0.000000
# 6 0.000000 0.000000 0.000000 0.006958 0.000000 0.021624
#
#
# Mechanical properties :
#
#
# Convention : Reuss Voigt Hill
#
# Bulk Modulus (GPa) = 25.88719 39.15560 32.52140
# Shear Modulus (GPa) = 29.83576 37.59599 33.71587
#
# Velocity S-wave (km/s) = 3.61168 4.05426 3.83935
# Velocity P-wave (km/s) = 5.35820 6.24780 5.82002
#
# Compressibility (1/GPa) = 0.03862914
#
# Stress axis : x y z
#
# Youngs Moduli (GPa) = 126.88468 69.50427 32.02173
#
# Poissons Ratio (x) = 0.19303 0.01195
# Poissons Ratio (y) = 0.35240 0.13717
# Poissons Ratio (z) = 0.04737 0.29773
#
# Static dielectric constant tensor:
#      x y z
#    x 1.945590 0.000000 0.064600 
#    y 0.000000 1.703760 0.000000 
#    z 0.064600 0.000000 1.826480 
# 
# From -- ./inp_files/204510.got.cif
#   From: 2010.05.17/outbox.cif.g08.bks.cpg/sg15_103_cif.got.tgz:204510.got - 2010.06.03 18:47:42.
