data_PCOD9304365
_publ_section_title
;
Structure prediction by ZEFSAII (Michael W. Deem and Ramdas Pophale) SiO2 
 PCOD9304365
Probable space group: C 2/C
;
_chemical_formula_sum "Si O2"
_cell_formula_units_Z 48
_cell_length_a 10.031969
_cell_length_b 10.703562
_cell_length_c 21.114036
_cell_angle_alpha 90.000000
_cell_angle_beta 57.248797
_cell_angle_gamma 90.000000
_cell_volume 1906.760052
_symmetry_space_group_name_H-M "C 2/C"
_symmetry_group_IT_number 15
_symmetry_cell_setting 'monoclinic'
loop_
_space_group_symop_operation_xyz
x,y,z
-x,y,1/2-z
-x,-y,-z
x,-y,1/2+z
1/2+x,1/2+y,z
1/2-x,1/2+y,1/2-z
1/2-x,1/2-y,-z
1/2+x,1/2-y,1/2+z
loop_
_atom_site_type_symbol
_atom_site_label
_atom_site_fract_x
_atom_site_fract_y
_atom_site_fract_z
Si Si1 0.674999 0.550441 0.005576
Si Si2 0.279991 0.078449 0.590312
Si Si3 0.481253 0.065455 0.855101
Si Si4 0.500000 0.349872 0.250000
Si Si5 0.345232 0.171152 0.193575
Si Si6 0.479589 0.714708 0.974624
Si Si7 0.000000 0.781259 0.750000
O O1 0.584592 0.676202 0.009490
O O2 0.803678 0.528346 0.917928
O O3 0.834262 0.301688 0.034675
O O4 0.568322 0.425449 0.035250
O O5 0.267065 0.957934 0.548339
O O6 0.112834 0.088653 0.668742
O O7 0.417164 0.073454 0.606885
O O8 0.573254 0.951845 0.799306
O O9 0.474882 0.189631 0.816011
O O10 0.373373 0.273540 0.240171
O O11 0.432144 0.218540 0.106805
O O12 0.161944 0.148552 0.224496
#
# Coordination Sequence:
#
# PCOD9304365 Si02
#       7
#     8   8   8   4   8   8   4
#     4  11  23  43  72 105 137 186 245 296 362 441
#     4  12  25  45  69 106 144 184 243 301 365 435
#     4  12  26  44  74 103 144 194 242 304 372 436
#     4  12  25  47  72 100 144 188 237 305 360 428
#     4  12  25  49  73 104 148 194 243 307 369 438
#     4  11  24  43  76 101 138 190 243 300 361 440
#     4  12  27  51  70 110 154 192 251 309 368 438
#
# _framework density 25.173593
#
# number of rings (size 3 to 8) (size 9 to 14) (size 15 to 20)
#    0.000    0.333    6.667    2.500    0.000    2.667 
#    3.000    0.000    0.000    0.000    0.000    0.000 
#    0.000    0.000    0.000    0.000    0.000    0.000 
#
# Total GULP energy -134361.749394 kJ/mol
# GULP energy per Si atom -5598.406225 kJ/mol
# Density = 2.511630 g / cm^3
# Si number density = 25.173593 Si / 1000 Ang^3
#
#
#
# Elastic Constant Matrix: (Units=GPa)
#
#
# Indices 1 2 3 4 5 6 
#
# 1 122.5482 26.3579 35.3280 0.0000 -0.2785 0.0000
# 2 26.3579 76.7157 23.5565 0.0000 1.5601 0.0000
# 3 35.3280 23.5565 103.2629 0.0000 -8.0305 0.0000
# 4 0.0000 0.0000 0.0000 9.8659 0.0000 -1.7931
# 5 -0.2785 1.5601 -8.0305 0.0000 63.2144 0.0000
# 6 0.0000 0.0000 0.0000 -1.7931 0.0000 29.4305
#
#
#
# Elastic Compliance Matrix: (Units=1/GPa)
#
#
# Indices 1 2 3 4 5 6 
#
# 1 0.009458 -0.002414 -0.002704 0.000000 -0.000242 0.000000
# 2 -0.002414 0.014670 -0.002575 0.000000 -0.000700 0.000000
# 3 -0.002704 -0.002575 0.011312 0.000000 0.001489 0.000000
# 4 0.000000 0.000000 0.000000 0.102494 0.000000 0.006245
# 5 -0.000242 -0.000700 0.001489 0.000000 0.016024 0.000000
# 6 0.000000 0.000000 0.000000 0.006245 0.000000 0.034359
#
#
# Mechanical properties :
#
#
# Convention : Reuss Voigt Hill
#
# Bulk Modulus (GPa) = 49.86617 52.55685 51.21151
# Shear Modulus (GPa) = 23.76561 34.98781 29.37671
#
# Velocity S-wave (km/s) = 3.07590 3.73213 3.41979
# Velocity P-wave (km/s) = 5.69797 6.28449 5.99840
#
# Compressibility (1/GPa) = 0.02005368
#
# Stress axis : x y z
#
# Youngs Moduli (GPa) = 105.72744 68.16834 88.40012
#
# Poissons Ratio (x) = 0.16459 0.23902
# Poissons Ratio (y) = 0.25528 0.22761
# Poissons Ratio (z) = 0.28587 0.17552
#
# Static dielectric constant tensor:
#      x y z
#    x 2.261000 0.000000 -0.225980 
#    y 0.000000 2.002630 0.000000 
#    z -0.225980 0.000000 2.395660 
# 
# From -- ./inp_files/263526.got.cif
#   From: 2010.05.17/outbox.cif.g08.bks.cpg/sg15_132_cif.got.tgz:263526.got - 2010.06.03 18:47:42.
