data_PCOD9304357
_publ_section_title
;
Structure prediction by ZEFSAII (Michael W. Deem and Ramdas Pophale) SiO2 
 PCOD9304357
Probable space group: C 2/C
;
_chemical_formula_sum "Si O2"
_cell_formula_units_Z 64
_cell_length_a 18.036633
_cell_length_b 16.467937
_cell_length_c 14.254376
_cell_angle_alpha 90.000000
_cell_angle_beta 41.093255
_cell_angle_gamma 90.000000
_cell_volume 2782.900046
_symmetry_space_group_name_H-M "C 2/C"
_symmetry_group_IT_number 15
_symmetry_cell_setting 'monoclinic'
loop_
_space_group_symop_operation_xyz
x,y,z
-x,y,1/2-z
-x,-y,-z
x,-y,1/2+z
1/2+x,1/2+y,z
1/2-x,1/2+y,1/2-z
1/2-x,1/2-y,-z
1/2+x,1/2-y,1/2+z
loop_
_atom_site_type_symbol
_atom_site_label
_atom_site_fract_x
_atom_site_fract_y
_atom_site_fract_z
Si Si1 0.565713 0.668565 0.421179
Si Si2 0.955386 0.671961 0.991209
Si Si3 0.346779 0.057475 0.630331
Si Si4 0.290559 0.806829 0.824310
Si Si5 0.475971 0.474606 0.674701
Si Si6 0.616616 0.945093 0.081826
Si Si7 0.361644 0.361681 0.258443
Si Si8 0.267665 0.479338 0.586861
O O1 0.518179 0.744437 0.408051
O O2 0.674680 0.696535 0.375250
O O3 0.578474 0.587800 0.346309
O O4 0.467750 0.651855 0.589843
O O5 0.049413 0.604231 0.923255
O O6 0.880396 0.638996 0.977745
O O7 0.884840 0.680842 0.154014
O O8 0.247048 0.119183 0.700381
O O9 0.378765 0.013236 0.503532
O O10 0.295586 0.995993 0.754848
O O11 0.330626 0.723799 0.837073
O O12 0.270212 0.887895 0.904585
O O13 0.500000 0.431415 0.750000
O O14 0.397870 0.553403 0.772011
O O15 0.599648 0.505434 0.523756
O O16 0.500000 0.950682 0.250000
O O17 0.716967 0.959508 0.058929
#
# Coordination Sequence:
#
# PCOD9304357 Si02
#       8
#     8   8   8   8   8   8   8   8
#     4  11  23  44  71 103 136 188 238 288 356 420
#     4  11  24  42  69 102 143 181 233 295 351 419
#     4  12  22  45  70 100 139 191 236 285 354 420
#     4  11  23  43  72 103 134 185 241 291 353 414
#     4  12  26  44  69 105 143 186 238 288 354 422
#     4  12  25  41  68 105 144 186 236 288 355 426
#     4  11  23  44  73  99 133 184 241 291 348 422
#     4  12  24  44  71 103 144 190 231 292 351 424
#
# _framework density 22.997592000000001
#
# number of rings (size 3 to 8) (size 9 to 14) (size 15 to 20)
#    0.000    0.500    6.250    3.000    1.750    0.500 
#    0.000    6.250    0.000    0.000    0.000    0.000 
#    0.000    0.000    0.000    0.000    0.000    0.000 
#
# Total GULP energy -178962.385333 kJ/mol
# GULP energy per Si atom -5592.574542 kJ/mol
# Density = 2.294525 g / cm^3
# Si number density = 22.997592 Si / 1000 Ang^3
#
#
#
# Elastic Constant Matrix: (Units=GPa)
#
#
# Indices 1 2 3 4 5 6 
#
# 1 68.5317 8.4676 -4.0835 0.0000 -8.4337 0.0000
# 2 8.4676 77.8983 5.9603 0.0000 -2.5833 0.0000
# 3 -4.0835 5.9603 79.8223 0.0000 -7.0471 0.0000
# 4 0.0000 0.0000 0.0000 85.9688 0.0000 -49.0887
# 5 -8.4337 -2.5833 -7.0471 0.0000 38.9018 0.0000
# 6 0.0000 0.0000 0.0000 -49.0887 0.0000 74.8766
#
#
#
# Elastic Compliance Matrix: (Units=1/GPa)
#
#
# Indices 1 2 3 4 5 6 
#
# 1 0.015288 -0.001641 0.001207 0.000000 0.003424 0.000000
# 2 -0.001641 0.013106 -0.001034 0.000000 0.000327 0.000000
# 3 0.001207 -0.001034 0.012890 0.000000 0.002528 0.000000
# 4 0.000000 0.000000 0.000000 0.018592 0.000000 0.012189
# 5 0.003424 0.000327 0.002528 0.000000 0.026928 0.000000
# 6 0.000000 0.000000 0.000000 0.012189 0.000000 0.021346
#
#
# Mechanical properties :
#
#
# Convention : Reuss Voigt Hill
#
# Bulk Modulus (GPa) = 26.07659 27.43791 26.75725
# Shear Modulus (GPa) = 40.36594 54.34329 47.35461
#
# Velocity S-wave (km/s) = 4.19409 4.86634 4.54267
# Velocity P-wave (km/s) = 5.90061 6.59786 6.25895
#
# Compressibility (1/GPa) = 0.03834857
#
# Stress axis : x y z
#
# Youngs Moduli (GPa) = 65.41178 76.30365 77.57991
#
# Poissons Ratio (x) = 0.12518 -0.09363
# Poissons Ratio (y) = 0.10731 0.08019
# Poissons Ratio (z) = -0.07894 0.07887
#
# Static dielectric constant tensor:
#      x y z
#    x 1.832940 0.000000 0.000540 
#    y 0.000000 1.942070 0.000000 
#    z 0.000540 0.000000 1.853180 
# 
# From -- ./inp_files/163264.got.cif
#   From: 2010.05.17/outbox.cif.g08.bks.cpg/sg15_82_cif.got.tgz:163264.got - 2010.06.03 18:47:42.
