data_PCOD9304133
_publ_section_title
;
Structure prediction by ZEFSAII (Michael W. Deem and Ramdas Pophale) SiO2 
 PCOD9304133
Probable space group: C 2/C
;
_chemical_formula_sum "Si O2"
_cell_formula_units_Z 48
_cell_length_a 29.388622
_cell_length_b 5.663578
_cell_length_c 21.514831
_cell_angle_alpha 90.000000
_cell_angle_beta 36.269270
_cell_angle_gamma 90.000000
_cell_volume 2118.469177
_symmetry_space_group_name_H-M "C 2/C"
_symmetry_group_IT_number 15
_symmetry_cell_setting 'monoclinic'
loop_
_space_group_symop_operation_xyz
x,y,z
-x,y,1/2-z
-x,-y,-z
x,-y,1/2+z
1/2+x,1/2+y,z
1/2-x,1/2+y,1/2-z
1/2-x,1/2-y,-z
1/2+x,1/2-y,1/2+z
loop_
_atom_site_type_symbol
_atom_site_label
_atom_site_fract_x
_atom_site_fract_y
_atom_site_fract_z
Si Si1 0.265645 0.414044 0.540963
Si Si2 0.972660 0.526798 0.403891
Si Si3 0.139476 0.675920 0.739480
Si Si4 0.704185 0.589326 0.717859
Si Si5 0.060732 0.969955 0.627486
Si Si6 0.849135 0.541126 0.139349
O O1 0.250000 0.250000 0.500000
O O2 0.202639 0.617675 0.618144
O O3 0.352149 0.501822 0.445754
O O4 0.247300 0.270064 0.624389
O O5 0.958066 0.782164 0.388066
O O6 0.926467 0.528822 0.519443
O O7 0.062656 0.467449 0.311491
O O8 0.942839 0.284335 0.403412
O O9 0.143145 0.956061 0.741099
O O10 0.162127 0.614394 0.786160
O O11 0.777608 0.474046 0.671145
O O12 0.653748 0.699099 0.828628
O O13 0.000000 0.954931 0.750000
#
# Coordination Sequence:
#
# PCOD9304133 Si02
#       6
#     8   8   8   8   8   8
#     4  11  26  47  76 103 142 193 252 300 361 434
#     4  12  28  47  74 106 152 188 242 298 372 433
#     4  11  26  44  71 107 143 192 239 302 359 443
#     4  11  23  42  71 104 142 187 245 299 362 433
#     4  12  28  50  73 106 147 195 241 304 363 430
#     4  11  23  42  69 104 144 189 237 298 363 435
#
# _framework density 22.657869000000002
#
# number of rings (size 3 to 8) (size 9 to 14) (size 15 to 20)
#    0.000    0.667    3.333    3.000   11.667    1.333 
#    0.000    0.000    0.000    0.000    0.000    0.000 
#    0.000    0.000    0.000    0.000    0.000    0.000 
#
# Total GULP energy -133942.149457 kJ/mol
# GULP energy per Si atom -5580.922894 kJ/mol
# Density = 2.260630 g / cm^3
# Si number density = 22.657869 Si / 1000 Ang^3
#
#
#
# Elastic Constant Matrix: (Units=GPa)
#
#
# Indices 1 2 3 4 5 6 
#
# 1 57.7108 13.4797 11.3456 -0.0047 -4.1949 0.0014
# 2 13.4797 69.4111 -1.0312 -0.1799 12.5636 0.0673
# 3 11.3456 -1.0312 135.6457 -0.0607 6.9073 0.0228
# 4 -0.0047 -0.1799 -0.0607 20.3895 0.0011 -2.9482
# 5 -4.1949 12.5636 6.9073 0.0011 37.7461 -0.0024
# 6 0.0014 0.0673 0.0228 -2.9482 -0.0024 21.8538
#
#
#
# Elastic Compliance Matrix: (Units=1/GPa)
#
#
# Indices 1 2 3 4 5 6 
#
# 1 0.019005 -0.004427 -0.001823 -0.000039 0.003919 0.000009
# 2 -0.004427 0.016382 0.000805 0.000142 -0.006092 -0.000033
# 3 -0.001823 0.000805 0.007626 0.000029 -0.001866 -0.000007
# 4 -0.000039 0.000142 0.000029 0.050022 -0.000058 0.006748
# 5 0.003919 -0.006092 -0.001866 -0.000058 0.029298 0.000016
# 6 0.000009 -0.000033 -0.000007 0.006748 0.000016 0.046669
#
#
# Mechanical properties :
#
#
# Convention : Reuss Voigt Hill
#
# Bulk Modulus (GPa) = 31.13099 34.48400 32.80750
# Shear Modulus (GPa) = 26.23309 31.92944 29.08126
#
# Velocity S-wave (km/s) = 3.40633 3.75800 3.58648
# Velocity P-wave (km/s) = 5.40742 5.83803 5.62684
#
# Compressibility (1/GPa) = 0.03212233
#
# Stress axis : x y z
#
# Youngs Moduli (GPa) = 52.61729 61.04353 131.13432
#
# Poissons Ratio (x) = 0.27027 0.23904
# Poissons Ratio (y) = 0.23296 -0.10558
# Poissons Ratio (z) = 0.09591 -0.04915
#
# Static dielectric constant tensor:
#      x y z
#    x 1.873030 -0.000130 -0.027260 
#    y -0.000130 2.027140 0.000130 
#    z -0.027260 0.000130 1.784120 
# 
# From -- ./inp_files/220825.got.cif
#   From: 2010.05.17/outbox.cif.g08.bks.cpg/sg15_111_cif.got.tgz:220825.got - 2010.06.03 18:47:42.
