data_PCOD9304870
_publ_section_title
;
Structure prediction by ZEFSAII (Michael W. Deem and Ramdas Pophale) SiO2 
 PCOD9304870
Probable space group: C 2/C
;
_chemical_formula_sum "Si O2"
_cell_formula_units_Z 32
_cell_length_a 7.138167
_cell_length_b 7.516177
_cell_length_c 23.947577
_cell_angle_alpha 90.000000
_cell_angle_beta 116.533708
_cell_angle_gamma 90.000000
_cell_volume 1149.500018
_symmetry_space_group_name_H-M "C 2/C"
_symmetry_group_IT_number 15
_symmetry_cell_setting 'monoclinic'
loop_
_space_group_symop_operation_xyz
x,y,z
-x,y,1/2-z
-x,-y,-z
x,-y,1/2+z
1/2+x,1/2+y,z
1/2-x,1/2+y,1/2-z
1/2-x,1/2-y,-z
1/2+x,1/2-y,1/2+z
loop_
_atom_site_type_symbol
_atom_site_label
_atom_site_fract_x
_atom_site_fract_y
_atom_site_fract_z
Si Si1 0.057445 0.208793 0.694561
Si Si2 0.392142 0.915663 0.157914
Si Si3 0.304967 0.064799 0.036486
Si Si4 0.692965 0.562495 0.409718
O O1 0.048503 0.422277 0.689352
O O2 0.000000 0.159124 0.750000
O O3 0.273986 0.138788 0.698528
O O4 0.894729 0.115182 0.630815
O O5 0.437000 0.725989 0.134681
O O6 0.242175 0.005085 0.090217
O O7 0.558795 0.063852 0.071810
O O8 0.250000 0.250000 0.000000
O O9 0.203765 0.932727 0.977873
#
# Coordination Sequence:
#
# PCOD9304870 Si02
#       4
#     8   8   8   8
#     4  12  31  50  76 109 153 208 270 324 388 477
#     4  12  26  50  74 112 151 198 260 322 395 470
#     4  11  23  47  77 119 158 196 255 331 402 487
#     4  11  25  46  78 115 154 204 253 324 412 463
#
# _framework density 27.838191999999999
#
# number of rings (size 3 to 8) (size 9 to 14) (size 15 to 20)
#    0.000    0.500    5.000    0.750    7.000    5.000 
#    0.000    0.000    0.000    0.000    0.000    0.000 
#    0.000    0.000    0.000    0.000    0.000    0.000 
#
# Total GULP energy -89611.471393 kJ/mol
# GULP energy per Si atom -5600.716962 kJ/mol
# Density = 2.777483 g / cm^3
# Si number density = 27.838192 Si / 1000 Ang^3
#
#
#
# Elastic Constant Matrix: (Units=GPa)
#
#
# Indices 1 2 3 4 5 6 
#
# 1 73.1823 30.0143 33.2016 0.0000 0.2723 0.0000
# 2 30.0143 200.2017 58.7003 0.0000 -9.7343 0.0000
# 3 33.2016 58.7003 155.0140 0.0000 -48.6232 0.0000
# 4 0.0000 0.0000 0.0000 53.5335 0.0000 -4.7652
# 5 0.2723 -9.7343 -48.6232 0.0000 69.3090 0.0000
# 6 0.0000 0.0000 0.0000 -4.7652 0.0000 38.9930
#
#
#
# Elastic Compliance Matrix: (Units=1/GPa)
#
#
# Indices 1 2 3 4 5 6 
#
# 1 0.015985 -0.001424 -0.003804 0.000000 -0.002932 0.000000
# 2 -0.001424 0.005790 -0.002091 0.000000 -0.000648 0.000000
# 3 -0.003804 -0.002091 0.010219 0.000000 0.006890 0.000000
# 4 0.000000 0.000000 0.000000 0.018885 0.000000 0.002308
# 5 -0.002932 -0.000648 0.006890 0.000000 0.019182 0.000000
# 6 0.000000 0.000000 0.000000 0.002308 0.000000 0.025928
#
#
# Mechanical properties :
#
#
# Convention : Reuss Voigt Hill
#
# Bulk Modulus (GPa) = 57.61514 74.69226 66.15370
# Shear Modulus (GPa) = 42.95073 52.79922 47.87497
#
# Velocity S-wave (km/s) = 3.93220 4.35978 4.15150
# Velocity P-wave (km/s) = 6.43099 7.22721 6.84070
#
# Compressibility (1/GPa) = 0.01735655
#
# Stress axis : x y z
#
# Youngs Moduli (GPa) = 62.55787 172.71331 97.85814
#
# Poissons Ratio (x) = 0.24588 0.37227
# Poissons Ratio (y) = 0.08906 0.20461
# Poissons Ratio (z) = 0.23798 0.36112
#
# Static dielectric constant tensor:
#      x y z
#    x 2.227280 0.000000 -0.037850 
#    y 0.000000 2.193050 0.000000 
#    z -0.037850 0.000000 2.165770 
# 
# From -- ./inp_files/286933.got.cif
#   From: 2010.05.17/outbox.cif.g08.bks.cpg/sg15_144_cif.got.tgz:286933.got - 2010.06.03 18:47:42.
