data_PCOD9304235
_publ_section_title
;
Structure prediction by ZEFSAII (Michael W. Deem and Ramdas Pophale) SiO2 
 PCOD9304235
Probable space group: C 2/C
;
_chemical_formula_sum "Si O2"
_cell_formula_units_Z 56
_cell_length_a 11.035086
_cell_length_b 28.464849
_cell_length_c 13.996678
_cell_angle_alpha 90.000000
_cell_angle_beta 139.578182
_cell_angle_gamma 90.000000
_cell_volume 2850.750296
_symmetry_space_group_name_H-M "C 2/C"
_symmetry_group_IT_number 15
_symmetry_cell_setting 'monoclinic'
loop_
_space_group_symop_operation_xyz
x,y,z
-x,y,1/2-z
-x,-y,-z
x,-y,1/2+z
1/2+x,1/2+y,z
1/2-x,1/2+y,1/2-z
1/2-x,1/2-y,-z
1/2+x,1/2-y,1/2+z
loop_
_atom_site_type_symbol
_atom_site_label
_atom_site_fract_x
_atom_site_fract_y
_atom_site_fract_z
Si Si1 0.458100 0.209088 0.336620
Si Si2 0.189551 0.808870 0.314072
Si Si3 0.137059 0.572342 0.965727
Si Si4 0.173071 0.851083 0.793285
Si Si5 0.233030 0.905940 0.244191
Si Si6 0.186998 0.000432 0.801231
Si Si7 0.497973 0.565663 0.061190
O O1 0.500000 0.195164 0.250000
O O2 0.649487 0.204553 0.512792
O O3 0.377666 0.262019 0.280873
O O4 0.301724 0.180140 0.301548
O O5 0.250408 0.852282 0.285555
O O6 0.000000 0.826429 0.250000
O O7 0.926022 0.579887 0.808687
O O8 0.202463 0.620836 0.055041
O O9 0.155952 0.531719 0.057027
O O10 0.293141 0.558114 0.983337
O O11 0.000000 0.828689 0.750000
O O12 0.084959 0.891834 0.674527
O O13 0.225258 0.944509 0.323425
O O14 0.047540 0.916249 0.071447
O O15 0.000000 0.991566 0.750000
O O16 0.131076 0.978819 0.663464
#
# Coordination Sequence:
#
# PCOD9304235 Si02
#       7
#     8   8   8   8   8   8   8
#     4  11  23  43  66  85 122 163 205 244 316 367
#     4  11  25  40  61  89 121 159 199 252 307 361
#     4   9  18  37  55  82 116 160 190 242 302 369
#     4   9  19  40  63  87 117 159 201 249 302 362
#     4  12  20  33  59  88 115 147 211 247 296 345
#     4   9  19  36  53  78 118 161 194 244 301 356
#     4   9  20  33  59  82 120 156 196 234 312 360
#
# _framework density 19.64395
#
# number of rings (size 3 to 8) (size 9 to 14) (size 15 to 20)
#    0.000    2.000    1.429    5.143    4.000    0.000 
#    0.000    2.143    0.000    0.000    0.000    0.000 
#    0.000    0.000    0.000    0.000    0.000    0.000 
#
# Total GULP energy -155923.698176 kJ/mol
# GULP energy per Si atom -5568.703506 kJ/mol
# Density = 1.959924 g / cm^3
# Si number density = 19.643950 Si / 1000 Ang^3
#
#
#
# Elastic Constant Matrix: (Units=GPa)
#
#
# Indices 1 2 3 4 5 6 
#
# 1 68.9414 31.9501 8.4103 0.0000 12.7720 0.0000
# 2 31.9501 68.5913 25.3239 0.0000 -4.7447 0.0000
# 3 8.4103 25.3239 100.4807 0.0000 2.4232 0.0000
# 4 0.0000 0.0000 0.0000 1.5438 0.0000 12.6769
# 5 12.7720 -4.7447 2.4232 0.0000 27.5836 0.0000
# 6 0.0000 0.0000 0.0000 12.6769 0.0000 17.5349
#
#
#
# Elastic Compliance Matrix: (Units=1/GPa)
#
#
# Indices 1 2 3 4 5 6 
#
# 1 0.021994 -0.011606 0.001381 0.000000 -0.012301 0.000000
# 2 -0.011606 0.022473 -0.004926 0.000000 0.009672 0.000000
# 3 0.001381 -0.004926 0.011137 0.000000 -0.002465 0.000000
# 4 0.000000 0.000000 0.000000 -0.131217 0.000000 0.094864
# 5 -0.012301 0.009672 -0.002465 0.000000 0.043830 0.000000
# 6 0.000000 0.000000 0.000000 0.094864 0.000000 -0.011553
#
#
# Mechanical properties :
#
#
# Convention : Reuss Voigt Hill
#
# Bulk Modulus (GPa) = 39.52083 41.04245 40.28164
# Shear Modulus (GPa) = -1086.71118 20.82108 -532.94505
#
# Velocity S-wave (km/s) = -23.54581 3.25918 -16.48913
# Velocity P-wave (km/s) = 26.81500 5.92465 18.49247
#
# Compressibility (1/GPa) = 0.02530311
#
# Stress axis : x y z
#
# Youngs Moduli (GPa) = 45.46681 44.49862 89.78739
#
# Poissons Ratio (x) = 0.51643 -0.12397
# Poissons Ratio (y) = 0.52767 0.44226
# Poissons Ratio (z) = -0.06278 0.21918
#
# Static dielectric constant tensor:
#      x y z
#    x 1.756320 0.000000 -0.039350 
#    y 0.000000 1.677660 0.000000 
#    z -0.039350 0.000000 1.727130 
# 
# From -- ./inp_files/148568.got.cif
#   From: 2010.05.17/outbox.cif.g08.bks.cpg/sg15_75_cif.got.tgz:148568.got - 2010.06.03 18:47:42.
