data_PCOD9304604
_publ_section_title
;
Structure prediction by ZEFSAII (Michael W. Deem and Ramdas Pophale) SiO2 
 PCOD9304604
Probable space group: C 2/C
;
_chemical_formula_sum "Si O2"
_cell_formula_units_Z 44
_cell_length_a 25.747207
_cell_length_b 8.183255
_cell_length_c 25.722969
_cell_angle_alpha 90.000000
_cell_angle_beta 20.068021
_cell_angle_gamma 90.000000
_cell_volume 1859.700253
_symmetry_space_group_name_H-M "C 2/C"
_symmetry_group_IT_number 15
_symmetry_cell_setting 'monoclinic'
loop_
_space_group_symop_operation_xyz
x,y,z
-x,y,1/2-z
-x,-y,-z
x,-y,1/2+z
1/2+x,1/2+y,z
1/2-x,1/2+y,1/2-z
1/2-x,1/2-y,-z
1/2+x,1/2-y,1/2+z
loop_
_atom_site_type_symbol
_atom_site_label
_atom_site_fract_x
_atom_site_fract_y
_atom_site_fract_z
Si Si1 0.309916 0.464474 0.625311
Si Si2 0.129685 0.819145 0.337158
Si Si3 0.766810 0.472284 0.621090
Si Si4 0.500000 0.714893 0.250000
Si Si5 0.419976 0.851960 0.216943
Si Si6 0.832855 0.101936 0.894936
O O1 0.188734 0.361799 0.772669
O O2 0.461266 0.359438 0.475145
O O3 0.359289 0.618515 0.614247
O O4 0.219312 0.523634 0.660089
O O5 0.242264 0.925263 0.195745
O O6 0.648099 0.322783 0.735313
O O7 0.719157 0.580209 0.615632
O O8 0.935629 0.407405 0.452168
O O9 0.475362 0.825824 0.223259
O O10 0.643585 0.588931 0.108355
O O11 0.000000 0.160024 0.750000
O O12 0.750000 0.250000 0.000000
#
# Coordination Sequence:
#
# PCOD9304604 Si02
#       6
#     8   8   8   4   8   8
#     4  11  25  45  76 100 147 186 233 301 359 432
#     4  11  25  46  70 111 136 186 241 291 367 432
#     4  11  24  44  66 102 144 180 244 292 357 428
#     4   8  22  46  66 102 140 184 248 280 352 434
#     4  11  23  45  69 102 139 196 228 305 349 423
#     4   9  21  44  65  96 136 183 227 293 339 419
#
# _framework density 23.659725999999999
#
# number of rings (size 3 to 8) (size 9 to 14) (size 15 to 20)
#    0.545    1.091    0.000    3.273    0.000   11.636 
#   14.727    0.000    0.000    0.000    0.000    0.000 
#    0.000    0.000    0.000    0.000    0.000    0.000 
#
# Total GULP energy -122914.646694 kJ/mol
# GULP energy per Si atom -5587.029395 kJ/mol
# Density = 2.360587 g / cm^3
# Si number density = 23.659726 Si / 1000 Ang^3
#
#
#
# Elastic Constant Matrix: (Units=GPa)
#
#
# Indices 1 2 3 4 5 6 
#
# 1 94.6145 41.8132 39.3285 -0.0005 -10.2366 -0.0001
# 2 41.8132 66.8886 42.3981 -0.0038 -5.8884 0.0014
# 3 39.3285 42.3981 125.1756 0.0010 -14.5198 -0.0003
# 4 -0.0005 -0.0038 0.0010 76.2989 0.0010 -14.6560
# 5 -10.2366 -5.8884 -14.5198 0.0010 17.0609 -0.0002
# 6 -0.0001 0.0014 -0.0003 -14.6560 -0.0002 58.9442
#
#
#
# Elastic Compliance Matrix: (Units=1/GPa)
#
#
# Indices 1 2 3 4 5 6 
#
# 1 0.015366 -0.008240 -0.001440 0.000000 0.005151 0.000000
# 2 -0.008240 0.023478 -0.005544 0.000001 -0.001559 0.000000
# 3 -0.001440 -0.005544 0.011092 -0.000001 0.006663 0.000000
# 4 0.000000 0.000001 -0.000001 0.013764 -0.000001 0.003422
# 5 0.005151 -0.001559 0.006663 -0.000001 0.066836 0.000000
# 6 0.000000 0.000000 0.000000 0.003422 0.000000 0.017816
#
#
# Mechanical properties :
#
#
# Convention : Reuss Voigt Hill
#
# Bulk Modulus (GPa) = 51.31111 59.30649 55.30880
# Shear Modulus (GPa) = 26.98387 41.33671 34.16029
#
# Velocity S-wave (km/s) = 3.38079 4.18441 3.80388
# Velocity P-wave (km/s) = 6.08061 6.96179 6.53607
#
# Compressibility (1/GPa) = 0.01948896
#
# Stress axis : x y z
#
# Youngs Moduli (GPa) = 65.07748 42.59279 90.15699
#
# Poissons Ratio (x) = 0.35096 0.12978
# Poissons Ratio (y) = 0.53623 0.49986
# Poissons Ratio (z) = 0.09368 0.23615
#
# Static dielectric constant tensor:
#      x y z
#    x 1.870120 0.000000 -0.013330 
#    y 0.000000 1.946180 0.000000 
#    z -0.013330 0.000000 1.872120 
# 
# From -- ./inp_files/303150.got.cif
#   From: 2010.05.17/outbox.cif.g08.bks.cpg/sg15_152_cif.got.tgz:303150.got - 2010.06.03 18:47:42.
