data_PCOD9304497
_publ_section_title
;
Structure prediction by ZEFSAII (Michael W. Deem and Ramdas Pophale) SiO2 
 PCOD9304497
Probable space group: C 2/C
;
_chemical_formula_sum "Si O2"
_cell_formula_units_Z 48
_cell_length_a 10.009504
_cell_length_b 14.677586
_cell_length_c 27.198315
_cell_angle_alpha 90.000000
_cell_angle_beta 143.089075
_cell_angle_gamma 90.000000
_cell_volume 2399.798482
_symmetry_space_group_name_H-M "C 2/C"
_symmetry_group_IT_number 15
_symmetry_cell_setting 'monoclinic'
loop_
_space_group_symop_operation_xyz
x,y,z
-x,y,1/2-z
-x,-y,-z
x,-y,1/2+z
1/2+x,1/2+y,z
1/2-x,1/2+y,1/2-z
1/2-x,1/2-y,-z
1/2+x,1/2-y,1/2+z
loop_
_atom_site_type_symbol
_atom_site_label
_atom_site_fract_x
_atom_site_fract_y
_atom_site_fract_z
Si Si1 0.202404 0.749949 0.612836
Si Si2 0.210739 0.786940 0.246866
Si Si3 0.471906 0.551817 0.042663
Si Si4 0.042047 0.118971 0.208302
Si Si5 0.882657 0.409840 0.986698
Si Si6 0.727449 0.022862 0.786996
O O1 0.219457 0.725007 0.675710
O O2 0.453529 0.742732 0.666937
O O3 0.100066 0.851132 0.578670
O O4 0.048515 0.675102 0.541038
O O5 0.368430 0.720931 0.262281
O O6 0.241536 0.888314 0.236526
O O7 0.226288 0.571430 0.991663
O O8 0.581695 0.487276 0.116099
O O9 0.500000 0.500000 0.000000
O O10 0.821795 0.113651 0.110031
O O11 0.000000 0.080544 0.250000
O O12 0.234411 0.063270 0.236991
O O13 0.000000 0.500000 0.000000
O O14 0.500000 0.020577 0.750000
#
# Coordination Sequence:
#
# PCOD9304497 Si02
#       6
#     8   8   8   8   8   8
#     4  11  23  44  70  98 137 183 224 281 351 398
#     4  11  24  42  69  98 136 179 227 284 336 409
#     4  11  25  43  68  97 135 177 226 281 341 405
#     4  11  25  44  67 101 138 177 227 284 338 408
#     4  11  25  44  67 101 137 176 232 279 342 411
#     4  11  24  42  66 100 134 173 233 273 338 401
#
# _framework density 20.001678999999999
#
# number of rings (size 3 to 8) (size 9 to 14) (size 15 to 20)
#    0.000    1.000    3.333    4.000    7.000    2.667 
#    0.000    2.500    0.000    0.000    0.000    0.000 
#    0.000    0.000    0.000    0.000    0.000    0.000 
#
# Total GULP energy -134160.164310 kJ/mol
# GULP energy per Si atom -5590.006846 kJ/mol
# Density = 1.995615 g / cm^3
# Si number density = 20.001679 Si / 1000 Ang^3
#
#
#
# Elastic Constant Matrix: (Units=GPa)
#
#
# Indices 1 2 3 4 5 6 
#
# 1 93.0949 21.8769 55.1448 0.0000 -0.7098 0.0000
# 2 21.8769 129.0915 66.8902 0.0000 -0.3589 0.0000
# 3 55.1448 66.8902 77.6325 0.0000 10.5441 0.0000
# 4 0.0000 0.0000 0.0000 27.6428 0.0000 -11.8769
# 5 -0.7098 -0.3589 10.5441 0.0000 37.0264 0.0000
# 6 0.0000 0.0000 0.0000 -11.8769 0.0000 30.9376
#
#
#
# Elastic Compliance Matrix: (Units=1/GPa)
#
#
# Indices 1 2 3 4 5 6 
#
# 1 0.024500 0.009883 -0.027041 0.000000 0.008266 0.000000
# 2 0.009883 0.018489 -0.023926 0.000000 0.007182 0.000000
# 3 -0.027041 -0.023926 0.054931 0.000000 -0.016393 0.000000
# 4 0.000000 0.000000 0.000000 0.043321 0.000000 0.016631
# 5 0.008266 0.007182 -0.016393 0.000000 0.031904 0.000000
# 6 0.000000 0.000000 0.000000 0.016631 0.000000 0.038708
#
#
# Mechanical properties :
#
#
# Convention : Reuss Voigt Hill
#
# Bulk Modulus (GPa) = 63.48651 65.29363 64.39007
# Shear Modulus (GPa) = 16.70713 29.51514 23.11114
#
# Velocity S-wave (km/s) = 2.89327 3.84556 3.40289
# Velocity P-wave (km/s) = 6.55521 7.24105 6.90665
#
# Compressibility (1/GPa) = 0.01575138
#
# Stress axis : x y z
#
# Youngs Moduli (GPa) = 40.81624 54.08546 18.20463
#
# Poissons Ratio (x) = -0.53450 0.49227
# Poissons Ratio (y) = -0.40337 0.43557
# Poissons Ratio (z) = 1.10371 1.29406
#
# Static dielectric constant tensor:
#      x y z
#    x 1.738020 0.000000 0.017120 
#    y 0.000000 1.743380 0.000000 
#    z 0.017120 0.000000 1.708290 
# 
# From -- ./inp_files/289130.got.cif
#   From: 2010.05.17/outbox.cif.g08.bks.cpg/sg15_145_cif.got.tgz:289130.got - 2010.06.03 18:47:42.
