data_PCOD9304960
_publ_section_title
;
Structure prediction by ZEFSAII (Michael W. Deem and Ramdas Pophale) SiO2 
 PCOD9304960
Probable space group: C 2/C
;
_chemical_formula_sum "Si O2"
_cell_formula_units_Z 40
_cell_length_a 30.711723
_cell_length_b 9.807229
_cell_length_c 7.521814
_cell_angle_alpha 90.000000
_cell_angle_beta 50.923185
_cell_angle_gamma 90.000000
_cell_volume 1758.747695
_symmetry_space_group_name_H-M "C 2/C"
_symmetry_group_IT_number 15
_symmetry_cell_setting 'monoclinic'
loop_
_space_group_symop_operation_xyz
x,y,z
-x,y,1/2-z
-x,-y,-z
x,-y,1/2+z
1/2+x,1/2+y,z
1/2-x,1/2+y,1/2-z
1/2-x,1/2-y,-z
1/2+x,1/2-y,1/2+z
loop_
_atom_site_type_symbol
_atom_site_label
_atom_site_fract_x
_atom_site_fract_y
_atom_site_fract_z
Si Si1 0.769381 0.396346 0.828369
Si Si2 0.939457 0.143336 0.321637
Si Si3 0.650852 0.769303 0.674053
Si Si4 0.788668 0.164419 0.527503
Si Si5 0.600564 0.350834 0.960200
O O1 0.819030 0.411544 0.847479
O O2 0.801675 0.284684 0.628142
O O3 0.747311 0.538492 0.810436
O O4 0.708260 0.323730 0.019238
O O5 0.894860 0.215077 0.567656
O O6 0.935755 0.186135 0.122369
O O7 0.000000 0.166575 0.250000
O O8 0.925445 0.981110 0.372396
O O9 0.620403 0.756481 0.559879
O O10 0.750000 0.250000 0.500000
O O11 0.841532 0.107514 0.286789
#
# Coordination Sequence:
#
# PCOD9304960 Si02
#       5
#     8   8   8   8   8
#     4  11  25  42  62 101 144 184 228 285 345 424
#     4  12  24  39  64  98 137 181 240 303 352 405
#     4  11  24  39  64  90 143 177 230 286 347 421
#     4  12  25  40  69 102 145 190 231 279 353 427
#     4  12  23  40  60  95 137 184 226 291 351 411
#
# _framework density 22.743454
#
# number of rings (size 3 to 8) (size 9 to 14) (size 15 to 20)
#    0.000    0.400    8.000    0.600    5.600    0.000 
#    0.000    0.000    0.000    0.000    0.000    7.000 
#    0.000    0.000    0.000    0.000    0.000    0.000 
#
# Total GULP energy -111391.682287 kJ/mol
# GULP energy per Si atom -5569.584114 kJ/mol
# Density = 2.269169 g / cm^3
# Si number density = 22.743454 Si / 1000 Ang^3
#
#
#
# Elastic Constant Matrix: (Units=GPa)
#
#
# Indices 1 2 3 4 5 6 
#
# 1 191.6871 21.3379 31.4934 0.0000 -3.0527 0.0000
# 2 21.3379 56.3238 10.5404 0.0000 -4.2164 0.0000
# 3 31.4934 10.5404 46.9778 0.0000 -5.5817 0.0000
# 4 0.0000 0.0000 0.0000 20.7017 0.0000 3.1063
# 5 -3.0527 -4.2164 -5.5817 0.0000 47.4715 0.0000
# 6 0.0000 0.0000 0.0000 3.1063 0.0000 23.2217
#
#
#
# Elastic Compliance Matrix: (Units=1/GPa)
#
#
# Indices 1 2 3 4 5 6 
#
# 1 0.005997 -0.001597 -0.003685 0.000000 -0.000189 0.000000
# 2 -0.001597 0.019022 -0.003052 0.000000 0.001228 0.000000
# 3 -0.003685 -0.003052 0.024727 0.000000 0.002399 0.000000
# 4 0.000000 0.000000 0.000000 0.049295 0.000000 -0.006594
# 5 -0.000189 0.001228 0.002399 0.000000 0.021444 0.000000
# 6 0.000000 0.000000 0.000000 -0.006594 0.000000 0.043945
#
#
# Mechanical properties :
#
#
# Convention : Reuss Voigt Hill
#
# Bulk Modulus (GPa) = 30.22976 46.85912 38.54444
# Shear Modulus (GPa) = 26.02507 33.72011 29.87259
#
# Velocity S-wave (km/s) = 3.38640 3.85467 3.62810
# Velocity P-wave (km/s) = 5.34891 6.36077 5.87666
#
# Compressibility (1/GPa) = 0.03307998
#
# Stress axis : x y z
#
# Youngs Moduli (GPa) = 166.75309 52.56965 40.44235
#
# Poissons Ratio (x) = 0.08393 0.14901
# Poissons Ratio (y) = 0.26623 0.12342
# Poissons Ratio (z) = 0.61441 0.16044
#
# Static dielectric constant tensor:
#      x y z
#    x 1.317020 0.000000 -0.503550 
#    y 0.000000 1.942430 0.000000 
#    z -0.503550 0.000000 1.373290 
# 
# From -- ./inp_files/68814.got.cif
#   From: 2010.05.17/outbox.cif.g08.bks.cpg/sg15_35_cif.got.tgz:68814.got - 2010.06.03 18:47:42.
