data_PCOD9304664
_publ_section_title
;
Structure prediction by ZEFSAII (Michael W. Deem and Ramdas Pophale) SiO2 
 PCOD9304664
Probable space group: C 2/C
;
_chemical_formula_sum "Si O2"
_cell_formula_units_Z 44
_cell_length_a 12.763954
_cell_length_b 13.906758
_cell_length_c 12.286065
_cell_angle_alpha 90.000000
_cell_angle_beta 98.362369
_cell_angle_gamma 90.000000
_cell_volume 2157.654107
_symmetry_space_group_name_H-M "C 2/C"
_symmetry_group_IT_number 15
_symmetry_cell_setting 'monoclinic'
loop_
_space_group_symop_operation_xyz
x,y,z
-x,y,1/2-z
-x,-y,-z
x,-y,1/2+z
1/2+x,1/2+y,z
1/2-x,1/2+y,1/2-z
1/2-x,1/2-y,-z
1/2+x,1/2-y,1/2+z
loop_
_atom_site_type_symbol
_atom_site_label
_atom_site_fract_x
_atom_site_fract_y
_atom_site_fract_z
Si Si1 0.532090 0.609462 0.528891
Si Si2 0.694668 0.133746 0.234872
Si Si3 0.912431 0.236766 0.331357
Si Si4 0.500000 0.277852 0.250000
Si Si5 0.881323 0.432382 0.232588
Si Si6 0.227067 0.361049 0.491788
O O1 0.500000 0.500000 0.500000
O O2 0.468063 0.684778 0.441803
O O3 0.511520 0.652693 0.646374
O O4 0.656994 0.602067 0.521552
O O5 0.807032 0.180523 0.280395
O O6 0.602525 0.206377 0.262025
O O7 0.691182 0.025699 0.278478
O O8 0.684121 0.115009 0.104028
O O9 0.877910 0.350093 0.325720
O O10 0.000000 0.230931 0.250000
O O11 0.855389 0.380943 0.115518
O O12 0.000000 0.471090 0.250000
O O13 0.250000 0.250000 0.500000
#
# Coordination Sequence:
#
# PCOD9304664 Si02
#       6
#     8   8   8   4   8   8
#     4  12  27  45  73 107 143 191 235 303 366 423
#     4  12  25  45  73 105 145 187 237 297 364 422
#     4  11  23  45  73 103 138 183 249 284 343 438
#     4  12  28  46  68 108 154 180 240 304 362 416
#     4  11  24  41  70 109 133 190 239 288 352 429
#     4  12  22  46  72  96 144 193 226 291 362 425
#
# _framework density 20.392517000000002
#
# number of rings (size 3 to 8) (size 9 to 14) (size 15 to 20)
#    0.000    0.364    6.364    2.182    1.273    5.818 
#    0.000    0.000    0.000    0.000    0.000    0.000 
#    0.000    0.000    0.000    0.000    0.000    0.000 
#
# Total GULP energy -122730.503393 kJ/mol
# GULP energy per Si atom -5578.659245 kJ/mol
# Density = 2.034610 g / cm^3
# Si number density = 20.392517 Si / 1000 Ang^3
#
#
#
# Elastic Constant Matrix: (Units=GPa)
#
#
# Indices 1 2 3 4 5 6 
#
# 1 106.0973 20.0832 -10.6613 0.0000 7.7932 0.0000
# 2 20.0832 121.1822 5.0355 0.0000 -9.3519 0.0000
# 3 -10.6613 5.0355 51.3048 0.0000 -5.3742 0.0000
# 4 0.0000 0.0000 0.0000 18.3171 0.0000 18.6900
# 5 7.7932 -9.3519 -5.3742 0.0000 28.9379 0.0000
# 6 0.0000 0.0000 0.0000 18.6900 0.0000 24.6124
#
#
#
# Elastic Compliance Matrix: (Units=1/GPa)
#
#
# Indices 1 2 3 4 5 6 
#
# 1 0.010231 -0.002013 0.002006 0.000000 -0.003033 0.000000
# 2 -0.002013 0.008875 -0.000951 0.000000 0.003234 0.000000
# 3 0.002006 -0.000951 0.020308 0.000000 0.002924 0.000000
# 4 0.000000 0.000000 0.000000 0.242455 0.000000 -0.184114
# 5 -0.003033 0.003234 0.002924 0.000000 0.036962 0.000000
# 6 0.000000 0.000000 0.000000 -0.184114 0.000000 0.180441
#
#
# Mechanical properties :
#
#
# Convention : Reuss Voigt Hill
#
# Bulk Modulus (GPa) = 26.66832 34.16656 30.41744
# Shear Modulus (GPa) = 9.73357 31.98194 20.85776
#
# Velocity S-wave (km/s) = 2.18712 3.96449 3.20162
# Velocity P-wave (km/s) = 4.41405 6.14387 5.34935
#
# Compressibility (1/GPa) = 0.03749767
#
# Stress axis : x y z
#
# Youngs Moduli (GPa) = 97.74503 112.68016 49.24225
#
# Poissons Ratio (x) = 0.22682 -0.09877
# Poissons Ratio (y) = 0.19675 0.04681
# Poissons Ratio (z) = -0.19606 0.10711
#
# Static dielectric constant tensor:
#      x y z
#    x 1.644570 0.000000 -0.016420 
#    y 0.000000 5.005660 0.000000 
#    z -0.016420 0.000000 1.703520 
# 
# From -- ./inp_files/86198.got.cif
#   From: 2010.05.17/outbox.cif.g08.bks.cpg/sg15_44_cif.got.tgz:86198.got - 2010.06.03 18:47:42.
