data_PCOD9304853
_publ_section_title
;
Structure prediction by ZEFSAII (Michael W. Deem and Ramdas Pophale) SiO2 
 PCOD9304853
Probable space group: C 2/C
;
_chemical_formula_sum "Si O2"
_cell_formula_units_Z 40
_cell_length_a 11.064606
_cell_length_b 11.489137
_cell_length_c 14.372726
_cell_angle_alpha 90.000000
_cell_angle_beta 109.208822
_cell_angle_gamma 90.000000
_cell_volume 1725.378285
_symmetry_space_group_name_H-M "C 2/C"
_symmetry_group_IT_number 15
_symmetry_cell_setting 'monoclinic'
loop_
_space_group_symop_operation_xyz
x,y,z
-x,y,1/2-z
-x,-y,-z
x,-y,1/2+z
1/2+x,1/2+y,z
1/2-x,1/2+y,1/2-z
1/2-x,1/2-y,-z
1/2+x,1/2-y,1/2+z
loop_
_atom_site_type_symbol
_atom_site_label
_atom_site_fract_x
_atom_site_fract_y
_atom_site_fract_z
Si Si1 0.261778 0.732333 0.892278
Si Si2 0.115520 0.776984 0.682126
Si Si3 0.005059 0.364514 0.985803
Si Si4 0.110745 0.245138 0.846979
Si Si5 0.951762 0.034251 0.886547
O O1 0.138758 0.747960 0.796453
O O2 0.373103 0.826793 0.902930
O O3 0.326885 0.612282 0.875790
O O4 0.250000 0.750000 0.000000
O O5 0.255839 0.751793 0.671981
O O6 0.027387 0.703586 0.588376
O O7 0.081118 0.913133 0.669668
O O8 0.112806 0.322245 0.940758
O O9 0.000000 0.500000 0.000000
O O10 0.000000 0.290052 0.750000
O O11 0.057832 0.116798 0.864052
O O12 0.000000 0.000000 0.000000
#
# Coordination Sequence:
#
# PCOD9304853 Si02
#       5
#     8   8   8   8   8
#     4  11  27  47  66 106 145 186 244 302 366 436
#     4  12  25  48  76 102 143 199 234 303 375 422
#     4  11  26  46  68 108 140 183 247 296 370 442
#     4  11  23  47  74 103 142 187 246 296 364 446
#     4  11  24  46  72 105 141 185 249 292 358 447
#
# _framework density 23.183320999999999
#
# number of rings (size 3 to 8) (size 9 to 14) (size 15 to 20)
#    0.000    0.800    8.000    0.600    5.600    2.400 
#    0.000    0.000    0.000    0.000    0.000    0.000 
#    0.000    0.000    0.000    0.000    0.000    0.000 
#
# Total GULP energy -111798.181802 kJ/mol
# GULP energy per Si atom -5589.909090 kJ/mol
# Density = 2.313056 g / cm^3
# Si number density = 23.183321 Si / 1000 Ang^3
#
#
#
# Elastic Constant Matrix: (Units=GPa)
#
#
# Indices 1 2 3 4 5 6 
#
# 1 74.7817 26.0052 36.1909 0.0000 -6.7637 0.0000
# 2 26.0052 185.1752 62.6403 0.0000 0.5524 0.0000
# 3 36.1909 62.6403 173.5690 0.0000 -0.5878 0.0000
# 4 0.0000 0.0000 0.0000 34.7374 0.0000 1.8555
# 5 -6.7637 0.5524 -0.5878 0.0000 59.8069 0.0000
# 6 0.0000 0.0000 0.0000 1.8555 0.0000 23.3339
#
#
#
# Elastic Compliance Matrix: (Units=1/GPa)
#
#
# Indices 1 2 3 4 5 6 
#
# 1 0.015278 -0.001225 -0.002738 0.000000 0.001712 0.000000
# 2 -0.001225 0.006250 -0.002001 0.000000 -0.000216 0.000000
# 3 -0.002738 -0.002001 0.007054 0.000000 -0.000222 0.000000
# 4 0.000000 0.000000 0.000000 0.028910 0.000000 -0.002299
# 5 0.001712 -0.000216 -0.000222 0.000000 0.016914 0.000000
# 6 0.000000 0.000000 0.000000 -0.002299 0.000000 0.043039
#
#
# Mechanical properties :
#
#
# Convention : Reuss Voigt Hill
#
# Bulk Modulus (GPa) = 60.04307 75.91097 67.97702
# Shear Modulus (GPa) = 37.05827 44.15493 40.60660
#
# Velocity S-wave (km/s) = 4.00245 4.36891 4.18969
# Velocity P-wave (km/s) = 6.87858 7.63313 7.26566
#
# Compressibility (1/GPa) = 0.01665471
#
# Stress axis : x y z
#
# Youngs Moduli (GPa) = 65.45380 160.00603 141.77063
#
# Poissons Ratio (x) = 0.19593 0.38815
# Poissons Ratio (y) = 0.08015 0.28367
# Poissons Ratio (z) = 0.17921 0.32016
#
# Static dielectric constant tensor:
#      x y z
#    x 1.977580 0.000000 -0.066540 
#    y 0.000000 1.811580 0.000000 
#    z -0.066540 0.000000 1.907320 
# 
# From -- ./inp_files/151457.got.cif
#   From: 2010.05.17/outbox.cif.g08.bks.cpg/sg15_76_cif.got.tgz:151457.got - 2010.06.03 18:47:42.
