data_PCOD9304559
_publ_section_title
;
Structure prediction by ZEFSAII (Michael W. Deem and Ramdas Pophale) SiO2 
 PCOD9304559
Probable space group: C 2/C
;
_chemical_formula_sum "Si O2"
_cell_formula_units_Z 48
_cell_length_a 10.904600
_cell_length_b 10.378563
_cell_length_c 23.849849
_cell_angle_alpha 90.000000
_cell_angle_beta 46.699265
_cell_angle_gamma 90.000000
_cell_volume 1964.369326
_symmetry_space_group_name_H-M "C 2/C"
_symmetry_group_IT_number 15
_symmetry_cell_setting 'monoclinic'
loop_
_space_group_symop_operation_xyz
x,y,z
-x,y,1/2-z
-x,-y,-z
x,-y,1/2+z
1/2+x,1/2+y,z
1/2-x,1/2+y,1/2-z
1/2-x,1/2-y,-z
1/2+x,1/2-y,1/2+z
loop_
_atom_site_type_symbol
_atom_site_label
_atom_site_fract_x
_atom_site_fract_y
_atom_site_fract_z
Si Si1 0.199928 0.308601 0.604848
Si Si2 0.434406 0.581795 0.664529
Si Si3 0.668792 0.068355 0.552903
Si Si4 0.422499 0.681645 0.552903
Si Si5 0.764471 0.941399 0.895152
Si Si6 0.677990 0.831795 0.335472
O O1 0.068639 0.198763 0.628905
O O2 0.133447 0.442782 0.601502
O O3 0.382451 0.287772 0.518680
O O4 0.236161 0.288862 0.659855
O O5 0.402046 0.578381 0.608801
O O6 0.534273 0.461139 0.659856
O O7 0.273827 0.625000 0.750000
O O8 0.841981 0.125000 0.522013
O O9 0.688493 0.037772 0.481320
O O10 0.521551 0.171619 0.608801
O O11 0.312049 0.807218 0.601502
O O12 0.705352 0.051237 0.871096
#
# Coordination Sequence:
#
# PCOD9304559 Si02
#       6
#     8   8   8   8   8   8
#     4  11  23  44  74  98 131 185 233 288 343 411
#     4  11  26  47  67 102 142 183 237 285 354 421
#     4  12  25  43  71 106 138 177 236 295 345 418
#     4  12  25  43  71 106 138 177 236 295 345 418
#     4  11  23  44  74  98 131 185 233 288 343 411
#     4  11  26  47  67 102 142 183 237 285 354 421
#
# _framework density 24.435324000000001
#
# number of rings (size 3 to 8) (size 9 to 14) (size 15 to 20)
#    0.000    0.667    3.333    5.000    4.667    0.667 
#   18.000    0.000    0.000    0.000    0.000    0.000 
#    0.000    0.000    0.000    0.000    0.000    0.000 
#
# Total GULP energy -134452.860961 kJ/mol
# GULP energy per Si atom -5602.202540 kJ/mol
# Density = 2.437971 g / cm^3
# Si number density = 24.435324 Si / 1000 Ang^3
#
#
#
# Elastic Constant Matrix: (Units=GPa)
#
#
# Indices 1 2 3 4 5 6 
#
# 1 98.8309 6.5491 33.2254 0.0000 4.9551 0.0000
# 2 6.5491 80.6670 -14.4509 0.0000 2.7313 0.0000
# 3 33.2254 -14.4509 124.4119 0.0000 -8.2821 0.0000
# 4 0.0000 0.0000 0.0000 13.2450 0.0000 1.5777
# 5 4.9551 2.7313 -8.2821 0.0000 15.4741 0.0000
# 6 0.0000 0.0000 0.0000 1.5777 0.0000 25.3752
#
#
#
# Elastic Compliance Matrix: (Units=1/GPa)
#
#
# Indices 1 2 3 4 5 6 
#
# 1 0.011716 -0.001422 -0.003657 0.000000 -0.005458 0.000000
# 2 -0.001422 0.012866 0.001818 0.000000 -0.000843 0.000000
# 3 -0.003657 0.001818 0.009625 0.000000 0.006002 0.000000
# 4 0.000000 0.000000 0.000000 0.076063 0.000000 -0.004729
# 5 -0.005458 -0.000843 0.006002 0.000000 0.069733 0.000000
# 6 0.000000 0.000000 0.000000 -0.004729 0.000000 0.039703
#
#
# Mechanical properties :
#
#
# Convention : Reuss Voigt Hill
#
# Bulk Modulus (GPa) = 36.11984 39.39521 37.75753
# Shear Modulus (GPa) = 21.23538 29.39129 25.31333
#
# Velocity S-wave (km/s) = 2.95115 3.47193 3.22208
# Velocity P-wave (km/s) = 5.14065 5.67712 5.41553
#
# Compressibility (1/GPa) = 0.02768562
#
# Stress axis : x y z
#
# Youngs Moduli (GPa) = 85.35595 77.72268 103.89360
#
# Poissons Ratio (x) = 0.11048 0.37996
# Poissons Ratio (y) = 0.12133 -0.18888
# Poissons Ratio (z) = 0.31217 -0.14130
#
# Static dielectric constant tensor:
#      x y z
#    x 1.970920 0.000000 0.012930 
#    y 0.000000 1.980750 0.000000 
#    z 0.012930 0.000000 1.871530 
# 
# From -- ./inp_files/237428.got.cif
#   From: 2010.05.17/outbox.cif.g08.bks.cpg/sg15_119_cif.got.tgz:237428.got - 2010.06.03 18:47:42.
