data_PCOD9304336
_publ_section_title
;
Structure prediction by ZEFSAII (Michael W. Deem and Ramdas Pophale) SiO2 
 PCOD9304336
Probable space group: C 2/C
;
_chemical_formula_sum "Si O2"
_cell_formula_units_Z 44
_cell_length_a 10.171256
_cell_length_b 26.494543
_cell_length_c 8.550392
_cell_angle_alpha 90.000000
_cell_angle_beta 118.102095
_cell_angle_gamma 90.000000
_cell_volume 2032.542398
_symmetry_space_group_name_H-M "C 2/C"
_symmetry_group_IT_number 15
_symmetry_cell_setting 'monoclinic'
loop_
_space_group_symop_operation_xyz
x,y,z
-x,y,1/2-z
-x,-y,-z
x,-y,1/2+z
1/2+x,1/2+y,z
1/2-x,1/2+y,1/2-z
1/2-x,1/2-y,-z
1/2+x,1/2-y,1/2+z
loop_
_atom_site_type_symbol
_atom_site_label
_atom_site_fract_x
_atom_site_fract_y
_atom_site_fract_z
Si Si1 0.755900 0.635754 0.045185
Si Si2 0.077483 0.251655 0.449404
Si Si3 0.500000 0.702270 0.750000
Si Si4 0.933174 0.358518 0.937547
Si Si5 0.607201 0.532092 0.951851
Si Si6 0.105201 0.535562 0.955650
O O1 0.644029 0.669350 0.881050
O O2 0.674579 0.584405 0.050010
O O3 0.826109 0.661402 0.238062
O O4 0.905804 0.622884 0.033719
O O5 0.250000 0.250000 0.500000
O O6 0.039166 0.229758 0.603460
O O7 0.036152 0.310693 0.438823
O O8 0.000000 0.228372 0.250000
O O9 0.858688 0.408752 0.962189
O O10 0.500000 0.546776 0.750000
O O11 0.500000 0.500000 0.000000
O O12 0.745409 0.496024 0.988423
O O13 0.000000 0.544979 0.750000
O O14 0.000000 0.500000 0.000000
#
# Coordination Sequence:
#
# PCOD9304336 Si02
#       6
#     8   8   4   8   8   8
#     4  11  23  43  71 102 139 189 239 284 368 443
#     4  12  27  48  74 112 147 189 252 309 370 445
#     4  12  26  48  78 102 152 198 236 312 384 426
#     4  11  24  43  71 103 140 186 241 295 354 438
#     4  12  25  42  65 101 143 183 235 298 360 431
#     4  12  24  43  69  98 138 187 235 287 356 434
#
# _framework density 21.647765
#
# number of rings (size 3 to 8) (size 9 to 14) (size 15 to 20)
#    0.000    0.364    2.727    7.091    0.000    3.636 
#    0.000    3.636    0.000    0.000    0.000    0.000 
#    0.000    0.000    0.000    0.000    0.000    0.000 
#
# Total GULP energy -122773.010220 kJ/mol
# GULP energy per Si atom -5580.591374 kJ/mol
# Density = 2.159849 g / cm^3
# Si number density = 21.647765 Si / 1000 Ang^3
#
#
#
# Elastic Constant Matrix: (Units=GPa)
#
#
# Indices 1 2 3 4 5 6 
#
# 1 136.1315 33.9831 38.0870 0.0000 8.5626 0.0000
# 2 33.9831 96.1010 29.6284 0.0000 -9.8476 0.0000
# 3 38.0870 29.6284 165.3927 0.0000 6.7495 0.0000
# 4 0.0000 0.0000 0.0000 35.4978 0.0000 4.7271
# 5 8.5626 -9.8476 6.7495 0.0000 41.9260 0.0000
# 6 0.0000 0.0000 0.0000 4.7271 0.0000 36.6631
#
#
#
# Elastic Compliance Matrix: (Units=1/GPa)
#
#
# Indices 1 2 3 4 5 6 
#
# 1 0.008577 -0.002833 -0.001378 0.000000 -0.002195 0.000000
# 2 -0.002833 0.012318 -0.001707 0.000000 0.003747 0.000000
# 3 -0.001378 -0.001707 0.006718 0.000000 -0.001201 0.000000
# 4 0.000000 0.000000 0.000000 0.028663 0.000000 -0.003696
# 5 -0.002195 0.003747 -0.001201 0.000000 0.025373 0.000000
# 6 0.000000 0.000000 0.000000 -0.003696 0.000000 0.027752
#
#
# Mechanical properties :
#
#
# Convention : Reuss Voigt Hill
#
# Bulk Modulus (GPa) = 63.38477 66.78022 65.08250
# Shear Modulus (GPa) = 39.52703 42.54584 41.03643
#
# Velocity S-wave (km/s) = 4.27771 4.43806 4.35862
# Velocity P-wave (km/s) = 7.33090 7.56157 7.44713
#
# Compressibility (1/GPa) = 0.01577666
#
# Stress axis : x y z
#
# Youngs Moduli (GPa) = 116.59560 81.18372 148.84581
#
# Poissons Ratio (x) = 0.22999 0.20510
# Poissons Ratio (y) = 0.33031 0.25410
# Poissons Ratio (z) = 0.16067 0.13859
#
# Static dielectric constant tensor:
#      x y z
#    x 1.814400 0.000000 -0.043700 
#    y 0.000000 1.989860 0.000000 
#    z -0.043700 0.000000 1.841180 
# 
# From -- ./inp_files/26266.got.cif
#   From: 2010.05.17/outbox.cif.g08.bks.cpg/sg15_14_cif.got.tgz:26266.got - 2010.06.03 18:47:42.
