data_PCOD9304812
_publ_section_title
;
Structure prediction by ZEFSAII (Michael W. Deem and Ramdas Pophale) SiO2 
 PCOD9304812
Probable space group: C 2/C
;
_chemical_formula_sum "Si O2"
_cell_formula_units_Z 40
_cell_length_a 5.713555
_cell_length_b 24.997463
_cell_length_c 12.432693
_cell_angle_alpha 90.000000
_cell_angle_beta 85.142454
_cell_angle_gamma 90.000000
_cell_volume 1769.313938
_symmetry_space_group_name_H-M "C 2/C"
_symmetry_group_IT_number 15
_symmetry_cell_setting 'monoclinic'
loop_
_space_group_symop_operation_xyz
x,y,z
-x,y,1/2-z
-x,-y,-z
x,-y,1/2+z
1/2+x,1/2+y,z
1/2-x,1/2+y,1/2-z
1/2-x,1/2-y,-z
1/2+x,1/2-y,1/2+z
loop_
_atom_site_type_symbol
_atom_site_label
_atom_site_fract_x
_atom_site_fract_y
_atom_site_fract_z
Si Si1 0.259850 0.387508 0.189216
Si Si2 0.607541 0.503287 0.371592
Si Si3 0.603197 0.821211 0.012333
Si Si4 0.516614 0.724790 0.369809
Si Si5 0.838001 0.380697 0.861198
O O1 0.500000 0.383875 0.250000
O O2 0.252508 0.447541 0.141351
O O3 0.275322 0.342506 0.097242
O O4 0.000000 0.379030 0.250000
O O5 0.500000 0.503450 0.250000
O O6 0.500000 0.500000 0.500000
O O7 0.722687 0.561584 0.367947
O O8 0.423211 0.777376 0.064227
O O9 0.483591 0.872113 0.964077
O O10 0.757295 0.792334 0.916749
O O11 0.500000 0.744047 0.250000
O O12 0.668458 0.670939 0.366475
O O13 0.000000 0.377595 0.750000
#
# Coordination Sequence:
#
# PCOD9304812 Si02
#       5
#     8   8   8   8   8
#     4  11  27  51  74 113 152 202 259 318 392 474
#     4  11  27  48  78 111 157 205 259 328 395 477
#     4  11  26  44  75  99 147 202 245 324 382 475
#     4  11  23  47  64 106 146 190 255 311 394 462
#     4  12  25  44  76 109 145 197 257 325 391 467
#
# _framework density 22.607631000000001
#
# number of rings (size 3 to 8) (size 9 to 14) (size 15 to 20)
#    0.000    0.800    2.000    3.600   11.200    0.800 
#    7.200    0.000    0.000    0.000    0.000    0.000 
#    0.000    0.000    0.000    0.000    0.000    0.000 
#
# Total GULP energy -111438.672248 kJ/mol
# GULP energy per Si atom -5571.933612 kJ/mol
# Density = 2.255618 g / cm^3
# Si number density = 22.607631 Si / 1000 Ang^3
#
#
#
# Elastic Constant Matrix: (Units=GPa)
#
#
# Indices 1 2 3 4 5 6 
#
# 1 72.9889 42.4675 63.4117 0.0000 -1.0671 0.0000
# 2 42.4675 165.9226 69.7459 0.0000 2.9819 0.0000
# 3 63.4117 69.7459 154.2974 0.0000 -10.8226 0.0000
# 4 0.0000 0.0000 0.0000 49.2472 0.0000 6.4874
# 5 -1.0671 2.9819 -10.8226 0.0000 37.4489 0.0000
# 6 0.0000 0.0000 0.0000 6.4874 0.0000 44.8867
#
#
#
# Elastic Compliance Matrix: (Units=1/GPa)
#
#
# Indices 1 2 3 4 5 6 
#
# 1 0.022061 -0.002174 -0.008194 0.000000 -0.001566 0.000000
# 2 -0.002174 0.007750 -0.002712 0.000000 -0.001463 0.000000
# 3 -0.008194 -0.002712 0.011302 0.000000 0.003249 0.000000
# 4 0.000000 0.000000 0.000000 0.020700 0.000000 -0.002992
# 5 -0.001566 -0.001463 0.003249 0.000000 0.027714 0.000000
# 6 0.000000 0.000000 0.000000 -0.002992 0.000000 0.022711
#
#
# Mechanical properties :
#
#
# Convention : Reuss Voigt Hill
#
# Bulk Modulus (GPa) = 66.87482 82.71769 74.79625
# Shear Modulus (GPa) = 34.87190 40.82213 37.84702
#
# Velocity S-wave (km/s) = 3.93171 4.25394 4.09599
# Velocity P-wave (km/s) = 7.08914 7.79717 7.45157
#
# Compressibility (1/GPa) = 0.01495331
#
# Stress axis : x y z
#
# Youngs Moduli (GPa) = 45.32815 129.03689 88.47870
#
# Poissons Ratio (x) = 0.28055 0.72496
# Poissons Ratio (y) = 0.09855 0.23997
# Poissons Ratio (z) = 0.37140 0.34996
#
# Static dielectric constant tensor:
#      x y z
#    x 1.894550 0.000000 0.075980 
#    y 0.000000 1.765080 0.000000 
#    z 0.075980 0.000000 1.882870 
# 
# From -- ./inp_files/73209.got.cif
#   From: 2010.05.17/outbox.cif.g08.bks.cpg/sg15_37_cif.got.tgz:73209.got - 2010.06.03 18:47:42.
