data_PCOD9304063
_publ_section_title
;
Structure prediction by ZEFSAII (Michael W. Deem and Ramdas Pophale) SiO2 
 PCOD9304063
Probable space group: C 2/C
;
_chemical_formula_sum "Si O2"
_cell_formula_units_Z 56
_cell_length_a 26.710946
_cell_length_b 8.645426
_cell_length_c 17.923304
_cell_angle_alpha 90.000000
_cell_angle_beta 140.659569
_cell_angle_gamma 90.000000
_cell_volume 2623.812736
_symmetry_space_group_name_H-M "C 2/C"
_symmetry_group_IT_number 15
_symmetry_cell_setting 'monoclinic'
loop_
_space_group_symop_operation_xyz
x,y,z
-x,y,1/2-z
-x,-y,-z
x,-y,1/2+z
1/2+x,1/2+y,z
1/2-x,1/2+y,1/2-z
1/2-x,1/2-y,-z
1/2+x,1/2-y,1/2+z
loop_
_atom_site_type_symbol
_atom_site_label
_atom_site_fract_x
_atom_site_fract_y
_atom_site_fract_z
Si Si1 0.300954 0.100872 0.698968
Si Si2 0.942436 0.572953 0.123325
Si Si3 0.492317 0.578908 0.654148
Si Si4 0.579048 0.923132 0.558314
Si Si5 0.137768 0.905502 0.091443
Si Si6 0.148565 0.061560 0.260107
Si Si7 0.279381 0.921306 0.519206
O O1 0.217189 0.145472 0.639964
O O2 0.352384 0.253191 0.742100
O O3 0.348727 0.992395 0.811024
O O4 0.286547 0.012529 0.604997
O O5 0.982016 0.734688 0.142429
O O6 0.862939 0.601670 0.076356
O O7 0.000000 0.495091 0.250000
O O8 0.920990 0.473794 0.027430
O O9 0.500000 0.534322 0.750000
O O10 0.416514 0.503576 0.527299
O O11 0.569214 0.517189 0.700000
O O12 0.588031 0.738775 0.566426
O O13 0.500000 0.000000 0.500000
O O14 0.161166 0.006734 0.189951
O O15 0.219747 0.007882 0.395120
O O16 0.250000 0.750000 0.500000
#
# Coordination Sequence:
#
# PCOD9304063 Si02
#       7
#     8   8   8   8   8   8   8
#     4  12  25  43  66  98 134 174 220 272 329 393
#     4  11  23  42  65  94 128 169 215 268 328 392
#     4  11  24  44  67  94 129 172 218 268 329 397
#     4  12  25  43  66  96 130 170 219 274 327 386
#     4  12  24  42  67  97 131 174 220 271 327 391
#     4  12  25  44  67  96 132 175 219 270 330 394
#     4  12  24  42  67  97 132 172 218 273 328 391
#
# _framework density 21.342987000000001
#
# number of rings (size 3 to 8) (size 9 to 14) (size 15 to 20)
#    0.000    0.286    0.000   11.143    0.000    1.714 
#    0.000    0.000    0.000    0.000    0.000    0.000 
#    0.000    0.000    0.000    0.000    0.000    0.000 
#
# Total GULP energy -156827.357534 kJ/mol
# GULP energy per Si atom -5600.977055 kJ/mol
# Density = 2.129441 g / cm^3
# Si number density = 21.342987 Si / 1000 Ang^3
#
#
#
# Elastic Constant Matrix: (Units=GPa)
#
#
# Indices 1 2 3 4 5 6 
#
# 1 91.2055 4.9818 17.7925 0.0000 -5.5896 0.0000
# 2 4.9818 91.9132 28.8061 0.0000 -32.3536 0.0000
# 3 17.7925 28.8061 153.3675 0.0000 -37.3155 0.0000
# 4 0.0000 0.0000 0.0000 45.9595 0.0000 -7.6639
# 5 -5.5896 -32.3536 -37.3155 0.0000 46.1075 0.0000
# 6 0.0000 0.0000 0.0000 -7.6639 0.0000 32.2725
#
#
#
# Elastic Compliance Matrix: (Units=1/GPa)
#
#
# Indices 1 2 3 4 5 6 
#
# 1 0.011225 -0.000126 -0.001207 0.000000 0.000296 0.000000
# 2 -0.000126 0.014462 -0.000294 0.000000 0.009894 0.000000
# 3 -0.001207 -0.000294 0.008255 0.000000 0.006328 0.000000
# 4 0.000000 0.000000 0.000000 0.022655 0.000000 0.005380
# 5 0.000296 0.009894 0.006328 0.000000 0.033789 0.000000
# 6 0.000000 0.000000 0.000000 0.005380 0.000000 0.032264
#
#
# Mechanical properties :
#
#
# Convention : Reuss Voigt Hill
#
# Bulk Modulus (GPa) = 32.58627 48.84968 40.71798
# Shear Modulus (GPa) = 36.72885 43.86162 40.29523
#
# Velocity S-wave (km/s) = 4.15286 4.53822 4.34981
# Velocity P-wave (km/s) = 6.18838 7.09917 6.65936
#
# Compressibility (1/GPa) = 0.03068777
#
# Stress axis : x y z
#
# Youngs Moduli (GPa) = 89.08972 69.14812 121.13474
#
# Poissons Ratio (x) = 0.00872 0.14615
# Poissons Ratio (y) = 0.01124 0.03564
# Poissons Ratio (z) = 0.10749 0.02035
#
# Static dielectric constant tensor:
#      x y z
#    x 1.727350 0.000000 0.018720 
#    y 0.000000 1.773390 0.000000 
#    z 0.018720 0.000000 1.772520 
# 
# From -- ./inp_files/222064.got.cif
#   From: 2010.05.17/outbox.cif.g08.bks.cpg/sg15_112_cif.got.tgz:222064.got - 2010.06.03 18:47:42.
