data_PCOD9304943
_publ_section_title
;
Structure prediction by ZEFSAII (Michael W. Deem and Ramdas Pophale) SiO2 
 PCOD9304943
Probable space group: C 2/C
;
_chemical_formula_sum "Si O2"
_cell_formula_units_Z 36
_cell_length_a 6.499084
_cell_length_b 23.199026
_cell_length_c 10.524538
_cell_angle_alpha 90.000000
_cell_angle_beta 107.982274
_cell_angle_gamma 90.000000
_cell_volume 1509.297669
_symmetry_space_group_name_H-M "C 2/C"
_symmetry_group_IT_number 15
_symmetry_cell_setting 'monoclinic'
loop_
_space_group_symop_operation_xyz
x,y,z
-x,y,1/2-z
-x,-y,-z
x,-y,1/2+z
1/2+x,1/2+y,z
1/2-x,1/2+y,1/2-z
1/2-x,1/2-y,-z
1/2+x,1/2-y,1/2+z
loop_
_atom_site_type_symbol
_atom_site_label
_atom_site_fract_x
_atom_site_fract_y
_atom_site_fract_z
Si Si1 0.000000 0.534384 0.750000
Si Si2 0.903581 0.204974 0.598625
Si Si3 0.653332 0.541384 0.108918
Si Si4 0.947040 0.390824 0.478943
Si Si5 0.390534 0.341639 0.607787
O O1 0.783652 0.496892 0.735560
O O2 0.042755 0.575019 0.878215
O O3 0.750000 0.250000 0.500000
O O4 0.752202 0.149704 0.599539
O O5 0.000000 0.225602 0.750000
O O6 0.075505 0.188144 0.522188
O O7 0.521012 0.597709 0.123413
O O8 0.500000 0.500000 0.000000
O O9 0.847291 0.564462 0.058240
O O10 0.138631 0.354175 0.578777
O O11 0.500000 0.310535 0.750000
#
# Coordination Sequence:
#
# PCOD9304943 Si02
#       5
#     4   8   8   8   8
#     4  12  22  40  68  98 144 186 236 286 342 422
#     4  11  28  51  77 105 141 182 238 306 368 428
#     4  11  24  38  63 101 144 191 229 284 344 418
#     4  11  25  44  67 102 141 186 241 287 356 423
#     4  11  25  46  72 105 143 189 241 293 355 429
#
# _framework density 23.852153999999999
#
# number of rings (size 3 to 8) (size 9 to 14) (size 15 to 20)
#    0.000    0.889    2.222    3.333    9.333    2.667 
#    2.000    0.000    0.000    0.000    0.000    0.000 
#    0.000    0.000    0.000    0.000    0.000    0.000 
#
# Total GULP energy -100802.769341 kJ/mol
# GULP energy per Si atom -5600.153852 kJ/mol
# Density = 2.379787 g / cm^3
# Si number density = 23.852154 Si / 1000 Ang^3
#
#
#
# Elastic Constant Matrix: (Units=GPa)
#
#
# Indices 1 2 3 4 5 6 
#
# 1 95.4873 -0.9162 32.6348 0.0000 4.1071 0.0000
# 2 -0.9162 42.3623 18.0583 0.0000 -3.4742 0.0000
# 3 32.6348 18.0583 160.0644 0.0000 7.2999 0.0000
# 4 0.0000 0.0000 0.0000 33.9138 0.0000 9.3229
# 5 4.1071 -3.4742 7.2999 0.0000 42.8247 0.0000
# 6 0.0000 0.0000 0.0000 9.3229 0.0000 25.2837
#
#
#
# Elastic Compliance Matrix: (Units=1/GPa)
#
#
# Indices 1 2 3 4 5 6 
#
# 1 0.011338 0.001232 -0.002424 0.000000 -0.000574 0.000000
# 2 0.001232 0.025203 -0.003207 0.000000 0.002473 0.000000
# 3 -0.002424 -0.003207 0.007161 0.000000 -0.001248 0.000000
# 4 0.000000 0.000000 0.000000 0.032813 0.000000 -0.012099
# 5 -0.000574 0.002473 -0.001248 0.000000 0.023819 0.000000
# 6 0.000000 0.000000 0.000000 -0.012099 0.000000 0.044012
#
#
# Mechanical properties :
#
#
# Convention : Reuss Voigt Hill
#
# Bulk Modulus (GPa) = 28.65263 44.16306 36.40785
# Shear Modulus (GPa) = 30.34369 36.94692 33.64530
#
# Velocity S-wave (km/s) = 3.57060 3.94000 3.75984
# Velocity P-wave (km/s) = 5.38865 6.26527 5.84343
#
# Compressibility (1/GPa) = 0.03490081
#
# Stress axis : x y z
#
# Youngs Moduli (GPa) = 88.20143 39.67853 139.65439
#
# Poissons Ratio (x) = -0.04887 0.33857
# Poissons Ratio (y) = -0.10863 0.44790
# Poissons Ratio (z) = 0.21383 0.12726
#
# Static dielectric constant tensor:
#      x y z
#    x 1.905330 0.000000 0.018710 
#    y 0.000000 1.939890 0.000000 
#    z 0.018710 0.000000 1.937940 
# 
# From -- ./inp_files/72708.got.cif
#   From: 2010.05.17/outbox.cif.g08.bks.cpg/sg15_37_cif.got.tgz:72708.got - 2010.06.03 18:47:42.
