data_PCOD9304223
_publ_section_title
;
Structure prediction by ZEFSAII (Michael W. Deem and Ramdas Pophale) SiO2 
 PCOD9304223
Probable space group: C 2/C
;
_chemical_formula_sum "Si O2"
_cell_formula_units_Z 44
_cell_length_a 23.175022
_cell_length_b 6.909217
_cell_length_c 23.362734
_cell_angle_alpha 90.000000
_cell_angle_beta 34.578140
_cell_angle_gamma 90.000000
_cell_volume 2123.054831
_symmetry_space_group_name_H-M "C 2/C"
_symmetry_group_IT_number 15
_symmetry_cell_setting 'monoclinic'
loop_
_space_group_symop_operation_xyz
x,y,z
-x,y,1/2-z
-x,-y,-z
x,-y,1/2+z
1/2+x,1/2+y,z
1/2-x,1/2+y,1/2-z
1/2-x,1/2-y,-z
1/2+x,1/2-y,1/2+z
loop_
_atom_site_type_symbol
_atom_site_label
_atom_site_fract_x
_atom_site_fract_y
_atom_site_fract_z
Si Si1 0.987538 0.717376 0.940466
Si Si2 0.331703 0.451807 0.871516
Si Si3 0.117493 0.349420 0.860255
Si Si4 0.000000 0.279949 0.750000
Si Si5 0.110917 0.604527 0.594918
Si Si6 0.825185 0.018910 0.244154
O O1 0.924892 0.716246 0.932867
O O2 0.032336 0.502059 0.912155
O O3 0.083877 0.855414 0.856024
O O4 0.921810 0.760270 0.050545
O O5 0.405989 0.635648 0.815429
O O6 0.380778 0.262099 0.861010
O O7 0.311651 0.420453 0.820792
O O8 0.223640 0.478189 0.991038
O O9 0.221131 0.453672 0.794575
O O10 0.141672 0.202358 0.790021
O O11 0.035946 0.428663 0.671303
#
# Coordination Sequence:
#
# PCOD9304223 Si02
#       6
#     8   8   8   4   8   8
#     4  11  23  43  65  92 134 169 220 273 325 397
#     4  11  25  43  67  97 135 172 225 274 326 406
#     4  11  24  40  64  96 128 170 220 271 327 387
#     4  12  22  42  66 100 128 174 222 272 332 388
#     4  11  24  44  67  97 133 179 218 274 341 389
#     4  12  22  43  65  95 128 172 219 268 329 389
#
# _framework density 20.724851999999998
#
# number of rings (size 3 to 8) (size 9 to 14) (size 15 to 20)
#    0.000    0.727    3.636    4.909    0.000    0.000 
#    0.000    1.818    0.000    0.000    0.000    0.000 
#    0.000    0.000    0.000    0.000    0.000    0.000 
#
# Total GULP energy -122991.810694 kJ/mol
# GULP energy per Si atom -5590.536850 kJ/mol
# Density = 2.067768 g / cm^3
# Si number density = 20.724852 Si / 1000 Ang^3
#
#
#
# Elastic Constant Matrix: (Units=GPa)
#
#
# Indices 1 2 3 4 5 6 
#
# 1 69.2972 12.0670 20.6692 0.0276 20.0561 -0.0136
# 2 12.0670 58.5431 40.0574 0.0165 26.6272 -0.0084
# 3 20.6692 40.0574 75.3671 -0.0124 -35.2806 0.0040
# 4 0.0276 0.0165 -0.0124 38.2689 -0.0224 -4.5232
# 5 20.0561 26.6272 -35.2806 -0.0224 -9.5820 0.0121
# 6 -0.0136 -0.0084 0.0040 -4.5232 0.0121 31.8169
#
#
#
# Elastic Compliance Matrix: (Units=1/GPa)
#
#
# Indices 1 2 3 4 5 6 
#
# 1 0.013602 -0.006180 0.001778 -0.000004 0.004750 0.000002
# 2 -0.006180 0.011417 0.001624 0.000007 0.012811 -0.000004
# 3 0.001778 0.001624 0.005791 -0.000007 -0.013088 0.000004
# 4 -0.000004 0.000007 -0.000007 0.026577 -0.000018 0.003778
# 5 0.004750 0.012811 -0.013088 -0.000018 -0.010630 0.000008
# 6 0.000002 -0.000004 0.000004 0.003778 0.000008 0.031967
#
#
# Mechanical properties :
#
#
# Convention : Reuss Voigt Hill
#
# Bulk Modulus (GPa) = 39.59927 38.75499 39.17713
# Shear Modulus (GPa) = 53.93811 20.79501 37.36656
#
# Velocity S-wave (km/s) = 5.10708 3.17106 4.25076
# Velocity P-wave (km/s) = 7.34337 5.66991 6.56022
#
# Compressibility (1/GPa) = 0.02525299
#
# Stress axis : x y z
#
# Youngs Moduli (GPa) = 73.51913 87.58737 172.68277
#
# Poissons Ratio (x) = 0.54132 -0.30701
# Poissons Ratio (y) = 0.45438 -0.28043
# Poissons Ratio (z) = -0.13071 -0.14224
#
# Static dielectric constant tensor:
#      x y z
#    x 1.716300 0.000000 0.002330 
#    y 0.000000 1.720900 -0.000010 
#    z 0.002330 -0.000010 1.740930 
# 
# From -- ./inp_files/175371.got.cif
#   From: 2010.05.17/outbox.cif.g08.bks.cpg/sg15_88_cif.got.tgz:175371.got - 2010.06.03 18:47:42.
