data_PCOD9304900
_publ_section_title
;
Structure prediction by ZEFSAII (Michael W. Deem and Ramdas Pophale) SiO2 
 PCOD9304900
Probable space group: C 2/C
;
_chemical_formula_sum "Si O2"
_cell_formula_units_Z 40
_cell_length_a 27.264200
_cell_length_b 7.386586
_cell_length_c 12.982974
_cell_angle_alpha 90.000000
_cell_angle_beta 144.329737
_cell_angle_gamma 90.000000
_cell_volume 1524.643774
_symmetry_space_group_name_H-M "C 2/C"
_symmetry_group_IT_number 15
_symmetry_cell_setting 'monoclinic'
loop_
_space_group_symop_operation_xyz
x,y,z
-x,y,1/2-z
-x,-y,-z
x,-y,1/2+z
1/2+x,1/2+y,z
1/2-x,1/2+y,1/2-z
1/2-x,1/2-y,-z
1/2+x,1/2-y,1/2+z
loop_
_atom_site_type_symbol
_atom_site_label
_atom_site_fract_x
_atom_site_fract_y
_atom_site_fract_z
Si Si1 0.985089 0.988593 0.345526
Si Si2 0.052530 0.387588 0.940098
Si Si3 0.127338 0.260732 0.648353
Si Si4 0.801034 0.003199 0.585785
Si Si5 0.265436 0.223577 0.705204
O O1 0.894146 0.068755 0.214038
O O2 0.000000 0.998807 0.250000
O O3 0.997742 0.776157 0.390703
O O4 0.060681 0.098813 0.522265
O O5 0.000000 0.449600 0.750000
O O6 0.074573 0.556129 0.048973
O O7 0.145975 0.299542 0.083541
O O8 0.177556 0.203861 0.836414
O O9 0.190571 0.247892 0.658207
O O10 0.748312 0.949471 0.394410
O O11 0.768695 0.890247 0.629780
#
# Coordination Sequence:
#
# PCOD9304900 Si02
#       5
#     8   8   8   8   8
#     4  11  23  48  74 108 156 199 244 315 380 448
#     4  11  27  44  73 112 146 197 260 300 378 455
#     4  12  24  47  78 107 154 202 245 319 372 445
#     4  11  25  47  81 109 152 203 250 310 390 447
#     4  11  25  49  76 114 151 198 260 312 378 456
#
# _framework density 26.235638000000002
#
# number of rings (size 3 to 8) (size 9 to 14) (size 15 to 20)
#    0.000    0.800    4.000    2.400    0.000    1.600 
#    0.000    2.000    0.000    0.000    0.000    0.000 
#    0.000    0.000    0.000    0.000    0.000    0.000 
#
# Total GULP energy -112008.440997 kJ/mol
# GULP energy per Si atom -5600.422050 kJ/mol
# Density = 2.617592 g / cm^3
# Si number density = 26.235638 Si / 1000 Ang^3
#
#
#
# Elastic Constant Matrix: (Units=GPa)
#
#
# Indices 1 2 3 4 5 6 
#
# 1 114.6260 -22.6734 37.3929 0.0000 6.2297 0.0000
# 2 -22.6734 45.9464 15.9979 0.0000 -0.4444 0.0000
# 3 37.3929 15.9979 209.7188 0.0000 -13.5644 0.0000
# 4 0.0000 0.0000 0.0000 58.4800 0.0000 5.3710
# 5 6.2297 -0.4444 -13.5644 0.0000 33.3568 0.0000
# 6 0.0000 0.0000 0.0000 5.3710 0.0000 48.6673
#
#
#
# Elastic Compliance Matrix: (Units=1/GPa)
#
#
# Indices 1 2 3 4 5 6 
#
# 1 0.011001 0.006318 -0.002640 0.000000 -0.003044 0.000000
# 2 0.006318 0.025993 -0.003249 0.000000 -0.002155 0.000000
# 3 -0.002640 -0.003249 0.005665 0.000000 0.002753 0.000000
# 4 0.000000 0.000000 0.000000 0.017275 0.000000 -0.001906
# 5 -0.003044 -0.002155 0.002753 0.000000 0.031638 0.000000
# 6 0.000000 0.000000 0.000000 -0.001906 0.000000 0.020758
#
#
# Mechanical properties :
#
#
# Convention : Reuss Voigt Hill
#
# Bulk Modulus (GPa) = 22.97952 47.96955 35.47454
# Shear Modulus (GPa) = 39.68991 50.73907 45.21449
#
# Velocity S-wave (km/s) = 3.89372 4.40247 4.15589
# Velocity P-wave (km/s) = 5.38449 6.64576 6.04809
#
# Compressibility (1/GPa) = 0.04351700
#
# Stress axis : x y z
#
# Youngs Moduli (GPa) = 90.90457 38.47225 176.52370
#
# Poissons Ratio (x) = -0.24308 0.46607
# Poissons Ratio (y) = -0.57437 0.57348
# Poissons Ratio (z) = 0.24001 0.12499
#
# Static dielectric constant tensor:
#      x y z
#    x 2.056980 0.000000 -0.031220 
#    y 0.000000 2.106510 0.000000 
#    z -0.031220 0.000000 2.103170 
# 
# From -- ./inp_files/181266.got.cif
#   From: 2010.05.17/outbox.cif.g08.bks.cpg/sg15_91_cif.got.tgz:181266.got - 2010.06.03 18:47:42.
