data_PCOD9304039
_publ_section_title
;
Structure prediction by ZEFSAII (Michael W. Deem and Ramdas Pophale) SiO2 
 PCOD9304039
Probable space group: C 2/C
;
_chemical_formula_sum "Si O2"
_cell_formula_units_Z 32
_cell_length_a 17.148090
_cell_length_b 9.090874
_cell_length_c 14.101638
_cell_angle_alpha 90.000000
_cell_angle_beta 36.014639
_cell_angle_gamma 90.000000
_cell_volume 1292.594562
_symmetry_space_group_name_H-M "C 2/C"
_symmetry_group_IT_number 15
_symmetry_cell_setting 'monoclinic'
loop_
_space_group_symop_operation_xyz
x,y,z
-x,y,1/2-z
-x,-y,-z
x,-y,1/2+z
1/2+x,1/2+y,z
1/2-x,1/2+y,1/2-z
1/2-x,1/2-y,-z
1/2+x,1/2-y,1/2+z
loop_
_atom_site_type_symbol
_atom_site_label
_atom_site_fract_x
_atom_site_fract_y
_atom_site_fract_z
Si Si1 0.960976 0.914460 0.133055
Si Si2 0.142062 0.613122 0.757679
Si Si3 0.210054 0.080706 0.527858
Si Si4 0.361697 0.160044 0.105928
O O1 0.091258 0.914978 0.068944
O O2 0.916542 0.754418 0.141622
O O3 0.012434 0.346064 0.087804
O O4 0.000000 0.000000 0.000000
O O5 0.182840 0.527920 0.622422
O O6 0.239662 0.748384 0.683992
O O7 0.165370 0.499087 0.822445
O O8 0.152720 0.027822 0.684714
O O9 0.250000 0.250000 0.500000
#
# Coordination Sequence:
#
# PCOD9304039 Si02
#       4
#     8   8   8   8
#     4  11  23  41  75 108 152 202 253 321 397 460
#     4  11  24  45  76 118 153 201 266 323 395 474
#     4  11  23  43  73 111 146 202 264 315 383 480
#     4  11  24  43  79 114 153 209 255 327 400 469
#
# _framework density 24.756409999999999
#
# number of rings (size 3 to 8) (size 9 to 14) (size 15 to 20)
#    0.000    1.000    5.000    1.500    0.000    0.000 
#    0.000    1.250   11.000    0.000    0.000    0.000 
#    0.000    0.000    0.000    0.000    0.000    0.000 
#
# Total GULP energy -89717.294950 kJ/mol
# GULP energy per Si atom -5607.330934 kJ/mol
# Density = 2.470006 g / cm^3
# Si number density = 24.756410 Si / 1000 Ang^3
#
#
#
# Elastic Constant Matrix: (Units=GPa)
#
#
# Indices 1 2 3 4 5 6 
#
# 1 74.3605 67.4377 78.2980 0.0000 7.4017 0.0000
# 2 67.4377 144.8409 72.7921 0.0000 -16.3465 0.0000
# 3 78.2980 72.7921 235.5915 0.0000 -17.5524 0.0000
# 4 0.0000 0.0000 0.0000 55.5692 0.0000 -3.4360
# 5 7.4017 -16.3465 -17.5524 0.0000 43.8248 0.0000
# 6 0.0000 0.0000 0.0000 -3.4360 0.0000 42.3294
#
#
#
# Elastic Compliance Matrix: (Units=1/GPa)
#
#
# Indices 1 2 3 4 5 6 
#
# 1 0.038436 -0.014998 -0.009319 0.000000 -0.015818 0.000000
# 2 -0.014998 0.014217 0.001212 0.000000 0.008321 0.000000
# 3 -0.009319 0.001212 0.007337 0.000000 0.004964 0.000000
# 4 0.000000 0.000000 0.000000 0.018086 0.000000 0.001468
# 5 -0.015818 0.008321 0.004964 0.000000 0.030582 0.000000
# 6 0.000000 0.000000 0.000000 0.001468 0.000000 0.023743
#
#
# Mechanical properties :
#
#
# Convention : Reuss Voigt Hill
#
# Bulk Modulus (GPa) = 72.56391 99.09430 85.82910
# Shear Modulus (GPa) = 27.29184 44.09570 35.69377
#
# Velocity S-wave (km/s) = 3.32387 4.22499 3.80122
# Velocity P-wave (km/s) = 6.64120 7.99470 7.34918
#
# Compressibility (1/GPa) = 0.01378096
#
# Stress axis : x y z
#
# Youngs Moduli (GPa) = 26.01729 70.33711 136.29264
#
# Poissons Ratio (x) = 1.05489 1.27006
# Poissons Ratio (y) = 0.39020 -0.16513
# Poissons Ratio (z) = 0.24245 -0.08522
#
# Static dielectric constant tensor:
#      x y z
#    x 1.934240 0.000000 -0.040170 
#    y 0.000000 1.961350 0.000000 
#    z -0.040170 0.000000 1.986470 
# 
# From -- ./inp_files/164970.got.cif
#   From: 2010.05.17/outbox.cif.g08.bks.cpg/sg15_83_cif.got.tgz:164970.got - 2010.06.03 18:47:42.
