data_PCOD9304253
_publ_section_title
;
Structure prediction by ZEFSAII (Michael W. Deem and Ramdas Pophale) SiO2 
 PCOD9304253
Probable space group: C 2/C
;
_chemical_formula_sum "Si O2"
_cell_formula_units_Z 64
_cell_length_a 27.645348
_cell_length_b 9.762691
_cell_length_c 13.458979
_cell_angle_alpha 90.000000
_cell_angle_beta 58.614332
_cell_angle_gamma 90.000000
_cell_volume 3100.982997
_symmetry_space_group_name_H-M "C 2/C"
_symmetry_group_IT_number 15
_symmetry_cell_setting 'monoclinic'
loop_
_space_group_symop_operation_xyz
x,y,z
-x,y,1/2-z
-x,-y,-z
x,-y,1/2+z
1/2+x,1/2+y,z
1/2-x,1/2+y,1/2-z
1/2-x,1/2-y,-z
1/2+x,1/2-y,1/2+z
loop_
_atom_site_type_symbol
_atom_site_label
_atom_site_fract_x
_atom_site_fract_y
_atom_site_fract_z
Si Si1 0.678670 0.435574 0.309214
Si Si2 0.562571 0.794369 0.695833
Si Si3 0.278179 0.521537 0.449538
Si Si4 0.672083 0.809082 0.087545
Si Si5 0.663123 0.666266 0.473207
Si Si6 0.690015 0.101901 0.790041
Si Si7 0.054668 0.598537 0.627020
Si Si8 0.393355 0.841271 0.629387
O O1 0.688995 0.484554 0.185587
O O2 0.648874 0.550827 0.407313
O O3 0.743022 0.424665 0.280279
O O4 0.643571 0.295586 0.348428
O O5 0.500000 0.732554 0.750000
O O6 0.611111 0.698154 0.600622
O O7 0.578598 0.833574 0.791716
O O8 0.560618 0.935048 0.634672
O O9 0.306610 0.658693 0.464479
O O10 0.214152 0.572991 0.500537
O O11 0.285641 0.394337 0.515336
O O12 0.676213 0.821441 0.201866
O O13 0.609807 0.835048 0.116889
O O14 0.678587 0.801493 0.396069
O O15 0.650890 0.967328 0.831934
O O16 0.059142 0.638362 0.506638
O O17 0.000000 0.639249 0.750000
#
# Coordination Sequence:
#
# PCOD9304253 Si02
#       8
#     8   8   8   8   8   8   8   8
#     4  12  25  41  68 104 142 181 222 283 361 431
#     4  11  26  47  73  99 136 183 243 303 347 412
#     4  11  24  41  70  98 147 182 225 290 355 417
#     4  11  23  43  67 106 138 186 234 287 347 420
#     4  12  24  46  65 104 138 186 230 287 350 419
#     4  12  24  39  71 104 141 183 231 281 350 427
#     4  11  25  44  70  99 137 184 235 290 340 412
#     4  12  25  46  71 105 138 186 238 287 358 420
#
# _framework density 20.638617
#
# number of rings (size 3 to 8) (size 9 to 14) (size 15 to 20)
#    0.000    0.500    6.250    2.250    1.750    3.500 
#    0.000    3.125    0.000    0.000    0.000    0.000 
#    0.000    0.000    0.000    0.000    0.000    0.000 
#
# Total GULP energy -179033.644650 kJ/mol
# GULP energy per Si atom -5594.801395 kJ/mol
# Density = 2.059164 g / cm^3
# Si number density = 20.638617 Si / 1000 Ang^3
#
#
#
# Elastic Constant Matrix: (Units=GPa)
#
#
# Indices 1 2 3 4 5 6 
#
# 1 72.8942 44.4274 48.5877 0.0000 -5.2838 0.0000
# 2 44.4274 102.4089 61.6267 0.0000 0.3079 0.0000
# 3 48.5877 61.6267 162.3591 0.0000 7.1244 0.0000
# 4 0.0000 0.0000 0.0000 32.8730 0.0000 5.0563
# 5 -5.2838 0.3079 7.1244 0.0000 39.6099 0.0000
# 6 0.0000 0.0000 0.0000 5.0563 0.0000 16.9990
#
#
#
# Elastic Compliance Matrix: (Units=1/GPa)
#
#
# Indices 1 2 3 4 5 6 
#
# 1 0.020539 -0.006649 -0.003775 0.000000 0.003470 0.000000
# 2 -0.006649 0.014831 -0.003624 0.000000 -0.000350 0.000000
# 3 -0.003775 -0.003624 0.008755 0.000000 -0.002050 0.000000
# 4 0.000000 0.000000 0.000000 0.031879 0.000000 -0.009482
# 5 0.003470 -0.000350 -0.002050 0.000000 0.026081 0.000000
# 6 0.000000 0.000000 0.000000 -0.009482 0.000000 0.061647
#
#
# Mechanical properties :
#
#
# Convention : Reuss Voigt Hill
#
# Bulk Modulus (GPa) = 62.39093 71.88288 67.13691
# Shear Modulus (GPa) = 25.35878 30.09774 27.72826
#
# Velocity S-wave (km/s) = 3.50909 3.82294 3.66937
# Velocity P-wave (km/s) = 6.83477 7.37505 7.11005
#
# Compressibility (1/GPa) = 0.01602797
#
# Stress axis : x y z
#
# Youngs Moduli (GPa) = 48.68867 67.42471 114.22626
#
# Poissons Ratio (x) = 0.44830 0.43120
# Poissons Ratio (y) = 0.32373 0.41400
# Poissons Ratio (z) = 0.18380 0.24437
#
# Static dielectric constant tensor:
#      x y z
#    x 1.733790 0.000000 0.033250 
#    y 0.000000 1.731240 0.000000 
#    z 0.033250 0.000000 1.784820 
# 
# From -- ./inp_files/181138.got.cif
#   From: 2010.05.17/outbox.cif.g08.bks.cpg/sg15_91_cif.got.tgz:181138.got - 2010.06.03 18:47:42.
