data_PCOD9304817
_publ_section_title
;
Structure prediction by ZEFSAII (Michael W. Deem and Ramdas Pophale) SiO2 
 PCOD9304817
Probable space group: C 2/C
;
_chemical_formula_sum "Si O2"
_cell_formula_units_Z 36
_cell_length_a 14.656997
_cell_length_b 9.385097
_cell_length_c 19.212539
_cell_angle_alpha 90.000000
_cell_angle_beta 31.165516
_cell_angle_gamma 90.000000
_cell_volume 1367.694312
_symmetry_space_group_name_H-M "C 2/C"
_symmetry_group_IT_number 15
_symmetry_cell_setting 'monoclinic'
loop_
_space_group_symop_operation_xyz
x,y,z
-x,y,1/2-z
-x,-y,-z
x,-y,1/2+z
1/2+x,1/2+y,z
1/2-x,1/2+y,1/2-z
1/2-x,1/2-y,-z
1/2+x,1/2-y,1/2+z
loop_
_atom_site_type_symbol
_atom_site_label
_atom_site_fract_x
_atom_site_fract_y
_atom_site_fract_z
Si Si1 0.844310 0.108010 0.212160
Si Si2 0.278255 0.989808 0.344408
Si Si3 0.838581 0.970541 0.426614
Si Si4 0.000000 0.713781 0.250000
Si Si5 0.140723 0.308004 0.962511
O O1 0.824409 0.002020 0.160399
O O2 0.659510 0.131597 0.372206
O O3 0.969548 0.045360 0.190684
O O4 0.954056 0.240586 0.107324
O O5 0.436801 0.102322 0.232298
O O6 0.198935 0.053172 0.467288
O O7 0.280758 0.824504 0.364211
O O8 0.705921 0.081533 0.477569
O O9 0.858413 0.825418 0.371884
#
# Coordination Sequence:
#
# PCOD9304817 Si02
#       5
#     8   8   8   4   8
#     4  11  24  44  75 103 140 177 241 284 345 409
#     4  11  27  41  71 102 142 181 237 285 350 409
#     4  11  23  47  68  99 140 188 231 288 349 417
#     4  12  26  42  68  96 150 176 236 286 358 398
#     4  11  24  45  78 100 139 188 235 280 349 424
#
# _framework density 26.321669
#
# number of rings (size 3 to 8) (size 9 to 14) (size 15 to 20)
#    0.000    0.889    2.222    6.000   12.444    0.000 
#    0.000    2.222    0.000    0.000    0.000    0.000 
#    0.000    0.000    0.000    0.000    0.000    0.000 
#
# Total GULP energy -100513.969251 kJ/mol
# GULP energy per Si atom -5584.109403 kJ/mol
# Density = 2.626176 g / cm^3
# Si number density = 26.321669 Si / 1000 Ang^3
#
#
#
# Elastic Constant Matrix: (Units=GPa)
#
#
# Indices 1 2 3 4 5 6 
#
# 1 116.8317 51.5823 31.5088 0.0002 24.1468 -0.0001
# 2 51.5823 146.8273 35.8345 -0.0008 13.7576 0.0000
# 3 31.5088 35.8345 106.4288 -0.0009 33.5260 0.0000
# 4 0.0002 -0.0008 -0.0009 47.3644 0.0001 0.7978
# 5 24.1468 13.7576 33.5260 0.0001 37.8634 0.0001
# 6 -0.0001 0.0000 0.0000 0.7978 0.0001 35.1404
#
#
#
# Elastic Compliance Matrix: (Units=1/GPa)
#
#
# Indices 1 2 3 4 5 6 
#
# 1 0.011314 -0.003337 -0.000464 0.000000 -0.005591 0.000000
# 2 -0.003337 0.008417 -0.002154 0.000000 0.000977 0.000000
# 3 -0.000464 -0.002154 0.013756 0.000000 -0.011101 0.000000
# 4 0.000000 0.000000 0.000000 0.021121 0.000000 -0.000480
# 5 -0.005591 0.000977 -0.011101 0.000000 0.039451 0.000000
# 6 0.000000 0.000000 0.000000 -0.000480 0.000000 0.028468
#
#
# Mechanical properties :
#
#
# Convention : Reuss Voigt Hill
#
# Bulk Modulus (GPa) = 46.34967 67.54876 56.94922
# Shear Modulus (GPa) = 35.30336 40.81778 38.06057
#
# Velocity S-wave (km/s) = 3.66625 3.94220 3.80673
# Velocity P-wave (km/s) = 5.96398 6.81467 6.40347
#
# Compressibility (1/GPa) = 0.02157513
#
# Stress axis : x y z
#
# Youngs Moduli (GPa) = 88.38862 118.80289 72.69775
#
# Poissons Ratio (x) = 0.39649 0.03377
# Poissons Ratio (y) = 0.29499 0.15658
# Poissons Ratio (z) = 0.04106 0.25588
#
# Static dielectric constant tensor:
#      x y z
#    x 2.114700 0.000000 -0.223630 
#    y 0.000000 2.095670 0.000000 
#    z -0.223630 0.000000 2.445210 
# 
# From -- ./inp_files/242741.got.cif
#   From: 2010.05.17/outbox.cif.g08.bks.cpg/sg15_122_cif.got.tgz:242741.got - 2010.06.03 18:47:42.
