data_PCOD9304076
_publ_section_title
;
Structure prediction by ZEFSAII (Michael W. Deem and Ramdas Pophale) SiO2 
 PCOD9304076
Probable space group: C 2/C
;
_chemical_formula_sum "Si O2"
_cell_formula_units_Z 44
_cell_length_a 4.791741
_cell_length_b 27.875795
_cell_length_c 14.745828
_cell_angle_alpha 90.000000
_cell_angle_beta 114.709546
_cell_angle_gamma 90.000000
_cell_volume 1789.308869
_symmetry_space_group_name_H-M "C 2/C"
_symmetry_group_IT_number 15
_symmetry_cell_setting 'monoclinic'
loop_
_space_group_symop_operation_xyz
x,y,z
-x,y,1/2-z
-x,-y,-z
x,-y,1/2+z
1/2+x,1/2+y,z
1/2-x,1/2+y,1/2-z
1/2-x,1/2-y,-z
1/2+x,1/2-y,1/2+z
loop_
_atom_site_type_symbol
_atom_site_label
_atom_site_fract_x
_atom_site_fract_y
_atom_site_fract_z
Si Si1 0.500000 0.217074 0.750000
Si Si2 0.797790 0.447070 0.567481
Si Si3 0.567461 0.629616 0.656551
Si Si4 0.378136 0.949701 0.075397
Si Si5 0.998593 0.783050 0.584700
Si Si6 0.464059 0.152797 0.055396
O O1 0.235253 0.180727 0.683932
O O2 0.596326 0.251921 0.683072
O O3 0.431805 0.447457 0.528140
O O4 0.907808 0.497487 0.622822
O O5 0.941133 0.395788 0.611542
O O6 0.858747 0.449711 0.465740
O O7 0.500000 0.612841 0.750000
O O8 0.792890 0.592616 0.634149
O O9 0.251419 0.641532 0.560828
O O10 0.750000 0.750000 0.500000
O O11 0.807200 0.831687 0.579328
O O12 0.301023 0.801073 0.576119
#
# Coordination Sequence:
#
# PCOD9304076 Si02
#       6
#     4   8   8   8   8   8
#     4  12  28  40  66  92 134 172 222 278 342 372
#     4   9  18  36  63  92 119 165 206 262 312 396
#     4  11  24  38  64  97 133 173 211 280 330 394
#     4   9  19  35  60  94 127 154 210 256 328 388
#     4  12  25  43  63  95 126 174 220 274 320 394
#     4  11  23  42  66  91 129 171 224 261 325 387
#
# _framework density 24.590501
#
# number of rings (size 3 to 8) (size 9 to 14) (size 15 to 20)
#    0.000    1.455    1.818    3.818    7.636    0.000 
#    0.000    0.000    2.000    0.000    0.000    0.000 
#    0.000    0.000    0.000    0.000    0.000    0.000 
#
# Total GULP energy -122927.356492 kJ/mol
# GULP energy per Si atom -5587.607113 kJ/mol
# Density = 2.453453 g / cm^3
# Si number density = 24.590501 Si / 1000 Ang^3
#
#
#
# Elastic Constant Matrix: (Units=GPa)
#
#
# Indices 1 2 3 4 5 6 
#
# 1 81.8884 8.3510 3.6144 0.0000 -11.0330 0.0000
# 2 8.3510 156.1984 41.5494 0.0000 -12.0506 0.0000
# 3 3.6144 41.5494 69.9876 0.0000 -22.0068 0.0000
# 4 0.0000 0.0000 0.0000 5.8447 0.0000 -3.1258
# 5 -11.0330 -12.0506 -22.0068 0.0000 29.8040 0.0000
# 6 0.0000 0.0000 0.0000 -3.1258 0.0000 39.8485
#
#
#
# Elastic Compliance Matrix: (Units=1/GPa)
#
#
# Indices 1 2 3 4 5 6 
#
# 1 0.012972 -0.000655 0.001492 0.000000 0.005639 0.000000
# 2 -0.000655 0.007638 -0.004696 0.000000 -0.000622 0.000000
# 3 0.001492 -0.004696 0.021588 0.000000 0.014594 0.000000
# 4 0.000000 0.000000 0.000000 0.178588 0.000000 0.014009
# 5 0.005639 -0.000622 0.014594 0.000000 0.046164 0.000000
# 6 0.000000 0.000000 0.000000 0.014009 0.000000 0.026194
#
#
# Mechanical properties :
#
#
# Convention : Reuss Voigt Hill
#
# Bulk Modulus (GPa) = 29.00234 46.12268 37.56251
# Shear Modulus (GPa) = 16.00729 32.07008 24.03869
#
# Velocity S-wave (km/s) = 2.55415 3.61524 3.12999
# Velocity P-wave (km/s) = 4.52968 6.01861 5.32642
#
# Compressibility (1/GPa) = 0.03447997
#
# Stress axis : x y z
#
# Youngs Moduli (GPa) = 77.08625 130.91678 46.32169
#
# Poissons Ratio (x) = 0.08581 -0.06913
# Poissons Ratio (y) = 0.05053 0.21755
# Poissons Ratio (z) = -0.11504 0.61484
#
# Static dielectric constant tensor:
#      x y z
#    x 1.948360 0.000000 -0.024120 
#    y 0.000000 2.059780 0.000000 
#    z -0.024120 0.000000 2.007260 
# 
# From -- ./inp_files/129848.got.cif
#   From: 2010.05.17/outbox.cif.g08.bks.cpg/sg15_65_cif.got.tgz:129848.got - 2010.06.03 18:47:42.
