data_PCOD9304464
_publ_section_title
;
Structure prediction by ZEFSAII (Michael W. Deem and Ramdas Pophale) SiO2 
 PCOD9304464
Probable space group: C 2/C
;
_chemical_formula_sum "Si O2"
_cell_formula_units_Z 40
_cell_length_a 12.836609
_cell_length_b 16.421841
_cell_length_c 16.224341
_cell_angle_alpha 90.000000
_cell_angle_beta 151.386346
_cell_angle_gamma 90.000000
_cell_volume 1637.891136
_symmetry_space_group_name_H-M "C 2/C"
_symmetry_group_IT_number 15
_symmetry_cell_setting 'monoclinic'
loop_
_space_group_symop_operation_xyz
x,y,z
-x,y,1/2-z
-x,-y,-z
x,-y,1/2+z
1/2+x,1/2+y,z
1/2-x,1/2+y,1/2-z
1/2-x,1/2-y,-z
1/2+x,1/2-y,1/2+z
loop_
_atom_site_type_symbol
_atom_site_label
_atom_site_fract_x
_atom_site_fract_y
_atom_site_fract_z
Si Si1 0.950632 0.480704 0.368737
Si Si2 0.634268 0.859297 0.919183
Si Si3 0.906559 0.731942 0.940736
Si Si4 0.547851 0.620681 0.605682
Si Si5 0.251581 0.328936 0.562129
O O1 0.004943 0.561434 0.357927
O O2 0.102968 0.407772 0.438372
O O3 0.000000 0.500000 0.500000
O O4 0.699003 0.454236 0.187210
O O5 0.500000 0.822671 0.750000
O O6 0.638642 0.797544 0.997935
O O7 0.870271 0.889821 0.053382
O O8 0.922821 0.829395 0.947901
O O9 0.135547 0.700297 0.065161
O O10 0.725764 0.686016 0.762217
O O11 0.500000 0.352651 0.750000
O O12 0.250000 0.250000 0.500000
#
# Coordination Sequence:
#
# PCOD9304464 Si02
#       5
#     8   8   8   8   8
#     4  11  25  45  69 102 146 197 239 294 375 441
#     4  12  26  43  71 108 141 191 242 300 369 439
#     4  11  23  44  69 104 142 182 240 301 362 432
#     4  11  24  44  74  99 146 182 240 298 369 431
#     4  11  24  42  74 102 142 189 240 292 366 434
#
# _framework density 24.421648000000001
#
# number of rings (size 3 to 8) (size 9 to 14) (size 15 to 20)
#    0.000    0.800    4.000    4.800    2.800    3.200 
#    0.000    0.000    0.000    0.000    0.000    0.000 
#    0.000    0.000    0.000    0.000    0.000    0.000 
#
# Total GULP energy -111935.892779 kJ/mol
# GULP energy per Si atom -5596.794639 kJ/mol
# Density = 2.436606 g / cm^3
# Si number density = 24.421648 Si / 1000 Ang^3
#
#
#
# Elastic Constant Matrix: (Units=GPa)
#
#
# Indices 1 2 3 4 5 6 
#
# 1 86.9322 23.5909 56.2306 0.0008 32.5844 0.0010
# 2 23.5909 120.8675 42.3381 -0.0116 21.4547 0.0000
# 3 56.2306 42.3381 125.7291 0.0074 45.2870 0.0026
# 4 0.0008 -0.0116 0.0074 46.0421 0.0031 6.7941
# 5 32.5844 21.4547 45.2870 0.0031 62.6038 0.0010
# 6 0.0010 0.0000 0.0026 6.7941 0.0010 43.9150
#
#
#
# Elastic Compliance Matrix: (Units=1/GPa)
#
#
# Indices 1 2 3 4 5 6 
#
# 1 0.017119 -0.000486 -0.005874 0.000001 -0.004495 0.000000
# 2 -0.000486 0.009467 -0.002560 0.000003 -0.001140 0.000000
# 3 -0.005874 -0.002560 0.013558 -0.000002 -0.005873 0.000000
# 4 0.000001 0.000003 -0.000002 0.022227 -0.000001 -0.003439
# 5 -0.004495 -0.001140 -0.005873 -0.000001 0.022952 0.000000
# 6 0.000000 0.000000 0.000000 -0.003439 0.000000 0.023303
#
#
# Mechanical properties :
#
#
# Convention : Reuss Voigt Hill
#
# Bulk Modulus (GPa) = 44.83308 64.20534 54.51921
# Shear Modulus (GPa) = 37.34083 44.60346 40.97214
#
# Velocity S-wave (km/s) = 3.91449 4.27826 4.10041
# Velocity P-wave (km/s) = 6.23127 7.12405 6.69257
#
# Compressibility (1/GPa) = 0.02230496
#
# Stress axis : x y z
#
# Youngs Moduli (GPa) = 58.41429 105.62468 73.75613
#
# Poissons Ratio (x) = 0.05133 0.43322
# Poissons Ratio (y) = 0.02839 0.18884
# Poissons Ratio (z) = 0.34310 0.27043
#
# Static dielectric constant tensor:
#      x y z
#    x 1.950410 0.000000 -0.042060 
#    y 0.000000 1.968490 -0.000010 
#    z -0.042060 -0.000010 2.051410 
# 
# From -- ./inp_files/199745.got.cif
#   From: 2010.05.17/outbox.cif.g08.bks.cpg/sg15_100_cif.got.tgz:199745.got - 2010.06.03 18:47:42.
