data_PCOD9304929
_publ_section_title
;
Structure prediction by ZEFSAII (Michael W. Deem and Ramdas Pophale) SiO2 
 PCOD9304929
Probable space group: C 2/C
;
_chemical_formula_sum "Si O2"
_cell_formula_units_Z 24
_cell_length_a 10.972324
_cell_length_b 22.448155
_cell_length_c 10.724859
_cell_angle_alpha 90.000000
_cell_angle_beta 26.249114
_cell_angle_gamma 90.000000
_cell_volume 1168.323420
_symmetry_space_group_name_H-M "C 2/C"
_symmetry_group_IT_number 15
_symmetry_cell_setting 'monoclinic'
loop_
_space_group_symop_operation_xyz
x,y,z
-x,y,1/2-z
-x,-y,-z
x,-y,1/2+z
1/2+x,1/2+y,z
1/2-x,1/2+y,1/2-z
1/2-x,1/2-y,-z
1/2+x,1/2-y,1/2+z
loop_
_atom_site_type_symbol
_atom_site_label
_atom_site_fract_x
_atom_site_fract_y
_atom_site_fract_z
Si Si1 0.500000 0.510426 0.250000
Si Si2 0.498652 0.394722 0.548214
Si Si3 0.000000 0.206065 0.250000
Si Si4 0.421638 0.910551 0.952655
O O1 0.396264 0.553170 0.456177
O O2 0.252193 0.468897 0.428782
O O3 0.451782 0.337372 0.676913
O O4 0.212703 0.418486 0.753531
O O5 0.714564 0.380718 0.240941
O O6 0.750000 0.250000 0.500000
O O7 0.500000 0.879092 0.750000
#
# Coordination Sequence:
#
# PCOD9304929 Si02
#       4
#     4   8   4   8
#     4  11  24  36  62  94 136 170 204 241 302 370
#     4  11  25  39  64  94 127 162 213 256 302 365
#     4  11  24  48  72  92 112 156 214 279 318 344
#     4  12  23  38  59  94 138 170 198 238 306 383
#
# _framework density 20.542256999999999
#
# number of rings (size 3 to 8) (size 9 to 14) (size 15 to 20)
#    0.000    0.667    3.333    4.000    4.667    2.667 
#    0.000    0.000    0.000   20.000    0.000    0.000 
#    0.000    0.000    0.000    0.000    0.000    0.000 
#
# Total GULP energy -67071.805845 kJ/mol
# GULP energy per Si atom -5589.317154 kJ/mol
# Density = 2.049550 g / cm^3
# Si number density = 20.542257 Si / 1000 Ang^3
#
#
#
# Elastic Constant Matrix: (Units=GPa)
#
#
# Indices 1 2 3 4 5 6 
#
# 1 131.5460 56.7261 59.6072 -0.0002 16.2208 -0.0004
# 2 56.7261 86.9163 39.2064 -0.0014 9.6536 -0.0006
# 3 59.6072 39.2064 155.7542 0.0059 23.6620 0.0026
# 4 -0.0002 -0.0014 0.0059 21.4465 0.0016 -4.6584
# 5 16.2208 9.6536 23.6620 0.0016 46.7387 0.0004
# 6 -0.0004 -0.0006 0.0026 -4.6584 0.0004 -14.0674
#
#
#
# Elastic Compliance Matrix: (Units=1/GPa)
#
#
# Indices 1 2 3 4 5 6 
#
# 1 0.011693 -0.006264 -0.002685 0.000000 -0.001405 -0.000001
# 2 -0.006264 0.016389 -0.001673 0.000001 -0.000364 -0.000001
# 3 -0.002685 -0.001673 0.008314 -0.000002 -0.002932 0.000002
# 4 0.000000 0.000001 -0.000002 0.043499 -0.000001 -0.014405
# 5 -0.001405 -0.000364 -0.002932 -0.000001 0.023443 0.000000
# 6 -0.000001 -0.000001 0.000002 -0.014405 0.000000 -0.066316
#
#
# Mechanical properties :
#
#
# Convention : Reuss Voigt Hill
#
# Bulk Modulus (GPa) = 65.99498 76.14399 71.06949
# Shear Modulus (GPa) = 78.96945 25.40201 52.18573
#
# Velocity S-wave (km/s) = 6.20692 3.52031 5.04571
# Velocity P-wave (km/s) = 9.14134 7.32604 8.28357
#
# Compressibility (1/GPa) = 0.01515267
#
# Stress axis : x y z
#
# Youngs Moduli (GPa) = 85.52116 61.01738 120.27573
#
# Poissons Ratio (x) = 0.38224 0.32289
# Poissons Ratio (y) = 0.53574 0.20118
# Poissons Ratio (z) = 0.22959 0.10206
#
# Static dielectric constant tensor:
#      x y z
#    x 1.768270 0.000000 0.042970 
#    y 0.000000 1.709120 0.000000 
#    z 0.042970 0.000000 1.739910 
# 
# From -- ./inp_files/3950.got.cif
#   From: 2010.05.17/outbox.cif.g08.bks.cpg/sg15_2_cif.got.tgz:3950.got - 2010.06.03 18:47:42.
