data_PCOD9304843
_publ_section_title
;
Structure prediction by ZEFSAII (Michael W. Deem and Ramdas Pophale) SiO2 
 PCOD9304843
Probable space group: C 2/C
;
_chemical_formula_sum "Si O2"
_cell_formula_units_Z 36
_cell_length_a 7.402361
_cell_length_b 30.176562
_cell_length_c 9.158023
_cell_angle_alpha 90.000000
_cell_angle_beta 60.820506
_cell_angle_gamma 90.000000
_cell_volume 1786.092964
_symmetry_space_group_name_H-M "C 2/C"
_symmetry_group_IT_number 15
_symmetry_cell_setting 'monoclinic'
loop_
_space_group_symop_operation_xyz
x,y,z
-x,y,1/2-z
-x,-y,-z
x,-y,1/2+z
1/2+x,1/2+y,z
1/2-x,1/2+y,1/2-z
1/2-x,1/2-y,-z
1/2+x,1/2-y,1/2+z
loop_
_atom_site_type_symbol
_atom_site_label
_atom_site_fract_x
_atom_site_fract_y
_atom_site_fract_z
Si Si1 0.000000 0.669158 0.250000
Si Si2 0.845439 0.887179 0.428965
Si Si3 0.021718 0.452762 0.415867
Si Si4 0.729417 0.705023 0.096379
Si Si5 0.151631 0.888604 0.555747
O O1 0.823779 0.640926 0.409288
O O2 0.884639 0.697510 0.170729
O O3 0.721273 0.925694 0.393629
O O4 0.000000 0.863447 0.250000
O O5 0.010341 0.905315 0.480427
O O6 0.830108 0.421474 0.531401
O O7 0.000000 0.457429 0.250000
O O8 0.000000 0.500000 0.500000
O O9 0.500000 0.706537 0.250000
O O10 0.744770 0.660435 0.991329
O O11 0.750000 0.750000 0.000000
O O12 0.000000 0.883483 0.750000
#
# Coordination Sequence:
#
# PCOD9304843 Si02
#       5
#     4   8   8   8   8
#     4  12  24  48  76 104 150 190 236 304 368 418
#     4  12  24  45  77 103 138 194 244 292 365 428
#     4  12  28  44  68 107 143 185 243 299 361 434
#     4  11  25  45  71 108 143 189 241 293 366 432
#     4  11  23  47  72  99 144 192 236 300 364 424
#
# _framework density 20.155726999999999
#
# number of rings (size 3 to 8) (size 9 to 14) (size 15 to 20)
#    0.000    0.444    8.889    0.000    4.667    5.333 
#    2.000    0.000    0.000    0.000    0.000    0.000 
#    0.000    0.000    0.000    0.000    0.000    0.000 
#
# Total GULP energy -100403.114111 kJ/mol
# GULP energy per Si atom -5577.950784 kJ/mol
# Density = 2.010985 g / cm^3
# Si number density = 20.155727 Si / 1000 Ang^3
#
#
#
# Elastic Constant Matrix: (Units=GPa)
#
#
# Indices 1 2 3 4 5 6 
#
# 1 178.9757 75.3858 37.7108 0.0000 25.0407 0.0000
# 2 75.3858 165.0560 57.7802 0.0000 -1.0466 0.0000
# 3 37.7108 57.7802 103.3545 0.0000 -1.0419 0.0000
# 4 0.0000 0.0000 0.0000 28.0380 0.0000 11.5565
# 5 25.0407 -1.0466 -1.0419 0.0000 45.5291 0.0000
# 6 0.0000 0.0000 0.0000 11.5565 0.0000 33.7892
#
#
#
# Elastic Compliance Matrix: (Units=1/GPa)
#
#
# Indices 1 2 3 4 5 6 
#
# 1 0.007776 -0.003196 -0.001095 0.000000 -0.004376 0.000000
# 2 -0.003196 0.008847 -0.003761 0.000000 0.001875 0.000000
# 3 -0.001095 -0.003761 0.012185 0.000000 0.000794 0.000000
# 4 0.000000 0.000000 0.000000 0.041519 0.000000 -0.014200
# 5 -0.004376 0.001875 0.000794 0.000000 0.024432 0.000000
# 6 0.000000 0.000000 0.000000 -0.014200 0.000000 0.034452
#
#
# Mechanical properties :
#
#
# Convention : Reuss Voigt Hill
#
# Bulk Modulus (GPa) = 78.70699 87.68219 83.19459
# Shear Modulus (GPa) = 33.43383 39.90523 36.66953
#
# Velocity S-wave (km/s) = 4.07723 4.45437 4.26997
# Velocity P-wave (km/s) = 7.82938 8.36971 8.10405
#
# Compressibility (1/GPa) = 0.01270535
#
# Stress axis : x y z
#
# Youngs Moduli (GPa) = 128.59289 113.03590 82.06676
#
# Poissons Ratio (x) = 0.36130 0.08983
# Poissons Ratio (y) = 0.41102 0.30862
# Poissons Ratio (z) = 0.14076 0.42509
#
# Static dielectric constant tensor:
#      x y z
#    x 1.669550 0.000000 0.024630 
#    y 0.000000 1.732350 0.000000 
#    z 0.024630 0.000000 1.746850 
# 
# From -- ./inp_files/25011.got.cif
#   From: 2010.05.17/outbox.cif.g08.bks.cpg/sg15_13_cif.got.tgz:25011.got - 2010.06.03 18:47:42.
