data_PCOD9304332
_publ_section_title
;
Structure prediction by ZEFSAII (Michael W. Deem and Ramdas Pophale) SiO2 
 PCOD9304332
Probable space group: C 2/C
;
_chemical_formula_sum "Si O2"
_cell_formula_units_Z 40
_cell_length_a 17.442269
_cell_length_b 9.504529
_cell_length_c 27.082668
_cell_angle_alpha 90.000000
_cell_angle_beta 158.081749
_cell_angle_gamma 90.000000
_cell_volume 1675.959834
_symmetry_space_group_name_H-M "C 2/C"
_symmetry_group_IT_number 15
_symmetry_cell_setting 'monoclinic'
loop_
_space_group_symop_operation_xyz
x,y,z
-x,y,1/2-z
-x,-y,-z
x,-y,1/2+z
1/2+x,1/2+y,z
1/2-x,1/2+y,1/2-z
1/2-x,1/2-y,-z
1/2+x,1/2-y,1/2+z
loop_
_atom_site_type_symbol
_atom_site_label
_atom_site_fract_x
_atom_site_fract_y
_atom_site_fract_z
Si Si1 0.452839 0.084334 0.522523
Si Si2 0.251501 0.079593 0.500679
Si Si3 0.500620 0.664577 0.505677
Si Si4 0.529056 0.840583 0.709717
Si Si5 0.083130 0.881146 0.165511
O O1 0.291283 0.034823 0.467113
O O2 0.372329 0.234859 0.453933
O O3 0.674525 0.092885 0.682277
O O4 0.500000 0.000000 0.500000
O O5 0.250000 0.250000 0.500000
O O6 0.431179 0.991485 0.636901
O O7 0.041266 0.025867 0.400283
O O8 0.500000 0.500000 0.500000
O O9 0.270555 0.687585 0.350395
O O10 0.547595 0.688869 0.590953
O O11 0.500000 0.817201 0.750000
O O12 0.465977 0.720315 0.633969
#
# Coordination Sequence:
#
# PCOD9304332 Si02
#       5
#     8   8   8   8   8
#     4  11  27  45  69 104 141 181 232 290 348 413
#     4  12  26  46  72 107 141 180 234 297 353 407
#     4  11  23  43  70  98 138 185 230 288 351 412
#     4  11  24  42  71  98 135 187 239 277 337 428
#     4  11  25  46  73  98 141 192 237 277 347 431
#
# _framework density 23.866921999999999
#
# number of rings (size 3 to 8) (size 9 to 14) (size 15 to 20)
#    0.000    0.800    2.000    4.200    5.600    6.400 
#    0.000    0.000    0.000    0.000    0.000    0.000 
#    0.000    0.000    0.000    0.000    0.000    0.000 
#
# Total GULP energy -111532.260721 kJ/mol
# GULP energy per Si atom -5576.613036 kJ/mol
# Density = 2.381260 g / cm^3
# Si number density = 23.866922 Si / 1000 Ang^3
#
#
#
# Elastic Constant Matrix: (Units=GPa)
#
#
# Indices 1 2 3 4 5 6 
#
# 1 102.6249 11.2581 0.3544 0.0059 -16.9833 0.0006
# 2 11.2581 66.3878 9.1151 0.0077 -23.7776 -0.0013
# 3 0.3544 9.1151 58.1957 0.0262 -8.7639 -0.0030
# 4 0.0059 0.0077 0.0262 17.5270 -0.0012 0.1612
# 5 -16.9833 -23.7776 -8.7639 -0.0012 25.2507 0.0007
# 6 0.0006 -0.0013 -0.0030 0.1612 0.0007 42.8505
#
#
#
# Elastic Compliance Matrix: (Units=1/GPa)
#
#
# Indices 1 2 3 4 5 6 
#
# 1 0.011092 0.001172 0.001096 -0.000005 0.008944 0.000000
# 2 0.001172 0.022860 -0.000240 -0.000009 0.022231 0.000000
# 3 0.001096 -0.000240 0.018245 -0.000027 0.006844 0.000001
# 4 -0.000005 -0.000009 -0.000027 0.057057 -0.000018 -0.000215
# 5 0.008944 0.022231 0.006844 -0.000018 0.068928 0.000000
# 6 0.000000 0.000000 0.000001 -0.000215 0.000000 0.023338
#
#
# Mechanical properties :
#
#
# Convention : Reuss Voigt Hill
#
# Bulk Modulus (GPa) = 17.77686 29.85152 23.81419
# Shear Modulus (GPa) = 23.12527 30.89104 27.00816
#
# Velocity S-wave (km/s) = 3.11613 3.60155 3.36760
# Velocity P-wave (km/s) = 4.51791 5.46164 5.01204
#
# Compressibility (1/GPa) = 0.05625291
#
# Stress axis : x y z
#
# Youngs Moduli (GPa) = 90.15449 43.74546 54.80989
#
# Poissons Ratio (x) = -0.05127 -0.06006
# Poissons Ratio (y) = -0.10567 0.01314
# Poissons Ratio (z) = -0.09879 0.01049
#
# Static dielectric constant tensor:
#      x y z
#    x 1.918440 0.000010 -0.007660 
#    y 0.000010 1.962210 0.000000 
#    z -0.007660 0.000000 1.888840 
# 
# From -- ./inp_files/221969.got.cif
#   From: 2010.05.17/outbox.cif.g08.bks.cpg/sg15_111_cif.got.tgz:221969.got - 2010.06.03 18:47:42.
