data_PCOD9304617
_publ_section_title
;
Structure prediction by ZEFSAII (Michael W. Deem and Ramdas Pophale) SiO2 
 PCOD9304617
Probable space group: C 2/C
;
_chemical_formula_sum "Si O2"
_cell_formula_units_Z 40
_cell_length_a 14.443470
_cell_length_b 13.796660
_cell_length_c 20.133216
_cell_angle_alpha 90.000000
_cell_angle_beta 27.138804
_cell_angle_gamma 90.000000
_cell_volume 1830.055048
_symmetry_space_group_name_H-M "C 2/C"
_symmetry_group_IT_number 15
_symmetry_cell_setting 'monoclinic'
loop_
_space_group_symop_operation_xyz
x,y,z
-x,y,1/2-z
-x,-y,-z
x,-y,1/2+z
1/2+x,1/2+y,z
1/2-x,1/2+y,1/2-z
1/2-x,1/2-y,-z
1/2+x,1/2-y,1/2+z
loop_
_atom_site_type_symbol
_atom_site_label
_atom_site_fract_x
_atom_site_fract_y
_atom_site_fract_z
Si Si1 0.689434 0.452289 0.706164
Si Si2 0.495101 0.048235 0.615017
Si Si3 0.307962 0.728525 0.082911
Si Si4 0.718571 0.251598 0.744421
Si Si5 0.000000 0.891667 0.250000
Si Si6 0.000000 0.435708 0.750000
O O1 0.832482 0.489059 0.674299
O O2 0.623825 0.344829 0.768263
O O3 0.530162 0.537469 0.793377
O O4 0.815595 0.445954 0.556612
O O5 0.411809 0.155553 0.681351
O O6 0.517411 0.997134 0.671522
O O7 0.261895 0.729963 0.190050
O O8 0.197015 0.634076 0.126105
O O9 0.195717 0.821718 0.122221
O O10 0.548842 0.735451 0.925215
#
# Coordination Sequence:
#
# PCOD9304617 Si02
#       6
#     8   8   8   8   4   4
#     4  11  23  45  70 101 141 186 228 283 360 414
#     4  11  24  45  69 101 143 184 227 293 350 414
#     4  11  25  42  74 105 137 181 242 292 336 416
#     4  12  23  48  69 104 141 188 228 287 354 416
#     4  11  24  43  72 104 130 187 232 281 344 420
#     4  11  26  41  68 108 136 177 242 295 336 404
#
# _framework density 21.857265000000002
#
# number of rings (size 3 to 8) (size 9 to 14) (size 15 to 20)
#    0.000    0.800    6.000    1.200    2.800    3.200 
#    3.600    2.000    0.000    0.000    0.000    0.000 
#    0.000    0.000    0.000    0.000    0.000    0.000 
#
# Total GULP energy -111902.112721 kJ/mol
# GULP energy per Si atom -5595.105636 kJ/mol
# Density = 2.180752 g / cm^3
# Si number density = 21.857265 Si / 1000 Ang^3
#
#
#
# Elastic Constant Matrix: (Units=GPa)
#
#
# Indices 1 2 3 4 5 6 
#
# 1 208.9640 90.0442 128.7665 0.0199 57.8907 0.0178
# 2 90.0442 194.2635 42.6808 -0.0034 21.8680 0.0067
# 3 128.7665 42.6808 165.2524 0.0089 64.4698 0.0213
# 4 0.0199 -0.0034 0.0089 11.5616 0.0197 -25.2706
# 5 57.8907 21.8680 64.4698 0.0197 37.7542 -0.0106
# 6 0.0178 0.0067 0.0213 -25.2706 -0.0106 42.6727
#
#
#
# Elastic Compliance Matrix: (Units=1/GPa)
#
#
# Indices 1 2 3 4 5 6 
#
# 1 0.011351 -0.003361 -0.005829 0.000042 -0.005503 0.000022
# 2 -0.003361 0.006518 0.001192 -0.000024 -0.000656 -0.000015
# 3 -0.005829 0.001192 0.021174 -0.000028 -0.027909 -0.000032
# 4 0.000042 -0.000024 -0.000028 -0.293812 0.000101 -0.173995
# 5 -0.005503 -0.000656 -0.027909 0.000101 0.082963 0.000097
# 6 0.000022 -0.000015 -0.000032 -0.173995 0.000097 -0.079605
#
#
# Mechanical properties :
#
#
# Convention : Reuss Voigt Hill
#
# Bulk Modulus (GPa) = 43.39399 121.27366 82.33383
# Shear Modulus (GPa) = -21.95554 38.86360 8.45403
#
# Velocity S-wave (km/s) = -3.17282 4.22128 1.96881
# Velocity P-wave (km/s) = 2.54442 8.90864 6.55126
#
# Compressibility (1/GPa) = 0.02304467
#
# Stress axis : x y z
#
# Youngs Moduli (GPa) = 88.10158 153.43153 47.22796
#
# Poissons Ratio (x) = 0.51567 0.27531
# Poissons Ratio (y) = 0.29610 -0.05628
# Poissons Ratio (z) = 0.51358 -0.18283
#
# Static dielectric constant tensor:
#      x y z
#    x 1.755080 -0.000010 0.035520 
#    y -0.000010 1.803130 0.000010 
#    z 0.035520 0.000010 1.657020 
# 
# From -- ./inp_files/38006.got.cif
#   From: 2010.05.17/outbox.cif.g08.bks.cpg/sg15_20_cif.got.tgz:38006.got - 2010.06.03 18:47:42.
