data_PCOD9304047
_publ_section_title
;
Structure prediction by ZEFSAII (Michael W. Deem and Ramdas Pophale) SiO2 
 PCOD9304047
Probable space group: C 2/C
;
_chemical_formula_sum "Si O2"
_cell_formula_units_Z 48
_cell_length_a 16.276070
_cell_length_b 24.353966
_cell_length_c 12.985082
_cell_angle_alpha 90.000000
_cell_angle_beta 153.187735
_cell_angle_gamma 90.000000
_cell_volume 2321.702335
_symmetry_space_group_name_H-M "C 2/C"
_symmetry_group_IT_number 15
_symmetry_cell_setting 'monoclinic'
loop_
_space_group_symop_operation_xyz
x,y,z
-x,y,1/2-z
-x,-y,-z
x,-y,1/2+z
1/2+x,1/2+y,z
1/2-x,1/2+y,1/2-z
1/2-x,1/2-y,-z
1/2+x,1/2-y,1/2+z
loop_
_atom_site_type_symbol
_atom_site_label
_atom_site_fract_x
_atom_site_fract_y
_atom_site_fract_z
Si Si1 0.269701 0.384347 0.791893
Si Si2 0.181630 0.551967 0.398110
Si Si3 0.617563 0.448377 0.167648
Si Si4 0.106828 0.436200 0.203383
Si Si5 0.269880 0.177203 0.589038
Si Si6 0.816369 0.714808 0.421917
O O1 0.243955 0.407368 0.877866
O O2 0.248575 0.319597 0.748521
O O3 0.103628 0.415892 0.544150
O O4 0.473881 0.399857 0.987791
O O5 0.328874 0.546202 0.653350
O O6 0.132396 0.492539 0.293859
O O7 0.000000 0.573616 0.250000
O O8 0.800267 0.444207 0.304270
O O9 0.500000 0.500000 0.000000
O O10 0.225637 0.387395 0.387383
O O11 0.183625 0.219525 0.573849
O O12 0.213137 0.192938 0.409659
O O13 0.479284 0.194792 0.833987
#
# Coordination Sequence:
#
# PCOD9304047 Si02
#       6
#     8   8   8   8   8   8
#     4  11  23  42  62  91 127 169 207 259 315 380
#     4  12  24  41  64  88 132 171 210 261 316 380
#     4  12  25  40  59  93 124 165 217 256 314 377
#     4  11  24  40  62  91 128 168 205 257 323 376
#     4   9  20  37  60  92 123 160 205 255 318 379
#     4   9  20  38  61  90 124 160 204 257 320 374
#
# _framework density 20.674486000000002
#
# number of rings (size 3 to 8) (size 9 to 14) (size 15 to 20)
#    0.000    1.333    3.333    2.000    9.333    0.000 
#    0.000    0.000    0.000    1.000    4.333    0.000 
#    0.000    0.000    0.000    0.000    0.000    0.000 
#
# Total GULP energy -133940.972306 kJ/mol
# GULP energy per Si atom -5580.873846 kJ/mol
# Density = 2.062743 g / cm^3
# Si number density = 20.674486 Si / 1000 Ang^3
#
#
#
# Elastic Constant Matrix: (Units=GPa)
#
#
# Indices 1 2 3 4 5 6 
#
# 1 51.3986 25.4120 20.8963 0.0000 -5.0363 0.0000
# 2 25.4120 73.7794 21.3743 0.0000 -5.1618 0.0000
# 3 20.8963 21.3743 100.3049 0.0000 -7.9622 0.0000
# 4 0.0000 0.0000 0.0000 26.0191 0.0000 -2.0766
# 5 -5.0363 -5.1618 -7.9622 0.0000 28.4954 0.0000
# 6 0.0000 0.0000 0.0000 -2.0766 0.0000 20.7853
#
#
#
# Elastic Compliance Matrix: (Units=1/GPa)
#
#
# Indices 1 2 3 4 5 6 
#
# 1 0.024689 -0.007371 -0.003408 0.000000 0.002076 0.000000
# 2 -0.007371 0.016737 -0.001937 0.000000 0.001188 0.000000
# 3 -0.003408 -0.001937 0.011266 0.000000 0.002195 0.000000
# 4 0.000000 0.000000 0.000000 0.038742 0.000000 0.003871
# 5 0.002076 0.001188 0.002195 0.000000 0.036289 0.000000
# 6 0.000000 0.000000 0.000000 0.003871 0.000000 0.048498
#
#
# Mechanical properties :
#
#
# Convention : Reuss Voigt Hill
#
# Bulk Modulus (GPa) = 36.68220 40.09421 38.38821
# Shear Modulus (GPa) = 23.72594 25.57996 24.65295
#
# Velocity S-wave (km/s) = 3.39129 3.52130 3.45691
# Velocity P-wave (km/s) = 5.75463 5.99733 5.87723
#
# Compressibility (1/GPa) = 0.02726118
#
# Stress axis : x y z
#
# Youngs Moduli (GPa) = 40.50368 59.74800 88.75890
#
# Poissons Ratio (x) = 0.44041 0.30248
# Poissons Ratio (y) = 0.29856 0.17189
# Poissons Ratio (z) = 0.13803 0.11571
#
# Static dielectric constant tensor:
#      x y z
#    x 1.808070 0.000000 0.032340 
#    y 0.000000 1.786240 0.000000 
#    z 0.032340 0.000000 1.789590 
# 
# From -- ./inp_files/101401.got.cif
#   From: 2010.05.17/outbox.cif.g08.bks.cpg/sg15_51_cif.got.tgz:101401.got - 2010.06.03 18:47:42.
