data_PCOD9304162
_publ_section_title
;
Structure prediction by ZEFSAII (Michael W. Deem and Ramdas Pophale) SiO2 
 PCOD9304162
Probable space group: C 2/C
;
_chemical_formula_sum "Si O2"
_cell_formula_units_Z 48
_cell_length_a 18.795362
_cell_length_b 5.438582
_cell_length_c 25.848623
_cell_angle_alpha 90.000000
_cell_angle_beta 125.099740
_cell_angle_gamma 90.000000
_cell_volume 2161.762395
_symmetry_space_group_name_H-M "C 2/C"
_symmetry_group_IT_number 15
_symmetry_cell_setting 'monoclinic'
loop_
_space_group_symop_operation_xyz
x,y,z
-x,y,1/2-z
-x,-y,-z
x,-y,1/2+z
1/2+x,1/2+y,z
1/2-x,1/2+y,1/2-z
1/2-x,1/2-y,-z
1/2+x,1/2-y,1/2+z
loop_
_atom_site_type_symbol
_atom_site_label
_atom_site_fract_x
_atom_site_fract_y
_atom_site_fract_z
Si Si1 0.851037 0.154441 0.301112
Si Si2 0.387083 0.980264 0.901731
Si Si3 0.427144 0.986975 0.174348
Si Si4 0.767344 0.635444 0.672818
Si Si5 0.056936 0.186193 0.990333
Si Si6 0.042534 0.984527 0.376733
O O1 0.870007 0.410145 0.338028
O O2 0.826567 0.177785 0.231217
O O3 0.771900 0.042289 0.300083
O O4 0.938891 0.000140 0.344345
O O5 0.316588 0.773006 0.884521
O O6 0.486702 0.892359 0.943830
O O7 0.377927 0.187680 0.942241
O O8 0.500000 0.970028 0.250000
O O9 0.331535 0.987006 0.159508
O O10 0.435168 0.741186 0.142338
O O11 0.440450 0.242347 0.149872
O O12 0.088485 0.054008 0.951594
O O13 0.000000 0.000000 0.000000
#
# Coordination Sequence:
#
# PCOD9304162 Si02
#       6
#     8   8   8   8   8   8
#     4  12  24  41  75 105 140 185 251 302 358 429
#     4  11  23  42  70 109 138 182 244 310 354 414
#     4  12  29  45  70 103 157 189 234 289 386 440
#     4  12  26  42  70 109 147 188 234 314 365 436
#     4  11  23  42  75 103 139 186 252 304 347 425
#     4  12  26  48  70 108 139 199 238 294 358 443
#
# _framework density 22.204105999999999
#
# number of rings (size 3 to 8) (size 9 to 14) (size 15 to 20)
#    0.000    0.333    6.667    1.500    7.000    0.000 
#    0.000    1.667    0.000    0.000    0.000    0.000 
#    0.000    0.000    0.000    0.000    0.000    0.000 
#
# Total GULP energy -134270.681188 kJ/mol
# GULP energy per Si atom -5594.611716 kJ/mol
# Density = 2.215357 g / cm^3
# Si number density = 22.204106 Si / 1000 Ang^3
#
#
#
# Elastic Constant Matrix: (Units=GPa)
#
#
# Indices 1 2 3 4 5 6 
#
# 1 113.2183 28.8159 1.6636 0.0000 -16.2276 -0.0002
# 2 28.8159 97.0241 7.3957 -0.0010 -18.3391 -0.0013
# 3 1.6636 7.3957 54.4263 0.0001 -9.9405 -0.0002
# 4 0.0000 -0.0010 0.0001 36.1984 0.0001 -12.0519
# 5 -16.2276 -18.3391 -9.9405 0.0001 30.7081 0.0002
# 6 -0.0002 -0.0013 -0.0002 -12.0519 0.0002 33.4496
#
#
#
# Elastic Compliance Matrix: (Units=1/GPa)
#
#
# Indices 1 2 3 4 5 6 
#
# 1 0.009991 -0.002233 0.000764 0.000000 0.004193 0.000000
# 2 -0.002233 0.012123 -0.000502 0.000001 0.005897 0.000001
# 3 0.000764 -0.000502 0.019596 0.000000 0.006447 0.000000
# 4 0.000000 0.000001 0.000000 0.031391 0.000000 0.011310
# 5 0.004193 0.005897 0.006447 0.000000 0.040390 0.000000
# 6 0.000000 0.000001 0.000000 0.011310 0.000000 0.033971
#
#
# Mechanical properties :
#
#
# Convention : Reuss Voigt Hill
#
# Bulk Modulus (GPa) = 26.47773 37.82435 32.15104
# Shear Modulus (GPa) = 30.48932 35.19079 32.84005
#
# Velocity S-wave (km/s) = 3.70961 3.98537 3.84996
# Velocity P-wave (km/s) = 5.50444 6.18461 5.85441
#
# Compressibility (1/GPa) = 0.03776758
#
# Stress axis : x y z
#
# Youngs Moduli (GPa) = 100.09427 82.48907 51.03121
#
# Poissons Ratio (x) = 0.18418 -0.03898
# Poissons Ratio (y) = 0.22349 0.02562
# Poissons Ratio (z) = -0.07646 0.04141
#
# Static dielectric constant tensor:
#      x y z
#    x 1.801950 0.000000 0.022010 
#    y 0.000000 1.909460 0.000000 
#    z 0.022010 0.000000 1.889760 
# 
# From -- ./inp_files/275888.got.cif
#   From: 2010.05.17/outbox.cif.g08.bks.cpg/sg15_138_cif.got.tgz:275888.got - 2010.06.03 18:47:42.
