data_PCOD9304288
_publ_section_title
;
Structure prediction by ZEFSAII (Michael W. Deem and Ramdas Pophale) SiO2 
 PCOD9304288
Probable space group: C 2/C
;
_chemical_formula_sum "Si O2"
_cell_formula_units_Z 48
_cell_length_a 26.221921
_cell_length_b 13.445354
_cell_length_c 19.699328
_cell_angle_alpha 90.000000
_cell_angle_beta 20.766794
_cell_angle_gamma 90.000000
_cell_volume 2462.544959
_symmetry_space_group_name_H-M "C 2/C"
_symmetry_group_IT_number 15
_symmetry_cell_setting 'monoclinic'
loop_
_space_group_symop_operation_xyz
x,y,z
-x,y,1/2-z
-x,-y,-z
x,-y,1/2+z
1/2+x,1/2+y,z
1/2-x,1/2+y,1/2-z
1/2-x,1/2-y,-z
1/2+x,1/2-y,1/2+z
loop_
_atom_site_type_symbol
_atom_site_label
_atom_site_fract_x
_atom_site_fract_y
_atom_site_fract_z
Si Si1 0.633384 0.724250 0.939565
Si Si2 0.792921 0.800701 0.875463
Si Si3 0.152162 0.564235 0.867534
Si Si4 0.850951 0.507463 0.476678
Si Si5 0.828650 0.734503 0.472536
Si Si6 0.647475 0.867946 0.798113
O O1 0.711570 0.746550 0.913841
O O2 0.705979 0.629855 0.813059
O O3 0.656991 0.813983 0.858178
O O4 0.463924 0.709470 0.157743
O O5 0.750000 0.750000 0.000000
O O6 0.747016 0.916520 0.926385
O O7 0.164715 0.485048 0.790886
O O8 0.129304 0.506775 0.966653
O O9 0.014971 0.636915 0.028793
O O10 0.797648 0.620155 0.531346
O O11 0.000000 0.497402 0.250000
O O12 0.750000 0.750000 0.500000
O O13 0.761072 0.813935 0.608481
O O14 0.000000 0.745561 0.250000
#
# Coordination Sequence:
#
# PCOD9304288 Si02
#       6
#     8   8   8   8   8   8
#     4  12  24  45  69 102 136 180 230 285 347 404
#     4  12  27  45  70 100 139 180 232 290 345 417
#     4  11  24  43  71 103 137 187 228 285 345 415
#     4  11  23  43  68  98 137 182 226 278 353 412
#     4  11  25  43  69  99 138 177 221 283 341 405
#     4  11  23  43  71 100 143 177 233 279 344 409
#
# _framework density 19.492028999999999
#
# number of rings (size 3 to 8) (size 9 to 14) (size 15 to 20)
#    0.000    0.667    5.000    3.500    0.000    3.333 
#    0.000    0.000    0.000    0.000    0.000    0.000 
#    0.000    0.000    0.000    0.000    0.000    0.000 
#
# Total GULP energy -134050.838042 kJ/mol
# GULP energy per Si atom -5585.451585 kJ/mol
# Density = 1.944766 g / cm^3
# Si number density = 19.492029 Si / 1000 Ang^3
#
#
#
# Elastic Constant Matrix: (Units=GPa)
#
#
# Indices 1 2 3 4 5 6 
#
# 1 139.9832 32.6905 70.1937 -0.0001 6.3435 0.0000
# 2 32.6905 81.4828 50.5915 0.0000 11.0912 0.0000
# 3 70.1937 50.5915 127.3925 -0.0001 0.9038 0.0000
# 4 -0.0001 0.0000 -0.0001 20.6625 0.0001 -5.4198
# 5 6.3435 11.0912 0.9038 0.0001 32.5619 0.0000
# 6 0.0000 0.0000 0.0000 -5.4198 0.0000 39.1133
#
#
#
# Elastic Compliance Matrix: (Units=1/GPa)
#
#
# Indices 1 2 3 4 5 6 
#
# 1 0.009989 -0.000499 -0.005294 0.000000 -0.001629 0.000000
# 2 -0.000499 0.017310 -0.006560 0.000000 -0.005617 0.000000
# 3 -0.005294 -0.006560 0.013351 0.000000 0.002895 0.000000
# 4 0.000000 0.000000 0.000000 0.050222 0.000000 0.006959
# 5 -0.001629 -0.005617 0.002895 0.000000 0.032861 0.000000
# 6 0.000000 0.000000 0.000000 0.006959 0.000000 0.026531
#
#
# Mechanical properties :
#
#
# Convention : Reuss Voigt Hill
#
# Bulk Modulus (GPa) = 62.71563 72.86775 67.79169
# Shear Modulus (GPa) = 27.73393 31.49308 29.61350
#
# Velocity S-wave (km/s) = 3.77614 4.02393 3.90200
# Velocity P-wave (km/s) = 7.15941 7.68465 7.42667
#
# Compressibility (1/GPa) = 0.01594499
#
# Stress axis : x y z
#
# Youngs Moduli (GPa) = 100.11252 57.77022 74.89802
#
# Poissons Ratio (x) = 0.02880 0.39653
# Poissons Ratio (y) = 0.04991 0.49131
# Poissons Ratio (z) = 0.53003 0.37896
#
# Static dielectric constant tensor:
#      x y z
#    x 1.691920 0.000000 -0.002010 
#    y 0.000000 1.605910 0.000000 
#    z -0.002010 0.000000 1.663050 
# 
# From -- ./inp_files/66397.got.cif
#   From: 2010.05.17/outbox.cif.g08.bks.cpg/sg15_34_cif.got.tgz:66397.got - 2010.06.03 18:47:42.
