data_PCOD9304458
_publ_section_title
;
Structure prediction by ZEFSAII (Michael W. Deem and Ramdas Pophale) SiO2 
 PCOD9304458
Probable space group: C 2/C
;
_chemical_formula_sum "Si O2"
_cell_formula_units_Z 48
_cell_length_a 25.982764
_cell_length_b 9.010615
_cell_length_c 14.801788
_cell_angle_alpha 90.000000
_cell_angle_beta 140.331323
_cell_angle_gamma 90.000000
_cell_volume 2212.131049
_symmetry_space_group_name_H-M "C 2/C"
_symmetry_group_IT_number 15
_symmetry_cell_setting 'monoclinic'
loop_
_space_group_symop_operation_xyz
x,y,z
-x,y,1/2-z
-x,-y,-z
x,-y,1/2+z
1/2+x,1/2+y,z
1/2-x,1/2+y,1/2-z
1/2-x,1/2-y,-z
1/2+x,1/2-y,1/2+z
loop_
_atom_site_type_symbol
_atom_site_label
_atom_site_fract_x
_atom_site_fract_y
_atom_site_fract_z
Si Si1 0.928699 0.028004 0.080734
Si Si2 0.745861 0.619337 0.600852
Si Si3 0.025669 0.713253 0.385056
Si Si4 0.099899 0.829761 0.140214
Si Si5 0.356920 0.977553 0.896410
Si Si6 0.257109 0.540134 0.095384
O O1 0.000000 0.044175 0.250000
O O2 0.913203 0.851665 0.047929
O O3 0.849702 0.110570 0.010907
O O4 0.947267 0.089576 0.005849
O O5 0.789358 0.558512 0.746834
O O6 0.761956 0.517029 0.535460
O O7 0.779225 0.784988 0.630199
O O8 0.064075 0.578528 0.491650
O O9 0.000000 0.665503 0.250000
O O10 0.953884 0.783810 0.346966
O O11 0.130646 0.680169 0.133413
O O12 0.172242 0.935542 0.271942
O O13 0.321419 0.971901 0.948963
#
# Coordination Sequence:
#
# PCOD9304458 Si02
#       6
#     8   8   8   8   8   8
#     4  11  23  44  69 101 139 185 235 281 350 417
#     4  11  25  44  70 108 132 182 235 284 353 408
#     4  11  27  46  69 100 144 189 232 283 348 416
#     4  12  25  46  70 104 137 190 228 289 349 411
#     4  12  25  44  71 104 140 179 234 289 341 416
#     4  11  23  44  72 101 139 177 230 290 342 412
#
# _framework density 21.698533000000001
#
# number of rings (size 3 to 8) (size 9 to 14) (size 15 to 20)
#    0.000    0.667    3.333    4.000    4.667    4.000 
#    0.000    0.000    0.000    0.000    0.000    0.000 
#    0.000    0.000    0.000    0.000    0.000    0.000 
#
# Total GULP energy -134198.370768 kJ/mol
# GULP energy per Si atom -5591.598782 kJ/mol
# Density = 2.164915 g / cm^3
# Si number density = 21.698533 Si / 1000 Ang^3
#
#
#
# Elastic Constant Matrix: (Units=GPa)
#
#
# Indices 1 2 3 4 5 6 
#
# 1 115.4864 20.4939 22.8471 0.0000 -13.0927 0.0000
# 2 20.4939 106.5045 50.1578 0.0000 15.4875 0.0000
# 3 22.8471 50.1578 71.2062 0.0000 -4.4428 0.0000
# 4 0.0000 0.0000 0.0000 -26.0303 0.0000 -44.9478
# 5 -13.0927 15.4875 -4.4428 0.0000 24.1660 0.0000
# 6 0.0000 0.0000 0.0000 -44.9478 0.0000 -2.7368
#
#
#
# Elastic Compliance Matrix: (Units=1/GPa)
#
#
# Indices 1 2 3 4 5 6 
#
# 1 0.010076 -0.002399 -0.001119 0.000000 0.006791 0.000000
# 2 -0.002399 0.018219 -0.013023 0.000000 -0.015370 0.000000
# 3 -0.001119 -0.013023 0.024338 0.000000 0.012214 0.000000
# 4 0.000000 0.000000 0.000000 0.001404 0.000000 -0.023061
# 5 0.006791 -0.015370 0.012214 0.000000 0.057156 0.000000
# 6 0.000000 0.000000 0.000000 -0.023061 0.000000 0.013355
#
#
# Mechanical properties :
#
#
# Convention : Reuss Voigt Hill
#
# Bulk Modulus (GPa) = 51.14870 53.35498 52.25184
# Shear Modulus (GPa) = 30.46032 12.39299 21.42665
#
# Velocity S-wave (km/s) = 3.75079 2.39246 3.14581
# Velocity P-wave (km/s) = 6.51011 5.68105 6.10966
#
# Compressibility (1/GPa) = 0.01955084
#
# Stress axis : x y z
#
# Youngs Moduli (GPa) = 99.24464 54.88764 41.08775
#
# Poissons Ratio (x) = 0.13169 0.04599
# Poissons Ratio (y) = 0.23812 0.53507
# Poissons Ratio (z) = 0.11108 0.71479
#
# Static dielectric constant tensor:
#      x y z
#    x 1.884350 0.000000 -0.008500 
#    y 0.000000 1.813280 0.000000 
#    z -0.008500 0.000000 1.752770 
# 
# From -- ./inp_files/176994.got.cif
#   From: 2010.05.17/outbox.cif.g08.bks.cpg/sg15_89_cif.got.tgz:176994.got - 2010.06.03 18:47:42.
