data_PCOD9304567
_publ_section_title
;
Structure prediction by ZEFSAII (Michael W. Deem and Ramdas Pophale) SiO2 
 PCOD9304567
Probable space group: C 2/C
;
_chemical_formula_sum "Si O2"
_cell_formula_units_Z 36
_cell_length_a 20.397556
_cell_length_b 8.138979
_cell_length_c 24.546778
_cell_angle_alpha 90.000000
_cell_angle_beta 24.114834
_cell_angle_gamma 90.000000
_cell_volume 1664.966924
_symmetry_space_group_name_H-M "C 2/C"
_symmetry_group_IT_number 15
_symmetry_cell_setting 'monoclinic'
loop_
_space_group_symop_operation_xyz
x,y,z
-x,y,1/2-z
-x,-y,-z
x,-y,1/2+z
1/2+x,1/2+y,z
1/2-x,1/2+y,1/2-z
1/2-x,1/2-y,-z
1/2+x,1/2-y,1/2+z
loop_
_atom_site_type_symbol
_atom_site_label
_atom_site_fract_x
_atom_site_fract_y
_atom_site_fract_z
Si Si1 0.566859 0.078480 0.891951
Si Si2 0.000000 0.525082 0.250000
Si Si3 0.637516 0.129640 0.548819
Si Si4 0.268350 0.226247 0.563957
Si Si5 0.371018 0.261378 0.210354
O O1 0.440713 0.182309 0.950281
O O2 0.734284 0.166609 0.775720
O O3 0.609323 0.926284 0.821512
O O4 0.500000 0.000000 0.000000
O O5 0.003953 0.414381 0.300696
O O6 0.852855 0.647746 0.371495
O O7 0.750000 0.250000 0.500000
O O8 0.724218 0.957681 0.465982
O O9 0.442922 0.312687 0.433370
O O10 0.197770 0.210650 0.677850
#
# Coordination Sequence:
#
# PCOD9304567 Si02
#       5
#     8   4   8   8   8
#     4  11  23  47  72 108 150 190 250 308 375 447
#     4  12  24  48  70 104 146 194 254 292 384 466
#     4  11  26  45  72 109 150 191 246 319 374 443
#     4  11  23  47  74 101 139 201 251 297 374 461
#     4  11  23  44  76 103 142 196 247 307 367 444
#
# _framework density 21.622050999999999
#
# number of rings (size 3 to 8) (size 9 to 14) (size 15 to 20)
#    0.000    0.889    8.889    0.667    0.000    5.333 
#    0.000    0.000    0.000    0.000    0.000    0.000 
#    0.000    0.000    0.000    0.000    0.000    0.000 
#
# Total GULP energy -100253.324786 kJ/mol
# GULP energy per Si atom -5569.629155 kJ/mol
# Density = 2.157284 g / cm^3
# Si number density = 21.622051 Si / 1000 Ang^3
#
#
#
# Elastic Constant Matrix: (Units=GPa)
#
#
# Indices 1 2 3 4 5 6 
#
# 1 169.7914 40.8126 70.2018 0.0003 -0.8540 0.0000
# 2 40.8126 45.1825 30.5360 -0.0011 -6.4419 0.0003
# 3 70.2018 30.5360 141.3396 -0.0045 -3.3484 -0.0005
# 4 0.0003 -0.0011 -0.0045 30.4524 0.0023 -8.6109
# 5 -0.8540 -6.4419 -3.3484 0.0023 64.7904 0.0002
# 6 0.0000 0.0003 -0.0005 -8.6109 0.0002 41.6891
#
#
#
# Elastic Compliance Matrix: (Units=1/GPa)
#
#
# Indices 1 2 3 4 5 6 
#
# 1 0.008507 -0.005745 -0.002999 -0.000001 -0.000614 0.000000
# 2 -0.005745 0.030141 -0.003593 0.000000 0.002735 0.000000
# 3 -0.002999 -0.003593 0.009343 0.000001 0.000086 0.000000
# 4 -0.000001 0.000000 0.000001 0.034875 -0.000001 0.007203
# 5 -0.000614 0.002735 0.000086 -0.000001 0.015703 0.000000
# 6 0.000000 0.000000 0.000000 0.007203 0.000000 0.025475
#
#
# Mechanical properties :
#
#
# Convention : Reuss Voigt Hill
#
# Bulk Modulus (GPa) = 42.88902 71.04604 56.96753
# Shear Modulus (GPa) = 31.95075 41.70392 36.82734
#
# Velocity S-wave (km/s) = 3.84825 4.39654 4.13150
# Velocity P-wave (km/s) = 6.29477 7.66174 7.01165
#
# Compressibility (1/GPa) = 0.02331599
#
# Stress axis : x y z
#
# Youngs Moduli (GPa) = 117.54479 33.17774 107.03212
#
# Poissons Ratio (x) = 0.19062 0.32097
# Poissons Ratio (y) = 0.67535 0.38460
# Poissons Ratio (z) = 0.35249 0.11922
#
# Static dielectric constant tensor:
#      x y z
#    x 1.988560 0.000000 -0.075330 
#    y 0.000000 1.832590 0.000000 
#    z -0.075330 0.000000 1.807540 
# 
# From -- ./inp_files/301948.got.cif
#   From: 2010.05.17/outbox.cif.g08.bks.cpg/sg15_151_cif.got.tgz:301948.got - 2010.06.03 18:47:42.
