data_PCOD9304045
_publ_section_title
;
Structure prediction by ZEFSAII (Michael W. Deem and Ramdas Pophale) SiO2 
 PCOD9304045
Probable space group: C 2/C
;
_chemical_formula_sum "Si O2"
_cell_formula_units_Z 40
_cell_length_a 11.912201
_cell_length_b 26.761261
_cell_length_c 5.425113
_cell_angle_alpha 90.000000
_cell_angle_beta 79.693241
_cell_angle_gamma 90.000000
_cell_volume 1701.540998
_symmetry_space_group_name_H-M "C 2/C"
_symmetry_group_IT_number 15
_symmetry_cell_setting 'monoclinic'
loop_
_space_group_symop_operation_xyz
x,y,z
-x,y,1/2-z
-x,-y,-z
x,-y,1/2+z
1/2+x,1/2+y,z
1/2-x,1/2+y,1/2-z
1/2-x,1/2-y,-z
1/2+x,1/2-y,1/2+z
loop_
_atom_site_type_symbol
_atom_site_label
_atom_site_fract_x
_atom_site_fract_y
_atom_site_fract_z
Si Si1 0.000000 0.296991 0.750000
Si Si2 0.344135 0.615115 0.700185
Si Si3 0.500000 0.966514 0.750000
Si Si4 0.854010 0.784459 0.524165
Si Si5 0.894524 0.615649 0.992330
Si Si6 0.000000 0.032042 0.750000
Si Si7 0.500000 0.653756 0.250000
O O1 0.951497 0.257165 0.959857
O O2 0.913117 0.333024 0.638465
O O3 0.346345 0.666837 0.852548
O O4 0.223607 0.612292 0.607466
O O5 0.380093 0.563776 0.814768
O O6 0.455684 0.619902 0.483542
O O7 0.402729 0.926827 0.702030
O O8 0.500000 0.000000 0.500000
O O9 0.750000 0.750000 0.500000
O O10 0.888616 0.811584 0.759760
O O11 0.000000 0.611645 0.750000
O O12 0.000000 0.000000 0.500000
#
# Coordination Sequence:
#
# PCOD9304045 Si02
#       7
#     4   8   4   8   8   4   4
#     4  11  23  42  60 113 143 196 255 299 388 470
#     4  12  26  49  75 113 153 206 264 333 387 477
#     4  11  24  52  76 108 149 195 256 327 410 476
#     4  12  25  41  72 106 152 207 255 318 391 467
#     4  11  26  45  76 110 153 194 259 327 395 481
#     4  12  28  54  81 114 153 208 273 329 406 470
#     4  12  23  46  71 103 167 199 264 321 392 466
#
# _framework density 23.508101
#
# number of rings (size 3 to 8) (size 9 to 14) (size 15 to 20)
#    0.000    0.400    5.000    3.000    4.200    4.800 
#    0.000    0.000    0.000    0.000    0.000    0.000 
#    0.000    0.000    0.000    0.000    0.000    0.000 
#
# Total GULP energy -111359.913119 kJ/mol
# GULP energy per Si atom -5567.995656 kJ/mol
# Density = 2.345460 g / cm^3
# Si number density = 23.508101 Si / 1000 Ang^3
#
#
#
# Elastic Constant Matrix: (Units=GPa)
#
#
# Indices 1 2 3 4 5 6 
#
# 1 153.1496 60.1947 32.1553 0.0000 45.9540 0.0000
# 2 60.1947 165.6227 51.1040 0.0000 35.0719 0.0000
# 3 32.1553 51.1040 92.2746 0.0000 28.9527 0.0000
# 4 0.0000 0.0000 0.0000 99.7285 0.0000 -0.2105
# 5 45.9540 35.0719 28.9527 0.0000 38.4461 0.0000
# 6 0.0000 0.0000 0.0000 -0.2105 0.0000 34.1215
#
#
#
# Elastic Compliance Matrix: (Units=1/GPa)
#
#
# Indices 1 2 3 4 5 6 
#
# 1 0.010503 -0.001608 0.000929 0.000000 -0.011787 0.000000
# 2 -0.001608 0.008248 -0.002946 0.000000 -0.003383 0.000000
# 3 0.000929 -0.002946 0.015255 0.000000 -0.009911 0.000000
# 4 0.000000 0.000000 0.000000 0.010027 0.000000 0.000062
# 5 -0.011787 -0.003383 -0.009911 0.000000 0.050649 0.000000
# 6 0.000000 0.000000 0.000000 0.000062 0.000000 0.029307
#
#
# Mechanical properties :
#
#
# Convention : Reuss Voigt Hill
#
# Bulk Modulus (GPa) = 37.37525 77.55055 57.46290
# Shear Modulus (GPa) = 35.67394 52.29875 43.98635
#
# Velocity S-wave (km/s) = 3.89976 4.72180 4.33033
# Velocity P-wave (km/s) = 6.01755 7.92387 7.03557
#
# Compressibility (1/GPa) = 0.02675568
#
# Stress axis : x y z
#
# Youngs Moduli (GPa) = 95.20739 121.24678 65.55360
#
# Poissons Ratio (x) = 0.19496 -0.06088
# Poissons Ratio (y) = 0.15309 0.19311
# Poissons Ratio (z) = -0.08843 0.35717
#
# Static dielectric constant tensor:
#      x y z
#    x 2.341380 0.000000 -0.160960 
#    y 0.000000 1.988170 0.000000 
#    z -0.160960 0.000000 2.042610 
# 
# From -- ./inp_files/5000.got.cif
#   From: 2010.05.17/outbox.cif.g08.bks.cpg/sg15_3_cif.got.tgz:5000.got - 2010.06.03 18:47:42.
