data_PCOD9304526
_publ_section_title
;
Structure prediction by ZEFSAII (Michael W. Deem and Ramdas Pophale) SiO2 
 PCOD9304526
Probable space group: C 2/C
;
_chemical_formula_sum "Si O2"
_cell_formula_units_Z 56
_cell_length_a 23.233070
_cell_length_b 8.741891
_cell_length_c 14.106222
_cell_angle_alpha 90.000000
_cell_angle_beta 59.739552
_cell_angle_gamma 90.000000
_cell_volume 2474.614528
_symmetry_space_group_name_H-M "C 2/C"
_symmetry_group_IT_number 15
_symmetry_cell_setting 'monoclinic'
loop_
_space_group_symop_operation_xyz
x,y,z
-x,y,1/2-z
-x,-y,-z
x,-y,1/2+z
1/2+x,1/2+y,z
1/2-x,1/2+y,1/2-z
1/2-x,1/2-y,-z
1/2+x,1/2-y,1/2+z
loop_
_atom_site_type_symbol
_atom_site_label
_atom_site_fract_x
_atom_site_fract_y
_atom_site_fract_z
Si Si1 0.202600 0.174557 0.786026
Si Si2 0.521392 0.338161 0.029951
Si Si3 0.873863 0.144889 0.359110
Si Si4 0.500000 0.431125 0.250000
Si Si5 0.864948 0.589608 0.016311
Si Si6 0.267156 0.406079 0.434106
Si Si7 0.000000 0.500000 0.000000
Si Si8 0.660560 0.659276 0.333015
O O1 0.160741 0.297065 0.878712
O O2 0.184971 0.153743 0.690570
O O3 0.279453 0.222380 0.720123
O O4 0.193736 0.003313 0.828940
O O5 0.492886 0.334976 0.159992
O O6 0.500000 0.500000 0.000000
O O7 0.496408 0.188030 0.997141
O O8 0.601059 0.330427 0.956161
O O9 0.878384 0.301055 0.414437
O O10 0.868795 0.168165 0.249576
O O11 0.937897 0.040839 0.322269
O O12 0.808972 0.046189 0.443698
O O13 0.801660 0.483376 0.043025
O O14 0.928773 0.494638 0.998298
O O15 0.250000 0.250000 0.500000
#
# Coordination Sequence:
#
# PCOD9304526 Si02
#       8
#     8   8   8   4   8   8   4   8
#     4  11  23  44  72 109 145 202 252 317 395 455
#     4  12  26  53  77 108 159 208 261 329 392 475
#     4  11  25  46  75 112 148 205 254 314 398 463
#     4  12  26  46  80 114 150 212 260 312 404 470
#     4  12  26  50  73 114 153 201 263 322 388 480
#     4  11  27  46  72 111 150 198 256 323 386 467
#     4  12  30  50  76 114 154 210 264 324 394 470
#     4  11  24  44  75 105 152 202 253 320 389 464
#
# _framework density 22.629785999999999
#
# number of rings (size 3 to 8) (size 9 to 14) (size 15 to 20)
#    0.000    0.571    4.286    3.857    8.000    0.000 
#    2.571    0.000    0.000    0.000    0.000    0.000 
#    0.000    0.000    0.000    0.000    0.000    0.000 
#
# Total GULP energy -156018.991279 kJ/mol
# GULP energy per Si atom -5572.106831 kJ/mol
# Density = 2.257828 g / cm^3
# Si number density = 22.629786 Si / 1000 Ang^3
#
#
#
# Elastic Constant Matrix: (Units=GPa)
#
#
# Indices 1 2 3 4 5 6 
#
# 1 112.8817 49.2582 16.0208 0.0000 -24.8343 0.0000
# 2 49.2582 149.7042 24.6190 0.0000 -10.1790 0.0000
# 3 16.0208 24.6190 88.9104 0.0000 -1.2431 0.0000
# 4 0.0000 0.0000 0.0000 28.5833 0.0000 -4.6483
# 5 -24.8343 -10.1790 -1.2431 0.0000 33.4085 0.0000
# 6 0.0000 0.0000 0.0000 -4.6483 0.0000 39.2838
#
#
#
# Elastic Compliance Matrix: (Units=1/GPa)
#
#
# Indices 1 2 3 4 5 6 
#
# 1 0.012229 -0.003282 -0.001182 0.000000 0.008047 0.000000
# 2 -0.003282 0.008024 -0.001631 0.000000 -0.000056 0.000000
# 3 -0.001182 -0.001631 0.011899 0.000000 -0.000933 0.000000
# 4 0.000000 0.000000 0.000000 0.035672 0.000000 0.004221
# 5 0.008047 -0.000056 -0.000933 0.000000 0.035862 0.000000
# 6 0.000000 0.000000 0.000000 0.004221 0.000000 0.025955
#
#
# Mechanical properties :
#
#
# Convention : Reuss Voigt Hill
#
# Bulk Modulus (GPa) = 50.09794 59.03245 54.56520
# Shear Modulus (GPa) = 33.67297 37.69499 35.68398
#
# Velocity S-wave (km/s) = 3.86164 4.08576 3.97528
# Velocity P-wave (km/s) = 6.48607 6.95706 6.72569
#
# Compressibility (1/GPa) = 0.01996090
#
# Stress axis : x y z
#
# Youngs Moduli (GPa) = 81.77151 124.62131 84.04106
#
# Poissons Ratio (x) = 0.40905 0.09935
# Poissons Ratio (y) = 0.26840 0.13709
# Poissons Ratio (z) = 0.09667 0.20329
#
# Static dielectric constant tensor:
#      x y z
#    x 1.928550 0.000000 0.063700 
#    y 0.000000 1.888490 0.000000 
#    z 0.063700 0.000000 1.890110 
# 
# From -- ./inp_files/172319.got.cif
#   From: 2010.05.17/outbox.cif.g08.bks.cpg/sg15_87_cif.got.tgz:172319.got - 2010.06.03 18:47:42.
