data_PCOD9304421
_publ_section_title
;
Structure prediction by ZEFSAII (Michael W. Deem and Ramdas Pophale) SiO2 
 PCOD9304421
Probable space group: C 2/C
;
_chemical_formula_sum "Si O2"
_cell_formula_units_Z 48
_cell_length_a 13.383816
_cell_length_b 11.619753
_cell_length_c 13.245391
_cell_angle_alpha 90.000000
_cell_angle_beta 90.188104
_cell_angle_gamma 90.000000
_cell_volume 2059.867551
_symmetry_space_group_name_H-M "C 2/C"
_symmetry_group_IT_number 15
_symmetry_cell_setting 'monoclinic'
loop_
_space_group_symop_operation_xyz
x,y,z
-x,y,1/2-z
-x,-y,-z
x,-y,1/2+z
1/2+x,1/2+y,z
1/2-x,1/2+y,1/2-z
1/2-x,1/2-y,-z
1/2+x,1/2-y,1/2+z
loop_
_atom_site_type_symbol
_atom_site_label
_atom_site_fract_x
_atom_site_fract_y
_atom_site_fract_z
Si Si1 0.837794 0.300094 0.383002
Si Si2 0.885712 0.084851 0.259363
Si Si3 0.949315 0.397799 0.118751
Si Si4 0.772275 0.227619 0.115997
Si Si5 0.555380 0.844070 0.919721
Si Si6 0.863550 0.173241 0.728726
O O1 0.841907 0.167240 0.346017
O O2 0.853914 0.318105 0.502035
O O3 0.735046 0.347901 0.340520
O O4 0.940023 0.362409 0.342708
O O5 0.827114 0.112976 0.155199
O O6 0.000000 0.122000 0.250000
O O7 0.887371 0.949420 0.277020
O O8 0.853666 0.324178 0.148653
O O9 0.930513 0.532743 0.132569
O O10 0.964532 0.366471 0.998023
O O11 0.674387 0.242843 0.183305
O O12 0.750000 0.250000 0.000000
O O13 0.557222 0.738078 0.842689
#
# Coordination Sequence:
#
# PCOD9304421 Si02
#       6
#     8   8   8   8   8   8
#     4   9  20  42  67  98 131 179 225 277 346 402
#     4  11  23  44  64  97 136 183 222 269 350 414
#     4   9  20  41  73  96 134 172 226 278 351 400
#     4  11  26  43  65  98 141 180 227 277 345 407
#     4   9  20  41  70 103 127 171 231 291 337 397
#     4  11  25  38  69 100 135 175 232 284 331 412
#
# _framework density 23.302468000000001
#
# number of rings (size 3 to 8) (size 9 to 14) (size 15 to 20)
#    1.000    1.000    1.667    0.500    7.000    2.667 
#    0.000    4.167    7.333    0.000    0.000    0.000 
#    0.000    0.000    0.000    0.000    0.000    0.000 
#
# Total GULP energy -133913.267423 kJ/mol
# GULP energy per Si atom -5579.719476 kJ/mol
# Density = 2.324943 g / cm^3
# Si number density = 23.302468 Si / 1000 Ang^3
#
#
#
# Elastic Constant Matrix: (Units=GPa)
#
#
# Indices 1 2 3 4 5 6 
#
# 1 78.5168 19.3124 11.9283 0.0000 0.6167 0.0000
# 2 19.3124 139.0216 11.9945 0.0000 -1.6980 0.0000
# 3 11.9283 11.9945 94.2097 0.0000 21.6335 0.0000
# 4 0.0000 0.0000 0.0000 31.0571 0.0000 3.9690
# 5 0.6167 -1.6980 21.6335 0.0000 37.0176 0.0000
# 6 0.0000 0.0000 0.0000 3.9690 0.0000 19.0800
#
#
#
# Elastic Compliance Matrix: (Units=1/GPa)
#
#
# Indices 1 2 3 4 5 6 
#
# 1 0.013400 -0.001713 -0.001628 0.000000 0.000649 0.000000
# 2 -0.001713 0.007525 -0.000955 0.000000 0.000932 0.000000
# 3 -0.001628 -0.000955 0.012643 0.000000 -0.007405 0.000000
# 4 0.000000 0.000000 0.000000 0.033078 0.000000 -0.006881
# 5 0.000649 0.000932 -0.007405 0.000000 0.031374 0.000000
# 6 0.000000 0.000000 0.000000 -0.006881 0.000000 0.053842
#
#
# Mechanical properties :
#
#
# Convention : Reuss Voigt Hill
#
# Bulk Modulus (GPa) = 40.03892 44.24649 42.14270
# Shear Modulus (GPa) = 29.62467 35.33181 32.47824
#
# Velocity S-wave (km/s) = 3.56941 3.89810 3.73737
# Velocity P-wave (km/s) = 5.84869 6.26812 6.06203
#
# Compressibility (1/GPa) = 0.02497570
#
# Stress axis : x y z
#
# Youngs Moduli (GPa) = 74.62879 132.89231 79.09655
#
# Poissons Ratio (x) = 0.22765 0.12874
# Poissons Ratio (y) = 0.12784 0.07555
# Poissons Ratio (z) = 0.12147 0.12693
#
# Static dielectric constant tensor:
#      x y z
#    x 1.916090 0.000000 -0.001210 
#    y 0.000000 1.843180 0.000000 
#    z -0.001210 0.000000 1.976730 
# 
# From -- ./inp_files/152094.got.cif
#   From: 2010.05.17/outbox.cif.g08.bks.cpg/sg15_77_cif.got.tgz:152094.got - 2010.06.03 18:47:42.
