data_PCOD9304444
_publ_section_title
;
Structure prediction by ZEFSAII (Michael W. Deem and Ramdas Pophale) SiO2 
 PCOD9304444
Probable space group: C 2/C
;
_chemical_formula_sum "Si O2"
_cell_formula_units_Z 64
_cell_length_a 8.798690
_cell_length_b 16.940431
_cell_length_c 28.736786
_cell_angle_alpha 90.000000
_cell_angle_beta 138.036780
_cell_angle_gamma 90.000000
_cell_volume 2864.057523
_symmetry_space_group_name_H-M "C 2/C"
_symmetry_group_IT_number 15
_symmetry_cell_setting 'monoclinic'
loop_
_space_group_symop_operation_xyz
x,y,z
-x,y,1/2-z
-x,-y,-z
x,-y,1/2+z
1/2+x,1/2+y,z
1/2-x,1/2+y,1/2-z
1/2-x,1/2-y,-z
1/2+x,1/2-y,1/2+z
loop_
_atom_site_type_symbol
_atom_site_label
_atom_site_fract_x
_atom_site_fract_y
_atom_site_fract_z
Si Si1 0.400126 0.336750 0.182708
Si Si2 0.048724 0.688066 0.446387
Si Si3 0.228445 0.090879 0.426667
Si Si4 0.837093 0.901130 0.946107
Si Si5 0.946475 0.455696 0.419611
Si Si6 0.253542 0.924200 0.095573
Si Si7 0.754401 0.804280 0.320845
Si Si8 0.734117 0.834527 0.827568
O O1 0.500000 0.383147 0.250000
O O2 0.215227 0.380889 0.110022
O O3 0.603664 0.320839 0.193312
O O4 0.280571 0.260183 0.179261
O O5 0.250000 0.750000 0.500000
O O6 0.168043 0.610706 0.451029
O O7 0.898609 0.663482 0.455854
O O8 0.875459 0.731009 0.372785
O O9 0.330280 0.050831 0.496653
O O10 0.970018 0.122871 0.366626
O O11 0.288021 0.028197 0.399708
O O12 0.734658 0.847254 0.882968
O O13 0.850384 0.987633 0.926006
O O14 0.081411 0.877874 0.022046
O O15 0.021594 0.443308 0.382978
O O16 0.258454 0.877476 0.145004
O O17 0.500000 0.783701 0.250000
O O18 0.500000 0.864606 0.750000
#
# Coordination Sequence:
#
# PCOD9304444 Si02
#       8
#     8   8   8   8   8   8   8   8
#     4  11  26  46  69 100 143 184 238 297 362 438
#     4  12  24  43  70 107 138 184 242 300 358 437
#     4  11  26  43  72 104 142 189 235 296 370 421
#     4  11  23  44  68 104 140 180 235 291 350 427
#     4  11  24  45  68 104 143 181 236 296 352 442
#     4  11  24  42  71 101 142 181 235 289 355 426
#     4  12  27  44  72 101 141 191 238 298 368 438
#     4  11  26  46  70 101 143 187 240 300 366 436
#
# _framework density 22.345921000000001
#
# number of rings (size 3 to 8) (size 9 to 14) (size 15 to 20)
#    0.000    0.750    5.000    1.500    7.000    1.000 
#    2.250    0.625    0.000    0.000    0.000    0.000 
#    0.000    0.000    0.000    0.000    0.000    0.000 
#
# Total GULP energy -178476.912213 kJ/mol
# GULP energy per Si atom -5577.403507 kJ/mol
# Density = 2.229506 g / cm^3
# Si number density = 22.345921 Si / 1000 Ang^3
#
#
#
# Elastic Constant Matrix: (Units=GPa)
#
#
# Indices 1 2 3 4 5 6 
#
# 1 140.6412 35.4428 39.1447 0.0000 23.3483 0.0000
# 2 35.4428 71.7524 34.0727 0.0000 14.3805 0.0000
# 3 39.1447 34.0727 136.7359 0.0001 25.5054 0.0000
# 4 0.0000 0.0000 0.0001 24.8524 0.0000 -2.0141
# 5 23.3483 14.3805 25.5054 0.0000 42.9390 0.0000
# 6 0.0000 0.0000 0.0000 -2.0141 0.0000 42.3665
#
#
#
# Elastic Compliance Matrix: (Units=1/GPa)
#
#
# Indices 1 2 3 4 5 6 
#
# 1 0.008726 -0.003162 -0.001150 0.000000 -0.003003 0.000000
# 2 -0.003162 0.017386 -0.002993 0.000000 -0.002325 0.000000
# 3 -0.001150 -0.002993 0.009092 0.000000 -0.003773 0.000000
# 4 0.000000 0.000000 0.000000 0.040393 0.000000 0.001920
# 5 -0.003003 -0.002325 -0.003773 0.000000 0.027941 0.000000
# 6 0.000000 0.000000 0.000000 0.001920 0.000000 0.023695
#
#
# Mechanical properties :
#
#
# Convention : Reuss Voigt Hill
#
# Bulk Modulus (GPa) = 48.56013 62.93887 55.74950
# Shear Modulus (GPa) = 33.62261 38.06285 35.84273
#
# Velocity S-wave (km/s) = 3.88318 4.13164 4.00933
# Velocity P-wave (km/s) = 6.47176 7.14055 6.81437
#
# Compressibility (1/GPa) = 0.02059302
#
# Stress axis : x y z
#
# Youngs Moduli (GPa) = 114.60335 57.51631 109.98368
#
# Poissons Ratio (x) = 0.18189 0.12647
# Poissons Ratio (y) = 0.36241 0.32923
# Poissons Ratio (z) = 0.13179 0.17217
#
# Static dielectric constant tensor:
#      x y z
#    x 1.844460 0.000000 0.014850 
#    y 0.000000 1.915790 0.000000 
#    z 0.014850 0.000000 1.815870 
# 
# From -- ./inp_files/308794.got.cif
#   From: 2010.05.17/outbox.cif.g08.bks.cpg/sg15_155_cif.got.tgz:308794.got - 2010.06.03 18:47:42.
