data_PCOD9304513
_publ_section_title
;
Structure prediction by ZEFSAII (Michael W. Deem and Ramdas Pophale) SiO2 
 PCOD9304513
Probable space group: C 2/C
;
_chemical_formula_sum "Si O2"
_cell_formula_units_Z 64
_cell_length_a 5.164150
_cell_length_b 28.938327
_cell_length_c 16.951819
_cell_angle_alpha 90.000000
_cell_angle_beta 78.200456
_cell_angle_gamma 90.000000
_cell_volume 2479.780023
_symmetry_space_group_name_H-M "C 2/C"
_symmetry_group_IT_number 15
_symmetry_cell_setting 'monoclinic'
loop_
_space_group_symop_operation_xyz
x,y,z
-x,y,1/2-z
-x,-y,-z
x,-y,1/2+z
1/2+x,1/2+y,z
1/2-x,1/2+y,1/2-z
1/2-x,1/2-y,-z
1/2+x,1/2-y,1/2+z
loop_
_atom_site_type_symbol
_atom_site_label
_atom_site_fract_x
_atom_site_fract_y
_atom_site_fract_z
Si Si1 0.452112 0.881248 0.868675
Si Si2 0.429495 0.801167 0.160258
Si Si3 0.043468 0.055853 0.134173
Si Si4 0.398751 0.305507 0.666502
Si Si5 0.314424 0.840412 0.503565
Si Si6 0.173481 0.104521 0.662195
Si Si7 0.162699 0.058715 0.949255
Si Si8 0.082905 0.518037 0.830023
O O1 0.737753 0.906085 0.849380
O O2 0.239376 0.918896 0.850837
O O3 0.360058 0.836165 0.828622
O O4 0.439034 0.859689 0.958565
O O5 0.500000 0.809806 0.250000
O O6 0.335269 0.748675 0.162273
O O7 0.638121 0.806640 0.074133
O O8 0.227394 0.841784 0.148177
O O9 0.150840 0.009918 0.169492
O O10 0.087994 0.043983 0.040909
O O11 0.500000 0.312334 0.750000
O O12 0.608799 0.320704 0.583175
O O13 0.246733 0.888373 0.465377
O O14 0.424360 0.074230 0.671033
O O15 0.000000 0.100007 0.750000
O O16 0.060806 0.072819 0.599508
O O17 0.352646 0.016753 0.908562
O O18 0.000000 0.501697 0.750000
#
# Coordination Sequence:
#
# PCOD9304513 Si02
#       8
#     8   8   8   8   8   8   8   8
#     4  11  24  51  75 111 146 203 255 319 384 457
#     4  11  24  46  72 114 155 198 259 312 389 465
#     4  11  27  45  76 108 148 196 258 316 381 461
#     4  11  26  48  76 110 151 204 257 322 385 464
#     4  11  23  48  79 106 154 203 252 319 390 455
#     4  12  24  43  72 105 156 200 249 318 388 459
#     4  11  23  44  71 105 145 199 249 312 385 452
#     4  12  26  45  68 106 147 201 251 316 383 462
#
# _framework density 25.80874
#
# number of rings (size 3 to 8) (size 9 to 14) (size 15 to 20)
#    0.000    0.750    5.000    2.625    3.500    2.500 
#    6.750    0.000    0.000    0.000    0.000    0.000 
#    0.000    0.000    0.000    0.000    0.000    0.000 
#
# Total GULP energy -178341.488658 kJ/mol
# GULP energy per Si atom -5573.171521 kJ/mol
# Density = 2.575000 g / cm^3
# Si number density = 25.808740 Si / 1000 Ang^3
#
#
#
# Elastic Constant Matrix: (Units=GPa)
#
#
# Indices 1 2 3 4 5 6 
#
# 1 74.4841 50.3363 28.0263 0.0000 20.2236 0.0000
# 2 50.3363 181.1251 64.1271 0.0000 13.0188 0.0000
# 3 28.0263 64.1271 160.0910 0.0000 0.2019 0.0000
# 4 0.0000 0.0000 0.0000 31.7929 0.0000 9.1373
# 5 20.2236 13.0188 0.2019 0.0000 45.7733 0.0000
# 6 0.0000 0.0000 0.0000 9.1373 0.0000 -9.5061
#
#
#
# Elastic Compliance Matrix: (Units=1/GPa)
#
#
# Indices 1 2 3 4 5 6 
#
# 1 0.018754 -0.004127 -0.001621 0.000000 -0.007105 0.000000
# 2 -0.004127 0.007497 -0.002280 0.000000 -0.000299 0.000000
# 3 -0.001621 -0.002280 0.007442 0.000000 0.001332 0.000000
# 4 0.000000 0.000000 0.000000 0.024645 0.000000 0.023689
# 5 -0.007105 -0.000299 0.001332 0.000000 0.025065 0.000000
# 6 0.000000 0.000000 0.000000 0.023689 0.000000 -0.082425
#
#
# Mechanical properties :
#
#
# Convention : Reuss Voigt Hill
#
# Bulk Modulus (GPa) = 56.70227 77.85329 67.27778
# Shear Modulus (GPa) = 218.21985 31.82604 125.02295
#
# Velocity S-wave (km/s) = 9.20523 3.51543 6.96759
# Velocity P-wave (km/s) = 11.61893 6.83437 9.53174
#
# Compressibility (1/GPa) = 0.01763598
#
# Stress axis : x y z
#
# Youngs Moduli (GPa) = 53.32219 133.39072 134.37537
#
# Poissons Ratio (x) = 0.55055 0.21781
# Poissons Ratio (y) = 0.22008 0.30638
# Poissons Ratio (z) = 0.08643 0.30414
#
# Static dielectric constant tensor:
#      x y z
#    x 2.147670 0.000000 -0.004270 
#    y 0.000000 2.111930 0.000000 
#    z -0.004270 0.000000 1.577240 
# 
# From -- ./inp_files/186730.got.cif
#   From: 2010.05.17/outbox.cif.g08.bks.cpg/sg15_94_cif.got.tgz:186730.got - 2010.06.03 18:47:42.
