data_PCOD9304886
_publ_section_title
;
Structure prediction by ZEFSAII (Michael W. Deem and Ramdas Pophale) SiO2 
 PCOD9304886
Probable space group: C 2/C
;
_chemical_formula_sum "Si O2"
_cell_formula_units_Z 60
_cell_length_a 17.144724
_cell_length_b 27.823769
_cell_length_c 11.350711
_cell_angle_alpha 90.000000
_cell_angle_beta 28.776688
_cell_angle_gamma 90.000000
_cell_volume 2606.591558
_symmetry_space_group_name_H-M "C 2/C"
_symmetry_group_IT_number 15
_symmetry_cell_setting 'monoclinic'
loop_
_space_group_symop_operation_xyz
x,y,z
-x,y,1/2-z
-x,-y,-z
x,-y,1/2+z
1/2+x,1/2+y,z
1/2-x,1/2+y,1/2-z
1/2-x,1/2-y,-z
1/2+x,1/2-y,1/2+z
loop_
_atom_site_type_symbol
_atom_site_label
_atom_site_fract_x
_atom_site_fract_y
_atom_site_fract_z
Si Si1 0.000000 0.166840 0.750000
Si Si2 0.773270 0.260943 0.330855
Si Si3 0.662338 0.589450 0.831434
Si Si4 0.826039 0.530106 0.415448
Si Si5 0.235870 0.403153 0.722254
Si Si6 0.946111 0.197044 0.582730
Si Si7 0.664778 0.430861 0.656206
Si Si8 0.887859 0.367031 0.209603
O O1 0.906347 0.198394 0.774929
O O2 0.134435 0.132767 0.509701
O O3 0.750000 0.250000 0.500000
O O4 0.635517 0.272310 0.415242
O O5 0.869688 0.311210 0.204162
O O6 0.870898 0.215027 0.158510
O O7 0.702293 0.557595 0.666657
O O8 0.587185 0.641850 0.904301
O O9 0.829241 0.602055 0.675092
O O10 0.529831 0.566568 0.093121
O O11 0.821021 0.559114 0.300918
O O12 0.762053 0.476492 0.480951
O O13 0.000000 0.528805 0.250000
O O14 0.312254 0.429424 0.732835
O O15 0.073757 0.378033 0.986870
O O16 0.754629 0.384052 0.482485
#
# Coordination Sequence:
#
# PCOD9304886 Si02
#       8
#     4   8   8   8   8   8   8   8
#     4  12  26  48  76 104 156 194 256 310 374 462
#     4  11  26  46  76 109 151 187 250 312 381 452
#     4  11  23  48  70 105 148 194 240 306 374 441
#     4  12  25  44  72 105 149 197 251 308 367 449
#     4  12  25  47  74 101 147 198 246 307 376 438
#     4  11  25  47  74 110 143 197 247 305 380 454
#     4  12  26  43  73 108 145 192 258 306 376 445
#     4  11  26  46  74 106 145 197 241 308 381 447
#
# _framework density 23.018566
#
# number of rings (size 3 to 8) (size 9 to 14) (size 15 to 20)
#    0.000    0.533    4.000    3.200    3.733    4.800 
#    2.400    0.000    0.000    0.000    0.000    0.000 
#    0.000    0.000    0.000    0.000    0.000    0.000 
#
# Total GULP energy -167589.781638 kJ/mol
# GULP energy per Si atom -5586.326055 kJ/mol
# Density = 2.296617 g / cm^3
# Si number density = 23.018566 Si / 1000 Ang^3
#
#
#
# Elastic Constant Matrix: (Units=GPa)
#
#
# Indices 1 2 3 4 5 6 
#
# 1 92.1786 21.3882 -13.3364 -0.0042 3.1236 0.0018
# 2 21.3882 51.4356 23.3282 0.0009 -9.5548 -0.0004
# 3 -13.3364 23.3282 73.4991 -0.0030 -10.5243 0.0016
# 4 -0.0042 0.0009 -0.0030 28.0133 0.0011 2.0994
# 5 3.1236 -9.5548 -10.5243 0.0011 41.4469 -0.0008
# 6 0.0018 -0.0004 0.0016 2.0994 -0.0008 40.4602
#
#
#
# Elastic Compliance Matrix: (Units=1/GPa)
#
#
# Indices 1 2 3 4 5 6 
#
# 1 0.013467 -0.008072 0.004767 0.000003 -0.001665 -0.000001
# 2 -0.008072 0.028059 -0.009710 -0.000003 0.004611 0.000001
# 3 0.004767 -0.009710 0.017829 0.000003 0.001929 -0.000001
# 4 0.000003 -0.000003 0.000003 0.035837 -0.000001 -0.001860
# 5 -0.001665 0.004611 0.001929 -0.000001 0.025806 0.000001
# 6 -0.000001 0.000001 -0.000001 -0.001860 0.000001 0.024812
#
#
# Mechanical properties :
#
#
# Convention : Reuss Voigt Hill
#
# Bulk Modulus (GPa) = 30.00657 31.09702 30.55180
# Shear Modulus (GPa) = 27.33035 34.36629 30.84832
#
# Velocity S-wave (km/s) = 3.44949 3.86810 3.66478
# Velocity P-wave (km/s) = 5.37860 5.78693 5.58650
#
# Compressibility (1/GPa) = 0.03332603
#
# Stress axis : x y z
#
# Youngs Moduli (GPa) = 74.25298 35.63971 56.08918
#
# Poissons Ratio (x) = 0.28767 -0.26738
# Poissons Ratio (y) = 0.59933 0.54462
# Poissons Ratio (z) = -0.35397 0.34606
#
# Static dielectric constant tensor:
#      x y z
#    x 1.969780 0.000000 0.008530 
#    y 0.000000 1.815930 0.000000 
#    z 0.008530 0.000000 1.870630 
# 
# From -- ./inp_files/108399.got.cif
#   From: 2010.05.17/outbox.cif.g08.bks.cpg/sg15_55_cif.got.tgz:108399.got - 2010.06.03 18:47:42.
