data_PCOD9304569
_publ_section_title
;
Structure prediction by ZEFSAII (Michael W. Deem and Ramdas Pophale) SiO2 
 PCOD9304569
Probable space group: C 2/C
;
_chemical_formula_sum "Si O2"
_cell_formula_units_Z 40
_cell_length_a 15.731551
_cell_length_b 8.452317
_cell_length_c 14.429007
_cell_angle_alpha 90.000000
_cell_angle_beta 74.940972
_cell_angle_gamma 90.000000
_cell_volume 1852.709837
_symmetry_space_group_name_H-M "C 2/C"
_symmetry_group_IT_number 15
_symmetry_cell_setting 'monoclinic'
loop_
_space_group_symop_operation_xyz
x,y,z
-x,y,1/2-z
-x,-y,-z
x,-y,1/2+z
1/2+x,1/2+y,z
1/2-x,1/2+y,1/2-z
1/2-x,1/2-y,-z
1/2+x,1/2-y,1/2+z
loop_
_atom_site_type_symbol
_atom_site_label
_atom_site_fract_x
_atom_site_fract_y
_atom_site_fract_z
Si Si1 0.902089 0.682538 0.971260
Si Si2 0.060155 0.536749 0.356671
Si Si3 0.363970 0.483755 0.707082
Si Si4 0.500000 0.692800 0.750000
Si Si5 0.311088 0.849110 0.308693
Si Si6 0.000000 0.000000 0.500000
O O1 0.829910 0.666120 0.912165
O O2 0.989305 0.592223 0.908047
O O3 0.930003 0.859480 0.987733
O O4 0.881467 0.589188 0.072295
O O5 0.118443 0.470143 0.256993
O O6 0.008913 0.693502 0.336223
O O7 0.414448 0.583095 0.772569
O O8 0.329328 0.319050 0.756178
O O9 0.283788 0.585366 0.690362
O O10 0.436307 0.457516 0.607302
#
# Coordination Sequence:
#
# PCOD9304569 Si02
#       6
#     8   8   8   4   8   4
#     4  11  24  44  76 108 151 194 246 304 378 446
#     4  11  23  44  77 109 143 196 247 302 381 445
#     4  12  28  46  76 107 151 198 254 306 379 438
#     4  12  22  46  72 104 142 198 240 306 368 458
#     4  12  26  50  73 110 151 200 247 319 363 443
#     4  12  24  46  70 110 138 198 248 298 370 450
#
# _framework density 21.589995999999999
#
# number of rings (size 3 to 8) (size 9 to 14) (size 15 to 20)
#    0.000    0.400    6.000    2.400    0.000    0.800 
#    3.600    1.000    0.000    0.000    0.000    0.000 
#    0.000    0.000    0.000    0.000    0.000    0.000 
#
# Total GULP energy -111420.076373 kJ/mol
# GULP energy per Si atom -5571.003819 kJ/mol
# Density = 2.154086 g / cm^3
# Si number density = 21.589996 Si / 1000 Ang^3
#
#
#
# Elastic Constant Matrix: (Units=GPa)
#
#
# Indices 1 2 3 4 5 6 
#
# 1 87.0085 59.0079 40.5233 0.0000 32.6252 0.0000
# 2 59.0079 104.8938 37.5548 0.0000 22.7494 0.0000
# 3 40.5233 37.5548 119.9385 0.0000 25.0459 0.0000
# 4 0.0000 0.0000 0.0000 36.5334 0.0000 0.2319
# 5 32.6252 22.7494 25.0459 0.0000 46.7602 0.0000
# 6 0.0000 0.0000 0.0000 0.2319 0.0000 37.3442
#
#
#
# Elastic Compliance Matrix: (Units=1/GPa)
#
#
# Indices 1 2 3 4 5 6 
#
# 1 0.023194 -0.009947 -0.002650 0.000000 -0.009925 0.000000
# 2 -0.009947 0.015657 -0.001577 0.000000 0.000167 0.000000
# 3 -0.002650 -0.001577 0.010336 0.000000 -0.002921 0.000000
# 4 0.000000 0.000000 0.000000 0.027373 0.000000 -0.000170
# 5 -0.009925 0.000167 -0.002921 0.000000 0.029793 0.000000
# 6 0.000000 0.000000 0.000000 -0.000170 0.000000 0.026779
#
#
# Mechanical properties :
#
#
# Convention : Reuss Voigt Hill
#
# Bulk Modulus (GPa) = 47.98096 65.11254 56.54675
# Shear Modulus (GPa) = 29.68639 35.77787 32.73213
#
# Velocity S-wave (km/s) = 3.71213 4.07523 3.89791
# Velocity P-wave (km/s) = 6.37536 7.23654 6.81955
#
# Compressibility (1/GPa) = 0.02084160
#
# Stress axis : x y z
#
# Youngs Moduli (GPa) = 43.11395 63.86780 96.74519
#
# Poissons Ratio (x) = 0.63529 0.25634
# Poissons Ratio (y) = 0.42885 0.15254
# Poissons Ratio (z) = 0.11424 0.10070
#
# Static dielectric constant tensor:
#      x y z
#    x 1.754500 0.000000 0.023230 
#    y 0.000000 1.786830 0.000000 
#    z 0.023230 0.000000 1.793250 
# 
# From -- ./inp_files/150714.got.cif
#   From: 2010.05.17/outbox.cif.g08.bks.cpg/sg15_76_cif.got.tgz:150714.got - 2010.06.03 18:47:42.
