data_PCOD9304100
_publ_section_title
;
Structure prediction by ZEFSAII (Michael W. Deem and Ramdas Pophale) SiO2 
 PCOD9304100
Probable space group: C 2/C
;
_chemical_formula_sum "Si O2"
_cell_formula_units_Z 40
_cell_length_a 23.193681
_cell_length_b 15.006594
_cell_length_c 18.718947
_cell_angle_alpha 90.000000
_cell_angle_beta 16.207607
_cell_angle_gamma 90.000000
_cell_volume 1818.536424
_symmetry_space_group_name_H-M "C 2/C"
_symmetry_group_IT_number 15
_symmetry_cell_setting 'monoclinic'
loop_
_space_group_symop_operation_xyz
x,y,z
-x,y,1/2-z
-x,-y,-z
x,-y,1/2+z
1/2+x,1/2+y,z
1/2-x,1/2+y,1/2-z
1/2-x,1/2-y,-z
1/2+x,1/2-y,1/2+z
loop_
_atom_site_type_symbol
_atom_site_label
_atom_site_fract_x
_atom_site_fract_y
_atom_site_fract_z
Si Si1 0.276242 0.354805 0.481865
Si Si2 0.394807 0.983332 0.241360
Si Si3 0.126957 0.082309 0.937019
Si Si4 0.798566 0.058439 0.801730
Si Si5 0.241185 0.350516 0.983642
O O1 0.500000 0.368118 0.250000
O O2 0.250000 0.250000 0.500000
O O3 0.140468 0.411759 0.699648
O O4 0.242591 0.396985 0.443277
O O5 0.325425 0.939901 0.249476
O O6 0.248497 0.928944 0.469894
O O7 0.636353 0.979886 0.973850
O O8 0.942532 0.137055 0.194053
O O9 0.184271 0.117392 0.790199
O O10 0.019302 0.986491 0.053005
O O11 0.250000 0.250000 0.000000
O O12 0.000000 0.360210 0.250000
#
# Coordination Sequence:
#
# PCOD9304100 Si02
#       5
#     8   8   8   8   8
#     4  12  23  42  67  97 133 179 227 274 330 405
#     4  12  21  44  69  96 132 176 224 272 337 406
#     4  11  23  42  67  97 132 170 217 276 334 390
#     4  11  23  42  67  97 132 170 217 276 334 390
#     4  12  23  42  67  97 133 179 227 274 330 405
#
# _framework density 21.995709000000002
#
# number of rings (size 3 to 8) (size 9 to 14) (size 15 to 20)
#    0.000    0.400    6.000    4.200    0.000    0.000 
#    0.000   10.000    0.000    0.000    0.000    0.000 
#    0.000    0.000    0.000    0.000    0.000    0.000 
#
# Total GULP energy -111423.030113 kJ/mol
# GULP energy per Si atom -5571.151506 kJ/mol
# Density = 2.194565 g / cm^3
# Si number density = 21.995709 Si / 1000 Ang^3
#
#
#
# Elastic Constant Matrix: (Units=GPa)
#
#
# Indices 1 2 3 4 5 6 
#
# 1 126.3822 22.0599 39.4029 0.0283 -9.9070 -0.0230
# 2 22.0599 71.5681 7.9418 0.0483 7.4556 -0.0559
# 3 39.4029 7.9418 100.6351 0.0031 -6.1120 -0.0116
# 4 0.0283 0.0483 0.0031 24.0084 -0.0009 -7.7166
# 5 -9.9070 7.4556 -6.1120 -0.0009 48.0535 0.0101
# 6 -0.0230 -0.0559 -0.0116 -7.7166 0.0101 18.7080
#
#
#
# Elastic Compliance Matrix: (Units=1/GPa)
#
#
# Indices 1 2 3 4 5 6 
#
# 1 0.009624 -0.002792 -0.003427 -0.000006 0.001981 -0.000002
# 2 -0.002792 0.015174 -0.000284 -0.000015 -0.002966 0.000037
# 3 -0.003427 -0.000284 0.011349 0.000004 0.000781 0.000003
# 4 -0.000006 -0.000015 0.000004 0.048018 -0.000002 0.019806
# 5 0.001981 -0.002966 0.000781 -0.000002 0.021778 -0.000018
# 6 -0.000002 0.000037 0.000003 0.019806 -0.000018 0.061623
#
#
# Mechanical properties :
#
#
# Convention : Reuss Voigt Hill
#
# Bulk Modulus (GPa) = 43.21846 48.59942 45.90894
# Shear Modulus (GPa) = 26.55523 33.43270 29.99396
#
# Velocity S-wave (km/s) = 3.47838 3.90290 3.69674
# Velocity P-wave (km/s) = 5.98527 6.51561 6.25606
#
# Compressibility (1/GPa) = 0.02313826
#
# Stress axis : x y z
#
# Youngs Moduli (GPa) = 103.90852 65.90206 88.11555
#
# Poissons Ratio (x) = 0.18403 0.30201
# Poissons Ratio (y) = 0.29016 0.02505
# Poissons Ratio (z) = 0.35614 0.01873
#
# Static dielectric constant tensor:
#      x y z
#    x 1.927930 0.000020 0.012230 
#    y 0.000020 1.797740 -0.000040 
#    z 0.012230 -0.000040 1.926250 
# 
# From -- ./inp_files/215662.got.cif
#   From: 2010.05.17/outbox.cif.g08.bks.cpg/sg15_108_cif.got.tgz:215662.got - 2010.06.03 18:47:42.
