data_PCOD9304851
_publ_section_title
;
Structure prediction by ZEFSAII (Michael W. Deem and Ramdas Pophale) SiO2 
 PCOD9304851
Probable space group: C 2/C
;
_chemical_formula_sum "Si O2"
_cell_formula_units_Z 40
_cell_length_a 26.869578
_cell_length_b 7.325518
_cell_length_c 14.265814
_cell_angle_alpha 90.000000
_cell_angle_beta 36.958018
_cell_angle_gamma 90.000000
_cell_volume 1688.247658
_symmetry_space_group_name_H-M "C 2/C"
_symmetry_group_IT_number 15
_symmetry_cell_setting 'monoclinic'
loop_
_space_group_symop_operation_xyz
x,y,z
-x,y,1/2-z
-x,-y,-z
x,-y,1/2+z
1/2+x,1/2+y,z
1/2-x,1/2+y,1/2-z
1/2-x,1/2-y,-z
1/2+x,1/2-y,1/2+z
loop_
_atom_site_type_symbol
_atom_site_label
_atom_site_fract_x
_atom_site_fract_y
_atom_site_fract_z
Si Si1 0.007340 0.863076 0.901614
Si Si2 0.316429 0.469200 0.935914
Si Si3 0.239350 0.377529 0.870755
Si Si4 0.113435 0.131137 0.499676
Si Si5 0.057947 0.523868 0.572864
O O1 0.101536 0.868538 0.726534
O O2 0.975055 0.657005 0.958473
O O3 0.944758 0.955145 0.921499
O O4 0.000000 0.000000 0.000000
O O5 0.262426 0.504195 0.925043
O O6 0.348972 0.631496 0.952476
O O7 0.268878 0.326194 0.074243
O O8 0.311989 0.385280 0.685872
O O9 0.152709 0.429359 0.955047
O O10 0.059667 0.307599 0.555086
O O11 0.000000 0.561227 0.750000
#
# Coordination Sequence:
#
# PCOD9304851 Si02
#       5
#     8   8   8   8   8
#     4  12  24  47  73 102 146 192 238 300 374 431
#     4  11  23  47  74 100 148 193 237 306 369 429
#     4  11  24  45  74 105 145 191 243 305 368 429
#     4  12  25  45  75 106 143 194 247 300 363 442
#     4  12  25  45  73 104 145 189 239 303 366 434
#
# _framework density 23.693204999999999
#
# number of rings (size 3 to 8) (size 9 to 14) (size 15 to 20)
#    0.000    0.400    6.000    3.000    0.000    1.600 
#    0.000    4.000    0.000    0.000    0.000    0.000 
#    0.000    0.000    0.000    0.000    0.000    0.000 
#
# Total GULP energy -111973.007303 kJ/mol
# GULP energy per Si atom -5598.650365 kJ/mol
# Density = 2.363928 g / cm^3
# Si number density = 23.693205 Si / 1000 Ang^3
#
#
#
# Elastic Constant Matrix: (Units=GPa)
#
#
# Indices 1 2 3 4 5 6 
#
# 1 97.9054 34.5819 25.5950 0.0000 3.6148 0.0000
# 2 34.5819 115.6835 6.5621 0.0010 1.7880 -0.0005
# 3 25.5950 6.5621 112.6759 0.0002 -13.6530 -0.0002
# 4 0.0000 0.0010 0.0002 26.6928 -0.0001 -5.4206
# 5 3.6148 1.7880 -13.6530 -0.0001 33.1973 0.0000
# 6 0.0000 -0.0005 -0.0002 -5.4206 0.0000 42.2183
#
#
#
# Elastic Compliance Matrix: (Units=1/GPa)
#
#
# Indices 1 2 3 4 5 6 
#
# 1 0.012276 -0.003471 -0.002869 0.000000 -0.002330 0.000000
# 2 -0.003471 0.009670 0.000219 0.000000 -0.000053 0.000000
# 3 -0.002869 0.000219 0.010051 0.000000 0.004434 0.000000
# 4 0.000000 0.000000 0.000000 0.038466 0.000000 0.004939
# 5 -0.002330 -0.000053 0.004434 0.000000 0.032203 0.000000
# 6 0.000000 0.000000 0.000000 0.004939 0.000000 0.024321
#
#
# Mechanical properties :
#
#
# Convention : Reuss Voigt Hill
#
# Bulk Modulus (GPa) = 50.61799 51.08252 50.85026
# Shear Modulus (GPa) = 34.29025 37.72342 36.00684
#
# Velocity S-wave (km/s) = 3.80842 3.99452 3.90258
# Velocity P-wave (km/s) = 6.38350 6.54841 6.46648
#
# Compressibility (1/GPa) = 0.01975582
#
# Stress axis : x y z
#
# Youngs Moduli (GPa) = 81.46043 103.40974 99.49046
#
# Poissons Ratio (x) = 0.35893 0.28541
# Poissons Ratio (y) = 0.28275 -0.02177
# Poissons Ratio (z) = 0.23368 -0.02263
#
# Static dielectric constant tensor:
#      x y z
#    x 1.966970 0.000000 0.027720 
#    y 0.000000 1.914620 0.000000 
#    z 0.027720 0.000000 1.821350 
# 
# From -- ./inp_files/176055.got.cif
#   From: 2010.05.17/outbox.cif.g08.bks.cpg/sg15_89_cif.got.tgz:176055.got - 2010.06.03 18:47:42.
