data_PCOD9304656
_publ_section_title
;
Structure prediction by ZEFSAII (Michael W. Deem and Ramdas Pophale) SiO2 
 PCOD9304656
Probable space group: C 2/C
;
_chemical_formula_sum "Si O2"
_cell_formula_units_Z 40
_cell_length_a 14.240509
_cell_length_b 9.773581
_cell_length_c 28.083995
_cell_angle_alpha 90.000000
_cell_angle_beta 150.354818
_cell_angle_gamma 90.000000
_cell_volume 1933.375739
_symmetry_space_group_name_H-M "C 2/C"
_symmetry_group_IT_number 15
_symmetry_cell_setting 'monoclinic'
loop_
_space_group_symop_operation_xyz
x,y,z
-x,y,1/2-z
-x,-y,-z
x,-y,1/2+z
1/2+x,1/2+y,z
1/2-x,1/2+y,1/2-z
1/2-x,1/2-y,-z
1/2+x,1/2-y,1/2+z
loop_
_atom_site_type_symbol
_atom_site_label
_atom_site_fract_x
_atom_site_fract_y
_atom_site_fract_z
Si Si1 0.200816 0.193267 0.312477
Si Si2 0.734884 0.316530 0.716139
Si Si3 0.187668 0.693314 0.422153
Si Si4 0.972948 0.045577 0.935121
Si Si5 0.270633 0.388873 0.149045
O O1 0.165200 0.182744 0.239819
O O2 0.356295 0.312768 0.384316
O O3 0.000000 0.224491 0.250000
O O4 0.280499 0.049729 0.369551
O O5 0.642361 0.444538 0.648964
O O6 0.697890 0.187080 0.664858
O O7 0.964087 0.325615 0.818523
O O8 0.250000 0.750000 0.500000
O O9 0.304529 0.554220 0.478489
O O10 0.262327 0.791561 0.411806
O O11 0.000000 0.000000 0.000000
O O12 0.500000 0.393733 0.250000
#
# Coordination Sequence:
#
# PCOD9304656 Si02
#       5
#     8   8   8   8   8
#     4  11  25  42  67  99 138 174 226 285 339 392
#     4  11  23  46  70  96 138 183 223 279 337 413
#     4  11  23  45  72  97 133 184 232 269 343 422
#     4  12  26  44  68 104 135 180 228 282 348 407
#     4   9  21  42  67  94 131 179 221 272 336 403
#
# _framework density 20.689201000000001
#
# number of rings (size 3 to 8) (size 9 to 14) (size 15 to 20)
#    0.000    1.200    4.000    1.200    8.400    0.800 
#    0.000    1.000    0.000    0.000    0.000    0.000 
#    0.000    0.000    0.000    0.000    0.000    0.000 
#
# Total GULP energy -111370.967749 kJ/mol
# GULP energy per Si atom -5568.548387 kJ/mol
# Density = 2.064211 g / cm^3
# Si number density = 20.689201 Si / 1000 Ang^3
#
#
#
# Elastic Constant Matrix: (Units=GPa)
#
#
# Indices 1 2 3 4 5 6 
#
# 1 126.0022 19.1782 34.7249 0.0000 -24.3748 0.0000
# 2 19.1782 84.0927 27.9737 0.0000 -14.1937 0.0000
# 3 34.7249 27.9737 87.6735 -0.0001 -31.4199 0.0000
# 4 0.0000 0.0000 -0.0001 34.3268 0.0000 -7.8032
# 5 -24.3748 -14.1937 -31.4199 0.0000 35.5453 0.0000
# 6 0.0000 0.0000 0.0000 -7.8032 0.0000 26.6243
#
#
#
# Elastic Compliance Matrix: (Units=1/GPa)
#
#
# Indices 1 2 3 4 5 6 
#
# 1 0.009443 -0.000767 -0.001880 0.000000 0.004507 0.000000
# 2 -0.000767 0.013494 -0.003307 0.000000 0.001939 0.000000
# 3 -0.001880 -0.003307 0.017960 0.000000 0.013266 0.000000
# 4 0.000000 0.000000 0.000000 0.031211 0.000000 0.009148
# 5 0.004507 0.001939 0.013266 0.000000 0.043724 0.000000
# 6 0.000000 0.000000 0.000000 0.009148 0.000000 0.040241
#
#
# Mechanical properties :
#
#
# Convention : Reuss Voigt Hill
#
# Bulk Modulus (GPa) = 34.49600 51.28024 42.88812
# Shear Modulus (GPa) = 28.14618 33.69205 30.91912
#
# Velocity S-wave (km/s) = 3.69240 4.03983 3.87001
# Velocity P-wave (km/s) = 5.90661 6.82642 6.38311
#
# Compressibility (1/GPa) = 0.02898887
#
# Stress axis : x y z
#
# Youngs Moduli (GPa) = 105.89609 74.10747 55.68036
#
# Poissons Ratio (x) = 0.05687 0.10468
# Poissons Ratio (y) = 0.08127 0.18411
# Poissons Ratio (z) = 0.19908 0.24504
#
# Static dielectric constant tensor:
#      x y z
#    x 1.721510 0.000000 0.020670 
#    y 0.000000 1.649810 0.000000 
#    z 0.020670 0.000000 1.689930 
# 
# From -- ./inp_files/150536.got.cif
#   From: 2010.05.17/outbox.cif.g08.bks.cpg/sg15_76_cif.got.tgz:150536.got - 2010.06.03 18:47:42.
