data_PCOD9304696
_publ_section_title
;
Structure prediction by ZEFSAII (Michael W. Deem and Ramdas Pophale) SiO2 
 PCOD9304696
Probable space group: C 2/C
;
_chemical_formula_sum "Si O2"
_cell_formula_units_Z 40
_cell_length_a 11.608889
_cell_length_b 15.098028
_cell_length_c 13.002430
_cell_angle_alpha 90.000000
_cell_angle_beta 50.457348
_cell_angle_gamma 90.000000
_cell_volume 1757.416735
_symmetry_space_group_name_H-M "C 2/C"
_symmetry_group_IT_number 15
_symmetry_cell_setting 'monoclinic'
loop_
_space_group_symop_operation_xyz
x,y,z
-x,y,1/2-z
-x,-y,-z
x,-y,1/2+z
1/2+x,1/2+y,z
1/2-x,1/2+y,1/2-z
1/2-x,1/2-y,-z
1/2+x,1/2-y,1/2+z
loop_
_atom_site_type_symbol
_atom_site_label
_atom_site_fract_x
_atom_site_fract_y
_atom_site_fract_z
Si Si1 0.931353 0.160253 0.680028
Si Si2 0.592024 0.873588 0.381642
Si Si3 0.602931 0.487886 0.589298
Si Si4 0.548581 0.957967 0.616841
Si Si5 0.896513 0.784531 0.976743
O O1 0.766647 0.128475 0.801906
O O2 0.901102 0.221044 0.598543
O O3 0.000000 0.193056 0.750000
O O4 0.031773 0.077690 0.582576
O O5 0.518501 0.900571 0.532427
O O6 0.530243 0.782144 0.371558
O O7 0.554024 0.954853 0.329700
O O8 0.500000 0.484583 0.750000
O O9 0.780118 0.508785 0.489137
O O10 0.587931 0.388374 0.555954
O O11 0.500000 0.911472 0.750000
O O12 0.750000 0.750000 0.000000
#
# Coordination Sequence:
#
# PCOD9304696 Si02
#       5
#     8   8   8   8   8
#     4  11  25  50  72 103 158 198 249 307 380 453
#     4  11  25  45  72 111 147 187 255 312 370 446
#     4  11  23  48  74 108 150 198 249 299 380 454
#     4  11  23  45  76 102 147 198 246 300 373 443
#     4  12  27  43  76 113 146 193 253 319 371 438
#
# _framework density 22.760681000000002
#
# number of rings (size 3 to 8) (size 9 to 14) (size 15 to 20)
#    0.000    0.800    6.000    1.800    2.800    1.600 
#    3.600    0.000    0.000    0.000    0.000    0.000 
#    0.000    0.000    0.000    0.000    0.000    0.000 
#
# Total GULP energy -111516.534194 kJ/mol
# GULP energy per Si atom -5575.826710 kJ/mol
# Density = 2.270888 g / cm^3
# Si number density = 22.760681 Si / 1000 Ang^3
#
#
#
# Elastic Constant Matrix: (Units=GPa)
#
#
# Indices 1 2 3 4 5 6 
#
# 1 160.1402 46.4092 37.2806 0.0000 -4.2446 0.0000
# 2 46.4092 91.9983 5.2136 0.0000 10.0409 0.0000
# 3 37.2806 5.2136 47.3319 0.0000 3.9264 0.0000
# 4 0.0000 0.0000 0.0000 21.0448 0.0000 -4.6973
# 5 -4.2446 10.0409 3.9264 0.0000 37.2982 0.0000
# 6 0.0000 0.0000 0.0000 -4.6973 0.0000 23.9568
#
#
#
# Elastic Compliance Matrix: (Units=1/GPa)
#
#
# Indices 1 2 3 4 5 6 
#
# 1 0.009316 -0.004631 -0.007081 0.000000 0.003052 0.000000
# 2 -0.004631 0.013548 0.002524 0.000000 -0.004440 0.000000
# 3 -0.007081 0.002524 0.026784 0.000000 -0.004305 0.000000
# 4 0.000000 0.000000 0.000000 0.049692 0.000000 0.009743
# 5 0.003052 -0.004440 -0.004305 0.000000 0.028807 0.000000
# 6 0.000000 0.000000 0.000000 0.009743 0.000000 0.043652
#
#
# Mechanical properties :
#
#
# Convention : Reuss Voigt Hill
#
# Bulk Modulus (GPa) = 31.97872 53.03079 42.50476
# Shear Modulus (GPa) = 24.92539 30.49776 27.71158
#
# Velocity S-wave (km/s) = 3.31283 3.66448 3.49308
# Velocity P-wave (km/s) = 5.35851 6.42296 5.91473
#
# Compressibility (1/GPa) = 0.03127079
#
# Stress axis : x y z
#
# Youngs Moduli (GPa) = 107.34194 73.81351 37.33632
#
# Poissons Ratio (x) = 0.34186 0.26437
# Poissons Ratio (y) = 0.49714 -0.09423
# Poissons Ratio (z) = 0.76006 -0.18630
#
# Static dielectric constant tensor:
#      x y z
#    x 1.915150 0.000000 0.121710 
#    y 0.000000 1.943560 0.000000 
#    z 0.121710 0.000000 1.929500 
# 
# From -- ./inp_files/143286.got.cif
#   From: 2010.05.17/outbox.cif.g08.bks.cpg/sg15_72_cif.got.tgz:143286.got - 2010.06.03 18:47:42.
