data_PCOD9304942
_publ_section_title
;
Structure prediction by ZEFSAII (Michael W. Deem and Ramdas Pophale) SiO2 
 PCOD9304942
Probable space group: C 2/C
;
_chemical_formula_sum "Si O2"
_cell_formula_units_Z 48
_cell_length_a 26.758762
_cell_length_b 9.053542
_cell_length_c 10.295336
_cell_angle_alpha 90.000000
_cell_angle_beta 70.740067
_cell_angle_gamma 90.000000
_cell_volume 2354.570558
_symmetry_space_group_name_H-M "C 2/C"
_symmetry_group_IT_number 15
_symmetry_cell_setting 'monoclinic'
loop_
_space_group_symop_operation_xyz
x,y,z
-x,y,1/2-z
-x,-y,-z
x,-y,1/2+z
1/2+x,1/2+y,z
1/2-x,1/2+y,1/2-z
1/2-x,1/2-y,-z
1/2+x,1/2-y,1/2+z
loop_
_atom_site_type_symbol
_atom_site_label
_atom_site_fract_x
_atom_site_fract_y
_atom_site_fract_z
Si Si1 0.469212 0.088842 0.911034
Si Si2 0.812919 0.261979 0.439975
Si Si3 0.383776 0.732359 0.619819
Si Si4 0.366474 0.050505 0.375167
Si Si5 0.316250 0.473456 0.741511
Si Si6 0.276338 0.195897 0.610103
O O1 0.500000 0.127383 0.750000
O O2 0.421461 0.989792 0.895606
O O3 0.439544 0.226690 0.005730
O O4 0.500000 0.000000 0.000000
O O5 0.750000 0.250000 0.500000
O O6 0.838620 0.282688 0.557648
O O7 0.837153 0.403231 0.343531
O O8 0.829385 0.105201 0.366573
O O9 0.376151 0.827763 0.756475
O O10 0.368251 0.562375 0.654835
O O11 0.327456 0.108906 0.518865
O O12 0.294946 0.336969 0.675347
O O13 0.267757 0.589451 0.789657
O O14 0.250000 0.250000 0.500000
#
# Coordination Sequence:
#
# PCOD9304942 Si02
#       6
#     8   8   8   8   8   8
#     4  11  24  48  80 111 136 183 253 321 364 429
#     4  11  24  38  63 100 145 193 231 285 346 439
#     4  11  25  43  65 104 137 186 241 297 368 431
#     4  11  25  42  71 104 142 188 247 288 375 430
#     4  12  26  40  65  99 153 193 241 284 363 433
#     4  12  26  41  64 100 151 195 234 290 349 450
#
# _framework density 20.385884000000001
#
# number of rings (size 3 to 8) (size 9 to 14) (size 15 to 20)
#    0.000    0.667    5.000    2.000    9.333    0.000 
#    0.000    0.000    0.000   10.000    0.000    0.000 
#    0.000    0.000    0.000    0.000    0.000    0.000 
#
# Total GULP energy -134017.972891 kJ/mol
# GULP energy per Si atom -5584.082204 kJ/mol
# Density = 2.033948 g / cm^3
# Si number density = 20.385884 Si / 1000 Ang^3
#
#
#
# Elastic Constant Matrix: (Units=GPa)
#
#
# Indices 1 2 3 4 5 6 
#
# 1 111.5402 45.5009 44.5555 0.0000 -3.5289 0.0000
# 2 45.5009 136.5819 62.0309 0.0000 -7.7875 0.0000
# 3 44.5555 62.0309 121.5541 0.0000 -17.4114 0.0000
# 4 0.0000 0.0000 0.0000 56.5492 0.0000 -1.4135
# 5 -3.5289 -7.7875 -17.4114 0.0000 36.8587 0.0000
# 6 0.0000 0.0000 0.0000 -1.4135 0.0000 35.0371
#
#
#
# Elastic Compliance Matrix: (Units=1/GPa)
#
#
# Indices 1 2 3 4 5 6 
#
# 1 0.011102 -0.002400 -0.002966 0.000000 -0.000845 0.000000
# 2 -0.002400 0.010052 -0.004268 0.000000 -0.000122 0.000000
# 3 -0.002966 -0.004268 0.012144 0.000000 0.004551 0.000000
# 4 0.000000 0.000000 0.000000 0.017702 0.000000 0.000714
# 5 -0.000845 -0.000122 0.004551 0.000000 0.029174 0.000000
# 6 0.000000 0.000000 0.000000 0.000714 0.000000 0.028570
#
#
# Mechanical properties :
#
#
# Convention : Reuss Voigt Hill
#
# Bulk Modulus (GPa) = 71.26809 74.87232 73.07020
# Shear Modulus (GPa) = 37.68246 40.19494 38.93870
#
# Velocity S-wave (km/s) = 4.30403 4.44521 4.37519
# Velocity P-wave (km/s) = 7.72884 7.94693 7.83865
#
# Compressibility (1/GPa) = 0.01403152
#
# Stress axis : x y z
#
# Youngs Moduli (GPa) = 90.07091 99.47898 82.34732
#
# Poissons Ratio (x) = 0.23873 0.24424
# Poissons Ratio (y) = 0.21615 0.35143
# Poissons Ratio (z) = 0.26715 0.42455
#
# Static dielectric constant tensor:
#      x y z
#    x 1.755340 0.000000 -0.108630 
#    y 0.000000 1.774580 0.000000 
#    z -0.108630 0.000000 2.251410 
# 
# From -- ./inp_files/121386.got.cif
#   From: 2010.05.17/outbox.cif.g08.bks.cpg/sg15_61_cif.got.tgz:121386.got - 2010.06.03 18:47:42.
