data_PCOD9304106
_publ_section_title
;
Structure prediction by ZEFSAII (Michael W. Deem and Ramdas Pophale) SiO2 
 PCOD9304106
Probable space group: C 2/C
;
_chemical_formula_sum "Si O2"
_cell_formula_units_Z 32
_cell_length_a 15.305096
_cell_length_b 8.008336
_cell_length_c 11.489435
_cell_angle_alpha 90.000000
_cell_angle_beta 87.380745
_cell_angle_gamma 90.000000
_cell_volume 1406.769871
_symmetry_space_group_name_H-M "C 2/C"
_symmetry_group_IT_number 15
_symmetry_cell_setting 'monoclinic'
loop_
_space_group_symop_operation_xyz
x,y,z
-x,y,1/2-z
-x,-y,-z
x,-y,1/2+z
1/2+x,1/2+y,z
1/2-x,1/2+y,1/2-z
1/2-x,1/2-y,-z
1/2+x,1/2-y,1/2+z
loop_
_atom_site_type_symbol
_atom_site_label
_atom_site_fract_x
_atom_site_fract_y
_atom_site_fract_z
Si Si1 0.412597 0.972479 0.432390
Si Si2 0.153450 0.298543 0.756533
Si Si3 0.244642 0.966338 0.085052
Si Si4 0.584699 0.615134 0.976183
O O1 0.406860 0.771423 0.434944
O O2 0.500000 0.000000 0.500000
O O3 0.400487 0.059405 0.308892
O O4 0.335384 0.057861 0.512531
O O5 0.202639 0.177006 0.665095
O O6 0.228149 0.383571 0.830662
O O7 0.091013 0.195356 0.847611
O O8 0.172644 0.012652 0.993860
O O9 0.500000 0.500000 0.000000
#
# Coordination Sequence:
#
# PCOD9304106 Si02
#       4
#     8   8   8   8
#     4  11  24  42  67 100 136 178 232 288 346 419
#     4  11  23  44  69 100 142 186 228 294 355 409
#     4  11  23  42  68 100 138 184 232 283 348 424
#     4  11  25  45  68 101 139 184 239 288 346 425
#
# _framework density 22.747146000000001
#
# number of rings (size 3 to 8) (size 9 to 14) (size 15 to 20)
#    0.000    1.000    0.000    8.250    0.000   11.000 
#    0.000    5.000    0.000    0.000    0.000    0.000 
#    0.000    0.000    0.000    0.000    0.000    0.000 
#
# Total GULP energy -89491.769610 kJ/mol
# GULP energy per Si atom -5593.235601 kJ/mol
# Density = 2.269537 g / cm^3
# Si number density = 22.747146 Si / 1000 Ang^3
#
#
#
# Elastic Constant Matrix: (Units=GPa)
#
#
# Indices 1 2 3 4 5 6 
#
# 1 174.5550 46.1098 61.8030 0.0000 2.1407 0.0000
# 2 46.1098 102.5521 65.2186 0.0000 -23.1948 0.0000
# 3 61.8030 65.2186 122.4759 0.0000 2.6022 0.0000
# 4 0.0000 0.0000 0.0000 59.2073 0.0000 -3.6914
# 5 2.1407 -23.1948 2.6022 0.0000 26.4040 0.0000
# 6 0.0000 0.0000 0.0000 -3.6914 0.0000 35.3234
#
#
#
# Elastic Compliance Matrix: (Units=1/GPa)
#
#
# Indices 1 2 3 4 5 6 
#
# 1 0.007195 -0.002239 -0.002389 0.000000 -0.002315 0.000000
# 2 -0.002239 0.022972 -0.011560 0.000000 0.021501 0.000000
# 3 -0.002389 -0.011560 0.015771 0.000000 -0.011515 0.000000
# 4 0.000000 0.000000 0.000000 0.017001 0.000000 0.001777
# 5 -0.002315 0.021501 -0.011515 0.000000 0.058083 0.000000
# 6 0.000000 0.000000 0.000000 0.001777 0.000000 0.028496
#
#
# Mechanical properties :
#
#
# Convention : Reuss Voigt Hill
#
# Bulk Modulus (GPa) = 73.73602 82.87176 78.30389
# Shear Modulus (GPa) = 26.82210 39.28371 33.05290
#
# Velocity S-wave (km/s) = 3.43759 4.16019 3.81603
# Velocity P-wave (km/s) = 6.94564 7.71927 7.34265
#
# Compressibility (1/GPa) = 0.01356189
#
# Stress axis : x y z
#
# Youngs Moduli (GPa) = 138.99397 43.53045 63.40907
#
# Poissons Ratio (x) = 0.09747 0.15148
# Poissons Ratio (y) = 0.31123 0.73299
# Poissons Ratio (z) = 0.33205 0.50320
#
# Static dielectric constant tensor:
#      x y z
#    x 1.831720 0.000000 -0.043380 
#    y 0.000000 1.975590 0.000000 
#    z -0.043380 0.000000 1.923560 
# 
# From -- ./inp_files/93218.got.cif
#   From: 2010.05.17/outbox.cif.g08.bks.cpg/sg15_47_cif.got.tgz:93218.got - 2010.06.03 18:47:42.
