data_PCOD9304062
_publ_section_title
;
Structure prediction by ZEFSAII (Michael W. Deem and Ramdas Pophale) SiO2 
 PCOD9304062
Probable space group: C 2/C
;
_chemical_formula_sum "Si O2"
_cell_formula_units_Z 48
_cell_length_a 14.705449
_cell_length_b 28.488315
_cell_length_c 8.710013
_cell_angle_alpha 90.000000
_cell_angle_beta 42.866843
_cell_angle_gamma 90.000000
_cell_volume 2482.345940
_symmetry_space_group_name_H-M "C 2/C"
_symmetry_group_IT_number 15
_symmetry_cell_setting 'monoclinic'
loop_
_space_group_symop_operation_xyz
x,y,z
-x,y,1/2-z
-x,-y,-z
x,-y,1/2+z
1/2+x,1/2+y,z
1/2-x,1/2+y,1/2-z
1/2-x,1/2-y,-z
1/2+x,1/2-y,1/2+z
loop_
_atom_site_type_symbol
_atom_site_label
_atom_site_fract_x
_atom_site_fract_y
_atom_site_fract_z
Si Si1 0.900803 0.617489 0.757031
Si Si2 0.605840 0.890430 0.730035
Si Si3 0.358864 0.442891 0.995648
Si Si4 0.141695 0.280181 0.042539
Si Si5 0.865707 0.286055 0.818550
Si Si6 0.855796 0.047673 0.868611
O O1 0.767017 0.589829 0.885806
O O2 0.861805 0.667648 0.878666
O O3 0.000000 0.590403 0.750000
O O4 0.003424 0.624050 0.490527
O O5 0.500000 0.915835 0.750000
O O6 0.658291 0.840273 0.602843
O O7 0.734262 0.922661 0.591449
O O8 0.360711 0.448647 0.177775
O O9 0.500000 0.424936 0.750000
O O10 0.340216 0.493873 0.941030
O O11 0.000000 0.256378 0.250000
O O12 0.250000 0.250000 0.000000
O O13 0.141035 0.284824 0.859250
O O14 0.000000 0.273011 0.750000
O O15 0.750000 0.250000 0.000000
O O16 0.000000 0.064396 0.750000
#
# Coordination Sequence:
#
# PCOD9304062 Si02
#       6
#     8   8   8   8   8   8
#     4  11  24  43  67  96 128 171 215 269 322 380
#     4  11  23  44  66  94 132 167 218 267 323 384
#     4  11  25  43  65  96 132 171 216 265 321 387
#     4  11  23  42  65  94 127 167 213 264 322 382
#     4  11  24  41  66  93 128 168 211 265 322 384
#     4  11  25  42  67  95 131 173 214 266 322 385
#
# _framework density 19.336546999999999
#
# number of rings (size 3 to 8) (size 9 to 14) (size 15 to 20)
#    0.000    1.000    5.000    3.000    7.000    2.667 
#    0.000    0.000    0.000    0.000    0.000    0.000 
#    0.000    0.000    0.000    0.000    0.000    0.000 
#
# Total GULP energy -133678.178740 kJ/mol
# GULP energy per Si atom -5569.924114 kJ/mol
# Density = 1.929254 g / cm^3
# Si number density = 19.336547 Si / 1000 Ang^3
#
#
#
# Elastic Constant Matrix: (Units=GPa)
#
#
# Indices 1 2 3 4 5 6 
#
# 1 186.7238 71.5705 77.1524 0.0000 -20.4351 0.0000
# 2 71.5705 77.4899 66.9988 0.0000 -27.9400 0.0000
# 3 77.1524 66.9988 132.0842 0.0000 -13.3301 0.0000
# 4 0.0000 0.0000 0.0000 11.1917 0.0000 -11.9913
# 5 -20.4351 -27.9400 -13.3301 0.0000 51.9918 0.0000
# 6 0.0000 0.0000 0.0000 -11.9913 0.0000 39.1902
#
#
#
# Elastic Compliance Matrix: (Units=1/GPa)
#
#
# Indices 1 2 3 4 5 6 
#
# 1 0.008530 -0.006683 -0.001660 0.000000 -0.000664 0.000000
# 2 -0.006683 0.034097 -0.012121 0.000000 0.012589 0.000000
# 3 -0.001660 -0.012121 0.014336 0.000000 -0.003490 0.000000
# 4 0.000000 0.000000 0.000000 0.132932 0.000000 0.040674
# 5 -0.000664 0.012589 -0.003490 0.000000 0.024843 0.000000
# 6 0.000000 0.000000 0.000000 0.040674 0.000000 0.037962
#
#
# Mechanical properties :
#
#
# Convention : Reuss Voigt Hill
#
# Bulk Modulus (GPa) = 62.36168 91.97128 77.16648
# Shear Modulus (GPa) = 16.72390 32.51315 24.61852
#
# Velocity S-wave (km/s) = 2.94408 4.10498 3.57201
# Velocity P-wave (km/s) = 6.62401 8.37463 7.55023
#
# Compressibility (1/GPa) = 0.01603549
#
# Stress axis : x y z
#
# Youngs Moduli (GPa) = 117.23093 29.32850 69.75211
#
# Poissons Ratio (x) = 0.19600 0.11577
# Poissons Ratio (y) = 0.78346 0.84547
# Poissons Ratio (z) = 0.19457 0.35549
#
# Static dielectric constant tensor:
#      x y z
#    x 4.523850 0.000000 2.537740 
#    y 0.000000 1.649050 0.000000 
#    z 2.537740 0.000000 3.925960 
# 
# From -- ./inp_files/43848.got.cif
#   From: 2010.05.17/outbox.cif.g08.bks.cpg/sg15_22_cif.got.tgz:43848.got - 2010.06.03 18:47:42.
