data_PCOD9304767
_publ_section_title
;
Structure prediction by ZEFSAII (Michael W. Deem and Ramdas Pophale) SiO2 
 PCOD9304767
Probable space group: C 2/C
;
_chemical_formula_sum "Si O2"
_cell_formula_units_Z 32
_cell_length_a 17.049621
_cell_length_b 6.881650
_cell_length_c 14.302854
_cell_angle_alpha 90.000000
_cell_angle_beta 125.145310
_cell_angle_gamma 90.000000
_cell_volume 1372.212025
_symmetry_space_group_name_H-M "C 2/C"
_symmetry_group_IT_number 15
_symmetry_cell_setting 'monoclinic'
loop_
_space_group_symop_operation_xyz
x,y,z
-x,y,1/2-z
-x,-y,-z
x,-y,1/2+z
1/2+x,1/2+y,z
1/2-x,1/2+y,1/2-z
1/2-x,1/2-y,-z
1/2+x,1/2-y,1/2+z
loop_
_atom_site_type_symbol
_atom_site_label
_atom_site_fract_x
_atom_site_fract_y
_atom_site_fract_z
Si Si1 0.778407 0.751929 0.677425
Si Si2 0.403986 0.532439 0.992382
Si Si3 0.420122 0.123379 0.625169
Si Si4 0.330968 0.129226 0.914302
O O1 0.671573 0.666607 0.615588
O O2 0.823703 0.644248 0.619779
O O3 0.838382 0.692536 0.810389
O O4 0.760403 0.981771 0.647558
O O5 0.343563 0.337867 0.972102
O O6 0.500000 0.500000 0.000000
O O7 0.436916 0.656212 0.104046
O O8 0.500000 0.049228 0.750000
O O9 0.409154 0.995166 0.525158
#
# Coordination Sequence:
#
# PCOD9304767 Si02
#       4
#     8   8   8   8
#     4  11  24  44  70 107 143 185 241 297 358 436
#     4  11  24  44  70  97 138 189 239 294 357 420
#     4  11  27  45  69 108 148 182 245 298 354 437
#     4  11  23  46  73 101 141 190 233 293 363 422
#
# _framework density 23.320011999999998
#
# number of rings (size 3 to 8) (size 9 to 14) (size 15 to 20)
#    0.000    1.000    2.500    4.500    0.000   14.000 
#    0.000    0.000    0.000    0.000    0.000    0.000 
#    0.000    0.000    0.000    0.000    0.000    0.000 
#
# Total GULP energy -89166.308319 kJ/mol
# GULP energy per Si atom -5572.894270 kJ/mol
# Density = 2.326693 g / cm^3
# Si number density = 23.320012 Si / 1000 Ang^3
#
#
#
# Elastic Constant Matrix: (Units=GPa)
#
#
# Indices 1 2 3 4 5 6 
#
# 1 89.8534 10.7356 22.6903 0.0000 2.4732 0.0000
# 2 10.7356 134.4834 36.5935 0.0000 0.0862 0.0000
# 3 22.6903 36.5935 147.4932 0.0000 10.7136 0.0000
# 4 0.0000 0.0000 0.0000 42.3227 0.0000 -0.2030
# 5 2.4732 0.0862 10.7136 0.0000 17.4257 0.0000
# 6 0.0000 0.0000 0.0000 -0.2030 0.0000 17.7881
#
#
#
# Elastic Compliance Matrix: (Units=1/GPa)
#
#
# Indices 1 2 3 4 5 6 
#
# 1 0.011614 -0.000486 -0.001619 0.000000 -0.000651 0.000000
# 2 -0.000486 0.008020 -0.002007 0.000000 0.001263 0.000000
# 3 -0.001619 -0.002007 0.007861 0.000000 -0.004593 0.000000
# 4 0.000000 0.000000 0.000000 0.023629 0.000000 0.000270
# 5 -0.000651 0.001263 -0.004593 0.000000 0.060297 0.000000
# 6 0.000000 0.000000 0.000000 0.000270 0.000000 0.056220
#
#
# Mechanical properties :
#
#
# Convention : Reuss Voigt Hill
#
# Bulk Modulus (GPa) = 51.89153 56.87432 54.38292
# Shear Modulus (GPa) = 27.42913 35.62800 31.52856
#
# Velocity S-wave (km/s) = 3.43331 3.91293 3.68094
# Velocity P-wave (km/s) = 6.16580 6.69748 6.43713
#
# Compressibility (1/GPa) = 0.01927097
#
# Stress axis : x y z
#
# Youngs Moduli (GPa) = 86.10277 124.68978 127.21812
#
# Poissons Ratio (x) = 0.06063 0.20594
# Poissons Ratio (y) = 0.04187 0.25529
# Poissons Ratio (z) = 0.13938 0.25022
#
# Static dielectric constant tensor:
#      x y z
#    x 1.909650 0.000000 0.003190 
#    y 0.000000 1.953930 0.000000 
#    z 0.003190 0.000000 1.901370 
# 
# From -- ./inp_files/165170.got.cif
#   From: 2010.05.17/outbox.cif.g08.bks.cpg/sg15_83_cif.got.tgz:165170.got - 2010.06.03 18:47:42.
