data_PCOD9304093
_publ_section_title
;
Structure prediction by ZEFSAII (Michael W. Deem and Ramdas Pophale) SiO2 
 PCOD9304093
Probable space group: C 2/C
;
_chemical_formula_sum "Si O2"
_cell_formula_units_Z 44
_cell_length_a 5.432529
_cell_length_b 19.362371
_cell_length_c 19.705260
_cell_angle_alpha 90.000000
_cell_angle_beta 119.171314
_cell_angle_gamma 90.000000
_cell_volume 1809.837936
_symmetry_space_group_name_H-M "C 2/C"
_symmetry_group_IT_number 15
_symmetry_cell_setting 'monoclinic'
loop_
_space_group_symop_operation_xyz
x,y,z
-x,y,1/2-z
-x,-y,-z
x,-y,1/2+z
1/2+x,1/2+y,z
1/2-x,1/2+y,1/2-z
1/2-x,1/2-y,-z
1/2+x,1/2-y,1/2+z
loop_
_atom_site_type_symbol
_atom_site_label
_atom_site_fract_x
_atom_site_fract_y
_atom_site_fract_z
Si Si1 0.340363 0.376703 0.295356
Si Si2 0.336405 0.813017 0.964756
Si Si3 0.500000 0.906790 0.750000
Si Si4 0.720663 0.569926 0.962059
Si Si5 0.327487 0.220955 0.315559
Si Si6 0.537913 0.435968 0.594293
O O1 0.500000 0.407630 0.250000
O O2 0.450937 0.404771 0.382412
O O3 0.431321 0.295921 0.306984
O O4 0.000000 0.382205 0.250000
O O5 0.432369 0.782141 0.906840
O O6 0.065740 0.858429 0.907991
O O7 0.250000 0.750000 0.000000
O O8 0.549320 0.870831 0.021975
O O9 0.585628 0.852548 0.703492
O O10 0.257015 0.951655 0.683319
O O11 0.722659 0.489752 0.938106
O O12 0.665041 0.564702 0.035405
O O13 0.000000 0.224429 0.250000
#
# Coordination Sequence:
#
# PCOD9304093 Si02
#       6
#     8   8   4   8   8   8
#     4  11  27  47  73 110 154 202 257 325 391 467
#     4  12  26  43  76 110 142 197 254 323 397 471
#     4  12  22  44  74 102 140 194 252 318 392 466
#     4  11  27  48  70 104 152 199 256 319 393 476
#     4  11  23  42  67 104 146 185 248 315 382 455
#     4  11  26  47  72 104 150 196 256 319 393 478
#
# _framework density 24.311567
#
# number of rings (size 3 to 8) (size 9 to 14) (size 15 to 20)
#    0.000    0.727    4.545    1.636   11.455    1.455 
#    3.273    0.000    0.000    0.000    0.000    0.000 
#    0.000    0.000    0.000    0.000    0.000    0.000 
#
# Total GULP energy -122813.226513 kJ/mol
# GULP energy per Si atom -5582.419387 kJ/mol
# Density = 2.425623 g / cm^3
# Si number density = 24.311567 Si / 1000 Ang^3
#
#
#
# Elastic Constant Matrix: (Units=GPa)
#
#
# Indices 1 2 3 4 5 6 
#
# 1 56.3740 26.9951 39.4446 0.0000 -4.5253 0.0000
# 2 26.9951 129.9523 44.1442 0.0000 8.8328 0.0000
# 3 39.4446 44.1442 159.6252 0.0000 11.5702 0.0000
# 4 0.0000 0.0000 0.0000 75.3235 0.0000 -121.9209
# 5 -4.5253 8.8328 11.5702 0.0000 34.9486 0.0000
# 6 0.0000 0.0000 0.0000 -121.9209 0.0000 402.5699
#
#
#
# Elastic Compliance Matrix: (Units=1/GPa)
#
#
# Indices 1 2 3 4 5 6 
#
# 1 0.023549 -0.003489 -0.005266 0.000000 0.005674 0.000000
# 2 -0.003489 0.009078 -0.001485 0.000000 -0.002254 0.000000
# 3 -0.005266 -0.001485 0.008195 0.000000 -0.003020 0.000000
# 4 0.000000 0.000000 0.000000 0.026042 0.000000 0.007887
# 5 0.005674 -0.002254 -0.003020 0.000000 0.030918 0.000000
# 6 0.000000 0.000000 0.000000 0.007887 0.000000 0.004873
#
#
# Mechanical properties :
#
#
# Convention : Reuss Voigt Hill
#
# Bulk Modulus (GPa) = 49.15605 63.01326 56.08465
# Shear Modulus (GPa) = 38.48681 118.25957 78.37319
#
# Velocity S-wave (km/s) = 3.98309 6.98204 5.68392
# Velocity P-wave (km/s) = 6.43556 9.53802 8.13604
#
# Compressibility (1/GPa) = 0.02034338
#
# Stress axis : x y z
#
# Youngs Moduli (GPa) = 42.46432 110.16249 122.02020
#
# Poissons Ratio (x) = 0.38434 0.64251
# Poissons Ratio (y) = 0.14815 0.18118
# Poissons Ratio (z) = 0.22360 0.16357
#
# Static dielectric constant tensor:
#      x y z
#    x 1.957920 0.000000 -0.081730 
#    y 0.000000 1.959750 0.000000 
#    z -0.081730 0.000000 2.020120 
# 
# From -- ./inp_files/227425.got.cif
#   From: 2010.05.17/outbox.cif.g08.bks.cpg/sg15_114_cif.got.tgz:227425.got - 2010.06.03 18:47:42.
