data_PCOD9304955
_publ_section_title
;
Structure prediction by ZEFSAII (Michael W. Deem and Ramdas Pophale) SiO2 
 PCOD9304955
Probable space group: C 2/C
;
_chemical_formula_sum "Si O2"
_cell_formula_units_Z 40
_cell_length_a 14.116744
_cell_length_b 18.321990
_cell_length_c 9.062935
_cell_angle_alpha 90.000000
_cell_angle_beta 141.628590
_cell_angle_gamma 90.000000
_cell_volume 1455.115361
_symmetry_space_group_name_H-M "C 2/C"
_symmetry_group_IT_number 15
_symmetry_cell_setting 'monoclinic'
loop_
_space_group_symop_operation_xyz
x,y,z
-x,y,1/2-z
-x,-y,-z
x,-y,1/2+z
1/2+x,1/2+y,z
1/2-x,1/2+y,1/2-z
1/2-x,1/2-y,-z
1/2+x,1/2-y,1/2+z
loop_
_atom_site_type_symbol
_atom_site_label
_atom_site_fract_x
_atom_site_fract_y
_atom_site_fract_z
Si Si1 0.058397 0.100472 0.020489
Si Si2 0.000000 0.810720 0.750000
Si Si3 0.051185 0.351354 0.000173
Si Si4 0.290746 0.229780 0.272840
Si Si5 0.747156 0.525088 0.873720
Si Si6 0.000000 0.578926 0.750000
O O1 0.167188 0.165727 0.103738
O O2 0.028609 0.133442 0.149683
O O3 0.160182 0.026971 0.150379
O O4 0.894996 0.076549 0.751438
O O5 0.874558 0.754111 0.530780
O O6 0.197651 0.303474 0.148508
O O7 0.110015 0.426455 0.004007
O O8 0.992872 0.375551 0.091044
O O9 0.915611 0.293771 0.804702
O O10 0.841987 0.465504 0.081996
#
# Coordination Sequence:
#
# PCOD9304955 Si02
#       6
#     8   4   8   8   8   4
#     4  11  24  39  62  98 142 165 210 262 342 393
#     4  12  21  38  68 108 131 160 208 280 349 402
#     4  12  24  42  65 100 136 166 218 269 336 391
#     4  12  23  36  67  99 134 165 204 280 341 382
#     4  11  25  44  60  95 138 182 215 263 322 399
#     4  12  25  40  70  94 135 182 220 264 315 412
#
# _framework density 27.489229000000002
#
# number of rings (size 3 to 8) (size 9 to 14) (size 15 to 20)
#    0.000    0.400    6.000    3.000    0.000    0.000 
#    0.000    0.000    0.000    4.800    0.000    0.000 
#    0.000    0.000    0.000    0.000    0.000    0.000 
#
# Total GULP energy -111406.143754 kJ/mol
# GULP energy per Si atom -5570.307188 kJ/mol
# Density = 2.742666 g / cm^3
# Si number density = 27.489229 Si / 1000 Ang^3
#
#
#
# Elastic Constant Matrix: (Units=GPa)
#
#
# Indices 1 2 3 4 5 6 
#
# 1 85.4999 34.4436 55.8971 0.0000 19.7548 0.0000
# 2 34.4436 133.3743 46.8479 0.0000 9.8157 0.0000
# 3 55.8971 46.8479 152.4769 0.0000 -0.1274 0.0000
# 4 0.0000 0.0000 0.0000 47.3130 0.0000 28.6850
# 5 19.7548 9.8157 -0.1274 0.0000 28.2578 0.0000
# 6 0.0000 0.0000 0.0000 28.6850 0.0000 42.5513
#
#
#
# Elastic Compliance Matrix: (Units=1/GPa)
#
#
# Indices 1 2 3 4 5 6 
#
# 1 0.019919 -0.001787 -0.006764 0.000000 -0.013335 0.000000
# 2 -0.001787 0.008815 -0.002055 0.000000 -0.001822 0.000000
# 3 -0.006764 -0.002055 0.009674 0.000000 0.005486 0.000000
# 4 0.000000 0.000000 0.000000 0.035745 0.000000 -0.024097
# 5 -0.013335 -0.001822 0.005486 0.000000 0.045369 0.000000
# 6 0.000000 0.000000 0.000000 -0.024097 0.000000 0.039745
#
#
# Mechanical properties :
#
#
# Convention : Reuss Voigt Hill
#
# Bulk Modulus (GPa) = 58.15225 71.74759 64.94992
# Shear Modulus (GPa) = 26.85115 39.23525 33.04320
#
# Velocity S-wave (km/s) = 3.12875 3.78205 3.47081
# Velocity P-wave (km/s) = 5.85257 6.72524 6.30402
#
# Compressibility (1/GPa) = 0.01719624
#
# Stress axis : x y z
#
# Youngs Moduli (GPa) = 50.20306 113.44307 103.36863
#
# Poissons Ratio (x) = 0.20268 0.69923
# Poissons Ratio (y) = 0.08970 0.21241
# Poissons Ratio (z) = 0.33959 0.23312
#
# Static dielectric constant tensor:
#      x y z
#    x 2.179420 0.000000 -0.019040 
#    y 0.000000 2.115430 0.000000 
#    z -0.019040 0.000000 2.470880 
# 
# From -- ./inp_files/106921.got.cif
#   From: 2010.05.17/outbox.cif.g08.bks.cpg/sg15_54_cif.got.tgz:106921.got - 2010.06.03 18:47:42.
