data_PCOD9304745
_publ_section_title
;
Structure prediction by ZEFSAII (Michael W. Deem and Ramdas Pophale) SiO2 
 PCOD9304745
Probable space group: C 2/C
;
_chemical_formula_sum "Si O2"
_cell_formula_units_Z 48
_cell_length_a 27.864197
_cell_length_b 5.184717
_cell_length_c 16.641193
_cell_angle_alpha 90.000000
_cell_angle_beta 117.517834
_cell_angle_gamma 90.000000
_cell_volume 2132.134378
_symmetry_space_group_name_H-M "C 2/C"
_symmetry_group_IT_number 15
_symmetry_cell_setting 'monoclinic'
loop_
_space_group_symop_operation_xyz
x,y,z
-x,y,1/2-z
-x,-y,-z
x,-y,1/2+z
1/2+x,1/2+y,z
1/2-x,1/2+y,1/2-z
1/2-x,1/2-y,-z
1/2+x,1/2-y,1/2+z
loop_
_atom_site_type_symbol
_atom_site_label
_atom_site_fract_x
_atom_site_fract_y
_atom_site_fract_z
Si Si1 0.681666 0.308330 0.138794
Si Si2 0.503259 0.752718 0.058690
Si Si3 0.118203 0.858582 0.709512
Si Si4 0.361197 0.662430 0.626139
Si Si5 0.711280 0.039838 0.326335
Si Si6 0.390907 0.160414 0.551369
O O1 0.643585 0.528477 0.147355
O O2 0.708959 0.180072 0.237958
O O3 0.730386 0.413242 0.122632
O O4 0.643238 0.125490 0.057122
O O5 0.560407 0.761305 0.148024
O O6 0.451992 0.762867 0.077717
O O7 0.500000 0.500000 0.000000
O O8 0.500000 0.000000 0.000000
O O9 0.163051 0.669244 0.782153
O O10 0.110365 0.089039 0.767430
O O11 0.303277 0.764254 0.613635
O O12 0.364281 0.405501 0.575650
O O13 0.387578 0.900236 0.599743
#
# Coordination Sequence:
#
# PCOD9304745 Si02
#       6
#     8   8   8   8   8   8
#     4  11  24  40  80 101 143 185 248 297 347 427
#     4  12  26  46  76 108 137 180 242 302 349 416
#     4  11  24  49  70 104 145 188 238 295 355 424
#     4  11  27  48  67 104 150 185 233 284 366 435
#     4  11  23  46  70 109 137 192 237 293 361 423
#     4  12  26  48  70 108 140 188 236 294 361 421
#
# _framework density 22.512654000000001
#
# number of rings (size 3 to 8) (size 9 to 14) (size 15 to 20)
#    0.000    0.667    5.000    2.000    4.667    2.000 
#    3.000    0.000    0.000    0.000    0.000    0.000 
#    0.000    0.000    0.000    0.000    0.000    0.000 
#
# Total GULP energy -134327.821821 kJ/mol
# GULP energy per Si atom -5596.992576 kJ/mol
# Density = 2.246141 g / cm^3
# Si number density = 22.512654 Si / 1000 Ang^3
#
#
#
# Elastic Constant Matrix: (Units=GPa)
#
#
# Indices 1 2 3 4 5 6 
#
# 1 91.1835 26.7483 55.9369 -0.0001 11.0045 0.0001
# 2 26.7483 124.0375 26.8416 0.0000 -12.4846 0.0002
# 3 55.9369 26.8416 59.8141 0.0000 14.9847 0.0000
# 4 -0.0001 0.0000 0.0000 43.5312 0.0000 -21.1276
# 5 11.0045 -12.4846 14.9847 0.0000 38.4782 0.0000
# 6 0.0001 0.0002 0.0000 -21.1276 0.0000 40.4705
#
#
#
# Elastic Compliance Matrix: (Units=1/GPa)
#
#
# Indices 1 2 3 4 5 6 
#
# 1 0.025899 0.000005 -0.024785 0.000000 0.002247 0.000000
# 2 0.000005 0.009865 -0.005799 0.000000 0.005458 0.000000
# 3 -0.024785 -0.005799 0.045648 0.000000 -0.012570 0.000000
# 4 0.000000 0.000000 0.000000 0.030768 0.000000 0.016062
# 5 0.002247 0.005458 -0.012570 0.000000 0.032012 0.000000
# 6 0.000000 0.000000 0.000000 0.016062 0.000000 0.033095
#
#
# Mechanical properties :
#
#
# Convention : Reuss Voigt Hill
#
# Bulk Modulus (GPa) = 49.37262 54.89874 52.13568
# Shear Modulus (GPa) = 20.39185 35.52987 27.96086
#
# Velocity S-wave (km/s) = 3.01291 3.97699 3.52803
# Velocity P-wave (km/s) = 5.83799 6.74739 6.30910
#
# Compressibility (1/GPa) = 0.02025414
#
# Stress axis : x y z
#
# Youngs Moduli (GPa) = 38.61173 101.36611 21.90676
#
# Poissons Ratio (x) = -0.00046 0.54296
# Poissons Ratio (y) = -0.00018 0.12703
# Poissons Ratio (z) = 0.95699 0.58778
#
# Static dielectric constant tensor:
#      x y z
#    x 1.827190 0.000000 -0.034880 
#    y 0.000000 1.867420 0.000000 
#    z -0.034880 0.000000 1.821710 
# 
# From -- ./inp_files/221002.got.cif
#   From: 2010.05.17/outbox.cif.g08.bks.cpg/sg15_111_cif.got.tgz:221002.got - 2010.06.03 18:47:42.
