data_PCOD9304984
_publ_section_title
;
Structure prediction by ZEFSAII (Michael W. Deem and Ramdas Pophale) SiO2 
 PCOD9304984
Probable space group: C 2/C
;
_chemical_formula_sum "Si O2"
_cell_formula_units_Z 20
_cell_length_a 15.883987
_cell_length_b 7.529167
_cell_length_c 14.208296
_cell_angle_alpha 90.000000
_cell_angle_beta 154.340133
_cell_angle_gamma 90.000000
_cell_volume 735.807557
_symmetry_space_group_name_H-M "C 2/C"
_symmetry_group_IT_number 15
_symmetry_cell_setting 'monoclinic'
loop_
_space_group_symop_operation_xyz
x,y,z
-x,y,1/2-z
-x,-y,-z
x,-y,1/2+z
1/2+x,1/2+y,z
1/2-x,1/2+y,1/2-z
1/2-x,1/2-y,-z
1/2+x,1/2-y,1/2+z
loop_
_atom_site_type_symbol
_atom_site_label
_atom_site_fract_x
_atom_site_fract_y
_atom_site_fract_z
Si Si1 0.500000 0.434971 0.250000
Si Si2 0.179735 0.599799 0.794971
Si Si3 0.257345 0.508176 0.660633
O O1 0.675033 0.539139 0.477815
O O2 0.621048 0.357522 0.282871
O O3 0.264635 0.551811 0.777858
O O4 0.156891 0.811823 0.769766
O O5 0.968779 0.511877 0.592648
#
# Coordination Sequence:
#
# PCOD9304984 Si02
#       3
#     4   8   8
#     4  12  22  40  66  94 114 170 198 260 282 380
#     4  11  24  40  65  91 124 159 205 249 303 361
#     4  11  24  40  65  91 124 159 205 249 303 361
#
# _framework density 27.181021999999999
#
# number of rings (size 3 to 8) (size 9 to 14) (size 15 to 20)
#    0.000    0.800    4.000    3.600    0.000    0.000 
#    0.000    2.000    0.000    0.000    0.000    0.000 
#    0.000    0.000    0.000    0.000    0.000    0.000 
#
# Total GULP energy -56067.420349 kJ/mol
# GULP energy per Si atom -5606.742035 kJ/mol
# Density = 2.711916 g / cm^3
# Si number density = 27.181022 Si / 1000 Ang^3
#
#
#
# Elastic Constant Matrix: (Units=GPa)
#
#
# Indices 1 2 3 4 5 6 
#
# 1 248.9691 10.0784 56.0111 0.0003 10.6912 0.0002
# 2 10.0784 105.0267 44.4014 0.0003 2.1012 0.0002
# 3 56.0111 44.4014 182.3893 0.0005 -12.7526 0.0005
# 4 0.0003 0.0003 0.0005 -9.5299 0.0003 -19.7518
# 5 10.6912 2.1012 -12.7526 0.0003 45.8036 0.0002
# 6 0.0002 0.0002 0.0005 -19.7518 0.0002 11.2479
#
#
#
# Elastic Compliance Matrix: (Units=1/GPa)
#
#
# Indices 1 2 3 4 5 6 
#
# 1 0.004411 0.000247 -0.001517 0.000000 -0.001463 0.000000
# 2 0.000247 0.010696 -0.002772 0.000000 -0.001320 0.000000
# 3 -0.001517 -0.002772 0.006789 0.000000 0.002372 0.000000
# 4 0.000000 0.000000 0.000000 -0.022617 0.000000 -0.039716
# 5 -0.001463 -0.001320 0.002372 0.000000 0.022895 0.000000
# 6 0.000000 0.000000 0.000000 -0.039716 0.000000 0.019162
#
#
# Mechanical properties :
#
#
# Convention : Reuss Voigt Hill
#
# Bulk Modulus (GPa) = 72.39869 84.15189 78.27529
# Shear Modulus (GPa) = 92.55136 37.89726 65.22431
#
# Velocity S-wave (km/s) = 5.84157 3.73802 4.90391
# Velocity P-wave (km/s) = 8.49659 7.04680 7.80543
#
# Compressibility (1/GPa) = 0.01381241
#
# Stress axis : x y z
#
# Youngs Moduli (GPa) = 226.72280 93.49267 147.28988
#
# Poissons Ratio (x) = -0.02313 0.22344
# Poissons Ratio (y) = -0.05608 0.40831
# Poissons Ratio (z) = 0.34395 0.25918
#
# Static dielectric constant tensor:
#      x y z
#    x 2.174940 0.000000 0.044980 
#    y 0.000000 2.088190 0.000000 
#    z 0.044980 0.000000 2.019250 
# 
# From -- ./inp_files/26730.got.cif
#   From: 2010.05.17/outbox.cif.g08.bks.cpg/sg15_14_cif.got.tgz:26730.got - 2010.06.03 18:47:42.
