data_PCOD9304432
_publ_section_title
;
Structure prediction by ZEFSAII (Michael W. Deem and Ramdas Pophale) SiO2 
 PCOD9304432
Probable space group: C 2/C
;
_chemical_formula_sum "Si O2"
_cell_formula_units_Z 48
_cell_length_a 15.724133
_cell_length_b 18.268355
_cell_length_c 19.708998
_cell_angle_alpha 90.000000
_cell_angle_beta 26.549726
_cell_angle_gamma 90.000000
_cell_volume 2530.540492
_symmetry_space_group_name_H-M "C 2/C"
_symmetry_group_IT_number 15
_symmetry_cell_setting 'monoclinic'
loop_
_space_group_symop_operation_xyz
x,y,z
-x,y,1/2-z
-x,-y,-z
x,-y,1/2+z
1/2+x,1/2+y,z
1/2-x,1/2+y,1/2-z
1/2-x,1/2-y,-z
1/2+x,1/2-y,1/2+z
loop_
_atom_site_type_symbol
_atom_site_label
_atom_site_fract_x
_atom_site_fract_y
_atom_site_fract_z
Si Si1 0.109895 0.431990 0.889528
Si Si2 0.097672 0.658867 0.067189
Si Si3 0.500000 0.956920 0.750000
Si Si4 0.295090 0.672029 0.361463
Si Si5 0.571118 0.827705 0.276947
Si Si6 0.500000 0.269660 0.250000
Si Si7 0.283702 0.475284 0.145470
O O1 0.248856 0.393952 0.843644
O O2 0.199237 0.472116 0.762325
O O3 0.989059 0.366471 0.942172
O O4 0.000000 0.500000 0.000000
O O5 0.086160 0.591623 0.127879
O O6 0.985687 0.720096 0.191672
O O7 0.310281 0.684895 0.899581
O O8 0.322320 0.001901 0.848019
O O9 0.500000 0.659613 0.250000
O O10 0.322035 0.749651 0.303763
O O11 0.118501 0.676237 0.540681
O O12 0.500000 0.842079 0.250000
O O13 0.714099 0.890998 0.202003
O O14 0.500000 0.500000 0.000000
#
# Coordination Sequence:
#
# PCOD9304432 Si02
#       7
#     8   8   4   8   8   4   8
#     4  11  24  44  59  95 131 164 213 266 319 380
#     4   9  20  38  63  89 123 160 200 258 310 377
#     4   9  20  42  60  90 131 160 210 270 311 392
#     4  11  25  43  69  94 133 172 218 273 333 391
#     4  11  23  44  67  95 128 172 220 273 329 394
#     4   9  18  40  62  92 117 160 204 246 325 368
#     4  11  24  40  69  95 130 174 220 267 330 392
#
# _framework density 18.968278999999999
#
# number of rings (size 3 to 8) (size 9 to 14) (size 15 to 20)
#    0.000    1.667    2.500    2.000    4.667    2.667 
#   10.500    0.000    0.000    0.000    0.000    0.000 
#    0.000    0.000    0.000    0.000    0.000    0.000 
#
# Total GULP energy -133623.378136 kJ/mol
# GULP energy per Si atom -5567.640756 kJ/mol
# Density = 1.892511 g / cm^3
# Si number density = 18.968279 Si / 1000 Ang^3
#
#
#
# Elastic Constant Matrix: (Units=GPa)
#
#
# Indices 1 2 3 4 5 6 
#
# 1 95.6283 64.8527 45.2705 0.0065 -16.2940 -0.0005
# 2 64.8527 126.1197 45.6910 0.0159 -22.1988 -0.0044
# 3 45.2705 45.6910 104.2994 0.0662 -13.5444 -0.0168
# 4 0.0065 0.0159 0.0662 17.8722 -0.0131 -9.5247
# 5 -16.2940 -22.1988 -13.5444 -0.0131 26.4436 0.0055
# 6 -0.0005 -0.0044 -0.0168 -9.5247 0.0055 35.0342
#
#
#
# Elastic Compliance Matrix: (Units=1/GPa)
#
#
# Indices 1 2 3 4 5 6 
#
# 1 0.017756 -0.007103 -0.004230 0.000019 0.002811 0.000002
# 2 -0.007103 0.013325 -0.002003 0.000003 0.005783 0.000000
# 3 -0.004230 -0.002003 0.012581 -0.000045 0.002156 -0.000007
# 4 0.000019 0.000003 -0.000045 0.065433 0.000019 0.017789
# 5 0.002811 0.005783 0.002156 0.000019 0.045508 0.000000
# 6 0.000002 0.000000 -0.000007 0.017789 0.000000 0.033380
#
#
# Mechanical properties :
#
#
# Convention : Reuss Voigt Hill
#
# Bulk Modulus (GPa) = 58.85991 70.85286 64.85638
# Shear Modulus (GPa) = 22.69430 27.21888 24.95659
#
# Velocity S-wave (km/s) = 3.46270 3.79221 3.63119
# Velocity P-wave (km/s) = 6.86186 7.52389 7.20049
#
# Compressibility (1/GPa) = 0.01698949
#
# Stress axis : x y z
#
# Youngs Moduli (GPa) = 56.31974 75.04586 79.48206
#
# Poissons Ratio (x) = 0.53305 0.33622
# Poissons Ratio (y) = 0.40004 0.15923
# Poissons Ratio (z) = 0.23824 0.15035
#
# Static dielectric constant tensor:
#      x y z
#    x 1.847670 0.000020 -0.006670 
#    y 0.000020 1.720560 0.000010 
#    z -0.006670 0.000010 1.614190 
# 
# From -- ./inp_files/206408.got.cif
#   From: 2010.05.17/outbox.cif.g08.bks.cpg/sg15_104_cif.got.tgz:206408.got - 2010.06.03 18:47:42.
