data_PCOD9304087
_publ_section_title
;
Structure prediction by ZEFSAII (Michael W. Deem and Ramdas Pophale) SiO2 
 PCOD9304087
Probable space group: C 2/C
;
_chemical_formula_sum "Si O2"
_cell_formula_units_Z 44
_cell_length_a 15.056971
_cell_length_b 19.861123
_cell_length_c 6.817591
_cell_angle_alpha 90.000000
_cell_angle_beta 127.234665
_cell_angle_gamma 90.000000
_cell_volume 1623.210649
_symmetry_space_group_name_H-M "C 2/C"
_symmetry_group_IT_number 15
_symmetry_cell_setting 'monoclinic'
loop_
_space_group_symop_operation_xyz
x,y,z
-x,y,1/2-z
-x,-y,-z
x,-y,1/2+z
1/2+x,1/2+y,z
1/2-x,1/2+y,1/2-z
1/2-x,1/2-y,-z
1/2+x,1/2-y,1/2+z
loop_
_atom_site_type_symbol
_atom_site_label
_atom_site_fract_x
_atom_site_fract_y
_atom_site_fract_z
Si Si1 0.520970 0.794517 0.046919
Si Si2 0.099348 0.575675 0.015543
Si Si3 0.070671 0.846169 0.588803
Si Si4 0.500000 0.538310 0.250000
Si Si5 0.700478 0.434886 0.462902
Si Si6 0.242298 0.640926 0.855924
O O1 0.500000 0.791585 0.250000
O O2 0.453236 0.863601 0.919556
O O3 0.496326 0.718952 0.947639
O O4 0.650499 0.804963 0.164097
O O5 0.176517 0.604958 0.945288
O O6 0.000000 0.543325 0.750000
O O7 0.186653 0.540784 0.276199
O O8 0.147205 0.872852 0.515289
O O9 0.149963 0.831327 0.884303
O O10 0.001590 0.911395 0.566623
O O11 0.610161 0.494340 0.363975
O O12 0.731530 0.593388 0.791820
#
# Coordination Sequence:
#
# PCOD9304087 Si02
#       6
#     8   8   8   4   8   8
#     4   9  18  39  72 102 135 179 232 287 366 416
#     4   8  19  43  73 102 137 181 234 304 356 415
#     4  11  23  42  66  99 145 193 229 289 354 428
#     4  12  28  44  70 102 152 198 232 282 348 440
#     4  11  25  42  64 107 147 188 246 279 353 427
#     4   9  21  39  68 103 140 185 225 304 361 415
#
# _framework density 27.106770999999998
#
# number of rings (size 3 to 8) (size 9 to 14) (size 15 to 20)
#    0.000    2.545    0.909    1.091    5.091    3.636 
#    0.000    5.455    0.000    9.818    0.000    0.000 
#    2.727    0.000    0.000    0.000    0.000    0.000 
#
# Total GULP energy -123008.473078 kJ/mol
# GULP energy per Si atom -5591.294231 kJ/mol
# Density = 2.704507 g / cm^3
# Si number density = 27.106771 Si / 1000 Ang^3
#
#
#
# Elastic Constant Matrix: (Units=GPa)
#
#
# Indices 1 2 3 4 5 6 
#
# 1 145.9526 55.6203 54.1031 0.0000 -6.5747 0.0000
# 2 55.6203 148.8802 61.3762 0.0000 15.5584 0.0000
# 3 54.1031 61.3762 141.8811 0.0000 14.5484 0.0000
# 4 0.0000 0.0000 0.0000 10.5529 0.0000 21.6112
# 5 -6.5747 15.5584 14.5484 0.0000 49.5750 0.0000
# 6 0.0000 0.0000 0.0000 21.6112 0.0000 40.1631
#
#
#
# Elastic Compliance Matrix: (Units=1/GPa)
#
#
# Indices 1 2 3 4 5 6 
#
# 1 0.008900 -0.002551 -0.002571 0.000000 0.002735 0.000000
# 2 -0.002551 0.009027 -0.002688 0.000000 -0.002382 0.000000
# 3 -0.002571 -0.002688 0.009423 0.000000 -0.002263 0.000000
# 4 0.000000 0.000000 0.000000 -0.929505 0.000000 0.500154
# 5 0.002735 -0.002382 -0.002263 0.000000 0.021946 0.000000
# 6 0.000000 0.000000 0.000000 0.500154 0.000000 -0.244228
#
#
# Mechanical properties :
#
#
# Convention : Reuss Voigt Hill
#
# Bulk Modulus (GPa) = 85.24555 86.54590 85.89573
# Shear Modulus (GPa) = -4.52526 37.76582 16.62028
#
# Velocity S-wave (km/s) = -1.29346 3.73664 2.47886
# Velocity P-wave (km/s) = 5.41162 7.11433 6.32058
#
# Compressibility (1/GPa) = 0.01173082
#
# Stress axis : x y z
#
# Youngs Moduli (GPa) = 112.36182 110.78014 106.12107
#
# Poissons Ratio (x) = 0.28260 0.27281
# Poissons Ratio (y) = 0.28663 0.28524
# Poissons Ratio (z) = 0.28885 0.29776
#
# Static dielectric constant tensor:
#      x y z
#    x 2.045330 0.000000 0.024120 
#    y 0.000000 2.206050 0.000000 
#    z 0.024120 0.000000 2.270800 
# 
# From -- ./inp_files/112853.got.cif
#   From: 2010.05.17/outbox.cif.g08.bks.cpg/sg15_57_cif.got.tgz:112853.got - 2010.06.03 18:47:42.
