data_PCOD9304871
_publ_section_title
;
Structure prediction by ZEFSAII (Michael W. Deem and Ramdas Pophale) SiO2 
 PCOD9304871
Probable space group: C 2/C
;
_chemical_formula_sum "Si O2"
_cell_formula_units_Z 40
_cell_length_a 10.127285
_cell_length_b 15.693703
_cell_length_c 10.693209
_cell_angle_alpha 90.000000
_cell_angle_beta 98.684543
_cell_angle_gamma 90.000000
_cell_volume 1680.035337
_symmetry_space_group_name_H-M "C 2/C"
_symmetry_group_IT_number 15
_symmetry_cell_setting 'monoclinic'
loop_
_space_group_symop_operation_xyz
x,y,z
-x,y,1/2-z
-x,-y,-z
x,-y,1/2+z
1/2+x,1/2+y,z
1/2-x,1/2+y,1/2-z
1/2-x,1/2-y,-z
1/2+x,1/2-y,1/2+z
loop_
_atom_site_type_symbol
_atom_site_label
_atom_site_fract_x
_atom_site_fract_y
_atom_site_fract_z
Si Si1 0.534596 0.243538 0.612466
Si Si2 0.277858 0.358933 0.198808
Si Si3 0.337605 0.963269 0.725343
Si Si4 0.900637 0.920994 0.981850
Si Si5 0.387868 0.793282 0.845522
O O1 0.500000 0.221917 0.750000
O O2 0.676124 0.199658 0.606492
O O3 0.545523 0.344607 0.596277
O O4 0.440698 0.204979 0.492976
O O5 0.214242 0.447417 0.230640
O O6 0.314549 0.296242 0.316347
O O7 0.393883 0.382427 0.119653
O O8 0.500000 0.969055 0.750000
O O9 0.248660 0.946710 0.587628
O O10 0.307230 0.879575 0.805178
O O11 0.000000 0.000000 0.000000
O O12 0.500000 0.792559 0.750000
#
# Coordination Sequence:
#
# PCOD9304871 Si02
#       5
#     8   8   8   8   8
#     4  12  27  46  76 111 156 199 262 320 386 461
#     4  12  25  48  77 108 155 200 257 317 393 460
#     4  11  26  45  74 114 154 200 260 318 389 465
#     4  12  27  47  78 115 155 204 266 319 384 463
#     4  11  23  47  78 105 146 206 250 310 391 459
#
# _framework density 23.809021000000001
#
# number of rings (size 3 to 8) (size 9 to 14) (size 15 to 20)
#    0.000    0.400    4.000    4.800    2.800    5.600 
#    0.000    0.000    0.000    0.000    0.000    0.000 
#    0.000    0.000    0.000    0.000    0.000    0.000 
#
# Total GULP energy -111878.688574 kJ/mol
# GULP energy per Si atom -5593.934429 kJ/mol
# Density = 2.375483 g / cm^3
# Si number density = 23.809021 Si / 1000 Ang^3
#
#
#
# Elastic Constant Matrix: (Units=GPa)
#
#
# Indices 1 2 3 4 5 6 
#
# 1 42.1164 17.9754 16.0997 0.0000 2.4777 0.0000
# 2 17.9754 158.3934 24.4533 0.0000 -5.3137 0.0000
# 3 16.0997 24.4533 129.2583 0.0000 9.7377 0.0000
# 4 0.0000 0.0000 0.0000 27.3642 0.0000 7.4294
# 5 2.4777 -5.3137 9.7377 0.0000 38.4568 0.0000
# 6 0.0000 0.0000 0.0000 7.4294 0.0000 53.2955
#
#
#
# Elastic Compliance Matrix: (Units=1/GPa)
#
#
# Indices 1 2 3 4 5 6 
#
# 1 0.025934 -0.002581 -0.002640 0.000000 -0.001359 0.000000
# 2 -0.002581 0.006818 -0.001072 0.000000 0.001380 0.000000
# 3 -0.002640 -0.001072 0.008427 0.000000 -0.002112 0.000000
# 4 0.000000 0.000000 0.000000 0.037982 0.000000 -0.005295
# 5 -0.001359 0.001380 -0.002112 0.000000 0.026816 0.000000
# 6 0.000000 0.000000 0.000000 -0.005295 0.000000 0.019501
#
#
# Mechanical properties :
#
#
# Convention : Reuss Voigt Hill
#
# Bulk Modulus (GPa) = 34.97298 49.64723 42.31010
# Shear Modulus (GPa) = 33.87618 41.90593 37.89105
#
# Velocity S-wave (km/s) = 3.77613 4.19989 3.99364
# Velocity P-wave (km/s) = 5.80802 6.66456 6.25098
#
# Compressibility (1/GPa) = 0.02859350
#
# Stress axis : x y z
#
# Youngs Moduli (GPa) = 38.55880 146.66681 118.66364
#
# Poissons Ratio (x) = 0.37859 0.31322
# Poissons Ratio (y) = 0.09953 0.12725
# Poissons Ratio (z) = 0.10178 0.15727
#
# Static dielectric constant tensor:
#      x y z
#    x 2.063700 0.000000 0.060850 
#    y 0.000000 1.861600 0.000000 
#    z 0.060850 0.000000 1.979030 
# 
# From -- ./inp_files/86249.got.cif
#   From: 2010.05.17/outbox.cif.g08.bks.cpg/sg15_44_cif.got.tgz:86249.got - 2010.06.03 18:47:42.
