data_PCOD9304891
_publ_section_title
;
Structure prediction by ZEFSAII (Michael W. Deem and Ramdas Pophale) SiO2 
 PCOD9304891
Probable space group: C 2/C
;
_chemical_formula_sum "Si O2"
_cell_formula_units_Z 48
_cell_length_a 11.626170
_cell_length_b 13.442976
_cell_length_c 12.955310
_cell_angle_alpha 90.000000
_cell_angle_beta 69.613364
_cell_angle_gamma 90.000000
_cell_volume 1897.963395
_symmetry_space_group_name_H-M "C 2/C"
_symmetry_group_IT_number 15
_symmetry_cell_setting 'monoclinic'
loop_
_space_group_symop_operation_xyz
x,y,z
-x,y,1/2-z
-x,-y,-z
x,-y,1/2+z
1/2+x,1/2+y,z
1/2-x,1/2+y,1/2-z
1/2-x,1/2-y,-z
1/2+x,1/2-y,1/2+z
loop_
_atom_site_type_symbol
_atom_site_label
_atom_site_fract_x
_atom_site_fract_y
_atom_site_fract_z
Si Si1 0.278898 0.126068 0.070225
Si Si2 0.228660 0.789936 0.251455
Si Si3 0.807991 0.006449 0.221162
Si Si4 0.456198 0.177628 0.549226
Si Si5 0.123746 0.615048 0.148093
Si Si6 0.483766 0.397138 0.944376
O O1 0.272057 0.223252 0.146351
O O2 0.270874 0.035617 0.154011
O O3 0.155792 0.119176 0.043820
O O4 0.408855 0.133299 0.972764
O O5 0.363924 0.823859 0.173778
O O6 0.174044 0.719490 0.179060
O O7 0.155297 0.892087 0.287575
O O8 0.724878 0.034389 0.148556
O O9 0.922967 0.080907 0.179294
O O10 0.402836 0.125812 0.463820
O O11 0.471006 0.295252 0.518557
O O12 0.000000 0.593490 0.250000
O O13 0.500000 0.500000 0.000000
#
# Coordination Sequence:
#
# PCOD9304891 Si02
#       6
#     8   8   8   8   8   8
#     4  11  25  50  68 110 155 187 252 310 369 439
#     4  11  25  46  78 106 148 200 239 311 379 433
#     4  11  25  46  71 108 147 195 242 310 367 441
#     4  12  24  47  75 108 147 201 239 311 375 446
#     4  11  23  48  72 104 153 186 248 303 371 441
#     4  12  27  46  74 109 145 196 257 303 368 445
#
# _framework density 25.290265000000002
#
# number of rings (size 3 to 8) (size 9 to 14) (size 15 to 20)
#    0.000    0.667    6.667    2.500    2.333    0.667 
#    6.000    0.000    0.000    0.000    0.000    0.000 
#    0.000    0.000    0.000    0.000    0.000    0.000 
#
# Total GULP energy -134554.996639 kJ/mol
# GULP energy per Si atom -5606.458193 kJ/mol
# Density = 2.523270 g / cm^3
# Si number density = 25.290265 Si / 1000 Ang^3
#
#
#
# Elastic Constant Matrix: (Units=GPa)
#
#
# Indices 1 2 3 4 5 6 
#
# 1 117.6811 -8.9364 31.6651 0.0000 -7.7813 0.0000
# 2 -8.9364 98.4867 6.6096 0.0000 14.3193 0.0000
# 3 31.6651 6.6096 79.4889 0.0000 -26.1346 0.0000
# 4 0.0000 0.0000 0.0000 37.2863 0.0000 -15.1933
# 5 -7.7813 14.3193 -26.1346 0.0000 39.8577 0.0000
# 6 0.0000 0.0000 0.0000 -15.1933 0.0000 10.1122
#
#
#
# Elastic Compliance Matrix: (Units=1/GPa)
#
#
# Indices 1 2 3 4 5 6 
#
# 1 0.009712 0.001410 -0.004499 0.000000 -0.001561 0.000000
# 2 0.001410 0.011411 -0.003529 0.000000 -0.006138 0.000000
# 3 -0.004499 -0.003529 0.018860 0.000000 0.012756 0.000000
# 4 0.000000 0.000000 0.000000 0.069163 0.000000 0.103916
# 5 -0.001561 -0.006138 0.012756 0.000000 0.035353 0.000000
# 6 0.000000 0.000000 0.000000 0.103916 0.000000 0.255023
#
#
# Mechanical properties :
#
#
# Convention : Reuss Voigt Hill
#
# Bulk Modulus (GPa) = 37.38683 39.37037 38.37860
# Shear Modulus (GPa) = 11.85752 35.20581 23.53167
#
# Velocity S-wave (km/s) = 2.16766 3.73509 3.05366
# Velocity P-wave (km/s) = 4.59132 5.84828 5.25750
#
# Compressibility (1/GPa) = 0.02674739
#
# Stress axis : x y z
#
# Youngs Moduli (GPa) = 102.96474 87.63620 53.02245
#
# Poissons Ratio (x) = -0.12358 0.23856
# Poissons Ratio (y) = -0.14519 0.18709
# Poissons Ratio (z) = 0.46327 0.30923
#
# Static dielectric constant tensor:
#      x y z
#    x 1.975800 0.000000 -0.048990 
#    y 0.000000 1.976500 0.000000 
#    z -0.048990 0.000000 2.088280 
# 
# From -- ./inp_files/144049.got.cif
#   From: 2010.05.17/outbox.cif.g08.bks.cpg/sg15_73_cif.got.tgz:144049.got - 2010.06.03 18:47:42.
