data_PCOD9304947
_publ_section_title
;
Structure prediction by ZEFSAII (Michael W. Deem and Ramdas Pophale) SiO2 
 PCOD9304947
Probable space group: C 2/C
;
_chemical_formula_sum "Si O2"
_cell_formula_units_Z 56
_cell_length_a 21.239678
_cell_length_b 19.264677
_cell_length_c 17.116909
_cell_angle_alpha 90.000000
_cell_angle_beta 161.038563
_cell_angle_gamma 90.000000
_cell_volume 2275.763263
_symmetry_space_group_name_H-M "C 2/C"
_symmetry_group_IT_number 15
_symmetry_cell_setting 'monoclinic'
loop_
_space_group_symop_operation_xyz
x,y,z
-x,y,1/2-z
-x,-y,-z
x,-y,1/2+z
1/2+x,1/2+y,z
1/2-x,1/2+y,1/2-z
1/2-x,1/2-y,-z
1/2+x,1/2-y,1/2+z
loop_
_atom_site_type_symbol
_atom_site_label
_atom_site_fract_x
_atom_site_fract_y
_atom_site_fract_z
Si Si1 0.814180 0.081509 0.801850
Si Si2 0.984620 0.542261 0.314241
Si Si3 0.164462 0.048293 0.502130
Si Si4 0.162267 0.164752 0.215787
Si Si5 0.282974 0.831763 0.026279
Si Si6 0.981224 0.314373 0.973342
Si Si7 0.728339 0.679242 0.024624
O O1 0.697589 0.042178 0.599499
O O2 0.647393 0.135626 0.635202
O O3 0.879341 0.045418 0.957829
O O4 0.000940 0.118086 0.985880
O O5 0.871099 0.615768 0.167074
O O6 0.000000 0.505066 0.250000
O O7 0.850277 0.500043 0.213639
O O8 0.221324 0.122708 0.528760
O O9 0.000000 0.021270 0.250000
O O10 0.160098 0.148788 0.305233
O O11 0.369451 0.157882 0.418259
O O12 0.087935 0.243147 0.118429
O O13 0.500000 0.841235 0.250000
O O14 0.250000 0.750000 0.000000
O O15 0.811635 0.304728 0.709362
O O16 0.500000 0.660343 0.750000
O O17 0.750000 0.750000 0.000000
#
# Coordination Sequence:
#
# PCOD9304947 Si02
#       7
#     8   8   8   8   8   8   8
#     4  11  25  46  70 102 141 187 238 291 354 423
#     4  11  27  46  73 101 137 187 238 295 355 424
#     4  12  24  49  71  99 143 189 231 292 358 428
#     4  12  22  40  63 104 139 190 228 288 356 422
#     4  12  25  40  69 105 140 180 236 290 353 424
#     4  11  24  38  67 100 149 182 233 292 357 422
#     4  11  24  42  67 101 136 182 236 300 359 414
#
# _framework density 24.607129
#
# number of rings (size 3 to 8) (size 9 to 14) (size 15 to 20)
#    0.000    0.571    2.857    5.571    6.000    0.000 
#    0.000    0.714    0.000    0.000    0.000    0.000 
#    0.000    0.000    0.000    0.000    0.000    0.000 
#
# Total GULP energy -156737.380934 kJ/mol
# GULP energy per Si atom -5597.763605 kJ/mol
# Density = 2.455112 g / cm^3
# Si number density = 24.607129 Si / 1000 Ang^3
#
#
#
# Elastic Constant Matrix: (Units=GPa)
#
#
# Indices 1 2 3 4 5 6 
#
# 1 66.9582 -1.1587 2.7748 0.0008 -10.6694 0.0000
# 2 -1.1587 61.3378 3.3765 0.0004 4.5817 0.0000
# 3 2.7748 3.3765 118.7480 0.0018 -10.1861 0.0002
# 4 0.0008 0.0004 0.0018 -32.4256 0.0005 23.5191
# 5 -10.6694 4.5817 -10.1861 0.0005 53.3602 0.0001
# 6 0.0000 0.0000 0.0002 23.5191 0.0001 11.3228
#
#
#
# Elastic Compliance Matrix: (Units=1/GPa)
#
#
# Indices 1 2 3 4 5 6 
#
# 1 0.015428 0.000068 -0.000100 0.000000 0.003060 0.000000
# 2 0.000068 0.016450 -0.000599 0.000000 -0.001513 0.000000
# 3 -0.000100 -0.000599 0.008584 0.000000 0.001670 0.000000
# 4 0.000000 0.000000 0.000000 -0.012303 0.000000 0.025556
# 5 0.003060 -0.001513 0.001670 0.000000 0.019801 0.000000
# 6 0.000000 0.000000 0.000000 0.025556 0.000000 0.035234
#
#
# Mechanical properties :
#
#
# Convention : Reuss Voigt Hill
#
# Bulk Modulus (GPa) = 25.50997 28.55880 27.03439
# Shear Modulus (GPa) = 51.27064 22.58824 36.92944
#
# Velocity S-wave (km/s) = 4.56956 3.03306 3.87817
# Velocity P-wave (km/s) = 6.18309 4.88846 5.57350
#
# Compressibility (1/GPa) = 0.03920035
#
# Stress axis : x y z
#
# Youngs Moduli (GPa) = 64.81895 60.78859 116.49817
#
# Poissons Ratio (x) = -0.00416 0.01165
# Poissons Ratio (y) = -0.00443 0.06980
# Poissons Ratio (z) = 0.00648 0.03642
#
# Static dielectric constant tensor:
#      x y z
#    x 2.047000 0.000000 -0.135190 
#    y 0.000000 1.952620 0.000000 
#    z -0.135190 0.000000 1.963560 
# 
# From -- ./inp_files/216654.got.cif
#   From: 2010.05.17/outbox.cif.g08.bks.cpg/sg15_109_cif.got.tgz:216654.got - 2010.06.03 18:47:42.
