data_PCOD9304797
_publ_section_title
;
Structure prediction by ZEFSAII (Michael W. Deem and Ramdas Pophale) SiO2 
 PCOD9304797
Probable space group: C 2/C
;
_chemical_formula_sum "Si O2"
_cell_formula_units_Z 44
_cell_length_a 12.456101
_cell_length_b 21.435813
_cell_length_c 9.333618
_cell_angle_alpha 90.000000
_cell_angle_beta 48.425387
_cell_angle_gamma 90.000000
_cell_volume 1864.349052
_symmetry_space_group_name_H-M "C 2/C"
_symmetry_group_IT_number 15
_symmetry_cell_setting 'monoclinic'
loop_
_space_group_symop_operation_xyz
x,y,z
-x,y,1/2-z
-x,-y,-z
x,-y,1/2+z
1/2+x,1/2+y,z
1/2-x,1/2+y,1/2-z
1/2-x,1/2-y,-z
1/2+x,1/2-y,1/2+z
loop_
_atom_site_type_symbol
_atom_site_label
_atom_site_fract_x
_atom_site_fract_y
_atom_site_fract_z
Si Si1 0.000000 0.442351 0.750000
Si Si2 0.869094 0.813208 0.039857
Si Si3 0.866263 0.669935 0.007006
Si Si4 0.369403 0.588300 0.186969
Si Si5 0.153322 0.379237 0.355605
Si Si6 0.211860 0.985278 0.446459
O O1 0.076990 0.400626 0.564726
O O2 0.129330 0.486837 0.681226
O O3 0.911788 0.741365 0.993687
O O4 0.765281 0.822786 0.268147
O O5 0.754619 0.825584 0.011768
O O6 0.001209 0.861548 0.916130
O O7 0.772838 0.630657 0.204105
O O8 0.018795 0.635242 0.872032
O O9 0.381386 0.540434 0.043029
O O10 0.342295 0.545741 0.355923
O O11 0.257212 0.432029 0.198295
#
# Coordination Sequence:
#
# PCOD9304797 Si02
#       6
#     4   8   8   8   8   8
#     4  12  24  46  68 102 138 200 240 292 358 458
#     4  11  26  45  73 112 147 184 246 317 367 423
#     4  11  23  46  76 107 142 190 252 303 359 436
#     4  12  25  48  74 114 154 193 238 307 383 436
#     4  12  24  44  73 100 141 193 247 294 368 439
#     4  12  25  44  75 108 151 191 244 300 372 449
#
# _framework density 23.600732000000001
#
# number of rings (size 3 to 8) (size 9 to 14) (size 15 to 20)
#    0.000    0.364    5.455    3.818    0.000    3.636 
#    3.273    0.909    0.000    0.000    0.000    0.000 
#    0.000    0.000    0.000    0.000    0.000    0.000 
#
# Total GULP energy -122762.831777 kJ/mol
# GULP energy per Si atom -5580.128717 kJ/mol
# Density = 2.354702 g / cm^3
# Si number density = 23.600732 Si / 1000 Ang^3
#
#
#
# Elastic Constant Matrix: (Units=GPa)
#
#
# Indices 1 2 3 4 5 6 
#
# 1 62.4834 48.7591 13.9198 0.0000 -39.7441 0.0000
# 2 48.7591 140.6911 42.7707 0.0000 -6.3494 0.0000
# 3 13.9198 42.7707 98.2306 0.0000 -18.0824 0.0000
# 4 0.0000 0.0000 0.0000 72.3998 0.0000 -43.1204
# 5 -39.7441 -6.3494 -18.0824 0.0000 43.7216 0.0000
# 6 0.0000 0.0000 0.0000 -43.1204 0.0000 54.4130
#
#
#
# Elastic Compliance Matrix: (Units=1/GPa)
#
#
# Indices 1 2 3 4 5 6 
#
# 1 0.096667 -0.034940 0.018138 0.000000 0.090300 0.000000
# 2 -0.034940 0.020825 -0.010181 0.000000 -0.032948 0.000000
# 3 0.018138 -0.010181 0.016026 0.000000 0.021637 0.000000
# 4 0.000000 0.000000 0.000000 0.026159 0.000000 0.020730
# 5 0.090300 -0.032948 0.021637 0.000000 0.109121 0.000000
# 6 0.000000 0.000000 0.000000 0.020730 0.000000 0.034806
#
#
# Mechanical properties :
#
#
# Convention : Reuss Voigt Hill
#
# Bulk Modulus (GPa) = 12.57070 56.92268 34.74669
# Shear Modulus (GPa) = 13.01784 47.17056 30.09420
#
# Velocity S-wave (km/s) = 2.35114 4.47552 3.57478
# Velocity P-wave (km/s) = 3.56489 7.13291 5.63857
#
# Compressibility (1/GPa) = 0.07955006
#
# Stress axis : x y z
#
# Youngs Moduli (GPa) = 10.34479 48.01857 62.39847
#
# Poissons Ratio (x) = 1.67779 -1.13177
# Poissons Ratio (y) = 0.36145 0.63531
# Poissons Ratio (z) = -0.18763 0.48890
#
# Static dielectric constant tensor:
#      x y z
#    x 2.121020 0.000000 0.036340 
#    y 0.000000 1.998330 0.000000 
#    z 0.036340 0.000000 2.026590 
# 
# From -- ./inp_files/41999.got.cif
#   From: 2010.05.17/outbox.cif.g08.bks.cpg/sg15_21_cif.got.tgz:41999.got - 2010.06.03 18:47:42.
