data_PCOD9304500
_publ_section_title
;
Structure prediction by ZEFSAII (Michael W. Deem and Ramdas Pophale) SiO2 
 PCOD9304500
Probable space group: C 2/C
;
_chemical_formula_sum "Si O2"
_cell_formula_units_Z 32
_cell_length_a 20.259592
_cell_length_b 7.570448
_cell_length_c 13.702781
_cell_angle_alpha 90.000000
_cell_angle_beta 34.868565
_cell_angle_gamma 90.000000
_cell_volume 1201.506172
_symmetry_space_group_name_H-M "C 2/C"
_symmetry_group_IT_number 15
_symmetry_cell_setting 'monoclinic'
loop_
_space_group_symop_operation_xyz
x,y,z
-x,y,1/2-z
-x,-y,-z
x,-y,1/2+z
1/2+x,1/2+y,z
1/2-x,1/2+y,1/2-z
1/2-x,1/2-y,-z
1/2+x,1/2-y,1/2+z
loop_
_atom_site_type_symbol
_atom_site_label
_atom_site_fract_x
_atom_site_fract_y
_atom_site_fract_z
Si Si1 0.609213 0.056382 0.170254
Si Si2 0.412124 0.510967 0.496115
Si Si3 0.623485 0.330677 0.674042
Si Si4 0.758006 0.784488 0.331344
O O1 0.500000 0.147228 0.250000
O O2 0.664409 0.157678 0.194311
O O3 0.564651 0.863912 0.256501
O O4 0.707508 0.066876 0.966206
O O5 0.391886 0.563235 0.407767
O O6 0.549544 0.550105 0.340733
O O7 0.351644 0.321262 0.579429
O O8 0.333654 0.643481 0.652598
O O9 0.750000 0.250000 0.500000
#
# Coordination Sequence:
#
# PCOD9304500 Si02
#       4
#     8   8   8   8
#     4  11  24  44  71 100 143 185 231 289 353 414
#     4  11  24  43  70 103 139 184 230 291 344 420
#     4  11  23  44  71 100 145 185 231 287 352 414
#     4  11  26  44  71 105 141 181 240 285 354 415
#
# _framework density 26.633239
#
# number of rings (size 3 to 8) (size 9 to 14) (size 15 to 20)
#    0.000    1.000    5.000    1.500    3.500    3.000 
#    0.000    3.750    0.000    0.000    0.000    0.000 
#    0.000    0.000    0.000    0.000    0.000    0.000 
#
# Total GULP energy -89347.544582 kJ/mol
# GULP energy per Si atom -5584.221536 kJ/mol
# Density = 2.657262 g / cm^3
# Si number density = 26.633239 Si / 1000 Ang^3
#
#
#
# Elastic Constant Matrix: (Units=GPa)
#
#
# Indices 1 2 3 4 5 6 
#
# 1 51.5811 5.4754 23.0899 0.0002 -21.6205 -0.0002
# 2 5.4754 110.9713 47.3325 -0.0017 3.2916 0.0009
# 3 23.0899 47.3325 242.6264 -0.0013 1.6930 0.0004
# 4 0.0002 -0.0017 -0.0013 37.3800 0.0003 -0.1515
# 5 -21.6205 3.2916 1.6930 0.0003 47.7572 0.0001
# 6 -0.0002 0.0009 0.0004 -0.1515 0.0001 23.0056
#
#
#
# Elastic Compliance Matrix: (Units=1/GPa)
#
#
# Indices 1 2 3 4 5 6 
#
# 1 0.025385 -0.000580 -0.002384 0.000000 0.011617 0.000000
# 2 -0.000580 0.009860 -0.001862 0.000000 -0.000876 0.000000
# 3 -0.002384 -0.001862 0.004719 0.000000 -0.001118 0.000000
# 4 0.000000 0.000000 0.000000 0.026753 0.000000 0.000176
# 5 0.011617 -0.000876 -0.001118 0.000000 0.026298 0.000000
# 6 0.000000 0.000000 0.000000 0.000176 0.000000 0.043469
#
#
# Mechanical properties :
#
#
# Convention : Reuss Voigt Hill
#
# Bulk Modulus (GPa) = 32.99017 61.88604 47.43811
# Shear Modulus (GPa) = 32.00181 43.58063 37.79122
#
# Velocity S-wave (km/s) = 3.47013 4.04954 3.77098
# Velocity P-wave (km/s) = 5.33568 6.71951 6.06718
#
# Compressibility (1/GPa) = 0.03031206
#
# Stress axis : x y z
#
# Youngs Moduli (GPa) = 39.39373 101.41721 211.88699
#
# Poissons Ratio (x) = 0.05886 0.50506
# Poissons Ratio (y) = 0.02286 0.39458
# Poissons Ratio (z) = 0.09390 0.18886
#
# Static dielectric constant tensor:
#      x y z
#    x 2.316470 0.000000 -0.151570 
#    y 0.000000 2.145310 0.000000 
#    z -0.151570 0.000000 2.143390 
# 
# From -- ./inp_files/172182.got.cif
#   From: 2010.05.17/outbox.cif.g08.bks.cpg/sg15_87_cif.got.tgz:172182.got - 2010.06.03 18:47:42.
