data_PCOD9304002
_publ_section_title
;
Structure prediction by ZEFSAII (Michael W. Deem and Ramdas Pophale) SiO2 
 PCOD9304002
Probable space group: C 2/C
;
_chemical_formula_sum "Si O2"
_cell_formula_units_Z 60
_cell_length_a 23.130679
_cell_length_b 9.142909
_cell_length_c 14.695585
_cell_angle_alpha 90.000000
_cell_angle_beta 67.711739
_cell_angle_gamma 90.000000
_cell_volume 2875.651989
_symmetry_space_group_name_H-M "C 2/C"
_symmetry_group_IT_number 15
_symmetry_cell_setting 'monoclinic'
loop_
_space_group_symop_operation_xyz
x,y,z
-x,y,1/2-z
-x,-y,-z
x,-y,1/2+z
1/2+x,1/2+y,z
1/2-x,1/2+y,1/2-z
1/2-x,1/2-y,-z
1/2+x,1/2-y,1/2+z
loop_
_atom_site_type_symbol
_atom_site_label
_atom_site_fract_x
_atom_site_fract_y
_atom_site_fract_z
Si Si1 0.500000 0.547550 0.250000
Si Si2 0.752718 0.100341 0.054132
Si Si3 0.728168 0.362241 0.613936
Si Si4 0.833708 0.828744 0.674293
Si Si5 0.353864 0.979305 0.247800
Si Si6 0.133059 0.706683 0.418088
Si Si7 0.900421 0.290844 0.364125
Si Si8 0.555767 0.519462 0.896825
O O1 0.446998 0.655583 0.322318
O O2 0.471384 0.451366 0.186680
O O3 0.808615 0.125595 0.091787
O O4 0.694889 0.057169 0.154209
O O5 0.750000 0.250000 0.000000
O O6 0.760362 0.978301 0.971994
O O7 0.701685 0.421145 0.725927
O O8 0.793009 0.284425 0.602174
O O9 0.670684 0.264312 0.612895
O O10 0.825241 0.659533 0.708448
O O11 0.906098 0.868808 0.635518
O O12 0.407378 0.912710 0.281869
O O13 0.374514 0.092801 0.159061
O O14 0.099495 0.658349 0.531840
O O15 0.103335 0.858710 0.404270
O O16 0.500000 0.500000 0.000000
#
# Coordination Sequence:
#
# PCOD9304002 Si02
#       8
#     4   8   8   8   8   8   8   8
#     4  12  24  52  70 102 144 190 260 288 360 432
#     4  12  26  38  68 109 150 185 237 299 363 448
#     4  11  23  41  69 105 144 194 231 292 381 426
#     4  11  26  44  69 101 151 191 242 294 375 439
#     4  11  25  43  65 106 146 191 235 298 375 425
#     4  12  24  42  75 105 146 181 243 303 370 438
#     4  11  24  45  73  97 143 196 240 289 363 446
#     4  12  27  47  75 105 136 200 250 306 354 440
#
# _framework density 20.864833000000001
#
# number of rings (size 3 to 8) (size 9 to 14) (size 15 to 20)
#    0.000    0.533    6.667    2.000    7.467    0.000 
#    0.000    3.333    0.000    0.000    0.000    0.000 
#    0.000    0.000    0.000    0.000    0.000    0.000 
#
# Total GULP energy -167567.331580 kJ/mol
# GULP energy per Si atom -5585.577719 kJ/mol
# Density = 2.081734 g / cm^3
# Si number density = 20.864833 Si / 1000 Ang^3
#
#
#
# Elastic Constant Matrix: (Units=GPa)
#
#
# Indices 1 2 3 4 5 6 
#
# 1 76.1840 32.6944 55.3903 0.0000 12.7745 0.0000
# 2 32.6944 93.2041 57.1230 0.0000 5.7321 0.0000
# 3 55.3903 57.1230 163.3217 0.0000 17.1899 0.0000
# 4 0.0000 0.0000 0.0000 29.2095 0.0000 11.4575
# 5 12.7745 5.7321 17.1899 0.0000 36.4757 0.0000
# 6 0.0000 0.0000 0.0000 11.4575 0.0000 29.9361
#
#
#
# Elastic Compliance Matrix: (Units=1/GPa)
#
#
# Indices 1 2 3 4 5 6 
#
# 1 0.018669 -0.003411 -0.004742 0.000000 -0.003768 0.000000
# 2 -0.003411 0.014280 -0.003922 0.000000 0.000799 0.000000
# 3 -0.004742 -0.003922 0.009326 0.000000 -0.002118 0.000000
# 4 0.000000 0.000000 0.000000 0.040283 0.000000 -0.015418
# 5 -0.003768 0.000799 -0.002118 0.000000 0.029608 0.000000
# 6 0.000000 0.000000 0.000000 -0.015418 0.000000 0.039305
#
#
# Mechanical properties :
#
#
# Convention : Reuss Voigt Hill
#
# Bulk Modulus (GPa) = 55.17059 69.23614 62.20337
# Shear Modulus (GPa) = 27.52348 31.62440 29.57394
#
# Velocity S-wave (km/s) = 3.63593 3.89740 3.76893
# Velocity P-wave (km/s) = 6.64273 7.31493 6.98692
#
# Compressibility (1/GPa) = 0.01812560
#
# Stress axis : x y z
#
# Youngs Moduli (GPa) = 53.56336 70.02743 107.22920
#
# Poissons Ratio (x) = 0.23885 0.50851
# Poissons Ratio (y) = 0.18269 0.42054
# Poissons Ratio (z) = 0.25401 0.27464
#
# Static dielectric constant tensor:
#      x y z
#    x 1.644260 0.000000 -0.127850 
#    y 0.000000 1.782460 0.000000 
#    z -0.127850 0.000000 1.603000 
# 
# From -- ./inp_files/172333.got.cif
#   From: 2010.05.17/outbox.cif.g08.bks.cpg/sg15_87_cif.got.tgz:172333.got - 2010.06.03 18:47:42.
