data_PCOD9304360
_publ_section_title
;
Structure prediction by ZEFSAII (Michael W. Deem and Ramdas Pophale) SiO2 
 PCOD9304360
Probable space group: C 2/C
;
_chemical_formula_sum "Si O2"
_cell_formula_units_Z 56
_cell_length_a 9.138915
_cell_length_b 11.846611
_cell_length_c 28.433490
_cell_angle_alpha 90.000000
_cell_angle_beta 125.761072
_cell_angle_gamma 90.000000
_cell_volume 2497.966570
_symmetry_space_group_name_H-M "C 2/C"
_symmetry_group_IT_number 15
_symmetry_cell_setting 'monoclinic'
loop_
_space_group_symop_operation_xyz
x,y,z
-x,y,1/2-z
-x,-y,-z
x,-y,1/2+z
1/2+x,1/2+y,z
1/2-x,1/2+y,1/2-z
1/2-x,1/2-y,-z
1/2+x,1/2-y,1/2+z
loop_
_atom_site_type_symbol
_atom_site_label
_atom_site_fract_x
_atom_site_fract_y
_atom_site_fract_z
Si Si1 0.501845 0.931979 0.818782
Si Si2 0.546740 0.711505 0.570033
Si Si3 0.812658 0.124764 0.998339
Si Si4 0.396697 0.521900 0.601187
Si Si5 0.478855 0.956665 0.923422
Si Si6 0.805024 0.873224 0.811411
Si Si7 0.053732 0.697763 0.813242
O O1 0.462677 0.924376 0.865957
O O2 0.685852 0.873129 0.836217
O O3 0.339493 0.884325 0.757410
O O4 0.526289 0.063994 0.811384
O O5 0.573675 0.637643 0.528041
O O6 0.425701 0.644036 0.584276
O O7 0.481304 0.836521 0.544514
O O8 0.743616 0.722944 0.631559
O O9 0.639033 0.045624 0.957741
O O10 0.750000 0.250000 0.000000
O O11 0.909204 0.067682 0.060621
O O12 0.206382 0.505115 0.590653
O O13 0.563262 0.482065 0.664685
O O14 0.924437 0.763758 0.824741
O O15 0.000000 0.733143 0.750000
#
# Coordination Sequence:
#
# PCOD9304360 Si02
#       7
#     8   8   8   8   8   8   8
#     4  11  24  45  71 103 144 181 240 288 353 433
#     4  12  25  47  71 102 142 191 232 296 358 422
#     4  12  25  49  73  99 148 189 234 296 359 418
#     4  12  25  44  73 107 140 185 239 290 358 426
#     4  12  26  46  71 108 140 184 242 295 354 425
#     4  11  23  43  72 104 136 190 231 283 360 421
#     4  12  21  43  74  97 143 187 227 297 355 413
#
# _framework density 22.418234999999999
#
# number of rings (size 3 to 8) (size 9 to 14) (size 15 to 20)
#    0.000    0.286    7.143    1.714    0.000    1.714 
#    2.571    1.429    0.000    0.000    0.000    0.000 
#    0.000    0.000    0.000    0.000    0.000    0.000 
#
# Total GULP energy -156825.865884 kJ/mol
# GULP energy per Si atom -5600.923782 kJ/mol
# Density = 2.236721 g / cm^3
# Si number density = 22.418235 Si / 1000 Ang^3
#
#
#
# Elastic Constant Matrix: (Units=GPa)
#
#
# Indices 1 2 3 4 5 6 
#
# 1 146.3239 62.0259 35.7985 0.0000 -20.9590 0.0000
# 2 62.0259 95.4363 -4.6814 0.0000 5.6154 0.0000
# 3 35.7985 -4.6814 67.1743 0.0000 -6.8485 0.0000
# 4 0.0000 0.0000 0.0000 27.3055 0.0000 0.2909
# 5 -20.9590 5.6154 -6.8485 0.0000 31.9897 0.0000
# 6 0.0000 0.0000 0.0000 0.2909 0.0000 56.1236
#
#
#
# Elastic Compliance Matrix: (Units=1/GPa)
#
#
# Indices 1 2 3 4 5 6 
#
# 1 0.014382 -0.010277 -0.007397 0.000000 0.009643 0.000000
# 2 -0.010277 0.017952 0.005848 0.000000 -0.008633 0.000000
# 3 -0.007397 0.005848 0.019053 0.000000 -0.001794 0.000000
# 4 0.000000 0.000000 0.000000 0.036625 0.000000 -0.000190
# 5 0.009643 -0.008633 -0.001794 0.000000 0.038709 0.000000
# 6 0.000000 0.000000 0.000000 -0.000190 0.000000 0.017819
#
#
# Mechanical properties :
#
#
# Convention : Reuss Voigt Hill
#
# Bulk Modulus (GPa) = 36.05665 55.02452 45.54058
# Shear Modulus (GPa) = 28.17890 37.46986 32.82438
#
# Velocity S-wave (km/s) = 3.54921 4.09271 3.83061
# Velocity P-wave (km/s) = 5.73711 6.85066 6.31846
#
# Compressibility (1/GPa) = 0.02773414
#
# Stress axis : x y z
#
# Youngs Moduli (GPa) = 69.53358 55.70332 52.48391
#
# Poissons Ratio (x) = 0.57247 0.38824
# Poissons Ratio (y) = 0.71460 -0.30692
# Poissons Ratio (z) = 0.51436 -0.32574
#
# Static dielectric constant tensor:
#      x y z
#    x 1.806790 0.000000 -0.019290 
#    y 0.000000 1.824090 0.000000 
#    z -0.019290 0.000000 1.861630 
# 
# From -- ./inp_files/307571.got.cif
#   From: 2010.05.17/outbox.cif.g08.bks.cpg/sg15_154_cif.got.tgz:307571.got - 2010.06.03 18:47:42.
