data_PCOD9304070
_publ_section_title
;
Structure prediction by ZEFSAII (Michael W. Deem and Ramdas Pophale) SiO2 
 PCOD9304070
Probable space group: C 2/C
;
_chemical_formula_sum "Si O2"
_cell_formula_units_Z 40
_cell_length_a 12.678829
_cell_length_b 27.883118
_cell_length_c 9.324233
_cell_angle_alpha 90.000000
_cell_angle_beta 142.159068
_cell_angle_gamma 90.000000
_cell_volume 2022.217698
_symmetry_space_group_name_H-M "C 2/C"
_symmetry_group_IT_number 15
_symmetry_cell_setting 'monoclinic'
loop_
_space_group_symop_operation_xyz
x,y,z
-x,y,1/2-z
-x,-y,-z
x,-y,1/2+z
1/2+x,1/2+y,z
1/2-x,1/2+y,1/2-z
1/2-x,1/2-y,-z
1/2+x,1/2-y,1/2+z
loop_
_atom_site_type_symbol
_atom_site_label
_atom_site_fract_x
_atom_site_fract_y
_atom_site_fract_z
Si Si1 0.500000 0.897323 0.750000
Si Si2 0.500000 0.875332 0.250000
Si Si3 0.825963 0.955950 0.983369
Si Si4 0.396325 0.727820 0.759583
Si Si5 0.330345 0.557739 0.146463
Si Si6 0.113625 0.319083 0.097805
O O1 0.652929 0.927571 0.840823
O O2 0.415927 0.861667 0.545663
O O3 0.664132 0.908535 0.460331
O O4 0.555371 0.840652 0.182640
O O5 0.854812 0.954646 0.842022
O O6 0.000000 0.937814 0.250000
O O7 0.800400 0.009417 0.020875
O O8 0.500000 0.698388 0.750000
O O9 0.250000 0.750000 0.500000
O O10 0.309803 0.697433 0.790511
O O11 0.500653 0.772437 0.935503
O O12 0.500000 0.579360 0.250000
#
# Coordination Sequence:
#
# PCOD9304070 Si02
#       6
#     4   4   8   8   8   8
#     4  12  23  40  68 102 128 176 226 266 319 388
#     4  12  27  44  66 100 140 168 222 280 315 398
#     4  11  25  42  69  98 136 175 217 267 327 393
#     4   9  18  40  65  90 123 168 212 270 321 389
#     4  11  25  45  66  98 137 177 215 266 333 386
#     4  11  23  42  65  97 130 171 224 269 332 387
#
# _framework density 19.780265
#
# number of rings (size 3 to 8) (size 9 to 14) (size 15 to 20)
#    0.000    1.200    5.000    3.000    5.600    3.200 
#    7.200    0.000    0.000    0.000    0.000    0.000 
#    0.000    0.000    0.000    0.000    0.000    0.000 
#
# Total GULP energy -111532.220208 kJ/mol
# GULP energy per Si atom -5576.611010 kJ/mol
# Density = 1.973524 g / cm^3
# Si number density = 19.780265 Si / 1000 Ang^3
#
#
#
# Elastic Constant Matrix: (Units=GPa)
#
#
# Indices 1 2 3 4 5 6 
#
# 1 215.2549 74.3149 72.3973 0.0000 -7.2673 0.0000
# 2 74.3149 78.1389 40.1316 0.0000 6.7007 0.0000
# 3 72.3973 40.1316 75.0814 0.0000 -3.0725 0.0000
# 4 0.0000 0.0000 0.0000 2.5478 0.0000 -12.7933
# 5 -7.2673 6.7007 -3.0725 0.0000 46.2670 0.0000
# 6 0.0000 0.0000 0.0000 -12.7933 0.0000 15.6228
#
#
#
# Elastic Compliance Matrix: (Units=1/GPa)
#
#
# Indices 1 2 3 4 5 6 
#
# 1 0.008262 -0.005450 -0.004982 0.000000 0.001756 0.000000
# 2 -0.005450 0.021717 -0.006535 0.000000 -0.004435 0.000000
# 3 -0.004982 -0.006535 0.021681 0.000000 0.001604 0.000000
# 4 0.000000 0.000000 0.000000 -0.126127 0.000000 -0.103284
# 5 0.001756 -0.004435 0.001604 0.000000 0.022638 0.000000
# 6 0.000000 0.000000 0.000000 -0.103284 0.000000 -0.020569
#
#
# Mechanical properties :
#
#
# Convention : Reuss Voigt Hill
#
# Bulk Modulus (GPa) = 56.40836 82.46254 69.43545
# Shear Modulus (GPa) = -153.58263 24.99628 -64.29318
#
# Velocity S-wave (km/s) = -8.82116 3.55871 -5.70739
# Velocity P-wave (km/s) = 8.67013 7.65935 2.87276
#
# Compressibility (1/GPa) = 0.01772787
#
# Stress axis : x y z
#
# Youngs Moduli (GPa) = 121.03718 46.04669 46.12301
#
# Poissons Ratio (x) = 0.25093 0.22978
# Poissons Ratio (y) = 0.65960 0.30140
# Poissons Ratio (z) = 0.60299 0.30090
#
# Static dielectric constant tensor:
#      x y z
#    x 1.741810 0.000000 0.050260 
#    y 0.000000 1.645070 0.000000 
#    z 0.050260 0.000000 1.711060 
# 
# From -- ./inp_files/35492.got.cif
#   From: 2010.05.17/outbox.cif.g08.bks.cpg/sg15_18_cif.got.tgz:35492.got - 2010.06.03 18:47:42.
