data_PCOD9304174
_publ_section_title
;
Structure prediction by ZEFSAII (Michael W. Deem and Ramdas Pophale) SiO2 
 PCOD9304174
Probable space group: C 2/C
;
_chemical_formula_sum "Si O2"
_cell_formula_units_Z 64
_cell_length_a 14.526697
_cell_length_b 11.098259
_cell_length_c 29.656545
_cell_angle_alpha 90.000000
_cell_angle_beta 143.469569
_cell_angle_gamma 90.000000
_cell_volume 2846.042855
_symmetry_space_group_name_H-M "C 2/C"
_symmetry_group_IT_number 15
_symmetry_cell_setting 'monoclinic'
loop_
_space_group_symop_operation_xyz
x,y,z
-x,y,1/2-z
-x,-y,-z
x,-y,1/2+z
1/2+x,1/2+y,z
1/2-x,1/2+y,1/2-z
1/2-x,1/2-y,-z
1/2+x,1/2-y,1/2+z
loop_
_atom_site_type_symbol
_atom_site_label
_atom_site_fract_x
_atom_site_fract_y
_atom_site_fract_z
Si Si1 0.453417 0.996976 0.834175
Si Si2 0.613998 0.413515 0.192546
Si Si3 0.392172 0.796415 0.745506
Si Si4 0.380501 0.547685 0.163084
Si Si5 0.410750 0.330897 0.927389
Si Si6 0.067643 0.555210 0.572615
Si Si7 0.372485 0.176728 0.659117
Si Si8 0.959080 0.095529 0.934926
O O1 0.491332 0.886638 0.815672
O O2 0.268545 0.006945 0.751686
O O3 0.474137 0.991009 0.896342
O O4 0.546477 0.110021 0.850742
O O5 0.667865 0.304268 0.244842
O O6 0.471461 0.483751 0.158612
O O7 0.560438 0.362962 0.123635
O O8 0.500000 0.739403 0.750000
O O9 0.251552 0.849629 0.661538
O O10 0.500000 0.566514 0.250000
O O11 0.247657 0.466768 0.132740
O O12 0.331502 0.684202 0.132025
O O13 0.466516 0.197553 0.936310
O O14 0.501038 0.453319 0.949912
O O15 0.419631 0.337049 0.985287
O O16 0.000000 0.500000 0.500000
O O17 0.500000 0.168603 0.750000
O O18 0.211856 0.115050 0.610806
#
# Coordination Sequence:
#
# PCOD9304174 Si02
#       8
#     8   8   8   8   8   8   8   8
#     4  12  25  42  74 102 133 185 235 281 351 413
#     4  12  24  42  73 104 131 185 235 278 349 415
#     4  12  25  45  72 103 140 180 237 289 340 417
#     4  11  24  43  70 101 141 177 232 286 351 412
#     4  11  23  44  71  94 147 180 227 292 351 400
#     4  12  27  48  68 104 146 185 231 297 352 416
#     4  11  23  42  71 104 141 177 232 291 338 424
#     4  11  25  44  70 105 140 185 231 290 353 411
#
# _framework density 22.487362999999998
#
# number of rings (size 3 to 8) (size 9 to 14) (size 15 to 20)
#    0.000    0.500    5.000    3.000    7.000    0.000 
#    6.750    2.500    0.000    0.000    0.000    0.000 
#    0.000    0.000    0.000    0.000    0.000    0.000 
#
# Total GULP energy -178714.657225 kJ/mol
# GULP energy per Si atom -5584.833038 kJ/mol
# Density = 2.243618 g / cm^3
# Si number density = 22.487363 Si / 1000 Ang^3
#
#
#
# Elastic Constant Matrix: (Units=GPa)
#
#
# Indices 1 2 3 4 5 6 
#
# 1 107.5450 18.9568 44.3786 0.0000 -31.3030 0.0000
# 2 18.9568 75.4325 27.9080 0.0000 3.4210 0.0000
# 3 44.3786 27.9080 125.7287 0.0000 -36.5150 0.0000
# 4 0.0000 0.0000 0.0000 32.4083 0.0000 -8.0429
# 5 -31.3030 3.4210 -36.5150 0.0000 29.7451 0.0000
# 6 0.0000 0.0000 0.0000 -8.0429 0.0000 21.0772
#
#
#
# Elastic Compliance Matrix: (Units=1/GPa)
#
#
# Indices 1 2 3 4 5 6 
#
# 1 0.014789 -0.004794 0.000815 0.000000 0.017115 0.000000
# 2 -0.004794 0.017606 -0.006635 0.000000 -0.015215 0.000000
# 3 0.000815 -0.006635 0.014934 0.000000 0.019953 0.000000
# 4 0.000000 0.000000 0.000000 0.034084 0.000000 0.013006
# 5 0.017115 -0.015215 0.019953 0.000000 0.077875 0.000000
# 6 0.000000 0.000000 0.000000 0.013006 0.000000 0.052408
#
#
# Mechanical properties :
#
#
# Convention : Reuss Voigt Hill
#
# Bulk Modulus (GPa) = 38.31312 54.57699 46.44506
# Shear Modulus (GPa) = 20.69331 31.14363 25.91847
#
# Velocity S-wave (km/s) = 3.03680 3.72551 3.39865
# Velocity P-wave (km/s) = 5.41949 6.54436 6.00831
#
# Compressibility (1/GPa) = 0.02610072
#
# Stress axis : x y z
#
# Youngs Moduli (GPa) = 67.61794 56.79761 66.96308
#
# Poissons Ratio (x) = 0.27230 -0.05456
# Poissons Ratio (y) = 0.32418 0.44428
# Poissons Ratio (z) = -0.05510 0.37683
#
# Static dielectric constant tensor:
#      x y z
#    x 1.771550 0.000000 -0.023900 
#    y 0.000000 1.885470 0.000000 
#    z -0.023900 0.000000 1.854200 
# 
# From -- ./inp_files/296156.got.cif
#   From: 2010.05.17/outbox.cif.g08.bks.cpg/sg15_149_cif.got.tgz:296156.got - 2010.06.03 18:47:42.
