data_PCOD9304184
_publ_section_title
;
Structure prediction by ZEFSAII (Michael W. Deem and Ramdas Pophale) SiO2 
 PCOD9304184
Probable space group: C 2/C
;
_chemical_formula_sum "Si O2"
_cell_formula_units_Z 48
_cell_length_a 11.024423
_cell_length_b 22.610532
_cell_length_c 16.818371
_cell_angle_alpha 90.000000
_cell_angle_beta 31.068306
_cell_angle_gamma 90.000000
_cell_volume 2163.467789
_symmetry_space_group_name_H-M "C 2/C"
_symmetry_group_IT_number 15
_symmetry_cell_setting 'monoclinic'
loop_
_space_group_symop_operation_xyz
x,y,z
-x,y,1/2-z
-x,-y,-z
x,-y,1/2+z
1/2+x,1/2+y,z
1/2-x,1/2+y,1/2-z
1/2-x,1/2-y,-z
1/2+x,1/2-y,1/2+z
loop_
_atom_site_type_symbol
_atom_site_label
_atom_site_fract_x
_atom_site_fract_y
_atom_site_fract_z
Si Si1 0.275373 0.998107 0.314041
Si Si2 0.752794 0.371172 0.791494
Si Si3 0.679760 0.183673 0.959012
Si Si4 0.851500 0.187476 0.413684
Si Si5 0.367987 0.876774 0.172004
Si Si6 0.456838 0.308878 0.457546
O O1 0.500000 0.996672 0.250000
O O2 0.310780 0.940764 0.238959
O O3 0.293756 0.059784 0.256984
O O4 0.000000 0.000000 0.500000
O O5 0.521563 0.344439 0.880760
O O6 0.965776 0.335759 0.634698
O O7 0.706445 0.358167 0.910261
O O8 0.601181 0.247014 0.967892
O O9 0.712480 0.134700 0.873509
O O10 0.889290 0.196524 0.902511
O O11 0.750000 0.250000 0.500000
O O12 0.637305 0.142245 0.520879
O O13 0.000000 0.195863 0.250000
O O14 0.222938 0.830510 0.308270
#
# Coordination Sequence:
#
# PCOD9304184 Si02
#       6
#     8   8   8   8   8   8
#     4  12  27  51  77 107 150 211 271 322 392 486
#     4  12  25  45  73 103 143 202 248 306 386 470
#     4  11  23  43  68 109 145 185 242 316 385 455
#     4  12  27  47  74 113 156 197 250 323 400 473
#     4  12  26  44  71 108 145 197 256 317 382 458
#     4  11  23  42  72 104 147 189 242 307 389 469
#
# _framework density 22.186602000000001
#
# number of rings (size 3 to 8) (size 9 to 14) (size 15 to 20)
#    0.000    0.333    3.333    6.000    2.333    3.333 
#    0.000    0.000    0.000    0.000    0.000    0.000 
#    0.000    0.000    0.000    0.000    0.000    0.000 
#
# Total GULP energy -134198.225051 kJ/mol
# GULP energy per Si atom -5591.592710 kJ/mol
# Density = 2.213610 g / cm^3
# Si number density = 22.186602 Si / 1000 Ang^3
#
#
#
# Elastic Constant Matrix: (Units=GPa)
#
#
# Indices 1 2 3 4 5 6 
#
# 1 95.4637 54.9865 27.5590 -0.0097 -2.7656 0.0024
# 2 54.9865 166.5012 48.0199 -0.0051 -3.0501 0.0034
# 3 27.5590 48.0199 138.9242 -0.0271 -11.7218 0.0199
# 4 -0.0097 -0.0051 -0.0271 43.3057 0.0210 10.6055
# 5 -2.7656 -3.0501 -11.7218 0.0210 35.4264 -0.0041
# 6 0.0024 0.0034 0.0199 10.6055 -0.0041 34.8185
#
#
#
# Elastic Compliance Matrix: (Units=1/GPa)
#
#
# Indices 1 2 3 4 5 6 
#
# 1 0.013124 -0.003982 -0.001203 0.000002 0.000284 0.000000
# 2 -0.003982 0.007880 -0.001958 -0.000001 -0.000280 0.000001
# 3 -0.001203 -0.001958 0.008324 0.000005 0.002492 -0.000006
# 4 0.000002 -0.000001 0.000005 0.024953 -0.000014 -0.007601
# 5 0.000284 -0.000280 0.002492 -0.000014 0.029050 0.000006
# 6 0.000000 0.000001 -0.000006 -0.007601 0.000006 0.031035
#
#
# Mechanical properties :
#
#
# Convention : Reuss Voigt Hill
#
# Bulk Modulus (GPa) = 66.47679 73.55779 70.01729
# Shear Modulus (GPa) = 37.40634 40.73172 39.06903
#
# Velocity S-wave (km/s) = 4.11053 4.28935 4.20089
# Velocity P-wave (km/s) = 7.24957 7.59984 7.42677
#
# Compressibility (1/GPa) = 0.01504284
#
# Stress axis : x y z
#
# Youngs Moduli (GPa) = 76.19395 126.89552 120.13815
#
# Poissons Ratio (x) = 0.50531 0.14455
# Poissons Ratio (y) = 0.30341 0.23519
# Poissons Ratio (z) = 0.09167 0.24841
#
# Static dielectric constant tensor:
#      x y z
#    x 1.977280 -0.000040 -0.026740 
#    y -0.000040 1.787010 0.000030 
#    z -0.026740 0.000030 1.841500 
# 
# From -- ./inp_files/200881.got.cif
#   From: 2010.05.17/outbox.cif.g08.bks.cpg/sg15_101_cif.got.tgz:200881.got - 2010.06.03 18:47:42.
