data_PCOD9304018
_publ_section_title
;
Structure prediction by ZEFSAII (Michael W. Deem and Ramdas Pophale) SiO2 
 PCOD9304018
Probable space group: C 2/C
;
_chemical_formula_sum "Si O2"
_cell_formula_units_Z 36
_cell_length_a 26.714864
_cell_length_b 14.029152
_cell_length_c 21.774375
_cell_angle_alpha 90.000000
_cell_angle_beta 167.501996
_cell_angle_gamma 90.000000
_cell_volume 1766.032075
_symmetry_space_group_name_H-M "C 2/C"
_symmetry_group_IT_number 15
_symmetry_cell_setting 'monoclinic'
loop_
_space_group_symop_operation_xyz
x,y,z
-x,y,1/2-z
-x,-y,-z
x,-y,1/2+z
1/2+x,1/2+y,z
1/2-x,1/2+y,1/2-z
1/2-x,1/2-y,-z
1/2+x,1/2-y,1/2+z
loop_
_atom_site_type_symbol
_atom_site_label
_atom_site_fract_x
_atom_site_fract_y
_atom_site_fract_z
Si Si1 0.120676 0.648737 0.830861
Si Si2 0.000000 0.007167 0.750000
Si Si3 0.790505 0.838700 0.761167
Si Si4 0.753987 0.619159 0.744661
Si Si5 0.760053 0.448242 0.670450
O O1 0.000000 0.622788 0.750000
O O2 0.928218 0.656591 0.546758
O O3 0.250000 0.750000 0.000000
O O4 0.294203 0.564854 0.020713
O O5 0.924256 0.071846 0.602269
O O6 0.821158 0.726819 0.810330
O O7 0.758831 0.889964 0.788763
O O8 0.020496 0.879866 0.004287
O O9 0.717962 0.557641 0.640014
O O10 0.981586 0.569300 0.045610
#
# Coordination Sequence:
#
# PCOD9304018 Si02
#       5
#     8   4   8   8   8
#     4  12  24  37  65 103 138 167 209 279 344 402
#     4  12  26  44  62  98 136 176 222 276 334 384
#     4  12  23  43  69 100 134 177 223 267 340 401
#     4  11  23  41  70  99 131 175 222 274 331 403
#     4  11  25  44  67  96 136 179 222 277 326 398
#
# _framework density 20.384682000000002
#
# number of rings (size 3 to 8) (size 9 to 14) (size 15 to 20)
#    0.000    0.444    3.333    7.333    0.000    1.778 
#    0.000    1.111    0.000    0.000    0.000    0.000 
#    0.000    0.000    0.000    0.000    0.000    0.000 
#
# Total GULP energy -100638.196014 kJ/mol
# GULP energy per Si atom -5591.010890 kJ/mol
# Density = 2.033829 g / cm^3
# Si number density = 20.384682 Si / 1000 Ang^3
#
#
#
# Elastic Constant Matrix: (Units=GPa)
#
#
# Indices 1 2 3 4 5 6 
#
# 1 125.2122 45.2476 87.2463 -0.0033 -12.8134 0.0013
# 2 45.2476 81.3337 40.3694 -0.0341 -8.3563 -0.0207
# 3 87.2463 40.3694 146.4627 -0.1375 -2.9660 -0.0329
# 4 -0.0033 -0.0341 -0.1375 24.5641 -0.0218 2.0546
# 5 -12.8134 -8.3563 -2.9660 -0.0218 49.8368 0.0027
# 6 0.0013 -0.0207 -0.0329 2.0546 0.0027 21.5831
#
#
#
# Elastic Compliance Matrix: (Units=1/GPa)
#
#
# Indices 1 2 3 4 5 6 
#
# 1 0.015321 -0.004332 -0.007877 -0.000044 0.002744 -0.000013
# 2 -0.004332 0.015704 -0.001719 0.000012 0.001417 0.000011
# 3 -0.007877 -0.001719 0.011962 0.000061 -0.001602 0.000011
# 4 -0.000044 0.000012 0.000061 0.041037 0.000012 -0.003906
# 5 0.002744 0.001417 -0.001602 0.000012 0.020913 -0.000005
# 6 -0.000013 0.000011 0.000011 -0.003906 -0.000005 0.046704
#
#
# Mechanical properties :
#
#
# Convention : Reuss Voigt Hill
#
# Bulk Modulus (GPa) = 66.09379 77.63724 71.86551
# Shear Modulus (GPa) = 27.09409 31.20648 29.15029
#
# Velocity S-wave (km/s) = 3.64969 3.91689 3.78565
# Velocity P-wave (km/s) = 7.08900 7.65668 7.37830
#
# Compressibility (1/GPa) = 0.01513001
#
# Stress axis : x y z
#
# Youngs Moduli (GPa) = 65.26790 63.67846 83.60076
#
# Poissons Ratio (x) = 0.27585 0.65855
# Poissons Ratio (y) = 0.28273 0.14373
# Poissons Ratio (z) = 0.51414 0.10948
#
# Static dielectric constant tensor:
#      x y z
#    x 1.734750 -0.000010 0.012430 
#    y -0.000010 1.750020 -0.000010 
#    z 0.012430 -0.000010 1.770840 
# 
# From -- ./inp_files/249060.got.cif
#   From: 2010.05.17/outbox.cif.g08.bks.cpg/sg15_125_cif.got.tgz:249060.got - 2010.06.03 18:47:42.
