data_PCOD9304575
_publ_section_title
;
Structure prediction by ZEFSAII (Michael W. Deem and Ramdas Pophale) SiO2 
 PCOD9304575
Probable space group: C 2/C
;
_chemical_formula_sum "Si O2"
_cell_formula_units_Z 48
_cell_length_a 20.843153
_cell_length_b 16.459458
_cell_length_c 16.282592
_cell_angle_alpha 90.000000
_cell_angle_beta 22.941467
_cell_angle_gamma 90.000000
_cell_volume 2177.377773
_symmetry_space_group_name_H-M "C 2/C"
_symmetry_group_IT_number 15
_symmetry_cell_setting 'monoclinic'
loop_
_space_group_symop_operation_xyz
x,y,z
-x,y,1/2-z
-x,-y,-z
x,-y,1/2+z
1/2+x,1/2+y,z
1/2-x,1/2+y,1/2-z
1/2-x,1/2-y,-z
1/2+x,1/2-y,1/2+z
loop_
_atom_site_type_symbol
_atom_site_label
_atom_site_fract_x
_atom_site_fract_y
_atom_site_fract_z
Si Si1 0.021602 0.309057 0.984262
Si Si2 0.805586 0.000655 0.741221
Si Si3 0.715579 0.675438 0.198383
Si Si4 0.471548 0.897958 0.876986
Si Si5 0.311395 0.039710 0.799099
Si Si6 0.750000 0.750000 0.000000
Si Si7 0.500000 0.616514 0.250000
O O1 0.956206 0.220291 0.084458
O O2 0.908683 0.375111 0.168352
O O3 0.009905 0.333355 0.903236
O O4 0.200121 0.315206 0.811660
O O5 0.771101 0.919627 0.832406
O O6 0.716398 0.000156 0.757477
O O7 0.000000 0.000000 0.500000
O O8 0.718803 0.075420 0.888179
O O9 0.817784 0.727622 0.012209
O O10 0.500000 0.873207 0.750000
O O11 0.583187 0.977926 0.769060
O O12 0.131777 0.062027 0.045338
O O13 0.878452 0.826652 0.839930
#
# Coordination Sequence:
#
# PCOD9304575 Si02
#       7
#     8   8   8   8   8   4   4
#     4  11  24  45  66  95 137 185 219 278 347 417
#     4  11  24  43  72 100 130 185 230 284 347 410
#     4  12  24  43  66  96 141 176 221 275 348 415
#     4  11  25  46  71  95 135 182 236 287 345 405
#     4  11  23  45  64  98 139 181 227 276 350 416
#     4  12  26  38  60 110 138 178 216 282 346 422
#     4  12  26  38  64 104 146 170 234 280 340 426
#
# _framework density 22.044865999999999
#
# number of rings (size 3 to 8) (size 9 to 14) (size 15 to 20)
#    0.000    0.667    5.000    3.000    9.333    0.000 
#    0.000    0.833    1.833    0.000    0.000    0.000 
#    0.000    0.000    0.000    0.000    0.000    0.000 
#
# Total GULP energy -133612.717194 kJ/mol
# GULP energy per Si atom -5567.196550 kJ/mol
# Density = 2.199469 g / cm^3
# Si number density = 22.044866 Si / 1000 Ang^3
#
#
#
# Elastic Constant Matrix: (Units=GPa)
#
#
# Indices 1 2 3 4 5 6 
#
# 1 62.0239 4.5212 1.7664 -0.0011 22.4015 0.0010
# 2 4.5212 32.6918 -7.5970 -0.0005 8.2020 0.0008
# 3 1.7664 -7.5970 68.9492 -0.0001 14.1117 0.0010
# 4 -0.0011 -0.0005 -0.0001 25.6997 0.0001 -4.9518
# 5 22.4015 8.2020 14.1117 0.0001 40.6964 -0.0005
# 6 0.0010 0.0008 0.0010 -4.9518 -0.0005 34.2201
#
#
#
# Elastic Compliance Matrix: (Units=1/GPa)
#
#
# Indices 1 2 3 4 5 6 
#
# 1 0.020367 0.000675 0.002018 0.000001 -0.012047 -0.000001
# 2 0.000675 0.034109 0.005623 0.000001 -0.009196 -0.000001
# 3 0.002018 0.005623 0.016717 0.000000 -0.008041 -0.000001
# 4 0.000001 0.000001 0.000000 0.040027 -0.000001 0.005792
# 5 -0.012047 -0.009196 -0.008041 -0.000001 0.035845 0.000001
# 6 -0.000001 -0.000001 -0.000001 0.005792 0.000001 0.030061
#
#
# Mechanical properties :
#
#
# Convention : Reuss Voigt Hill
#
# Bulk Modulus (GPa) = 11.38624 17.89400 14.64012
# Shear Modulus (GPa) = 26.34776 31.12152 28.73464
#
# Velocity S-wave (km/s) = 3.46090 3.76138 3.61427
# Velocity P-wave (km/s) = 4.59855 5.19603 4.90639
#
# Compressibility (1/GPa) = 0.08782527
#
# Stress axis : x y z
#
# Youngs Moduli (GPa) = 49.09839 29.31769 59.81937
#
# Poissons Ratio (x) = -0.01978 -0.12073
# Poissons Ratio (y) = -0.03313 -0.33636
# Poissons Ratio (z) = -0.09909 -0.16485
#
# Static dielectric constant tensor:
#      x y z
#    x 1.892300 0.000000 0.033880 
#    y 0.000000 1.766330 0.000000 
#    z 0.033880 0.000000 1.822160 
# 
# From -- ./inp_files/219969.got.cif
#   From: 2010.05.17/outbox.cif.g08.bks.cpg/sg15_110_cif.got.tgz:219969.got - 2010.06.03 18:47:42.
