data_PCOD9304352
_publ_section_title
;
Structure prediction by ZEFSAII (Michael W. Deem and Ramdas Pophale) SiO2 
 PCOD9304352
Probable space group: C 2/C
;
_chemical_formula_sum "Si O2"
_cell_formula_units_Z 40
_cell_length_a 11.680552
_cell_length_b 17.533648
_cell_length_c 9.041129
_cell_angle_alpha 90.000000
_cell_angle_beta 86.119979
_cell_angle_gamma 90.000000
_cell_volume 1847.403418
_symmetry_space_group_name_H-M "C 2/C"
_symmetry_group_IT_number 15
_symmetry_cell_setting 'monoclinic'
loop_
_space_group_symop_operation_xyz
x,y,z
-x,y,1/2-z
-x,-y,-z
x,-y,1/2+z
1/2+x,1/2+y,z
1/2-x,1/2+y,1/2-z
1/2-x,1/2-y,-z
1/2+x,1/2-y,1/2+z
loop_
_atom_site_type_symbol
_atom_site_label
_atom_site_fract_x
_atom_site_fract_y
_atom_site_fract_z
Si Si1 0.247236 0.019658 0.688253
Si Si2 0.384246 0.146195 0.824523
Si Si3 0.384658 0.129260 0.167448
Si Si4 0.316191 0.712031 0.133097
Si Si5 0.098399 0.056405 0.431279
O O1 0.281930 0.088915 0.791293
O O2 0.206468 0.048689 0.533470
O O3 0.349523 0.959570 0.662953
O O4 0.140585 0.975903 0.771453
O O5 0.500000 0.109582 0.750000
O O6 0.367216 0.222368 0.731447
O O7 0.393727 0.158205 0.998421
O O8 0.500000 0.140220 0.250000
O O9 0.281291 0.170121 0.262050
O O10 0.411821 0.648177 0.080644
O O11 0.250000 0.750000 0.000000
O O12 0.000000 0.000000 0.500000
#
# Coordination Sequence:
#
# PCOD9304352 Si02
#       5
#     8   8   8   8   8
#     4  11  23  43  71  99 141 179 240 294 353 431
#     4  12  25  43  69 101 140 189 231 294 362 427
#     4  11  25  44  70 104 138 184 236 292 361 427
#     4  11  24  46  69 100 147 183 237 297 356 433
#     4  11  24  45  71 102 137 189 238 295 359 430
#
# _framework density 21.652010000000001
#
# number of rings (size 3 to 8) (size 9 to 14) (size 15 to 20)
#    0.000    0.800    4.000    3.000    2.800    4.800 
#    7.200    0.000    0.000    0.000    0.000    0.000 
#    0.000    0.000    0.000    0.000    0.000    0.000 
#
# Total GULP energy -111809.463872 kJ/mol
# GULP energy per Si atom -5590.473194 kJ/mol
# Density = 2.160273 g / cm^3
# Si number density = 21.652010 Si / 1000 Ang^3
#
#
#
# Elastic Constant Matrix: (Units=GPa)
#
#
# Indices 1 2 3 4 5 6 
#
# 1 60.8732 24.7821 16.5561 0.0000 6.3511 0.0000
# 2 24.7821 137.1613 41.5899 0.0000 10.1388 0.0000
# 3 16.5561 41.5899 152.0077 0.0000 20.1203 0.0000
# 4 0.0000 0.0000 0.0000 31.1279 0.0000 -6.1782
# 5 6.3511 10.1388 20.1203 0.0000 40.3469 0.0000
# 6 0.0000 0.0000 0.0000 -6.1782 0.0000 28.2642
#
#
#
# Elastic Compliance Matrix: (Units=1/GPa)
#
#
# Indices 1 2 3 4 5 6 
#
# 1 0.018018 -0.002841 -0.000968 0.000000 -0.001640 0.000000
# 2 -0.002841 0.008434 -0.001902 0.000000 -0.000724 0.000000
# 3 -0.000968 -0.001902 0.007624 0.000000 -0.003172 0.000000
# 4 0.000000 0.000000 0.000000 0.033582 0.000000 0.007341
# 5 -0.001640 -0.000724 -0.003172 0.000000 0.026807 0.000000
# 6 0.000000 0.000000 0.000000 0.007341 0.000000 0.036985
#
#
# Mechanical properties :
#
#
# Convention : Reuss Voigt Hill
#
# Bulk Modulus (GPa) = 44.14182 57.32203 50.73192
# Shear Modulus (GPa) = 33.23899 37.75542 35.49720
#
# Velocity S-wave (km/s) = 3.92234 4.18034 4.05339
# Velocity P-wave (km/s) = 6.39877 7.05918 6.73707
#
# Compressibility (1/GPa) = 0.02265425
#
# Stress axis : x y z
#
# Youngs Moduli (GPa) = 55.49853 118.56344 131.15767
#
# Poissons Ratio (x) = 0.33681 0.12699
# Poissons Ratio (y) = 0.15766 0.24952
# Poissons Ratio (z) = 0.05374 0.22556
#
# Static dielectric constant tensor:
#      x y z
#    x 1.815310 0.000000 -0.002310 
#    y 0.000000 1.809870 0.000000 
#    z -0.002310 0.000000 1.747810 
# 
# From -- ./inp_files/29081.got.cif
#   From: 2010.05.17/outbox.cif.g08.bks.cpg/sg15_15_cif.got.tgz:29081.got - 2010.06.03 18:47:42.
