data_PCOD9304409
_publ_section_title
;
Structure prediction by ZEFSAII (Michael W. Deem and Ramdas Pophale) SiO2 
 PCOD9304409
Probable space group: C 2/C
;
_chemical_formula_sum "Si O2"
_cell_formula_units_Z 32
_cell_length_a 4.959277
_cell_length_b 21.185334
_cell_length_c 16.379662
_cell_angle_alpha 90.000000
_cell_angle_beta 129.626203
_cell_angle_gamma 90.000000
_cell_volume 1325.483541
_symmetry_space_group_name_H-M "C 2/C"
_symmetry_group_IT_number 15
_symmetry_cell_setting 'monoclinic'
loop_
_space_group_symop_operation_xyz
x,y,z
-x,y,1/2-z
-x,-y,-z
x,-y,1/2+z
1/2+x,1/2+y,z
1/2-x,1/2+y,1/2-z
1/2-x,1/2-y,-z
1/2+x,1/2-y,1/2+z
loop_
_atom_site_type_symbol
_atom_site_label
_atom_site_fract_x
_atom_site_fract_y
_atom_site_fract_z
Si Si1 0.003684 0.130040 0.073633
Si Si2 0.625106 0.357058 0.132465
Si Si3 0.000000 0.470816 0.750000
Si Si4 0.000000 0.058285 0.750000
Si Si5 0.369018 0.790365 0.868345
O O1 0.183027 0.071799 0.154492
O O2 0.323658 0.179213 0.124523
O O3 0.704353 0.166331 0.066477
O O4 0.891447 0.113293 0.960192
O O5 0.404560 0.396932 0.155049
O O6 0.545704 0.283132 0.103102
O O7 0.000000 0.357124 0.250000
O O8 0.819349 0.514213 0.783316
O O9 0.000000 0.793710 0.750000
#
# Coordination Sequence:
#
# PCOD9304409 Si02
#       5
#     8   8   4   4   8
#     4  12  25  46  74 108 138 184 231 299 351 419
#     4  11  28  46  72 104 148 182 235 285 363 419
#     4  12  26  47  72  99 140 190 250 284 340 408
#     4  12  28  49  66 103 142 198 240 282 340 420
#     4  11  23  43  76 108 142 174 229 294 369 421
#
# _framework density 24.142132
#
# number of rings (size 3 to 8) (size 9 to 14) (size 15 to 20)
#    0.000    0.500    3.750    3.000   10.500    2.000 
#    0.000    0.000    0.000    0.000    0.000    0.000 
#    0.000    0.000    0.000    0.000    0.000    0.000 
#
# Total GULP energy -89626.669824 kJ/mol
# GULP energy per Si atom -5601.666864 kJ/mol
# Density = 2.408718 g / cm^3
# Si number density = 24.142132 Si / 1000 Ang^3
#
#
#
# Elastic Constant Matrix: (Units=GPa)
#
#
# Indices 1 2 3 4 5 6 
#
# 1 132.0683 65.5320 21.2093 0.0000 -16.4926 0.0000
# 2 65.5320 159.1502 63.7023 0.0000 -20.1913 0.0000
# 3 21.2093 63.7023 144.8780 0.0000 -27.5474 0.0000
# 4 0.0000 0.0000 0.0000 31.8177 0.0000 -17.0677
# 5 -16.4926 -20.1913 -27.5474 0.0000 49.4814 0.0000
# 6 0.0000 0.0000 0.0000 -17.0677 0.0000 66.4011
#
#
#
# Elastic Compliance Matrix: (Units=1/GPa)
#
#
# Indices 1 2 3 4 5 6 
#
# 1 0.009707 -0.004037 0.000734 0.000000 0.001996 0.000000
# 2 -0.004037 0.009391 -0.003428 0.000000 0.000578 0.000000
# 3 0.000734 -0.003428 0.009040 0.000000 0.003878 0.000000
# 4 0.000000 0.000000 0.000000 0.036456 0.000000 0.009370
# 5 0.001996 0.000578 0.003878 0.000000 0.023270 0.000000
# 6 0.000000 0.000000 0.000000 0.009370 0.000000 0.017469
#
#
# Mechanical properties :
#
#
# Convention : Reuss Voigt Hill
#
# Bulk Modulus (GPa) = 68.14794 81.88708 75.01751
# Shear Modulus (GPa) = 40.42466 48.58357 44.50411
#
# Velocity S-wave (km/s) = 4.09644 4.49084 4.29817
# Velocity P-wave (km/s) = 7.11783 7.80273 7.46813
#
# Compressibility (1/GPa) = 0.01467396
#
# Stress axis : x y z
#
# Youngs Moduli (GPa) = 103.02304 106.48108 110.62155
#
# Poissons Ratio (x) = 0.42989 -0.08117
# Poissons Ratio (y) = 0.41593 0.37926
# Poissons Ratio (z) = -0.07559 0.36506
#
# Static dielectric constant tensor:
#      x y z
#    x 1.961020 0.000000 0.071520 
#    y 0.000000 1.921520 0.000000 
#    z 0.071520 0.000000 2.004710 
# 
# From -- ./inp_files/71952.got.cif
#   From: 2010.05.17/outbox.cif.g08.bks.cpg/sg15_36_cif.got.tgz:71952.got - 2010.06.03 18:47:42.
