data_PCOD9304801
_publ_section_title
;
Structure prediction by ZEFSAII (Michael W. Deem and Ramdas Pophale) SiO2 
 PCOD9304801
Probable space group: C 2/C
;
_chemical_formula_sum "Si O2"
_cell_formula_units_Z 36
_cell_length_a 7.905913
_cell_length_b 21.869971
_cell_length_c 11.604768
_cell_angle_alpha 90.000000
_cell_angle_beta 139.019862
_cell_angle_gamma 90.000000
_cell_volume 1315.849947
_symmetry_space_group_name_H-M "C 2/C"
_symmetry_group_IT_number 15
_symmetry_cell_setting 'monoclinic'
loop_
_space_group_symop_operation_xyz
x,y,z
-x,y,1/2-z
-x,-y,-z
x,-y,1/2+z
1/2+x,1/2+y,z
1/2-x,1/2+y,1/2-z
1/2-x,1/2-y,-z
1/2+x,1/2-y,1/2+z
loop_
_atom_site_type_symbol
_atom_site_label
_atom_site_fract_x
_atom_site_fract_y
_atom_site_fract_z
Si Si1 0.720415 0.482739 0.460343
Si Si2 0.065844 0.902099 0.995787
Si Si3 0.578987 0.126420 0.098550
Si Si4 0.500000 0.787341 0.750000
Si Si5 0.865854 0.298348 0.289206
O O1 0.500000 0.486851 0.250000
O O2 0.599928 0.443546 0.502356
O O3 0.759082 0.550075 0.532996
O O4 0.956565 0.441389 0.537367
O O5 0.191912 0.848776 0.135276
O O6 0.138741 0.877508 0.702181
O O7 0.410522 0.167333 0.102494
O O8 0.556100 0.163213 0.968628
O O9 0.293196 0.745425 0.708656
O O10 0.000000 0.265309 0.250000
#
# Coordination Sequence:
#
# PCOD9304801 Si02
#       5
#     8   8   8   4   8
#     4  11  23  46  77 116 161 213 278 331 413 505
#     4  11  26  46  77 118 161 214 274 336 416 492
#     4  12  26  51  83 116 164 227 273 342 422 490
#     4  12  28  54  90 114 166 226 280 338 420 492
#     4  12  30  52  81 124 165 215 285 347 406 493
#
# _framework density 27.358743
#
# number of rings (size 3 to 8) (size 9 to 14) (size 15 to 20)
#    0.000    0.444    4.444    2.000    6.222    5.333 
#    0.000    0.000    0.000    0.000    0.000    0.000 
#    0.000    0.000    0.000    0.000    0.000    0.000 
#
# Total GULP energy -101090.853889 kJ/mol
# GULP energy per Si atom -5616.158549 kJ/mol
# Density = 2.729647 g / cm^3
# Si number density = 27.358743 Si / 1000 Ang^3
#
#
#
# Elastic Constant Matrix: (Units=GPa)
#
#
# Indices 1 2 3 4 5 6 
#
# 1 144.9446 65.8020 32.5240 0.0000 -38.2097 0.0000
# 2 65.8020 198.6262 63.6221 0.0000 -1.8508 0.0000
# 3 32.5240 63.6221 190.9345 0.0000 -5.2828 0.0000
# 4 0.0000 0.0000 0.0000 39.7062 0.0000 -2.8058
# 5 -38.2097 -1.8508 -5.2828 0.0000 46.4978 0.0000
# 6 0.0000 0.0000 0.0000 -2.8058 0.0000 56.4297
#
#
#
# Elastic Compliance Matrix: (Units=1/GPa)
#
#
# Indices 1 2 3 4 5 6 
#
# 1 0.010824 -0.003349 -0.000487 0.000000 0.008706 0.000000
# 2 -0.003349 0.006672 -0.001727 0.000000 -0.002682 0.000000
# 3 -0.000487 -0.001727 0.005901 0.000000 0.000202 0.000000
# 4 0.000000 0.000000 0.000000 0.025274 0.000000 0.001257
# 5 0.008706 -0.002682 0.000202 0.000000 0.028576 0.000000
# 6 0.000000 0.000000 0.000000 0.001257 0.000000 0.017784
#
#
# Mechanical properties :
#
#
# Convention : Reuss Voigt Hill
#
# Bulk Modulus (GPa) = 81.48767 95.37792 88.43280
# Shear Modulus (GPa) = 45.35269 53.36390 49.35829
#
# Velocity S-wave (km/s) = 4.07591 4.42127 4.25209
# Velocity P-wave (km/s) = 7.21112 7.81032 7.51669
#
# Compressibility (1/GPa) = 0.01227180
#
# Stress axis : x y z
#
# Youngs Moduli (GPa) = 92.39038 149.87733 169.45077
#
# Poissons Ratio (x) = 0.50188 0.08253
# Poissons Ratio (y) = 0.30938 0.29265
# Poissons Ratio (z) = 0.04500 0.25885
#
# Static dielectric constant tensor:
#      x y z
#    x 2.230760 0.000000 0.001300 
#    y 0.000000 2.118370 0.000000 
#    z 0.001300 0.000000 2.048140 
# 
# From -- ./inp_files/78005.got.cif
#   From: 2010.05.17/outbox.cif.g08.bks.cpg/sg15_40_cif.got.tgz:78005.got - 2010.06.03 18:47:42.
