data_PCOD9304814
_publ_section_title
;
Structure prediction by ZEFSAII (Michael W. Deem and Ramdas Pophale) SiO2 
 PCOD9304814
Probable space group: C 2/C
;
_chemical_formula_sum "Si O2"
_cell_formula_units_Z 64
_cell_length_a 9.296969
_cell_length_b 18.352119
_cell_length_c 30.119690
_cell_angle_alpha 90.000000
_cell_angle_beta 143.435278
_cell_angle_gamma 90.000000
_cell_volume 3061.455131
_symmetry_space_group_name_H-M "C 2/C"
_symmetry_group_IT_number 15
_symmetry_cell_setting 'monoclinic'
loop_
_space_group_symop_operation_xyz
x,y,z
-x,y,1/2-z
-x,-y,-z
x,-y,1/2+z
1/2+x,1/2+y,z
1/2-x,1/2+y,1/2-z
1/2-x,1/2-y,-z
1/2+x,1/2-y,1/2+z
loop_
_atom_site_type_symbol
_atom_site_label
_atom_site_fract_x
_atom_site_fract_y
_atom_site_fract_z
Si Si1 0.221801 0.526582 0.694627
Si Si2 0.751690 0.388709 0.211724
Si Si3 0.245197 0.079489 0.545317
Si Si4 0.276915 0.857656 0.804637
Si Si5 0.711100 0.746076 0.766805
Si Si6 0.942997 0.955192 0.055228
Si Si7 0.740558 0.243687 0.944746
Si Si8 0.079729 0.319394 0.961581
O O1 0.500000 0.536825 0.750000
O O2 0.194266 0.551242 0.738043
O O3 0.155703 0.442136 0.675503
O O4 0.035072 0.573164 0.619326
O O5 0.675161 0.318141 0.221418
O O6 0.575202 0.426655 0.132389
O O7 0.000000 0.366431 0.250000
O O8 0.160597 0.161358 0.533841
O O9 0.139591 0.043891 0.564093
O O10 0.164786 0.036401 0.480854
O O11 0.311100 0.821492 0.765516
O O12 0.423191 0.816583 0.878434
O O13 0.000000 0.851731 0.750000
O O14 0.500000 0.738957 0.750000
O O15 0.974407 0.743710 0.855950
O O16 0.728700 0.895081 0.997871
O O17 0.905822 0.303040 0.960546
O O18 0.750000 0.250000 0.000000
O O19 0.250000 0.250000 0.000000
#
# Coordination Sequence:
#
# PCOD9304814 Si02
#       8
#     8   8   8   8   8   8   8   8
#     4  11  24  43  71  98 141 185 228 293 352 416
#     4  12  24  44  72 100 132 187 240 282 345 430
#     4  11  23  47  66 105 144 180 229 300 355 414
#     4  11  24  46  71  98 141 187 239 290 352 427
#     4  12  27  44  70 102 140 183 236 294 352 417
#     4  11  24  42  75 103 134 183 239 289 348 423
#     4  12  28  45  68 104 151 183 226 296 365 420
#     4  12  24  44  72 105 135 188 240 288 349 437
#
# _framework density 20.905092
#
# number of rings (size 3 to 8) (size 9 to 14) (size 15 to 20)
#    0.000    0.500    6.250    1.500    3.500    1.500 
#    0.000    1.250    0.000    0.000    0.000    0.000 
#    0.000    0.000    0.000    0.000    0.000    0.000 
#
# Total GULP energy -178557.136520 kJ/mol
# GULP energy per Si atom -5579.910516 kJ/mol
# Density = 2.085751 g / cm^3
# Si number density = 20.905092 Si / 1000 Ang^3
#
#
#
# Elastic Constant Matrix: (Units=GPa)
#
#
# Indices 1 2 3 4 5 6 
#
# 1 108.8827 16.7918 7.5183 -0.0007 2.7906 0.0012
# 2 16.7918 42.6750 5.7414 -0.0014 13.8375 0.0024
# 3 7.5183 5.7414 71.0954 -0.0027 -9.4397 0.0038
# 4 -0.0007 -0.0014 -0.0027 1.3644 0.0000 43.1612
# 5 2.7906 13.8375 -9.4397 0.0000 20.2193 0.0000
# 6 0.0012 0.0024 0.0038 43.1612 0.0000 -62.5340
#
#
#
# Elastic Compliance Matrix: (Units=1/GPa)
#
#
# Indices 1 2 3 4 5 6 
#
# 1 0.009838 -0.004214 -0.000530 0.000000 0.001279 0.000000
# 2 -0.004214 0.034092 -0.005680 0.000000 -0.025402 0.000001
# 3 -0.000530 -0.005680 0.016105 0.000000 0.011479 0.000001
# 4 0.000000 0.000000 0.000000 0.032098 0.000000 0.022154
# 5 0.001279 -0.025402 0.011479 0.000000 0.072025 0.000000
# 6 0.000000 0.000001 0.000001 0.022154 0.000000 -0.000700
#
#
# Mechanical properties :
#
#
# Convention : Reuss Voigt Hill
#
# Bulk Modulus (GPa) = 25.52002 31.41737 28.46869
# Shear Modulus (GPa) = 25.33330 4.65004 14.99167
#
# Velocity S-wave (km/s) = 3.48490 1.49305 2.68083
# Velocity P-wave (km/s) = 5.33168 4.24658 4.81976
#
# Compressibility (1/GPa) = 0.03918492
#
# Stress axis : x y z
#
# Youngs Moduli (GPa) = 101.64694 29.33227 62.09423
#
# Poissons Ratio (x) = 0.12362 0.03292
# Poissons Ratio (y) = 0.42838 0.35271
# Poissons Ratio (z) = 0.05390 0.16661
#
# Static dielectric constant tensor:
#      x y z
#    x 1.750080 -0.000010 0.107410 
#    y -0.000010 2.265590 0.000010 
#    z 0.107410 0.000010 1.637300 
# 
# From -- ./inp_files/308800.got.cif
#   From: 2010.05.17/outbox.cif.g08.bks.cpg/sg15_155_cif.got.tgz:308800.got - 2010.06.03 18:47:42.
