data_PCOD9304140
_publ_section_title
;
Structure prediction by ZEFSAII (Michael W. Deem and Ramdas Pophale) SiO2 
 PCOD9304140
Probable space group: C 2/C
;
_chemical_formula_sum "Si O2"
_cell_formula_units_Z 52
_cell_length_a 8.672914
_cell_length_b 30.243617
_cell_length_c 14.433695
_cell_angle_alpha 90.000000
_cell_angle_beta 37.603027
_cell_angle_gamma 90.000000
_cell_volume 2310.145101
_symmetry_space_group_name_H-M "C 2/C"
_symmetry_group_IT_number 15
_symmetry_cell_setting 'monoclinic'
loop_
_space_group_symop_operation_xyz
x,y,z
-x,y,1/2-z
-x,-y,-z
x,-y,1/2+z
1/2+x,1/2+y,z
1/2-x,1/2+y,1/2-z
1/2-x,1/2-y,-z
1/2+x,1/2-y,1/2+z
loop_
_atom_site_type_symbol
_atom_site_label
_atom_site_fract_x
_atom_site_fract_y
_atom_site_fract_z
Si Si1 0.000000 0.428242 0.250000
Si Si2 0.046259 0.084395 0.331156
Si Si3 0.782852 0.295784 0.431363
Si Si4 0.965738 0.383226 0.420565
Si Si5 0.223805 0.155764 0.386483
Si Si6 0.806892 0.096713 0.917585
Si Si7 0.397291 0.487410 0.149765
O O1 0.854726 0.389237 0.253023
O O2 0.129882 0.465491 0.257587
O O3 0.208230 0.117129 0.315564
O O4 0.000000 0.102053 0.250000
O O5 0.763163 0.085799 0.513696
O O6 0.129696 0.034040 0.286204
O O7 0.750000 0.250000 0.500000
O O8 0.868214 0.333679 0.464601
O O9 0.514496 0.312528 0.517687
O O10 0.000000 0.291872 0.250000
O O11 0.054612 0.402890 0.474723
O O12 0.500000 0.177944 0.250000
O O13 0.213852 0.128873 0.486670
O O14 0.000000 0.115997 0.750000
O O15 0.911733 0.048301 0.895689
O O16 0.500000 0.500000 0.000000
#
# Coordination Sequence:
#
# PCOD9304140 Si02
#       7
#     4   8   8   8   8   8   8
#     4  12  22  40  62  88 132 178 230 286 340 420
#     4  11  24  40  61  95 137 189 241 295 355 415
#     4  11  25  49  80 109 142 187 236 295 370 455
#     4  11  23  42  69  92 133 183 231 286 364 427
#     4  11  25  47  73 106 151 188 241 303 369 431
#     4  12  23  40  67 100 136 192 249 300 358 429
#     4  12  23  39  59  94 136 189 245 298 355 409
#
# _framework density 22.509409000000002
#
# number of rings (size 3 to 8) (size 9 to 14) (size 15 to 20)
#    0.000    0.615    5.385    3.231    1.077    5.538 
#    0.000    3.846    0.000    0.000    0.000    0.000 
#    0.000    0.000    0.000    0.000    0.000    0.000 
#
# Total GULP energy -144907.755864 kJ/mol
# GULP energy per Si atom -5573.375226 kJ/mol
# Density = 2.245818 g / cm^3
# Si number density = 22.509409 Si / 1000 Ang^3
#
#
#
# Elastic Constant Matrix: (Units=GPa)
#
#
# Indices 1 2 3 4 5 6 
#
# 1 180.1660 77.6377 51.9831 0.0000 8.3146 0.0000
# 2 77.6377 158.3891 38.6874 0.0000 -4.5851 0.0000
# 3 51.9831 38.6874 99.2638 0.0000 -5.1393 0.0000
# 4 0.0000 0.0000 0.0000 30.8830 0.0000 1.6426
# 5 8.3146 -4.5851 -5.1393 0.0000 54.1829 0.0000
# 6 0.0000 0.0000 0.0000 1.6426 0.0000 30.7603
#
#
#
# Elastic Compliance Matrix: (Units=1/GPa)
#
#
# Indices 1 2 3 4 5 6 
#
# 1 0.007857 -0.003177 -0.002967 0.000000 -0.001756 0.000000
# 2 -0.003177 0.008269 -0.001505 0.000000 0.001045 0.000000
# 3 -0.002967 -0.001505 0.012292 0.000000 0.001494 0.000000
# 4 0.000000 0.000000 0.000000 0.032473 0.000000 -0.001734
# 5 -0.001756 0.001045 0.001494 0.000000 0.018956 0.000000
# 6 0.000000 0.000000 0.000000 -0.001734 0.000000 0.032602
#
#
# Mechanical properties :
#
#
# Convention : Reuss Voigt Hill
#
# Bulk Modulus (GPa) = 76.22430 86.04837 81.13633
# Shear Modulus (GPa) = 37.84485 41.13261 39.48873
#
# Velocity S-wave (km/s) = 4.10480 4.27939 4.19301
# Velocity P-wave (km/s) = 7.51017 7.92012 7.71787
#
# Compressibility (1/GPa) = 0.01311918
#
# Stress axis : x y z
#
# Youngs Moduli (GPa) = 127.27988 120.93760 81.35521
#
# Poissons Ratio (x) = 0.38425 0.24139
# Poissons Ratio (y) = 0.40440 0.12242
# Poissons Ratio (z) = 0.37765 0.18198
#
# Static dielectric constant tensor:
#      x y z
#    x 1.928010 0.000000 -0.188920 
#    y 0.000000 1.806360 0.000000 
#    z -0.188920 0.000000 1.761410 
# 
# From -- ./inp_files/139728.got.cif
#   From: 2010.05.17/outbox.cif.g08.bks.cpg/sg15_70_cif.got.tgz:139728.got - 2010.06.03 18:47:42.
