data_PCOD9304248
_publ_section_title
;
Structure prediction by ZEFSAII (Michael W. Deem and Ramdas Pophale) SiO2 
 PCOD9304248
Probable space group: C 2/C
;
_chemical_formula_sum "Si O2"
_cell_formula_units_Z 56
_cell_length_a 9.403191
_cell_length_b 20.733324
_cell_length_c 12.788630
_cell_angle_alpha 90.000000
_cell_angle_beta 88.660640
_cell_angle_gamma 90.000000
_cell_volume 2492.582514
_symmetry_space_group_name_H-M "C 2/C"
_symmetry_group_IT_number 15
_symmetry_cell_setting 'monoclinic'
loop_
_space_group_symop_operation_xyz
x,y,z
-x,y,1/2-z
-x,-y,-z
x,-y,1/2+z
1/2+x,1/2+y,z
1/2-x,1/2+y,1/2-z
1/2-x,1/2-y,-z
1/2+x,1/2-y,1/2+z
loop_
_atom_site_type_symbol
_atom_site_label
_atom_site_fract_x
_atom_site_fract_y
_atom_site_fract_z
Si Si1 0.226115 0.872894 0.837670
Si Si2 0.501660 0.638741 0.515069
Si Si3 0.120527 0.969897 0.168751
Si Si4 0.053318 0.570451 0.032452
Si Si5 0.746204 0.399094 0.598537
Si Si6 0.126714 0.237863 0.663122
Si Si7 0.351991 0.873377 0.190589
O O1 0.326133 0.929673 0.880794
O O2 0.209733 0.874755 0.714617
O O3 0.309976 0.807283 0.861491
O O4 0.082298 0.874431 0.905361
O O5 0.546690 0.582944 0.595311
O O6 0.336515 0.637481 0.491255
O O7 0.558587 0.704381 0.563054
O O8 0.246746 0.931712 0.226327
O O9 0.000000 0.994116 0.250000
O O10 0.189806 0.027095 0.101103
O O11 0.913477 0.604398 0.079692
O O12 0.000000 0.500000 0.000000
O O13 0.113216 0.608168 0.930586
O O14 0.255952 0.190928 0.697381
O O15 0.000000 0.240489 0.750000
O O16 0.500000 0.869919 0.250000
#
# Coordination Sequence:
#
# PCOD9304248 Si02
#       7
#     8   8   8   8   8   8   8
#     4  12  25  49  67  98 139 185 225 285 355 397
#     4  11  23  44  69  98 132 177 231 280 337 407
#     4  11  23  43  67 100 139 181 220 286 343 407
#     4  12  25  44  67 103 141 178 225 279 350 417
#     4  12  26  40  69 102 137 180 226 280 339 424
#     4  11  25  49  71  97 135 179 235 290 343 406
#     4  11  25  42  70 103 132 180 226 290 337 403
#
# _framework density 22.466657999999999
#
# number of rings (size 3 to 8) (size 9 to 14) (size 15 to 20)
#    0.000    0.571    4.286    5.143    6.000    1.143 
#    0.000    1.429    0.000    0.000    0.000    0.000 
#    0.000    0.000    0.000    0.000    0.000    0.000 
#
# Total GULP energy -156780.694696 kJ/mol
# GULP energy per Si atom -5599.310525 kJ/mol
# Density = 2.241552 g / cm^3
# Si number density = 22.466658 Si / 1000 Ang^3
#
#
#
# Elastic Constant Matrix: (Units=GPa)
#
#
# Indices 1 2 3 4 5 6 
#
# 1 83.3164 -16.9849 9.4371 0.0000 -10.9984 0.0000
# 2 -16.9849 65.1103 -2.5767 0.0000 7.7491 0.0000
# 3 9.4371 -2.5767 47.4636 0.0000 -1.9904 0.0000
# 4 0.0000 0.0000 0.0000 17.7621 0.0000 -15.1827
# 5 -10.9984 7.7491 -1.9904 0.0000 50.4498 0.0000
# 6 0.0000 0.0000 0.0000 -15.1827 0.0000 8.8211
#
#
#
# Elastic Compliance Matrix: (Units=1/GPa)
#
#
# Indices 1 2 3 4 5 6 
#
# 1 0.013202 0.003075 -0.002361 0.000000 0.002313 0.000000
# 2 0.003075 0.016388 0.000201 0.000000 -0.001839 0.000000
# 3 -0.002361 0.000201 0.021562 0.000000 0.000305 0.000000
# 4 0.000000 0.000000 0.000000 -0.119476 0.000000 -0.205639
# 5 0.002313 -0.001839 0.000305 0.000000 0.020620 0.000000
# 6 0.000000 0.000000 0.000000 -0.205639 0.000000 -0.240576
#
#
# Mechanical properties :
#
#
# Convention : Reuss Voigt Hill
#
# Bulk Modulus (GPa) = 18.87423 19.51569 19.19496
# Shear Modulus (GPa) = -18.35200 29.14091 5.39446
#
# Velocity S-wave (km/s) = -2.86117 3.60540 1.55123
# Velocity P-wave (km/s) = 1.57981 5.10267 3.43085
#
# Compressibility (1/GPa) = 0.05298229
#
# Stress axis : x y z
#
# Youngs Moduli (GPa) = 75.74563 61.02179 46.37801
#
# Poissons Ratio (x) = -0.18766 0.10950
# Poissons Ratio (y) = -0.23294 -0.00933
# Poissons Ratio (z) = 0.17884 -0.01227
#
# Static dielectric constant tensor:
#      x y z
#    x 1.806210 0.000000 -0.003010 
#    y 0.000000 1.832310 0.000000 
#    z -0.003010 0.000000 1.807280 
# 
# From -- ./inp_files/136442.got.cif
#   From: 2010.05.17/outbox.cif.g08.bks.cpg/sg15_69_cif.got.tgz:136442.got - 2010.06.03 18:47:42.
