data_PCOD9304460
_publ_section_title
;
Structure prediction by ZEFSAII (Michael W. Deem and Ramdas Pophale) SiO2 
 PCOD9304460
Probable space group: C 2/C
;
_chemical_formula_sum "Si O2"
_cell_formula_units_Z 60
_cell_length_a 10.820845
_cell_length_b 8.662306
_cell_length_c 28.770249
_cell_angle_alpha 90.000000
_cell_angle_beta 80.484826
_cell_angle_gamma 90.000000
_cell_volume 2659.633216
_symmetry_space_group_name_H-M "C 2/C"
_symmetry_group_IT_number 15
_symmetry_cell_setting 'monoclinic'
loop_
_space_group_symop_operation_xyz
x,y,z
-x,y,1/2-z
-x,-y,-z
x,-y,1/2+z
1/2+x,1/2+y,z
1/2-x,1/2+y,1/2-z
1/2-x,1/2-y,-z
1/2+x,1/2-y,1/2+z
loop_
_atom_site_type_symbol
_atom_site_label
_atom_site_fract_x
_atom_site_fract_y
_atom_site_fract_z
Si Si1 0.315441 0.996262 0.406005
Si Si2 0.319865 0.369869 0.895688
Si Si3 0.000000 0.446274 0.250000
Si Si4 0.572318 0.063647 0.928401
Si Si5 0.621149 0.775967 0.326057
Si Si6 0.488581 0.498100 0.306029
Si Si7 0.544717 0.390911 0.956062
Si Si8 0.879321 0.307452 0.811485
O O1 0.304742 0.814891 0.393831
O O2 0.434112 0.009912 0.433662
O O3 0.351940 0.105791 0.360879
O O4 0.181170 0.050173 0.432305
O O5 0.192025 0.450529 0.922109
O O6 0.369364 0.435510 0.843001
O O7 0.433563 0.402165 0.924614
O O8 0.965235 0.349115 0.207588
O O9 0.892927 0.564152 0.271745
O O10 0.591161 0.150178 0.877213
O O11 0.563843 0.207348 0.964380
O O12 0.598794 0.592761 0.324397
O O13 0.764444 0.801003 0.304964
O O14 0.500000 0.529133 0.250000
O O15 0.492265 0.313011 0.310854
O O16 0.500000 0.500000 0.000000
#
# Coordination Sequence:
#
# PCOD9304460 Si02
#       8
#     8   8   4   8   8   8   8   8
#     4  11  23  46  70 100 133 183 223 287 349 417
#     4  11  24  45  72 103 141 188 228 290 351 409
#     4  12  26  40  60  98 130 184 238 280 330 402
#     4  11  23  44  69 102 138 174 228 284 349 415
#     4  12  24  43  62  90 139 181 230 286 334 400
#     4  12  23  41  64  96 136 183 232 281 330 402
#     4  11  25  48  73 102 140 179 230 289 353 428
#     4  12  25  41  64  95 135 182 234 282 338 405
#
# _framework density 22.559501000000001
#
# number of rings (size 3 to 8) (size 9 to 14) (size 15 to 20)
#    0.000    0.533    8.000    0.000    1.867    5.867 
#    0.000    1.333    0.000    0.000    0.000    0.000 
#    0.000    0.000    0.000    0.000    0.000    0.000 
#
# Total GULP energy -167528.772727 kJ/mol
# GULP energy per Si atom -5584.292424 kJ/mol
# Density = 2.250815 g / cm^3
# Si number density = 22.559501 Si / 1000 Ang^3
#
#
#
# Elastic Constant Matrix: (Units=GPa)
#
#
# Indices 1 2 3 4 5 6 
#
# 1 119.3360 45.8468 9.0766 0.0000 -12.2277 0.0000
# 2 45.8468 86.1880 11.2659 0.0000 7.8036 0.0000
# 3 9.0766 11.2659 37.4707 0.0000 4.9496 0.0000
# 4 0.0000 0.0000 0.0000 17.8543 0.0000 1.1313
# 5 -12.2277 7.8036 4.9496 0.0000 16.9679 0.0000
# 6 0.0000 0.0000 0.0000 1.1313 0.0000 32.6415
#
#
#
# Elastic Compliance Matrix: (Units=1/GPa)
#
#
# Indices 1 2 3 4 5 6 
#
# 1 0.012981 -0.007805 -0.002608 0.000000 0.013705 0.000000
# 2 -0.007805 0.017137 -0.001537 0.000000 -0.013058 0.000000
# 3 -0.002608 -0.001537 0.029056 0.000000 -0.009648 0.000000
# 4 0.000000 0.000000 0.000000 0.056132 0.000000 -0.001945
# 5 0.013705 -0.013058 -0.009648 0.000000 0.077631 0.000000
# 6 0.000000 0.000000 0.000000 -0.001945 0.000000 0.030703
#
#
# Mechanical properties :
#
#
# Convention : Reuss Voigt Hill
#
# Bulk Modulus (GPa) = 28.34947 41.70814 35.02880
# Shear Modulus (GPa) = 19.28276 25.27975 22.28125
#
# Velocity S-wave (km/s) = 2.92678 3.35114 3.14613
# Velocity P-wave (km/s) = 4.90053 5.78807 5.36269
#
# Compressibility (1/GPa) = 0.03527403
#
# Stress axis : x y z
#
# Youngs Moduli (GPa) = 77.03656 58.35159 34.41645
#
# Poissons Ratio (x) = 0.45543 0.08976
# Poissons Ratio (y) = 0.60127 0.05290
# Poissons Ratio (z) = 0.20092 0.08969
#
# Static dielectric constant tensor:
#      x y z
#    x 1.863490 0.000000 -0.018840 
#    y 0.000000 1.843120 0.000000 
#    z -0.018840 0.000000 1.854210 
# 
# From -- ./inp_files/310279.got.cif
#   From: 2010.05.17/outbox.cif.g08.bks.cpg/sg15_156_cif.got.tgz:310279.got - 2010.06.03 18:47:42.
