data_PCOD9304911
_publ_section_title
;
Structure prediction by ZEFSAII (Michael W. Deem and Ramdas Pophale) SiO2 
 PCOD9304911
Probable space group: C 2/C
;
_chemical_formula_sum "Si O2"
_cell_formula_units_Z 48
_cell_length_a 10.307161
_cell_length_b 8.856266
_cell_length_c 26.723612
_cell_angle_alpha 90.000000
_cell_angle_beta 122.157032
_cell_angle_gamma 90.000000
_cell_volume 2065.186664
_symmetry_space_group_name_H-M "C 2/C"
_symmetry_group_IT_number 15
_symmetry_cell_setting 'monoclinic'
loop_
_space_group_symop_operation_xyz
x,y,z
-x,y,1/2-z
-x,-y,-z
x,-y,1/2+z
1/2+x,1/2+y,z
1/2-x,1/2+y,1/2-z
1/2-x,1/2-y,-z
1/2+x,1/2-y,1/2+z
loop_
_atom_site_type_symbol
_atom_site_label
_atom_site_fract_x
_atom_site_fract_y
_atom_site_fract_z
Si Si1 0.100093 0.656319 0.479528
Si Si2 0.795563 0.204462 0.915142
Si Si3 0.379173 0.562958 0.831399
Si Si4 0.000669 0.582185 0.615189
Si Si5 0.617037 0.748024 0.228803
Si Si6 0.265449 0.462992 0.104074
O O1 0.250000 0.750000 0.500000
O O2 0.035793 0.580408 0.415900
O O3 0.164142 0.537898 0.532806
O O4 0.963049 0.760853 0.471378
O O5 0.822318 0.080823 0.877125
O O6 0.662218 0.162946 0.926160
O O7 0.732724 0.362323 0.879124
O O8 0.360086 0.399751 0.801141
O O9 0.562332 0.592111 0.867175
O O10 0.277853 0.685804 0.781170
O O11 0.039088 0.617301 0.680294
O O12 0.156483 0.630210 0.618918
O O13 0.500000 0.712700 0.250000
#
# Coordination Sequence:
#
# PCOD9304911 Si02
#       6
#     8   8   8   8   8   8
#     4  11  25  44  76 112 150 196 249 300 368 451
#     4  11  23  49  69 106 147 183 246 301 361 442
#     4  12  26  49  76  99 151 193 241 309 375 435
#     4  11  25  45  74 106 148 192 244 304 372 433
#     4  12  28  50  73 110 148 191 250 318 367 438
#     4  11  25  48  72 109 150 191 241 313 366 434
#
# _framework density 23.242452
#
# number of rings (size 3 to 8) (size 9 to 14) (size 15 to 20)
#    0.000    0.667    5.000    2.000    7.000    4.667 
#    3.000    0.000    0.000    0.000    0.000    0.000 
#    0.000    0.000    0.000    0.000    0.000    0.000 
#
# Total GULP energy -133918.139623 kJ/mol
# GULP energy per Si atom -5579.922484 kJ/mol
# Density = 2.318955 g / cm^3
# Si number density = 23.242452 Si / 1000 Ang^3
#
#
#
# Elastic Constant Matrix: (Units=GPa)
#
#
# Indices 1 2 3 4 5 6 
#
# 1 165.5166 44.5976 17.2948 0.0000 30.0565 0.0000
# 2 44.5976 66.7489 24.6586 0.0000 -6.2294 0.0000
# 3 17.2948 24.6586 56.1765 0.0000 8.2795 0.0000
# 4 0.0000 0.0000 0.0000 44.9957 0.0000 -3.7979
# 5 30.0565 -6.2294 8.2795 0.0000 49.7316 0.0000
# 6 0.0000 0.0000 0.0000 -3.7979 0.0000 38.0537
#
#
#
# Elastic Compliance Matrix: (Units=1/GPa)
#
#
# Indices 1 2 3 4 5 6 
#
# 1 0.009014 -0.007121 0.001318 0.000000 -0.006559 0.000000
# 2 -0.007121 0.024173 -0.009738 0.000000 0.008953 0.000000
# 3 0.001318 -0.009738 0.022519 0.000000 -0.005765 0.000000
# 4 0.000000 0.000000 0.000000 0.022413 0.000000 0.002237
# 5 -0.006559 0.008953 -0.005765 0.000000 0.026153 0.000000
# 6 0.000000 0.000000 0.000000 0.002237 0.000000 0.026502
#
#
# Mechanical properties :
#
#
# Convention : Reuss Voigt Hill
#
# Bulk Modulus (GPa) = 40.61253 51.28267 45.94760
# Shear Modulus (GPa) = 29.40055 40.01562 34.70808
#
# Velocity S-wave (km/s) = 3.56047 4.15379 3.86852
# Velocity P-wave (km/s) = 5.86634 6.71695 6.30601
#
# Compressibility (1/GPa) = 0.02462295
#
# Stress axis : x y z
#
# Youngs Moduli (GPa) = 110.93890 41.36930 44.40624
#
# Poissons Ratio (x) = 0.29461 -0.05851
# Poissons Ratio (y) = 0.79005 0.43241
# Poissons Ratio (z) = -0.14617 0.40284
#
# Static dielectric constant tensor:
#      x y z
#    x 1.951620 0.000000 -0.039320 
#    y 0.000000 1.949130 0.000000 
#    z -0.039320 0.000000 1.940270 
# 
# From -- ./inp_files/269030.got.cif
#   From: 2010.05.17/outbox.cif.g08.bks.cpg/sg15_135_cif.got.tgz:269030.got - 2010.06.03 18:47:42.
