data_PCOD9304549
_publ_section_title
;
Structure prediction by ZEFSAII (Michael W. Deem and Ramdas Pophale) SiO2 
 PCOD9304549
Probable space group: C 2/C
;
_chemical_formula_sum "Si O2"
_cell_formula_units_Z 40
_cell_length_a 14.411677
_cell_length_b 14.169563
_cell_length_c 17.748181
_cell_angle_alpha 90.000000
_cell_angle_beta 147.146391
_cell_angle_gamma 90.000000
_cell_volume 1966.165751
_symmetry_space_group_name_H-M "C 2/C"
_symmetry_group_IT_number 15
_symmetry_cell_setting 'monoclinic'
loop_
_space_group_symop_operation_xyz
x,y,z
-x,y,1/2-z
-x,-y,-z
x,-y,1/2+z
1/2+x,1/2+y,z
1/2-x,1/2+y,1/2-z
1/2-x,1/2-y,-z
1/2+x,1/2-y,1/2+z
loop_
_atom_site_type_symbol
_atom_site_label
_atom_site_fract_x
_atom_site_fract_y
_atom_site_fract_z
Si Si1 0.324072 0.633384 0.103565
Si Si2 0.165248 0.541088 0.569987
Si Si3 0.080960 0.684457 0.387231
Si Si4 0.406307 0.696567 0.007586
Si Si5 0.230631 0.790110 0.249130
O O1 0.500000 0.681691 0.250000
O O2 0.293328 0.542463 0.134177
O O3 0.168985 0.704039 0.013008
O O4 0.353556 0.620496 0.034698
O O5 0.119680 0.589918 0.459644
O O6 0.236819 0.622275 0.673288
O O7 0.000000 0.500000 0.500000
O O8 0.250000 0.750000 0.500000
O O9 0.000000 0.668886 0.250000
O O10 0.937417 0.737490 0.337376
O O11 0.312615 0.677832 0.865038
O O12 0.608119 0.718111 0.137897
#
# Coordination Sequence:
#
# PCOD9304549 Si02
#       5
#     8   8   8   8   8
#     4  11  24  42  69 104 142 174 228 288 339 404
#     4  12  26  44  69 103 142 175 232 292 337 397
#     4  12  25  45  70  97 135 191 229 274 348 420
#     4  11  23  44  73  98 137 186 224 271 357 413
#     4  12  22  45  70  98 136 184 229 282 342 414
#
# _framework density 20.344163999999999
#
# number of rings (size 3 to 8) (size 9 to 14) (size 15 to 20)
#    0.000    0.400    8.000    0.000    2.800    1.600 
#    0.000    1.000    0.000    0.000    0.000    0.000 
#    0.000    0.000    0.000    0.000    0.000    0.000 
#
# Total GULP energy -111747.401012 kJ/mol
# GULP energy per Si atom -5587.370051 kJ/mol
# Density = 2.029786 g / cm^3
# Si number density = 20.344164 Si / 1000 Ang^3
#
#
#
# Elastic Constant Matrix: (Units=GPa)
#
#
# Indices 1 2 3 4 5 6 
#
# 1 97.9154 16.6578 35.4160 0.0002 -7.4724 0.0001
# 2 16.6578 38.9139 -0.9176 0.0003 9.6480 0.0002
# 3 35.4160 -0.9176 98.6031 0.0005 -8.1201 0.0004
# 4 0.0002 0.0003 0.0005 18.3714 0.0003 -10.2323
# 5 -7.4724 9.6480 -8.1201 0.0003 65.8870 0.0002
# 6 0.0001 0.0002 0.0004 -10.2323 0.0002 30.7275
#
#
#
# Elastic Compliance Matrix: (Units=1/GPa)
#
#
# Indices 1 2 3 4 5 6 
#
# 1 0.013061 -0.006149 -0.004599 0.000000 0.001815 0.000000
# 2 -0.006149 0.029562 0.002091 -0.000001 -0.004769 0.000000
# 3 -0.004599 0.002091 0.011865 0.000000 0.000635 0.000000
# 4 0.000000 -0.000001 0.000000 0.066827 0.000000 0.022253
# 5 0.001815 -0.004769 0.000635 0.000000 0.016160 0.000000
# 6 0.000000 0.000000 0.000000 0.022253 0.000000 0.039955
#
#
# Mechanical properties :
#
#
# Convention : Reuss Voigt Hill
#
# Bulk Modulus (GPa) = 26.90098 37.52721 32.21410
# Shear Modulus (GPa) = 24.13889 35.28228 29.71058
#
# Velocity S-wave (km/s) = 3.44834 4.16897 3.82566
# Velocity P-wave (km/s) = 5.39503 6.45446 5.94838
#
# Compressibility (1/GPa) = 0.03717337
#
# Stress axis : x y z
#
# Youngs Moduli (GPa) = 76.56362 33.82758 84.27988
#
# Poissons Ratio (x) = 0.20802 0.38760
# Poissons Ratio (y) = 0.47082 -0.17624
# Poissons Ratio (z) = 0.35211 -0.07074
#
# Static dielectric constant tensor:
#      x y z
#    x 1.718350 0.000000 0.157440 
#    y 0.000000 1.732880 0.000000 
#    z 0.157440 0.000000 0.221400 
# 
# From -- ./inp_files/37965.got.cif
#   From: 2010.05.17/outbox.cif.g08.bks.cpg/sg15_19_cif.got.tgz:37965.got - 2010.06.03 18:47:42.
