data_PCOD9304008
_publ_section_title
;
Structure prediction by ZEFSAII (Michael W. Deem and Ramdas Pophale) SiO2 
 PCOD9304008
Probable space group: C 2/C
;
_chemical_formula_sum "Si O2"
_cell_formula_units_Z 40
_cell_length_a 12.523591
_cell_length_b 8.580234
_cell_length_c 18.088421
_cell_angle_alpha 90.000000
_cell_angle_beta 118.762014
_cell_angle_gamma 90.000000
_cell_volume 1703.895491
_symmetry_space_group_name_H-M "C 2/C"
_symmetry_group_IT_number 15
_symmetry_cell_setting 'monoclinic'
loop_
_space_group_symop_operation_xyz
x,y,z
-x,y,1/2-z
-x,-y,-z
x,-y,1/2+z
1/2+x,1/2+y,z
1/2-x,1/2+y,1/2-z
1/2-x,1/2-y,-z
1/2+x,1/2-y,1/2+z
loop_
_atom_site_type_symbol
_atom_site_label
_atom_site_fract_x
_atom_site_fract_y
_atom_site_fract_z
Si Si1 0.720431 0.668003 0.341144
Si Si2 0.756496 0.005588 0.794972
Si Si3 0.255778 0.402523 0.951461
Si Si4 0.971417 0.062684 0.105505
Si Si5 0.924898 0.379923 0.024063
O O1 0.691726 0.833439 0.294320
O O2 0.776545 0.562145 0.295257
O O3 0.609267 0.587077 0.347295
O O4 0.821853 0.694678 0.437141
O O5 0.739953 0.887580 0.858424
O O6 0.903375 0.027030 0.840054
O O7 0.250000 0.250000 0.000000
O O8 0.385109 0.477657 0.017360
O O9 0.149854 0.519808 0.941729
O O10 0.996245 0.237672 0.084285
O O11 0.000000 0.500000 0.000000
#
# Coordination Sequence:
#
# PCOD9304008 Si02
#       5
#     8   8   8   8   8
#     4  11  26  45  64 102 134 174 223 278 338 406
#     4  12  25  44  69  95 139 174 220 279 343 398
#     4  11  23  41  70 100 130 173 232 274 324 414
#     4  11  23  47  70  92 134 180 221 281 338 395
#     4  11  23  44  70  97 132 179 228 276 337 400
#
# _framework density 23.475619999999999
#
# number of rings (size 3 to 8) (size 9 to 14) (size 15 to 20)
#    0.000    0.800    4.000    3.600   11.200    0.000 
#    0.000    1.000    0.000    0.000    0.000    0.000 
#    0.000    0.000    0.000    0.000    0.000    0.000 
#
# Total GULP energy -111968.434483 kJ/mol
# GULP energy per Si atom -5598.421724 kJ/mol
# Density = 2.342219 g / cm^3
# Si number density = 23.475620 Si / 1000 Ang^3
#
#
#
# Elastic Constant Matrix: (Units=GPa)
#
#
# Indices 1 2 3 4 5 6 
#
# 1 61.7830 -1.5528 13.0651 0.0000 -13.8656 0.0000
# 2 -1.5528 66.1368 1.5180 0.0000 -18.0643 0.0000
# 3 13.0651 1.5180 89.1438 0.0000 -37.0824 0.0000
# 4 0.0000 0.0000 0.0000 34.9100 0.0000 -10.9581
# 5 -13.8656 -18.0643 -37.0824 0.0000 44.2972 0.0000
# 6 0.0000 0.0000 0.0000 -10.9581 0.0000 36.5410
#
#
#
# Elastic Compliance Matrix: (Units=1/GPa)
#
#
# Indices 1 2 3 4 5 6 
#
# 1 0.017681 0.002184 0.000068 0.000000 0.006482 0.000000
# 2 0.002184 0.018260 0.004221 0.000000 0.011663 0.000000
# 3 0.000068 0.004221 0.018198 0.000000 0.016976 0.000000
# 4 0.000000 0.000000 0.000000 0.031622 0.000000 0.009483
# 5 0.006482 0.011663 0.016976 0.000000 0.043571 0.000000
# 6 0.000000 0.000000 0.000000 0.009483 0.000000 0.030210
#
#
# Mechanical properties :
#
#
# Convention : Reuss Voigt Hill
#
# Bulk Modulus (GPa) = 14.90670 27.01381 20.96026
# Shear Modulus (GPa) = 29.59298 36.75185 33.17242
#
# Velocity S-wave (km/s) = 3.55432 3.96097 3.76314
# Velocity P-wave (km/s) = 4.81746 5.69660 5.27538
#
# Compressibility (1/GPa) = 0.06708392
#
# Stress axis : x y z
#
# Youngs Moduli (GPa) = 56.55824 54.76367 54.95136
#
# Poissons Ratio (x) = -0.11960 -0.00372
# Poissons Ratio (y) = -0.12352 -0.23194
# Poissons Ratio (z) = -0.00383 -0.23114
#
# Static dielectric constant tensor:
#      x y z
#    x 1.891450 0.000000 -0.019090 
#    y 0.000000 1.903830 0.000000 
#    z -0.019090 0.000000 1.900370 
# 
# From -- ./inp_files/150587.got.cif
#   From: 2010.05.17/outbox.cif.g08.bks.cpg/sg15_76_cif.got.tgz:150587.got - 2010.06.03 18:47:42.
