data_PCOD9304379
_publ_section_title
;
Structure prediction by ZEFSAII (Michael W. Deem and Ramdas Pophale) SiO2 
 PCOD9304379
Probable space group: C 2/C
;
_chemical_formula_sum "Si O2"
_cell_formula_units_Z 36
_cell_length_a 13.900349
_cell_length_b 13.634273
_cell_length_c 15.039760
_cell_angle_alpha 90.000000
_cell_angle_beta 31.321310
_cell_angle_gamma 90.000000
_cell_volume 1481.718416
_symmetry_space_group_name_H-M "C 2/C"
_symmetry_group_IT_number 15
_symmetry_cell_setting 'monoclinic'
loop_
_space_group_symop_operation_xyz
x,y,z
-x,y,1/2-z
-x,-y,-z
x,-y,1/2+z
1/2+x,1/2+y,z
1/2-x,1/2+y,1/2-z
1/2-x,1/2-y,-z
1/2+x,1/2-y,1/2+z
loop_
_atom_site_type_symbol
_atom_site_label
_atom_site_fract_x
_atom_site_fract_y
_atom_site_fract_z
Si Si1 0.613725 0.207570 0.832849
Si Si2 0.861752 0.437984 0.446196
Si Si3 0.701642 0.137218 0.048059
Si Si4 0.495476 0.391863 0.462338
Si Si5 0.000000 0.178225 0.250000
O O1 0.454389 0.124984 0.951696
O O2 0.594205 0.302421 0.910303
O O3 0.595739 0.254646 0.748697
O O4 0.799177 0.150438 0.710019
O O5 0.823061 0.550580 0.504367
O O6 0.666449 0.386114 0.578179
O O7 0.000000 0.439203 0.250000
O O8 0.500000 0.140837 0.250000
O O9 0.867819 0.098159 0.977393
O O10 0.750000 0.250000 0.000000
O O11 0.500000 0.500000 0.500000
#
# Coordination Sequence:
#
# PCOD9304379 Si02
#       5
#     8   8   8   8   4
#     4  12  23  44  70 105 140 176 237 296 352 428
#     4  11  23  43  73 103 138 186 231 293 356 419
#     4  11  25  47  69  96 143 192 231 284 360 431
#     4  12  26  45  70 105 140 182 234 303 357 412
#     4  12  22  40  74 108 136 182 234 286 366 422
#
# _framework density 24.296112999999998
#
# number of rings (size 3 to 8) (size 9 to 14) (size 15 to 20)
#    0.000    0.444    3.333    7.333    1.556    0.000 
#    4.000    2.222    0.000    0.000    0.000    0.000 
#    0.000    0.000    0.000    0.000    0.000    0.000 
#
# Total GULP energy -100593.229525 kJ/mol
# GULP energy per Si atom -5588.512751 kJ/mol
# Density = 2.424081 g / cm^3
# Si number density = 24.296113 Si / 1000 Ang^3
#
#
#
# Elastic Constant Matrix: (Units=GPa)
#
#
# Indices 1 2 3 4 5 6 
#
# 1 65.5456 32.8825 36.6558 0.0024 -23.9138 -0.0002
# 2 32.8825 255.7198 64.9382 -0.0022 -17.8551 0.0008
# 3 36.6558 64.9382 127.4482 -0.0086 -44.6778 0.0016
# 4 0.0024 -0.0022 -0.0086 24.9060 0.0005 -30.8438
# 5 -23.9138 -17.8551 -44.6778 0.0005 38.6271 0.0000
# 6 -0.0002 0.0008 0.0016 -30.8438 0.0000 59.9896
#
#
#
# Elastic Compliance Matrix: (Units=1/GPa)
#
#
# Indices 1 2 3 4 5 6 
#
# 1 0.020647 -0.001544 -0.001549 -0.000007 0.010277 -0.000004
# 2 -0.001544 0.004628 -0.002522 -0.000001 -0.001733 0.000000
# 3 -0.001549 -0.002522 0.014855 0.000012 0.015058 0.000006
# 4 -0.000007 -0.000001 0.000012 0.110527 0.000007 0.056828
# 5 0.010277 -0.001733 0.015058 0.000007 0.048866 0.000003
# 6 -0.000004 0.000000 0.000006 0.056828 0.000003 0.045888
#
#
# Mechanical properties :
#
#
# Convention : Reuss Voigt Hill
#
# Bulk Modulus (GPa) = 34.60075 79.74073 57.17074
# Shear Modulus (GPa) = 18.77758 45.65367 32.21562
#
# Velocity S-wave (km/s) = 2.78306 4.33951 3.64532
# Velocity P-wave (km/s) = 4.95978 7.61578 6.42649
#
# Compressibility (1/GPa) = 0.02890111
#
# Stress axis : x y z
#
# Youngs Moduli (GPa) = 48.43348 216.05475 67.31581
#
# Poissons Ratio (x) = 0.33360 0.10426
# Poissons Ratio (y) = 0.07478 0.16976
# Poissons Ratio (z) = 0.07502 0.54486
#
# Static dielectric constant tensor:
#      x y z
#    x 1.924980 0.000000 0.057650 
#    y 0.000000 1.996330 0.000000 
#    z 0.057650 0.000000 1.950640 
# 
# From -- ./inp_files/205251.got.cif
#   From: 2010.05.17/outbox.cif.g08.bks.cpg/sg15_103_cif.got.tgz:205251.got - 2010.06.03 18:47:42.
