data_PCOD9304416
_publ_section_title
;
Structure prediction by ZEFSAII (Michael W. Deem and Ramdas Pophale) SiO2 
 PCOD9304416
Probable space group: C 2/C
;
_chemical_formula_sum "Si O2"
_cell_formula_units_Z 52
_cell_length_a 18.249922
_cell_length_b 5.295784
_cell_length_c 26.777012
_cell_angle_alpha 90.000000
_cell_angle_beta 67.414867
_cell_angle_gamma 90.000000
_cell_volume 2389.466149
_symmetry_space_group_name_H-M "C 2/C"
_symmetry_group_IT_number 15
_symmetry_cell_setting 'monoclinic'
loop_
_space_group_symop_operation_xyz
x,y,z
-x,y,1/2-z
-x,-y,-z
x,-y,1/2+z
1/2+x,1/2+y,z
1/2-x,1/2+y,1/2-z
1/2-x,1/2-y,-z
1/2+x,1/2-y,1/2+z
loop_
_atom_site_type_symbol
_atom_site_label
_atom_site_fract_x
_atom_site_fract_y
_atom_site_fract_z
Si Si1 0.134934 0.199383 0.688552
Si Si2 0.430263 0.537927 0.446307
Si Si3 0.906562 0.505039 0.204547
Si Si4 0.807735 0.517143 0.635279
Si Si5 0.500000 0.628647 0.250000
Si Si6 0.114555 0.988176 0.428077
Si Si7 0.577259 0.953347 0.613215
O O1 0.126316 0.290096 0.747888
O O2 0.213521 0.042207 0.659437
O O3 0.127274 0.427646 0.651174
O O4 0.055503 0.038685 0.700504
O O5 0.525381 0.513154 0.429558
O O6 0.393479 0.563086 0.510944
O O7 0.401192 0.283039 0.427326
O O8 0.412833 0.783730 0.417794
O O9 0.839532 0.432359 0.182976
O O10 0.941435 0.290190 0.231416
O O11 0.984239 0.575491 0.152039
O O12 0.840016 0.245539 0.609446
O O13 0.843098 0.745144 0.593082
#
# Coordination Sequence:
#
# PCOD9304416 Si02
#       7
#     8   8   8   8   4   8   8
#     4  12  29  44  69 106 152 187 241 292 357 438
#     4  11  23  43  79 102 138 181 248 298 353 423
#     4  12  25  43  69 104 141 188 240 287 347 432
#     4  12  29  45  72 106 151 186 229 300 369 416
#     4  12  24  46  68  98 142 190 242 280 338 428
#     4  11  24  47  70 110 140 182 241 302 358 427
#     4  12  22  45  72 106 132 194 236 295 350 427
#
# _framework density 21.762183
#
# number of rings (size 3 to 8) (size 9 to 14) (size 15 to 20)
#    0.000    0.308    6.154    1.846    6.462    2.462 
#    0.000    4.615    0.000    0.000    0.000    0.000 
#    0.000    0.000    0.000    0.000    0.000    0.000 
#
# Total GULP energy -145530.897358 kJ/mol
# GULP energy per Si atom -5597.342206 kJ/mol
# Density = 2.171265 g / cm^3
# Si number density = 21.762183 Si / 1000 Ang^3
#
#
#
# Elastic Constant Matrix: (Units=GPa)
#
#
# Indices 1 2 3 4 5 6 
#
# 1 66.6990 18.4023 14.0127 0.0069 1.5148 0.0065
# 2 18.4023 122.8829 37.2637 0.0270 8.4171 0.0010
# 3 14.0127 37.2637 59.6220 0.0228 17.5358 0.0033
# 4 0.0069 0.0270 0.0228 22.5964 0.0039 6.9519
# 5 1.5148 8.4171 17.5358 0.0039 29.3389 0.0045
# 6 0.0065 0.0010 0.0033 6.9519 0.0045 28.3122
#
#
#
# Elastic Compliance Matrix: (Units=1/GPa)
#
#
# Indices 1 2 3 4 5 6 
#
# 1 0.016067 -0.001516 -0.003291 0.000001 0.001572 -0.000004
# 2 -0.001516 0.010211 -0.006293 -0.000006 0.000910 0.000002
# 3 -0.003291 -0.006293 0.025355 -0.000016 -0.013179 0.000004
# 4 0.000001 -0.000006 -0.000016 0.047871 0.000007 -0.011754
# 5 0.001572 0.000910 -0.013179 0.000007 0.041619 -0.000007
# 6 -0.000004 0.000002 0.000004 -0.011754 -0.000007 0.038207
#
#
# Mechanical properties :
#
#
# Convention : Reuss Voigt Hill
#
# Bulk Modulus (GPa) = 33.97607 43.17346 38.57477
# Shear Modulus (GPa) = 23.65838 28.01784 25.83811
#
# Velocity S-wave (km/s) = 3.30075 3.59201 3.44945
# Velocity P-wave (km/s) = 5.49299 6.08976 5.79905
#
# Compressibility (1/GPa) = 0.02943248
#
# Stress axis : x y z
#
# Youngs Moduli (GPa) = 62.24070 97.93480 39.43925
#
# Poissons Ratio (x) = 0.14844 0.12980
# Poissons Ratio (y) = 0.09434 0.24820
# Poissons Ratio (z) = 0.20485 0.61633
#
# Static dielectric constant tensor:
#      x y z
#    x 1.769910 0.000000 0.021720 
#    y 0.000000 1.815670 -0.000010 
#    z 0.021720 -0.000010 1.802560 
# 
# From -- ./inp_files/297677.got.cif
#   From: 2010.05.17/outbox.cif.g08.bks.cpg/sg15_149_cif.got.tgz:297677.got - 2010.06.03 18:47:42.
