data_PCOD9304475
_publ_section_title
;
Structure prediction by ZEFSAII (Michael W. Deem and Ramdas Pophale) SiO2 
 PCOD9304475
Probable space group: C 2/C
;
_chemical_formula_sum "Si O2"
_cell_formula_units_Z 60
_cell_length_a 8.789390
_cell_length_b 10.756669
_cell_length_c 28.663484
_cell_angle_alpha 90.000000
_cell_angle_beta 85.929546
_cell_angle_gamma 90.000000
_cell_volume 2703.140590
_symmetry_space_group_name_H-M "C 2/C"
_symmetry_group_IT_number 15
_symmetry_cell_setting 'monoclinic'
loop_
_space_group_symop_operation_xyz
x,y,z
-x,y,1/2-z
-x,-y,-z
x,-y,1/2+z
1/2+x,1/2+y,z
1/2-x,1/2+y,1/2-z
1/2-x,1/2-y,-z
1/2+x,1/2-y,1/2+z
loop_
_atom_site_type_symbol
_atom_site_label
_atom_site_fract_x
_atom_site_fract_y
_atom_site_fract_z
Si Si1 0.402474 0.587232 0.419970
Si Si2 0.692599 0.640372 0.827844
Si Si3 0.994847 0.551348 0.806130
Si Si4 0.112204 0.680455 0.890207
Si Si5 0.500000 0.548723 0.750000
Si Si6 0.931474 0.436309 0.546803
Si Si7 0.459711 0.315090 0.414160
Si Si8 0.220358 0.900537 0.682225
O O1 0.517341 0.703878 0.414179
O O2 0.245521 0.606984 0.451213
O O3 0.463384 0.453696 0.436380
O O4 0.351035 0.566924 0.366595
O O5 0.819662 0.533070 0.826921
O O6 0.569678 0.622522 0.790948
O O7 0.603353 0.676382 0.876082
O O8 0.795819 0.755405 0.811125
O O9 0.000000 0.568863 0.750000
O O10 0.073860 0.658189 0.836580
O O11 0.102332 0.434932 0.816861
O O12 0.064087 0.549808 0.915800
O O13 0.292458 0.696518 0.894402
O O14 0.633833 0.469186 0.724868
O O15 0.000000 0.500000 0.500000
O O16 0.020216 0.309920 0.556827
#
# Coordination Sequence:
#
# PCOD9304475 Si02
#       8
#     8   8   8   8   4   8   8   8
#     4  11  23  44  69  99 145 178 224 288 351 409
#     4  12  25  40  66  91 136 185 231 285 340 396
#     4  12  23  41  64  96 136 185 232 279 334 406
#     4  11  24  45  70 102 144 183 226 289 354 413
#     4  12  26  40  60  98 130 184 244 278 328 404
#     4  11  25  48  75 101 138 182 233 293 357 432
#     4  11  23  46  69 102 136 180 230 282 354 418
#     4  12  24  44  60  94 138 182 233 286 329 405
#
# _framework density 22.196404999999999
#
# number of rings (size 3 to 8) (size 9 to 14) (size 15 to 20)
#    0.000    0.533    8.000    0.000    1.867    5.867 
#    0.000    1.333    0.000    0.000    0.000    0.000 
#    0.000    0.000    0.000    0.000    0.000    0.000 
#
# Total GULP energy -167480.214470 kJ/mol
# GULP energy per Si atom -5582.673816 kJ/mol
# Density = 2.214588 g / cm^3
# Si number density = 22.196405 Si / 1000 Ang^3
#
#
#
# Elastic Constant Matrix: (Units=GPa)
#
#
# Indices 1 2 3 4 5 6 
#
# 1 61.7958 24.1827 -3.5507 0.0000 1.6529 0.0000
# 2 24.1827 102.4828 -3.4097 0.0000 8.8042 0.0000
# 3 -3.5507 -3.4097 48.3219 0.0000 -10.1053 0.0000
# 4 0.0000 0.0000 0.0000 22.9566 0.0000 -3.6636
# 5 1.6529 8.8042 -10.1053 0.0000 12.2484 0.0000
# 6 0.0000 0.0000 0.0000 -3.6636 0.0000 27.3637
#
#
#
# Elastic Compliance Matrix: (Units=1/GPa)
#
#
# Indices 1 2 3 4 5 6 
#
# 1 0.017911 -0.004339 0.001398 0.000000 0.001855 0.000000
# 2 -0.004339 0.011492 -0.001345 0.000000 -0.008784 0.000000
# 3 0.001398 -0.001345 0.025216 0.000000 0.021582 0.000000
# 4 0.000000 0.000000 0.000000 0.044512 0.000000 0.005959
# 5 0.001855 -0.008784 0.021582 0.000000 0.105512 0.000000
# 6 0.000000 0.000000 0.000000 0.005959 0.000000 0.037343
#
#
# Mechanical properties :
#
#
# Convention : Reuss Voigt Hill
#
# Bulk Modulus (GPa) = 21.71761 27.44943 24.58352
# Shear Modulus (GPa) = 18.80362 25.53895 22.17128
#
# Velocity S-wave (km/s) = 2.91374 3.39571 3.16392
# Velocity P-wave (km/s) = 4.59623 5.26953 4.94436
#
# Compressibility (1/GPa) = 0.04604559
#
# Stress axis : x y z
#
# Youngs Moduli (GPa) = 55.83110 87.02015 39.65792
#
# Poissons Ratio (x) = 0.37761 -0.05544
# Poissons Ratio (y) = 0.24227 0.05334
# Poissons Ratio (z) = -0.07805 0.11704
#
# Static dielectric constant tensor:
#      x y z
#    x 1.856580 0.000000 0.000820 
#    y 0.000000 1.828610 0.000000 
#    z 0.000820 0.000000 1.819300 
# 
# From -- ./inp_files/307137.got.cif
#   From: 2010.05.17/outbox.cif.g08.bks.cpg/sg15_154_cif.got.tgz:307137.got - 2010.06.03 18:47:42.
