data_PCOD9304127
_publ_section_title
;
Structure prediction by ZEFSAII (Michael W. Deem and Ramdas Pophale) SiO2 
 PCOD9304127
Probable space group: C 2/C
;
_chemical_formula_sum "Si O2"
_cell_formula_units_Z 44
_cell_length_a 16.975372
_cell_length_b 22.073515
_cell_length_c 4.801085
_cell_angle_alpha 90.000000
_cell_angle_beta 96.340106
_cell_angle_gamma 90.000000
_cell_volume 1787.993133
_symmetry_space_group_name_H-M "C 2/C"
_symmetry_group_IT_number 15
_symmetry_cell_setting 'monoclinic'
loop_
_space_group_symop_operation_xyz
x,y,z
-x,y,1/2-z
-x,-y,-z
x,-y,1/2+z
1/2+x,1/2+y,z
1/2-x,1/2+y,1/2-z
1/2-x,1/2-y,-z
1/2+x,1/2-y,1/2+z
loop_
_atom_site_type_symbol
_atom_site_label
_atom_site_fract_x
_atom_site_fract_y
_atom_site_fract_z
Si Si1 0.000000 0.801306 0.250000
Si Si2 0.500000 0.217632 0.750000
Si Si3 0.744974 0.961026 0.564020
Si Si4 0.500000 0.500000 0.000000
Si Si5 0.347394 0.144484 0.634763
Si Si6 0.246672 0.319142 0.902330
Si Si7 0.376295 0.600518 0.749874
O O1 0.031052 0.759284 0.510578
O O2 0.935615 0.846241 0.356101
O O3 0.429866 0.175826 0.609941
O O4 0.665935 0.924602 0.459603
O O5 0.818350 0.924115 0.465069
O O6 0.748955 0.977552 0.886787
O O7 0.500000 0.450355 0.750000
O O8 0.569469 0.539394 0.800641
O O9 0.279384 0.178008 0.427235
O O10 0.325043 0.151872 0.947302
O O11 0.250000 0.250000 0.000000
O O12 0.321606 0.361722 0.008826
#
# Coordination Sequence:
#
# PCOD9304127 Si02
#       7
#     4   4   8   4   8   8   8
#     4  12  28  42  69 107 148 188 236 288 374 426
#     4  12  26  48  71 105 144 178 232 320 366 440
#     4  11  24  43  69  98 136 184 235 289 337 423
#     4  12  26  42  62  96 142 190 234 280 348 416
#     4  11  24  44  71 100 134 183 236 297 376 413
#     4  11  23  42  69 100 135 191 244 296 350 430
#     4  11  25  44  67 101 145 189 239 284 347 438
#
# _framework density 24.608595000000001
#
# number of rings (size 3 to 8) (size 9 to 14) (size 15 to 20)
#    0.000    0.727    0.909    7.091    1.273    8.727 
#    0.000    0.909    0.000    0.000    0.000    0.000 
#    0.000    0.000    0.000    0.000    0.000    0.000 
#
# Total GULP energy -122776.683479 kJ/mol
# GULP energy per Si atom -5580.758340 kJ/mol
# Density = 2.455258 g / cm^3
# Si number density = 24.608595 Si / 1000 Ang^3
#
#
#
# Elastic Constant Matrix: (Units=GPa)
#
#
# Indices 1 2 3 4 5 6 
#
# 1 71.1121 71.8097 10.4591 0.0000 23.4877 0.0000
# 2 71.8097 155.0152 36.6826 0.0000 18.4016 0.0000
# 3 10.4591 36.6826 105.8414 0.0000 -13.0256 0.0000
# 4 0.0000 0.0000 0.0000 50.4462 0.0000 -1.1197
# 5 23.4877 18.4016 -13.0256 0.0000 40.2258 0.0000
# 6 0.0000 0.0000 0.0000 -1.1197 0.0000 33.9050
#
#
#
# Elastic Compliance Matrix: (Units=1/GPa)
#
#
# Indices 1 2 3 4 5 6 
#
# 1 0.031289 -0.013003 -0.000106 0.000000 -0.012356 0.000000
# 2 -0.013003 0.013173 -0.003216 0.000000 0.000525 0.000000
# 3 -0.000106 -0.003216 0.011209 0.000000 0.005163 0.000000
# 4 0.000000 0.000000 0.000000 0.019838 0.000000 0.000655
# 5 -0.012356 0.000525 0.005163 0.000000 0.033506 0.000000
# 6 0.000000 0.000000 0.000000 0.000655 0.000000 0.029516
#
#
# Mechanical properties :
#
#
# Convention : Reuss Voigt Hill
#
# Bulk Modulus (GPa) = 43.43821 63.31905 53.37863
# Shear Modulus (GPa) = 27.95586 39.11654 33.53620
#
# Velocity S-wave (km/s) = 3.37415 3.99124 3.69560
# Velocity P-wave (km/s) = 5.73322 6.85757 6.32045
#
# Compressibility (1/GPa) = 0.02302121
#
# Stress axis : x y z
#
# Youngs Moduli (GPa) = 31.96003 75.91215 89.21747
#
# Poissons Ratio (x) = 0.98706 0.00946
# Poissons Ratio (y) = 0.41556 0.28693
# Poissons Ratio (z) = 0.00339 0.24414
#
# Static dielectric constant tensor:
#      x y z
#    x 1.965200 0.000000 -0.153820 
#    y 0.000000 1.972400 0.000000 
#    z -0.153820 0.000000 0.739740 
# 
# From -- ./inp_files/10431.got.cif
#   From: 2010.05.17/outbox.cif.g08.bks.cpg/sg15_6_cif.got.tgz:10431.got - 2010.06.03 18:47:42.
