data_PCOD9304084
_publ_section_title
;
Structure prediction by ZEFSAII (Michael W. Deem and Ramdas Pophale) SiO2 
 PCOD9304084
Probable space group: C 2/C
;
_chemical_formula_sum "Si O2"
_cell_formula_units_Z 60
_cell_length_a 24.164484
_cell_length_b 8.639066
_cell_length_c 13.612079
_cell_angle_alpha 90.000000
_cell_angle_beta 100.776854
_cell_angle_gamma 90.000000
_cell_volume 2791.519827
_symmetry_space_group_name_H-M "C 2/C"
_symmetry_group_IT_number 15
_symmetry_cell_setting 'monoclinic'
loop_
_space_group_symop_operation_xyz
x,y,z
-x,y,1/2-z
-x,-y,-z
x,-y,1/2+z
1/2+x,1/2+y,z
1/2-x,1/2+y,1/2-z
1/2-x,1/2-y,-z
1/2+x,1/2-y,1/2+z
loop_
_atom_site_type_symbol
_atom_site_label
_atom_site_fract_x
_atom_site_fract_y
_atom_site_fract_z
Si Si1 0.000000 0.642766 0.750000
Si Si2 0.554141 0.049497 0.580080
Si Si3 0.101693 0.143892 0.007961
Si Si4 0.333120 0.421529 0.778532
Si Si5 0.339371 0.862581 0.967335
Si Si6 0.088804 0.134407 0.377412
Si Si7 0.229694 0.763453 0.236955
Si Si8 0.696774 0.163867 0.433825
O O1 0.038806 0.544403 0.689726
O O2 0.039159 0.751162 0.829980
O O3 0.566567 0.226095 0.552849
O O4 0.500000 0.000000 0.500000
O O5 0.608082 0.946800 0.569767
O O6 0.139733 0.066914 0.105291
O O7 0.142321 0.237090 0.947257
O O8 0.070228 0.011638 0.936699
O O9 0.380465 0.422583 0.711243
O O10 0.296515 0.264721 0.760146
O O11 0.289922 0.562140 0.749509
O O12 0.297047 0.793445 0.873392
O O13 0.365679 0.730789 0.044821
O O14 0.309713 0.993931 0.023135
O O15 0.205385 0.665827 0.320511
O O16 0.750000 0.250000 0.500000
#
# Coordination Sequence:
#
# PCOD9304084 Si02
#       8
#     4   8   8   8   8   8   8   8
#     4  12  26  46  76  98 136 178 232 292 360 402
#     4  11  25  48  72 103 133 177 228 294 348 414
#     4  11  24  45  68 100 142 177 231 287 344 413
#     4  12  26  42  69 103 143 185 230 284 341 416
#     4  11  27  42  72 101 138 182 232 286 345 423
#     4  12  26  48  69 103 136 184 236 290 351 416
#     4  12  26  42  68 104 140 185 232 279 345 411
#     4  11  23  42  66  98 140 184 225 275 340 409
#
# _framework density 21.493668
#
# number of rings (size 3 to 8) (size 9 to 14) (size 15 to 20)
#    0.000    0.533    6.667    0.800    5.600    1.067 
#    2.400    0.000    0.000    0.000    0.000    0.000 
#    0.000    0.000    0.000    0.000    0.000    0.000 
#
# Total GULP energy -167967.673487 kJ/mol
# GULP energy per Si atom -5598.922450 kJ/mol
# Density = 2.144475 g / cm^3
# Si number density = 21.493668 Si / 1000 Ang^3
#
#
#
# Elastic Constant Matrix: (Units=GPa)
#
#
# Indices 1 2 3 4 5 6 
#
# 1 37.9159 -11.6253 -5.8419 0.0000 -11.2259 0.0000
# 2 -11.6253 42.7178 -10.5975 0.0000 -7.6682 0.0000
# 3 -5.8419 -10.5975 82.6566 0.0000 -3.8032 0.0000
# 4 0.0000 0.0000 0.0000 34.6178 0.0000 5.1131
# 5 -11.2259 -7.6682 -3.8032 0.0000 38.5111 0.0000
# 6 0.0000 0.0000 0.0000 5.1131 0.0000 18.6593
#
#
#
# Elastic Compliance Matrix: (Units=1/GPa)
#
#
# Indices 1 2 3 4 5 6 
#
# 1 0.035071 0.013117 0.004773 0.000000 0.013306 0.000000
# 2 0.013117 0.030143 0.005268 0.000000 0.010346 0.000000
# 3 0.004773 0.005268 0.013284 0.000000 0.003752 0.000000
# 4 0.000000 0.000000 0.000000 0.030105 0.000000 -0.008250
# 5 0.013306 0.010346 0.003752 0.000000 0.032276 0.000000
# 6 0.000000 0.000000 0.000000 -0.008250 0.000000 0.055853
#
#
# Mechanical properties :
#
#
# Convention : Reuss Voigt Hill
#
# Bulk Modulus (GPa) = 8.01205 11.90677 9.95941
# Shear Modulus (GPa) = 26.03879 31.11463 28.57671
#
# Velocity S-wave (km/s) = 3.48438 3.80889 3.65024
# Velocity P-wave (km/s) = 4.46359 4.98951 4.73386
#
# Compressibility (1/GPa) = 0.12481200
#
# Stress axis : x y z
#
# Youngs Moduli (GPa) = 28.51374 33.17511 75.28088
#
# Poissons Ratio (x) = -0.43515 -0.35929
# Poissons Ratio (y) = -0.37401 -0.39656
# Poissons Ratio (z) = -0.13609 -0.17476
#
# Static dielectric constant tensor:
#      x y z
#    x 1.770960 0.000000 -0.015690 
#    y 0.000000 1.845190 0.000000 
#    z -0.015690 0.000000 1.751300 
# 
# From -- ./inp_files/172450.got.cif
#   From: 2010.05.17/outbox.cif.g08.bks.cpg/sg15_87_cif.got.tgz:172450.got - 2010.06.03 18:47:42.
