data_PCOD9304022
_publ_section_title
;
Structure prediction by ZEFSAII (Michael W. Deem and Ramdas Pophale) SiO2 
 PCOD9304022
Probable space group: C 2/C
;
_chemical_formula_sum "Si O2"
_cell_formula_units_Z 40
_cell_length_a 15.931764
_cell_length_b 15.060165
_cell_length_c 8.495763
_cell_angle_alpha 90.000000
_cell_angle_beta 65.621002
_cell_angle_gamma 90.000000
_cell_volume 1856.674213
_symmetry_space_group_name_H-M "C 2/C"
_symmetry_group_IT_number 15
_symmetry_cell_setting 'monoclinic'
loop_
_space_group_symop_operation_xyz
x,y,z
-x,y,1/2-z
-x,-y,-z
x,-y,1/2+z
1/2+x,1/2+y,z
1/2-x,1/2+y,1/2-z
1/2-x,1/2-y,-z
1/2+x,1/2-y,1/2+z
loop_
_atom_site_type_symbol
_atom_site_label
_atom_site_fract_x
_atom_site_fract_y
_atom_site_fract_z
Si Si1 0.213357 0.726968 0.855332
Si Si2 0.265817 0.050939 0.846326
Si Si3 0.499895 0.235196 0.941282
Si Si4 0.944163 0.074243 0.452938
Si Si5 0.834211 0.378364 0.617465
O O1 0.233546 0.625842 0.789701
O O2 0.264629 0.796050 0.699493
O O3 0.103751 0.738521 0.922137
O O4 0.250000 0.750000 0.000000
O O5 0.304529 0.958647 0.752716
O O6 0.160484 0.043821 0.985647
O O7 0.323617 0.088186 0.947355
O O8 0.500000 0.225388 0.750000
O O9 0.450221 0.328072 0.023201
O O10 0.437391 0.157293 0.060601
O O11 0.000000 0.085041 0.250000
O O12 0.000000 0.000000 0.500000
#
# Coordination Sequence:
#
# PCOD9304022 Si02
#       5
#     8   8   8   8   8
#     4  12  26  46  71 108 148 191 247 305 370 436
#     4  12  24  45  75 107 148 199 241 308 372 440
#     4  11  23  46  75 103 144 197 242 303 368 437
#     4  11  23  41  71 106 138 184 244 300 365 424
#     4  12  25  48  74 106 150 192 253 303 369 447
#
# _framework density 21.543897000000001
#
# number of rings (size 3 to 8) (size 9 to 14) (size 15 to 20)
#    0.000    0.400    4.000    6.600    0.000    3.200 
#    0.000    0.000    0.000    0.000    0.000    0.000 
#    0.000    0.000    0.000    0.000    0.000    0.000 
#
# Total GULP energy -111961.448028 kJ/mol
# GULP energy per Si atom -5598.072401 kJ/mol
# Density = 2.149486 g / cm^3
# Si number density = 21.543897 Si / 1000 Ang^3
#
#
#
# Elastic Constant Matrix: (Units=GPa)
#
#
# Indices 1 2 3 4 5 6 
#
# 1 146.7836 35.5048 42.3754 0.0000 -10.3895 0.0000
# 2 35.5048 132.8655 39.9322 0.0000 -19.8328 0.0000
# 3 42.3754 39.9322 60.6773 0.0000 -10.4533 0.0000
# 4 0.0000 0.0000 0.0000 50.4338 0.0000 -5.1159
# 5 -10.3895 -19.8328 -10.4533 0.0000 31.5224 0.0000
# 6 0.0000 0.0000 0.0000 -5.1159 0.0000 31.5976
#
#
#
# Elastic Compliance Matrix: (Units=1/GPa)
#
#
# Indices 1 2 3 4 5 6 
#
# 1 0.008585 -0.000533 -0.005531 0.000000 0.000660 0.000000
# 2 -0.000533 0.009940 -0.005432 0.000000 0.004277 0.000000
# 3 -0.005531 -0.005432 0.024410 0.000000 0.002854 0.000000
# 4 0.000000 0.000000 0.000000 0.020159 0.000000 0.003264
# 5 0.000660 0.004277 0.002854 0.000000 0.035578 0.000000
# 6 0.000000 0.000000 0.000000 0.003264 0.000000 0.032176
#
#
# Mechanical properties :
#
#
# Convention : Reuss Voigt Hill
#
# Bulk Modulus (GPa) = 50.14573 63.99457 57.07015
# Shear Modulus (GPa) = 31.15470 37.54503 34.34987
#
# Velocity S-wave (km/s) = 3.80689 4.17912 3.99734
# Velocity P-wave (km/s) = 6.53068 7.28392 6.91756
#
# Compressibility (1/GPa) = 0.01994188
#
# Stress axis : x y z
#
# Youngs Moduli (GPa) = 116.47911 100.60390 40.96675
#
# Poissons Ratio (x) = 0.05366 0.22659
# Poissons Ratio (y) = 0.06212 0.22254
# Poissons Ratio (z) = 0.64425 0.54651
#
# Static dielectric constant tensor:
#      x y z
#    x 1.748880 0.000000 0.004070 
#    y 0.000000 1.807060 0.000000 
#    z 0.004070 0.000000 1.754120 
# 
# From -- ./inp_files/37793.got.cif
#   From: 2010.05.17/outbox.cif.g08.bks.cpg/sg15_19_cif.got.tgz:37793.got - 2010.06.03 18:47:42.
