data_PCOD9304375
_publ_section_title
;
Structure prediction by ZEFSAII (Michael W. Deem and Ramdas Pophale) SiO2 
 PCOD9304375
Probable space group: C 2/C
;
_chemical_formula_sum "Si O2"
_cell_formula_units_Z 40
_cell_length_a 18.010020
_cell_length_b 7.746911
_cell_length_c 29.275792
_cell_angle_alpha 90.000000
_cell_angle_beta 28.400385
_cell_angle_gamma 90.000000
_cell_volume 1942.767205
_symmetry_space_group_name_H-M "C 2/C"
_symmetry_group_IT_number 15
_symmetry_cell_setting 'monoclinic'
loop_
_space_group_symop_operation_xyz
x,y,z
-x,y,1/2-z
-x,-y,-z
x,-y,1/2+z
1/2+x,1/2+y,z
1/2-x,1/2+y,1/2-z
1/2-x,1/2-y,-z
1/2+x,1/2-y,1/2+z
loop_
_atom_site_type_symbol
_atom_site_label
_atom_site_fract_x
_atom_site_fract_y
_atom_site_fract_z
Si Si1 0.357702 0.175660 0.862348
Si Si2 0.676755 0.657354 0.440648
Si Si3 0.889036 0.530974 0.016414
Si Si4 0.849295 0.000986 0.144146
Si Si5 0.945937 0.696537 0.657402
O O1 0.500000 0.178311 0.750000
O O2 0.221658 0.302614 0.918589
O O3 0.421349 0.231589 0.877043
O O4 0.288554 0.983256 0.903083
O O5 0.709833 0.855230 0.434088
O O6 0.685178 0.615745 0.382106
O O7 0.489712 0.930151 0.416834
O O8 0.000000 0.500000 0.000000
O O9 0.000581 0.115625 0.948422
O O10 0.700088 0.889590 0.238196
O O11 0.894024 0.129333 0.160605
#
# Coordination Sequence:
#
# PCOD9304375 Si02
#       5
#     8   8   8   8   8
#     4  12  27  47  70 105 150 183 232 304 354 410
#     4  11  23  47  71  99 142 188 228 293 358 414
#     4  12  25  46  74 104 140 189 239 289 352 428
#     4  11  23  43  73 101 141 186 236 287 353 425
#     4  12  25  44  72 107 141 187 241 292 352 421
#
# _framework density 20.589188
#
# number of rings (size 3 to 8) (size 9 to 14) (size 15 to 20)
#    0.000    0.400    6.000    3.000    2.800    1.600 
#    3.600    0.000    0.000    0.000    0.000    0.000 
#    0.000    0.000    0.000    0.000    0.000    0.000 
#
# Total GULP energy -111962.399867 kJ/mol
# GULP energy per Si atom -5598.119993 kJ/mol
# Density = 2.054233 g / cm^3
# Si number density = 20.589188 Si / 1000 Ang^3
#
#
#
# Elastic Constant Matrix: (Units=GPa)
#
#
# Indices 1 2 3 4 5 6 
#
# 1 107.8155 13.4902 17.7507 -0.0001 -7.7103 -0.0002
# 2 13.4902 96.3280 12.6963 -0.0002 -1.5628 -0.0002
# 3 17.7507 12.6963 123.9099 -0.0005 13.0595 0.0000
# 4 -0.0001 -0.0002 -0.0005 27.0592 0.0000 -2.0268
# 5 -7.7103 -1.5628 13.0595 0.0000 22.3346 0.0000
# 6 -0.0002 -0.0002 0.0000 -2.0268 0.0000 32.9156
#
#
#
# Elastic Compliance Matrix: (Units=1/GPa)
#
#
# Indices 1 2 3 4 5 6 
#
# 1 0.010024 -0.001096 -0.001791 0.000000 0.004431 0.000000
# 2 -0.001096 0.010688 -0.001041 0.000000 0.000978 0.000000
# 3 -0.001791 -0.001041 0.009065 0.000000 -0.005992 0.000000
# 4 0.000000 0.000000 0.000000 0.037127 0.000000 0.002286
# 5 0.004431 0.000978 -0.005992 0.000000 0.049875 0.000000
# 6 0.000000 0.000000 0.000000 0.002286 0.000000 0.030521
#
#
# Mechanical properties :
#
#
# Convention : Reuss Voigt Hill
#
# Bulk Modulus (GPa) = 45.61798 46.21418 45.91608
# Shear Modulus (GPa) = 30.77621 35.40297 33.08959
#
# Velocity S-wave (km/s) = 3.87043 4.15118 4.01326
# Velocity P-wave (km/s) = 6.49446 6.74321 6.62000
#
# Compressibility (1/GPa) = 0.02192118
#
# Stress axis : x y z
#
# Youngs Moduli (GPa) = 99.76153 93.56483 110.31357
#
# Poissons Ratio (x) = 0.10254 0.19753
# Poissons Ratio (y) = 0.10933 0.11486
# Poissons Ratio (z) = 0.17864 0.09742
#
# Static dielectric constant tensor:
#      x y z
#    x 1.732230 0.000000 -0.002200 
#    y 0.000000 1.719770 0.000000 
#    z -0.002200 0.000000 1.716550 
# 
# From -- ./inp_files/315302.got.cif
#   From: 2010.05.17/outbox.cif.g08.bks.cpg/sg15_158_cif.got.tgz:315302.got - 2010.06.03 18:47:42.
