data_PCOD9304676
_publ_section_title
;
Structure prediction by ZEFSAII (Michael W. Deem and Ramdas Pophale) SiO2 
 PCOD9304676
Probable space group: C 2/C
;
_chemical_formula_sum "Si O2"
_cell_formula_units_Z 44
_cell_length_a 18.023504
_cell_length_b 6.813018
_cell_length_c 23.675323
_cell_angle_alpha 90.000000
_cell_angle_beta 132.861632
_cell_angle_gamma 90.000000
_cell_volume 2130.972319
_symmetry_space_group_name_H-M "C 2/C"
_symmetry_group_IT_number 15
_symmetry_cell_setting 'monoclinic'
loop_
_space_group_symop_operation_xyz
x,y,z
-x,y,1/2-z
-x,-y,-z
x,-y,1/2+z
1/2+x,1/2+y,z
1/2-x,1/2+y,1/2-z
1/2-x,1/2-y,-z
1/2+x,1/2-y,1/2+z
loop_
_atom_site_type_symbol
_atom_site_label
_atom_site_fract_x
_atom_site_fract_y
_atom_site_fract_z
Si Si1 0.000000 0.149144 0.750000
Si Si2 0.999661 0.936361 0.935435
Si Si3 0.533559 0.831799 0.883459
Si Si4 0.817726 0.361861 0.989417
Si Si5 0.196964 0.920948 0.810930
Si Si6 0.651003 0.865977 0.193723
O O1 0.043302 0.283161 0.822535
O O2 0.088445 0.014950 0.769342
O O3 0.090097 0.783340 0.975312
O O4 0.900343 0.819747 0.864118
O O5 0.017191 0.127201 0.906725
O O6 0.000000 0.000000 0.000000
O O7 0.631311 0.943469 0.958311
O O8 0.435172 0.968326 0.843284
O O9 0.750000 0.250000 0.000000
O O10 0.757419 0.403118 0.900744
O O11 0.184896 0.713853 0.772322
O O12 0.259545 0.054096 0.799152
#
# Coordination Sequence:
#
# PCOD9304676 Si02
#       6
#     4   8   8   8   8   8
#     4  12  26  44  76 100 144 188 234 286 360 424
#     4  11  23  45  73  99 136 183 233 288 347 417
#     4  11  25  48  69 105 139 190 232 290 349 419
#     4  11  27  44  71 104 146 185 235 289 354 418
#     4  12  26  46  72 107 140 185 237 290 354 422
#     4  11  26  45  71 104 141 184 236 291 349 417
#
# _framework density 20.647852
#
# number of rings (size 3 to 8) (size 9 to 14) (size 15 to 20)
#    0.000    0.727    1.818    4.364    7.636    7.273 
#    0.000    0.000    0.000    0.000    0.000    0.000 
#    0.000    0.000    0.000    0.000    0.000    0.000 
#
# Total GULP energy -123173.473668 kJ/mol
# GULP energy per Si atom -5598.794258 kJ/mol
# Density = 2.060086 g / cm^3
# Si number density = 20.647852 Si / 1000 Ang^3
#
#
#
# Elastic Constant Matrix: (Units=GPa)
#
#
# Indices 1 2 3 4 5 6 
#
# 1 85.5988 -10.4579 23.9011 0.0000 5.4139 0.0000
# 2 -10.4579 57.2270 28.7987 0.0001 7.1494 0.0000
# 3 23.9011 28.7987 151.5471 0.0000 -13.7082 0.0000
# 4 0.0000 0.0001 0.0000 46.8994 0.0000 -10.1119
# 5 5.4139 7.1494 -13.7082 0.0000 38.2679 0.0000
# 6 0.0000 0.0000 0.0000 -10.1119 0.0000 23.6913
#
#
#
# Elastic Compliance Matrix: (Units=1/GPa)
#
#
# Indices 1 2 3 4 5 6 
#
# 1 0.013440 0.004644 -0.003362 0.000000 -0.003973 0.000000
# 2 0.004644 0.021936 -0.005510 0.000000 -0.006729 0.000000
# 3 -0.003362 -0.005510 0.008590 0.000000 0.004582 0.000000
# 4 0.000000 0.000000 0.000000 0.023483 0.000000 0.010023
# 5 -0.003973 -0.006729 0.004582 0.000000 0.029592 0.000000
# 6 0.000000 0.000000 0.000000 0.010023 0.000000 0.046488
#
#
# Mechanical properties :
#
#
# Convention : Reuss Voigt Hill
#
# Bulk Modulus (GPa) = 28.15962 42.09519 35.12740
# Shear Modulus (GPa) = 30.52112 38.58045 34.55078
#
# Velocity S-wave (km/s) = 3.84887 4.32730 4.09508
# Velocity P-wave (km/s) = 5.78095 6.73787 6.27767
#
# Compressibility (1/GPa) = 0.03551185
#
# Stress axis : x y z
#
# Youngs Moduli (GPa) = 74.40646 45.58669 116.41106
#
# Poissons Ratio (x) = -0.21171 0.39132
# Poissons Ratio (y) = -0.34555 0.64139
# Poissons Ratio (z) = 0.25012 0.25117
#
# Static dielectric constant tensor:
#      x y z
#    x 1.699240 0.000000 0.011310 
#    y 0.000000 1.711310 0.000000 
#    z 0.011310 0.000000 1.755640 
# 
# From -- ./inp_files/246468.got.cif
#   From: 2010.05.17/outbox.cif.g08.bks.cpg/sg15_124_cif.got.tgz:246468.got - 2010.06.03 18:47:42.
