data_PCOD9304422
_publ_section_title
;
Structure prediction by ZEFSAII (Michael W. Deem and Ramdas Pophale) SiO2 
 PCOD9304422
Probable space group: C 2/C
;
_chemical_formula_sum "Si O2"
_cell_formula_units_Z 40
_cell_length_a 24.225725
_cell_length_b 9.138253
_cell_length_c 9.158945
_cell_angle_alpha 90.000000
_cell_angle_beta 99.253066
_cell_angle_gamma 90.000000
_cell_volume 2001.230809
_symmetry_space_group_name_H-M "C 2/C"
_symmetry_group_IT_number 15
_symmetry_cell_setting 'monoclinic'
loop_
_space_group_symop_operation_xyz
x,y,z
-x,y,1/2-z
-x,-y,-z
x,-y,1/2+z
1/2+x,1/2+y,z
1/2-x,1/2+y,1/2-z
1/2-x,1/2-y,-z
1/2+x,1/2-y,1/2+z
loop_
_atom_site_type_symbol
_atom_site_label
_atom_site_fract_x
_atom_site_fract_y
_atom_site_fract_z
Si Si1 0.769373 0.659017 0.368159
Si Si2 0.507987 0.343393 0.929181
Si Si3 0.600535 0.830859 0.614569
Si Si4 0.792326 0.687737 0.903128
Si Si5 0.083549 0.357988 0.950575
O O1 0.750000 0.750000 0.500000
O O2 0.833087 0.701142 0.351237
O O3 0.775844 0.483259 0.377678
O O4 0.721430 0.711436 0.239090
O O5 0.500000 0.345239 0.750000
O O6 0.500000 0.500000 0.000000
O O7 0.568761 0.291498 0.008815
O O8 0.464421 0.231077 0.986573
O O9 0.578749 0.850755 0.772191
O O10 0.587058 0.978251 0.517248
O O11 0.750000 0.750000 0.000000
O O12 0.855626 0.703429 0.981135
#
# Coordination Sequence:
#
# PCOD9304422 Si02
#       5
#     8   8   8   8   8
#     4  11  25  40  69  98 138 180 226 279 337 405
#     4  12  27  46  69  99 134 171 222 281 340 395
#     4  11  24  45  69  98 131 179 226 271 336 403
#     4  11  23  44  65 100 136 178 227 274 339 403
#     4  11  24  44  71  95 135 177 225 274 330 409
#
# _framework density 19.987698000000002
#
# number of rings (size 3 to 8) (size 9 to 14) (size 15 to 20)
#    0.000    0.800    2.000    4.800   11.200    3.200 
#    0.000    0.000    0.000    0.000    0.000    0.000 
#    0.000    0.000    0.000    0.000    0.000    0.000 
#
# Total GULP energy -111636.343272 kJ/mol
# GULP energy per Si atom -5581.817164 kJ/mol
# Density = 1.994221 g / cm^3
# Si number density = 19.987698 Si / 1000 Ang^3
#
#
#
# Elastic Constant Matrix: (Units=GPa)
#
#
# Indices 1 2 3 4 5 6 
#
# 1 71.8348 31.6355 14.7830 0.0000 3.1176 0.0000
# 2 31.6355 46.3168 7.2240 0.0000 14.0538 0.0000
# 3 14.7830 7.2240 152.0000 0.0000 -1.1726 0.0000
# 4 0.0000 0.0000 0.0000 31.1348 0.0000 0.1398
# 5 3.1176 14.0538 -1.1726 0.0000 39.4142 0.0000
# 6 0.0000 0.0000 0.0000 0.1398 0.0000 37.0329
#
#
#
# Elastic Compliance Matrix: (Units=1/GPa)
#
#
# Indices 1 2 3 4 5 6 
#
# 1 0.020633 -0.015013 -0.001265 0.000000 0.003684 0.000000
# 2 -0.015013 0.035361 -0.000309 0.000000 -0.011430 0.000000
# 3 -0.001265 -0.000309 0.006720 0.000000 0.000410 0.000000
# 4 0.000000 0.000000 0.000000 0.032119 0.000000 -0.000121
# 5 0.003684 -0.011430 0.000410 0.000000 0.029168 0.000000
# 6 0.000000 0.000000 0.000000 -0.000121 0.000000 0.027003
#
#
# Mechanical properties :
#
#
# Convention : Reuss Voigt Hill
#
# Bulk Modulus (GPa) = 33.85155 41.93738 37.89446
# Shear Modulus (GPa) = 25.76991 35.95031 30.86011
#
# Velocity S-wave (km/s) = 3.59456 4.24562 3.93358
# Velocity P-wave (km/s) = 5.84814 6.71274 6.29530
#
# Compressibility (1/GPa) = 0.02954075
#
# Stress axis : x y z
#
# Youngs Moduli (GPa) = 48.46612 28.27953 148.81432
#
# Poissons Ratio (x) = 0.42457 0.18821
# Poissons Ratio (y) = 0.72763 0.04593
# Poissons Ratio (z) = 0.06130 0.00873
#
# Static dielectric constant tensor:
#      x y z
#    x 1.736090 0.000000 -0.012190 
#    y 0.000000 1.672380 0.000000 
#    z -0.012190 0.000000 1.625180 
# 
# From -- ./inp_files/59907.got.cif
#   From: 2010.05.17/outbox.cif.g08.bks.cpg/sg15_30_cif.got.tgz:59907.got - 2010.06.03 18:47:42.
