data_PCOD9304865
_publ_section_title
;
Structure prediction by ZEFSAII (Michael W. Deem and Ramdas Pophale) SiO2 
 PCOD9304865
Probable space group: C 2/C
;
_chemical_formula_sum "Si O2"
_cell_formula_units_Z 40
_cell_length_a 31.303128
_cell_length_b 8.635490
_cell_length_c 21.012279
_cell_angle_alpha 90.000000
_cell_angle_beta 17.977469
_cell_angle_gamma 90.000000
_cell_volume 1753.090275
_symmetry_space_group_name_H-M "C 2/C"
_symmetry_group_IT_number 15
_symmetry_cell_setting 'monoclinic'
loop_
_space_group_symop_operation_xyz
x,y,z
-x,y,1/2-z
-x,-y,-z
x,-y,1/2+z
1/2+x,1/2+y,z
1/2-x,1/2+y,1/2-z
1/2-x,1/2-y,-z
1/2+x,1/2-y,1/2+z
loop_
_atom_site_type_symbol
_atom_site_label
_atom_site_fract_x
_atom_site_fract_y
_atom_site_fract_z
Si Si1 0.352621 0.611073 0.873012
Si Si2 0.155385 0.957653 0.968513
Si Si3 0.619163 0.585706 0.291955
Si Si4 0.456182 0.103078 0.002644
Si Si5 0.402045 0.819946 0.449769
O O1 0.518536 0.639552 0.644044
O O2 0.342993 0.492162 0.828519
O O3 0.250000 0.750000 0.000000
O O4 0.320212 0.546755 0.989595
O O5 0.290497 0.884352 0.745521
O O6 0.127578 0.138426 0.989267
O O7 0.500000 0.500000 0.500000
O O8 0.551724 0.749706 0.375122
O O9 0.757081 0.604707 0.136890
O O10 0.471044 0.073709 0.906463
O O11 0.500000 0.000000 0.000000
O O12 0.500000 0.811310 0.250000
#
# Coordination Sequence:
#
# PCOD9304865 Si02
#       5
#     8   8   8   8   8
#     4  11  24  48  74 108 157 205 262 331 395 470
#     4  11  23  47  76 111 154 203 265 324 397 486
#     4  12  26  47  74 111 158 206 260 321 403 480
#     4  12  26  46  78 112 154 205 260 330 394 471
#     4  12  26  48  78 112 155 206 268 326 398 483
#
# _framework density 22.816849999999999
#
# number of rings (size 3 to 8) (size 9 to 14) (size 15 to 20)
#    0.000    0.400    6.000    2.400    2.800    1.600 
#    7.200    0.000    0.000    0.000    0.000    0.000 
#    0.000    0.000    0.000    0.000    0.000    0.000 
#
# Total GULP energy -111790.020708 kJ/mol
# GULP energy per Si atom -5589.501035 kJ/mol
# Density = 2.276492 g / cm^3
# Si number density = 22.816850 Si / 1000 Ang^3
#
#
#
# Elastic Constant Matrix: (Units=GPa)
#
#
# Indices 1 2 3 4 5 6 
#
# 1 167.9655 68.2862 33.4577 0.0000 -16.5627 0.0000
# 2 68.2862 94.2888 36.8540 -0.0001 -7.2636 0.0000
# 3 33.4577 36.8540 91.9216 -0.0001 -11.9200 0.0000
# 4 0.0000 -0.0001 -0.0001 48.7229 0.0000 2.2231
# 5 -16.5627 -7.2636 -11.9200 0.0000 38.0729 0.0000
# 6 0.0000 0.0000 0.0000 2.2231 0.0000 37.3041
#
#
#
# Elastic Compliance Matrix: (Units=1/GPa)
#
#
# Indices 1 2 3 4 5 6 
#
# 1 0.008704 -0.005928 -0.000466 0.000000 0.002510 0.000000
# 2 -0.005928 0.016641 -0.004625 0.000000 -0.000852 0.000000
# 3 -0.000466 -0.004625 0.013302 0.000000 0.003080 0.000000
# 4 0.000000 0.000000 0.000000 0.020580 0.000000 -0.001226
# 5 0.002510 -0.000852 0.003080 0.000000 0.028159 0.000000
# 6 0.000000 0.000000 0.000000 -0.001226 0.000000 0.026880
#
#
# Mechanical properties :
#
#
# Convention : Reuss Voigt Hill
#
# Bulk Modulus (GPa) = 60.20628 70.15242 65.17935
# Shear Modulus (GPa) = 35.25113 39.19185 37.22149
#
# Velocity S-wave (km/s) = 3.93486 4.14898 4.04334
# Velocity P-wave (km/s) = 6.86209 7.33244 7.10116
#
# Compressibility (1/GPa) = 0.01660956
#
# Stress axis : x y z
#
# Youngs Moduli (GPa) = 114.89010 60.09258 75.17738
#
# Poissons Ratio (x) = 0.35624 0.03502
# Poissons Ratio (y) = 0.68109 0.34766
# Poissons Ratio (z) = 0.05352 0.27790
#
# Static dielectric constant tensor:
#      x y z
#    x 1.813850 0.000000 0.000670 
#    y 0.000000 1.831330 0.000000 
#    z 0.000670 0.000000 1.838010 
# 
# From -- ./inp_files/258910.got.cif
#   From: 2010.05.17/outbox.cif.g08.bks.cpg/sg15_130_cif.got.tgz:258910.got - 2010.06.03 18:47:42.
