data_PCOD9304692
_publ_section_title
;
Structure prediction by ZEFSAII (Michael W. Deem and Ramdas Pophale) SiO2 
 PCOD9304692
Probable space group: C 2/C
;
_chemical_formula_sum "Si O2"
_cell_formula_units_Z 52
_cell_length_a 17.689264
_cell_length_b 8.686452
_cell_length_c 17.949230
_cell_angle_alpha 90.000000
_cell_angle_beta 107.113080
_cell_angle_gamma 90.000000
_cell_volume 2635.914683
_symmetry_space_group_name_H-M "C 2/C"
_symmetry_group_IT_number 15
_symmetry_cell_setting 'monoclinic'
loop_
_space_group_symop_operation_xyz
x,y,z
-x,y,1/2-z
-x,-y,-z
x,-y,1/2+z
1/2+x,1/2+y,z
1/2-x,1/2+y,1/2-z
1/2-x,1/2-y,-z
1/2+x,1/2-y,1/2+z
loop_
_atom_site_type_symbol
_atom_site_label
_atom_site_fract_x
_atom_site_fract_y
_atom_site_fract_z
Si Si1 0.253816 0.542664 0.821209
Si Si2 0.141561 0.320369 0.698490
Si Si3 0.171623 0.695586 0.934029
Si Si4 0.607359 0.646497 0.065133
Si Si5 0.451170 0.475177 0.599443
Si Si6 0.000000 0.813792 0.250000
Si Si7 0.906265 0.497773 0.962495
O O1 0.199690 0.444987 0.750806
O O2 0.310135 0.662640 0.795673
O O3 0.198215 0.634829 0.861910
O O4 0.312328 0.433915 0.885400
O O5 0.065805 0.288808 0.727975
O O6 0.115553 0.378965 0.609484
O O7 0.110219 0.835669 0.909738
O O8 0.250000 0.750000 0.000000
O O9 0.133080 0.562333 0.973198
O O10 0.535881 0.595454 0.099234
O O11 0.618013 0.829383 0.065532
O O12 0.580272 0.582547 0.976851
O O13 0.461492 0.576899 0.675990
O O14 0.000000 0.500000 0.000000
#
# Coordination Sequence:
#
# PCOD9304692 Si02
#       7
#     8   8   8   8   8   4   8
#     4  12  27  48  71 104 145 182 233 293 357 409
#     4  12  28  47  69 105 146 182 230 295 353 419
#     4  12  25  47  73 104 139 184 234 290 346 418
#     4  11  23  45  75  99 135 192 231 285 345 418
#     4  11  24  45  72 100 140 184 237 281 349 416
#     4  12  28  44  74 104 140 184 238 288 350 422
#     4  12  25  45  74 103 141 185 236 286 344 419
#
# _framework density 19.727498000000001
#
# number of rings (size 3 to 8) (size 9 to 14) (size 15 to 20)
#    0.000    0.308    6.154    1.846    6.462    3.077 
#    0.000    0.000    0.000    0.000    0.000    0.000 
#    0.000    0.000    0.000    0.000    0.000    0.000 
#
# Total GULP energy -145568.937587 kJ/mol
# GULP energy per Si atom -5598.805292 kJ/mol
# Density = 1.968260 g / cm^3
# Si number density = 19.727498 Si / 1000 Ang^3
#
#
#
# Elastic Constant Matrix: (Units=GPa)
#
#
# Indices 1 2 3 4 5 6 
#
# 1 105.6922 29.5019 14.5434 0.0000 -4.9905 0.0000
# 2 29.5019 87.6862 1.1168 0.0000 5.0196 0.0000
# 3 14.5434 1.1168 63.0541 0.0000 12.9881 0.0000
# 4 0.0000 0.0000 0.0000 29.2214 0.0000 -3.8808
# 5 -4.9905 5.0196 12.9881 0.0000 24.2086 0.0000
# 6 0.0000 0.0000 0.0000 -3.8808 0.0000 42.6832
#
#
#
# Elastic Compliance Matrix: (Units=1/GPa)
#
#
# Indices 1 2 3 4 5 6 
#
# 1 0.011330 -0.004058 -0.003593 0.000000 0.005105 0.000000
# 2 -0.004058 0.013001 0.001611 0.000000 -0.004397 0.000000
# 3 -0.003593 0.001611 0.018978 0.000000 -0.011257 0.000000
# 4 0.000000 0.000000 0.000000 0.034640 0.000000 0.003149
# 5 0.005105 -0.004397 -0.011257 0.000000 0.049311 0.000000
# 6 0.000000 0.000000 0.000000 0.003149 0.000000 0.023715
#
#
# Mechanical properties :
#
#
# Convention : Reuss Voigt Hill
#
# Bulk Modulus (GPa) = 32.02092 38.52851 35.27472
# Shear Modulus (GPa) = 28.82455 33.30733 31.06594
#
# Velocity S-wave (km/s) = 3.82663 4.11344 3.97262
# Velocity P-wave (km/s) = 5.98255 6.49101 6.24196
#
# Compressibility (1/GPa) = 0.03122959
#
# Stress axis : x y z
#
# Youngs Moduli (GPa) = 88.26429 76.91788 52.69194
#
# Poissons Ratio (x) = 0.31215 0.18931
# Poissons Ratio (y) = 0.35820 -0.08491
# Poissons Ratio (z) = 0.31711 -0.12395
#
# Static dielectric constant tensor:
#      x y z
#    x 1.656630 0.000000 0.008110 
#    y 0.000000 1.606370 0.000000 
#    z 0.008110 0.000000 1.661560 
# 
# From -- ./inp_files/209699.got.cif
#   From: 2010.05.17/outbox.cif.g08.bks.cpg/sg15_105_cif.got.tgz:209699.got - 2010.06.03 18:47:42.
