data_PCOD9304605
_publ_section_title
;
Structure prediction by ZEFSAII (Michael W. Deem and Ramdas Pophale) SiO2 
 PCOD9304605
Probable space group: C 2/C
;
_chemical_formula_sum "Si O2"
_cell_formula_units_Z 44
_cell_length_a 11.368350
_cell_length_b 14.400541
_cell_length_c 12.048974
_cell_angle_alpha 90.000000
_cell_angle_beta 77.028301
_cell_angle_gamma 90.000000
_cell_volume 1922.205048
_symmetry_space_group_name_H-M "C 2/C"
_symmetry_group_IT_number 15
_symmetry_cell_setting 'monoclinic'
loop_
_space_group_symop_operation_xyz
x,y,z
-x,y,1/2-z
-x,-y,-z
x,-y,1/2+z
1/2+x,1/2+y,z
1/2-x,1/2+y,1/2-z
1/2-x,1/2-y,-z
1/2+x,1/2-y,1/2+z
loop_
_atom_site_type_symbol
_atom_site_label
_atom_site_fract_x
_atom_site_fract_y
_atom_site_fract_z
Si Si1 0.832743 0.932686 0.493289
Si Si2 0.192392 0.548501 0.228024
Si Si3 0.500000 0.198928 0.250000
Si Si4 0.918582 0.422561 0.079216
Si Si5 0.890669 0.894847 0.855656
Si Si6 0.981812 0.771339 0.013127
O O1 0.784565 0.982495 0.614298
O O2 0.713023 0.910718 0.448595
O O3 0.904151 0.841349 0.512501
O O4 0.912340 0.003720 0.405083
O O5 0.108608 0.629375 0.196193
O O6 0.113805 0.465601 0.294639
O O7 0.268405 0.594169 0.312039
O O8 0.539112 0.254209 0.351428
O O9 0.986233 0.325700 0.051887
O O10 0.000000 0.500000 0.000000
O O11 0.000000 0.870156 0.750000
O O12 0.883906 0.822987 0.958153
#
# Coordination Sequence:
#
# PCOD9304605 Si02
#       6
#     8   8   4   8   8   8
#     4  11  24  44  73 101 141 192 236 290 360 424
#     4  11  23  47  70 103 149 182 236 297 355 432
#     4  12  26  44  74 104 142 190 244 288 356 434
#     4  11  23  45  69 102 143 188 236 292 352 422
#     4  11  26  46  70 107 148 183 237 303 357 424
#     4  12  25  45  73 107 140 186 247 288 359 426
#
# _framework density 22.890378999999999
#
# number of rings (size 3 to 8) (size 9 to 14) (size 15 to 20)
#    0.000    0.727    5.455    1.091    1.273    2.182 
#    4.909    0.000    0.000    0.000    0.000    0.000 
#    0.000    0.000    0.000    0.000    0.000    0.000 
#
# Total GULP energy -123056.195772 kJ/mol
# GULP energy per Si atom -5593.463444 kJ/mol
# Density = 2.283828 g / cm^3
# Si number density = 22.890379 Si / 1000 Ang^3
#
#
#
# Elastic Constant Matrix: (Units=GPa)
#
#
# Indices 1 2 3 4 5 6 
#
# 1 56.4708 3.0655 -2.9909 0.0000 23.3837 0.0000
# 2 3.0655 98.7149 14.9899 0.0000 4.3377 0.0000
# 3 -2.9909 14.9899 109.9055 0.0000 0.1726 0.0000
# 4 0.0000 0.0000 0.0000 27.7203 0.0000 -7.6493
# 5 23.3837 4.3377 0.1726 0.0000 42.7230 0.0000
# 6 0.0000 0.0000 0.0000 -7.6493 0.0000 7.8820
#
#
#
# Elastic Compliance Matrix: (Units=1/GPa)
#
#
# Indices 1 2 3 4 5 6 
#
# 1 0.022950 -0.000265 0.000680 0.000000 -0.012537 0.000000
# 2 -0.000265 0.010394 -0.001423 0.000000 -0.000905 0.000000
# 3 0.000680 -0.001423 0.009312 0.000000 -0.000266 0.000000
# 4 0.000000 0.000000 0.000000 0.049269 0.000000 0.047814
# 5 -0.012537 -0.000905 -0.000266 0.000000 0.030362 0.000000
# 6 0.000000 0.000000 0.000000 0.047814 0.000000 0.173275
#
#
# Mechanical properties :
#
#
# Convention : Reuss Voigt Hill
#
# Bulk Modulus (GPa) = 24.60631 32.80225 28.70428
# Shear Modulus (GPa) = 16.07076 32.33349 24.20212
#
# Velocity S-wave (km/s) = 2.65254 3.76245 3.25515
# Velocity P-wave (km/s) = 4.48935 5.76506 5.16673
#
# Compressibility (1/GPa) = 0.04063998
#
# Stress axis : x y z
#
# Youngs Moduli (GPa) = 43.57262 96.20644 107.39055
#
# Poissons Ratio (x) = 0.02550 -0.07307
# Poissons Ratio (y) = 0.01155 0.15287
# Poissons Ratio (z) = -0.02965 0.13695
#
# Static dielectric constant tensor:
#      x y z
#    x 1.852350 0.000000 0.031490 
#    y 0.000000 1.810610 0.000000 
#    z 0.031490 0.000000 1.889850 
# 
# From -- ./inp_files/86111.got.cif
#   From: 2010.05.17/outbox.cif.g08.bks.cpg/sg15_44_cif.got.tgz:86111.got - 2010.06.03 18:47:42.
