data_PCOD9304722
_publ_section_title
;
Structure prediction by ZEFSAII (Michael W. Deem and Ramdas Pophale) SiO2 
 PCOD9304722
Probable space group: C 2/C
;
_chemical_formula_sum "Si O2"
_cell_formula_units_Z 44
_cell_length_a 6.789101
_cell_length_b 26.376825
_cell_length_c 14.863455
_cell_angle_alpha 90.000000
_cell_angle_beta 132.627766
_cell_angle_gamma 90.000000
_cell_volume 1958.375805
_symmetry_space_group_name_H-M "C 2/C"
_symmetry_group_IT_number 15
_symmetry_cell_setting 'monoclinic'
loop_
_space_group_symop_operation_xyz
x,y,z
-x,y,1/2-z
-x,-y,-z
x,-y,1/2+z
1/2+x,1/2+y,z
1/2-x,1/2+y,1/2-z
1/2-x,1/2-y,-z
1/2+x,1/2-y,1/2+z
loop_
_atom_site_type_symbol
_atom_site_label
_atom_site_fract_x
_atom_site_fract_y
_atom_site_fract_z
Si Si1 0.937164 0.904096 0.543962
Si Si2 0.500000 0.364039 0.750000
Si Si3 0.030900 0.525830 0.606055
Si Si4 0.500000 0.392349 0.250000
Si Si5 0.987531 0.179008 0.920226
Si Si6 0.938097 0.284382 0.834495
Si Si7 0.000000 0.550993 0.250000
O O1 0.877143 0.853390 0.469424
O O2 0.252117 0.916883 0.635064
O O3 0.877173 0.896053 0.630825
O O4 0.752788 0.949618 0.452826
O O5 0.718860 0.327833 0.773066
O O6 0.243719 0.571003 0.666487
O O7 0.110571 0.484516 0.704835
O O8 0.000000 0.500000 0.500000
O O9 0.519264 0.357075 0.168386
O O10 0.850492 0.232750 0.856909
O O11 0.292975 0.194285 0.036939
O O12 0.000000 0.272079 0.750000
#
# Coordination Sequence:
#
# PCOD9304722 Si02
#       7
#     8   4   8   4   8   8   4
#     4  12  24  42  68 100 129 179 231 272 341 407
#     4  12  24  41  71  98 134 178 223 277 330 406
#     4  12  25  43  65  97 133 177 226 281 341 397
#     4  12  24  43  67  98 138 178 229 277 336 408
#     4  11  24  43  69  97 139 178 220 284 333 400
#     4  11  23  46  67 100 139 176 225 277 341 399
#     4  12  24  44  68  92 136 172 224 288 336 400
#
# _framework density 22.467597999999999
#
# number of rings (size 3 to 8) (size 9 to 14) (size 15 to 20)
#    0.000    0.364    2.727    7.091    0.000    2.182 
#    0.000    0.000    0.000    0.000    0.000    0.000 
#    0.000    0.000    0.000    0.000    0.000    0.000 
#
# Total GULP energy -123263.778158 kJ/mol
# GULP energy per Si atom -5602.899007 kJ/mol
# Density = 2.241646 g / cm^3
# Si number density = 22.467598 Si / 1000 Ang^3
#
#
#
# Elastic Constant Matrix: (Units=GPa)
#
#
# Indices 1 2 3 4 5 6 
#
# 1 30.5134 6.6988 6.4023 0.0000 -0.6806 0.0000
# 2 6.6988 94.0700 32.0519 0.0000 -6.5337 0.0000
# 3 6.4023 32.0519 92.1305 0.0000 -14.5619 0.0000
# 4 0.0000 0.0000 0.0000 23.8322 0.0000 -22.1111
# 5 -0.6806 -6.5337 -14.5619 0.0000 52.1925 0.0000
# 6 0.0000 0.0000 0.0000 -22.1111 0.0000 35.1978
#
#
#
# Elastic Compliance Matrix: (Units=1/GPa)
#
#
# Indices 1 2 3 4 5 6 
#
# 1 0.033530 -0.001813 -0.001743 0.000000 -0.000276 0.000000
# 2 -0.001813 0.012164 -0.004047 0.000000 0.000370 0.000000
# 3 -0.001743 -0.004047 0.012867 0.000000 0.003061 0.000000
# 4 0.000000 0.000000 0.000000 0.100582 0.000000 0.063185
# 5 -0.000276 0.000370 0.003061 0.000000 0.020056 0.000000
# 6 0.000000 0.000000 0.000000 0.063185 0.000000 0.068103
#
#
# Mechanical properties :
#
#
# Convention : Reuss Voigt Hill
#
# Bulk Modulus (GPa) = 23.06557 34.11332 28.58944
# Shear Modulus (GPa) = 18.05307 33.68190 25.86749
#
# Velocity S-wave (km/s) = 2.83771 3.87606 3.39680
# Velocity P-wave (km/s) = 4.58533 5.93701 5.30440
#
# Compressibility (1/GPa) = 0.04335466
#
# Stress axis : x y z
#
# Youngs Moduli (GPa) = 29.82398 82.20822 77.71740
#
# Poissons Ratio (x) = 0.14904 0.13546
# Poissons Ratio (y) = 0.05407 0.31456
# Poissons Ratio (z) = 0.05198 0.33273
#
# Static dielectric constant tensor:
#      x y z
#    x 1.802450 0.000000 -0.008550 
#    y 0.000000 1.782730 0.000000 
#    z -0.008550 0.000000 1.778570 
# 
# From -- ./inp_files/130021.got.cif
#   From: 2010.05.17/outbox.cif.g08.bks.cpg/sg15_66_cif.got.tgz:130021.got - 2010.06.03 18:47:42.
