data_PCOD9304560
_publ_section_title
;
Structure prediction by ZEFSAII (Michael W. Deem and Ramdas Pophale) SiO2 
 PCOD9304560
Probable space group: C 2/C
;
_chemical_formula_sum "Si O2"
_cell_formula_units_Z 40
_cell_length_a 8.858747
_cell_length_b 16.603641
_cell_length_c 11.856444
_cell_angle_alpha 90.000000
_cell_angle_beta 77.550331
_cell_angle_gamma 90.000000
_cell_volume 1702.926885
_symmetry_space_group_name_H-M "C 2/C"
_symmetry_group_IT_number 15
_symmetry_cell_setting 'monoclinic'
loop_
_space_group_symop_operation_xyz
x,y,z
-x,y,1/2-z
-x,-y,-z
x,-y,1/2+z
1/2+x,1/2+y,z
1/2-x,1/2+y,1/2-z
1/2-x,1/2-y,-z
1/2+x,1/2-y,1/2+z
loop_
_atom_site_type_symbol
_atom_site_label
_atom_site_fract_x
_atom_site_fract_y
_atom_site_fract_z
Si Si1 0.129571 0.686704 0.819661
Si Si2 0.916832 0.208239 0.488917
Si Si3 0.681738 0.154658 0.214729
Si Si4 0.339321 0.605723 0.952574
Si Si5 0.365442 0.554979 0.350247
O O1 0.230529 0.763136 0.762751
O O2 0.244716 0.622715 0.853371
O O3 0.000000 0.661914 0.750000
O O4 0.033247 0.720461 0.941144
O O5 0.750000 0.250000 0.500000
O O6 0.923940 0.138656 0.393071
O O7 0.000150 0.157090 0.575346
O O8 0.500000 0.167542 0.250000
O O9 0.725536 0.082502 0.293276
O O10 0.746961 0.134125 0.079494
O O11 0.345277 0.509198 0.952159
O O12 0.500000 0.521016 0.250000
#
# Coordination Sequence:
#
# PCOD9304560 Si02
#       5
#     8   8   8   8   8
#     4  11  23  45  69 101 139 181 242 291 349 429
#     4  11  23  44  74  98 137 189 235 287 354 422
#     4  11  24  45  71  99 143 190 232 294 359 415
#     4  11  27  44  72 108 141 183 244 292 353 428
#     4  12  24  47  70 101 147 186 227 293 363 419
#
# _framework density 23.488972
#
# number of rings (size 3 to 8) (size 9 to 14) (size 15 to 20)
#    0.000    0.800    6.000    3.000    5.600    4.000 
#    0.000    0.000    0.000    0.000    0.000    0.000 
#    0.000    0.000    0.000    0.000    0.000    0.000 
#
# Total GULP energy -111633.510318 kJ/mol
# GULP energy per Si atom -5581.675516 kJ/mol
# Density = 2.343551 g / cm^3
# Si number density = 23.488972 Si / 1000 Ang^3
#
#
#
# Elastic Constant Matrix: (Units=GPa)
#
#
# Indices 1 2 3 4 5 6 
#
# 1 169.8744 26.9381 29.5539 0.0000 22.7141 0.0000
# 2 26.9381 50.2354 15.0672 0.0000 10.9524 0.0000
# 3 29.5539 15.0672 70.9885 0.0000 23.9782 0.0000
# 4 0.0000 0.0000 0.0000 -16.6349 0.0000 -6.7129
# 5 22.7141 10.9524 23.9782 0.0000 49.0369 0.0000
# 6 0.0000 0.0000 0.0000 -6.7129 0.0000 17.1661
#
#
#
# Elastic Compliance Matrix: (Units=1/GPa)
#
#
# Indices 1 2 3 4 5 6 
#
# 1 0.006853 -0.002795 -0.001675 0.000000 -0.001731 0.000000
# 2 -0.002795 0.022786 -0.002864 0.000000 -0.002394 0.000000
# 3 -0.001675 -0.002864 0.017864 0.000000 -0.007320 0.000000
# 4 0.000000 0.000000 0.000000 -0.051921 0.000000 -0.020304
# 5 -0.001731 -0.002394 -0.007320 0.000000 0.025309 0.000000
# 6 0.000000 0.000000 0.000000 -0.020304 0.000000 0.050315
#
#
# Mechanical properties :
#
#
# Convention : Reuss Voigt Hill
#
# Bulk Modulus (GPa) = 30.45506 48.24631 39.35069
# Shear Modulus (GPa) = 51.64311 24.54955 38.09633
#
# Velocity S-wave (km/s) = 4.69402 3.23639 4.03163
# Velocity P-wave (km/s) = 6.50940 5.87794 6.20171
#
# Compressibility (1/GPa) = 0.03283526
#
# Stress axis : x y z
#
# Youngs Moduli (GPa) = 145.92637 43.88657 55.97697
#
# Poissons Ratio (x) = 0.12266 0.09377
# Poissons Ratio (y) = 0.40785 0.16032
# Poissons Ratio (z) = 0.24444 0.12569
#
# Static dielectric constant tensor:
#      x y z
#    x 1.932080 0.000000 0.012060 
#    y 0.000000 1.816960 0.000000 
#    z 0.012060 0.000000 1.955510 
# 
# From -- ./inp_files/76792.got.cif
#   From: 2010.05.17/outbox.cif.g08.bks.cpg/sg15_39_cif.got.tgz:76792.got - 2010.06.03 18:47:42.
