data_PCOD9304406
_publ_section_title
;
Structure prediction by ZEFSAII (Michael W. Deem and Ramdas Pophale) SiO2 
 PCOD9304406
Probable space group: C 2/C
;
_chemical_formula_sum "Si O2"
_cell_formula_units_Z 44
_cell_length_a 10.842313
_cell_length_b 17.137725
_cell_length_c 10.907945
_cell_angle_alpha 90.000000
_cell_angle_beta 84.081459
_cell_angle_gamma 90.000000
_cell_volume 2016.029354
_symmetry_space_group_name_H-M "C 2/C"
_symmetry_group_IT_number 15
_symmetry_cell_setting 'monoclinic'
loop_
_space_group_symop_operation_xyz
x,y,z
-x,y,1/2-z
-x,-y,-z
x,-y,1/2+z
1/2+x,1/2+y,z
1/2-x,1/2+y,1/2-z
1/2-x,1/2-y,-z
1/2+x,1/2-y,1/2+z
loop_
_atom_site_type_symbol
_atom_site_label
_atom_site_fract_x
_atom_site_fract_y
_atom_site_fract_z
Si Si1 0.810459 0.760044 0.188766
Si Si2 0.500000 0.474235 0.750000
Si Si3 0.657552 0.654976 0.367475
Si Si4 0.952169 0.545400 0.623779
Si Si5 0.053930 0.281621 0.065556
Si Si6 0.676882 0.405411 0.135668
O O1 0.774772 0.692101 0.287128
O O2 0.682627 0.773260 0.126200
O O3 0.841083 0.838841 0.259385
O O4 0.913009 0.734666 0.079926
O O5 0.398324 0.419470 0.696681
O O6 0.432988 0.532021 0.851462
O O7 0.547453 0.718743 0.382873
O O8 0.688676 0.634467 0.503120
O O9 0.804382 0.549423 0.646403
O O10 0.000000 0.515167 0.750000
O O11 0.000000 0.500000 0.500000
O O12 0.000508 0.633660 0.599575
#
# Coordination Sequence:
#
# PCOD9304406 Si02
#       6
#     8   4   8   8   8   8
#     4  11  23  43  76 101 142 191 245 292 363 444
#     4  12  28  46  74 108 148 188 250 298 380 430
#     4  12  24  48  71 108 142 193 245 304 362 442
#     4  12  28  48  72 106 152 193 248 307 379 443
#     4  11  23  45  75 101 141 195 242 295 365 440
#     4  12  27  46  72 107 151 185 241 313 368 440
#
# _framework density 21.825078999999999
#
# number of rings (size 3 to 8) (size 9 to 14) (size 15 to 20)
#    0.000    0.364    5.455    2.182    5.091    0.000 
#    0.000    0.000    0.000    0.000    0.000    0.000 
#    0.000    0.000    0.000    0.000    0.000    0.000 
#
# Total GULP energy -123250.085570 kJ/mol
# GULP energy per Si atom -5602.276617 kJ/mol
# Density = 2.177540 g / cm^3
# Si number density = 21.825079 Si / 1000 Ang^3
#
#
#
# Elastic Constant Matrix: (Units=GPa)
#
#
# Indices 1 2 3 4 5 6 
#
# 1 44.8133 8.5389 14.4958 0.0000 -5.5168 0.0000
# 2 8.5389 82.7727 54.5744 0.0000 -5.3228 0.0000
# 3 14.4958 54.5744 146.6605 0.0000 -13.4865 0.0000
# 4 0.0000 0.0000 0.0000 28.7414 0.0000 1.2914
# 5 -5.5168 -5.3228 -13.4865 0.0000 42.6673 0.0000
# 6 0.0000 0.0000 0.0000 1.2914 0.0000 9.0991
#
#
#
# Elastic Compliance Matrix: (Units=1/GPa)
#
#
# Indices 1 2 3 4 5 6 
#
# 1 0.023363 -0.001165 -0.001660 0.000000 0.002351 0.000000
# 2 -0.001165 0.016068 -0.005864 0.000000 0.000000 0.000000
# 3 -0.001660 -0.005864 0.009349 0.000000 0.002009 0.000000
# 4 0.000000 0.000000 0.000000 0.035016 0.000000 -0.004970
# 5 0.002351 0.000000 0.002009 0.000000 0.024376 0.000000
# 6 0.000000 0.000000 0.000000 -0.004970 0.000000 0.110606
#
#
# Mechanical properties :
#
#
# Convention : Reuss Voigt Hill
#
# Bulk Modulus (GPa) = 31.84350 47.71829 39.78089
# Shear Modulus (GPa) = 20.27391 29.21073 24.74232
#
# Velocity S-wave (km/s) = 3.05114 3.66239 3.37065
# Velocity P-wave (km/s) = 5.19948 6.30837 5.78058
#
# Compressibility (1/GPa) = 0.03140359
#
# Stress axis : x y z
#
# Youngs Moduli (GPa) = 42.80274 62.23691 106.96038
#
# Poissons Ratio (x) = 0.07249 0.17751
# Poissons Ratio (y) = 0.04985 0.62720
# Poissons Ratio (z) = 0.07103 0.36495
#
# Static dielectric constant tensor:
#      x y z
#    x 1.785190 0.000000 0.020120 
#    y 0.000000 1.767900 0.000000 
#    z 0.020120 0.000000 1.802140 
# 
# From -- ./inp_files/86072.got.cif
#   From: 2010.05.17/outbox.cif.g08.bks.cpg/sg15_44_cif.got.tgz:86072.got - 2010.06.03 18:47:42.
