data_PCOD9304150
_publ_section_title
;
Structure prediction by ZEFSAII (Michael W. Deem and Ramdas Pophale) SiO2 
 PCOD9304150
Probable space group: C 2/C
;
_chemical_formula_sum "Si O2"
_cell_formula_units_Z 64
_cell_length_a 30.106080
_cell_length_b 13.673357
_cell_length_c 21.366734
_cell_angle_alpha 90.000000
_cell_angle_beta 160.348247
_cell_angle_gamma 90.000000
_cell_volume 2957.994876
_symmetry_space_group_name_H-M "C 2/C"
_symmetry_group_IT_number 15
_symmetry_cell_setting 'monoclinic'
loop_
_space_group_symop_operation_xyz
x,y,z
-x,y,1/2-z
-x,-y,-z
x,-y,1/2+z
1/2+x,1/2+y,z
1/2-x,1/2+y,1/2-z
1/2-x,1/2-y,-z
1/2+x,1/2-y,1/2+z
loop_
_atom_site_type_symbol
_atom_site_label
_atom_site_fract_x
_atom_site_fract_y
_atom_site_fract_z
Si Si1 0.635673 0.933714 0.294325
Si Si2 0.038589 0.604367 0.485968
Si Si3 0.799811 0.536253 0.478291
Si Si4 0.582881 0.192967 0.958746
Si Si5 0.351797 0.771682 0.825179
Si Si6 0.819826 0.093519 0.927428
Si Si7 0.107484 0.324826 0.945210
Si Si8 0.001134 0.069568 0.441617
O O1 0.662567 0.971977 0.399323
O O2 0.764057 0.937435 0.420817
O O3 0.525079 0.999995 0.114023
O O4 0.564828 0.828753 0.211520
O O5 0.186284 0.601308 0.708681
O O6 0.038415 0.661295 0.420357
O O7 0.948805 0.659578 0.416186
O O8 0.883800 0.613221 0.549100
O O9 0.825309 0.429504 0.482587
O O10 0.651574 0.576607 0.278564
O O11 0.677251 0.182792 0.145039
O O12 0.609421 0.301540 0.969778
O O13 0.225036 0.750427 0.614685
O O14 0.427202 0.670125 0.942317
O O15 0.918997 0.033782 0.014150
O O16 0.000000 0.300260 0.750000
O O17 0.000000 0.000000 0.500000
#
# Coordination Sequence:
#
# PCOD9304150 Si02
#       8
#     8   8   8   8   8   8   8   8
#     4  12  26  45  71 102 138 188 234 286 357 413
#     4  12  22  45  72  96 139 178 238 291 338 426
#     4  12  24  44  71 100 139 186 232 282 353 427
#     4  11  23  42  70 100 135 178 231 283 345 417
#     4  11  25  42  69 105 133 179 231 295 342 412
#     4  11  25  44  67 107 138 179 241 287 346 419
#     4  12  23  46  71 100 137 182 233 282 356 424
#     4  11  23  43  70  99 142 185 227 283 354 419
#
# _framework density 21.636278999999998
#
# number of rings (size 3 to 8) (size 9 to 14) (size 15 to 20)
#    0.000    0.500    7.500    1.500    1.750    1.500 
#    4.500    0.000    0.000    0.000    0.000    0.000 
#    0.000    0.000    0.000    0.000    0.000    0.000 
#
# Total GULP energy -178873.314218 kJ/mol
# GULP energy per Si atom -5589.791069 kJ/mol
# Density = 2.158703 g / cm^3
# Si number density = 21.636279 Si / 1000 Ang^3
#
#
#
# Elastic Constant Matrix: (Units=GPa)
#
#
# Indices 1 2 3 4 5 6 
#
# 1 163.8117 29.7687 25.9923 0.0000 3.5496 0.0000
# 2 29.7687 39.0694 13.4500 0.0000 2.2140 0.0000
# 3 25.9923 13.4500 84.4146 0.0000 5.5891 0.0000
# 4 0.0000 0.0000 0.0000 19.6777 0.0000 0.1797
# 5 3.5496 2.2140 5.5891 0.0000 39.1692 0.0000
# 6 0.0000 0.0000 0.0000 0.1797 0.0000 26.5265
#
#
#
# Elastic Compliance Matrix: (Units=1/GPa)
#
#
# Indices 1 2 3 4 5 6 
#
# 1 0.007246 -0.005023 -0.001420 0.000000 -0.000170 0.000000
# 2 -0.005023 0.030596 -0.003275 0.000000 -0.000807 0.000000
# 3 -0.001420 -0.003275 0.012906 0.000000 -0.001528 0.000000
# 4 0.000000 0.000000 0.000000 0.050822 0.000000 -0.000344
# 5 -0.000170 -0.000807 -0.001528 0.000000 0.025809 0.000000
# 6 0.000000 0.000000 0.000000 -0.000344 0.000000 0.037701
#
#
# Mechanical properties :
#
#
# Convention : Reuss Voigt Hill
#
# Bulk Modulus (GPa) = 31.93496 47.30196 39.61846
# Shear Modulus (GPa) = 25.64720 31.61366 28.63043
#
# Velocity S-wave (km/s) = 3.44667 3.82663 3.64161
# Velocity P-wave (km/s) = 5.53456 6.43692 6.00272
#
# Compressibility (1/GPa) = 0.03131364
#
# Stress axis : x y z
#
# Youngs Moduli (GPa) = 138.00131 32.68421 77.48111
#
# Poissons Ratio (x) = 0.16417 0.11000
# Poissons Ratio (y) = 0.69317 0.25374
# Poissons Ratio (z) = 0.19591 0.10704
#
# Static dielectric constant tensor:
#      x y z
#    x 1.799450 0.000000 -0.006360 
#    y 0.000000 1.810240 0.000000 
#    z -0.006360 0.000000 1.804520 
# 
# From -- ./inp_files/259465.got.cif
#   From: 2010.05.17/outbox.cif.g08.bks.cpg/sg15_130_cif.got.tgz:259465.got - 2010.06.03 18:47:42.
