data_PCOD9304499
_publ_section_title
;
Structure prediction by ZEFSAII (Michael W. Deem and Ramdas Pophale) SiO2 
 PCOD9304499
Probable space group: C 2/C
;
_chemical_formula_sum "Si O2"
_cell_formula_units_Z 52
_cell_length_a 8.731326
_cell_length_b 27.457864
_cell_length_c 11.436166
_cell_angle_alpha 90.000000
_cell_angle_beta 123.251752
_cell_angle_gamma 90.000000
_cell_volume 2292.839233
_symmetry_space_group_name_H-M "C 2/C"
_symmetry_group_IT_number 15
_symmetry_cell_setting 'monoclinic'
loop_
_space_group_symop_operation_xyz
x,y,z
-x,y,1/2-z
-x,-y,-z
x,-y,1/2+z
1/2+x,1/2+y,z
1/2-x,1/2+y,1/2-z
1/2-x,1/2-y,-z
1/2+x,1/2-y,1/2+z
loop_
_atom_site_type_symbol
_atom_site_label
_atom_site_fract_x
_atom_site_fract_y
_atom_site_fract_z
Si Si1 0.203320 0.887651 0.102594
Si Si2 0.530928 0.784264 0.999831
Si Si3 0.433569 0.683348 0.590519
Si Si4 0.521463 0.880341 0.622862
Si Si5 0.278573 0.563944 0.648872
Si Si6 0.000000 0.305241 0.250000
Si Si7 0.790175 0.952563 0.624724
O O1 0.272632 0.918501 0.243031
O O2 0.333734 0.841204 0.150719
O O3 0.004924 0.862325 0.044109
O O4 0.216958 0.923075 0.999077
O O5 0.721838 0.801524 0.018486
O O6 0.542941 0.778688 0.145151
O O7 0.476968 0.732990 0.922010
O O8 0.411401 0.831191 0.914548
O O9 0.500000 0.673880 0.750000
O O10 0.500000 0.870002 0.750000
O O11 0.335551 0.900977 0.484491
O O12 0.667946 0.922797 0.664253
O O13 0.500000 0.566362 0.750000
O O14 0.230061 0.508758 0.595161
O O15 0.000000 0.953018 0.750000
#
# Coordination Sequence:
#
# PCOD9304499 Si02
#       7
#     8   8   8   8   8   4   8
#     4  12  23  46  75  95 144 184 240 287 359 429
#     4  11  24  44  67 103 137 182 237 290 354 429
#     4  11  23  44  71 100 133 186 236 290 360 425
#     4  12  25  44  70 102 146 183 234 302 362 418
#     4  11  25  45  75 100 136 193 242 292 360 432
#     4  12  22  44  68 102 136 188 234 288 344 438
#     4  11  28  45  66 109 142 184 242 299 359 420
#
# _framework density 22.679306
#
# number of rings (size 3 to 8) (size 9 to 14) (size 15 to 20)
#    0.000    0.615    4.615    2.308    6.462    1.846 
#    1.385    0.000    0.000    0.000    0.000    0.000 
#    0.000    0.000    0.000    0.000    0.000    0.000 
#
# Total GULP energy -145304.343446 kJ/mol
# GULP energy per Si atom -5588.628594 kJ/mol
# Density = 2.262769 g / cm^3
# Si number density = 22.679306 Si / 1000 Ang^3
#
#
#
# Elastic Constant Matrix: (Units=GPa)
#
#
# Indices 1 2 3 4 5 6 
#
# 1 69.4940 17.4421 14.8066 0.0000 -10.9356 0.0000
# 2 17.4421 149.7160 16.3791 0.0000 -21.4740 0.0000
# 3 14.8066 16.3791 81.7348 0.0000 -30.2133 0.0000
# 4 0.0000 0.0000 0.0000 87.2209 0.0000 -115.7796
# 5 -10.9356 -21.4740 -30.2133 0.0000 46.4586 0.0000
# 6 0.0000 0.0000 0.0000 -115.7796 0.0000 236.4126
#
#
#
# Elastic Compliance Matrix: (Units=1/GPa)
#
#
# Indices 1 2 3 4 5 6 
#
# 1 0.015404 -0.001333 -0.001857 0.000000 0.001802 0.000000
# 2 -0.001333 0.007274 -0.000118 0.000000 0.002972 0.000000
# 3 -0.001857 -0.000118 0.016341 0.000000 0.010136 0.000000
# 4 0.000000 0.000000 0.000000 0.032766 0.000000 0.016047
# 5 0.001802 0.002972 0.010136 0.000000 0.029914 0.000000
# 6 0.000000 0.000000 0.000000 0.016047 0.000000 0.012088
#
#
# Mechanical properties :
#
#
# Convention : Reuss Voigt Hill
#
# Bulk Modulus (GPa) = 30.86126 44.24447 37.55286
# Shear Modulus (GPa) = 38.10879 90.83956 64.47418
#
# Velocity S-wave (km/s) = 4.10363 6.33568 5.33764
# Velocity P-wave (km/s) = 6.00752 8.54823 7.38792
#
# Compressibility (1/GPa) = 0.03240309
#
# Stress axis : x y z
#
# Youngs Moduli (GPa) = 64.92021 137.48127 61.19433
#
# Poissons Ratio (x) = 0.18325 0.11365
# Poissons Ratio (y) = 0.08653 0.00720
# Poissons Ratio (z) = 0.12057 0.01617
#
# Static dielectric constant tensor:
#      x y z
#    x 1.964380 0.000000 0.046290 
#    y 0.000000 1.839360 0.000000 
#    z 0.046290 0.000000 1.805350 
# 
# From -- ./inp_files/81491.got.cif
#   From: 2010.05.17/outbox.cif.g08.bks.cpg/sg15_41_cif.got.tgz:81491.got - 2010.06.03 18:47:42.
