data_PCOD9304303
_publ_section_title
;
Structure prediction by ZEFSAII (Michael W. Deem and Ramdas Pophale) SiO2 
 PCOD9304303
Probable space group: C 2/C
;
_chemical_formula_sum "Si O2"
_cell_formula_units_Z 48
_cell_length_a 20.295407
_cell_length_b 11.627831
_cell_length_c 10.900312
_cell_angle_alpha 90.000000
_cell_angle_beta 52.907591
_cell_angle_gamma 90.000000
_cell_volume 2051.895834
_symmetry_space_group_name_H-M "C 2/C"
_symmetry_group_IT_number 15
_symmetry_cell_setting 'monoclinic'
loop_
_space_group_symop_operation_xyz
x,y,z
-x,y,1/2-z
-x,-y,-z
x,-y,1/2+z
1/2+x,1/2+y,z
1/2-x,1/2+y,1/2-z
1/2-x,1/2-y,-z
1/2+x,1/2-y,1/2+z
loop_
_atom_site_type_symbol
_atom_site_label
_atom_site_fract_x
_atom_site_fract_y
_atom_site_fract_z
Si Si1 0.163148 0.832716 0.521937
Si Si2 0.892749 0.332903 0.595554
Si Si3 0.926122 0.042589 0.927298
Si Si4 0.070756 0.232421 0.375489
Si Si5 0.695071 0.076127 0.785332
Si Si6 0.190071 0.161204 0.632198
O O1 0.164937 0.711696 0.450281
O O2 0.119630 0.812423 0.700570
O O3 0.251418 0.891774 0.396514
O O4 0.098581 0.912272 0.518704
O O5 0.858855 0.460101 0.663694
O O6 0.874789 0.244963 0.726634
O O7 0.987682 0.308859 0.449101
O O8 0.851131 0.089360 0.929137
O O9 0.000000 0.043912 0.750000
O O10 0.942532 0.121578 0.024619
O O11 0.132750 0.318564 0.375082
O O12 0.760670 0.083103 0.823992
O O13 0.250000 0.250000 0.500000
#
# Coordination Sequence:
#
# PCOD9304303 Si02
#       6
#     8   8   8   8   8   8
#     4  11  28  45  74 108 146 191 250 309 369 441
#     4  11  25  47  71 110 145 194 249 308 370 444
#     4  12  25  45  74 106 140 195 245 309 367 440
#     4  12  25  48  75 108 150 197 251 305 377 444
#     4  11  26  46  75 104 150 198 240 312 373 444
#     4  11  23  43  69 103 142 187 249 294 365 446
#
# _framework density 23.393000000000001
#
# number of rings (size 3 to 8) (size 9 to 14) (size 15 to 20)
#    0.000    0.667    3.333    3.500    7.000    4.000 
#    0.000    1.667    0.000    0.000    0.000    0.000 
#    0.000    0.000    0.000    0.000    0.000    0.000 
#
# Total GULP energy -134172.147586 kJ/mol
# GULP energy per Si atom -5590.506149 kJ/mol
# Density = 2.333976 g / cm^3
# Si number density = 23.393000 Si / 1000 Ang^3
#
#
#
# Elastic Constant Matrix: (Units=GPa)
#
#
# Indices 1 2 3 4 5 6 
#
# 1 81.0294 43.2953 8.4662 0.0000 -8.2788 0.0000
# 2 43.2953 76.5511 44.1318 0.0000 -9.8488 0.0000
# 3 8.4662 44.1318 124.8623 0.0000 -9.8336 0.0000
# 4 0.0000 0.0000 0.0000 40.8679 0.0000 -6.5775
# 5 -8.2788 -9.8488 -9.8336 0.0000 33.1865 0.0000
# 6 0.0000 0.0000 0.0000 -6.5775 0.0000 36.6694
#
#
#
# Elastic Compliance Matrix: (Units=1/GPa)
#
#
# Indices 1 2 3 4 5 6 
#
# 1 0.018712 -0.012163 0.003188 0.000000 0.002003 0.000000
# 2 -0.012163 0.024657 -0.007733 0.000000 0.001992 0.000000
# 3 0.003188 -0.007733 0.010656 0.000000 0.001658 0.000000
# 4 0.000000 0.000000 0.000000 0.025196 0.000000 0.004520
# 5 0.002003 0.001992 0.001658 0.000000 0.031715 0.000000
# 6 0.000000 0.000000 0.000000 0.004520 0.000000 0.028081
#
#
# Mechanical properties :
#
#
# Convention : Reuss Voigt Hill
#
# Bulk Modulus (GPa) = 48.52407 52.69217 50.60812
# Shear Modulus (GPa) = 27.88571 34.58139 31.23355
#
# Velocity S-wave (km/s) = 3.45636 3.84901 3.65796
# Velocity P-wave (km/s) = 6.05942 6.50591 6.28663
#
# Compressibility (1/GPa) = 0.02060833
#
# Stress axis : x y z
#
# Youngs Moduli (GPa) = 53.44274 40.55700 93.83949
#
# Poissons Ratio (x) = 0.49329 -0.29916
# Poissons Ratio (y) = 0.65002 0.72568
# Poissons Ratio (z) = -0.17037 0.31364
#
# Static dielectric constant tensor:
#      x y z
#    x 1.880920 0.000000 -0.030180 
#    y 0.000000 1.988850 0.000000 
#    z -0.030180 0.000000 1.883630 
# 
# From -- ./inp_files/111450.got.cif
#   From: 2010.05.17/outbox.cif.g08.bks.cpg/sg15_56_cif.got.tgz:111450.got - 2010.06.03 18:47:42.
