data_PCOD9304821
_publ_section_title
;
Structure prediction by ZEFSAII (Michael W. Deem and Ramdas Pophale) SiO2 
 PCOD9304821
Probable space group: C 2/C
;
_chemical_formula_sum "Si O2"
_cell_formula_units_Z 60
_cell_length_a 23.729359
_cell_length_b 6.499092
_cell_length_c 18.673501
_cell_angle_alpha 90.000000
_cell_angle_beta 84.078297
_cell_angle_gamma 90.000000
_cell_volume 2864.446777
_symmetry_space_group_name_H-M "C 2/C"
_symmetry_group_IT_number 15
_symmetry_cell_setting 'monoclinic'
loop_
_space_group_symop_operation_xyz
x,y,z
-x,y,1/2-z
-x,-y,-z
x,-y,1/2+z
1/2+x,1/2+y,z
1/2-x,1/2+y,1/2-z
1/2-x,1/2-y,-z
1/2+x,1/2-y,1/2+z
loop_
_atom_site_type_symbol
_atom_site_label
_atom_site_fract_x
_atom_site_fract_y
_atom_site_fract_z
Si Si1 0.191370 0.147188 0.908562
Si Si2 0.311158 0.302476 0.867702
Si Si3 0.395993 0.015407 0.123396
Si Si4 0.311008 0.664935 0.968092
Si Si5 0.652472 0.372833 0.785811
Si Si6 0.000000 0.500000 0.000000
Si Si7 0.400966 0.024871 0.398075
Si Si8 0.066532 0.210605 0.746879
O O1 0.257202 0.194085 0.910409
O O2 0.154874 0.353792 0.905791
O O3 0.183989 0.024182 0.835747
O O4 0.170006 0.001027 0.974882
O O5 0.307976 0.535919 0.895091
O O6 0.307710 0.291262 0.782551
O O7 0.368154 0.184768 0.882737
O O8 0.372924 0.810395 0.163712
O O9 0.421407 0.156729 0.183513
O O10 0.444156 0.975671 0.059252
O O11 0.356731 0.840669 0.950061
O O12 0.250000 0.750000 0.000000
O O13 0.603391 0.504159 0.752460
O O14 0.957720 0.511830 0.934795
O O15 0.414558 0.155464 0.324313
O O16 0.000000 0.163574 0.750000
#
# Coordination Sequence:
#
# PCOD9304821 Si02
#       8
#     8   8   8   8   8   4   8   8
#     4  11  27  43  70 106 146 184 237 298 358 435
#     4  12  26  43  74 105 141 194 238 294 365 433
#     4  11  25  47  70 102 146 185 245 294 366 422
#     4  12  26  46  72 105 146 190 237 295 361 431
#     4  11  26  44  71 105 141 191 240 299 365 427
#     4  12  26  44  76 100 138 194 230 306 358 424
#     4  12  25  46  73 104 145 187 245 294 364 429
#     4  11  23  47  69 102 140 190 241 301 351 438
#
# _framework density 20.946453999999999
#
# number of rings (size 3 to 8) (size 9 to 14) (size 15 to 20)
#    0.000    0.533    5.333    2.000    5.600    1.600 
#    2.400    4.000    0.000    0.000    0.000    0.000 
#    0.000    0.000    0.000    0.000    0.000    0.000 
#
# Total GULP energy -167338.127216 kJ/mol
# GULP energy per Si atom -5577.937574 kJ/mol
# Density = 2.089878 g / cm^3
# Si number density = 20.946454 Si / 1000 Ang^3
#
#
#
# Elastic Constant Matrix: (Units=GPa)
#
#
# Indices 1 2 3 4 5 6 
#
# 1 74.6224 20.0195 18.1814 0.0000 -1.4516 0.0000
# 2 20.0195 76.7284 19.3670 0.0000 -7.9377 0.0000
# 3 18.1814 19.3670 112.9521 0.0000 -19.1421 0.0000
# 4 0.0000 0.0000 0.0000 34.1374 0.0000 2.0773
# 5 -1.4516 -7.9377 -19.1421 0.0000 39.9426 0.0000
# 6 0.0000 0.0000 0.0000 2.0773 0.0000 10.5513
#
#
#
# Elastic Compliance Matrix: (Units=1/GPa)
#
#
# Indices 1 2 3 4 5 6 
#
# 1 0.014792 -0.003475 -0.001971 0.000000 -0.001098 0.000000
# 2 -0.003475 0.014550 -0.001596 0.000000 0.002000 0.000000
# 3 -0.001971 -0.001596 0.010207 0.000000 0.004503 0.000000
# 4 0.000000 0.000000 0.000000 0.029649 0.000000 -0.005837
# 5 -0.001098 0.002000 0.004503 0.000000 0.027551 0.000000
# 6 0.000000 0.000000 0.000000 -0.005837 0.000000 0.095925
#
#
# Mechanical properties :
#
#
# Convention : Reuss Voigt Hill
#
# Bulk Modulus (GPa) = 39.27226 42.15984 40.71605
# Shear Modulus (GPa) = 23.22908 30.70859 26.96883
#
# Velocity S-wave (km/s) = 3.33374 3.83306 3.59209
# Velocity P-wave (km/s) = 5.79724 6.30563 6.05677
#
# Compressibility (1/GPa) = 0.02546327
#
# Stress axis : x y z
#
# Youngs Moduli (GPa) = 67.60361 68.73031 97.96798
#
# Poissons Ratio (x) = 0.23887 0.19311
# Poissons Ratio (y) = 0.23496 0.15639
# Poissons Ratio (z) = 0.13326 0.10971
#
# Static dielectric constant tensor:
#      x y z
#    x 1.700920 0.000000 0.008560 
#    y 0.000000 1.771380 0.000000 
#    z 0.008560 0.000000 1.761910 
# 
# From -- ./inp_files/254365.got.cif
#   From: 2010.05.17/outbox.cif.g08.bks.cpg/sg15_128_cif.got.tgz:254365.got - 2010.06.03 18:47:42.
