data_PCOD9304411
_publ_section_title
;
Structure prediction by ZEFSAII (Michael W. Deem and Ramdas Pophale) SiO2 
 PCOD9304411
Probable space group: C 2/C
;
_chemical_formula_sum "Si O2"
_cell_formula_units_Z 32
_cell_length_a 20.818253
_cell_length_b 7.413665
_cell_length_c 22.493007
_cell_angle_alpha 90.000000
_cell_angle_beta 23.687591
_cell_angle_gamma 90.000000
_cell_volume 1394.697603
_symmetry_space_group_name_H-M "C 2/C"
_symmetry_group_IT_number 15
_symmetry_cell_setting 'monoclinic'
loop_
_space_group_symop_operation_xyz
x,y,z
-x,y,1/2-z
-x,-y,-z
x,-y,1/2+z
1/2+x,1/2+y,z
1/2-x,1/2+y,1/2-z
1/2-x,1/2-y,-z
1/2+x,1/2-y,1/2+z
loop_
_atom_site_type_symbol
_atom_site_label
_atom_site_fract_x
_atom_site_fract_y
_atom_site_fract_z
Si Si1 0.819639 0.360381 0.386575
Si Si2 0.667340 0.674221 0.251780
Si Si3 0.878126 0.431335 0.674598
Si Si4 0.393269 0.622850 0.997616
O O1 0.750000 0.250000 0.500000
O O2 0.812584 0.231338 0.334012
O O3 0.719723 0.540967 0.457624
O O4 0.000000 0.406926 0.250000
O O5 0.828377 0.626309 0.150693
O O6 0.544084 0.513174 0.368648
O O7 0.600495 0.857448 0.336704
O O8 0.027564 0.318664 0.572394
O O9 0.720062 0.388052 0.848539
#
# Coordination Sequence:
#
# PCOD9304411 Si02
#       4
#     8   8   8   8
#     4  11  24  46  75  98 136 196 238 279 349 415
#     4  11  23  43  77 101 145 183 231 295 351 420
#     4  11  25  42  72 112 140 179 235 289 368 414
#     4  11  25  46  70 107 143 185 230 294 350 421
#
# _framework density 22.944040999999999
#
# number of rings (size 3 to 8) (size 9 to 14) (size 15 to 20)
#    0.000    1.000    5.000    0.750    3.500    5.000 
#    0.000    5.000   11.000    0.000    0.000    0.000 
#    0.000    0.000    0.000    0.000    0.000    0.000 
#
# Total GULP energy -89583.109144 kJ/mol
# GULP energy per Si atom -5598.944321 kJ/mol
# Density = 2.289182 g / cm^3
# Si number density = 22.944041 Si / 1000 Ang^3
#
#
#
# Elastic Constant Matrix: (Units=GPa)
#
#
# Indices 1 2 3 4 5 6 
#
# 1 153.2476 25.8258 40.4638 -0.0002 3.1633 -0.0001
# 2 25.8258 81.7472 0.3587 -0.0010 8.5637 0.0004
# 3 40.4638 0.3587 91.3170 -0.0004 10.3557 0.0000
# 4 -0.0002 -0.0010 -0.0004 15.3789 0.0001 -13.9313
# 5 3.1633 8.5637 10.3557 0.0001 41.9541 0.0001
# 6 -0.0001 0.0004 0.0000 -13.9313 0.0001 41.7030
#
#
#
# Elastic Compliance Matrix: (Units=1/GPa)
#
#
# Indices 1 2 3 4 5 6 
#
# 1 0.007884 -0.002560 -0.003575 0.000000 0.000811 0.000000
# 2 -0.002560 0.013337 0.001408 0.000001 -0.002877 0.000000
# 3 -0.003575 0.001408 0.012893 0.000001 -0.003200 0.000000
# 4 0.000000 0.000001 0.000001 0.093240 -0.000001 0.031148
# 5 0.000811 -0.002877 -0.003200 -0.000001 0.025152 0.000000
# 6 0.000000 0.000000 0.000000 0.031148 0.000000 0.034384
#
#
# Mechanical properties :
#
#
# Convention : Reuss Voigt Hill
#
# Bulk Modulus (GPa) = 40.55299 51.06758 45.81029
# Shear Modulus (GPa) = 24.44224 37.11808 30.78016
#
# Velocity S-wave (km/s) = 3.26743 4.02651 3.66667
# Velocity P-wave (km/s) = 5.65225 6.62743 6.15917
#
# Compressibility (1/GPa) = 0.02465909
#
# Stress axis : x y z
#
# Youngs Moduli (GPa) = 126.83685 74.98047 77.56403
#
# Poissons Ratio (x) = 0.19195 0.27733
# Poissons Ratio (y) = 0.32470 -0.10923
# Poissons Ratio (z) = 0.45350 -0.10559
#
# Static dielectric constant tensor:
#      x y z
#    x 1.863230 0.000000 -0.004710 
#    y 0.000000 1.804190 0.000000 
#    z -0.004710 0.000000 1.902420 
# 
# From -- ./inp_files/53465.got.cif
#   From: 2010.05.17/outbox.cif.g08.bks.cpg/sg15_27_cif.got.tgz:53465.got - 2010.06.03 18:47:42.
