data_PCOD9304989
_publ_section_title
;
Structure prediction by ZEFSAII (Michael W. Deem and Ramdas Pophale) SiO2 
 PCOD9304989
Probable space group: C 2/C
;
_chemical_formula_sum "Si O2"
_cell_formula_units_Z 60
_cell_length_a 25.031537
_cell_length_b 8.080138
_cell_length_c 23.329480
_cell_angle_alpha 90.000000
_cell_angle_beta 146.168106
_cell_angle_gamma 90.000000
_cell_volume 2627.107832
_symmetry_space_group_name_H-M "C 2/C"
_symmetry_group_IT_number 15
_symmetry_cell_setting 'monoclinic'
loop_
_space_group_symop_operation_xyz
x,y,z
-x,y,1/2-z
-x,-y,-z
x,-y,1/2+z
1/2+x,1/2+y,z
1/2-x,1/2+y,1/2-z
1/2-x,1/2-y,-z
1/2+x,1/2-y,1/2+z
loop_
_atom_site_type_symbol
_atom_site_label
_atom_site_fract_x
_atom_site_fract_y
_atom_site_fract_z
Si Si1 0.500000 0.541830 0.750000
Si Si2 0.295698 0.839912 0.765561
Si Si3 0.512344 0.329101 0.871622
Si Si4 0.841326 0.302998 0.438173
Si Si5 0.685749 0.831216 0.584297
Si Si6 0.679565 0.777198 0.884087
Si Si7 0.973718 0.091798 0.917125
Si Si8 0.651062 0.909658 0.289573
O O1 0.534767 0.423104 0.832624
O O2 0.587324 0.660111 0.808049
O O3 0.199149 0.744978 0.660491
O O4 0.289297 0.868264 0.827434
O O5 0.388330 0.721555 0.845258
O O6 0.314112 0.993316 0.737769
O O7 0.444357 0.451738 0.846432
O O8 0.454877 0.161381 0.811329
O O9 0.603103 0.298776 0.993698
O O10 0.858443 0.491312 0.471122
O O11 0.747562 0.264198 0.391493
O O12 0.934652 0.189562 0.527462
O O13 0.778743 0.747509 0.638862
O O14 0.652636 0.965582 0.844733
O O15 0.750000 0.750000 0.000000
O O16 0.000000 0.000000 0.000000
#
# Coordination Sequence:
#
# PCOD9304989 Si02
#       8
#     4   8   8   8   8   8   8   8
#     4  12  26  48  74 102 142 188 246 304 374 424
#     4  11  24  40  67  98 142 193 231 289 358 429
#     4  12  26  44  68 103 141 183 244 303 360 431
#     4  11  26  43  67 103 140 185 238 290 363 429
#     4  12  24  40  67 100 143 184 235 290 352 432
#     4  11  25  48  75  98 136 188 239 298 364 429
#     4  12  25  43  68 102 143 192 238 293 361 437
#     4  11  25  43  69 106 143 184 245 297 361 428
#
# _framework density 22.838805000000001
#
# number of rings (size 3 to 8) (size 9 to 14) (size 15 to 20)
#    0.000    0.533    1.333    8.000    5.600    3.733 
#    0.000    2.667    0.000    0.000    0.000    0.000 
#    0.000    0.000    0.000    0.000    0.000    0.000 
#
# Total GULP energy -167569.112774 kJ/mol
# GULP energy per Si atom -5585.637092 kJ/mol
# Density = 2.278682 g / cm^3
# Si number density = 22.838805 Si / 1000 Ang^3
#
#
#
# Elastic Constant Matrix: (Units=GPa)
#
#
# Indices 1 2 3 4 5 6 
#
# 1 45.3454 19.1140 11.0073 0.0000 -3.9994 0.0000
# 2 19.1140 112.8698 32.9549 0.0000 -1.3458 0.0000
# 3 11.0073 32.9549 89.1894 0.0000 5.0275 0.0000
# 4 0.0000 0.0000 0.0000 42.4644 0.0000 8.1771
# 5 -3.9994 -1.3458 5.0275 0.0000 38.8148 0.0000
# 6 0.0000 0.0000 0.0000 8.1771 0.0000 35.6616
#
#
#
# Elastic Compliance Matrix: (Units=1/GPa)
#
#
# Indices 1 2 3 4 5 6 
#
# 1 0.024218 -0.003536 -0.001829 0.000000 0.002610 0.000000
# 2 -0.003536 0.010474 -0.003459 0.000000 0.000447 0.000000
# 3 -0.001829 -0.003459 0.012827 0.000000 -0.001970 0.000000
# 4 0.000000 0.000000 0.000000 0.024637 0.000000 -0.005649
# 5 0.002610 0.000447 -0.001970 0.000000 0.026303 0.000000
# 6 0.000000 0.000000 0.000000 -0.005649 0.000000 0.029337
#
#
# Mechanical properties :
#
#
# Convention : Reuss Voigt Hill
#
# Bulk Modulus (GPa) = 33.47830 41.50634 37.49232
# Shear Modulus (GPa) = 32.17507 35.67672 33.92589
#
# Velocity S-wave (km/s) = 3.75746 3.95664 3.85833
# Velocity P-wave (km/s) = 5.78921 6.25191 6.02501
#
# Compressibility (1/GPa) = 0.02987009
#
# Stress axis : x y z
#
# Youngs Moduli (GPa) = 41.29217 95.47676 77.96114
#
# Poissons Ratio (x) = 0.33760 0.14262
# Poissons Ratio (y) = 0.14601 0.26965
# Poissons Ratio (z) = 0.07554 0.33023
#
# Static dielectric constant tensor:
#      x y z
#    x 2.263300 0.000000 -0.102730 
#    y 0.000000 1.902440 0.000000 
#    z -0.102730 0.000000 1.898810 
# 
# From -- ./inp_files/283401.got.cif
#   From: 2010.05.17/outbox.cif.g08.bks.cpg/sg15_142_cif.got.tgz:283401.got - 2010.06.03 18:47:42.
