data_PCOD9304382
_publ_section_title
;
Structure prediction by ZEFSAII (Michael W. Deem and Ramdas Pophale) SiO2 
 PCOD9304382
Probable space group: C 2/C
;
_chemical_formula_sum "Si O2"
_cell_formula_units_Z 36
_cell_length_a 9.672232
_cell_length_b 17.139546
_cell_length_c 20.661199
_cell_angle_alpha 90.000000
_cell_angle_beta 30.551591
_cell_angle_gamma 90.000000
_cell_volume 1741.059478
_symmetry_space_group_name_H-M "C 2/C"
_symmetry_group_IT_number 15
_symmetry_cell_setting 'monoclinic'
loop_
_space_group_symop_operation_xyz
x,y,z
-x,y,1/2-z
-x,-y,-z
x,-y,1/2+z
1/2+x,1/2+y,z
1/2-x,1/2+y,1/2-z
1/2-x,1/2-y,-z
1/2+x,1/2-y,1/2+z
loop_
_atom_site_type_symbol
_atom_site_label
_atom_site_fract_x
_atom_site_fract_y
_atom_site_fract_z
Si Si1 0.339345 0.078017 0.873515
Si Si2 0.706108 0.412964 0.976306
Si Si3 0.500000 0.816573 0.750000
Si Si4 0.780910 0.429346 0.093912
Si Si5 0.526672 0.201988 0.893622
O O1 0.500000 0.039670 0.750000
O O2 0.517145 0.145043 0.834899
O O3 0.250654 0.006743 0.954497
O O4 0.069799 0.110409 0.948930
O O5 0.920575 0.369298 0.844120
O O6 0.700815 0.398813 0.054805
O O7 0.267772 0.760994 0.813387
O O8 0.500000 0.444320 0.250000
O O9 0.951207 0.360786 0.058467
O O10 0.000000 0.500000 0.000000
O O11 0.250000 0.250000 0.000000
#
# Coordination Sequence:
#
# PCOD9304382 Si02
#       5
#     8   8   4   8   8
#     4  11  23  43  73 104 140 190 244 294 360 441
#     4  11  25  44  77 103 147 193 247 299 368 445
#     4  12  26  48  76 112 152 186 250 312 386 438
#     4  12  27  48  77 111 153 201 258 310 377 454
#     4  12  26  47  71 111 154 189 246 315 379 444
#
# _framework density 20.677064999999999
#
# number of rings (size 3 to 8) (size 9 to 14) (size 15 to 20)
#    0.000    0.444    6.667    1.333    0.000    4.444 
#    0.000    0.000    0.000    0.000    0.000    0.000 
#    0.000    0.000    0.000    0.000    0.000    0.000 
#
# Total GULP energy -100332.323066 kJ/mol
# GULP energy per Si atom -5574.017948 kJ/mol
# Density = 2.063000 g / cm^3
# Si number density = 20.677065 Si / 1000 Ang^3
#
#
#
# Elastic Constant Matrix: (Units=GPa)
#
#
# Indices 1 2 3 4 5 6 
#
# 1 160.3717 76.8095 72.4228 -0.0020 -1.5907 0.0015
# 2 76.8095 100.3182 53.7972 0.0633 -8.3264 0.1096
# 3 72.4228 53.7972 99.7040 0.0254 -4.4011 0.1300
# 4 -0.0020 0.0633 0.0254 32.4568 0.0160 -0.1611
# 5 -1.5907 -8.3264 -4.4011 0.0160 43.3106 -0.0355
# 6 0.0015 0.1096 0.1300 -0.1611 -0.0355 31.2931
#
#
#
# Elastic Compliance Matrix: (Units=1/GPa)
#
#
# Indices 1 2 3 4 5 6 
#
# 1 0.011460 -0.006172 -0.005050 0.000018 -0.001279 0.000041
# 2 -0.006172 0.017515 -0.004850 -0.000032 0.002648 -0.000038
# 3 -0.005050 -0.004850 0.016339 -0.000004 0.000542 -0.000050
# 4 0.000018 -0.000032 -0.000004 0.030811 -0.000017 0.000159
# 5 -0.001279 0.002648 0.000542 -0.000017 0.023606 0.000015
# 6 0.000041 -0.000038 -0.000050 0.000159 0.000015 0.031957
#
#
# Mechanical properties :
#
#
# Convention : Reuss Voigt Hill
#
# Bulk Modulus (GPa) = 75.93949 85.16142 80.55045
# Shear Modulus (GPa) = 29.72253 31.90304 30.81278
#
# Velocity S-wave (km/s) = 3.79550 3.93226 3.86449
# Velocity P-wave (km/s) = 7.48425 7.86719 7.67811
#
# Compressibility (1/GPa) = 0.01316838
#
# Stress axis : x y z
#
# Youngs Moduli (GPa) = 87.26334 57.09448 61.20264
#
# Poissons Ratio (x) = 0.35239 0.30909
# Poissons Ratio (y) = 0.53859 0.29685
# Poissons Ratio (z) = 0.44070 0.27693
#
# Static dielectric constant tensor:
#      x y z
#    x 1.820690 0.000420 0.022480 
#    y 0.000420 1.758990 0.000230 
#    z 0.022480 0.000230 1.863430 
# 
# From -- ./inp_files/57118.got.cif
#   From: 2010.05.17/outbox.cif.g08.bks.cpg/sg15_29_cif.got.tgz:57118.got - 2010.06.03 18:47:42.
