data_PCOD9304356
_publ_section_title
;
Structure prediction by ZEFSAII (Michael W. Deem and Ramdas Pophale) SiO2 
 PCOD9304356
Probable space group: C 2/C
;
_chemical_formula_sum "Si O2"
_cell_formula_units_Z 44
_cell_length_a 24.532591
_cell_length_b 5.105546
_cell_length_c 14.431046
_cell_angle_alpha 90.000000
_cell_angle_beta 105.583997
_cell_angle_gamma 90.000000
_cell_volume 1741.072548
_symmetry_space_group_name_H-M "C 2/C"
_symmetry_group_IT_number 15
_symmetry_cell_setting 'monoclinic'
loop_
_space_group_symop_operation_xyz
x,y,z
-x,y,1/2-z
-x,-y,-z
x,-y,1/2+z
1/2+x,1/2+y,z
1/2-x,1/2+y,1/2-z
1/2-x,1/2-y,-z
1/2+x,1/2-y,1/2+z
loop_
_atom_site_type_symbol
_atom_site_label
_atom_site_fract_x
_atom_site_fract_y
_atom_site_fract_z
Si Si1 0.000000 0.074554 0.250000
Si Si2 0.689676 0.163473 0.436242
Si Si3 0.509397 0.721717 0.582632
Si Si4 0.786400 0.455155 0.242072
Si Si5 0.596348 0.502625 0.410088
Si Si6 0.119392 0.589744 0.069551
O O1 0.034426 0.910981 0.187563
O O2 0.051809 0.190772 0.334322
O O3 0.750000 0.250000 0.500000
O O4 0.698688 0.957664 0.359289
O O5 0.651307 0.403814 0.382733
O O6 0.654313 0.063264 0.507381
O O7 0.500000 0.500000 0.500000
O O8 0.445590 0.745680 0.591408
O O9 0.553190 0.943017 0.570407
O O10 0.761218 0.179553 0.263674
O O11 0.841409 0.548221 0.323907
O O12 0.614987 0.627909 0.516196
#
# Coordination Sequence:
#
# PCOD9304356 Si02
#       6
#     4   8   8   8   8   8
#     4   8  16  38  66 100 138 186 238 312 370 460
#     4  12  25  44  69 104 143 196 251 307 374 452
#     4   8  17  37  65  99 134 187 240 304 374 440
#     4  12  28  48  73 109 150 199 251 310 376 452
#     4   9  21  40  70  99 145 184 240 313 370 455
#     4  11  23  43  72 102 143 191 249 312 376 452
#
# _framework density 25.271778999999999
#
# number of rings (size 3 to 8) (size 9 to 14) (size 15 to 20)
#    1.091    0.727    1.818    2.182    2.545    2.182 
#    0.000    0.909    0.000    0.000    0.000    0.000 
#    0.000    0.000    0.000    0.000    0.000    0.000 
#
# Total GULP energy -122550.314421 kJ/mol
# GULP energy per Si atom -5570.468837 kJ/mol
# Density = 2.521426 g / cm^3
# Si number density = 25.271779 Si / 1000 Ang^3
#
#
#
# Elastic Constant Matrix: (Units=GPa)
#
#
# Indices 1 2 3 4 5 6 
#
# 1 168.5030 36.9143 36.5762 0.0000 32.5142 0.0000
# 2 36.9143 76.7447 9.5627 0.0000 -3.9558 0.0000
# 3 36.5762 9.5627 125.1382 0.0000 -4.9861 0.0000
# 4 0.0000 0.0000 0.0000 15.4004 0.0000 -14.4507
# 5 32.5142 -3.9558 -4.9861 0.0000 36.5859 0.0000
# 6 0.0000 0.0000 0.0000 -14.4507 0.0000 18.2641
#
#
#
# Elastic Compliance Matrix: (Units=1/GPa)
#
#
# Indices 1 2 3 4 5 6 
#
# 1 0.009298 -0.004603 -0.002730 0.000000 -0.009133 0.000000
# 2 -0.004603 0.015495 0.000393 0.000000 0.005820 0.000000
# 3 -0.002730 0.000393 0.008906 0.000000 0.003682 0.000000
# 4 0.000000 0.000000 0.000000 0.252089 0.000000 0.199455
# 5 -0.009133 0.005820 0.003682 0.000000 0.036580 0.000000
# 6 0.000000 0.000000 0.000000 0.199455 0.000000 0.212563
#
#
# Mechanical properties :
#
#
# Convention : Reuss Voigt Hill
#
# Bulk Modulus (GPa) = 50.45487 59.61028 55.03257
# Shear Modulus (GPa) = 9.00226 33.20558 21.10392
#
# Velocity S-wave (km/s) = 1.88942 3.62876 2.89291
# Velocity P-wave (km/s) = 4.97676 6.41842 5.74301
#
# Compressibility (1/GPa) = 0.01981969
#
# Stress axis : x y z
#
# Youngs Moduli (GPa) = 107.55321 64.53622 112.28755
#
# Poissons Ratio (x) = 0.29705 0.30652
# Poissons Ratio (y) = 0.49505 -0.04414
# Poissons Ratio (z) = 0.29359 -0.02537
#
# Static dielectric constant tensor:
#      x y z
#    x 1.982000 0.000000 0.001900 
#    y 0.000000 2.123310 0.000000 
#    z 0.001900 0.000000 2.122290 
# 
# From -- ./inp_files/175502.got.cif
#   From: 2010.05.17/outbox.cif.g08.bks.cpg/sg15_88_cif.got.tgz:175502.got - 2010.06.03 18:47:42.
