data_PCOD9304493
_publ_section_title
;
Structure prediction by ZEFSAII (Michael W. Deem and Ramdas Pophale) SiO2 
 PCOD9304493
Probable space group: C 2/C
;
_chemical_formula_sum "Si O2"
_cell_formula_units_Z 48
_cell_length_a 26.965714
_cell_length_b 8.444654
_cell_length_c 13.857403
_cell_angle_alpha 90.000000
_cell_angle_beta 136.542924
_cell_angle_gamma 90.000000
_cell_volume 2170.424692
_symmetry_space_group_name_H-M "C 2/C"
_symmetry_group_IT_number 15
_symmetry_cell_setting 'monoclinic'
loop_
_space_group_symop_operation_xyz
x,y,z
-x,y,1/2-z
-x,-y,-z
x,-y,1/2+z
1/2+x,1/2+y,z
1/2-x,1/2+y,1/2-z
1/2-x,1/2-y,-z
1/2+x,1/2-y,1/2+z
loop_
_atom_site_type_symbol
_atom_site_label
_atom_site_fract_x
_atom_site_fract_y
_atom_site_fract_z
Si Si1 0.435724 0.268051 0.889366
Si Si2 0.823827 0.712789 0.049616
Si Si3 0.849977 0.272135 0.911540
Si Si4 0.429676 0.069093 0.696832
Si Si5 0.799132 0.370577 0.296828
Si Si6 0.071020 0.133416 0.667233
O O1 0.455001 0.151260 0.830301
O O2 0.357171 0.216874 0.812789
O O3 0.438124 0.446567 0.854569
O O4 0.495617 0.271642 0.057959
O O5 0.862654 0.544879 0.125784
O O6 0.882297 0.833617 0.172822
O O7 0.750000 0.750000 0.000000
O O8 0.808363 0.707456 0.915195
O O9 0.819614 0.444864 0.836087
O O10 0.782795 0.163121 0.848285
O O11 0.888071 0.194276 0.872199
O O12 0.900979 0.307742 0.075203
O O13 0.500000 0.986872 0.750000
#
# Coordination Sequence:
#
# PCOD9304493 Si02
#       6
#     8   8   8   8   8   8
#     4  11  26  43  68 100 133 179 229 282 347 397
#     4  11  25  44  68 100 138 177 226 283 338 405
#     4  11  23  44  70  96 140 173 231 280 341 415
#     4  11  25  46  72 104 135 182 230 280 345 413
#     4  11  25  41  68 102 128 183 222 282 347 404
#     4  11  24  45  67  95 138 177 225 286 336 413
#
# _framework density 22.115487000000002
#
# number of rings (size 3 to 8) (size 9 to 14) (size 15 to 20)
#    0.000    1.000    3.333    2.000    7.000    4.667 
#    0.000    0.000    0.000    0.000    0.000    0.000 
#    0.000    0.000    0.000    0.000    0.000    0.000 
#
# Total GULP energy -134216.629085 kJ/mol
# GULP energy per Si atom -5592.359545 kJ/mol
# Density = 2.206515 g / cm^3
# Si number density = 22.115487 Si / 1000 Ang^3
#
#
#
# Elastic Constant Matrix: (Units=GPa)
#
#
# Indices 1 2 3 4 5 6 
#
# 1 65.1760 14.9946 -12.6516 0.0000 8.7386 0.0000
# 2 14.9946 47.3743 0.1543 0.0000 -6.4901 0.0000
# 3 -12.6516 0.1543 64.9272 0.0000 10.1371 0.0000
# 4 0.0000 0.0000 0.0000 35.0736 0.0000 -1.8366
# 5 8.7386 -6.4901 10.1371 0.0000 27.6942 0.0000
# 6 0.0000 0.0000 0.0000 -1.8366 0.0000 12.3514
#
#
#
# Elastic Compliance Matrix: (Units=1/GPa)
#
#
# Indices 1 2 3 4 5 6 
#
# 1 0.019429 -0.007516 0.005341 0.000000 -0.009847 0.000000
# 2 -0.007516 0.024766 -0.002970 0.000000 0.009262 0.000000
# 3 0.005341 -0.002970 0.017841 0.000000 -0.008912 0.000000
# 4 0.000000 0.000000 0.000000 0.028735 0.000000 0.004273
# 5 -0.009847 0.009262 -0.008912 0.000000 0.044648 0.000000
# 6 0.000000 0.000000 0.000000 0.004273 0.000000 0.081598
#
#
# Mechanical properties :
#
#
# Convention : Reuss Voigt Hill
#
# Bulk Modulus (GPa) = 19.32453 20.27469 19.79961
# Shear Modulus (GPa) = 20.44523 26.68919 23.56721
#
# Velocity S-wave (km/s) = 3.04382 3.47769 3.26796
# Velocity P-wave (km/s) = 4.59457 5.03123 4.81785
#
# Compressibility (1/GPa) = 0.05174771
#
# Stress axis : x y z
#
# Youngs Moduli (GPa) = 51.46857 40.37797 56.05038
#
# Poissons Ratio (x) = 0.30348 -0.29938
# Poissons Ratio (y) = 0.38684 0.16644
# Poissons Ratio (z) = -0.27491 0.11990
#
# Static dielectric constant tensor:
#      x y z
#    x 1.804750 0.000000 0.019630 
#    y 0.000000 1.796520 0.000000 
#    z 0.019630 0.000000 1.825270 
# 
# From -- ./inp_files/176957.got.cif
#   From: 2010.05.17/outbox.cif.g08.bks.cpg/sg15_89_cif.got.tgz:176957.got - 2010.06.03 18:47:42.
