data_PCOD9304191
_publ_section_title
;
Structure prediction by ZEFSAII (Michael W. Deem and Ramdas Pophale) SiO2 
 PCOD9304191
Probable space group: C 2/C
;
_chemical_formula_sum "Si O2"
_cell_formula_units_Z 52
_cell_length_a 33.894106
_cell_length_b 14.112394
_cell_length_c 9.998626
_cell_angle_alpha 90.000000
_cell_angle_beta 147.282654
_cell_angle_gamma 90.000000
_cell_volume 2584.978457
_symmetry_space_group_name_H-M "C 2/C"
_symmetry_group_IT_number 15
_symmetry_cell_setting 'monoclinic'
loop_
_space_group_symop_operation_xyz
x,y,z
-x,y,1/2-z
-x,-y,-z
x,-y,1/2+z
1/2+x,1/2+y,z
1/2-x,1/2+y,1/2-z
1/2-x,1/2-y,-z
1/2+x,1/2-y,1/2+z
loop_
_atom_site_type_symbol
_atom_site_label
_atom_site_fract_x
_atom_site_fract_y
_atom_site_fract_z
Si Si1 0.429432 0.727774 0.263442
Si Si2 0.090556 0.041884 0.158256
Si Si3 0.500000 0.610073 0.250000
Si Si4 0.477616 0.087752 0.530042
Si Si5 0.272409 0.799936 0.770014
Si Si6 0.692398 0.879262 0.916261
Si Si7 0.310207 0.462558 0.819086
O O1 0.445164 0.643541 0.412364
O O2 0.440274 0.677350 0.149103
O O3 0.482194 0.817875 0.410366
O O4 0.346360 0.760088 0.045563
O O5 0.137104 0.007990 0.418573
O O6 0.144196 0.050931 0.185388
O O7 0.034875 0.959149 0.958735
O O8 0.500000 0.073811 0.750000
O O9 0.390780 0.102234 0.282510
O O10 0.500000 0.000000 0.500000
O O11 0.298988 0.860331 0.717354
O O12 0.223789 0.713719 0.577989
O O13 0.224302 0.865846 0.726430
O O14 0.744186 0.965616 0.103725
#
# Coordination Sequence:
#
# PCOD9304191 Si02
#       7
#     8   8   4   8   8   8   8
#     4  12  24  48  71 101 140 190 232 282 355 425
#     4  12  26  44  71 107 138 181 228 294 356 419
#     4  12  24  44  74 100 146 182 230 286 358 430
#     4  12  27  48  71 100 141 190 236 285 345 416
#     4  11  23  42  72  99 135 183 232 281 348 415
#     4  11  23  43  72 100 134 186 231 279 349 417
#     4  12  25  44  70 101 141 174 235 293 344 413
#
# _framework density 20.116220999999999
#
# number of rings (size 3 to 8) (size 9 to 14) (size 15 to 20)
#    0.000    0.308    6.923    1.385    4.308    0.615 
#    4.154    0.000    0.000    0.000    0.000    0.000 
#    0.000    0.000    0.000    0.000    0.000    0.000 
#
# Total GULP energy -145514.488632 kJ/mol
# GULP energy per Si atom -5596.711101 kJ/mol
# Density = 2.007044 g / cm^3
# Si number density = 20.116221 Si / 1000 Ang^3
#
#
#
# Elastic Constant Matrix: (Units=GPa)
#
#
# Indices 1 2 3 4 5 6 
#
# 1 128.3550 62.9942 43.7161 0.0000 10.9707 0.0000
# 2 62.9942 117.0277 33.9672 0.0000 0.6917 0.0000
# 3 43.7161 33.9672 65.9469 0.0000 17.9181 0.0000
# 4 0.0000 0.0000 0.0000 29.7478 0.0000 8.8498
# 5 10.9707 0.6917 17.9181 0.0000 28.9533 0.0000
# 6 0.0000 0.0000 0.0000 8.8498 0.0000 54.2080
#
#
#
# Elastic Compliance Matrix: (Units=1/GPa)
#
#
# Indices 1 2 3 4 5 6 
#
# 1 0.012102 -0.005035 -0.005067 0.000000 -0.001329 0.000000
# 2 -0.005035 0.012457 -0.004227 0.000000 0.004226 0.000000
# 3 -0.005067 -0.004227 0.024224 0.000000 -0.012970 0.000000
# 4 0.000000 0.000000 0.000000 0.035332 0.000000 -0.005768
# 5 -0.001329 0.004226 -0.012970 0.000000 0.042968 0.000000
# 6 0.000000 0.000000 0.000000 -0.005768 0.000000 0.019389
#
#
# Mechanical properties :
#
#
# Convention : Reuss Voigt Hill
#
# Bulk Modulus (GPa) = 49.69213 65.85387 57.77300
# Shear Modulus (GPa) = 27.49682 33.95861 30.72772
#
# Velocity S-wave (km/s) = 3.70117 4.11313 3.91258
# Velocity P-wave (km/s) = 6.55904 7.44076 7.01377
#
# Compressibility (1/GPa) = 0.02012391
#
# Stress axis : x y z
#
# Youngs Moduli (GPa) = 82.63278 80.27417 41.28136
#
# Poissons Ratio (x) = 0.40422 0.20919
# Poissons Ratio (y) = 0.41610 0.17448
# Poissons Ratio (z) = 0.41874 0.33929
#
# Static dielectric constant tensor:
#      x y z
#    x 1.704700 0.000000 -0.008040 
#    y 0.000000 1.712210 0.000000 
#    z -0.008040 0.000000 1.697790 
# 
# From -- ./inp_files/70179.got.cif
#   From: 2010.05.17/outbox.cif.g08.bks.cpg/sg15_36_cif.got.tgz:70179.got - 2010.06.03 18:47:42.
