data_PCOD9304508
_publ_section_title
;
Structure prediction by ZEFSAII (Michael W. Deem and Ramdas Pophale) SiO2 
 PCOD9304508
Probable space group: C 2/C
;
_chemical_formula_sum "Si O2"
_cell_formula_units_Z 44
_cell_length_a 25.162712
_cell_length_b 9.735459
_cell_length_c 10.839903
_cell_angle_alpha 90.000000
_cell_angle_beta 131.865324
_cell_angle_gamma 90.000000
_cell_volume 1977.560232
_symmetry_space_group_name_H-M "C 2/C"
_symmetry_group_IT_number 15
_symmetry_cell_setting 'monoclinic'
loop_
_space_group_symop_operation_xyz
x,y,z
-x,y,1/2-z
-x,-y,-z
x,-y,1/2+z
1/2+x,1/2+y,z
1/2-x,1/2+y,1/2-z
1/2-x,1/2-y,-z
1/2+x,1/2-y,1/2+z
loop_
_atom_site_type_symbol
_atom_site_label
_atom_site_fract_x
_atom_site_fract_y
_atom_site_fract_z
Si Si1 0.686070 0.335609 0.150861
Si Si2 0.406280 0.968963 0.682446
Si Si3 0.565865 0.736552 0.273124
Si Si4 0.183834 0.530267 0.208600
Si Si5 0.000000 0.225415 0.750000
Si Si6 0.925143 0.946258 0.937395
O O1 0.750815 0.426252 0.203238
O O2 0.709667 0.189413 0.242120
O O3 0.634923 0.436798 0.151550
O O4 0.633900 0.285578 0.962833
O O5 0.352512 0.976241 0.713871
O O6 0.453295 0.830985 0.759667
O O7 0.453115 0.105055 0.776548
O O8 0.368202 0.989146 0.488682
O O9 0.500000 0.674339 0.250000
O O10 0.590011 0.672824 0.182687
O O11 0.943623 0.127725 0.594034
O O12 0.000000 0.000000 0.000000
#
# Coordination Sequence:
#
# PCOD9304508 Si02
#       6
#     8   8   8   8   4   8
#     4  11  27  47  69 105 143 190 234 295 353 426
#     4  11  26  46  72 106 142 188 235 297 355 422
#     4  11  23  44  71 103 143 185 232 291 361 411
#     4  11  28  48  71 104 147 191 238 288 357 430
#     4  12  26  42  78 106 136 182 244 296 350 422
#     4  12  24  43  70 103 142 182 237 295 354 415
#
# _framework density 22.249638000000001
#
# number of rings (size 3 to 8) (size 9 to 14) (size 15 to 20)
#    0.000    0.727    2.727    3.273   10.182    3.636 
#    0.000    0.000    0.000    0.000    0.000    0.000 
#    0.000    0.000    0.000    0.000    0.000    0.000 
#
# Total GULP energy -122838.024727 kJ/mol
# GULP energy per Si atom -5583.546578 kJ/mol
# Density = 2.219900 g / cm^3
# Si number density = 22.249638 Si / 1000 Ang^3
#
#
#
# Elastic Constant Matrix: (Units=GPa)
#
#
# Indices 1 2 3 4 5 6 
#
# 1 122.8570 38.4094 4.5735 0.0000 -1.0222 0.0000
# 2 38.4094 138.3452 -0.4069 0.0000 -0.0151 0.0000
# 3 4.5735 -0.4069 27.9206 0.0000 -7.6387 0.0000
# 4 0.0000 0.0000 0.0000 -102.4016 0.0000 338.4350
# 5 -1.0222 -0.0151 -7.6387 0.0000 28.2687 0.0000
# 6 0.0000 0.0000 0.0000 338.4350 0.0000 -995.0074
#
#
#
# Elastic Compliance Matrix: (Units=1/GPa)
#
#
# Indices 1 2 3 4 5 6 
#
# 1 0.008976 -0.002497 -0.001532 0.000000 -0.000091 0.000000
# 2 -0.002497 0.007923 0.000541 0.000000 0.000060 0.000000
# 3 -0.001532 0.000541 0.038938 0.000000 0.010467 0.000000
# 4 0.000000 0.000000 0.000000 0.078670 0.000000 0.026758
# 5 -0.000091 0.000060 0.010467 0.000000 0.038200 0.000000
# 6 0.000000 0.000000 0.000000 0.026758 0.000000 0.008096
#
#
# Mechanical properties :
#
#
# Convention : Reuss Voigt Hill
#
# Bulk Modulus (GPa) = 20.46541 41.58610 31.02576
# Shear Modulus (GPa) = 24.50189 -197.39161 -86.44486
#
# Velocity S-wave (km/s) = 3.32207 -9.42918 -6.23992
# Velocity P-wave (km/s) = 4.89213 9.99072 6.15961
#
# Compressibility (1/GPa) = 0.04886294
#
# Stress axis : x y z
#
# Youngs Moduli (GPa) = 111.40391 126.21402 25.68173
#
# Poissons Ratio (x) = 0.31511 0.03933
# Poissons Ratio (y) = 0.27814 -0.01389
# Poissons Ratio (z) = 0.17062 -0.06826
#
# Static dielectric constant tensor:
#      x y z
#    x 1.677710 0.000000 0.018620 
#    y 0.000000 1.894250 0.000000 
#    z 0.018620 0.000000 1.869330 
# 
# From -- ./inp_files/109933.got.cif
#   From: 2010.05.17/outbox.cif.g08.bks.cpg/sg15_55_cif.got.tgz:109933.got - 2010.06.03 18:47:42.
