data_PCOD9304282
_publ_section_title
;
Structure prediction by ZEFSAII (Michael W. Deem and Ramdas Pophale) SiO2 
 PCOD9304282
Probable space group: C 2/C
;
_chemical_formula_sum "Si O2"
_cell_formula_units_Z 44
_cell_length_a 4.964527
_cell_length_b 20.922763
_cell_length_c 19.565823
_cell_angle_alpha 90.000000
_cell_angle_beta 88.144301
_cell_angle_gamma 90.000000
_cell_volume 2031.267915
_symmetry_space_group_name_H-M "C 2/C"
_symmetry_group_IT_number 15
_symmetry_cell_setting 'monoclinic'
loop_
_space_group_symop_operation_xyz
x,y,z
-x,y,1/2-z
-x,-y,-z
x,-y,1/2+z
1/2+x,1/2+y,z
1/2-x,1/2+y,1/2-z
1/2-x,1/2-y,-z
1/2+x,1/2-y,1/2+z
loop_
_atom_site_type_symbol
_atom_site_label
_atom_site_fract_x
_atom_site_fract_y
_atom_site_fract_z
Si Si1 0.168358 0.357335 0.885621
Si Si2 0.520426 0.155631 0.897033
Si Si3 0.250000 0.250000 0.000000
Si Si4 0.000000 0.698909 0.750000
Si Si5 0.661325 0.562628 0.414050
Si Si6 0.978988 0.075449 0.571368
Si Si7 0.500000 0.787212 0.750000
O O1 0.471053 0.383959 0.882592
O O2 0.968266 0.417018 0.900851
O O3 0.086849 0.327783 0.814349
O O4 0.145781 0.304216 0.945235
O O5 0.430966 0.160692 0.818957
O O6 0.822122 0.128212 0.898014
O O7 0.315911 0.105397 0.932798
O O8 0.461350 0.220326 0.939212
O O9 0.750812 0.742434 0.729918
O O10 0.601339 0.564956 0.495400
O O11 0.565984 0.492334 0.391820
#
# Coordination Sequence:
#
# PCOD9304282 Si02
#       7
#     8   8   4   4   8   8   4
#     4  12  25  42  68 100 132 173 220 275 331 397
#     4  12  25  42  68 100 132 173 220 275 331 397
#     4  12  24  42  70 102 132 168 232 272 318 404
#     4  12  26  44  63  96 143 174 208 264 346 398
#     4  11  23  43  68  97 130 171 223 279 328 384
#     4  11  23  43  68  97 130 171 223 279 328 384
#     4  12  26  44  63  96 143 174 208 264 346 398
#
# _framework density 21.661346999999999
#
# number of rings (size 3 to 8) (size 9 to 14) (size 15 to 20)
#    0.000    0.364    5.455    3.273    0.000    4.364 
#    0.000    5.455    0.000    0.000    0.000    0.000 
#    0.000    0.000    0.000    0.000    0.000    0.000 
#
# Total GULP energy -122488.239172 kJ/mol
# GULP energy per Si atom -5567.647235 kJ/mol
# Density = 2.161204 g / cm^3
# Si number density = 21.661347 Si / 1000 Ang^3
#
#
#
# Elastic Constant Matrix: (Units=GPa)
#
#
# Indices 1 2 3 4 5 6 
#
# 1 72.9811 18.2149 -13.0494 0.0000 6.1324 0.0000
# 2 18.2149 71.9378 27.6749 0.0000 8.0982 0.0000
# 3 -13.0494 27.6749 90.7903 0.0000 8.8610 0.0000
# 4 0.0000 0.0000 0.0000 12.6588 0.0000 -0.0336
# 5 6.1324 8.0982 8.8610 0.0000 31.0688 0.0000
# 6 0.0000 0.0000 0.0000 -0.0336 0.0000 13.5533
#
#
#
# Elastic Compliance Matrix: (Units=1/GPa)
#
#
# Indices 1 2 3 4 5 6 
#
# 1 0.016045 -0.005354 0.004229 0.000000 -0.002977 0.000000
# 2 -0.005354 0.017777 -0.006007 0.000000 -0.001864 0.000000
# 3 0.004229 -0.006007 0.013765 0.000000 -0.003195 0.000000
# 4 0.000000 0.000000 0.000000 0.078997 0.000000 0.000196
# 5 -0.002977 -0.001864 -0.003195 0.000000 0.034171 0.000000
# 6 0.000000 0.000000 0.000000 0.000196 0.000000 0.073783
#
#
# Mechanical properties :
#
#
# Convention : Reuss Voigt Hill
#
# Bulk Modulus (GPa) = 30.00932 33.48777 31.74854
# Shear Modulus (GPa) = 19.23741 24.98077 22.10909
#
# Velocity S-wave (km/s) = 2.98333 3.39963 3.19826
# Velocity P-wave (km/s) = 5.07454 5.55906 5.32232
#
# Compressibility (1/GPa) = 0.03332298
#
# Stress axis : x y z
#
# Youngs Moduli (GPa) = 62.32528 56.25182 72.64818
#
# Poissons Ratio (x) = 0.30119 -0.30722
# Poissons Ratio (y) = 0.33371 0.43637
# Poissons Ratio (z) = -0.26356 0.33788
#
# Static dielectric constant tensor:
#      x y z
#    x 1.725440 0.000000 -0.057480 
#    y 0.000000 1.832140 0.000000 
#    z -0.057480 0.000000 2.615720 
# 
# From -- ./inp_files/184964.got.cif
#   From: 2010.05.17/outbox.cif.g08.bks.cpg/sg15_93_cif.got.tgz:184964.got - 2010.06.03 18:47:42.
