data_PCOD9304527
_publ_section_title
;
Structure prediction by ZEFSAII (Michael W. Deem and Ramdas Pophale) SiO2 
 PCOD9304527
Probable space group: C 2/C
;
_chemical_formula_sum "Si O2"
_cell_formula_units_Z 48
_cell_length_a 6.624848
_cell_length_b 23.280190
_cell_length_c 13.172601
_cell_angle_alpha 90.000000
_cell_angle_beta 85.086473
_cell_angle_gamma 90.000000
_cell_volume 2024.114371
_symmetry_space_group_name_H-M "C 2/C"
_symmetry_group_IT_number 15
_symmetry_cell_setting 'monoclinic'
loop_
_space_group_symop_operation_xyz
x,y,z
-x,y,1/2-z
-x,-y,-z
x,-y,1/2+z
1/2+x,1/2+y,z
1/2-x,1/2+y,1/2-z
1/2-x,1/2-y,-z
1/2+x,1/2-y,1/2+z
loop_
_atom_site_type_symbol
_atom_site_label
_atom_site_fract_x
_atom_site_fract_y
_atom_site_fract_z
Si Si1 0.064263 0.902381 0.862153
Si Si2 0.586253 0.678198 0.633242
Si Si3 0.397797 0.197006 0.365531
Si Si4 0.431795 0.964402 0.858482
Si Si5 0.265950 0.847847 0.491655
Si Si6 0.413616 0.081883 0.586212
O O1 0.224228 0.851279 0.879156
O O2 0.186612 0.962353 0.865809
O O3 0.000000 0.895120 0.750000
O O4 0.868996 0.893717 0.939612
O O5 0.500000 0.672724 0.750000
O O6 0.699450 0.739455 0.620331
O O7 0.404086 0.686598 0.561296
O O8 0.715912 0.620942 0.605086
O O9 0.500000 0.195705 0.250000
O O10 0.575543 0.183280 0.439836
O O11 0.500000 0.934664 0.750000
O O12 0.560917 0.022736 0.855646
O O13 0.460070 0.935557 0.967059
O O14 0.397773 0.877457 0.397736
#
# Coordination Sequence:
#
# PCOD9304527 Si02
#       6
#     8   8   8   8   8   8
#     4  12  23  43  75 108 139 188 245 303 373 434
#     4  11  27  47  71 106 150 201 244 291 369 446
#     4  11  23  44  72 110 148 187 247 305 361 439
#     4  11  24  48  73 100 142 189 238 313 363 428
#     4  12  23  43  72 104 147 192 239 300 363 438
#     4  11  26  48  69 104 147 185 247 307 360 437
#
# _framework density 23.714075999999999
#
# number of rings (size 3 to 8) (size 9 to 14) (size 15 to 20)
#    0.000    0.667    5.000    2.000    2.333    4.667 
#    3.000    0.000    0.000    0.000    0.000    0.000 
#    0.000    0.000    0.000    0.000    0.000    0.000 
#
# Total GULP energy -133955.579874 kJ/mol
# GULP energy per Si atom -5581.482495 kJ/mol
# Density = 2.366010 g / cm^3
# Si number density = 23.714076 Si / 1000 Ang^3
#
#
#
# Elastic Constant Matrix: (Units=GPa)
#
#
# Indices 1 2 3 4 5 6 
#
# 1 123.6625 46.0125 28.6144 0.0000 12.9963 0.0000
# 2 46.0125 131.6812 16.1802 0.0000 11.8489 0.0000
# 3 28.6144 16.1802 98.6029 0.0000 2.4774 0.0000
# 4 0.0000 0.0000 0.0000 21.9925 0.0000 -4.8761
# 5 12.9963 11.8489 2.4774 0.0000 37.7931 0.0000
# 6 0.0000 0.0000 0.0000 -4.8761 0.0000 37.5211
#
#
#
# Elastic Compliance Matrix: (Units=1/GPa)
#
#
# Indices 1 2 3 4 5 6 
#
# 1 0.009989 -0.002991 -0.002349 0.000000 -0.002343 0.000000
# 2 -0.002991 0.008860 -0.000543 0.000000 -0.001714 0.000000
# 3 -0.002349 -0.000543 0.010906 0.000000 0.000263 0.000000
# 4 0.000000 0.000000 0.000000 0.046819 0.000000 0.006084
# 5 -0.002343 -0.001714 0.000263 0.000000 0.027786 0.000000
# 6 0.000000 0.000000 0.000000 0.006084 0.000000 0.027442
#
#
# Mechanical properties :
#
#
# Convention : Reuss Voigt Hill
#
# Bulk Modulus (GPa) = 55.58878 59.50672 57.54775
# Shear Modulus (GPa) = 33.43029 37.00398 35.21713
#
# Velocity S-wave (km/s) = 3.75870 3.95450 3.85785
# Velocity P-wave (km/s) = 6.50609 6.78223 6.64560
#
# Compressibility (1/GPa) = 0.01798924
#
# Stress axis : x y z
#
# Youngs Moduli (GPa) = 100.10746 112.86530 91.69358
#
# Poissons Ratio (x) = 0.33758 0.21541
# Poissons Ratio (y) = 0.29942 0.04978
# Poissons Ratio (z) = 0.23517 0.06127
#
# Static dielectric constant tensor:
#      x y z
#    x 1.919520 0.000000 0.001620 
#    y 0.000000 1.966600 0.000000 
#    z 0.001620 0.000000 1.915520 
# 
# From -- ./inp_files/130032.got.cif
#   From: 2010.05.17/outbox.cif.g08.bks.cpg/sg15_66_cif.got.tgz:130032.got - 2010.06.03 18:47:42.
