data_PCOD9304433
_publ_section_title
;
Structure prediction by ZEFSAII (Michael W. Deem and Ramdas Pophale) SiO2 
 PCOD9304433
Probable space group: C 2/C
;
_chemical_formula_sum "Si O2"
_cell_formula_units_Z 64
_cell_length_a 9.289990
_cell_length_b 18.490415
_cell_length_c 30.701135
_cell_angle_alpha 90.000000
_cell_angle_beta 38.323183
_cell_angle_gamma 90.000000
_cell_volume 3270.209896
_symmetry_space_group_name_H-M "C 2/C"
_symmetry_group_IT_number 15
_symmetry_cell_setting 'monoclinic'
loop_
_space_group_symop_operation_xyz
x,y,z
-x,y,1/2-z
-x,-y,-z
x,-y,1/2+z
1/2+x,1/2+y,z
1/2-x,1/2+y,1/2-z
1/2-x,1/2-y,-z
1/2+x,1/2-y,1/2+z
loop_
_atom_site_type_symbol
_atom_site_label
_atom_site_fract_x
_atom_site_fract_y
_atom_site_fract_z
Si Si1 0.742773 0.717215 0.574174
Si Si2 0.234662 0.958427 0.429962
Si Si3 0.949144 0.288387 0.716757
Si Si4 0.334262 0.549671 0.395992
Si Si5 0.957950 0.580402 0.559533
Si Si6 0.943409 0.192371 0.564004
Si Si7 0.170956 0.552752 0.173457
Si Si8 0.570983 0.686840 0.182513
O O1 0.542466 0.751714 0.651141
O O2 0.623538 0.678903 0.560825
O O3 0.877467 0.662716 0.573785
O O4 0.915360 0.774629 0.510585
O O5 0.401265 0.942108 0.431042
O O6 0.170603 0.882163 0.423290
O O7 0.345817 0.009728 0.367254
O O8 0.000000 0.000000 0.500000
O O9 0.675038 0.299024 0.781777
O O10 0.000000 0.248024 0.750000
O O11 0.083717 0.365267 0.686793
O O12 0.130834 0.569514 0.477857
O O13 0.572395 0.550253 0.366877
O O14 0.342327 0.609895 0.356325
O O15 0.263151 0.472017 0.393852
O O16 0.757629 0.251877 0.625032
O O17 0.000000 0.519827 0.250000
O O18 0.500000 0.685135 0.250000
#
# Coordination Sequence:
#
# PCOD9304433 Si02
#       8
#     8   8   8   8   8   8   8   8
#     4  11  24  45  66 101 133 175 226 275 339 405
#     4  12  26  43  68 100 132 176 228 279 332 402
#     4  11  24  43  70  98 135 179 225 281 339 408
#     4  11  23  45  67  99 136 176 225 276 336 398
#     4  11  26  41  71  98 134 177 225 287 328 400
#     4  11  26  43  70  96 135 179 221 281 339 401
#     4  11  23  44  67  97 134 180 218 279 342 400
#     4  12  24  44  69 101 135 182 228 276 343 409
#
# _framework density 19.570609999999999
#
# number of rings (size 3 to 8) (size 9 to 14) (size 15 to 20)
#    0.000    0.750    6.250    1.500    5.250    1.000 
#    2.250    0.625    0.000    0.000    0.000    0.000 
#    0.000    0.000    0.000    0.000    0.000    0.000 
#
# Total GULP energy -178752.591611 kJ/mol
# GULP energy per Si atom -5586.018488 kJ/mol
# Density = 1.952607 g / cm^3
# Si number density = 19.570610 Si / 1000 Ang^3
#
#
#
# Elastic Constant Matrix: (Units=GPa)
#
#
# Indices 1 2 3 4 5 6 
#
# 1 68.7690 3.9502 -4.5989 0.0004 -1.9053 -0.0016
# 2 3.9502 42.0220 7.5521 0.0046 9.3142 -0.0005
# 3 -4.5989 7.5521 87.2437 -0.0029 11.7862 -0.0066
# 4 0.0004 0.0046 -0.0029 32.4374 -0.0002 -1.4353
# 5 -1.9053 9.3142 11.7862 -0.0002 40.1122 0.0023
# 6 -0.0016 -0.0005 -0.0066 -1.4353 0.0023 29.9963
#
#
#
# Elastic Compliance Matrix: (Units=1/GPa)
#
#
# Indices 1 2 3 4 5 6 
#
# 1 0.014718 -0.001720 0.000808 0.000000 0.000861 0.000001
# 2 -0.001720 0.025465 -0.001546 -0.000004 -0.005540 0.000000
# 3 0.000808 -0.001546 0.012064 0.000001 -0.003147 0.000003
# 4 0.000000 -0.000004 0.000001 0.030894 0.000001 0.001478
# 5 0.000861 -0.005540 -0.003147 0.000001 0.027182 -0.000003
# 6 0.000001 0.000000 0.000003 0.001478 -0.000003 0.033408
#
#
# Mechanical properties :
#
#
# Convention : Reuss Voigt Hill
#
# Bulk Modulus (GPa) = 21.12775 23.53795 22.33285
# Shear Modulus (GPa) = 30.40926 33.25124 31.83025
#
# Velocity S-wave (km/s) = 3.94613 4.12641 4.03728
# Velocity P-wave (km/s) = 5.61976 5.89545 5.75926
#
# Compressibility (1/GPa) = 0.04733111
#
# Stress axis : x y z
#
# Youngs Moduli (GPa) = 67.94339 39.27013 82.89258
#
# Poissons Ratio (x) = 0.06753 -0.06701
# Poissons Ratio (y) = 0.11684 0.12819
# Poissons Ratio (z) = -0.05492 0.06073
#
# Static dielectric constant tensor:
#      x y z
#    x 1.715870 0.000000 -0.005690 
#    y 0.000000 1.669220 0.000000 
#    z -0.005690 0.000000 1.666190 
# 
# From -- ./inp_files/308738.got.cif
#   From: 2010.05.17/outbox.cif.g08.bks.cpg/sg15_155_cif.got.tgz:308738.got - 2010.06.03 18:47:42.
