data_PCOD9304330
_publ_section_title
;
Structure prediction by ZEFSAII (Michael W. Deem and Ramdas Pophale) SiO2 
 PCOD9304330
Probable space group: C 2/C
;
_chemical_formula_sum "Si O2"
_cell_formula_units_Z 60
_cell_length_a 21.383788
_cell_length_b 20.883391
_cell_length_c 8.982491
_cell_angle_alpha 90.000000
_cell_angle_beta 139.039346
_cell_angle_gamma 90.000000
_cell_volume 2629.553714
_symmetry_space_group_name_H-M "C 2/C"
_symmetry_group_IT_number 15
_symmetry_cell_setting 'monoclinic'
loop_
_space_group_symop_operation_xyz
x,y,z
-x,y,1/2-z
-x,-y,-z
x,-y,1/2+z
1/2+x,1/2+y,z
1/2-x,1/2+y,1/2-z
1/2-x,1/2-y,-z
1/2+x,1/2-y,1/2+z
loop_
_atom_site_type_symbol
_atom_site_label
_atom_site_fract_x
_atom_site_fract_y
_atom_site_fract_z
Si Si1 0.390390 0.006717 0.262274
Si Si2 0.616577 0.849694 0.692680
Si Si3 0.810803 0.150252 0.686263
Si Si4 0.861007 0.794278 0.826406
Si Si5 0.732485 0.031945 0.730718
Si Si6 0.857834 0.257045 0.000407
Si Si7 0.608307 0.421939 0.451143
Si Si8 0.500000 0.202813 0.250000
O O1 0.363421 0.075373 0.284380
O O2 0.500000 0.000000 0.500000
O O3 0.318476 0.955460 0.204203
O O4 0.357667 0.011627 0.033953
O O5 0.594675 0.817262 0.496729
O O6 0.538470 0.838412 0.680549
O O7 0.716235 0.822450 0.935817
O O8 0.775631 0.094774 0.734536
O O9 0.859540 0.203348 0.874858
O O10 0.871491 0.116888 0.665632
O O11 0.892898 0.772997 0.718291
O O12 0.749736 0.779643 0.653608
O O13 0.881001 0.868159 0.901349
O O14 0.917684 0.749097 0.042266
O O15 0.814701 0.978450 0.891009
O O16 0.500000 0.446662 0.250000
#
# Coordination Sequence:
#
# PCOD9304330 Si02
#       8
#     8   8   8   8   8   8   8   4
#     4  11  25  45  73 104 142 180 229 289 359 424
#     4  11  23  44  68  98 143 183 223 287 363 422
#     4  11  23  44  71  95 137 186 222 298 354 416
#     4  11  24  41  69 103 132 185 235 297 346 429
#     4  11  24  46  69 104 136 184 235 285 347 424
#     4  11  23  43  70  98 135 179 239 288 360 411
#     4  12  25  47  72  96 140 193 239 287 360 416
#     4  12  24  42  66 102 142 180 232 280 366 434
#
# _framework density 22.817561000000001
#
# number of rings (size 3 to 8) (size 9 to 14) (size 15 to 20)
#    0.000    0.800    6.000    1.600    5.600    1.067 
#    7.200    0.000    0.000    0.000    0.000    0.000 
#    0.000    0.000    0.000    0.000    0.000    0.000 
#
# Total GULP energy -167790.780038 kJ/mol
# GULP energy per Si atom -5593.026001 kJ/mol
# Density = 2.276563 g / cm^3
# Si number density = 22.817561 Si / 1000 Ang^3
#
#
#
# Elastic Constant Matrix: (Units=GPa)
#
#
# Indices 1 2 3 4 5 6 
#
# 1 79.6149 8.4194 1.1664 0.0000 2.6761 0.0000
# 2 8.4194 56.6842 19.8551 0.0000 -2.1467 0.0000
# 3 1.1664 19.8551 65.5173 0.0000 14.4958 0.0000
# 4 0.0000 0.0000 0.0000 22.5421 0.0000 -9.4922
# 5 2.6761 -2.1467 14.4958 0.0000 46.0372 0.0000
# 6 0.0000 0.0000 0.0000 -9.4922 0.0000 33.0850
#
#
#
# Elastic Compliance Matrix: (Units=1/GPa)
#
#
# Indices 1 2 3 4 5 6 
#
# 1 0.012816 -0.002177 0.000665 0.000000 -0.001056 0.000000
# 2 -0.002177 0.020503 -0.006895 0.000000 0.003254 0.000000
# 3 0.000665 -0.006895 0.018725 0.000000 -0.006256 0.000000
# 4 0.000000 0.000000 0.000000 0.050457 0.000000 0.014476
# 5 -0.001056 0.003254 -0.006256 0.000000 0.023905 0.000000
# 6 0.000000 0.000000 0.000000 0.014476 0.000000 0.034379
#
#
# Mechanical properties :
#
#
# Convention : Reuss Voigt Hill
#
# Bulk Modulus (GPa) = 28.38315 28.96648 28.67481
# Shear Modulus (GPa) = 26.40737 31.82455 29.11596
#
# Velocity S-wave (km/s) = 3.40564 3.73867 3.57604
# Velocity P-wave (km/s) = 5.28495 5.59994 5.44472
#
# Compressibility (1/GPa) = 0.03523217
#
# Stress axis : x y z
#
# Youngs Moduli (GPa) = 78.02513 48.77310 53.40489
#
# Poissons Ratio (x) = 0.10616 -0.03552
# Poissons Ratio (y) = 0.16983 0.36820
# Poissons Ratio (z) = -0.05189 0.33627
#
# Static dielectric constant tensor:
#      x y z
#    x 1.876430 0.000000 0.007470 
#    y 0.000000 1.835190 0.000000 
#    z 0.007470 0.000000 1.861870 
# 
# From -- ./inp_files/63528.got.cif
#   From: 2010.05.17/outbox.cif.g08.bks.cpg/sg15_32_cif.got.tgz:63528.got - 2010.06.03 18:47:42.
