data_PCOD9304523
_publ_section_title
;
Structure prediction by ZEFSAII (Michael W. Deem and Ramdas Pophale) SiO2 
 PCOD9304523
Probable space group: C 2/C
;
_chemical_formula_sum "Si O2"
_cell_formula_units_Z 60
_cell_length_a 21.853154
_cell_length_b 8.635435
_cell_length_c 25.790662
_cell_angle_alpha 90.000000
_cell_angle_beta 147.270289
_cell_angle_gamma 90.000000
_cell_volume 2631.470002
_symmetry_space_group_name_H-M "C 2/C"
_symmetry_group_IT_number 15
_symmetry_cell_setting 'monoclinic'
loop_
_space_group_symop_operation_xyz
x,y,z
-x,y,1/2-z
-x,-y,-z
x,-y,1/2+z
1/2+x,1/2+y,z
1/2-x,1/2+y,1/2-z
1/2-x,1/2-y,-z
1/2+x,1/2-y,1/2+z
loop_
_atom_site_type_symbol
_atom_site_label
_atom_site_fract_x
_atom_site_fract_y
_atom_site_fract_z
Si Si1 0.875470 0.422223 0.035896
Si Si2 0.672225 0.590133 0.545500
Si Si3 0.683780 0.588300 0.955147
Si Si4 0.220428 0.823465 0.708497
Si Si5 0.074458 0.370078 0.023973
Si Si6 0.111020 0.121322 0.616478
Si Si7 0.500000 0.712186 0.750000
Si Si8 0.607196 0.032491 0.251037
O O1 0.868054 0.546084 0.983574
O O2 0.995209 0.449760 0.149674
O O3 0.863003 0.252973 0.003463
O O4 0.772882 0.458731 0.001120
O O5 0.646513 0.456373 0.486063
O O6 0.608146 0.573400 0.554298
O O7 0.805289 0.573670 0.654549
O O8 0.581231 0.607931 0.842738
O O9 0.750000 0.750000 0.000000
O O10 0.157510 0.705195 0.625245
O O11 0.278698 0.730071 0.795948
O O12 0.320157 0.900957 0.745285
O O13 0.137080 0.962804 0.665559
O O14 0.992188 0.233965 0.945793
O O15 0.000000 0.500000 0.000000
O O16 0.430937 0.826197 0.739169
#
# Coordination Sequence:
#
# PCOD9304523 Si02
#       8
#     8   8   8   8   8   8   4   8
#     4  12  25  45  75 102 149 190 241 304 370 443
#     4  11  26  44  72 105 145 188 241 304 368 438
#     4  12  25  47  74 106 143 187 245 300 369 445
#     4  11  25  43  69 103 146 191 250 301 367 448
#     4  12  24  45  69 106 146 195 242 307 375 435
#     4  11  24  44  69 104 143 196 244 304 368 443
#     4  12  24  46  76 106 138 188 240 302 362 450
#     4  11  23  44  72 102 145 193 238 299 374 431
#
# _framework density 22.800944999999999
#
# number of rings (size 3 to 8) (size 9 to 14) (size 15 to 20)
#    0.000    0.533    5.333    2.400    3.733    1.067 
#    2.400    0.000    0.000    0.000    0.000    0.000 
#    0.000    0.000    0.000    0.000    0.000    0.000 
#
# Total GULP energy -168092.373370 kJ/mol
# GULP energy per Si atom -5603.079112 kJ/mol
# Density = 2.274905 g / cm^3
# Si number density = 22.800945 Si / 1000 Ang^3
#
#
#
# Elastic Constant Matrix: (Units=GPa)
#
#
# Indices 1 2 3 4 5 6 
#
# 1 78.8420 34.3584 19.6803 0.0000 -0.6523 0.0000
# 2 34.3584 125.8386 56.0614 0.0001 -5.5426 0.0001
# 3 19.6803 56.0614 162.6893 0.0000 0.2358 0.0000
# 4 0.0000 0.0001 0.0000 35.4429 0.0000 -12.1783
# 5 -0.6523 -5.5426 0.2358 0.0000 28.9253 0.0000
# 6 0.0000 0.0001 0.0000 -12.1783 0.0000 42.5407
#
#
#
# Elastic Compliance Matrix: (Units=1/GPa)
#
#
# Indices 1 2 3 4 5 6 
#
# 1 0.014430 -0.003756 -0.000451 0.000000 -0.000391 0.000000
# 2 -0.003756 0.010463 -0.003154 0.000000 0.001946 0.000000
# 3 -0.000451 -0.003154 0.007289 0.000000 -0.000674 0.000000
# 4 0.000000 0.000000 0.000000 0.031293 0.000000 0.008958
# 5 -0.000391 0.001946 -0.000674 0.000000 0.034941 0.000000
# 6 0.000000 0.000000 0.000000 0.008958 0.000000 0.026071
#
#
# Mechanical properties :
#
#
# Convention : Reuss Voigt Hill
#
# Bulk Modulus (GPa) = 57.27304 65.28555 61.27930
# Shear Modulus (GPa) = 34.47590 38.53309 36.50449
#
# Velocity S-wave (km/s) = 3.89271 4.11539 4.00560
# Velocity P-wave (km/s) = 6.73628 7.16079 6.95178
#
# Compressibility (1/GPa) = 0.01746022
#
# Stress axis : x y z
#
# Youngs Moduli (GPa) = 69.30103 95.57417 137.19333
#
# Poissons Ratio (x) = 0.35901 0.06182
# Poissons Ratio (y) = 0.26032 0.43270
# Poissons Ratio (z) = 0.03123 0.30143
#
# Static dielectric constant tensor:
#      x y z
#    x 1.883180 0.000000 0.017140 
#    y 0.000000 1.746320 0.000000 
#    z 0.017140 0.000000 1.859510 
# 
# From -- ./inp_files/302079.got.cif
#   From: 2010.05.17/outbox.cif.g08.bks.cpg/sg15_152_cif.got.tgz:302079.got - 2010.06.03 18:47:42.
