data_PCOD9304913
_publ_section_title
;
Structure prediction by ZEFSAII (Michael W. Deem and Ramdas Pophale) SiO2 
 PCOD9304913
Probable space group: C 2/C
;
_chemical_formula_sum "Si O2"
_cell_formula_units_Z 56
_cell_length_a 5.628324
_cell_length_b 25.377400
_cell_length_c 20.083147
_cell_angle_alpha 90.000000
_cell_angle_beta 62.003456
_cell_angle_gamma 90.000000
_cell_volume 2532.834638
_symmetry_space_group_name_H-M "C 2/C"
_symmetry_group_IT_number 15
_symmetry_cell_setting 'monoclinic'
loop_
_space_group_symop_operation_xyz
x,y,z
-x,y,1/2-z
-x,-y,-z
x,-y,1/2+z
1/2+x,1/2+y,z
1/2-x,1/2+y,1/2-z
1/2-x,1/2-y,-z
1/2+x,1/2-y,1/2+z
loop_
_atom_site_type_symbol
_atom_site_label
_atom_site_fract_x
_atom_site_fract_y
_atom_site_fract_z
Si Si1 0.583887 0.319039 0.350375
Si Si2 0.616158 0.908471 0.868877
Si Si3 0.619604 0.894702 0.457888
Si Si4 0.312592 0.691898 0.518765
Si Si5 0.000000 0.265715 0.750000
Si Si6 0.500000 0.098962 0.750000
Si Si7 0.275879 0.970788 0.173367
Si Si8 0.849541 0.151176 0.144206
O O1 0.345075 0.350720 0.417035
O O2 0.727838 0.298634 0.397147
O O3 0.510446 0.271651 0.312525
O O4 0.750395 0.361448 0.286328
O O5 0.420328 0.881815 0.839739
O O6 0.895840 0.879359 0.855228
O O7 0.682248 0.967262 0.836793
O O8 0.437290 0.911396 0.959590
O O9 0.361136 0.861371 0.468803
O O10 0.705503 0.943720 0.401060
O O11 0.250000 0.750000 0.500000
O O12 0.566520 0.676255 0.438548
O O13 0.743436 0.303040 0.793726
O O14 0.503762 0.060960 0.812759
O O15 0.000000 0.961151 0.250000
#
# Coordination Sequence:
#
# PCOD9304913 Si02
#       8
#     8   8   8   8   4   4   8   8
#     4  12  25  46  72 107 147 195 245 312 374 454
#     4  11  28  49  79 104 152 196 256 308 373 448
#     4  11  23  49  69 110 142 190 250 310 367 444
#     4  11  25  45  76 103 145 196 253 304 379 447
#     4  12  30  43  72 108 158 197 252 306 392 452
#     4  12  26  43  74 110 150 187 248 314 382 448
#     4  12  26  45  74 109 145 195 243 314 380 446
#     4  11  28  51  70 113 148 201 248 315 368 455
#
# _framework density 22.109617
#
# number of rings (size 3 to 8) (size 9 to 14) (size 15 to 20)
#    0.000    0.571    4.286    2.143   10.000    1.143 
#    0.000    2.857    0.000    0.000    0.000    0.000 
#    0.000    0.000    0.000    0.000    0.000    0.000 
#
# Total GULP energy -156257.814564 kJ/mol
# GULP energy per Si atom -5580.636234 kJ/mol
# Density = 2.205929 g / cm^3
# Si number density = 22.109617 Si / 1000 Ang^3
#
#
#
# Elastic Constant Matrix: (Units=GPa)
#
#
# Indices 1 2 3 4 5 6 
#
# 1 59.7849 43.4709 18.7913 0.0000 -2.6123 0.0000
# 2 43.4709 146.0431 41.7416 0.0000 -5.9529 0.0000
# 3 18.7913 41.7416 75.7176 0.0000 -9.7396 0.0000
# 4 0.0000 0.0000 0.0000 -28.2783 0.0000 -46.9163
# 5 -2.6123 -5.9529 -9.7396 0.0000 30.5588 0.0000
# 6 0.0000 0.0000 0.0000 -46.9163 0.0000 -10.6570
#
#
#
# Elastic Compliance Matrix: (Units=1/GPa)
#
#
# Indices 1 2 3 4 5 6 
#
# 1 0.021640 -0.005824 -0.002156 0.000000 0.000028 0.000000
# 2 -0.005824 0.009696 -0.003880 0.000000 0.000154 0.000000
# 3 -0.002156 -0.003880 0.016434 0.000000 0.004298 0.000000
# 4 0.000000 0.000000 0.000000 0.005610 0.000000 -0.024696
# 5 0.000028 0.000154 0.004298 0.000000 0.034126 0.000000
# 6 0.000000 0.000000 0.000000 -0.024696 0.000000 0.014885
#
#
# Mechanical properties :
#
#
# Convention : Reuss Voigt Hill
#
# Bulk Modulus (GPa) = 41.58066 54.39479 47.98773
# Shear Modulus (GPa) = 37.27772 10.16083 23.71928
#
# Velocity S-wave (km/s) = 4.11060 2.14608 3.27892
# Velocity P-wave (km/s) = 6.43248 5.54947 6.00722
#
# Compressibility (1/GPa) = 0.02404964
#
# Stress axis : x y z
#
# Youngs Moduli (GPa) = 46.20994 103.13406 60.84973
#
# Poissons Ratio (x) = 0.60065 0.13121
# Poissons Ratio (y) = 0.26912 0.23610
# Poissons Ratio (z) = 0.09965 0.40017
#
# Static dielectric constant tensor:
#      x y z
#    x 1.882700 0.000000 -0.038930 
#    y 0.000000 1.761390 0.000000 
#    z -0.038930 0.000000 1.733170 
# 
# From -- ./inp_files/228434.got.cif
#   From: 2010.05.17/outbox.cif.g08.bks.cpg/sg15_115_cif.got.tgz:228434.got - 2010.06.03 18:47:42.
