data_PCOD9304587
_publ_section_title
;
Structure prediction by ZEFSAII (Michael W. Deem and Ramdas Pophale) SiO2 
 PCOD9304587
Probable space group: C 2/C
;
_chemical_formula_sum "Si O2"
_cell_formula_units_Z 40
_cell_length_a 24.119840
_cell_length_b 5.287156
_cell_length_c 12.666487
_cell_angle_alpha 90.000000
_cell_angle_beta 89.524194
_cell_angle_gamma 90.000000
_cell_volume 1615.242576
_symmetry_space_group_name_H-M "C 2/C"
_symmetry_group_IT_number 15
_symmetry_cell_setting 'monoclinic'
loop_
_space_group_symop_operation_xyz
x,y,z
-x,y,1/2-z
-x,-y,-z
x,-y,1/2+z
1/2+x,1/2+y,z
1/2-x,1/2+y,1/2-z
1/2-x,1/2-y,-z
1/2+x,1/2-y,1/2+z
loop_
_atom_site_type_symbol
_atom_site_label
_atom_site_fract_x
_atom_site_fract_y
_atom_site_fract_z
Si Si1 0.385832 0.345717 0.123574
Si Si2 0.550503 0.445305 0.578085
Si Si3 0.232927 0.619139 0.391833
Si Si4 0.923832 0.460777 0.799169
Si Si5 0.827929 0.749619 0.730560
O O1 0.321791 0.273748 0.139531
O O2 0.427030 0.146104 0.178470
O O3 0.382802 0.605966 0.188063
O O4 0.399620 0.376367 0.002113
O O5 0.500000 0.500000 0.500000
O O6 0.563561 0.707622 0.635633
O O7 0.543431 0.199671 0.653062
O O8 0.250000 0.750000 0.500000
O O9 0.206069 0.342008 0.372770
O O10 0.283489 0.629855 0.309410
O O11 0.858479 0.536552 0.802242
#
# Coordination Sequence:
#
# PCOD9304587 Si02
#       5
#     8   8   8   8   8
#     4  11  26  47  74 105 151 197 240 305 370 432
#     4  12  28  51  78 111 142 190 254 307 375 441
#     4  11  24  39  69 105 149 193 243 296 356 431
#     4  11  26  50  74 107 152 186 245 310 367 442
#     4  11  23  45  67 111 148 197 244 294 368 444
#
# _framework density 24.764081999999998
#
# number of rings (size 3 to 8) (size 9 to 14) (size 15 to 20)
#    0.000    0.800    4.000    1.800    8.400    1.600 
#    3.600    0.000    0.000    0.000    0.000    0.000 
#    0.000    0.000    0.000    0.000    0.000    0.000 
#
# Total GULP energy -111494.377785 kJ/mol
# GULP energy per Si atom -5574.718889 kJ/mol
# Density = 2.470772 g / cm^3
# Si number density = 24.764082 Si / 1000 Ang^3
#
#
#
# Elastic Constant Matrix: (Units=GPa)
#
#
# Indices 1 2 3 4 5 6 
#
# 1 65.3644 31.2039 35.1830 0.0000 7.3402 0.0000
# 2 31.2039 146.5115 51.5622 0.0000 21.6106 0.0000
# 3 35.1830 51.5622 100.7602 0.0000 26.1184 0.0000
# 4 0.0000 0.0000 0.0000 37.4597 0.0000 20.4036
# 5 7.3402 21.6106 26.1184 0.0000 53.2290 0.0000
# 6 0.0000 0.0000 0.0000 20.4036 0.0000 34.2959
#
#
#
# Elastic Compliance Matrix: (Units=1/GPa)
#
#
# Indices 1 2 3 4 5 6 
#
# 1 0.019428 -0.002213 -0.005946 0.000000 0.001137 0.000000
# 2 -0.002213 0.008679 -0.003248 0.000000 -0.001625 0.000000
# 3 -0.005946 -0.003248 0.015019 0.000000 -0.005231 0.000000
# 4 0.000000 0.000000 0.000000 0.039493 0.000000 -0.023495
# 5 0.001137 -0.001625 -0.005231 0.000000 0.021856 0.000000
# 6 0.000000 0.000000 0.000000 -0.023495 0.000000 0.043136
#
#
# Mechanical properties :
#
#
# Convention : Reuss Voigt Hill
#
# Bulk Modulus (GPa) = 49.22975 60.94824 55.08900
# Shear Modulus (GPa) = 28.21741 37.97605 33.09673
#
# Velocity S-wave (km/s) = 3.37923 3.92026 3.65976
# Velocity P-wave (km/s) = 5.92860 6.71984 6.33658
#
# Compressibility (1/GPa) = 0.02031292
#
# Stress axis : x y z
#
# Youngs Moduli (GPa) = 51.47177 115.21640 66.58412
#
# Poissons Ratio (x) = 0.25496 0.39592
# Poissons Ratio (y) = 0.11390 0.21624
# Poissons Ratio (z) = 0.30606 0.37417
#
# Static dielectric constant tensor:
#      x y z
#    x 1.961690 0.000000 -0.004430 
#    y 0.000000 3.023310 0.000000 
#    z -0.004430 0.000000 1.975530 
# 
# From -- ./inp_files/120884.got.cif
#   From: 2010.05.17/outbox.cif.g08.bks.cpg/sg15_61_cif.got.tgz:120884.got - 2010.06.03 18:47:42.
