data_PCOD9304323
_publ_section_title
;
Structure prediction by ZEFSAII (Michael W. Deem and Ramdas Pophale) SiO2 
 PCOD9304323
Probable space group: C 2/C
;
_chemical_formula_sum "Si O2"
_cell_formula_units_Z 40
_cell_length_a 12.173541
_cell_length_b 25.974081
_cell_length_c 5.402605
_cell_angle_alpha 90.000000
_cell_angle_beta 75.622122
_cell_angle_gamma 90.000000
_cell_volume 1654.779999
_symmetry_space_group_name_H-M "C 2/C"
_symmetry_group_IT_number 15
_symmetry_cell_setting 'monoclinic'
loop_
_space_group_symop_operation_xyz
x,y,z
-x,y,1/2-z
-x,-y,-z
x,-y,1/2+z
1/2+x,1/2+y,z
1/2-x,1/2+y,1/2-z
1/2-x,1/2-y,-z
1/2+x,1/2-y,1/2+z
loop_
_atom_site_type_symbol
_atom_site_label
_atom_site_fract_x
_atom_site_fract_y
_atom_site_fract_z
Si Si1 0.782580 0.674184 0.335342
Si Si2 0.000000 0.617196 0.250000
Si Si3 0.000000 0.442523 0.250000
Si Si4 0.882332 0.226371 0.679273
Si Si5 0.244108 0.029123 0.784571
Si Si6 0.879695 0.879921 0.911281
O O1 0.829627 0.719021 0.124272
O O2 0.702463 0.702036 0.573469
O O3 0.712562 0.628757 0.249704
O O4 0.893547 0.650650 0.395271
O O5 0.035241 0.587074 0.478023
O O6 0.118043 0.468196 0.273448
O O7 0.901523 0.178976 0.485384
O O8 0.000000 0.237886 0.750000
O O9 0.210504 0.003942 0.544401
O O10 0.181320 0.083857 0.854921
O O11 0.000000 0.900944 0.750000
#
# Coordination Sequence:
#
# PCOD9304323 Si02
#       6
#     8   4   4   8   8   8
#     4  11  24  44  67 107 146 187 242 285 357 424
#     4  12  24  43  76 112 146 194 224 305 352 430
#     4  12  24  47  78 106 148 182 240 289 376 424
#     4  11  23  43  70 102 146 189 241 289 354 426
#     4  12  28  48  75 107 141 186 240 303 364 427
#     4  12  26  46  72  99 142 189 240 297 356 427
#
# _framework density 24.172395000000002
#
# number of rings (size 3 to 8) (size 9 to 14) (size 15 to 20)
#    0.000    0.400    5.000    3.600    2.800    0.800 
#    1.800    0.000    0.000    0.000    0.000    0.000 
#    0.000    0.000    0.000    0.000    0.000    0.000 
#
# Total GULP energy -111857.214400 kJ/mol
# GULP energy per Si atom -5592.860720 kJ/mol
# Density = 2.411738 g / cm^3
# Si number density = 24.172395 Si / 1000 Ang^3
#
#
#
# Elastic Constant Matrix: (Units=GPa)
#
#
# Indices 1 2 3 4 5 6 
#
# 1 109.6521 19.2476 17.1644 0.0000 -26.1476 0.0000
# 2 19.2476 71.1857 22.3979 0.0000 -9.4906 0.0000
# 3 17.1644 22.3979 86.7393 0.0000 -13.3751 0.0000
# 4 0.0000 0.0000 0.0000 56.0932 0.0000 3.4297
# 5 -26.1476 -9.4906 -13.3751 0.0000 33.3963 0.0000
# 6 0.0000 0.0000 0.0000 3.4297 0.0000 32.8305
#
#
#
# Elastic Compliance Matrix: (Units=1/GPa)
#
#
# Indices 1 2 3 4 5 6 
#
# 1 0.011497 -0.001841 -0.000525 0.000000 0.008268 0.000000
# 2 -0.001841 0.015862 -0.003473 0.000000 0.001675 0.000000
# 3 -0.000525 -0.003473 0.013124 0.000000 0.003858 0.000000
# 4 0.000000 0.000000 0.000000 0.017942 0.000000 -0.001874
# 5 0.008268 0.001675 0.003858 0.000000 0.038438 0.000000
# 6 0.000000 0.000000 0.000000 -0.001874 0.000000 0.030655
#
#
# Mechanical properties :
#
#
# Convention : Reuss Voigt Hill
#
# Bulk Modulus (GPa) = 34.71648 42.79965 38.75807
# Shear Modulus (GPa) = 33.60261 38.38180 35.99220
#
# Velocity S-wave (km/s) = 3.73248 3.98909 3.86292
# Velocity P-wave (km/s) = 5.74181 6.24192 5.99708
#
# Compressibility (1/GPa) = 0.02880476
#
# Stress axis : x y z
#
# Youngs Moduli (GPa) = 86.98200 63.04484 76.19367
#
# Poissons Ratio (x) = 0.11607 0.03998
# Poissons Ratio (y) = 0.16015 0.26464
# Poissons Ratio (z) = 0.04564 0.21897
#
# Static dielectric constant tensor:
#      x y z
#    x 1.928870 0.000000 -0.001580 
#    y 0.000000 1.985930 0.000000 
#    z -0.001580 0.000000 2.005140 
# 
# From -- ./inp_files/4947.got.cif
#   From: 2010.05.17/outbox.cif.g08.bks.cpg/sg15_3_cif.got.tgz:4947.got - 2010.06.03 18:47:42.
