data_PCOD9304118
_publ_section_title
;
Structure prediction by ZEFSAII (Michael W. Deem and Ramdas Pophale) SiO2 
 PCOD9304118
Probable space group: C 2/C
;
_chemical_formula_sum "Si O2"
_cell_formula_units_Z 40
_cell_length_a 15.755329
_cell_length_b 18.114938
_cell_length_c 7.917128
_cell_angle_alpha 90.000000
_cell_angle_beta 49.155863
_cell_angle_gamma 90.000000
_cell_volume 1709.369831
_symmetry_space_group_name_H-M "C 2/C"
_symmetry_group_IT_number 15
_symmetry_cell_setting 'monoclinic'
loop_
_space_group_symop_operation_xyz
x,y,z
-x,y,1/2-z
-x,-y,-z
x,-y,1/2+z
1/2+x,1/2+y,z
1/2-x,1/2+y,1/2-z
1/2-x,1/2-y,-z
1/2+x,1/2-y,1/2+z
loop_
_atom_site_type_symbol
_atom_site_label
_atom_site_fract_x
_atom_site_fract_y
_atom_site_fract_z
Si Si1 0.897459 0.225756 0.148768
Si Si2 0.022593 0.613655 0.024027
Si Si3 0.904603 0.148387 0.482327
Si Si4 0.769449 0.460095 0.374861
Si Si5 0.728088 0.888734 0.762104
O O1 0.870727 0.209829 0.383672
O O2 0.806218 0.182695 0.157867
O O3 0.021741 0.188346 0.971410
O O4 0.908083 0.310771 0.093466
O O5 0.000000 0.601031 0.250000
O O6 0.903360 0.625834 0.090207
O O7 0.101506 0.550107 0.846756
O O8 0.806458 0.092134 0.645787
O O9 0.000000 0.104127 0.250000
O O10 0.754731 0.425814 0.577617
O O11 0.739070 0.545495 0.406465
#
# Coordination Sequence:
#
# PCOD9304118 Si02
#       5
#     8   8   8   8   8
#     4   8  21  40  64  95 125 169 209 264 315 377
#     4  12  26  41  63  96 133 169 216 265 320 376
#     4   7  18  40  65  96 122 163 217 250 317 384
#     4  11  23  42  68  94 130 173 209 266 317 385
#     4  11  24  43  66  96 129 171 215 260 322 383
#
# _framework density 23.400435999999999
#
# number of rings (size 3 to 8) (size 9 to 14) (size 15 to 20)
#    1.200    0.800    0.000    2.400    8.400    3.200 
#    3.600    0.000    0.000    0.000    0.000    0.000 
#    0.000    0.000    0.000    0.000    0.000    0.000 
#
# Total GULP energy -111698.641587 kJ/mol
# GULP energy per Si atom -5584.932079 kJ/mol
# Density = 2.334718 g / cm^3
# Si number density = 23.400436 Si / 1000 Ang^3
#
#
#
# Elastic Constant Matrix: (Units=GPa)
#
#
# Indices 1 2 3 4 5 6 
#
# 1 91.7416 26.2503 10.1353 0.0000 -22.6981 0.0000
# 2 26.2503 76.5481 2.5851 0.0000 -8.1326 0.0000
# 3 10.1353 2.5851 33.5738 0.0000 4.7332 0.0000
# 4 0.0000 0.0000 0.0000 22.1059 0.0000 -7.2432
# 5 -22.6981 -8.1326 4.7332 0.0000 34.3438 0.0000
# 6 0.0000 0.0000 0.0000 -7.2432 0.0000 32.0927
#
#
#
# Elastic Compliance Matrix: (Units=1/GPa)
#
#
# Indices 1 2 3 4 5 6 
#
# 1 0.015075 -0.003938 -0.005630 0.000000 0.009807 0.000000
# 2 -0.003938 0.014505 -0.000046 0.000000 0.000839 0.000000
# 3 -0.005630 -0.000046 0.032649 0.000000 -0.008232 0.000000
# 4 0.000000 0.000000 0.000000 0.048849 0.000000 0.011025
# 5 0.009807 0.000839 -0.008232 0.000000 0.036932 0.000000
# 6 0.000000 0.000000 0.000000 0.011025 0.000000 0.033648
#
#
# Mechanical properties :
#
#
# Convention : Reuss Voigt Hill
#
# Bulk Modulus (GPa) = 23.25570 31.08942 27.17256
# Shear Modulus (GPa) = 23.23205 28.56800 25.90002
#
# Velocity S-wave (km/s) = 3.15430 3.49783 3.33050
# Velocity P-wave (km/s) = 4.81932 5.44314 5.14070
#
# Compressibility (1/GPa) = 0.04300021
#
# Stress axis : x y z
#
# Youngs Moduli (GPa) = 66.33403 68.94331 30.62890
#
# Poissons Ratio (x) = 0.27147 0.17245
# Poissons Ratio (y) = 0.26120 0.00142
# Poissons Ratio (z) = 0.37348 0.00320
#
# Static dielectric constant tensor:
#      x y z
#    x 1.962060 0.000000 -0.018190 
#    y 0.000000 1.873000 0.000000 
#    z -0.018190 0.000000 1.912080 
# 
# From -- ./inp_files/40547.got.cif
#   From: 2010.05.17/outbox.cif.g08.bks.cpg/sg15_21_cif.got.tgz:40547.got - 2010.06.03 18:47:42.
