data_PCOD9304764
_publ_section_title
;
Structure prediction by ZEFSAII (Michael W. Deem and Ramdas Pophale) SiO2 
 PCOD9304764
Probable space group: C 2/C
;
_chemical_formula_sum "Si O2"
_cell_formula_units_Z 48
_cell_length_a 7.861954
_cell_length_b 11.835249
_cell_length_c 23.356186
_cell_angle_alpha 90.000000
_cell_angle_beta 108.048044
_cell_angle_gamma 90.000000
_cell_volume 2066.320359
_symmetry_space_group_name_H-M "C 2/C"
_symmetry_group_IT_number 15
_symmetry_cell_setting 'monoclinic'
loop_
_space_group_symop_operation_xyz
x,y,z
-x,y,1/2-z
-x,-y,-z
x,-y,1/2+z
1/2+x,1/2+y,z
1/2-x,1/2+y,1/2-z
1/2-x,1/2-y,-z
1/2+x,1/2-y,1/2+z
loop_
_atom_site_type_symbol
_atom_site_label
_atom_site_fract_x
_atom_site_fract_y
_atom_site_fract_z
Si Si1 0.916798 0.814349 0.181400
Si Si2 0.239444 0.368960 0.351690
Si Si3 0.166629 0.866845 0.832193
Si Si4 0.683647 0.971040 0.076369
Si Si5 0.228334 0.911280 0.705582
Si Si6 0.210901 0.618407 0.979785
O O1 0.777125 0.890582 0.132537
O O2 0.826196 0.695643 0.188037
O O3 0.000000 0.860241 0.250000
O O4 0.085395 0.811475 0.157125
O O5 0.108154 0.263053 0.333875
O O6 0.182668 0.474990 0.308195
O O7 0.267445 0.400478 0.420279
O O8 0.218864 0.893543 0.772679
O O9 0.981324 0.926153 0.832180
O O10 0.325627 0.911062 0.889141
O O11 0.502126 0.907688 0.040834
O O12 0.782182 0.020252 0.030038
O O13 0.250000 0.750000 0.000000
#
# Coordination Sequence:
#
# PCOD9304764 Si02
#       6
#     8   8   8   8   8   8
#     4  12  25  46  70 111 149 187 243 311 376 452
#     4  12  25  45  72 104 148 191 249 298 371 443
#     4  11  23  46  72 106 146 192 239 303 370 443
#     4  11  25  47  77 101 150 194 247 314 368 436
#     4  11  26  44  71 107 152 189 238 301 377 445
#     4  11  26  48  74 107 144 202 258 302 368 447
#
# _framework density 23.229697999999999
#
# number of rings (size 3 to 8) (size 9 to 14) (size 15 to 20)
#    0.000    0.667    5.000    2.000    2.333    0.667 
#    3.000    1.667    0.000    0.000    0.000    0.000 
#    0.000    0.000    0.000    0.000    0.000    0.000 
#
# Total GULP energy -134000.062511 kJ/mol
# GULP energy per Si atom -5583.335938 kJ/mol
# Density = 2.317683 g / cm^3
# Si number density = 23.229698 Si / 1000 Ang^3
#
#
#
# Elastic Constant Matrix: (Units=GPa)
#
#
# Indices 1 2 3 4 5 6 
#
# 1 59.7474 25.4837 27.8304 0.0000 -11.1791 0.0000
# 2 25.4837 141.2977 49.2655 0.0000 9.4116 0.0000
# 3 27.8304 49.2655 132.9643 0.0000 -11.0259 0.0000
# 4 0.0000 0.0000 0.0000 7.3726 0.0000 14.9659
# 5 -11.1791 9.4116 -11.0259 0.0000 40.1305 0.0000
# 6 0.0000 0.0000 0.0000 14.9659 0.0000 30.1167
#
#
#
# Elastic Compliance Matrix: (Units=1/GPa)
#
#
# Indices 1 2 3 4 5 6 
#
# 1 0.020362 -0.003134 -0.002629 0.000000 0.005685 0.000000
# 2 -0.003134 0.008929 -0.002966 0.000000 -0.003782 0.000000
# 3 -0.002629 -0.002966 0.009381 0.000000 0.002540 0.000000
# 4 0.000000 0.000000 0.000000-15.526085 0.000000 7.715401
# 5 0.005685 -0.003782 0.002540 0.000000 0.028087 0.000000
# 6 0.000000 0.000000 0.000000 7.715401 0.000000 -3.800822
#
#
# Mechanical properties :
#
#
# Convention : Reuss Voigt Hill
#
# Bulk Modulus (GPa) = 47.14120 59.90763 53.52441
# Shear Modulus (GPa) = -0.25993 30.95262 15.34634
#
# Velocity S-wave (km/s) = -0.33487 3.65425 2.57307
# Velocity P-wave (km/s) = 4.49311 6.60681 5.64969
#
# Compressibility (1/GPa) = 0.02121287
#
# Stress axis : x y z
#
# Youngs Moduli (GPa) = 49.11005 112.00071 106.60242
#
# Poissons Ratio (x) = 0.35106 0.28028
# Poissons Ratio (y) = 0.15393 0.31615
# Poissons Ratio (z) = 0.12912 0.33216
#
# Static dielectric constant tensor:
#      x y z
#    x 1.895500 0.000000 0.041670 
#    y 0.000000 2.004950 0.000000 
#    z 0.041670 0.000000 1.913320 
# 
# From -- ./inp_files/263547.got.cif
#   From: 2010.05.17/outbox.cif.g08.bks.cpg/sg15_132_cif.got.tgz:263547.got - 2010.06.03 18:47:42.
