data_PCOD9304494
_publ_section_title
;
Structure prediction by ZEFSAII (Michael W. Deem and Ramdas Pophale) SiO2 
 PCOD9304494
Probable space group: C 2/C
;
_chemical_formula_sum "Si O2"
_cell_formula_units_Z 56
_cell_length_a 27.739563
_cell_length_b 8.416468
_cell_length_c 12.368135
_cell_angle_alpha 90.000000
_cell_angle_beta 120.926961
_cell_angle_gamma 90.000000
_cell_volume 2477.031194
_symmetry_space_group_name_H-M "C 2/C"
_symmetry_group_IT_number 15
_symmetry_cell_setting 'monoclinic'
loop_
_space_group_symop_operation_xyz
x,y,z
-x,y,1/2-z
-x,-y,-z
x,-y,1/2+z
1/2+x,1/2+y,z
1/2-x,1/2+y,1/2-z
1/2-x,1/2-y,-z
1/2+x,1/2-y,1/2+z
loop_
_atom_site_type_symbol
_atom_site_label
_atom_site_fract_x
_atom_site_fract_y
_atom_site_fract_z
Si Si1 0.964981 0.866561 0.306070
Si Si2 0.306917 0.232436 0.820352
Si Si3 0.125111 0.645350 0.399495
Si Si4 0.603319 0.205579 0.966130
Si Si5 0.011570 0.678643 0.553908
Si Si6 0.687480 0.133201 0.248587
Si Si7 0.614708 0.650282 0.260079
O O1 0.931156 0.722796 0.211826
O O2 0.003790 0.796283 0.443909
O O3 0.000000 0.945322 0.250000
O O4 0.920136 0.990893 0.298948
O O5 0.245928 0.282745 0.789842
O O6 0.330085 0.338020 0.748366
O O7 0.306971 0.051126 0.778822
O O8 0.349832 0.241350 0.970436
O O9 0.113352 0.469131 0.428295
O O10 0.169046 0.643502 0.351564
O O11 0.537910 0.221574 0.919777
O O12 0.623664 0.327314 0.898087
O O13 0.639075 0.209381 0.117275
O O14 0.000000 0.500000 0.500000
O O15 0.072808 0.707023 0.673992
#
# Coordination Sequence:
#
# PCOD9304494 Si02
#       7
#     8   8   8   8   8   8   8
#     4  12  25  42  68 103 141 180 223 280 341 408
#     4  11  26  45  72  99 137 180 227 287 339 408
#     4  11  23  47  68 101 135 175 234 276 342 408
#     4  11  23  44  70  97 136 177 225 281 338 410
#     4  12  23  42  71  98 139 179 226 277 336 410
#     4  11  24  46  70 101 134 178 233 281 343 406
#     4  12  26  44  64 105 142 177 226 279 343 404
#
# _framework density 22.607707999999999
#
# number of rings (size 3 to 8) (size 9 to 14) (size 15 to 20)
#    0.000    0.571    2.857    6.429    2.000    2.857 
#    0.000    0.000    0.000    0.000    0.000    0.000 
#    0.000    0.000    0.000    0.000    0.000    0.000 
#
# Total GULP energy -156931.923810 kJ/mol
# GULP energy per Si atom -5604.711565 kJ/mol
# Density = 2.255625 g / cm^3
# Si number density = 22.607708 Si / 1000 Ang^3
#
#
#
# Elastic Constant Matrix: (Units=GPa)
#
#
# Indices 1 2 3 4 5 6 
#
# 1 132.5521 -4.3467 13.9858 0.0000 -27.1288 0.0000
# 2 -4.3467 45.9327 10.2344 0.0000 -9.9265 0.0000
# 3 13.9858 10.2344 60.0412 0.0000 -24.4788 0.0000
# 4 0.0000 0.0000 0.0000 18.6576 0.0000 11.3950
# 5 -27.1288 -9.9265 -24.4788 0.0000 39.7132 0.0000
# 6 0.0000 0.0000 0.0000 11.3950 0.0000 30.1331
#
#
#
# Elastic Compliance Matrix: (Units=1/GPa)
#
#
# Indices 1 2 3 4 5 6 
#
# 1 0.009000 0.002273 0.000340 0.000000 0.006926 0.000000
# 2 0.002273 0.023789 -0.002040 0.000000 0.006242 0.000000
# 3 0.000340 -0.002040 0.022453 0.000000 0.013562 0.000000
# 4 0.000000 0.000000 0.000000 0.069693 0.000000 -0.026355
# 5 0.006926 0.006242 0.013562 0.000000 0.039831 0.000000
# 6 0.000000 0.000000 0.000000 -0.026355 0.000000 0.043152
#
#
# Mechanical properties :
#
#
# Convention : Reuss Voigt Hill
#
# Bulk Modulus (GPa) = 17.73417 30.91920 24.32668
# Shear Modulus (GPa) = 22.16600 32.27761 27.22181
#
# Velocity S-wave (km/s) = 3.13463 3.78263 3.47377
# Velocity P-wave (km/s) = 4.57849 5.72571 5.18393
#
# Compressibility (1/GPa) = 0.05638832
#
# Stress axis : x y z
#
# Youngs Moduli (GPa) = 111.10659 42.03548 44.53731
#
# Poissons Ratio (x) = -0.09554 -0.01513
# Poissons Ratio (y) = -0.25252 0.09085
# Poissons Ratio (z) = -0.03775 0.08574
#
# Static dielectric constant tensor:
#      x y z
#    x 1.802540 0.000000 -0.023540 
#    y 0.000000 1.831470 0.000000 
#    z -0.023540 0.000000 1.813420 
# 
# From -- ./inp_files/125966.got.cif
#   From: 2010.05.17/outbox.cif.g08.bks.cpg/sg15_63_cif.got.tgz:125966.got - 2010.06.03 18:47:42.
