data_PCOD9304385
_publ_section_title
;
Structure prediction by ZEFSAII (Michael W. Deem and Ramdas Pophale) SiO2 
 PCOD9304385
Probable space group: C 2/C
;
_chemical_formula_sum "Si O2"
_cell_formula_units_Z 52
_cell_length_a 7.750172
_cell_length_b 17.096365
_cell_length_c 25.314940
_cell_angle_alpha 90.000000
_cell_angle_beta 50.280021
_cell_angle_gamma 90.000000
_cell_volume 2579.990961
_symmetry_space_group_name_H-M "C 2/C"
_symmetry_group_IT_number 15
_symmetry_cell_setting 'monoclinic'
loop_
_space_group_symop_operation_xyz
x,y,z
-x,y,1/2-z
-x,-y,-z
x,-y,1/2+z
1/2+x,1/2+y,z
1/2-x,1/2+y,1/2-z
1/2-x,1/2-y,-z
1/2+x,1/2-y,1/2+z
loop_
_atom_site_type_symbol
_atom_site_label
_atom_site_fract_x
_atom_site_fract_y
_atom_site_fract_z
Si Si1 0.157817 0.182718 0.786111
Si Si2 0.856950 0.318037 0.363246
Si Si3 0.728720 0.549186 0.967181
Si Si4 0.381184 0.938821 0.628152
Si Si5 0.104068 0.658035 0.177049
Si Si6 0.500000 0.455317 0.250000
Si Si7 0.864349 0.843025 0.914535
O O1 0.384101 0.189627 0.706430
O O2 0.222314 0.186381 0.834786
O O3 0.992622 0.254393 0.807667
O O4 0.046872 0.101715 0.790196
O O5 0.800099 0.399452 0.402432
O O6 0.799920 0.246972 0.414402
O O7 0.932318 0.489939 0.938020
O O8 0.500000 0.500000 0.000000
O O9 0.712494 0.610714 0.018352
O O10 0.518312 0.885053 0.641848
O O11 0.230144 0.889884 0.617303
O O12 0.213489 0.992359 0.694794
O O13 0.367988 0.656334 0.132783
O O14 0.000000 0.620147 0.250000
#
# Coordination Sequence:
#
# PCOD9304385 Si02
#       7
#     8   8   8   8   8   4   8
#     4  11  23  43  73 107 139 179 236 301 360 426
#     4  11  24  46  74 102 141 188 238 292 360 429
#     4  12  27  49  69 104 149 193 244 294 353 428
#     4  12  27  46  70 110 142 189 240 298 362 423
#     4  12  23  43  74 106 143 178 240 300 355 422
#     4  12  24  42  72 104 144 182 230 306 374 406
#     4  12  25  47  74  99 145 196 233 290 356 437
#
# _framework density 20.155108999999999
#
# number of rings (size 3 to 8) (size 9 to 14) (size 15 to 20)
#    0.000    0.308    6.923    1.846    2.154    1.231 
#    0.000    1.538    0.000    0.000    0.000    0.000 
#    0.000    0.000    0.000    0.000    0.000    0.000 
#
# Total GULP energy -145351.241670 kJ/mol
# GULP energy per Si atom -5590.432372 kJ/mol
# Density = 2.010923 g / cm^3
# Si number density = 20.155109 Si / 1000 Ang^3
#
#
#
# Elastic Constant Matrix: (Units=GPa)
#
#
# Indices 1 2 3 4 5 6 
#
# 1 159.5763 58.1031 42.3922 0.0008 0.0023 0.0004
# 2 58.1031 105.8248 30.9255 0.0004 -6.4738 -0.0001
# 3 42.3922 30.9255 62.3559 0.0001 2.0451 0.0008
# 4 0.0008 0.0004 0.0001 53.4234 -0.0002 -1.7544
# 5 0.0023 -6.4738 2.0451 -0.0002 38.2090 -0.0007
# 6 0.0004 -0.0001 0.0008 -1.7544 -0.0007 21.8624
#
#
#
# Elastic Compliance Matrix: (Units=1/GPa)
#
#
# Indices 1 2 3 4 5 6 
#
# 1 0.008659 -0.003580 -0.004098 0.000000 -0.000388 0.000000
# 2 -0.003580 0.012714 -0.003949 0.000000 0.002366 0.000000
# 3 -0.004098 -0.003949 0.020840 0.000000 -0.001784 -0.000001
# 4 0.000000 0.000000 0.000000 0.018768 0.000000 0.001506
# 5 -0.000388 0.002366 -0.001784 0.000000 0.026668 0.000001
# 6 0.000000 0.000000 -0.000001 0.001506 0.000001 0.045861
#
#
# Mechanical properties :
#
#
# Convention : Reuss Voigt Hill
#
# Bulk Modulus (GPa) = 52.74867 65.62206 59.18537
# Shear Modulus (GPa) = 30.65873 35.78805 33.22339
#
# Velocity S-wave (km/s) = 3.90441 4.21840 4.06444
# Velocity P-wave (km/s) = 6.82305 7.50704 7.17321
#
# Compressibility (1/GPa) = 0.01895782
#
# Stress axis : x y z
#
# Youngs Moduli (GPa) = 115.48747 78.65276 47.98391
#
# Poissons Ratio (x) = 0.28160 0.19666
# Poissons Ratio (y) = 0.41347 0.18950
# Poissons Ratio (z) = 0.47331 0.31061
#
# Static dielectric constant tensor:
#      x y z
#    x 1.706150 0.000000 0.006550 
#    y 0.000000 1.713250 0.000000 
#    z 0.006550 0.000000 1.727190 
# 
# From -- ./inp_files/288625.got.cif
#   From: 2010.05.17/outbox.cif.g08.bks.cpg/sg15_145_cif.got.tgz:288625.got - 2010.06.03 18:47:42.
