data_PCOD9304777
_publ_section_title
;
Structure prediction by ZEFSAII (Michael W. Deem and Ramdas Pophale) SiO2 
 PCOD9304777
Probable space group: C 2/C
;
_chemical_formula_sum "Si O2"
_cell_formula_units_Z 52
_cell_length_a 9.077088
_cell_length_b 16.837050
_cell_length_c 18.501840
_cell_angle_alpha 90.000000
_cell_angle_beta 59.913204
_cell_angle_gamma 90.000000
_cell_volume 2446.682385
_symmetry_space_group_name_H-M "C 2/C"
_symmetry_group_IT_number 15
_symmetry_cell_setting 'monoclinic'
loop_
_space_group_symop_operation_xyz
x,y,z
-x,y,1/2-z
-x,-y,-z
x,-y,1/2+z
1/2+x,1/2+y,z
1/2-x,1/2+y,1/2-z
1/2-x,1/2-y,-z
1/2+x,1/2-y,1/2+z
loop_
_atom_site_type_symbol
_atom_site_label
_atom_site_fract_x
_atom_site_fract_y
_atom_site_fract_z
Si Si1 0.798510 0.395131 0.132193
Si Si2 0.995235 0.069636 0.443723
Si Si3 0.500000 0.289905 0.250000
Si Si4 0.557651 0.834426 0.856331
Si Si5 0.218952 0.844635 0.994278
Si Si6 0.826811 0.954368 0.748691
Si Si7 0.167514 0.331889 0.992649
O O1 0.673603 0.338979 0.208378
O O2 0.775025 0.477851 0.180867
O O3 0.712858 0.389926 0.072762
O O4 0.990612 0.361819 0.073880
O O5 0.072795 0.142755 0.471555
O O6 0.107123 0.037829 0.349235
O O7 0.809585 0.098973 0.464289
O O8 0.000000 0.000000 0.500000
O O9 0.497981 0.238586 0.178445
O O10 0.384902 0.881599 0.914529
O O11 0.701254 0.880450 0.778637
O O12 0.627122 0.816835 0.918602
O O13 0.250000 0.750000 0.000000
O O14 0.000000 0.939519 0.750000
O O15 0.250000 0.250000 0.000000
#
# Coordination Sequence:
#
# PCOD9304777 Si02
#       7
#     8   8   4   8   8   8   8
#     4  11  26  45  77 103 146 191 250 300 364 443
#     4  12  27  46  73 103 148 190 238 300 367 440
#     4  12  24  44  76 110 138 202 254 304 358 444
#     4  11  25  42  75 101 142 188 243 296 362 435
#     4  11  23  46  74 104 137 193 247 293 358 442
#     4  12  25  46  68 108 143 187 238 303 367 431
#     4  11  27  47  71 109 147 191 240 306 377 431
#
# _framework density 21.253270000000001
#
# number of rings (size 3 to 8) (size 9 to 14) (size 15 to 20)
#    0.000    0.615    3.846    3.692    4.308    1.231 
#    0.000    1.538    0.000    0.000    0.000    0.000 
#    0.000    0.000    0.000    0.000    0.000    0.000 
#
# Total GULP energy -145118.674793 kJ/mol
# GULP energy per Si atom -5581.487492 kJ/mol
# Density = 2.120490 g / cm^3
# Si number density = 21.253270 Si / 1000 Ang^3
#
#
#
# Elastic Constant Matrix: (Units=GPa)
#
#
# Indices 1 2 3 4 5 6 
#
# 1 97.2477 27.6491 31.1558 0.0000 -1.0660 0.0000
# 2 27.6491 -7.4092 -31.1088 0.0000 -19.7689 0.0000
# 3 31.1558 -31.1088 98.2245 0.0000 -20.7803 0.0000
# 4 0.0000 0.0000 0.0000 1.8394 0.0000 -10.8559
# 5 -1.0660 -19.7689 -20.7803 0.0000 35.4777 0.0000
# 6 0.0000 0.0000 0.0000 -10.8559 0.0000 28.0018
#
#
#
# Elastic Compliance Matrix: (Units=1/GPa)
#
#
# Indices 1 2 3 4 5 6 
#
# 1 0.007613 0.008113 0.001323 0.000000 0.005525 0.000000
# 2 0.008113 -0.016607 -0.011116 0.000000 -0.015521 0.000000
# 3 0.001323 -0.011116 0.005637 0.000000 -0.002853 0.000000
# 4 0.000000 0.000000 0.000000 -0.422074 0.000000 -0.163633
# 5 0.005525 -0.015521 -0.002853 0.000000 0.018033 0.000000
# 6 0.000000 0.000000 0.000000 -0.163633 0.000000 -0.027726
#
#
# Mechanical properties :
#
#
# Convention : Reuss Voigt Hill
#
# Bulk Modulus (GPa) = -148.87406 27.05060 -60.91173
# Shear Modulus (GPa) = -11.52067 23.75492 6.11712
#
# Velocity S-wave (km/s) = -2.33076 3.34684 1.69837
# Velocity P-wave (km/s) = 8.80017 5.26217 4.98761
#
# Compressibility (1/GPa) = -0.00671709
#
# Stress axis : x y z
#
# Youngs Moduli (GPa) = 131.35449 -60.21732 177.40694
#
# Poissons Ratio (x) = 0.48853 -0.23478
# Poissons Ratio (y) = -1.06565 1.97212
# Poissons Ratio (z) = -0.17384 -0.66940
#
# Static dielectric constant tensor:
#      x y z
#    x 1.852350 0.000000 0.048390 
#    y 0.000000 2.073110 0.000000 
#    z 0.048390 0.000000 1.879990 
# 
# From -- ./inp_files/190822.got.cif
#   From: 2010.05.17/outbox.cif.g08.bks.cpg/sg15_96_cif.got.tgz:190822.got - 2010.06.03 18:47:42.
