data_PCOD9304426
_publ_section_title
;
Structure prediction by ZEFSAII (Michael W. Deem and Ramdas Pophale) SiO2 
 PCOD9304426
Probable space group: C 2/C
;
_chemical_formula_sum "Si O2"
_cell_formula_units_Z 32
_cell_length_a 20.197903
_cell_length_b 9.805901
_cell_length_c 9.183706
_cell_angle_alpha 90.000000
_cell_angle_beta 52.598176
_cell_angle_gamma 90.000000
_cell_volume 1444.935350
_symmetry_space_group_name_H-M "C 2/C"
_symmetry_group_IT_number 15
_symmetry_cell_setting 'monoclinic'
loop_
_space_group_symop_operation_xyz
x,y,z
-x,y,1/2-z
-x,-y,-z
x,-y,1/2+z
1/2+x,1/2+y,z
1/2-x,1/2+y,1/2-z
1/2-x,1/2-y,-z
1/2+x,1/2-y,1/2+z
loop_
_atom_site_type_symbol
_atom_site_label
_atom_site_fract_x
_atom_site_fract_y
_atom_site_fract_z
Si Si1 0.445370 0.408326 0.177570
Si Si2 0.735919 0.452648 0.957292
Si Si3 0.301088 0.824175 0.153557
Si Si4 0.989637 0.360416 0.932811
O O1 0.500000 0.395582 0.250000
O O2 0.354661 0.458723 0.344164
O O3 0.444167 0.256022 0.113347
O O4 0.500000 0.500000 0.000000
O O5 0.733851 0.323079 0.849164
O O6 0.755859 0.588313 0.839528
O O7 0.797000 0.413849 0.009370
O O8 0.396045 0.804828 0.077291
O O9 0.000000 0.390719 0.750000
O O10 0.000000 0.500000 0.000000
#
# Coordination Sequence:
#
# PCOD9304426 Si02
#       4
#     8   8   8   8
#     4  11  23  45  65  94 132 175 220 271 329 393
#     4  11  24  44  67  97 135 173 220 273 333 390
#     4  11  24  43  68  98 132 176 219 275 331 393
#     4  11  23  44  66  95 134 173 223 270 330 393
#
# _framework density 22.146318999999998
#
# number of rings (size 3 to 8) (size 9 to 14) (size 15 to 20)
#    0.000    1.000    5.000    3.000    3.500    2.000 
#    4.500    0.000    0.000    0.000    0.000    0.000 
#    0.000    0.000    0.000    0.000    0.000    0.000 
#
# Total GULP energy -89468.675453 kJ/mol
# GULP energy per Si atom -5591.792216 kJ/mol
# Density = 2.209591 g / cm^3
# Si number density = 22.146319 Si / 1000 Ang^3
#
#
#
# Elastic Constant Matrix: (Units=GPa)
#
#
# Indices 1 2 3 4 5 6 
#
# 1 34.1566 -2.4620 15.0285 0.0000 -14.7451 0.0000
# 2 -2.4620 96.7096 86.5412 0.0000 18.2583 0.0000
# 3 15.0285 86.5412 153.7688 0.0000 -12.7289 0.0000
# 4 0.0000 0.0000 0.0000 54.3691 0.0000 11.6320
# 5 -14.7451 18.2583 -12.7289 0.0000 32.0480 0.0000
# 6 0.0000 0.0000 0.0000 11.6320 0.0000 26.6354
#
#
#
# Elastic Compliance Matrix: (Units=1/GPa)
#
#
# Indices 1 2 3 4 5 6 
#
# 1 0.037305 -0.000211 -0.002168 0.000000 0.016423 0.000000
# 2 -0.000211 0.036830 -0.023216 0.000000 -0.030301 0.000000
# 3 -0.002168 -0.023216 0.021500 0.000000 0.020769 0.000000
# 4 0.000000 0.000000 0.000000 0.020288 0.000000 -0.008860
# 5 0.016423 -0.030301 0.020769 0.000000 0.064271 0.000000
# 6 0.000000 0.000000 0.000000 -0.008860 0.000000 0.041413
#
#
# Mechanical properties :
#
#
# Convention : Reuss Voigt Hill
#
# Bulk Modulus (GPa) = 22.49902 53.65005 38.07453
# Shear Modulus (GPa) = 17.38445 34.97899 26.18172
#
# Velocity S-wave (km/s) = 2.80479 3.97854 3.44207
# Velocity P-wave (km/s) = 4.54648 6.73668 5.74688
#
# Compressibility (1/GPa) = 0.04444638
#
# Stress axis : x y z
#
# Youngs Moduli (GPa) = 26.80595 27.15157 46.51122
#
# Poissons Ratio (x) = 0.00574 0.10082
# Poissons Ratio (y) = 0.00566 1.07979
# Poissons Ratio (z) = 0.05810 0.63034
#
# Static dielectric constant tensor:
#      x y z
#    x 1.813840 0.000000 -0.025880 
#    y 0.000000 1.872710 0.000000 
#    z -0.025880 0.000000 1.840470 
# 
# From -- ./inp_files/53415.got.cif
#   From: 2010.05.17/outbox.cif.g08.bks.cpg/sg15_27_cif.got.tgz:53415.got - 2010.06.03 18:47:42.
