data_PCOD9304203
_publ_section_title
;
Structure prediction by ZEFSAII (Michael W. Deem and Ramdas Pophale) SiO2 
 PCOD9304203
Probable space group: C 2/C
;
_chemical_formula_sum "Si O2"
_cell_formula_units_Z 60
_cell_length_a 19.954880
_cell_length_b 11.163010
_cell_length_c 17.995904
_cell_angle_alpha 90.000000
_cell_angle_beta 137.991303
_cell_angle_gamma 90.000000
_cell_volume 2682.799396
_symmetry_space_group_name_H-M "C 2/C"
_symmetry_group_IT_number 15
_symmetry_cell_setting 'monoclinic'
loop_
_space_group_symop_operation_xyz
x,y,z
-x,y,1/2-z
-x,-y,-z
x,-y,1/2+z
1/2+x,1/2+y,z
1/2-x,1/2+y,1/2-z
1/2-x,1/2-y,-z
1/2+x,1/2-y,1/2+z
loop_
_atom_site_type_symbol
_atom_site_label
_atom_site_fract_x
_atom_site_fract_y
_atom_site_fract_z
Si Si1 0.161893 0.332352 0.398189
Si Si2 0.447394 0.372552 0.473551
Si Si3 0.500000 0.468486 0.250000
Si Si4 0.026763 0.679427 0.648506
Si Si5 0.331789 0.488523 0.501634
Si Si6 0.513794 0.073894 0.175777
Si Si7 0.819936 0.264683 0.484477
Si Si8 0.631529 0.698555 0.750329
O O1 0.250000 0.250000 0.500000
O O2 0.075968 0.323350 0.388675
O O3 0.220782 0.459185 0.438835
O O4 0.114761 0.294324 0.280315
O O5 0.500000 0.500000 0.500000
O O6 0.515757 0.274955 0.573380
O O7 0.355766 0.404634 0.452288
O O8 0.404596 0.322172 0.362233
O O9 0.581172 0.538366 0.365896
O O10 0.433412 0.385973 0.249099
O O11 0.035259 0.537213 0.639171
O O12 0.348465 0.626721 0.492907
O O13 0.500000 0.030923 0.250000
O O14 0.605231 0.165790 0.249799
O O15 0.416736 0.153624 0.076012
O O16 0.750000 0.250000 0.500000
O O17 0.748096 0.319410 0.362661
#
# Coordination Sequence:
#
# PCOD9304203 Si02
#       8
#     8   8   4   8   8   8   8   8
#     4  11  23  42  74 107 138 184 240 296 359 431
#     4  12  27  50  66  98 153 189 233 300 371 442
#     4  12  22  40  78 102 128 192 250 294 340 424
#     4  11  26  46  70 107 143 183 233 303 366 424
#     4  12  24  44  71 108 142 186 242 300 360 433
#     4  12  20  42  71 102 140 176 234 301 349 415
#     4  12  21  39  72 102 131 183 241 291 351 420
#     4  12  24  44  68 103 139 186 239 292 357 424
#
# _framework density 22.364699000000002
#
# number of rings (size 3 to 8) (size 9 to 14) (size 15 to 20)
#    0.000    0.267    8.667    1.600    1.867    0.533 
#    7.200    0.000    0.000    0.000    0.000    0.000 
#    0.000    0.000    0.000    0.000    0.000    0.000 
#
# Total GULP energy -167817.280483 kJ/mol
# GULP energy per Si atom -5593.909349 kJ/mol
# Density = 2.231380 g / cm^3
# Si number density = 22.364699 Si / 1000 Ang^3
#
#
#
# Elastic Constant Matrix: (Units=GPa)
#
#
# Indices 1 2 3 4 5 6 
#
# 1 45.3052 20.9630 35.1302 0.0000 -2.8731 0.0000
# 2 20.9630 103.6210 33.0134 0.0000 -6.8080 0.0000
# 3 35.1302 33.0134 159.8513 0.0000 6.2560 0.0000
# 4 0.0000 0.0000 0.0000 41.7554 0.0000 -1.9670
# 5 -2.8731 -6.8080 6.2560 0.0000 41.8454 0.0000
# 6 0.0000 0.0000 0.0000 -1.9670 0.0000 36.5417
#
#
#
# Elastic Compliance Matrix: (Units=1/GPa)
#
#
# Indices 1 2 3 4 5 6 
#
# 1 0.028242 -0.003820 -0.005501 0.000000 0.002140 0.000000
# 2 -0.003820 0.011018 -0.001505 0.000000 0.001755 0.000000
# 3 -0.005501 -0.001505 0.007846 0.000000 -0.001796 0.000000
# 4 0.000000 0.000000 0.000000 0.024010 0.000000 0.001292
# 5 0.002140 0.001755 -0.001796 0.000000 0.024598 0.000000
# 6 0.000000 0.000000 0.000000 0.001292 0.000000 0.027436
#
#
# Mechanical properties :
#
#
# Convention : Reuss Voigt Hill
#
# Bulk Modulus (GPa) = 39.28767 54.11008 46.69887
# Shear Modulus (GPa) = 32.61868 38.67320 35.64594
#
# Velocity S-wave (km/s) = 3.82316 4.16289 3.99663
# Velocity P-wave (km/s) = 6.09046 6.88136 6.49795
#
# Compressibility (1/GPa) = 0.02545328
#
# Stress axis : x y z
#
# Youngs Moduli (GPa) = 35.40863 90.75990 127.45540
#
# Poissons Ratio (x) = 0.34671 0.70119
# Poissons Ratio (y) = 0.13526 0.19178
# Poissons Ratio (z) = 0.19480 0.13656
#
# Static dielectric constant tensor:
#      x y z
#    x 1.855300 0.000000 -0.002480 
#    y 0.000000 1.903290 0.000000 
#    z -0.002480 0.000000 1.830220 
# 
# From -- ./inp_files/215231.got.cif
#   From: 2010.05.17/outbox.cif.g08.bks.cpg/sg15_108_cif.got.tgz:215231.got - 2010.06.03 18:47:42.
