data_PCOD9304639
_publ_section_title
;
Structure prediction by ZEFSAII (Michael W. Deem and Ramdas Pophale) SiO2 
 PCOD9304639
Probable space group: C 2/C
;
_chemical_formula_sum "Si O2"
_cell_formula_units_Z 48
_cell_length_a 9.131306
_cell_length_b 27.142937
_cell_length_c 14.292032
_cell_angle_alpha 90.000000
_cell_angle_beta 42.378616
_cell_angle_gamma 90.000000
_cell_volume 2387.595971
_symmetry_space_group_name_H-M "C 2/C"
_symmetry_group_IT_number 15
_symmetry_cell_setting 'monoclinic'
loop_
_space_group_symop_operation_xyz
x,y,z
-x,y,1/2-z
-x,-y,-z
x,-y,1/2+z
1/2+x,1/2+y,z
1/2-x,1/2+y,1/2-z
1/2-x,1/2-y,-z
1/2+x,1/2-y,1/2+z
loop_
_atom_site_type_symbol
_atom_site_label
_atom_site_fract_x
_atom_site_fract_y
_atom_site_fract_z
Si Si1 0.478101 0.545384 0.649789
Si Si2 0.370770 0.721435 0.026808
Si Si3 0.462284 0.895711 0.159477
Si Si4 0.141381 0.713302 0.779081
Si Si5 0.746256 0.111218 0.114803
Si Si6 0.433847 0.433523 0.888514
O O1 0.500000 0.546041 0.750000
O O2 0.649901 0.581218 0.519918
O O3 0.523178 0.489416 0.597831
O O4 0.237503 0.566524 0.747853
O O5 0.377867 0.748491 0.125036
O O6 0.254211 0.669063 0.092633
O O7 0.250000 0.750000 0.000000
O O8 0.614335 0.712409 0.875145
O O9 0.500000 0.886473 0.250000
O O10 0.410463 0.840354 0.150149
O O11 0.682792 0.918306 0.015158
O O12 0.000000 0.723163 0.750000
O O13 0.500000 0.094990 0.250000
O O14 0.909899 0.100290 0.123071
O O15 0.500000 0.430241 0.750000
#
# Coordination Sequence:
#
# PCOD9304639 Si02
#       6
#     8   8   8   8   8   8
#     4  11  26  43  70  99 133 184 226 279 347 406
#     4  12  26  45  68 104 136 181 233 283 345 410
#     4  11  23  45  71  96 137 182 228 276 340 415
#     4  11  24  45  70  99 136 184 230 282 344 408
#     4  12  26  44  66 102 139 178 225 287 345 399
#     4  11  27  44  68 104 136 178 233 282 338 411
#
# _framework density 20.103904
#
# number of rings (size 3 to 8) (size 9 to 14) (size 15 to 20)
#    0.000    0.667    3.333    3.500    7.000    3.333 
#    0.000    0.000    0.000    0.000    0.000    0.000 
#    0.000    0.000    0.000    0.000    0.000    0.000 
#
# Total GULP energy -134084.395907 kJ/mol
# GULP energy per Si atom -5586.849829 kJ/mol
# Density = 2.005815 g / cm^3
# Si number density = 20.103904 Si / 1000 Ang^3
#
#
#
# Elastic Constant Matrix: (Units=GPa)
#
#
# Indices 1 2 3 4 5 6 
#
# 1 69.0150 26.9557 33.8865 0.0000 -7.8264 0.0000
# 2 26.9557 109.3279 44.3116 0.0000 5.4954 0.0000
# 3 33.8865 44.3116 162.3548 0.0000 -20.7649 0.0000
# 4 0.0000 0.0000 0.0000 39.1763 0.0000 16.6195
# 5 -7.8264 5.4954 -20.7649 0.0000 48.9324 0.0000
# 6 0.0000 0.0000 0.0000 16.6195 0.0000 56.1087
#
#
#
# Elastic Compliance Matrix: (Units=1/GPa)
#
#
# Indices 1 2 3 4 5 6 
#
# 1 0.017230 -0.003381 -0.002403 0.000000 0.002116 0.000000
# 2 -0.003381 0.011241 -0.002742 0.000000 -0.002967 0.000000
# 3 -0.002403 -0.002742 0.007824 0.000000 0.003244 0.000000
# 4 0.000000 0.000000 0.000000 0.029194 0.000000 -0.008647
# 5 0.002116 -0.002967 0.003244 0.000000 0.022484 0.000000
# 6 0.000000 0.000000 0.000000 -0.008647 0.000000 0.020384
#
#
# Mechanical properties :
#
#
# Convention : Reuss Voigt Hill
#
# Bulk Modulus (GPa) = 51.96422 61.22282 56.59352
# Shear Modulus (GPa) = 37.92994 44.54642 41.23818
#
# Velocity S-wave (km/s) = 4.34832 4.71234 4.53399
# Velocity P-wave (km/s) = 7.14944 7.75420 7.45795
#
# Compressibility (1/GPa) = 0.01924401
#
# Stress axis : x y z
#
# Youngs Moduli (GPa) = 58.03924 88.96258 127.81071
#
# Poissons Ratio (x) = 0.30074 0.30712
# Poissons Ratio (y) = 0.19621 0.35043
# Poissons Ratio (z) = 0.13946 0.24391
#
# Static dielectric constant tensor:
#      x y z
#    x 1.664750 0.000000 0.008270 
#    y 0.000000 1.750460 0.000000 
#    z 0.008270 0.000000 1.671750 
# 
# From -- ./inp_files/138922.got.cif
#   From: 2010.05.17/outbox.cif.g08.bks.cpg/sg15_70_cif.got.tgz:138922.got - 2010.06.03 18:47:42.
