data_PCOD9304884
_publ_section_title
;
Structure prediction by ZEFSAII (Michael W. Deem and Ramdas Pophale) SiO2 
 PCOD9304884
Probable space group: C 2/C
;
_chemical_formula_sum "Si O2"
_cell_formula_units_Z 48
_cell_length_a 9.601699
_cell_length_b 25.824905
_cell_length_c 14.075051
_cell_angle_alpha 90.000000
_cell_angle_beta 136.874909
_cell_angle_gamma 90.000000
_cell_volume 2385.803641
_symmetry_space_group_name_H-M "C 2/C"
_symmetry_group_IT_number 15
_symmetry_cell_setting 'monoclinic'
loop_
_space_group_symop_operation_xyz
x,y,z
-x,y,1/2-z
-x,-y,-z
x,-y,1/2+z
1/2+x,1/2+y,z
1/2-x,1/2+y,1/2-z
1/2-x,1/2-y,-z
1/2+x,1/2-y,1/2+z
loop_
_atom_site_type_symbol
_atom_site_label
_atom_site_fract_x
_atom_site_fract_y
_atom_site_fract_z
Si Si1 0.601004 0.465180 0.469266
Si Si2 0.258023 0.629529 0.215466
Si Si3 0.549991 0.183619 0.934082
Si Si4 0.899280 0.858731 0.303477
Si Si5 0.939769 0.801971 0.511044
Si Si6 0.500000 0.464059 0.750000
Si Si7 0.000000 0.412208 0.750000
O O1 0.500000 0.500000 0.500000
O O2 0.463418 0.415289 0.374230
O O3 0.616905 0.499858 0.382881
O O4 0.814841 0.445572 0.616339
O O5 0.178972 0.658436 0.083448
O O6 0.431355 0.661877 0.354879
O O7 0.347991 0.573979 0.230248
O O8 0.080943 0.621762 0.203459
O O9 0.504058 0.242823 0.940022
O O10 0.343290 0.151059 0.821194
O O11 0.702516 0.188117 0.920181
O O12 0.978217 0.818419 0.422079
O O13 0.000000 0.851918 0.250000
#
# Coordination Sequence:
#
# PCOD9304884 Si02
#       7
#     8   8   8   8   8   4   4
#     4  12  26  47  68 102 139 181 235 288 345 414
#     4  12  24  45  69 104 138 181 230 285 347 412
#     4  11  25  43  76 103 135 190 232 283 343 409
#     4  12  25  45  67 106 146 177 232 294 342 418
#     4  11  23  48  70 102 143 182 235 283 340 419
#     4  12  24  46  72  97 137 176 232 288 334 412
#     4  12  26  46  70  93 145 182 220 290 354 404
#
# _framework density 20.119007
#
# number of rings (size 3 to 8) (size 9 to 14) (size 15 to 20)
#    0.000    0.333    5.833    2.500    0.000    5.333 
#    3.000    0.000    0.000    0.000    0.000    0.000 
#    0.000    0.000    0.000    0.000    0.000    0.000 
#
# Total GULP energy -134248.591599 kJ/mol
# GULP energy per Si atom -5593.691317 kJ/mol
# Density = 2.007322 g / cm^3
# Si number density = 20.119007 Si / 1000 Ang^3
#
#
#
# Elastic Constant Matrix: (Units=GPa)
#
#
# Indices 1 2 3 4 5 6 
#
# 1 114.5755 58.2262 38.1187 0.0000 -7.2886 0.0000
# 2 58.2262 114.8232 51.8566 0.0000 0.4564 0.0000
# 3 38.1187 51.8566 127.2112 0.0000 -1.6180 0.0000
# 4 0.0000 0.0000 0.0000 -17.9581 0.0000 6.7765
# 5 -7.2886 0.4564 -1.6180 0.0000 38.8070 0.0000
# 6 0.0000 0.0000 0.0000 6.7765 0.0000 17.3429
#
#
#
# Elastic Compliance Matrix: (Units=1/GPa)
#
#
# Indices 1 2 3 4 5 6 
#
# 1 0.012147 -0.005562 -0.001343 0.000000 0.002291 0.000000
# 2 -0.005562 0.013225 -0.003742 0.000000 -0.001356 0.000000
# 3 -0.001343 -0.003742 0.009791 0.000000 0.000200 0.000000
# 4 0.000000 0.000000 0.000000 -0.048530 0.000000 0.018962
# 5 0.002291 -0.001356 0.000200 0.000000 0.026223 0.000000
# 6 0.000000 0.000000 0.000000 0.018962 0.000000 0.050251
#
#
# Mechanical properties :
#
#
# Convention : Reuss Voigt Hill
#
# Bulk Modulus (GPa) = 72.10315 72.55699 72.33007
# Shear Modulus (GPa) = 56.16409 21.53225 38.84817
#
# Velocity S-wave (km/s) = 5.28929 3.27501 4.39899
# Velocity P-wave (km/s) = 8.55676 7.10233 7.86325
#
# Compressibility (1/GPa) = 0.01386902
#
# Stress axis : x y z
#
# Youngs Moduli (GPa) = 82.32365 75.61598 102.13226
#
# Poissons Ratio (x) = 0.42059 0.13720
# Poissons Ratio (y) = 0.45790 0.38213
# Poissons Ratio (z) = 0.11059 0.28292
#
# Static dielectric constant tensor:
#      x y z
#    x 1.713440 0.000000 -0.003800 
#    y 0.000000 1.684370 0.000000 
#    z -0.003800 0.000000 1.716130 
# 
# From -- ./inp_files/139083.got.cif
#   From: 2010.05.17/outbox.cif.g08.bks.cpg/sg15_70_cif.got.tgz:139083.got - 2010.06.03 18:47:42.
