data_PCOD9304154
_publ_section_title
;
Structure prediction by ZEFSAII (Michael W. Deem and Ramdas Pophale) SiO2 
 PCOD9304154
Probable space group: C 2/C
;
_chemical_formula_sum "Si O2"
_cell_formula_units_Z 48
_cell_length_a 11.921214
_cell_length_b 9.700850
_cell_length_c 18.381748
_cell_angle_alpha 90.000000
_cell_angle_beta 70.936486
_cell_angle_gamma 90.000000
_cell_volume 2009.190331
_symmetry_space_group_name_H-M "C 2/C"
_symmetry_group_IT_number 15
_symmetry_cell_setting 'monoclinic'
loop_
_space_group_symop_operation_xyz
x,y,z
-x,y,1/2-z
-x,-y,-z
x,-y,1/2+z
1/2+x,1/2+y,z
1/2-x,1/2+y,1/2-z
1/2-x,1/2-y,-z
1/2+x,1/2-y,1/2+z
loop_
_atom_site_type_symbol
_atom_site_label
_atom_site_fract_x
_atom_site_fract_y
_atom_site_fract_z
Si Si1 0.161518 0.592075 0.780393
Si Si2 0.595152 0.467196 0.595995
Si Si3 0.425424 0.787157 0.504135
Si Si4 0.500000 0.325489 0.750000
Si Si5 0.597772 0.327004 0.345041
Si Si6 0.657913 0.923534 0.453408
Si Si7 0.500000 0.865809 0.750000
O O1 0.079742 0.725387 0.782411
O O2 0.293839 0.629987 0.728553
O O3 0.149333 0.557101 0.867698
O O4 0.110630 0.468194 0.740987
O O5 0.606254 0.329802 0.546004
O O6 0.583411 0.418237 0.681963
O O7 0.470923 0.542098 0.608462
O O8 0.702832 0.572032 0.560640
O O9 0.359760 0.754915 0.593439
O O10 0.389699 0.942960 0.492279
O O11 0.567260 0.799465 0.488024
O O12 0.505965 0.234862 0.317961
#
# Coordination Sequence:
#
# PCOD9304154 Si02
#       7
#     8   8   8   4   8   8   4
#     4  11  24  44  73 100 136 189 231 298 351 415
#     4  12  25  42  68 105 139 188 236 290 357 424
#     4  11  25  45  68  99 142 184 237 291 357 426
#     4  11  23  42  70 102 135 181 248 282 352 425
#     4  12  26  43  70 103 143 182 234 296 355 419
#     4  11  23  45  71  95 141 185 232 298 352 415
#     4  11  25  44  68 102 139 181 240 288 354 419
#
# _framework density 23.890222000000001
#
# number of rings (size 3 to 8) (size 9 to 14) (size 15 to 20)
#    0.000    0.667    3.333    4.500    2.333    3.333 
#    0.000    0.000    0.000    0.000    0.000    0.000 
#    0.000    0.000    0.000    0.000    0.000    0.000 
#
# Total GULP energy -134251.628443 kJ/mol
# GULP energy per Si atom -5593.817852 kJ/mol
# Density = 2.383585 g / cm^3
# Si number density = 23.890222 Si / 1000 Ang^3
#
#
#
# Elastic Constant Matrix: (Units=GPa)
#
#
# Indices 1 2 3 4 5 6 
#
# 1 88.4726 24.1651 17.8147 0.0000 -19.5694 0.0000
# 2 24.1651 49.3756 13.5635 0.0000 -1.0428 0.0000
# 3 17.8147 13.5635 86.9755 0.0000 -8.8544 0.0000
# 4 0.0000 0.0000 0.0000 41.5141 0.0000 2.7268
# 5 -19.5694 -1.0428 -8.8544 0.0000 36.5043 0.0000
# 6 0.0000 0.0000 0.0000 2.7268 0.0000 24.8253
#
#
#
# Elastic Compliance Matrix: (Units=1/GPa)
#
#
# Indices 1 2 3 4 5 6 
#
# 1 0.015120 -0.006897 -0.001247 0.000000 0.007606 0.000000
# 2 -0.006897 0.024307 -0.002752 0.000000 -0.003670 0.000000
# 3 -0.001247 -0.002752 0.012412 0.000000 0.002264 0.000000
# 4 0.000000 0.000000 0.000000 0.024263 0.000000 -0.002665
# 5 0.007606 -0.003670 0.002264 0.000000 0.031916 0.000000
# 6 0.000000 0.000000 0.000000 -0.002665 0.000000 0.040574
#
#
# Mechanical properties :
#
#
# Convention : Reuss Voigt Hill
#
# Bulk Modulus (GPa) = 33.27967 37.32337 35.30152
# Shear Modulus (GPa) = 27.71622 31.85410 29.78516
#
# Velocity S-wave (km/s) = 3.40979 3.65547 3.53477
# Velocity P-wave (km/s) = 5.42796 5.78562 5.60964
#
# Compressibility (1/GPa) = 0.03004837
#
# Stress axis : x y z
#
# Youngs Moduli (GPa) = 66.13645 41.14093 80.56414
#
# Poissons Ratio (x) = 0.28374 0.10047
# Poissons Ratio (y) = 0.45613 0.22168
# Poissons Ratio (z) = 0.08248 0.11320
#
# Static dielectric constant tensor:
#      x y z
#    x 1.952030 0.000000 0.024560 
#    y 0.000000 1.951930 0.000000 
#    z 0.024560 0.000000 1.875060 
# 
# From -- ./inp_files/196542.got.cif
#   From: 2010.05.17/outbox.cif.g08.bks.cpg/sg15_99_cif.got.tgz:196542.got - 2010.06.03 18:47:42.
