data_PCOD9304296
_publ_section_title
;
Structure prediction by ZEFSAII (Michael W. Deem and Ramdas Pophale) SiO2 
 PCOD9304296
Probable space group: C 2/C
;
_chemical_formula_sum "Si O2"
_cell_formula_units_Z 56
_cell_length_a 16.810359
_cell_length_b 8.639971
_cell_length_c 19.408434
_cell_angle_alpha 90.000000
_cell_angle_beta 111.581581
_cell_angle_gamma 90.000000
_cell_volume 2621.280989
_symmetry_space_group_name_H-M "C 2/C"
_symmetry_group_IT_number 15
_symmetry_cell_setting 'monoclinic'
loop_
_space_group_symop_operation_xyz
x,y,z
-x,y,1/2-z
-x,-y,-z
x,-y,1/2+z
1/2+x,1/2+y,z
1/2-x,1/2+y,1/2-z
1/2-x,1/2-y,-z
1/2+x,1/2-y,1/2+z
loop_
_atom_site_type_symbol
_atom_site_label
_atom_site_fract_x
_atom_site_fract_y
_atom_site_fract_z
Si Si1 0.567535 0.897879 0.719872
Si Si2 0.306715 0.910898 0.164418
Si Si3 0.729833 0.581738 0.022672
Si Si4 0.932380 0.917075 0.927983
Si Si5 0.762034 0.058359 0.120282
Si Si6 0.155098 0.915903 0.221001
Si Si7 0.063192 0.448203 0.079897
O O1 0.500000 0.822937 0.750000
O O2 0.636772 0.765821 0.724348
O O3 0.605130 0.047701 0.770954
O O4 0.533007 0.960205 0.637491
O O5 0.277070 0.739968 0.135296
O O6 0.238892 0.952859 0.202594
O O7 0.303804 0.012875 0.094417
O O8 0.652078 0.582223 0.051253
O O9 0.750000 0.750000 0.000000
O O10 0.713366 0.480768 0.950018
O O11 0.946307 0.736534 0.915788
O O12 0.917856 0.008717 0.851298
O O13 0.000000 0.000000 0.000000
O O14 0.823673 0.980191 0.196682
O O15 0.663464 0.997986 0.099480
O O16 0.000000 0.500000 0.000000
#
# Coordination Sequence:
#
# PCOD9304296 Si02
#       7
#     8   8   8   8   8   8   8
#     4  12  27  45  73 106 143 180 234 300 357 414
#     4  11  23  43  69 100 138 183 234 280 349 424
#     4  11  24  41  69 101 134 181 235 289 340 414
#     4  11  26  46  70  99 142 184 231 288 359 424
#     4  12  24  43  72 101 137 185 242 286 342 430
#     4  11  23  44  73  98 134 189 234 279 354 428
#     4  12  26  43  70 101 144 185 228 294 369 411
#
# _framework density 21.363600000000002
#
# number of rings (size 3 to 8) (size 9 to 14) (size 15 to 20)
#    0.000    0.571    4.286    3.000    6.000    4.571 
#    0.000    1.429    0.000    0.000    0.000    0.000 
#    0.000    0.000    0.000    0.000    0.000    0.000 
#
# Total GULP energy -156357.088096 kJ/mol
# GULP energy per Si atom -5584.181718 kJ/mol
# Density = 2.131498 g / cm^3
# Si number density = 21.363600 Si / 1000 Ang^3
#
#
#
# Elastic Constant Matrix: (Units=GPa)
#
#
# Indices 1 2 3 4 5 6 
#
# 1 39.4419 17.4388 28.8930 0.0000 1.8425 0.0000
# 2 17.4388 91.7725 31.6198 0.0000 10.3128 0.0000
# 3 28.8930 31.6198 178.0770 0.0000 -0.4729 0.0000
# 4 0.0000 0.0000 0.0000 42.9237 0.0000 -1.4973
# 5 1.8425 10.3128 -0.4729 0.0000 38.0518 0.0000
# 6 0.0000 0.0000 0.0000 -1.4973 0.0000 23.5702
#
#
#
# Elastic Compliance Matrix: (Units=1/GPa)
#
#
# Indices 1 2 3 4 5 6 
#
# 1 0.030312 -0.004287 -0.004158 0.000000 -0.000357 0.000000
# 2 -0.004287 0.012609 -0.001552 0.000000 -0.003229 0.000000
# 3 -0.004158 -0.001552 0.006568 0.000000 0.000704 0.000000
# 4 0.000000 0.000000 0.000000 0.023349 0.000000 0.001483
# 5 -0.000357 -0.003229 0.000704 0.000000 0.027181 0.000000
# 6 0.000000 0.000000 0.000000 0.001483 0.000000 0.042521
#
#
# Mechanical properties :
#
#
# Convention : Reuss Voigt Hill
#
# Bulk Modulus (GPa) = 33.90467 51.68828 42.79647
# Shear Modulus (GPa) = 29.00841 36.33179 32.67010
#
# Velocity S-wave (km/s) = 3.68889 4.12836 3.91479
# Velocity P-wave (km/s) = 5.83512 6.85358 6.36475
#
# Compressibility (1/GPa) = 0.02949446
#
# Stress axis : x y z
#
# Youngs Moduli (GPa) = 32.99048 79.31044 152.26351
#
# Poissons Ratio (x) = 0.34002 0.63308
# Poissons Ratio (y) = 0.14144 0.23628
# Poissons Ratio (z) = 0.13717 0.12307
#
# Static dielectric constant tensor:
#      x y z
#    x 1.811890 0.000000 0.026960 
#    y 0.000000 1.765930 0.000000 
#    z 0.026960 0.000000 1.803030 
# 
# From -- ./inp_files/209613.got.cif
#   From: 2010.05.17/outbox.cif.g08.bks.cpg/sg15_105_cif.got.tgz:209613.got - 2010.06.03 18:47:42.
