data_PCOD9304794
_publ_section_title
;
Structure prediction by ZEFSAII (Michael W. Deem and Ramdas Pophale) SiO2 
 PCOD9304794
Probable space group: C 2/C
;
_chemical_formula_sum "Si O2"
_cell_formula_units_Z 32
_cell_length_a 19.589292
_cell_length_b 9.405868
_cell_length_c 12.242834
_cell_angle_alpha 90.000000
_cell_angle_beta 144.544194
_cell_angle_gamma 90.000000
_cell_volume 1308.529754
_symmetry_space_group_name_H-M "C 2/C"
_symmetry_group_IT_number 15
_symmetry_cell_setting 'monoclinic'
loop_
_space_group_symop_operation_xyz
x,y,z
-x,y,1/2-z
-x,-y,-z
x,-y,1/2+z
1/2+x,1/2+y,z
1/2-x,1/2+y,1/2-z
1/2-x,1/2-y,-z
1/2+x,1/2-y,1/2+z
loop_
_atom_site_type_symbol
_atom_site_label
_atom_site_fract_x
_atom_site_fract_y
_atom_site_fract_z
Si Si1 0.500000 0.572652 0.250000
Si Si2 0.500000 0.898901 0.750000
Si Si3 0.634609 0.325349 0.300568
Si Si4 0.770257 0.789921 0.399519
Si Si5 0.719288 0.006209 0.669445
O O1 0.583588 0.465727 0.292246
O O2 0.591929 0.672739 0.430145
O O3 0.461597 0.795004 0.800054
O O4 0.391556 0.984227 0.557070
O O5 0.750000 0.250000 0.500000
O O6 0.681184 0.388894 0.248840
O O7 0.750000 0.750000 0.500000
O O8 0.699794 0.928728 0.264100
O O9 0.736570 0.654259 0.281764
#
# Coordination Sequence:
#
# PCOD9304794 Si02
#       5
#     4   4   8   8   8
#     4  11  23  46  76 102 162 194 248 320 376 440
#     4   9  21  42  74 108 142 196 252 310 380 444
#     4   9  20  40  74 106 143 189 256 306 376 442
#     4  12  28  47  73 113 153 197 258 314 372 461
#     4  11  25  45  73 104 154 197 251 312 376 446
#
# _framework density 24.454929
#
# number of rings (size 3 to 8) (size 9 to 14) (size 15 to 20)
#    0.000    1.500    2.500    0.750   10.500    3.000 
#    0.000    3.750    0.000    0.000    0.000    0.000 
#    0.000    0.000    0.000    0.000    0.000    0.000 
#
# Total GULP energy -89311.649555 kJ/mol
# GULP energy per Si atom -5581.978097 kJ/mol
# Density = 2.439927 g / cm^3
# Si number density = 24.454929 Si / 1000 Ang^3
#
#
#
# Elastic Constant Matrix: (Units=GPa)
#
#
# Indices 1 2 3 4 5 6 
#
# 1 81.3801 43.6355 35.5835 0.0000 -6.5446 0.0000
# 2 43.6355 126.0374 22.0496 0.0000 -16.1961 0.0000
# 3 35.5835 22.0496 99.8687 0.0000 -12.5130 0.0000
# 4 0.0000 0.0000 0.0000 41.5652 0.0000 6.9624
# 5 -6.5446 -16.1961 -12.5130 0.0000 32.8905 0.0000
# 6 0.0000 0.0000 0.0000 6.9624 0.0000 28.3665
#
#
#
# Elastic Compliance Matrix: (Units=1/GPa)
#
#
# Indices 1 2 3 4 5 6 
#
# 1 0.017236 -0.005210 -0.005127 0.000000 -0.001086 0.000000
# 2 -0.005210 0.010240 0.000102 0.000000 0.004045 0.000000
# 3 -0.005127 0.000102 0.012281 0.000000 0.003703 0.000000
# 4 0.000000 0.000000 0.000000 0.025090 0.000000 -0.006158
# 5 -0.001086 0.004045 0.003703 0.000000 0.033588 0.000000
# 6 0.000000 0.000000 0.000000 -0.006158 0.000000 0.036764
#
#
# Mechanical properties :
#
#
# Convention : Reuss Voigt Hill
#
# Bulk Modulus (GPa) = 51.84701 56.64707 54.24704
# Shear Modulus (GPa) = 30.84550 34.29893 32.57221
#
# Velocity S-wave (km/s) = 3.55536 3.74911 3.65352
# Velocity P-wave (km/s) = 6.17262 6.47729 6.32679
#
# Compressibility (1/GPa) = 0.01928751
#
# Stress axis : x y z
#
# Youngs Moduli (GPa) = 58.01809 97.65883 81.42483
#
# Poissons Ratio (x) = 0.50880 0.41747
# Poissons Ratio (y) = 0.30227 -0.00833
# Poissons Ratio (z) = 0.29746 -0.00999
#
# Static dielectric constant tensor:
#      x y z
#    x 2.112860 0.000000 -0.059800 
#    y 0.000000 1.951880 0.000000 
#    z -0.059800 0.000000 1.945590 
# 
# From -- ./inp_files/102572.got.cif
#   From: 2010.05.17/outbox.cif.g08.bks.cpg/sg15_52_cif.got.tgz:102572.got - 2010.06.03 18:47:42.
