data_PCOD9304314
_publ_section_title
;
Structure prediction by ZEFSAII (Michael W. Deem and Ramdas Pophale) SiO2 
 PCOD9304314
Probable space group: C 2/C
;
_chemical_formula_sum "Si O2"
_cell_formula_units_Z 44
_cell_length_a 8.767618
_cell_length_b 16.559718
_cell_length_c 17.706533
_cell_angle_alpha 90.000000
_cell_angle_beta 60.344743
_cell_angle_gamma 90.000000
_cell_volume 2234.070847
_symmetry_space_group_name_H-M "C 2/C"
_symmetry_group_IT_number 15
_symmetry_cell_setting 'monoclinic'
loop_
_space_group_symop_operation_xyz
x,y,z
-x,y,1/2-z
-x,-y,-z
x,-y,1/2+z
1/2+x,1/2+y,z
1/2-x,1/2+y,1/2-z
1/2-x,1/2-y,-z
1/2+x,1/2-y,1/2+z
loop_
_atom_site_type_symbol
_atom_site_label
_atom_site_fract_x
_atom_site_fract_y
_atom_site_fract_z
Si Si1 0.373051 0.673260 0.483282
Si Si2 0.846768 0.543223 0.346981
Si Si3 0.185431 0.480661 0.991138
Si Si4 0.259716 0.220575 0.410118
Si Si5 0.500000 0.663840 0.750000
Si Si6 0.952671 0.069699 0.616047
O O1 0.250000 0.750000 0.500000
O O2 0.284347 0.603767 0.453431
O O3 0.568065 0.706259 0.421781
O O4 0.400777 0.630484 0.559926
O O5 0.872543 0.480880 0.407767
O O6 0.847518 0.632521 0.381596
O O7 0.657070 0.513573 0.363898
O O8 0.000000 0.536839 0.250000
O O9 0.340804 0.546657 0.941166
O O10 0.000000 0.500000 0.000000
O O11 0.250000 0.250000 0.500000
O O12 0.367312 0.281645 0.331193
O O13 0.412932 0.608932 0.706525
#
# Coordination Sequence:
#
# PCOD9304314 Si02
#       6
#     8   8   8   8   4   8
#     4  11  24  42  70 100 137 179 229 289 345 405
#     4  11  23  43  69  95 139 175 223 282 344 406
#     4  11  24  43  71  97 132 189 229 272 348 414
#     4  12  23  45  70  98 137 182 226 283 347 403
#     4  12  26  38  76 100 132 180 234 278 354 408
#     4  11  24  47  66 100 141 180 228 287 341 413
#
# _framework density 19.694989
#
# number of rings (size 3 to 8) (size 9 to 14) (size 15 to 20)
#    0.000    0.727    6.364    1.091    7.636    1.455 
#    0.000    0.000    0.000    0.000    0.000    0.000 
#    0.000    0.000    0.000    0.000    0.000    0.000 
#
# Total GULP energy -122563.259741 kJ/mol
# GULP energy per Si atom -5571.057261 kJ/mol
# Density = 1.965016 g / cm^3
# Si number density = 19.694989 Si / 1000 Ang^3
#
#
#
# Elastic Constant Matrix: (Units=GPa)
#
#
# Indices 1 2 3 4 5 6 
#
# 1 140.3664 43.8728 40.3314 0.0000 -12.7659 0.0000
# 2 43.8728 109.1438 35.6906 0.0000 1.9970 0.0000
# 3 40.3314 35.6906 120.4463 0.0000 -10.8861 0.0000
# 4 0.0000 0.0000 0.0000 21.8650 0.0000 -5.1047
# 5 -12.7659 1.9970 -10.8861 0.0000 23.2448 0.0000
# 6 0.0000 0.0000 0.0000 -5.1047 0.0000 40.1831
#
#
#
# Elastic Compliance Matrix: (Units=1/GPa)
#
#
# Indices 1 2 3 4 5 6 
#
# 1 0.008992 -0.003147 -0.001679 0.000000 0.004423 0.000000
# 2 -0.003147 0.011374 -0.002674 0.000000 -0.003958 0.000000
# 3 -0.001679 -0.002674 0.010019 0.000000 0.004000 0.000000
# 4 0.000000 0.000000 0.000000 0.047133 0.000000 0.005988
# 5 0.004423 -0.003958 0.004000 0.000000 0.047662 0.000000
# 6 0.000000 0.000000 0.000000 0.005988 0.000000 0.025647
#
#
# Mechanical properties :
#
#
# Convention : Reuss Voigt Hill
#
# Bulk Modulus (GPa) = 64.99807 67.74956 66.37382
# Shear Modulus (GPa) = 29.24740 33.72936 31.48838
#
# Velocity S-wave (km/s) = 3.85777 4.14283 4.00284
# Velocity P-wave (km/s) = 7.27442 7.57351 7.42547
#
# Compressibility (1/GPa) = 0.01538507
#
# Stress axis : x y z
#
# Youngs Moduli (GPa) = 111.20584 87.91965 99.81393
#
# Poissons Ratio (x) = 0.27664 0.16759
# Poissons Ratio (y) = 0.34992 0.26694
# Poissons Ratio (z) = 0.18671 0.23513
#
# Static dielectric constant tensor:
#      x y z
#    x 1.779590 0.000000 0.017310 
#    y 0.000000 1.799530 0.000000 
#    z 0.017310 0.000000 1.738870 
# 
# From -- ./inp_files/189152.got.cif
#   From: 2010.05.17/outbox.cif.g08.bks.cpg/sg15_95_cif.got.tgz:189152.got - 2010.06.03 18:47:42.
