data_PCOD9304496
_publ_section_title
;
Structure prediction by ZEFSAII (Michael W. Deem and Ramdas Pophale) SiO2 
 PCOD9304496
Probable space group: C 2/C
;
_chemical_formula_sum "Si O2"
_cell_formula_units_Z 44
_cell_length_a 27.860408
_cell_length_b 6.046354
_cell_length_c 12.930464
_cell_angle_alpha 90.000000
_cell_angle_beta 119.851260
_cell_angle_gamma 90.000000
_cell_volume 1889.186165
_symmetry_space_group_name_H-M "C 2/C"
_symmetry_group_IT_number 15
_symmetry_cell_setting 'monoclinic'
loop_
_space_group_symop_operation_xyz
x,y,z
-x,y,1/2-z
-x,-y,-z
x,-y,1/2+z
1/2+x,1/2+y,z
1/2-x,1/2+y,1/2-z
1/2-x,1/2-y,-z
1/2+x,1/2-y,1/2+z
loop_
_atom_site_type_symbol
_atom_site_label
_atom_site_fract_x
_atom_site_fract_y
_atom_site_fract_z
Si Si1 0.000000 0.577841 0.750000
Si Si2 0.376334 0.061631 0.111982
Si Si3 0.512337 0.748120 0.055311
Si Si4 0.868423 0.813303 0.883990
Si Si5 0.317760 0.701834 0.921814
Si Si6 0.206942 0.487413 0.801610
O O1 0.942267 0.446762 0.708521
O O2 0.013154 0.734370 0.859623
O O3 0.335247 0.125729 0.162009
O O4 0.349061 0.829173 0.045841
O O5 0.371494 0.201829 0.000965
O O6 0.578111 0.746873 0.122803
O O7 0.500000 0.500000 0.000000
O O8 0.500000 0.000000 0.000000
O O9 0.819602 0.719568 0.761819
O O10 0.862307 0.067396 0.903311
O O11 0.268792 0.538438 0.907127
O O12 0.291756 0.859180 0.805999
#
# Coordination Sequence:
#
# PCOD9304496 Si02
#       6
#     4   8   8   8   8   8
#     4  12  24  48  74 108 146 204 238 308 390 436
#     4  11  25  43  70 103 140 182 245 291 367 447
#     4  12  27  49  75 107 152 199 254 314 368 453
#     4  11  24  44  68 101 139 183 237 300 361 436
#     4  11  24  45  68 102 138 186 237 301 363 437
#     4  11  23  44  70  97 142 183 233 294 370 427
#
# _framework density 23.290451999999998
#
# number of rings (size 3 to 8) (size 9 to 14) (size 15 to 20)
#    0.000    0.727    5.455    1.636    2.545    2.909 
#    6.545    0.000    0.000    0.000    0.000    0.000 
#    0.000    0.000    0.000    0.000    0.000    0.000 
#
# Total GULP energy -122616.725935 kJ/mol
# GULP energy per Si atom -5573.487543 kJ/mol
# Density = 2.323744 g / cm^3
# Si number density = 23.290452 Si / 1000 Ang^3
#
#
#
# Elastic Constant Matrix: (Units=GPa)
#
#
# Indices 1 2 3 4 5 6 
#
# 1 114.5356 -7.0861 12.7198 0.0000 17.0918 0.0000
# 2 -7.0861 67.8317 10.1324 0.0000 5.3711 0.0000
# 3 12.7198 10.1324 55.4554 0.0000 6.8951 0.0000
# 4 0.0000 0.0000 0.0000 14.5290 0.0000 1.1944
# 5 17.0918 5.3711 6.8951 0.0000 51.5460 0.0000
# 6 0.0000 0.0000 0.0000 1.1944 0.0000 29.9717
#
#
#
# Elastic Compliance Matrix: (Units=1/GPa)
#
#
# Indices 1 2 3 4 5 6 
#
# 1 0.009511 0.001546 -0.002087 0.000000 -0.003036 0.000000
# 2 0.001546 0.015484 -0.002969 0.000000 -0.001729 0.000000
# 3 -0.002087 -0.002969 0.019249 0.000000 -0.001574 0.000000
# 4 0.000000 0.000000 0.000000 0.069054 0.000000 -0.002752
# 5 -0.003036 -0.001729 -0.001574 0.000000 0.020797 0.000000
# 6 0.000000 0.000000 0.000000 -0.002752 0.000000 0.033475
#
#
# Mechanical properties :
#
#
# Convention : Reuss Voigt Hill
#
# Bulk Modulus (GPa) = 26.86336 29.92831 28.39584
# Shear Modulus (GPa) = 26.73817 34.01309 30.37563
#
# Velocity S-wave (km/s) = 3.39194 3.82565 3.61530
# Velocity P-wave (km/s) = 5.18647 5.69140 5.44479
#
# Compressibility (1/GPa) = 0.03722542
#
# Stress axis : x y z
#
# Youngs Moduli (GPa) = 105.13833 64.58199 51.95021
#
# Poissons Ratio (x) = -0.09982 0.10840
# Poissons Ratio (y) = -0.16251 0.15423
# Poissons Ratio (z) = 0.21938 0.19173
#
# Static dielectric constant tensor:
#      x y z
#    x 1.906000 0.000000 0.015720 
#    y 0.000000 2.002790 0.000000 
#    z 0.015720 0.000000 1.898460 
# 
# From -- ./inp_files/175498.got.cif
#   From: 2010.05.17/outbox.cif.g08.bks.cpg/sg15_88_cif.got.tgz:175498.got - 2010.06.03 18:47:42.
