data_PCOD9304471
_publ_section_title
;
Structure prediction by ZEFSAII (Michael W. Deem and Ramdas Pophale) SiO2 
 PCOD9304471
Probable space group: C 2/C
;
_chemical_formula_sum "Si O2"
_cell_formula_units_Z 48
_cell_length_a 14.166949
_cell_length_b 12.584747
_cell_length_c 12.899687
_cell_angle_alpha 90.000000
_cell_angle_beta 81.532123
_cell_angle_gamma 90.000000
_cell_volume 2274.780881
_symmetry_space_group_name_H-M "C 2/C"
_symmetry_group_IT_number 15
_symmetry_cell_setting 'monoclinic'
loop_
_space_group_symop_operation_xyz
x,y,z
-x,y,1/2-z
-x,-y,-z
x,-y,1/2+z
1/2+x,1/2+y,z
1/2-x,1/2+y,1/2-z
1/2-x,1/2-y,-z
1/2+x,1/2-y,1/2+z
loop_
_atom_site_type_symbol
_atom_site_label
_atom_site_fract_x
_atom_site_fract_y
_atom_site_fract_z
Si Si1 0.000302 0.725611 0.474681
Si Si2 0.706641 0.660958 0.304312
Si Si3 0.424071 0.364002 0.856182
Si Si4 0.400607 0.094376 0.209454
Si Si5 0.667426 0.890964 0.403619
Si Si6 0.870639 0.925238 0.480538
O O1 0.048508 0.766458 0.573613
O O2 0.076532 0.681692 0.382012
O O3 0.924053 0.632876 0.509959
O O4 0.939216 0.825991 0.443255
O O5 0.674261 0.646175 0.191295
O O6 0.818282 0.639364 0.296470
O O7 0.681738 0.780270 0.340929
O O8 0.649178 0.584499 0.392875
O O9 0.500000 0.372265 0.750000
O O10 0.416240 0.467262 0.930155
O O11 0.500000 0.072971 0.250000
O O12 0.359002 0.987889 0.165769
O O13 0.766171 0.911319 0.447056
#
# Coordination Sequence:
#
# PCOD9304471 Si02
#       6
#     8   8   8   8   8   8
#     4  11  25  43  69 100 140 183 233 288 340 418
#     4  11  25  45  70 103 140 184 227 293 350 405
#     4  12  24  45  73 104 137 183 234 286 352 403
#     4  12  26  45  69 105 136 187 238 279 352 419
#     4  11  23  44  69  95 143 182 226 293 345 410
#     4  11  23  45  70 103 138 179 235 287 344 413
#
# _framework density 21.100933999999999
#
# number of rings (size 3 to 8) (size 9 to 14) (size 15 to 20)
#    0.000    0.667    5.000    5.000    2.333    4.000 
#    0.000    0.000    0.000    0.000    0.000    0.000 
#    0.000    0.000    0.000    0.000    0.000    0.000 
#
# Total GULP energy -134209.367386 kJ/mol
# GULP energy per Si atom -5592.056974 kJ/mol
# Density = 2.105291 g / cm^3
# Si number density = 21.100934 Si / 1000 Ang^3
#
#
#
# Elastic Constant Matrix: (Units=GPa)
#
#
# Indices 1 2 3 4 5 6 
#
# 1 88.8586 19.8256 30.9967 0.0000 16.9641 0.0000
# 2 19.8256 42.9112 40.2085 0.0000 -1.8430 0.0000
# 3 30.9967 40.2085 97.8710 0.0000 6.8529 0.0000
# 4 0.0000 0.0000 0.0000 15.9612 0.0000 0.1232
# 5 16.9641 -1.8430 6.8529 0.0000 52.2231 0.0000
# 6 0.0000 0.0000 0.0000 0.1232 0.0000 30.3914
#
#
#
# Elastic Compliance Matrix: (Units=1/GPa)
#
#
# Indices 1 2 3 4 5 6 
#
# 1 0.013873 -0.004499 -0.002239 0.000000 -0.004372 0.000000
# 2 -0.004499 0.039961 -0.015334 0.000000 0.004884 0.000000
# 3 -0.002239 -0.015334 0.017373 0.000000 -0.002094 0.000000
# 4 0.000000 0.000000 0.000000 0.062654 0.000000 -0.000254
# 5 -0.004372 0.004884 -0.002094 0.000000 0.021016 0.000000
# 6 0.000000 0.000000 0.000000 -0.000254 0.000000 0.032905
#
#
# Mechanical properties :
#
#
# Convention : Reuss Voigt Hill
#
# Bulk Modulus (GPa) = 36.95238 45.74471 41.34855
# Shear Modulus (GPa) = 20.75136 28.95580 24.85358
#
# Velocity S-wave (km/s) = 3.13938 3.70841 3.43569
# Velocity P-wave (km/s) = 5.53996 6.32949 5.94784
#
# Compressibility (1/GPa) = 0.02706186
#
# Stress axis : x y z
#
# Youngs Moduli (GPa) = 72.08035 25.02453 57.56023
#
# Poissons Ratio (x) = 0.11259 0.12890
# Poissons Ratio (y) = 0.32430 0.88264
# Poissons Ratio (z) = 0.16141 0.38373
#
# Static dielectric constant tensor:
#      x y z
#    x 1.799090 0.000000 0.018670 
#    y 0.000000 1.713220 0.000000 
#    z 0.018670 0.000000 1.765360 
# 
# From -- ./inp_files/151947.got.cif
#   From: 2010.05.17/outbox.cif.g08.bks.cpg/sg15_76_cif.got.tgz:151947.got - 2010.06.03 18:47:42.
