data_PCOD9304343
_publ_section_title
;
Structure prediction by ZEFSAII (Michael W. Deem and Ramdas Pophale) SiO2 
 PCOD9304343
Probable space group: C 2/C
;
_chemical_formula_sum "Si O2"
_cell_formula_units_Z 40
_cell_length_a 8.454017
_cell_length_b 20.175710
_cell_length_c 17.858438
_cell_angle_alpha 90.000000
_cell_angle_beta 143.782378
_cell_angle_gamma 90.000000
_cell_volume 1799.763621
_symmetry_space_group_name_H-M "C 2/C"
_symmetry_group_IT_number 15
_symmetry_cell_setting 'monoclinic'
loop_
_space_group_symop_operation_xyz
x,y,z
-x,y,1/2-z
-x,-y,-z
x,-y,1/2+z
1/2+x,1/2+y,z
1/2-x,1/2+y,1/2-z
1/2-x,1/2-y,-z
1/2+x,1/2-y,1/2+z
loop_
_atom_site_type_symbol
_atom_site_label
_atom_site_fract_x
_atom_site_fract_y
_atom_site_fract_z
Si Si1 0.818621 0.867694 0.249592
Si Si2 0.319119 0.481435 0.357974
Si Si3 0.255962 0.119025 0.215136
Si Si4 0.066868 0.257696 0.630431
Si Si5 0.246931 0.814204 0.050247
O O1 0.494767 0.863731 0.127986
O O2 0.000000 0.891534 0.250000
O O3 0.872117 0.789448 0.276787
O O4 0.908686 0.912956 0.353994
O O5 0.500000 0.500000 0.500000
O O6 0.325595 0.542882 0.301674
O O7 0.000000 0.473421 0.250000
O O8 0.500000 0.117272 0.250000
O O9 0.332857 0.168288 0.312612
O O10 0.016560 0.148424 0.075383
O O11 0.750000 0.250000 0.500000
O O12 0.215273 0.219210 0.619727
O O13 0.250000 0.750000 0.000000
#
# Coordination Sequence:
#
# PCOD9304343 Si02
#       5
#     8   8   8   8   8
#     4  12  26  47  69 101 143 192 237 294 354 424
#     4  11  25  48  75 102 141 192 239 292 366 434
#     4  11  23  43  71 106 138 176 236 289 356 436
#     4  12  23  41  72 103 141 179 229 295 359 421
#     4  12  24  44  69 104 139 183 235 289 356 423
#
# _framework density 22.22514
#
# number of rings (size 3 to 8) (size 9 to 14) (size 15 to 20)
#    0.000    0.400    4.000    6.000    2.800    0.000 
#    3.600    2.000    0.000    0.000    0.000    0.000 
#    0.000    0.000    0.000    0.000    0.000    0.000 
#
# Total GULP energy -111545.442427 kJ/mol
# GULP energy per Si atom -5577.272121 kJ/mol
# Density = 2.217455 g / cm^3
# Si number density = 22.225140 Si / 1000 Ang^3
#
#
#
# Elastic Constant Matrix: (Units=GPa)
#
#
# Indices 1 2 3 4 5 6 
#
# 1 115.2182 20.7706 46.8210 0.0010 0.2507 0.0008
# 2 20.7706 127.5726 14.8218 0.0002 -9.8939 0.0001
# 3 46.8210 14.8218 110.1326 0.0026 28.7704 0.0019
# 4 0.0010 0.0002 0.0026 41.4962 0.0016 -12.4408
# 5 0.2507 -9.8939 28.7704 0.0016 38.4859 0.0011
# 6 0.0008 0.0001 0.0019 -12.4408 0.0011 18.8453
#
#
#
# Elastic Compliance Matrix: (Units=1/GPa)
#
#
# Indices 1 2 3 4 5 6 
#
# 1 0.011114 -0.000851 -0.005635 0.000000 0.003921 0.000000
# 2 -0.000851 0.008436 -0.001667 0.000000 0.003421 0.000000
# 3 -0.005635 -0.001667 0.014666 -0.000001 -0.011356 -0.000001
# 4 0.000000 0.000000 -0.000001 0.030045 -0.000001 0.019834
# 5 0.003921 0.003421 -0.011356 -0.000001 0.035326 -0.000002
# 6 0.000000 0.000000 -0.000001 0.019834 -0.000002 0.066157
#
#
# Mechanical properties :
#
#
# Convention : Reuss Voigt Hill
#
# Bulk Modulus (GPa) = 55.83174 57.52782 56.67978
# Shear Modulus (GPa) = 26.59283 37.79948 32.19615
#
# Velocity S-wave (km/s) = 3.46283 4.12849 3.81023
# Velocity P-wave (km/s) = 6.41590 6.97612 6.70187
#
# Compressibility (1/GPa) = 0.01791096
#
# Stress axis : x y z
#
# Youngs Moduli (GPa) = 89.97855 118.53697 68.18329
#
# Poissons Ratio (x) = 0.10084 0.38419
# Poissons Ratio (y) = 0.07655 0.11368
# Poissons Ratio (z) = 0.50700 0.19764
#
# Static dielectric constant tensor:
#      x y z
#    x 2.024010 0.000000 -0.115430 
#    y 0.000000 1.915840 0.000000 
#    z -0.115430 0.000000 1.971250 
# 
# From -- ./inp_files/192382.got.cif
#   From: 2010.05.17/outbox.cif.g08.bks.cpg/sg15_97_cif.got.tgz:192382.got - 2010.06.03 18:47:42.
