data_PCOD9304864
_publ_section_title
;
Structure prediction by ZEFSAII (Michael W. Deem and Ramdas Pophale) SiO2 
 PCOD9304864
Probable space group: C 2/C
;
_chemical_formula_sum "Si O2"
_cell_formula_units_Z 64
_cell_length_a 24.064627
_cell_length_b 14.793833
_cell_length_c 8.787840
_cell_angle_alpha 90.000000
_cell_angle_beta 128.567478
_cell_angle_gamma 90.000000
_cell_volume 2446.127108
_symmetry_space_group_name_H-M "C 2/C"
_symmetry_group_IT_number 15
_symmetry_cell_setting 'monoclinic'
loop_
_space_group_symop_operation_xyz
x,y,z
-x,y,1/2-z
-x,-y,-z
x,-y,1/2+z
1/2+x,1/2+y,z
1/2-x,1/2+y,1/2-z
1/2-x,1/2-y,-z
1/2+x,1/2-y,1/2+z
loop_
_atom_site_type_symbol
_atom_site_label
_atom_site_fract_x
_atom_site_fract_y
_atom_site_fract_z
Si Si1 0.145759 0.787798 0.286080
Si Si2 0.319433 0.078429 0.444159
Si Si3 0.618246 0.382230 0.806661
Si Si4 0.666749 0.083859 0.392856
Si Si5 0.414739 0.433245 0.089318
Si Si6 0.503740 0.774740 0.096205
Si Si7 0.387729 0.122917 0.885116
Si Si8 0.738896 0.281217 0.168504
O O1 0.173981 0.691885 0.393752
O O2 0.128117 0.861710 0.381263
O O3 0.200268 0.819410 0.252740
O O4 0.072080 0.762390 0.079290
O O5 0.371934 0.086849 0.683173
O O6 0.280509 0.174982 0.363084
O O7 0.278325 0.989986 0.440723
O O8 0.342933 0.061927 0.306042
O O9 0.608787 0.418589 0.621831
O O10 0.603107 0.465856 0.890182
O O11 0.557913 0.306285 0.721970
O O12 0.692530 0.333649 0.963834
O O13 0.611780 0.077146 0.445275
O O14 0.679977 0.190256 0.713274
O O15 0.500000 0.417853 0.250000
O O16 0.500000 0.827308 0.250000
O O17 0.537323 0.829375 0.014690
#
# Coordination Sequence:
#
# PCOD9304864 Si02
#       8
#     8   8   8   8   8   8   8   8
#     4  11  25  46  74 113 150 192 255 312 382 458
#     4  11  23  47  76 108 150 194 255 314 377 451
#     4  12  24  43  69 108 154 201 247 311 379 448
#     4  11  25  47  78 112 151 201 251 317 381 455
#     4  12  25  41  71 112 154 200 250 310 378 458
#     4  12  23  45  80 107 147 197 247 320 386 454
#     4  12  26  50  81 109 152 202 255 315 384 451
#     4  11  26  50  77 110 149 201 259 309 384 456
#
# _framework density 26.163806999999998
#
# number of rings (size 3 to 8) (size 9 to 14) (size 15 to 20)
#    0.000    0.500    5.000    3.375    0.000    2.000 
#    6.750    0.625    5.500    0.000    0.000    0.000 
#    0.000    0.000    0.000    0.000    0.000    0.000 
#
# Total GULP energy -178724.792530 kJ/mol
# GULP energy per Si atom -5585.149767 kJ/mol
# Density = 2.610426 g / cm^3
# Si number density = 26.163807 Si / 1000 Ang^3
#
#
#
# Elastic Constant Matrix: (Units=GPa)
#
#
# Indices 1 2 3 4 5 6 
#
# 1 133.6866 36.8869 56.7566 0.0000 -47.5004 0.0000
# 2 36.8869 111.4801 28.2178 0.0000 -31.6627 0.0000
# 3 56.7566 28.2178 120.4068 0.0000 -40.2135 0.0000
# 4 0.0000 0.0000 0.0000 581.3561 0.0000 216.4520
# 5 -47.5004 -31.6627 -40.2135 0.0000 59.7451 0.0000
# 6 0.0000 0.0000 0.0000 216.4520 0.0000 135.6159
#
#
#
# Elastic Compliance Matrix: (Units=1/GPa)
#
#
# Indices 1 2 3 4 5 6 
#
# 1 0.011325 -0.001188 -0.002919 0.000000 0.006409 0.000000
# 2 -0.001188 0.010742 -0.000479 0.000000 0.004426 0.000000
# 3 -0.002919 -0.000479 0.011524 0.000000 0.005182 0.000000
# 4 0.000000 0.000000 0.000000 0.004239 0.000000 -0.006766
# 5 0.006409 0.004426 0.005182 0.000000 0.027667 0.000000
# 6 0.000000 0.000000 0.000000 -0.006766 0.000000 0.018173
#
#
# Mechanical properties :
#
#
# Convention : Reuss Voigt Hill
#
# Bulk Modulus (GPa) = 40.95417 67.69959 54.32688
# Shear Modulus (GPa) = 49.51407 171.59089 110.55248
#
# Velocity S-wave (km/s) = 4.35497 8.10714 6.50736
# Velocity P-wave (km/s) = 6.40114 10.65672 8.79034
#
# Compressibility (1/GPa) = 0.02441754
#
# Stress axis : x y z
#
# Youngs Moduli (GPa) = 88.30377 93.09655 86.77428
#
# Poissons Ratio (x) = 0.11058 0.25331
# Poissons Ratio (y) = 0.10489 0.04159
# Poissons Ratio (z) = 0.25777 0.04463
#
# Static dielectric constant tensor:
#      x y z
#    x 2.085830 0.000000 -0.021000 
#    y 0.000000 2.267890 0.000000 
#    z -0.021000 0.000000 2.250880 
# 
# From -- ./inp_files/70153.got.cif
#   From: 2010.05.17/outbox.cif.g08.bks.cpg/sg15_36_cif.got.tgz:70153.got - 2010.06.03 18:47:42.
