data_PCOD9304675
_publ_section_title
;
Structure prediction by ZEFSAII (Michael W. Deem and Ramdas Pophale) SiO2 
 PCOD9304675
Probable space group: C 2/C
;
_chemical_formula_sum "Si O2"
_cell_formula_units_Z 40
_cell_length_a 19.480187
_cell_length_b 8.530345
_cell_length_c 9.757028
_cell_angle_alpha 90.000000
_cell_angle_beta 106.426824
_cell_angle_gamma 90.000000
_cell_volume 1555.170993
_symmetry_space_group_name_H-M "C 2/C"
_symmetry_group_IT_number 15
_symmetry_cell_setting 'monoclinic'
loop_
_space_group_symop_operation_xyz
x,y,z
-x,y,1/2-z
-x,-y,-z
x,-y,1/2+z
1/2+x,1/2+y,z
1/2-x,1/2+y,1/2-z
1/2-x,1/2-y,-z
1/2+x,1/2-y,1/2+z
loop_
_atom_site_type_symbol
_atom_site_label
_atom_site_fract_x
_atom_site_fract_y
_atom_site_fract_z
Si Si1 0.911361 0.286166 0.018410
Si Si2 0.427536 0.702841 0.422247
Si Si3 0.699984 0.770000 0.751985
Si Si4 0.182023 0.602787 0.809507
Si Si5 0.115746 0.029251 0.841116
O O1 0.873192 0.407595 0.096940
O O2 0.996014 0.277802 0.068414
O O3 0.880778 0.124000 0.063037
O O4 0.879561 0.301903 0.850464
O O5 0.366128 0.825906 0.343076
O O6 0.424231 0.649099 0.578209
O O7 0.418058 0.549195 0.316372
O O8 0.753486 0.727011 0.660548
O O9 0.688167 0.620173 0.841233
O O10 0.720516 0.935694 0.823581
#
# Coordination Sequence:
#
# PCOD9304675 Si02
#       5
#     8   8   8   8   8
#     4  11  25  47  72 105 146 188 242 301 354 438
#     4  11  25  46  76 108 151 184 244 294 366 428
#     4  12  27  45  74 102 146 195 243 295 366 425
#     4  11  26  48  68 107 144 193 240 305 354 433
#     4  11  23  45  73 110 140 192 237 295 356 435
#
# _framework density 25.720644
#
# number of rings (size 3 to 8) (size 9 to 14) (size 15 to 20)
#    0.000    0.800    2.000    6.000    5.600    1.600 
#    3.600    0.000    0.000    0.000    0.000    0.000 
#    0.000    0.000    0.000    0.000    0.000    0.000 
#
# Total GULP energy -111758.002731 kJ/mol
# GULP energy per Si atom -5587.900137 kJ/mol
# Density = 2.566210 g / cm^3
# Si number density = 25.720644 Si / 1000 Ang^3
#
#
#
# Elastic Constant Matrix: (Units=GPa)
#
#
# Indices 1 2 3 4 5 6 
#
# 1 114.7044 3.7475 24.5353 0.0000 -4.7324 0.0000
# 2 3.7475 41.1925 -1.3811 0.0000 -2.4238 0.0000
# 3 24.5353 -1.3811 91.5692 0.0000 -12.4871 0.0000
# 4 0.0000 0.0000 0.0000 12.8781 0.0000 -6.6191
# 5 -4.7324 -2.4238 -12.4871 0.0000 43.2034 0.0000
# 6 0.0000 0.0000 0.0000 -6.6191 0.0000 35.7837
#
#
#
# Elastic Compliance Matrix: (Units=1/GPa)
#
#
# Indices 1 2 3 4 5 6 
#
# 1 0.009286 -0.000913 -0.002467 0.000000 0.000253 0.000000
# 2 -0.000913 0.024476 0.000820 0.000000 0.001510 0.000000
# 3 -0.002467 0.000820 0.012038 0.000000 0.003255 0.000000
# 4 0.000000 0.000000 0.000000 0.085810 0.000000 0.015873
# 5 0.000253 0.001510 0.003255 0.000000 0.024200 0.000000
# 6 0.000000 0.000000 0.000000 0.015873 0.000000 0.030882
#
#
# Mechanical properties :
#
#
# Convention : Reuss Voigt Hill
#
# Bulk Modulus (GPa) = 24.58276 33.47438 29.02857
# Shear Modulus (GPa) = 24.34612 33.07732 28.71172
#
# Velocity S-wave (km/s) = 3.07996 3.59001 3.34472
# Velocity P-wave (km/s) = 4.71450 5.49791 5.12121
#
# Compressibility (1/GPa) = 0.04067891
#
# Stress axis : x y z
#
# Youngs Moduli (GPa) = 107.68788 40.85694 83.06967
#
# Poissons Ratio (x) = 0.03729 0.20497
# Poissons Ratio (y) = 0.09828 -0.06809
# Poissons Ratio (z) = 0.26571 -0.03349
#
# Static dielectric constant tensor:
#      x y z
#    x 1.960380 0.000000 -0.012210 
#    y 0.000000 2.083140 0.000000 
#    z -0.012210 0.000000 2.128350 
# 
# From -- ./inp_files/102856.got.cif
#   From: 2010.05.17/outbox.cif.g08.bks.cpg/sg15_52_cif.got.tgz:102856.got - 2010.06.03 18:47:42.
