data_PCOD9304182
_publ_section_title
;
Structure prediction by ZEFSAII (Michael W. Deem and Ramdas Pophale) SiO2 
 PCOD9304182
Probable space group: C 2/C
;
_chemical_formula_sum "Si O2"
_cell_formula_units_Z 60
_cell_length_a 21.019902
_cell_length_b 8.431877
_cell_length_c 19.971472
_cell_angle_alpha 90.000000
_cell_angle_beta 141.972176
_cell_angle_gamma 90.000000
_cell_volume 2180.604036
_symmetry_space_group_name_H-M "C 2/C"
_symmetry_group_IT_number 15
_symmetry_cell_setting 'monoclinic'
loop_
_space_group_symop_operation_xyz
x,y,z
-x,y,1/2-z
-x,-y,-z
x,-y,1/2+z
1/2+x,1/2+y,z
1/2-x,1/2+y,1/2-z
1/2-x,1/2-y,-z
1/2+x,1/2-y,1/2+z
loop_
_atom_site_type_symbol
_atom_site_label
_atom_site_fract_x
_atom_site_fract_y
_atom_site_fract_z
Si Si1 0.250489 0.017117 0.067125
Si Si2 0.146581 0.821797 0.274965
Si Si3 0.865916 0.757867 0.841223
Si Si4 0.897998 0.483284 0.063124
Si Si5 0.553987 0.332331 0.451027
Si Si6 0.500000 0.484664 0.750000
Si Si7 0.591620 0.784886 0.263182
Si Si8 0.318440 0.941016 0.862475
O O1 0.302695 0.169437 0.147554
O O2 0.304083 0.993536 0.038791
O O3 0.127337 0.044730 0.970195
O O4 0.297431 0.867852 0.145235
O O5 0.236093 0.942817 0.331195
O O6 0.061458 0.893081 0.254765
O O7 0.069249 0.816831 0.147986
O O8 0.907913 0.842248 0.941401
O O9 0.920033 0.805253 0.817031
O O10 0.748112 0.815027 0.733369
O O11 0.875345 0.568140 0.861622
O O12 0.000905 0.414850 0.183215
O O13 0.916876 0.662803 0.056419
O O14 0.881586 0.387188 0.979954
O O15 0.412787 0.342008 0.680837
#
# Coordination Sequence:
#
# PCOD9304182 Si02
#       8
#     8   8   8   8   8   4   8   8
#     4  12  23  46  75 105 140 184 240 292 348 427
#     4  12  25  45  73 102 142 186 231 297 349 412
#     4  11  25  48  67 104 144 185 239 279 348 424
#     4  11  23  42  72 104 136 183 235 287 353 417
#     4  11  25  42  74 107 130 192 240 285 346 418
#     4  12  26  46  68 108 142 180 228 292 360 408
#     4  12  25  47  71 101 149 184 227 296 353 417
#     4  11  26  46  71 101 144 185 233 293 348 419
#
# _framework density 27.515311000000001
#
# number of rings (size 3 to 8) (size 9 to 14) (size 15 to 20)
#    0.000    0.533    6.667    2.000    1.867    3.733 
#    4.800    2.000    0.000    0.000    0.000    0.000 
#    0.000    0.000    0.000    0.000    0.000    0.000 
#
# Total GULP energy -167693.868865 kJ/mol
# GULP energy per Si atom -5589.795629 kJ/mol
# Density = 2.745269 g / cm^3
# Si number density = 27.515311 Si / 1000 Ang^3
#
#
#
# Elastic Constant Matrix: (Units=GPa)
#
#
# Indices 1 2 3 4 5 6 
#
# 1 97.7462 17.5379 23.1641 0.0000 9.0038 0.0000
# 2 17.5379 69.5278 22.5063 0.0000 4.8408 0.0000
# 3 23.1641 22.5063 102.7413 0.0000 10.3731 0.0000
# 4 0.0000 0.0000 0.0000 333.7657 0.0000 -210.5535
# 5 9.0038 4.8408 10.3731 0.0000 60.0218 0.0000
# 6 0.0000 0.0000 0.0000 -210.5535 0.0000 190.9123
#
#
#
# Elastic Compliance Matrix: (Units=1/GPa)
#
#
# Indices 1 2 3 4 5 6 
#
# 1 0.011177 -0.002110 -0.001939 0.000000 -0.001171 0.000000
# 2 -0.002110 0.015906 -0.002963 0.000000 -0.000454 0.000000
# 3 -0.001939 -0.002963 0.010957 0.000000 -0.001364 0.000000
# 4 0.000000 0.000000 0.000000 0.009847 0.000000 0.010860
# 5 -0.001171 -0.000454 -0.001364 0.000000 0.017109 0.000000
# 6 0.000000 0.000000 0.000000 0.010860 0.000000 0.017216
#
#
# Mechanical properties :
#
#
# Convention : Reuss Voigt Hill
#
# Bulk Modulus (GPa) = 41.64004 44.04800 42.84402
# Shear Modulus (GPa) = 47.96608 130.72707 89.34658
#
# Velocity S-wave (km/s) = 4.17975 6.90028 5.70457
# Velocity P-wave (km/s) = 6.20162 8.91787 7.68077
#
# Compressibility (1/GPa) = 0.02401535
#
# Stress axis : x y z
#
# Youngs Moduli (GPa) = 89.47230 62.87092 91.26461
#
# Poissons Ratio (x) = 0.13265 0.17700
# Poissons Ratio (y) = 0.18878 0.27039
# Poissons Ratio (z) = 0.17353 0.18627
#
# Static dielectric constant tensor:
#      x y z
#    x 2.327770 0.000000 -0.056130 
#    y 0.000000 2.131160 0.000000 
#    z -0.056130 0.000000 2.406670 
# 
# From -- ./inp_files/255192.got.cif
#   From: 2010.05.17/outbox.cif.g08.bks.cpg/sg15_128_cif.got.tgz:255192.got - 2010.06.03 18:47:42.
