data_PCOD9304487
_publ_section_title
;
Structure prediction by ZEFSAII (Michael W. Deem and Ramdas Pophale) SiO2 
 PCOD9304487
Probable space group: C 2/C
;
_chemical_formula_sum "Si O2"
_cell_formula_units_Z 48
_cell_length_a 13.585581
_cell_length_b 21.964208
_cell_length_c 11.231881
_cell_angle_alpha 90.000000
_cell_angle_beta 42.136644
_cell_angle_gamma 90.000000
_cell_volume 2248.561181
_symmetry_space_group_name_H-M "C 2/C"
_symmetry_group_IT_number 15
_symmetry_cell_setting 'monoclinic'
loop_
_space_group_symop_operation_xyz
x,y,z
-x,y,1/2-z
-x,-y,-z
x,-y,1/2+z
1/2+x,1/2+y,z
1/2-x,1/2+y,1/2-z
1/2-x,1/2-y,-z
1/2+x,1/2-y,1/2+z
loop_
_atom_site_type_symbol
_atom_site_label
_atom_site_fract_x
_atom_site_fract_y
_atom_site_fract_z
Si Si1 0.234265 0.496075 0.368202
Si Si2 0.675546 0.816032 0.918217
Si Si3 0.500000 0.562285 0.750000
Si Si4 0.607005 0.610936 0.401425
Si Si5 0.143174 0.817318 0.498647
Si Si6 0.874080 0.383026 0.182372
Si Si7 0.000000 0.457548 0.250000
O O1 0.360539 0.479868 0.348157
O O2 0.303892 0.550609 0.225381
O O3 0.198042 0.432912 0.335614
O O4 0.079309 0.508807 0.571849
O O5 0.780075 0.832491 0.713203
O O6 0.595843 0.751965 0.017318
O O7 0.786158 0.821982 0.933116
O O8 0.541821 0.863231 0.020351
O O9 0.542971 0.598978 0.590822
O O10 0.473336 0.631122 0.433974
O O11 0.274044 0.824836 0.285966
O O12 0.872592 0.416293 0.311189
#
# Coordination Sequence:
#
# PCOD9304487 Si02
#       7
#     8   8   4   8   8   8   4
#     4  12  27  42  68  99 137 183 229 284 344 409
#     4  11  24  41  74 101 138 174 227 289 350 400
#     4  12  28  44  66  98 140 190 232 272 346 416
#     4  12  25  46  69 101 142 183 229 285 344 413
#     4  11  23  44  70 106 134 176 226 289 347 407
#     4  12  22  42  63 100 136 170 221 281 341 413
#     4  12  24  40  66 102 134 172 220 284 356 406
#
# _framework density 21.346985
#
# number of rings (size 3 to 8) (size 9 to 14) (size 15 to 20)
#    0.000    0.333    5.000    3.500    7.000    2.667 
#    0.000    0.833    0.000    0.000    0.000    0.000 
#    0.000    0.000    0.000    0.000    0.000    0.000 
#
# Total GULP energy -133673.836724 kJ/mol
# GULP energy per Si atom -5569.743197 kJ/mol
# Density = 2.129840 g / cm^3
# Si number density = 21.346985 Si / 1000 Ang^3
#
#
#
# Elastic Constant Matrix: (Units=GPa)
#
#
# Indices 1 2 3 4 5 6 
#
# 1 72.9602 34.5390 19.5880 0.0000 -7.0956 0.0000
# 2 34.5390 79.6575 42.7043 0.0000 2.1948 0.0000
# 3 19.5880 42.7043 125.4420 0.0000 0.0915 0.0000
# 4 0.0000 0.0000 0.0000 14.8776 0.0000 1.9256
# 5 -7.0956 2.1948 0.0915 0.0000 24.6752 0.0000
# 6 0.0000 0.0000 0.0000 1.9256 0.0000 15.3278
#
#
#
# Elastic Compliance Matrix: (Units=1/GPa)
#
#
# Indices 1 2 3 4 5 6 
#
# 1 0.018067 -0.007929 -0.000126 0.000000 0.005901 0.000000
# 2 -0.007929 0.018881 -0.005187 0.000000 -0.003940 0.000000
# 3 -0.000126 -0.005187 0.009757 0.000000 0.000389 0.000000
# 4 0.000000 0.000000 0.000000 0.068326 0.000000 -0.008583
# 5 0.005901 -0.003940 0.000389 0.000000 0.042573 0.000000
# 6 0.000000 0.000000 0.000000 -0.008583 0.000000 0.066319
#
#
# Mechanical properties :
#
#
# Convention : Reuss Voigt Hill
#
# Bulk Modulus (GPa) = 49.45217 52.41359 50.93288
# Shear Modulus (GPa) = 19.44415 23.05801 21.25108
#
# Velocity S-wave (km/s) = 3.02132 3.29013 3.15859
# Velocity P-wave (km/s) = 5.94873 6.24818 6.10029
#
# Compressibility (1/GPa) = 0.02022156
#
# Stress axis : x y z
#
# Youngs Moduli (GPa) = 55.34852 52.96419 102.49108
#
# Poissons Ratio (x) = 0.41994 0.01295
# Poissons Ratio (y) = 0.43884 0.53158
# Poissons Ratio (z) = 0.00699 0.27470
#
# Static dielectric constant tensor:
#      x y z
#    x 1.850610 0.000000 -0.003490 
#    y 0.000000 1.827160 0.000000 
#    z -0.003490 0.000000 1.812930 
# 
# From -- ./inp_files/100002.got.cif
#   From: 2010.05.17/outbox.cif.g08.bks.cpg/sg15_51_cif.got.tgz:100002.got - 2010.06.03 18:47:42.
