data_PCOD9304270
_publ_section_title
;
Structure prediction by ZEFSAII (Michael W. Deem and Ramdas Pophale) SiO2 
 PCOD9304270
Probable space group: C 2/C
;
_chemical_formula_sum "Si O2"
_cell_formula_units_Z 60
_cell_length_a 22.522178
_cell_length_b 8.362751
_cell_length_c 14.220596
_cell_angle_alpha 90.000000
_cell_angle_beta 81.700897
_cell_angle_gamma 90.000000
_cell_volume 2650.363611
_symmetry_space_group_name_H-M "C 2/C"
_symmetry_group_IT_number 15
_symmetry_cell_setting 'monoclinic'
loop_
_space_group_symop_operation_xyz
x,y,z
-x,y,1/2-z
-x,-y,-z
x,-y,1/2+z
1/2+x,1/2+y,z
1/2-x,1/2+y,1/2-z
1/2-x,1/2-y,-z
1/2+x,1/2-y,1/2+z
loop_
_atom_site_type_symbol
_atom_site_label
_atom_site_fract_x
_atom_site_fract_y
_atom_site_fract_z
Si Si1 0.437857 0.406024 0.317841
Si Si2 0.601495 0.628513 0.323253
Si Si3 0.649546 0.048423 0.886790
Si Si4 0.387737 0.557202 0.490681
Si Si5 0.850256 0.640013 0.298552
Si Si6 0.000000 0.330435 0.250000
Si Si7 0.725256 0.379259 0.078600
Si Si8 0.100968 0.420443 0.079256
O O1 0.500000 0.403478 0.250000
O O2 0.392363 0.526785 0.273511
O O3 0.441575 0.472391 0.421159
O O4 0.408334 0.233896 0.322936
O O5 0.644614 0.773174 0.344656
O O6 0.604180 0.496684 0.404213
O O7 0.540893 0.724364 0.310351
O O8 0.717501 0.019021 0.904354
O O9 0.637811 0.920678 0.808141
O O10 0.604175 0.030982 0.985152
O O11 0.327409 0.476170 0.461648
O O12 0.389636 0.743437 0.464856
O O13 0.798849 0.769561 0.329616
O O14 0.845005 0.485696 0.367160
O O15 0.045032 0.415740 0.165583
O O16 0.750000 0.250000 0.000000
#
# Coordination Sequence:
#
# PCOD9304270 Si02
#       8
#     8   8   8   8   8   4   8   8
#     4  11  23  43  68 102 139 185 237 290 352 430
#     4  12  23  45  70 100 140 183 237 290 358 424
#     4  12  25  45  74 105 143 188 240 299 363 428
#     4  11  24  43  73  99 141 187 235 293 353 432
#     4  11  25  43  70 106 144 184 240 299 357 430
#     4  12  26  46  72 100 152 184 238 306 350 436
#     4  11  23  48  70 101 142 187 236 299 354 420
#     4  12  25  47  69 109 145 186 244 294 364 436
#
# _framework density 22.638401999999999
#
# number of rings (size 3 to 8) (size 9 to 14) (size 15 to 20)
#    0.000    0.533    6.000    1.600    0.933    7.467 
#    2.400    0.000    0.000    0.000    0.000    0.000 
#    0.000    0.000    0.000    0.000    0.000    0.000 
#
# Total GULP energy -167407.632298 kJ/mol
# GULP energy per Si atom -5580.254410 kJ/mol
# Density = 2.258688 g / cm^3
# Si number density = 22.638402 Si / 1000 Ang^3
#
#
#
# Elastic Constant Matrix: (Units=GPa)
#
#
# Indices 1 2 3 4 5 6 
#
# 1 59.7123 14.5295 9.9354 0.0000 -0.1824 0.0000
# 2 14.5295 83.8954 19.6165 0.0000 -5.3160 0.0000
# 3 9.9354 19.6165 113.2072 0.0000 0.0442 0.0000
# 4 0.0000 0.0000 0.0000 39.6302 0.0000 -3.3057
# 5 -0.1824 -5.3160 0.0442 0.0000 33.3386 0.0000
# 6 0.0000 0.0000 0.0000 -3.3057 0.0000 21.4530
#
#
#
# Elastic Compliance Matrix: (Units=1/GPa)
#
#
# Indices 1 2 3 4 5 6 
#
# 1 0.017609 -0.002825 -0.001056 0.000000 -0.000353 0.000000
# 2 -0.002825 0.013009 -0.002007 0.000000 0.002062 0.000000
# 3 -0.001056 -0.002007 0.009274 0.000000 -0.000338 0.000000
# 4 0.000000 0.000000 0.000000 0.025562 0.000000 0.003939
# 5 -0.000353 0.002062 -0.000338 0.000000 0.030323 0.000000
# 6 0.000000 0.000000 0.000000 0.003939 0.000000 0.047220
#
#
# Mechanical properties :
#
#
# Convention : Reuss Voigt Hill
#
# Bulk Modulus (GPa) = 35.56704 38.33087 36.94896
# Shear Modulus (GPa) = 30.46102 33.06659 31.76381
#
# Velocity S-wave (km/s) = 3.67215 3.82598 3.74985
# Velocity P-wave (km/s) = 5.80729 6.04037 5.92497
#
# Compressibility (1/GPa) = 0.02811591
#
# Stress axis : x y z
#
# Youngs Moduli (GPa) = 56.78917 76.87108 107.82922
#
# Poissons Ratio (x) = 0.21717 0.11384
# Poissons Ratio (y) = 0.16044 0.21642
# Poissons Ratio (z) = 0.05995 0.15428
#
# Static dielectric constant tensor:
#      x y z
#    x 1.898490 0.000000 -0.030700 
#    y 0.000000 1.877030 0.000000 
#    z -0.030700 0.000000 1.846970 
# 
# From -- ./inp_files/171875.got.cif
#   From: 2010.05.17/outbox.cif.g08.bks.cpg/sg15_86_cif.got.tgz:171875.got - 2010.06.03 18:47:42.
