data_PCOD9304778
_publ_section_title
;
Structure prediction by ZEFSAII (Michael W. Deem and Ramdas Pophale) SiO2 
 PCOD9304778
Probable space group: C 2/C
;
_chemical_formula_sum "Si O2"
_cell_formula_units_Z 40
_cell_length_a 17.347256
_cell_length_b 14.056895
_cell_length_c 13.872901
_cell_angle_alpha 90.000000
_cell_angle_beta 151.375814
_cell_angle_gamma 90.000000
_cell_volume 1620.614022
_symmetry_space_group_name_H-M "C 2/C"
_symmetry_group_IT_number 15
_symmetry_cell_setting 'monoclinic'
loop_
_space_group_symop_operation_xyz
x,y,z
-x,y,1/2-z
-x,-y,-z
x,-y,1/2+z
1/2+x,1/2+y,z
1/2-x,1/2+y,1/2-z
1/2-x,1/2-y,-z
1/2+x,1/2-y,1/2+z
loop_
_atom_site_type_symbol
_atom_site_label
_atom_site_fract_x
_atom_site_fract_y
_atom_site_fract_z
Si Si1 0.600806 0.642705 0.766073
Si Si2 0.166904 0.551438 0.168859
Si Si3 0.198245 0.235246 0.134543
Si Si4 0.172774 0.874562 0.065761
Si Si5 0.682961 0.580386 0.363758
O O1 0.500000 0.669735 0.750000
O O2 0.765373 0.692828 0.913569
O O3 0.473102 0.682124 0.547257
O O4 0.633291 0.531187 0.812375
O O5 0.183099 0.645487 0.250231
O O6 0.298229 0.473498 0.344967
O O7 0.195125 0.585212 0.090812
O O8 0.000000 0.500000 0.000000
O O9 0.240607 0.294142 0.276819
O O10 0.241844 0.887602 0.033454
O O11 0.981883 0.864077 0.841171
#
# Coordination Sequence:
#
# PCOD9304778 Si02
#       5
#     8   8   8   8   8
#     4  12  23  45  71 105 137 188 241 294 351 431
#     4  12  25  44  66 105 151 188 231 304 362 420
#     4  12  25  41  72 106 141 183 244 296 357 426
#     4  11  23  46  74 105 134 192 242 294 356 423
#     4  11  23  46  77  95 142 195 244 281 358 439
#
# _framework density 24.682003000000002
#
# number of rings (size 3 to 8) (size 9 to 14) (size 15 to 20)
#    0.000    0.400    6.000    3.600    0.000    1.600 
#    0.000    2.000    0.000    0.000    0.000    0.000 
#    0.000    0.000    0.000    0.000    0.000    0.000 
#
# Total GULP energy -111908.582947 kJ/mol
# GULP energy per Si atom -5595.429147 kJ/mol
# Density = 2.462583 g / cm^3
# Si number density = 24.682003 Si / 1000 Ang^3
#
#
#
# Elastic Constant Matrix: (Units=GPa)
#
#
# Indices 1 2 3 4 5 6 
#
# 1 118.8799 -21.9026 -3.0041 0.0000 -14.9658 0.0000
# 2 -21.9026 104.1534 13.6517 0.0000 -10.9441 0.0000
# 3 -3.0041 13.6517 38.0187 0.0000 -6.6257 0.0000
# 4 0.0000 0.0000 0.0000 21.4551 0.0000 4.2842
# 5 -14.9658 -10.9441 -6.6257 0.0000 36.8168 0.0000
# 6 0.0000 0.0000 0.0000 4.2842 0.0000 32.9366
#
#
#
# Elastic Compliance Matrix: (Units=1/GPa)
#
#
# Indices 1 2 3 4 5 6 
#
# 1 0.009459 0.002389 0.000706 0.000000 0.004682 0.000000
# 2 0.002389 0.010892 -0.003086 0.000000 0.003653 0.000000
# 3 0.000706 -0.003086 0.028243 0.000000 0.004452 0.000000
# 4 0.000000 0.000000 0.000000 0.047852 0.000000 -0.006224
# 5 0.004682 0.003653 0.004452 0.000000 0.030952 0.000000
# 6 0.000000 0.000000 0.000000 -0.006224 0.000000 0.031171
#
#
# Mechanical properties :
#
#
# Convention : Reuss Voigt Hill
#
# Bulk Modulus (GPa) = 20.57139 26.50466 23.53803
# Shear Modulus (GPa) = 28.61154 36.39549 32.50351
#
# Velocity S-wave (km/s) = 3.40841 3.84419 3.63284
# Velocity P-wave (km/s) = 4.88286 5.51955 5.21094
#
# Compressibility (1/GPa) = 0.04861120
#
# Stress axis : x y z
#
# Youngs Moduli (GPa) = 105.71698 91.81168 35.40757
#
# Poissons Ratio (x) = -0.21931 -0.02499
# Poissons Ratio (y) = -0.25252 0.10925
# Poissons Ratio (z) = -0.07461 0.28329
#
# Static dielectric constant tensor:
#      x y z
#    x 2.012920 0.000000 -0.024730 
#    y 0.000000 1.937770 0.000000 
#    z -0.024730 0.000000 2.096730 
# 
# From -- ./inp_files/162433.got.cif
#   From: 2010.05.17/outbox.cif.g08.bks.cpg/sg15_82_cif.got.tgz:162433.got - 2010.06.03 18:47:42.
