data_PCOD9304467
_publ_section_title
;
Structure prediction by ZEFSAII (Michael W. Deem and Ramdas Pophale) SiO2 
 PCOD9304467
Probable space group: C 2/C
;
_chemical_formula_sum "Si O2"
_cell_formula_units_Z 44
_cell_length_a 17.062136
_cell_length_b 9.312379
_cell_length_c 13.848168
_cell_angle_alpha 90.000000
_cell_angle_beta 114.649010
_cell_angle_gamma 90.000000
_cell_volume 1999.828564
_symmetry_space_group_name_H-M "C 2/C"
_symmetry_group_IT_number 15
_symmetry_cell_setting 'monoclinic'
loop_
_space_group_symop_operation_xyz
x,y,z
-x,y,1/2-z
-x,-y,-z
x,-y,1/2+z
1/2+x,1/2+y,z
1/2-x,1/2+y,1/2-z
1/2-x,1/2-y,-z
1/2+x,1/2-y,1/2+z
loop_
_atom_site_type_symbol
_atom_site_label
_atom_site_fract_x
_atom_site_fract_y
_atom_site_fract_z
Si Si1 0.574542 0.026237 0.960469
Si Si2 0.665114 0.727690 0.766737
Si Si3 0.231997 0.020352 0.941952
Si Si4 0.222015 0.456231 0.314461
Si Si5 0.903658 0.771932 0.669950
Si Si6 0.000000 0.333870 0.750000
O O1 0.584456 0.188670 0.926004
O O2 0.551370 0.932541 0.852908
O O3 0.500000 0.000000 0.000000
O O4 0.669748 0.986159 0.046262
O O5 0.694836 0.671422 0.887215
O O6 0.706169 0.619702 0.712476
O O7 0.563042 0.736986 0.719347
O O8 0.696052 0.888456 0.762590
O O9 0.165023 0.899975 0.870413
O O10 0.242615 0.986714 0.060115
O O11 0.140885 0.347450 0.283030
O O12 0.000000 0.814394 0.750000
#
# Coordination Sequence:
#
# PCOD9304467 Si02
#       6
#     8   8   8   8   8   4
#     4  11  24  43  74 104 141 195 237 288 356 434
#     4  12  26  47  72 105 143 188 235 299 361 417
#     4  11  26  45  70 105 147 182 241 296 353 424
#     4  11  24  45  73  99 141 196 235 288 360 426
#     4  11  23  44  69 108 145 184 244 290 350 426
#     4  12  26  46  68 110 148 180 244 296 348 430
#
# _framework density 22.001885999999999
#
# number of rings (size 3 to 8) (size 9 to 14) (size 15 to 20)
#    0.000    0.727    4.545    3.818   11.455    0.000 
#    0.000    0.909    0.000    0.000    0.000    0.000 
#    0.000    0.000    0.000    0.000    0.000    0.000 
#
# Total GULP energy -123037.661158 kJ/mol
# GULP energy per Si atom -5592.620962 kJ/mol
# Density = 2.195181 g / cm^3
# Si number density = 22.001886 Si / 1000 Ang^3
#
#
#
# Elastic Constant Matrix: (Units=GPa)
#
#
# Indices 1 2 3 4 5 6 
#
# 1 172.0175 71.8569 30.5069 0.0000 3.6816 0.0000
# 2 71.8569 92.7026 20.6882 0.0000 5.1954 0.0000
# 3 30.5069 20.6882 62.1790 0.0000 13.9837 0.0000
# 4 0.0000 0.0000 0.0000 32.3880 0.0000 -3.5521
# 5 3.6816 5.1954 13.9837 0.0000 46.3645 0.0000
# 6 0.0000 0.0000 0.0000 -3.5521 0.0000 38.7346
#
#
#
# Elastic Compliance Matrix: (Units=1/GPa)
#
#
# Indices 1 2 3 4 5 6 
#
# 1 0.008898 -0.006403 -0.002401 0.000000 0.000735 0.000000
# 2 -0.006403 0.016260 -0.002117 0.000000 -0.000675 0.000000
# 3 -0.002401 -0.002117 0.019169 0.000000 -0.005354 0.000000
# 4 0.000000 0.000000 0.000000 0.031189 0.000000 0.002860
# 5 0.000735 -0.000675 -0.005354 0.000000 0.023200 0.000000
# 6 0.000000 0.000000 0.000000 0.002860 0.000000 0.026079
#
#
# Mechanical properties :
#
#
# Convention : Reuss Voigt Hill
#
# Bulk Modulus (GPa) = 44.47080 63.66700 54.06890
# Shear Modulus (GPa) = 32.43990 37.08725 34.76357
#
# Velocity S-wave (km/s) = 3.84398 4.11011 3.97927
# Velocity P-wave (km/s) = 6.32121 7.17801 6.76319
#
# Compressibility (1/GPa) = 0.02248666
#
# Stress axis : x y z
#
# Youngs Moduli (GPa) = 112.38609 61.49961 52.16817
#
# Poissons Ratio (x) = 0.39375 0.12524
# Poissons Ratio (y) = 0.71955 0.11044
# Poissons Ratio (z) = 0.26980 0.13020
#
# Static dielectric constant tensor:
#      x y z
#    x 1.819450 0.000000 -0.023410 
#    y 0.000000 1.797690 0.000000 
#    z -0.023410 0.000000 1.856650 
# 
# From -- ./inp_files/159653.got.cif
#   From: 2010.05.17/outbox.cif.g08.bks.cpg/sg15_80_cif.got.tgz:159653.got - 2010.06.03 18:47:42.
