data_PCOD9304551
_publ_section_title
;
Structure prediction by ZEFSAII (Michael W. Deem and Ramdas Pophale) SiO2 
 PCOD9304551
Probable space group: C 2/C
;
_chemical_formula_sum "Si O2"
_cell_formula_units_Z 40
_cell_length_a 8.056962
_cell_length_b 18.587165
_cell_length_c 11.730828
_cell_angle_alpha 90.000000
_cell_angle_beta 85.656538
_cell_angle_gamma 90.000000
_cell_volume 1751.717367
_symmetry_space_group_name_H-M "C 2/C"
_symmetry_group_IT_number 15
_symmetry_cell_setting 'monoclinic'
loop_
_space_group_symop_operation_xyz
x,y,z
-x,y,1/2-z
-x,-y,-z
x,-y,1/2+z
1/2+x,1/2+y,z
1/2-x,1/2+y,1/2-z
1/2-x,1/2-y,-z
1/2+x,1/2-y,1/2+z
loop_
_atom_site_type_symbol
_atom_site_label
_atom_site_fract_x
_atom_site_fract_y
_atom_site_fract_z
Si Si1 0.791768 0.925313 0.933007
Si Si2 0.683746 0.126663 0.206457
Si Si3 0.267935 0.787933 0.170173
Si Si4 0.147705 0.917885 0.030373
Si Si5 0.137299 0.693615 0.575987
O O1 0.799712 0.886203 0.810590
O O2 0.783299 0.010474 0.912613
O O3 0.649586 0.882505 0.009743
O O4 0.955712 0.919424 0.002475
O O5 0.500000 0.101821 0.250000
O O6 0.680815 0.210956 0.177099
O O7 0.752842 0.087328 0.093000
O O8 0.173077 0.848707 0.106511
O O9 0.294989 0.811819 0.299136
O O10 0.448370 0.780021 0.100549
O O11 0.250000 0.750000 0.500000
#
# Coordination Sequence:
#
# PCOD9304551 Si02
#       5
#     8   8   8   8   8
#     4  11  26  48  71 100 146 189 227 295 356 420
#     4  12  26  45  72 104 142 185 233 295 355 416
#     4  11  26  44  72 108 138 183 240 291 348 423
#     4  11  27  46  72 104 141 187 241 283 355 431
#     4  11  23  44  74 102 142 186 229 293 352 415
#
# _framework density 22.834734999999998
#
# number of rings (size 3 to 8) (size 9 to 14) (size 15 to 20)
#    0.000    0.800    2.000    3.600    8.400    3.200 
#    0.000    0.000    0.000    0.000    0.000    0.000 
#    0.000    0.000    0.000    0.000    0.000    0.000 
#
# Total GULP energy -112040.225000 kJ/mol
# GULP energy per Si atom -5602.011250 kJ/mol
# Density = 2.278276 g / cm^3
# Si number density = 22.834735 Si / 1000 Ang^3
#
#
#
# Elastic Constant Matrix: (Units=GPa)
#
#
# Indices 1 2 3 4 5 6 
#
# 1 38.0140 -3.4811 8.5179 0.0000 -12.3503 0.0000
# 2 -3.4811 87.0426 32.4687 0.0000 -3.1273 0.0000
# 3 8.5179 32.4687 98.3408 0.0000 -1.3345 0.0000
# 4 0.0000 0.0000 0.0000 35.4843 0.0000 8.1855
# 5 -12.3503 -3.1273 -1.3345 0.0000 31.0444 0.0000
# 6 0.0000 0.0000 0.0000 8.1855 0.0000 25.6283
#
#
#
# Elastic Compliance Matrix: (Units=1/GPa)
#
#
# Indices 1 2 3 4 5 6 
#
# 1 0.031505 0.003044 -0.003562 0.000000 0.012687 0.000000
# 2 0.003044 0.013437 -0.004668 0.000000 0.002364 0.000000
# 3 -0.003562 -0.004668 0.012000 0.000000 -0.001371 0.000000
# 4 0.000000 0.000000 0.000000 0.030423 0.000000 -0.009717
# 5 0.012687 0.002364 -0.001371 0.000000 0.037438 0.000000
# 6 0.000000 0.000000 0.000000 -0.009717 0.000000 0.042123
#
#
# Mechanical properties :
#
#
# Convention : Reuss Voigt Hill
#
# Bulk Modulus (GPa) = 21.47275 33.15650 27.31462
# Shear Modulus (GPa) = 25.93098 30.82419 28.37758
#
# Velocity S-wave (km/s) = 3.37351 3.67806 3.52907
# Velocity P-wave (km/s) = 4.95965 5.70870 5.34730
#
# Compressibility (1/GPa) = 0.04657064
#
# Stress axis : x y z
#
# Youngs Moduli (GPa) = 31.74109 74.42392 83.33476
#
# Poissons Ratio (x) = -0.22658 0.29683
# Poissons Ratio (y) = -0.09663 0.38900
# Poissons Ratio (z) = 0.11306 0.34740
#
# Static dielectric constant tensor:
#      x y z
#    x 1.864640 0.000000 0.022510 
#    y 0.000000 1.859090 0.000000 
#    z 0.022510 0.000000 1.821730 
# 
# From -- ./inp_files/76649.got.cif
#   From: 2010.05.17/outbox.cif.g08.bks.cpg/sg15_39_cif.got.tgz:76649.got - 2010.06.03 18:47:42.
