data_PCOD9304056
_publ_section_title
;
Structure prediction by ZEFSAII (Michael W. Deem and Ramdas Pophale) SiO2 
 PCOD9304056
Probable space group: C 2/C
;
_chemical_formula_sum "Si O2"
_cell_formula_units_Z 40
_cell_length_a 5.470918
_cell_length_b 26.548238
_cell_length_c 12.293115
_cell_angle_alpha 90.000000
_cell_angle_beta 90.252623
_cell_angle_gamma 90.000000
_cell_volume 1785.474413
_symmetry_space_group_name_H-M "C 2/C"
_symmetry_group_IT_number 15
_symmetry_cell_setting 'monoclinic'
loop_
_space_group_symop_operation_xyz
x,y,z
-x,y,1/2-z
-x,-y,-z
x,-y,1/2+z
1/2+x,1/2+y,z
1/2-x,1/2+y,1/2-z
1/2-x,1/2-y,-z
1/2+x,1/2-y,1/2+z
loop_
_atom_site_type_symbol
_atom_site_label
_atom_site_fract_x
_atom_site_fract_y
_atom_site_fract_z
Si Si1 0.000000 0.942088 0.750000
Si Si2 0.500000 0.004760 0.750000
Si Si3 0.794379 0.910766 0.332178
Si Si4 0.115592 0.768554 0.605334
Si Si5 0.653076 0.629735 0.425059
Si Si6 0.500000 0.821007 0.250000
Si Si7 0.000000 0.670028 0.250000
O O1 0.974646 0.905425 0.853615
O O2 0.255073 0.972147 0.768530
O O3 0.413278 0.045767 0.659538
O O4 0.840400 0.893483 0.455130
O O5 0.716695 0.860306 0.267395
O O6 0.000000 0.931942 0.250000
O O7 0.250000 0.750000 0.500000
O O8 0.293097 0.793870 0.696458
O O9 0.937325 0.813030 0.570376
O O10 0.002576 0.717415 0.651020
O O11 0.892245 0.636335 0.348418
#
# Coordination Sequence:
#
# PCOD9304056 Si02
#       7
#     4   4   8   8   8   4   4
#     4  12  25  52  80 112 151 197 257 332 392 462
#     4  11  27  54  77 114 147 198 266 322 406 460
#     4  11  26  49  73 110 148 198 259 320 386 464
#     4  12  25  41  68 109 146 201 247 304 372 453
#     4  12  26  46  76 111 149 199 254 315 382 463
#     4  11  23  42  65 102 148 195 249 297 374 440
#     4  12  23  46  66 108 160 192 262 301 374 462
#
# _framework density 22.403012
#
# number of rings (size 3 to 8) (size 9 to 14) (size 15 to 20)
#    0.000    0.400    5.000    3.000    4.200    4.800 
#    0.000    0.000    0.000    0.000    0.000    0.000 
#    0.000    0.000    0.000    0.000    0.000    0.000 
#
# Total GULP energy -111564.397175 kJ/mol
# GULP energy per Si atom -5578.219859 kJ/mol
# Density = 2.235202 g / cm^3
# Si number density = 22.403012 Si / 1000 Ang^3
#
#
#
# Elastic Constant Matrix: (Units=GPa)
#
#
# Indices 1 2 3 4 5 6 
#
# 1 97.9874 48.6341 25.8039 0.0000 -9.8847 0.0000
# 2 48.6341 143.1998 24.8784 0.0000 -6.2346 0.0000
# 3 25.8039 24.8784 94.4786 0.0000 -13.1084 0.0000
# 4 0.0000 0.0000 0.0000 -4.2568 0.0000 -2.8527
# 5 -9.8847 -6.2346 -13.1084 0.0000 32.9359 0.0000
# 6 0.0000 0.0000 0.0000 -2.8527 0.0000 46.9159
#
#
#
# Elastic Compliance Matrix: (Units=1/GPa)
#
#
# Indices 1 2 3 4 5 6 
#
# 1 0.012958 -0.003921 -0.002191 0.000000 0.002275 0.000000
# 2 -0.003921 0.008518 -0.001177 0.000000 -0.000033 0.000000
# 3 -0.002191 -0.001177 0.012035 0.000000 0.003910 0.000000
# 4 0.000000 0.000000 0.000000 -0.225722 0.000000 -0.013725
# 5 0.002275 -0.000033 0.003910 0.000000 0.032594 0.000000
# 6 0.000000 0.000000 0.000000 -0.013725 0.000000 0.020480
#
#
# Mechanical properties :
#
#
# Convention : Reuss Voigt Hill
#
# Bulk Modulus (GPa) = 52.81600 59.36652 56.09126
# Shear Modulus (GPa) = -42.28415 30.87564 -5.70426
#
# Velocity S-wave (km/s) = -4.34917 3.71643 -1.59741
# Velocity P-wave (km/s) = 1.26246 6.70617 4.65719
#
# Compressibility (1/GPa) = 0.01893366
#
# Stress axis : x y z
#
# Youngs Moduli (GPa) = 77.17222 117.39895 83.09065
#
# Poissons Ratio (x) = 0.46034 0.18205
# Poissons Ratio (y) = 0.30261 0.09776
# Poissons Ratio (z) = 0.16908 0.13813
#
# Static dielectric constant tensor:
#      x y z
#    x 2.140100 0.000000 -0.199670 
#    y 0.000000 1.860860 0.000000 
#    z -0.199670 0.000000 2.001180 
# 
# From -- ./inp_files/73163.got.cif
#   From: 2010.05.17/outbox.cif.g08.bks.cpg/sg15_37_cif.got.tgz:73163.got - 2010.06.03 18:47:42.
