data_PCOD9304381
_publ_section_title
;
Structure prediction by ZEFSAII (Michael W. Deem and Ramdas Pophale) SiO2 
 PCOD9304381
Probable space group: C 2/C
;
_chemical_formula_sum "Si O2"
_cell_formula_units_Z 60
_cell_length_a 10.871993
_cell_length_b 26.212382
_cell_length_c 19.554563
_cell_angle_alpha 90.000000
_cell_angle_beta 151.029075
_cell_angle_gamma 90.000000
_cell_volume 2699.213106
_symmetry_space_group_name_H-M "C 2/C"
_symmetry_group_IT_number 15
_symmetry_cell_setting 'monoclinic'
loop_
_space_group_symop_operation_xyz
x,y,z
-x,y,1/2-z
-x,-y,-z
x,-y,1/2+z
1/2+x,1/2+y,z
1/2-x,1/2+y,1/2-z
1/2-x,1/2-y,-z
1/2+x,1/2-y,1/2+z
loop_
_atom_site_type_symbol
_atom_site_label
_atom_site_fract_x
_atom_site_fract_y
_atom_site_fract_z
Si Si1 0.567011 0.642583 0.666530
Si Si2 0.784044 0.784428 0.374479
Si Si3 0.490659 0.814606 0.571238
Si Si4 0.819226 0.958119 0.028517
Si Si5 0.595316 0.906231 0.055214
Si Si6 0.500000 0.073957 0.250000
Si Si7 0.390968 0.648445 0.366129
Si Si8 0.887059 0.061180 0.119076
O O1 0.729470 0.679094 0.698210
O O2 0.297614 0.671332 0.547945
O O3 0.505031 0.588571 0.600878
O O4 0.707164 0.625499 0.803408
O O5 0.500000 0.765154 0.250000
O O6 0.971989 0.737783 0.449835
O O7 0.907406 0.818396 0.494078
O O8 0.568039 0.862618 0.561820
O O9 0.682702 0.815723 0.728039
O O10 0.606773 0.957668 0.866386
O O11 0.710361 0.940230 0.050102
O O12 0.950890 0.011950 0.104518
O O13 0.416284 0.938154 0.017496
O O14 0.723058 0.110924 0.331501
O O15 0.527457 0.612141 0.377463
O O16 0.000000 0.055705 0.250000
#
# Coordination Sequence:
#
# PCOD9304381 Si02
#       8
#     8   8   8   8   8   4   8   8
#     4  11  23  47  69 106 142 181 241 298 348 430
#     4  12  28  45  70 107 144 187 235 296 368 420
#     4  11  24  45  74  99 137 191 235 292 355 425
#     4  11  23  43  73 104 139 189 235 294 350 427
#     4  11  23  44  72 105 141 173 245 298 350 418
#     4  12  22  48  68 100 144 184 244 286 350 426
#     4  12  25  48  72  99 145 189 235 298 350 431
#     4  12  24  44  73 105 142 188 237 291 364 422
#
# _framework density 22.2287
#
# number of rings (size 3 to 8) (size 9 to 14) (size 15 to 20)
#    0.000    0.533    5.333    4.000    3.733    2.133 
#    6.000    0.000    0.000    0.000    0.000    0.000 
#    0.000    0.000    0.000    0.000    0.000    0.000 
#
# Total GULP energy -167735.313026 kJ/mol
# GULP energy per Si atom -5591.177101 kJ/mol
# Density = 2.217811 g / cm^3
# Si number density = 22.228700 Si / 1000 Ang^3
#
#
#
# Elastic Constant Matrix: (Units=GPa)
#
#
# Indices 1 2 3 4 5 6 
#
# 1 32.2221 3.0153 10.8344 -0.0233 -5.8988 -0.0218
# 2 3.0153 79.3434 11.4214 -0.0077 -8.6478 0.0051
# 3 10.8344 11.4214 109.4116 0.0058 -23.4976 -0.0006
# 4 -0.0233 -0.0077 0.0058 17.4986 0.0022 -10.7819
# 5 -5.8988 -8.6478 -23.4976 0.0022 34.6907 0.0057
# 6 -0.0218 0.0051 -0.0006 -10.7819 0.0057 15.5749
#
#
#
# Elastic Compliance Matrix: (Units=1/GPa)
#
#
# Indices 1 2 3 4 5 6 
#
# 1 0.032571 -0.000482 -0.002354 0.000123 0.003824 0.000130
# 2 -0.000482 0.013018 -0.000739 0.000002 0.002662 -0.000004
# 3 -0.002354 -0.000739 0.010912 -0.000019 0.006807 -0.000019
# 4 0.000123 0.000002 -0.000019 0.099654 -0.000009 0.068987
# 5 0.003824 0.002662 0.006807 -0.000009 0.034750 -0.000014
# 6 0.000130 -0.000004 -0.000019 0.068987 -0.000014 0.111963
#
#
# Mechanical properties :
#
#
# Convention : Reuss Voigt Hill
#
# Bulk Modulus (GPa) = 20.26311 30.16882 25.21597
# Shear Modulus (GPa) = 15.31531 26.59990 20.95760
#
# Velocity S-wave (km/s) = 2.62771 3.46301 3.07386
# Velocity P-wave (km/s) = 4.28275 5.43980 4.89558
#
# Compressibility (1/GPa) = 0.04935077
#
# Stress axis : x y z
#
# Youngs Moduli (GPa) = 30.70175 76.81441 91.64340
#
# Poissons Ratio (x) = 0.03704 0.21571
# Poissons Ratio (y) = 0.01480 0.06777
# Poissons Ratio (z) = 0.07227 0.05680
#
# Static dielectric constant tensor:
#      x y z
#    x 1.837030 -0.000010 -0.001840 
#    y -0.000010 1.806640 -0.000040 
#    z -0.001840 -0.000040 1.858930 
# 
# From -- ./inp_files/240869.got.cif
#   From: 2010.05.17/outbox.cif.g08.bks.cpg/sg15_121_cif.got.tgz:240869.got - 2010.06.03 18:47:42.
