data_PCOD9304105
_publ_section_title
;
Structure prediction by ZEFSAII (Michael W. Deem and Ramdas Pophale) SiO2 
 PCOD9304105
Probable space group: C 2/C
;
_chemical_formula_sum "Si O2"
_cell_formula_units_Z 32
_cell_length_a 16.603936
_cell_length_b 5.186424
_cell_length_c 14.435621
_cell_angle_alpha 90.000000
_cell_angle_beta 107.803666
_cell_angle_gamma 90.000000
_cell_volume 1183.590825
_symmetry_space_group_name_H-M "C 2/C"
_symmetry_group_IT_number 15
_symmetry_cell_setting 'monoclinic'
loop_
_space_group_symop_operation_xyz
x,y,z
-x,y,1/2-z
-x,-y,-z
x,-y,1/2+z
1/2+x,1/2+y,z
1/2-x,1/2+y,1/2-z
1/2-x,1/2-y,-z
1/2+x,1/2-y,1/2+z
loop_
_atom_site_type_symbol
_atom_site_label
_atom_site_fract_x
_atom_site_fract_y
_atom_site_fract_z
Si Si1 0.121985 0.105140 0.782627
Si Si2 0.576834 0.609531 0.465580
Si Si3 0.066028 0.590961 0.652981
Si Si4 0.793457 0.782503 0.916022
O O1 0.094758 0.052768 0.878640
O O2 0.075176 0.331616 0.712581
O O3 0.218773 0.207586 0.819529
O O4 0.101464 0.835169 0.724518
O O5 0.500000 0.500000 0.500000
O O6 0.531170 0.861803 0.408589
O O7 0.661483 0.563240 0.556552
O O8 0.128180 0.602693 0.586198
O O9 0.750000 0.750000 0.000000
#
# Coordination Sequence:
#
# PCOD9304105 Si02
#       4
#     8   8   8   8
#     4  11  23  42  68  98 134 179 227 281 340 406
#     4   9  21  43  66  97 136 178 225 279 341 407
#     4  11  23  42  67  99 135 178 228 283 340 408
#     4   9  20  43  67  98 136 179 226 281 344 409
#
# _framework density 27.036373999999999
#
# number of rings (size 3 to 8) (size 9 to 14) (size 15 to 20)
#    0.000    2.000    0.000    2.250    0.000    4.000 
#    0.000   50.000    0.000    3.000    0.000    0.000 
#    0.000    0.000    0.000    0.000    0.000    0.000 
#
# Total GULP energy -89472.685037 kJ/mol
# GULP energy per Si atom -5592.042815 kJ/mol
# Density = 2.697484 g / cm^3
# Si number density = 27.036374 Si / 1000 Ang^3
#
#
#
# Elastic Constant Matrix: (Units=GPa)
#
#
# Indices 1 2 3 4 5 6 
#
# 1 173.1805 45.8291 53.5813 0.0000 22.0623 0.0000
# 2 45.8291 164.6797 66.8131 0.0000 12.5875 0.0000
# 3 53.5813 66.8131 132.8550 0.0000 -5.2743 0.0000
# 4 0.0000 0.0000 0.0000 46.5549 0.0000 12.1743
# 5 22.0623 12.5875 -5.2743 0.0000 73.4068 0.0000
# 6 0.0000 0.0000 0.0000 12.1743 0.0000 32.7977
#
#
#
# Elastic Compliance Matrix: (Units=1/GPa)
#
#
# Indices 1 2 3 4 5 6 
#
# 1 0.007038 -0.000762 -0.002541 0.000000 -0.002167 0.000000
# 2 -0.000762 0.007901 -0.003721 0.000000 -0.001393 0.000000
# 3 -0.002541 -0.003721 0.010509 0.000000 0.002157 0.000000
# 4 0.000000 0.000000 0.000000 0.023789 0.000000 -0.008830
# 5 -0.002167 -0.001393 0.002157 0.000000 0.014668 0.000000
# 6 0.000000 0.000000 0.000000 -0.008830 0.000000 0.033768
#
#
# Mechanical properties :
#
#
# Convention : Reuss Voigt Hill
#
# Bulk Modulus (GPa) = 87.72913 89.24027 88.48470
# Shear Modulus (GPa) = 43.28173 50.85132 47.06652
#
# Velocity S-wave (km/s) = 4.00543 4.34158 4.17689
# Velocity P-wave (km/s) = 7.34236 7.62965 7.48738
#
# Compressibility (1/GPa) = 0.01139872
#
# Stress axis : x y z
#
# Youngs Moduli (GPa) = 142.07799 126.57086 95.15572
#
# Poissons Ratio (x) = 0.09644 0.24184
# Poissons Ratio (y) = 0.10826 0.35410
# Poissons Ratio (z) = 0.36109 0.47101
#
# Static dielectric constant tensor:
#      x y z
#    x 2.112210 0.000000 0.009010 
#    y 0.000000 2.205880 0.000000 
#    z 0.009010 0.000000 2.217580 
# 
# From -- ./inp_files/158036.got.cif
#   From: 2010.05.17/outbox.cif.g08.bks.cpg/sg15_80_cif.got.tgz:158036.got - 2010.06.03 18:47:42.
