data_PCOD9304177
_publ_section_title
;
Structure prediction by ZEFSAII (Michael W. Deem and Ramdas Pophale) SiO2 
 PCOD9304177
Probable space group: C 2/C
;
_chemical_formula_sum "Si O2"
_cell_formula_units_Z 52
_cell_length_a 13.276298
_cell_length_b 24.175329
_cell_length_c 9.056888
_cell_angle_alpha 90.000000
_cell_angle_beta 117.689588
_cell_angle_gamma 90.000000
_cell_volume 2573.986109
_symmetry_space_group_name_H-M "C 2/C"
_symmetry_group_IT_number 15
_symmetry_cell_setting 'monoclinic'
loop_
_space_group_symop_operation_xyz
x,y,z
-x,y,1/2-z
-x,-y,-z
x,-y,1/2+z
1/2+x,1/2+y,z
1/2-x,1/2+y,1/2-z
1/2-x,1/2-y,-z
1/2+x,1/2-y,1/2+z
loop_
_atom_site_type_symbol
_atom_site_label
_atom_site_fract_x
_atom_site_fract_y
_atom_site_fract_z
Si Si1 0.500000 0.132564 0.750000
Si Si2 0.414603 0.411676 0.964473
Si Si3 0.103858 0.539751 0.023943
Si Si4 0.868411 0.184978 0.202622
Si Si5 0.247269 0.997419 0.149816
Si Si6 0.835532 0.893988 0.242271
Si Si7 0.718240 0.198895 0.804563
O O1 0.447674 0.093246 0.588222
O O2 0.598145 0.170191 0.751211
O O3 0.373283 0.370328 0.806278
O O4 0.376589 0.475178 0.914121
O O5 0.358098 0.402497 0.086035
O O6 0.547555 0.400471 0.085025
O O7 0.173387 0.543926 0.221753
O O8 0.196073 0.516138 0.968422
O O9 0.000000 0.500000 0.000000
O O10 0.808605 0.237073 0.241766
O O11 0.000000 0.196965 0.250000
O O12 0.794991 0.184693 0.001773
O O13 0.246608 0.940174 0.241116
O O14 0.783856 0.833442 0.223313
#
# Coordination Sequence:
#
# PCOD9304177 Si02
#       7
#     4   8   8   8   8   8   8
#     4  12  22  38  66  96 126 172 214 264 314 394
#     4  11  25  40  64  94 130 167 219 263 330 383
#     4  12  22  38  62  89 129 170 209 264 319 382
#     4  11  23  44  69  96 126 170 218 281 319 393
#     4  12  23  41  60  93 131 171 215 261 325 395
#     4  11  23  43  63  94 131 174 208 272 323 386
#     4  11  23  42  71  95 128 167 222 264 335 381
#
# _framework density 20.20213
#
# number of rings (size 3 to 8) (size 9 to 14) (size 15 to 20)
#    0.000    0.615    6.923    1.385    0.000    0.615 
#    2.769    0.000    0.000    0.000    0.000    0.000 
#    0.000    0.000    0.000    0.000    0.000    0.000 
#
# Total GULP energy -145007.513772 kJ/mol
# GULP energy per Si atom -5577.212068 kJ/mol
# Density = 2.015615 g / cm^3
# Si number density = 20.202130 Si / 1000 Ang^3
#
#
#
# Elastic Constant Matrix: (Units=GPa)
#
#
# Indices 1 2 3 4 5 6 
#
# 1 65.5075 16.6457 -7.6580 0.0000 13.3916 0.0000
# 2 16.6457 68.9629 0.1587 0.0000 -8.4617 0.0000
# 3 -7.6580 0.1587 39.5951 0.0000 9.9217 0.0000
# 4 0.0000 0.0000 0.0000 9.7118 0.0000 -1.4529
# 5 13.3916 -8.4617 9.9217 0.0000 28.0884 0.0000
# 6 0.0000 0.0000 0.0000 -1.4529 0.0000 35.1871
#
#
#
# Elastic Compliance Matrix: (Units=1/GPa)
#
#
# Indices 1 2 3 4 5 6 
#
# 1 0.020959 -0.006896 0.007796 0.000000 -0.014824 0.000000
# 2 -0.006896 0.017388 -0.003884 0.000000 0.009898 0.000000
# 3 0.007796 -0.003884 0.030723 0.000000 -0.015739 0.000000
# 4 0.000000 0.000000 0.000000 0.103607 0.000000 0.004278
# 5 -0.014824 0.009898 -0.015739 0.000000 0.051211 0.000000
# 6 0.000000 0.000000 0.000000 0.004278 0.000000 0.028596
#
#
# Mechanical properties :
#
#
# Convention : Reuss Voigt Hill
#
# Bulk Modulus (GPa) = 15.84693 21.37314 18.61004
# Shear Modulus (GPa) = 17.88996 25.59208 21.74102
#
# Velocity S-wave (km/s) = 2.97904 3.56308 3.28407
# Velocity P-wave (km/s) = 4.43781 5.24690 4.85922
#
# Compressibility (1/GPa) = 0.06310370
#
# Stress axis : x y z
#
# Youngs Moduli (GPa) = 47.71119 57.50962 32.54906
#
# Poissons Ratio (x) = 0.39658 -0.25375
# Poissons Ratio (y) = 0.32901 0.12641
# Poissons Ratio (z) = -0.37195 0.22334
#
# Static dielectric constant tensor:
#      x y z
#    x 2.055670 0.000000 0.311750 
#    y 0.000000 1.720370 0.000000 
#    z 0.311750 0.000000 1.969600 
# 
# From -- ./inp_files/42309.got.cif
#   From: 2010.05.17/outbox.cif.g08.bks.cpg/sg15_22_cif.got.tgz:42309.got - 2010.06.03 18:47:42.
