data_PCOD9304088
_publ_section_title
;
Structure prediction by ZEFSAII (Michael W. Deem and Ramdas Pophale) SiO2 
 PCOD9304088
Probable space group: C 2/C
;
_chemical_formula_sum "Si O2"
_cell_formula_units_Z 56
_cell_length_a 14.188038
_cell_length_b 12.570513
_cell_length_c 27.898346
_cell_angle_alpha 90.000000
_cell_angle_beta 33.663079
_cell_angle_gamma 90.000000
_cell_volume 2758.068888
_symmetry_space_group_name_H-M "C 2/C"
_symmetry_group_IT_number 15
_symmetry_cell_setting 'monoclinic'
loop_
_space_group_symop_operation_xyz
x,y,z
-x,y,1/2-z
-x,-y,-z
x,-y,1/2+z
1/2+x,1/2+y,z
1/2-x,1/2+y,1/2-z
1/2-x,1/2-y,-z
1/2+x,1/2-y,1/2+z
loop_
_atom_site_type_symbol
_atom_site_label
_atom_site_fract_x
_atom_site_fract_y
_atom_site_fract_z
Si Si1 0.943056 0.454389 0.899073
Si Si2 0.768059 0.468355 0.795150
Si Si3 0.664303 0.428652 0.942655
Si Si4 0.082070 0.352668 0.025799
Si Si5 0.488499 0.796177 0.962693
Si Si6 0.851127 0.714555 0.773919
Si Si7 0.532607 0.344081 0.613668
O O1 0.781564 0.479594 0.934066
O O2 0.091824 0.419917 0.799767
O O3 0.909473 0.365161 0.953328
O O4 0.995276 0.560181 0.905769
O O5 0.769464 0.423329 0.848558
O O6 0.805089 0.593097 0.781995
O O7 0.581783 0.442937 0.853453
O O8 0.500000 0.500000 0.000000
O O9 0.607482 0.313678 0.985534
O O10 0.002873 0.358226 0.006862
O O11 0.285107 0.372127 0.941263
O O12 0.059311 0.234013 0.056848
O O13 0.681400 0.768714 0.865859
O O14 0.924900 0.776473 0.697345
O O15 0.000000 0.714065 0.750000
#
# Coordination Sequence:
#
# PCOD9304088 Si02
#       7
#     8   8   8   8   8   8   8
#     4  12  26  43  66  99 135 179 220 280 342 399
#     4  12  24  40  69 100 133 165 226 287 331 390
#     4  12  25  43  66  98 131 175 226 278 338 400
#     4  11  24  42  69  97 133 182 223 270 333 418
#     4  12  25  43  67  95 140 174 220 274 338 408
#     4  12  23  41  68 101 132 174 222 278 338 399
#     4  11  23  42  67 101 135 173 222 279 340 396
#
# _framework density 20.304061000000001
#
# number of rings (size 3 to 8) (size 9 to 14) (size 15 to 20)
#    0.000    0.286    7.143    3.000    2.000    0.000 
#    0.000    0.000    0.000    0.000    0.000    0.000 
#    0.000    0.000    0.000    0.000    0.000    0.000 
#
# Total GULP energy -156651.584751 kJ/mol
# GULP energy per Si atom -5594.699455 kJ/mol
# Density = 2.025785 g / cm^3
# Si number density = 20.304061 Si / 1000 Ang^3
#
#
#
# Elastic Constant Matrix: (Units=GPa)
#
#
# Indices 1 2 3 4 5 6 
#
# 1 115.1615 16.6663 27.6861 0.0001 16.6339 0.0000
# 2 16.6663 37.3222 0.7954 0.0001 9.1939 0.0000
# 3 27.6861 0.7954 83.1709 0.0000 19.0825 0.0000
# 4 0.0001 0.0001 0.0000 36.5023 0.0000 2.4545
# 5 16.6339 9.1939 19.0825 0.0000 31.1736 0.0000
# 6 0.0000 0.0000 0.0000 2.4545 0.0000 39.7629
#
#
#
# Elastic Compliance Matrix: (Units=1/GPa)
#
#
# Indices 1 2 3 4 5 6 
#
# 1 0.010297 -0.003888 -0.002784 0.000000 -0.002644 0.000000
# 2 -0.003888 0.030636 0.003023 0.000000 -0.008811 0.000000
# 3 -0.002784 0.003023 0.014874 0.000000 -0.008511 0.000000
# 4 0.000000 0.000000 0.000000 0.027510 0.000000 -0.001698
# 5 -0.002644 -0.008811 -0.008511 0.000000 0.041298 0.000000
# 6 0.000000 0.000000 0.000000 -0.001698 0.000000 0.025254
#
#
# Mechanical properties :
#
#
# Convention : Reuss Voigt Hill
#
# Bulk Modulus (GPa) = 20.61459 36.21671 28.41565
# Shear Modulus (GPa) = 28.84572 34.18823 31.51697
#
# Velocity S-wave (km/s) = 3.77329 4.10788 3.94413
# Velocity P-wave (km/s) = 5.39987 6.35417 5.89636
#
# Compressibility (1/GPa) = 0.04850934
#
# Stress axis : x y z
#
# Youngs Moduli (GPa) = 97.11329 32.64142 67.23146
#
# Poissons Ratio (x) = 0.12690 0.18717
# Poissons Ratio (y) = 0.37755 -0.20323
# Poissons Ratio (z) = 0.27037 -0.09867
#
# Static dielectric constant tensor:
#      x y z
#    x 1.703830 0.000000 0.016980 
#    y 0.000000 1.709190 0.000000 
#    z 0.016980 0.000000 1.738770 
# 
# From -- ./inp_files/313696.got.cif
#   From: 2010.05.17/outbox.cif.g08.bks.cpg/sg15_157_cif.got.tgz:313696.got - 2010.06.03 18:47:42.
