data_PCOD9304741
_publ_section_title
;
Structure prediction by ZEFSAII (Michael W. Deem and Ramdas Pophale) SiO2 
 PCOD9304741
Probable space group: C 2/C
;
_chemical_formula_sum "Si O2"
_cell_formula_units_Z 40
_cell_length_a 11.957783
_cell_length_b 6.871571
_cell_length_c 19.352190
_cell_angle_alpha 90.000000
_cell_angle_beta 75.273639
_cell_angle_gamma 90.000000
_cell_volume 1537.910513
_symmetry_space_group_name_H-M "C 2/C"
_symmetry_group_IT_number 15
_symmetry_cell_setting 'monoclinic'
loop_
_space_group_symop_operation_xyz
x,y,z
-x,y,1/2-z
-x,-y,-z
x,-y,1/2+z
1/2+x,1/2+y,z
1/2-x,1/2+y,1/2-z
1/2-x,1/2-y,-z
1/2+x,1/2-y,1/2+z
loop_
_atom_site_type_symbol
_atom_site_label
_atom_site_fract_x
_atom_site_fract_y
_atom_site_fract_z
Si Si1 0.736787 0.539889 0.390717
Si Si2 0.886391 0.538347 0.742672
Si Si3 0.381712 0.103468 0.994945
Si Si4 0.267386 0.500360 0.356674
Si Si5 0.502799 0.378714 0.869549
O O1 0.817738 0.426763 0.323744
O O2 0.796211 0.507660 0.455338
O O3 0.604140 0.499328 0.390198
O O4 0.744176 0.772680 0.376445
O O5 0.791484 0.448173 0.706894
O O6 0.940191 0.715554 0.689601
O O7 0.000000 0.421214 0.750000
O O8 0.431352 0.283466 0.944036
O O9 0.302911 0.122684 0.074841
O O10 0.500000 0.000000 0.000000
O O11 0.404590 0.517703 0.340501
#
# Coordination Sequence:
#
# PCOD9304741 Si02
#       5
#     8   8   8   8   8
#     4  11  25  45  71 101 139 183 232 285 342 411
#     4  11  23  46  69  95 143 186 222 291 346 395
#     4  12  22  48  75 101 147 181 221 290 353 404
#     4  11  26  44  74 107 134 187 233 280 348 415
#     4  11  26  47  70 101 144 179 233 287 341 420
#
# _framework density 26.009315999999998
#
# number of rings (size 3 to 8) (size 9 to 14) (size 15 to 20)
#    0.000    0.800    6.000    1.200    5.600    0.800 
#   14.400    0.000    0.000    0.000    0.000    0.000 
#    0.000    0.000    0.000    0.000    0.000    0.000 
#
# Total GULP energy -111958.372997 kJ/mol
# GULP energy per Si atom -5597.918650 kJ/mol
# Density = 2.595012 g / cm^3
# Si number density = 26.009316 Si / 1000 Ang^3
#
#
#
# Elastic Constant Matrix: (Units=GPa)
#
#
# Indices 1 2 3 4 5 6 
#
# 1 295.1811 42.4535 61.4746 0.0000 38.2345 0.0000
# 2 42.4535 57.6689 17.9648 0.0000 4.9588 0.0000
# 3 61.4746 17.9648 157.6374 0.0000 8.2737 0.0000
# 4 0.0000 0.0000 0.0000 28.1912 0.0000 -1.3223
# 5 38.2345 4.9588 8.2737 0.0000 64.7611 0.0000
# 6 0.0000 0.0000 0.0000 -1.3223 0.0000 46.3533
#
#
#
# Elastic Compliance Matrix: (Units=1/GPa)
#
#
# Indices 1 2 3 4 5 6 
#
# 1 0.004307 -0.002587 -0.001270 0.000000 -0.002182 0.000000
# 2 -0.002587 0.019614 -0.001236 0.000000 0.000184 0.000000
# 3 -0.001270 -0.001236 0.006982 0.000000 -0.000047 0.000000
# 4 0.000000 0.000000 0.000000 0.035520 0.000000 0.001013
# 5 -0.002182 0.000184 -0.000047 0.000000 0.016722 0.000000
# 6 0.000000 0.000000 0.000000 0.001013 0.000000 0.021602
#
#
# Mechanical properties :
#
#
# Convention : Reuss Voigt Hill
#
# Bulk Modulus (GPa) = 48.27019 83.80814 66.03917
# Shear Modulus (GPa) = 41.03732 53.76741 47.40236
#
# Velocity S-wave (km/s) = 3.97645 4.55162 4.27372
# Velocity P-wave (km/s) = 6.29937 7.74050 7.05682
#
# Compressibility (1/GPa) = 0.02071672
#
# Stress axis : x y z
#
# Youngs Moduli (GPa) = 232.17435 50.98321 143.21766
#
# Poissons Ratio (x) = 0.13191 0.18192
# Poissons Ratio (y) = 0.60072 0.17701
# Poissons Ratio (z) = 0.29492 0.06301
#
# Static dielectric constant tensor:
#      x y z
#    x 2.020780 0.000000 0.023190 
#    y 0.000000 2.227450 0.000000 
#    z 0.023190 0.000000 1.991190 
# 
# From -- ./inp_files/195106.got.cif
#   From: 2010.05.17/outbox.cif.g08.bks.cpg/sg15_98_cif.got.tgz:195106.got - 2010.06.03 18:47:42.
