data_PCOD9304010
_publ_section_title
;
Structure prediction by ZEFSAII (Michael W. Deem and Ramdas Pophale) SiO2 
 PCOD9304010
Probable space group: C 2/C
;
_chemical_formula_sum "Si O2"
_cell_formula_units_Z 48
_cell_length_a 20.933726
_cell_length_b 12.494900
_cell_length_c 10.498861
_cell_angle_alpha 90.000000
_cell_angle_beta 44.884077
_cell_angle_gamma 90.000000
_cell_volume 1937.876280
_symmetry_space_group_name_H-M "C 2/C"
_symmetry_group_IT_number 15
_symmetry_cell_setting 'monoclinic'
loop_
_space_group_symop_operation_xyz
x,y,z
-x,y,1/2-z
-x,-y,-z
x,-y,1/2+z
1/2+x,1/2+y,z
1/2-x,1/2+y,1/2-z
1/2-x,1/2-y,-z
1/2+x,1/2-y,1/2+z
loop_
_atom_site_type_symbol
_atom_site_label
_atom_site_fract_x
_atom_site_fract_y
_atom_site_fract_z
Si Si1 0.329082 0.104076 0.534281
Si Si2 0.118004 0.936830 0.773773
Si Si3 0.408943 0.752599 0.342813
Si Si4 0.132393 0.823157 0.326966
Si Si5 0.306902 0.060571 0.856454
Si Si6 0.959741 0.789172 0.427127
O O1 0.235762 0.167518 0.633171
O O2 0.308776 0.045283 0.700726
O O3 0.408571 0.185134 0.452237
O O4 0.353266 0.028229 0.381405
O O5 0.058748 0.857015 0.771072
O O6 0.207943 0.940293 0.561399
O O7 0.097018 0.055251 0.850639
O O8 0.115600 0.864823 0.903388
O O9 0.500000 0.814570 0.250000
O O10 0.358590 0.719970 0.542509
O O11 0.350604 0.824637 0.330309
O O12 0.050066 0.758780 0.378919
O O13 0.000000 0.851928 0.250000
#
# Coordination Sequence:
#
# PCOD9304010 Si02
#       6
#     8   8   8   8   8   8
#     4  11  25  48  73 107 145 194 250 305 365 436
#     4  11  23  41  70 100 140 179 242 300 359 435
#     4  12  22  40  71  99 139 189 241 292 364 438
#     4  11  25  40  73 106 138 190 241 303 368 431
#     4  11  24  45  75 104 143 194 248 302 362 442
#     4  12  27  44  68 106 152 186 238 308 371 436
#
# _framework density 24.769383999999999
#
# number of rings (size 3 to 8) (size 9 to 14) (size 15 to 20)
#    0.000    0.667    5.000    2.000    2.333    4.000 
#    0.000    2.500    0.000    0.000    0.000    0.000 
#    0.000    0.000    0.000    0.000    0.000    0.000 
#
# Total GULP energy -133930.242103 kJ/mol
# GULP energy per Si atom -5580.426754 kJ/mol
# Density = 2.471301 g / cm^3
# Si number density = 24.769384 Si / 1000 Ang^3
#
#
#
# Elastic Constant Matrix: (Units=GPa)
#
#
# Indices 1 2 3 4 5 6 
#
# 1 87.4462 35.9002 5.5012 0.0000 -12.3375 0.0000
# 2 35.9002 78.0505 28.8886 0.0000 -8.0278 0.0000
# 3 5.5012 28.8886 75.4403 0.0000 12.6496 0.0000
# 4 0.0000 0.0000 0.0000 31.7747 0.0000 4.6805
# 5 -12.3375 -8.0278 12.6496 0.0000 39.4604 0.0000
# 6 0.0000 0.0000 0.0000 4.6805 0.0000 45.2601
#
#
#
# Elastic Compliance Matrix: (Units=1/GPa)
#
#
# Indices 1 2 3 4 5 6 
#
# 1 0.014559 -0.006802 0.001069 0.000000 0.002826 0.000000
# 2 -0.006802 0.019165 -0.007546 0.000000 0.004191 0.000000
# 3 0.001069 -0.007546 0.017192 0.000000 -0.006712 0.000000
# 4 0.000000 0.000000 0.000000 0.031958 0.000000 -0.003305
# 5 0.002826 0.004191 -0.006712 0.000000 0.029230 0.000000
# 6 0.000000 0.000000 0.000000 -0.003305 0.000000 0.022436
#
#
# Mechanical properties :
#
#
# Convention : Reuss Voigt Hill
#
# Bulk Modulus (GPa) = 41.05074 42.39080 41.72077
# Shear Modulus (GPa) = 29.54780 34.67552 32.11166
#
# Velocity S-wave (km/s) = 3.45761 3.74563 3.60450
# Velocity P-wave (km/s) = 5.70519 5.98813 5.84837
#
# Compressibility (1/GPa) = 0.02436010
#
# Stress axis : x y z
#
# Youngs Moduli (GPa) = 68.68391 52.17925 58.16512
#
# Poissons Ratio (x) = 0.35492 -0.06219
# Poissons Ratio (y) = 0.46718 0.43889
# Poissons Ratio (z) = -0.07344 0.39372
#
# Static dielectric constant tensor:
#      x y z
#    x 2.113130 0.000000 0.069180 
#    y 0.000000 2.024140 0.000000 
#    z 0.069180 0.000000 2.064060 
# 
# From -- ./inp_files/111463.got.cif
#   From: 2010.05.17/outbox.cif.g08.bks.cpg/sg15_56_cif.got.tgz:111463.got - 2010.06.03 18:47:42.
