data_PCOD9304979
_publ_section_title
;
Structure prediction by ZEFSAII (Michael W. Deem and Ramdas Pophale) SiO2 
 PCOD9304979
Probable space group: C 2/C
;
_chemical_formula_sum "Si O2"
_cell_formula_units_Z 40
_cell_length_a 18.541218
_cell_length_b 9.967310
_cell_length_c 12.394601
_cell_angle_alpha 90.000000
_cell_angle_beta 138.012943
_cell_angle_gamma 90.000000
_cell_volume 1532.324301
_symmetry_space_group_name_H-M "C 2/C"
_symmetry_group_IT_number 15
_symmetry_cell_setting 'monoclinic'
loop_
_space_group_symop_operation_xyz
x,y,z
-x,y,1/2-z
-x,-y,-z
x,-y,1/2+z
1/2+x,1/2+y,z
1/2-x,1/2+y,1/2-z
1/2-x,1/2-y,-z
1/2+x,1/2-y,1/2+z
loop_
_atom_site_type_symbol
_atom_site_label
_atom_site_fract_x
_atom_site_fract_y
_atom_site_fract_z
Si Si1 0.460768 0.871217 0.887370
Si Si2 0.838607 0.070297 0.269082
Si Si3 0.146853 0.435018 0.949411
Si Si4 0.644456 0.772477 0.518408
Si Si5 0.061185 0.998236 0.910639
O O1 0.371710 0.896203 0.695033
O O2 0.608823 0.091192 0.919422
O O3 0.500000 0.000000 0.000000
O O4 0.569486 0.844831 0.938951
O O5 0.589432 0.223707 0.076250
O O6 0.958257 0.056624 0.360873
O O7 0.765404 0.952858 0.132769
O O8 0.851416 0.056253 0.411664
O O9 0.272368 0.705288 0.172913
O O10 0.617467 0.636429 0.428377
O O11 0.000000 0.080312 0.750000
#
# Coordination Sequence:
#
# PCOD9304979 Si02
#       5
#     8   8   8   8   8
#     4   9  16  30  58  85 127 148 194 249 293 338
#     4   9  23  41  57  88 126 156 197 247 312 354
#     4   8  18  35  57  88 119 160 194 246 299 347
#     4   9  21  36  61  90 115 159 206 242 295 358
#     4  11  24  40  64  89 121 158 202 251 298 361
#
# _framework density 26.104134999999999
#
# number of rings (size 3 to 8) (size 9 to 14) (size 15 to 20)
#    1.200    1.600    0.000    0.000    8.400    2.400 
#    0.000    1.000   17.600    0.000    0.000    0.000 
#    0.000    0.000    0.000    0.000    0.000    0.000 
#
# Total GULP energy -111537.795993 kJ/mol
# GULP energy per Si atom -5576.889800 kJ/mol
# Density = 2.604472 g / cm^3
# Si number density = 26.104135 Si / 1000 Ang^3
#
#
#
# Elastic Constant Matrix: (Units=GPa)
#
#
# Indices 1 2 3 4 5 6 
#
# 1 86.3510 6.8980 33.6562 0.0000 -2.3735 0.0000
# 2 6.8980 60.7269 35.4855 0.0000 -4.8301 0.0000
# 3 33.6562 35.4855 200.8354 0.0000 -14.5933 0.0000
# 4 0.0000 0.0000 0.0000 37.9514 0.0000 2.9634
# 5 -2.3735 -4.8301 -14.5933 0.0000 54.2263 0.0000
# 6 0.0000 0.0000 0.0000 2.9634 0.0000 5.9165
#
#
#
# Elastic Compliance Matrix: (Units=1/GPa)
#
#
# Indices 1 2 3 4 5 6 
#
# 1 0.012392 -0.000218 -0.002040 0.000000 -0.000026 0.000000
# 2 -0.000218 0.018399 -0.003158 0.000000 0.000780 0.000000
# 3 -0.002040 -0.003158 0.005969 0.000000 0.001236 0.000000
# 4 0.000000 0.000000 0.000000 0.027422 0.000000 -0.013735
# 5 -0.000026 0.000780 0.001236 0.000000 0.018842 0.000000
# 6 0.000000 0.000000 0.000000 -0.013735 0.000000 0.175898
#
#
# Mechanical properties :
#
#
# Convention : Reuss Voigt Hill
#
# Bulk Modulus (GPa) = 38.56639 55.55473 47.06056
# Shear Modulus (GPa) = 17.95999 37.74377 27.85188
#
# Velocity S-wave (km/s) = 2.62585 3.80661 3.26997
# Velocity P-wave (km/s) = 4.89893 6.37562 5.68543
#
# Compressibility (1/GPa) = 0.02592931
#
# Stress axis : x y z
#
# Youngs Moduli (GPa) = 80.69405 54.35036 167.53654
#
# Poissons Ratio (x) = 0.01182 0.34181
# Poissons Ratio (y) = 0.01756 0.52905
# Poissons Ratio (z) = 0.16463 0.17163
#
# Static dielectric constant tensor:
#      x y z
#    x 2.152810 0.000000 -0.063530 
#    y 0.000000 2.019500 0.000000 
#    z -0.063530 0.000000 2.058520 
# 
# From -- ./inp_files/173232.got.cif
#   From: 2010.05.17/outbox.cif.g08.bks.cpg/sg15_87_cif.got.tgz:173232.got - 2010.06.03 18:47:42.
