data_PCOD9304369
_publ_section_title
;
Structure prediction by ZEFSAII (Michael W. Deem and Ramdas Pophale) SiO2 
 PCOD9304369
Probable space group: C 2/C
;
_chemical_formula_sum "Si O2"
_cell_formula_units_Z 64
_cell_length_a 24.148114
_cell_length_b 21.449148
_cell_length_c 17.838280
_cell_angle_alpha 90.000000
_cell_angle_beta 160.956652
_cell_angle_gamma 90.000000
_cell_volume 3014.680067
_symmetry_space_group_name_H-M "C 2/C"
_symmetry_group_IT_number 15
_symmetry_cell_setting 'monoclinic'
loop_
_space_group_symop_operation_xyz
x,y,z
-x,y,1/2-z
-x,-y,-z
x,-y,1/2+z
1/2+x,1/2+y,z
1/2-x,1/2+y,1/2-z
1/2-x,1/2-y,-z
1/2+x,1/2-y,1/2+z
loop_
_atom_site_type_symbol
_atom_site_label
_atom_site_fract_x
_atom_site_fract_y
_atom_site_fract_z
Si Si1 0.111389 0.856445 0.024829
Si Si2 0.048789 0.266863 0.234830
Si Si3 0.477300 0.271679 0.136076
Si Si4 0.813029 0.652284 0.322339
Si Si5 0.126222 0.945304 0.694996
Si Si6 0.843687 0.445924 0.498768
Si Si7 0.557834 0.068716 0.548112
Si Si8 0.279186 0.321750 0.170556
O O1 0.048392 0.799712 0.894210
O O2 0.969676 0.906650 0.864459
O O3 0.273605 0.895977 0.204613
O O4 0.145038 0.824087 0.149302
O O5 0.250000 0.250000 0.500000
O O6 0.000000 0.299536 0.250000
O O7 0.958600 0.308976 0.054527
O O8 0.500000 0.296934 0.250000
O O9 0.635259 0.278737 0.282484
O O10 0.325005 0.304049 0.894590
O O11 0.412688 0.201142 0.063714
O O12 0.709558 0.603352 0.242763
O O13 0.906410 0.613855 0.377113
O O14 0.000000 0.000000 0.500000
O O15 0.275152 0.985470 0.921373
O O16 0.896225 0.437588 0.479937
O O17 0.706661 0.392359 0.339676
O O18 0.000000 0.433481 0.750000
O O19 0.500000 0.000000 0.500000
#
# Coordination Sequence:
#
# PCOD9304369 Si02
#       8
#     8   8   8   8   8   8   8   8
#     4  11  23  43  72  93 138 183 224 285 354 400
#     4  12  27  46  69 105 141 181 238 289 346 419
#     4  12  26  41  68 102 134 177 225 275 350 418
#     4  12  25  43  73  97 142 180 230 286 353 407
#     4  12  21  45  70  95 130 187 229 277 346 413
#     4  11  25  42  69  98 136 174 233 284 339 407
#     4  11  23  44  69  96 132 183 229 280 351 413
#     4  11  24  43  67  96 137 177 218 280 344 410
#
# _framework density 21.229448999999999
#
# number of rings (size 3 to 8) (size 9 to 14) (size 15 to 20)
#    0.000    0.500    6.250    2.250    5.250    1.500 
#    2.250    0.000    0.000    0.000    0.000    0.000 
#    0.000    0.000    0.000    0.000    0.000    0.000 
#
# Total GULP energy -178506.708104 kJ/mol
# GULP energy per Si atom -5578.334628 kJ/mol
# Density = 2.118113 g / cm^3
# Si number density = 21.229449 Si / 1000 Ang^3
#
#
#
# Elastic Constant Matrix: (Units=GPa)
#
#
# Indices 1 2 3 4 5 6 
#
# 1 51.2842 18.6793 20.0225 0.0000 8.5626 0.0000
# 2 18.6793 112.6478 30.1504 0.0000 3.1362 0.0000
# 3 20.0225 30.1504 81.7464 0.0000 -5.6697 0.0000
# 4 0.0000 0.0000 0.0000 28.3069 0.0000 12.5948
# 5 8.5626 3.1362 -5.6697 0.0000 43.1258 0.0000
# 6 0.0000 0.0000 0.0000 12.5948 0.0000 33.1849
#
#
#
# Elastic Compliance Matrix: (Units=1/GPa)
#
#
# Indices 1 2 3 4 5 6 
#
# 1 0.023226 -0.002320 -0.005189 0.000000 -0.005125 0.000000
# 2 -0.002320 0.010144 -0.003222 0.000000 -0.000701 0.000000
# 3 -0.005189 -0.003222 0.014916 0.000000 0.003225 0.000000
# 4 0.000000 0.000000 0.000000 0.042505 0.000000 -0.016132
# 5 -0.005125 -0.000701 0.003225 0.000000 0.024681 0.000000
# 6 0.000000 0.000000 0.000000 -0.016132 0.000000 0.036257
#
#
# Mechanical properties :
#
#
# Convention : Reuss Voigt Hill
#
# Bulk Modulus (GPa) = 37.27889 42.59810 39.93850
# Shear Modulus (GPa) = 27.45311 32.71194 30.08252
#
# Velocity S-wave (km/s) = 3.59996 3.92966 3.76841
# Velocity P-wave (km/s) = 5.90573 6.37956 6.14721
#
# Compressibility (1/GPa) = 0.02682483
#
# Stress axis : x y z
#
# Youngs Moduli (GPa) = 43.05606 98.58331 67.04317
#
# Poissons Ratio (x) = 0.22870 0.34786
# Poissons Ratio (y) = 0.09988 0.21599
# Poissons Ratio (z) = 0.22340 0.31760
#
# Static dielectric constant tensor:
#      x y z
#    x 1.772450 0.000000 0.028960 
#    y 0.000000 1.857130 0.000000 
#    z 0.028960 0.000000 1.845070 
# 
# From -- ./inp_files/220303.got.cif
#   From: 2010.05.17/outbox.cif.g08.bks.cpg/sg15_111_cif.got.tgz:220303.got - 2010.06.03 18:47:42.
