data_PCOD9304319
_publ_section_title
;
Structure prediction by ZEFSAII (Michael W. Deem and Ramdas Pophale) SiO2 
 PCOD9304319
Probable space group: C 2/C
;
_chemical_formula_sum "Si O2"
_cell_formula_units_Z 44
_cell_length_a 8.680119
_cell_length_b 23.153088
_cell_length_c 10.724548
_cell_angle_alpha 90.000000
_cell_angle_beta 74.471090
_cell_angle_gamma 90.000000
_cell_volume 2076.649895
_symmetry_space_group_name_H-M "C 2/C"
_symmetry_group_IT_number 15
_symmetry_cell_setting 'monoclinic'
loop_
_space_group_symop_operation_xyz
x,y,z
-x,y,1/2-z
-x,-y,-z
x,-y,1/2+z
1/2+x,1/2+y,z
1/2-x,1/2+y,1/2-z
1/2-x,1/2-y,-z
1/2+x,1/2-y,1/2+z
loop_
_atom_site_type_symbol
_atom_site_label
_atom_site_fract_x
_atom_site_fract_y
_atom_site_fract_z
Si Si1 0.320117 0.313820 0.517659
Si Si2 0.922781 0.735878 0.005386
Si Si3 0.890742 0.489696 0.647063
Si Si4 0.303094 0.604389 0.795197
Si Si5 0.500000 0.833270 0.250000
Si Si6 0.341197 0.135298 0.211006
O O1 0.250000 0.250000 0.500000
O O2 0.503646 0.296038 0.465217
O O3 0.266204 0.360864 0.430728
O O4 0.281431 0.337415 0.663335
O O5 0.903244 0.686300 0.110465
O O6 0.750000 0.750000 0.000000
O O7 0.006867 0.708441 0.867558
O O8 0.755362 0.538745 0.681044
O O9 0.805510 0.426454 0.657228
O O10 0.000000 0.496147 0.750000
O O11 0.000000 0.500000 0.500000
O O12 0.500000 0.607623 0.750000
O O13 0.169415 0.631136 0.725141
O O14 0.500000 0.119601 0.250000
#
# Coordination Sequence:
#
# PCOD9304319 Si02
#       6
#     8   8   8   8   4   8
#     4  12  24  44  70 100 145 185 238 301 376 442
#     4  12  25  40  68 101 140 184 239 297 371 446
#     4  11  24  48  78 104 146 200 256 313 377 453
#     4  12  26  45  73 106 144 197 245 308 377 449
#     4  12  22  44  66 102 144 186 240 302 364 446
#     4  11  23  43  70 101 136 190 239 296 370 440
#
# _framework density 21.187971999999998
#
# number of rings (size 3 to 8) (size 9 to 14) (size 15 to 20)
#    0.000    0.364    4.545    5.455    2.545    0.000 
#    3.273    1.818    0.000    0.000    0.000    0.000 
#    0.000    0.000    0.000    0.000    0.000    0.000 
#
# Total GULP energy -122514.699013 kJ/mol
# GULP energy per Si atom -5568.849955 kJ/mol
# Density = 2.113975 g / cm^3
# Si number density = 21.187972 Si / 1000 Ang^3
#
#
#
# Elastic Constant Matrix: (Units=GPa)
#
#
# Indices 1 2 3 4 5 6 
#
# 1 101.2931 19.8490 7.6307 0.0000 -5.8984 0.0000
# 2 19.8490 142.0157 53.0022 0.0000 -6.9158 0.0000
# 3 7.6307 53.0022 108.8459 0.0000 8.9531 0.0000
# 4 0.0000 0.0000 0.0000 12.2605 0.0000 -1.7347
# 5 -5.8984 -6.9158 8.9531 0.0000 21.2065 0.0000
# 6 0.0000 0.0000 0.0000 -1.7347 0.0000 35.5648
#
#
#
# Elastic Compliance Matrix: (Units=1/GPa)
#
#
# Indices 1 2 3 4 5 6 
#
# 1 0.010283 -0.001172 -0.000367 0.000000 0.002633 0.000000
# 2 -0.001172 0.009225 -0.004797 0.000000 0.004708 0.000000
# 3 -0.000367 -0.004797 0.012106 0.000000 -0.006778 0.000000
# 4 0.000000 0.000000 0.000000 0.082129 0.000000 0.004006
# 5 0.002633 0.004708 -0.006778 0.000000 0.052284 0.000000
# 6 0.000000 0.000000 0.000000 0.004006 0.000000 0.028313
#
#
# Mechanical properties :
#
#
# Convention : Reuss Voigt Hill
#
# Bulk Modulus (GPa) = 52.79147 57.01317 54.90232
# Shear Modulus (GPa) = 23.43820 31.91788 27.67804
#
# Velocity S-wave (km/s) = 3.32957 3.88547 3.61821
# Velocity P-wave (km/s) = 6.30486 6.86264 6.58965
#
# Compressibility (1/GPa) = 0.01894245
#
# Stress axis : x y z
#
# Youngs Moduli (GPa) = 97.24825 108.40233 82.60083
#
# Poissons Ratio (x) = 0.12707 0.03029
# Poissons Ratio (y) = 0.11399 0.39624
# Poissons Ratio (z) = 0.03566 0.52002
#
# Static dielectric constant tensor:
#      x y z
#    x 1.902170 0.000000 0.031730 
#    y 0.000000 1.757340 0.000000 
#    z 0.031730 0.000000 1.844150 
# 
# From -- ./inp_files/78147.got.cif
#   From: 2010.05.17/outbox.cif.g08.bks.cpg/sg15_40_cif.got.tgz:78147.got - 2010.06.03 18:47:42.
