data_PCOD9304199
_publ_section_title
;
Structure prediction by ZEFSAII (Michael W. Deem and Ramdas Pophale) SiO2 
 PCOD9304199
Probable space group: C 2/C
;
_chemical_formula_sum "Si O2"
_cell_formula_units_Z 60
_cell_length_a 14.547455
_cell_length_b 13.008950
_cell_length_c 18.254714
_cell_angle_alpha 90.000000
_cell_angle_beta 114.082231
_cell_angle_gamma 90.000000
_cell_volume 3153.961701
_symmetry_space_group_name_H-M "C 2/C"
_symmetry_group_IT_number 15
_symmetry_cell_setting 'monoclinic'
loop_
_space_group_symop_operation_xyz
x,y,z
-x,y,1/2-z
-x,-y,-z
x,-y,1/2+z
1/2+x,1/2+y,z
1/2-x,1/2+y,1/2-z
1/2-x,1/2-y,-z
1/2+x,1/2-y,1/2+z
loop_
_atom_site_type_symbol
_atom_site_label
_atom_site_fract_x
_atom_site_fract_y
_atom_site_fract_z
Si Si1 0.204653 0.074595 0.970828
Si Si2 0.501740 0.707752 0.905444
Si Si3 0.205085 0.915462 0.163573
Si Si4 0.218424 0.360613 0.461576
Si Si5 0.000000 0.326612 0.750000
Si Si6 0.006953 0.615675 0.972119
Si Si7 0.709550 0.851901 0.154064
Si Si8 0.216121 0.625367 0.354021
O O1 0.244885 0.093213 0.902757
O O2 0.100515 0.136355 0.946945
O O3 0.280841 0.121263 0.056542
O O4 0.207140 0.952608 0.987550
O O5 0.403508 0.636292 0.880129
O O6 0.501704 0.757371 0.824016
O O7 0.495151 0.799269 0.963284
O O8 0.276155 0.865908 0.124369
O O9 0.246797 0.897339 0.257675
O O10 0.209552 0.036346 0.148246
O O11 0.250000 0.250000 0.500000
O O12 0.109044 0.380270 0.459161
O O13 0.103334 0.390431 0.787732
O O14 0.909883 0.638288 0.891035
O O15 0.000000 0.500000 0.000000
O O16 0.745392 0.734628 0.159914
#
# Coordination Sequence:
#
# PCOD9304199 Si02
#       8
#     8   8   8   8   4   8   8   8
#     4  11  23  42  73  97 133 173 236 274 331 398
#     4  12  23  44  69  98 134 180 224 273 340 402
#     4  11  27  41  66 100 141 175 219 275 350 388
#     4  11  25  46  65  99 139 180 219 272 335 413
#     4  12  24  38  70  98 134 168 224 288 332 380
#     4  12  26  41  73  97 129 186 229 267 342 404
#     4  12  23  43  67 103 136 169 227 288 331 391
#     4  11  24  41  66 102 133 172 226 286 324 400
#
# _framework density 19.023693000000002
#
# number of rings (size 3 to 8) (size 9 to 14) (size 15 to 20)
#    0.000    0.533    6.667    1.200    3.733    4.800 
#    0.000    0.000    0.000    3.200    0.000    0.000 
#    0.000    0.000    0.000    0.000    0.000    0.000 
#
# Total GULP energy -167694.469094 kJ/mol
# GULP energy per Si atom -5589.815636 kJ/mol
# Density = 1.898039 g / cm^3
# Si number density = 19.023693 Si / 1000 Ang^3
#
#
#
# Elastic Constant Matrix: (Units=GPa)
#
#
# Indices 1 2 3 4 5 6 
#
# 1 110.8025 32.4816 44.5238 0.0000 7.7150 0.0000
# 2 32.4816 86.7016 42.0663 0.0000 -0.5256 0.0000
# 3 44.5238 42.0663 129.5135 0.0000 -1.5947 0.0000
# 4 0.0000 0.0000 0.0000 21.1492 0.0000 1.5843
# 5 7.7150 -0.5256 -1.5947 0.0000 39.5486 0.0000
# 6 0.0000 0.0000 0.0000 1.5843 0.0000 35.1131
#
#
#
# Elastic Compliance Matrix: (Units=1/GPa)
#
#
# Indices 1 2 3 4 5 6 
#
# 1 0.011195 -0.002762 -0.002980 0.000000 -0.002341 0.000000
# 2 -0.002762 0.014373 -0.003712 0.000000 0.000580 0.000000
# 3 -0.002980 -0.003712 0.009963 0.000000 0.000934 0.000000
# 4 0.000000 0.000000 0.000000 0.047444 0.000000 -0.002141
# 5 -0.002341 0.000580 0.000934 0.000000 0.025787 0.000000
# 6 0.000000 0.000000 0.000000 -0.002141 0.000000 0.028576
#
#
# Mechanical properties :
#
#
# Convention : Reuss Voigt Hill
#
# Bulk Modulus (GPa) = 60.15898 62.79565 61.47732
# Shear Modulus (GPa) = 30.90468 33.02521 31.96495
#
# Velocity S-wave (km/s) = 4.03493 4.17106 4.10356
# Velocity P-wave (km/s) = 7.30749 7.50185 7.40531
#
# Compressibility (1/GPa) = 0.01662262
#
# Stress axis : x y z
#
# Youngs Moduli (GPa) = 89.32212 69.57469 100.37330
#
# Poissons Ratio (x) = 0.19219 0.29914
# Poissons Ratio (y) = 0.24674 0.37255
# Poissons Ratio (z) = 0.26621 0.25823
#
# Static dielectric constant tensor:
#      x y z
#    x 1.663620 0.000000 -0.003910 
#    y 0.000000 1.662670 0.000000 
#    z -0.003910 0.000000 1.665500 
# 
# From -- ./inp_files/204517.got.cif
#   From: 2010.05.17/outbox.cif.g08.bks.cpg/sg15_103_cif.got.tgz:204517.got - 2010.06.03 18:47:42.
