data_PCOD9304633
_publ_section_title
;
Structure prediction by ZEFSAII (Michael W. Deem and Ramdas Pophale) SiO2 
 PCOD9304633
Probable space group: C 2/C
;
_chemical_formula_sum "Si O2"
_cell_formula_units_Z 48
_cell_length_a 15.744621
_cell_length_b 12.894520
_cell_length_c 11.760265
_cell_angle_alpha 90.000000
_cell_angle_beta 118.989772
_cell_angle_gamma 90.000000
_cell_volume 2088.414609
_symmetry_space_group_name_H-M "C 2/C"
_symmetry_group_IT_number 15
_symmetry_cell_setting 'monoclinic'
loop_
_space_group_symop_operation_xyz
x,y,z
-x,y,1/2-z
-x,-y,-z
x,-y,1/2+z
1/2+x,1/2+y,z
1/2-x,1/2+y,1/2-z
1/2-x,1/2-y,-z
1/2+x,1/2-y,1/2+z
loop_
_atom_site_type_symbol
_atom_site_label
_atom_site_fract_x
_atom_site_fract_y
_atom_site_fract_z
Si Si1 0.939713 0.221677 0.818921
Si Si2 0.748941 0.238318 0.184884
Si Si3 0.280042 0.581374 0.008718
Si Si4 0.073821 0.495707 0.392466
Si Si5 0.439879 0.833689 0.423053
Si Si6 0.518129 0.505142 0.877013
O O1 0.834368 0.269844 0.772954
O O2 0.000000 0.259614 0.750000
O O3 0.942139 0.098537 0.802612
O O4 0.006174 0.245419 0.970811
O O5 0.768493 0.133446 0.126505
O O6 0.848071 0.285978 0.299163
O O7 0.704725 0.322057 0.066979
O O8 0.364839 0.498465 0.050096
O O9 0.177927 0.530773 0.910876
O O10 0.087880 0.575883 0.504892
O O11 0.000000 0.534670 0.250000
O O12 0.021691 0.390186 0.401077
O O13 0.500000 0.434136 0.750000
O O14 0.500000 0.500000 0.000000
#
# Coordination Sequence:
#
# PCOD9304633 Si02
#       6
#     8   8   8   8   8   8
#     4  11  25  47  65 104 150 185 240 309 380 448
#     4  11  24  44  73 101 142 186 250 297 372 457
#     4  11  24  44  73 104 135 192 243 305 365 448
#     4  11  23  45  71 102 141 184 245 304 365 446
#     4  11  25  44  70 102 140 189 240 304 374 446
#     4  11  26  46  72 108 148 190 243 308 374 448
#
# _framework density 22.983943
#
# number of rings (size 3 to 8) (size 9 to 14) (size 15 to 20)
#    0.000    1.000    5.000    0.500    7.000    0.667 
#    3.000    0.000    0.000    0.000    0.000    0.000 
#    0.000    0.000    0.000    0.000    0.000    0.000 
#
# Total GULP energy -133771.052345 kJ/mol
# GULP energy per Si atom -5573.793848 kJ/mol
# Density = 2.293163 g / cm^3
# Si number density = 22.983943 Si / 1000 Ang^3
#
#
#
# Elastic Constant Matrix: (Units=GPa)
#
#
# Indices 1 2 3 4 5 6 
#
# 1 172.0007 26.6677 45.5948 0.0000 13.7043 0.0000
# 2 26.6677 58.6614 16.2435 0.0000 6.9379 0.0000
# 3 45.5948 16.2435 120.1606 0.0000 6.2819 0.0000
# 4 0.0000 0.0000 0.0000 25.5254 0.0000 -1.3790
# 5 13.7043 6.9379 6.2819 0.0000 37.5346 0.0000
# 6 0.0000 0.0000 0.0000 -1.3790 0.0000 9.1181
#
#
#
# Elastic Compliance Matrix: (Units=1/GPa)
#
#
# Indices 1 2 3 4 5 6 
#
# 1 0.006897 -0.002319 -0.002214 0.000000 -0.001719 0.000000
# 2 -0.002319 0.018808 -0.001538 0.000000 -0.002372 0.000000
# 3 -0.002214 -0.001538 0.009395 0.000000 -0.000480 0.000000
# 4 0.000000 0.000000 0.000000 0.039499 0.000000 0.005974
# 5 -0.001719 -0.002372 -0.000480 0.000000 0.027789 0.000000
# 6 0.000000 0.000000 0.000000 0.005974 0.000000 0.110576
#
#
# Mechanical properties :
#
#
# Convention : Reuss Voigt Hill
#
# Bulk Modulus (GPa) = 43.55864 58.64830 51.10347
# Shear Modulus (GPa) = 21.48140 31.92341 26.70241
#
# Velocity S-wave (km/s) = 3.06048 3.73090 3.41219
# Velocity P-wave (km/s) = 5.61085 6.64319 6.14872
#
# Compressibility (1/GPa) = 0.02295756
#
# Stress axis : x y z
#
# Youngs Moduli (GPa) = 144.98378 53.16925 106.43661
#
# Poissons Ratio (x) = 0.12331 0.23563
# Poissons Ratio (y) = 0.33625 0.16375
# Poissons Ratio (z) = 0.32096 0.08180
#
# Static dielectric constant tensor:
#      x y z
#    x 1.902940 0.000000 -0.133940 
#    y 0.000000 1.923420 0.000000 
#    z -0.133940 0.000000 1.973720 
# 
# From -- ./inp_files/97162.got.cif
#   From: 2010.05.17/outbox.cif.g08.bks.cpg/sg15_49_cif.got.tgz:97162.got - 2010.06.03 18:47:42.
