data_PCOD9304957
_publ_section_title
;
Structure prediction by ZEFSAII (Michael W. Deem and Ramdas Pophale) SiO2 
 PCOD9304957
Probable space group: C 2/C
;
_chemical_formula_sum "Si O2"
_cell_formula_units_Z 64
_cell_length_a 9.055543
_cell_length_b 28.460699
_cell_length_c 15.792675
_cell_angle_alpha 90.000000
_cell_angle_beta 46.181515
_cell_angle_gamma 90.000000
_cell_volume 2936.799494
_symmetry_space_group_name_H-M "C 2/C"
_symmetry_group_IT_number 15
_symmetry_cell_setting 'monoclinic'
loop_
_space_group_symop_operation_xyz
x,y,z
-x,y,1/2-z
-x,-y,-z
x,-y,1/2+z
1/2+x,1/2+y,z
1/2-x,1/2+y,1/2-z
1/2-x,1/2-y,-z
1/2+x,1/2-y,1/2+z
loop_
_atom_site_type_symbol
_atom_site_label
_atom_site_fract_x
_atom_site_fract_y
_atom_site_fract_z
Si Si1 0.140876 0.008308 0.768472
Si Si2 0.558649 0.029424 0.126725
Si Si3 0.910878 0.706658 0.871448
Si Si4 0.249446 0.404991 0.161687
Si Si5 0.293766 0.311592 0.881221
Si Si6 0.502502 0.110740 0.027051
Si Si7 0.290781 0.333700 0.290624
Si Si8 0.321515 0.556389 0.463200
O O1 0.168961 0.048393 0.825386
O O2 0.000000 0.027045 0.750000
O O3 0.368988 0.994988 0.653359
O O4 0.034176 0.959761 0.838970
O O5 0.500000 0.031844 0.250000
O O6 0.582229 0.079876 0.073379
O O7 0.738247 0.992926 0.035304
O O8 0.808925 0.754725 0.879158
O O9 0.000000 0.684111 0.750000
O O10 0.121613 0.707238 0.842762
O O11 0.756738 0.681302 0.997899
O O12 0.321922 0.361732 0.190451
O O13 0.000000 0.410103 0.250000
O O14 0.342971 0.408176 0.031909
O O15 0.500000 0.326355 0.750000
O O16 0.116234 0.340664 0.904919
O O17 0.336997 0.080101 0.039035
O O18 0.682495 0.127158 0.893107
O O19 0.500000 0.317814 0.250000
#
# Coordination Sequence:
#
# PCOD9304957 Si02
#       8
#     8   8   8   8   8   8   8   8
#     4  12  24  37  58  81 116 175 223 267 324 376
#     4  12  25  43  56  85 132 177 224 276 320 389
#     4   9  19  41  71 103 127 168 213 273 343 412
#     4  12  22  39  57  88 125 162 221 275 320 376
#     4   9  20  39  68 100 133 164 212 274 335 415
#     4  11  24  39  63  95 129 175 223 277 331 395
#     4  11  24  39  65  98 131 163 215 282 341 397
#     4  12  24  38  60  86 125 179 228 273 324 383
#
# _framework density 21.792432000000002
#
# number of rings (size 3 to 8) (size 9 to 14) (size 15 to 20)
#    0.000    1.000    5.000    1.500    7.000    0.000 
#    0.000    1.250    0.000   21.750    0.000    0.000 
#    0.000    0.000    0.000    0.000    0.000    0.000 
#
# Total GULP energy -178377.502266 kJ/mol
# GULP energy per Si atom -5574.296946 kJ/mol
# Density = 2.174283 g / cm^3
# Si number density = 21.792432 Si / 1000 Ang^3
#
#
#
# Elastic Constant Matrix: (Units=GPa)
#
#
# Indices 1 2 3 4 5 6 
#
# 1 92.8765 33.0292 11.6657 0.0000 5.3436 0.0000
# 2 33.0292 93.2705 7.0433 0.0000 1.1409 0.0000
# 3 11.6657 7.0433 82.0754 0.0000 3.2205 0.0000
# 4 0.0000 0.0000 0.0000 269.7491 0.0000 43.7503
# 5 5.3436 1.1409 3.2205 0.0000 27.7645 0.0000
# 6 0.0000 0.0000 0.0000 43.7503 0.0000 41.6442
#
#
#
# Elastic Compliance Matrix: (Units=1/GPa)
#
#
# Indices 1 2 3 4 5 6 
#
# 1 0.012597 -0.004334 -0.001336 0.000000 -0.002091 0.000000
# 2 -0.004334 0.012286 -0.000453 0.000000 0.000382 0.000000
# 3 -0.001336 -0.000453 0.012459 0.000000 -0.001169 0.000000
# 4 0.000000 0.000000 0.000000 0.004469 0.000000 -0.004695
# 5 -0.002091 0.000382 -0.001169 0.000000 0.036540 0.000000
# 6 0.000000 0.000000 0.000000 -0.004695 0.000000 0.028945
#
#
# Mechanical properties :
#
#
# Convention : Reuss Voigt Hill
#
# Bulk Modulus (GPa) = 39.85125 41.29988 40.57557
# Shear Modulus (GPa) = 39.09109 82.26383 60.67746
#
# Velocity S-wave (km/s) = 4.23991 6.15067 5.28241
# Velocity P-wave (km/s) = 6.50351 8.33268 7.47426
#
# Compressibility (1/GPa) = 0.02509331
#
# Stress axis : x y z
#
# Youngs Moduli (GPa) = 79.38701 81.39406 80.26553
#
# Poissons Ratio (x) = 0.35278 0.10727
# Poissons Ratio (y) = 0.34408 0.03638
# Poissons Ratio (z) = 0.10609 0.03689
#
# Static dielectric constant tensor:
#      x y z
#    x 1.798940 0.000000 0.025340 
#    y 0.000000 1.826940 0.000000 
#    z 0.025340 0.000000 1.852680 
# 
# From -- ./inp_files/139829.got.cif
#   From: 2010.05.17/outbox.cif.g08.bks.cpg/sg15_70_cif.got.tgz:139829.got - 2010.06.03 18:47:42.
