data_PCOD9304204
_publ_section_title
;
Structure prediction by ZEFSAII (Michael W. Deem and Ramdas Pophale) SiO2 
 PCOD9304204
Probable space group: C 2/C
;
_chemical_formula_sum "Si O2"
_cell_formula_units_Z 52
_cell_length_a 23.576945
_cell_length_b 5.527875
_cell_length_c 19.989171
_cell_angle_alpha 90.000000
_cell_angle_beta 59.785394
_cell_angle_gamma 90.000000
_cell_volume 2251.271763
_symmetry_space_group_name_H-M "C 2/C"
_symmetry_group_IT_number 15
_symmetry_cell_setting 'monoclinic'
loop_
_space_group_symop_operation_xyz
x,y,z
-x,y,1/2-z
-x,-y,-z
x,-y,1/2+z
1/2+x,1/2+y,z
1/2-x,1/2+y,1/2-z
1/2-x,1/2-y,-z
1/2+x,1/2-y,1/2+z
loop_
_atom_site_type_symbol
_atom_site_label
_atom_site_fract_x
_atom_site_fract_y
_atom_site_fract_z
Si Si1 0.336986 0.635018 0.158723
Si Si2 0.824516 0.812956 0.435852
Si Si3 0.000000 0.622135 0.750000
Si Si4 0.898590 0.699278 0.920992
Si Si5 0.207383 0.164771 0.696386
Si Si6 0.058990 0.812931 0.461710
Si Si7 0.913112 0.471923 0.682472
O O1 0.283894 0.772769 0.146041
O O2 0.297178 0.546888 0.247027
O O3 0.370209 0.434590 0.093710
O O4 0.397116 0.774660 0.157125
O O5 0.750000 0.750000 0.500000
O O6 0.864994 0.561990 0.424730
O O7 0.821816 0.878991 0.358802
O O8 0.852585 0.060882 0.451466
O O9 0.049345 0.755436 0.669617
O O10 0.045405 0.476869 0.774811
O O11 0.933481 0.677212 0.972461
O O12 0.158692 0.364976 0.757202
O O13 0.050842 0.670553 0.397479
O O14 0.000000 0.000000 0.500000
#
# Coordination Sequence:
#
# PCOD9304204 Si02
#       7
#     8   8   4   8   8   8   8
#     4  11  23  43  73 109 147 196 253 324 379 462
#     4  12  28  49  77 113 158 202 259 320 401 461
#     4  12  26  50  78 106 160 200 264 312 392 466
#     4  12  29  50  78 113 156 208 257 324 389 469
#     4  11  23  42  74 109 149 194 259 312 390 454
#     4  11  28  46  74 109 149 202 262 315 390 462
#     4  11  25  47  75 108 149 200 250 321 384 457
#
# _framework density 23.098054000000001
#
# number of rings (size 3 to 8) (size 9 to 14) (size 15 to 20)
#    0.000    0.615    3.077    3.231    6.462    3.077 
#    0.000    0.000    0.000    0.000    0.000    0.000 
#    0.000    0.000    0.000    0.000    0.000    0.000 
#
# Total GULP energy -145227.122867 kJ/mol
# GULP energy per Si atom -5585.658572 kJ/mol
# Density = 2.304548 g / cm^3
# Si number density = 23.098054 Si / 1000 Ang^3
#
#
#
# Elastic Constant Matrix: (Units=GPa)
#
#
# Indices 1 2 3 4 5 6 
#
# 1 128.5915 29.5826 34.4920 0.0010 17.6672 0.0080
# 2 29.5826 46.1663 -6.0068 -0.0087 -2.5622 0.0186
# 3 34.4920 -6.0068 110.6472 -0.0068 14.5321 0.0138
# 4 0.0010 -0.0087 -0.0068 15.9003 0.0033 6.1250
# 5 17.6672 -2.5622 14.5321 0.0033 55.6611 -0.0023
# 6 0.0080 0.0186 0.0138 6.1250 -0.0023 16.9485
#
#
#
# Elastic Compliance Matrix: (Units=1/GPa)
#
#
# Indices 1 2 3 4 5 6 
#
# 1 0.010820 -0.007537 -0.003402 -0.000009 -0.002893 0.000009
# 2 -0.007537 0.027092 0.003461 0.000032 0.002736 -0.000040
# 3 -0.003402 0.003461 0.010483 0.000013 -0.001498 -0.000016
# 4 -0.000009 0.000032 0.000013 0.073063 -0.000004 -0.026405
# 5 -0.002893 0.002736 -0.001498 -0.000004 0.019401 0.000004
# 6 0.000009 -0.000040 -0.000016 -0.026405 0.000004 0.068545
#
#
# Mechanical properties :
#
#
# Convention : Reuss Voigt Hill
#
# Bulk Modulus (GPa) = 29.90471 44.61563 37.26017
# Shear Modulus (GPa) = 21.23072 32.85779 27.04425
#
# Velocity S-wave (km/s) = 3.03505 3.77574 3.42547
# Velocity P-wave (km/s) = 5.02563 6.19403 5.64017
#
# Compressibility (1/GPa) = 0.03343955
#
# Stress axis : x y z
#
# Youngs Moduli (GPa) = 92.41720 36.91066 95.39340
#
# Poissons Ratio (x) = 0.27819 0.32455
# Poissons Ratio (y) = 0.69653 -0.33015
# Poissons Ratio (z) = 0.31443 -0.12775
#
# Static dielectric constant tensor:
#      x y z
#    x 1.909520 -0.000020 -0.055020 
#    y -0.000020 1.910350 0.000070 
#    z -0.055020 0.000070 1.791550 
# 
# From -- ./inp_files/254279.got.cif
#   From: 2010.05.17/outbox.cif.g08.bks.cpg/sg15_128_cif.got.tgz:254279.got - 2010.06.03 18:47:42.
