data_PCOD9304642
_publ_section_title
;
Structure prediction by ZEFSAII (Michael W. Deem and Ramdas Pophale) SiO2 
 PCOD9304642
Probable space group: C 2/C
;
_chemical_formula_sum "Si O2"
_cell_formula_units_Z 60
_cell_length_a 17.862386
_cell_length_b 9.322275
_cell_length_c 21.496462
_cell_angle_alpha 90.000000
_cell_angle_beta 51.868494
_cell_angle_gamma 90.000000
_cell_volume 2815.657874
_symmetry_space_group_name_H-M "C 2/C"
_symmetry_group_IT_number 15
_symmetry_cell_setting 'monoclinic'
loop_
_space_group_symop_operation_xyz
x,y,z
-x,y,1/2-z
-x,-y,-z
x,-y,1/2+z
1/2+x,1/2+y,z
1/2-x,1/2+y,1/2-z
1/2-x,1/2-y,-z
1/2+x,1/2-y,1/2+z
loop_
_atom_site_type_symbol
_atom_site_label
_atom_site_fract_x
_atom_site_fract_y
_atom_site_fract_z
Si Si1 0.714416 0.713186 0.087949
Si Si2 0.520783 0.347116 0.959554
Si Si3 0.822243 0.347897 0.160388
Si Si4 0.618412 0.846313 0.897206
Si Si5 0.473119 0.424088 0.848204
Si Si6 0.111270 0.194375 0.765479
Si Si7 0.500000 0.912606 0.750000
Si Si8 0.100277 0.340439 0.247134
O O1 0.797323 0.681899 0.095486
O O2 0.634154 0.588169 0.122040
O O3 0.656526 0.840799 0.153104
O O4 0.750000 0.750000 0.000000
O O5 0.628899 0.297412 0.890136
O O6 0.469484 0.362926 0.919836
O O7 0.500000 0.500000 0.000000
O O8 0.473255 0.228079 0.026605
O O9 0.884224 0.483396 0.108189
O O10 0.713629 0.371697 0.198184
O O11 0.829157 0.346363 0.231461
O O12 0.626672 0.778075 0.823445
O O13 0.527498 0.576218 0.816409
O O14 0.544910 0.308643 0.781476
O O15 0.083981 0.302068 0.723533
O O16 0.475577 0.030442 0.709371
#
# Coordination Sequence:
#
# PCOD9304642 Si02
#       8
#     8   8   8   8   8   8   4   8
#     4  12  24  42  72 107 140 187 244 295 360 443
#     4  11  24  45  71 103 146 189 238 307 368 441
#     4  11  26  45  72 104 140 196 248 298 365 447
#     4  12  24  44  71 104 146 191 241 299 369 445
#     4  11  24  44  70 101 142 190 240 300 364 430
#     4  12  27  44  73 108 145 186 249 311 363 431
#     4  12  26  42  68 106 138 178 242 306 366 406
#     4  11  23  45  71  97 139 190 243 296 361 440
#
# _framework density 21.309407
#
# number of rings (size 3 to 8) (size 9 to 14) (size 15 to 20)
#    0.000    0.533    6.667    1.200    5.600    1.067 
#    2.400    0.000    0.000    2.400    0.000    0.000 
#    0.000    0.000    0.000    0.000    0.000    0.000 
#
# Total GULP energy -167117.851936 kJ/mol
# GULP energy per Si atom -5570.595065 kJ/mol
# Density = 2.126091 g / cm^3
# Si number density = 21.309407 Si / 1000 Ang^3
#
#
#
# Elastic Constant Matrix: (Units=GPa)
#
#
# Indices 1 2 3 4 5 6 
#
# 1 118.6347 26.2374 27.3845 0.0000 -1.0860 0.0000
# 2 26.2374 106.0300 35.4588 0.0000 -3.0413 0.0001
# 3 27.3845 35.4588 109.1585 0.0000 7.6888 0.0000
# 4 0.0000 0.0000 0.0000 27.4323 0.0000 6.2664
# 5 -1.0860 -3.0413 7.6888 0.0000 27.4192 0.0000
# 6 0.0000 0.0001 0.0000 6.2664 0.0000 33.0092
#
#
#
# Elastic Compliance Matrix: (Units=1/GPa)
#
#
# Indices 1 2 3 4 5 6 
#
# 1 0.009222 -0.001652 -0.001826 0.000000 0.000694 0.000000
# 2 -0.001652 0.011006 -0.003307 0.000000 0.002083 0.000000
# 3 -0.001826 -0.003307 0.010941 0.000000 -0.003507 0.000000
# 4 0.000000 0.000000 0.000000 0.038106 0.000000 -0.007234
# 5 0.000694 0.002083 -0.003507 0.000000 0.037713 0.000000
# 6 0.000000 0.000000 0.000000 -0.007234 0.000000 0.031668
#
#
# Mechanical properties :
#
#
# Convention : Reuss Voigt Hill
#
# Bulk Modulus (GPa) = 56.82269 56.88716 56.85492
# Shear Modulus (GPa) = 31.62726 33.88830 32.75778
#
# Velocity S-wave (km/s) = 3.85670 3.99218 3.92503
# Velocity P-wave (km/s) = 6.82317 6.92847 6.87602
#
# Compressibility (1/GPa) = 0.01759860
#
# Stress axis : x y z
#
# Youngs Moduli (GPa) = 108.43230 90.86110 91.40347
#
# Poissons Ratio (x) = 0.15006 0.16690
# Poissons Ratio (y) = 0.17908 0.30232
# Poissons Ratio (z) = 0.19800 0.30052
#
# Static dielectric constant tensor:
#      x y z
#    x 2.274900 0.000000 0.480800 
#    y 0.000000 1.792410 0.000000 
#    z 0.480800 0.000000 2.330810 
# 
# From -- ./inp_files/247813.got.cif
#   From: 2010.05.17/outbox.cif.g08.bks.cpg/sg15_124_cif.got.tgz:247813.got - 2010.06.03 18:47:42.
