data_PCOD9304257
_publ_section_title
;
Structure prediction by ZEFSAII (Michael W. Deem and Ramdas Pophale) SiO2 
 PCOD9304257
Probable space group: C 2/C
;
_chemical_formula_sum "Si O2"
_cell_formula_units_Z 64
_cell_length_a 11.575511
_cell_length_b 15.236087
_cell_length_c 26.076497
_cell_angle_alpha 90.000000
_cell_angle_beta 42.368494
_cell_angle_gamma 90.000000
_cell_volume 3099.244840
_symmetry_space_group_name_H-M "C 2/C"
_symmetry_group_IT_number 15
_symmetry_cell_setting 'monoclinic'
loop_
_space_group_symop_operation_xyz
x,y,z
-x,y,1/2-z
-x,-y,-z
x,-y,1/2+z
1/2+x,1/2+y,z
1/2-x,1/2+y,1/2-z
1/2-x,1/2-y,-z
1/2+x,1/2-y,1/2+z
loop_
_atom_site_type_symbol
_atom_site_label
_atom_site_fract_x
_atom_site_fract_y
_atom_site_fract_z
Si Si1 0.206898 0.271578 0.681639
Si Si2 0.887311 0.181811 0.336456
Si Si3 0.227280 0.943381 0.441805
Si Si4 0.698788 0.594057 0.830048
Si Si5 0.242969 0.847446 0.944203
Si Si6 0.460204 0.761300 0.597706
Si Si7 0.940099 0.646352 0.670110
Si Si8 0.022920 0.083911 0.384937
O O1 0.251488 0.287592 0.607900
O O2 0.302753 0.188179 0.675656
O O3 0.302699 0.357658 0.674414
O O4 0.000000 0.270045 0.750000
O O5 0.690737 0.197729 0.386211
O O6 0.000000 0.154872 0.250000
O O7 0.972110 0.271779 0.329298
O O8 0.905076 0.116159 0.377634
O O9 0.224463 0.912168 0.383172
O O10 0.404997 0.907052 0.406340
O O11 0.075878 0.907633 0.528181
O O12 0.218332 0.049016 0.443951
O O13 0.637961 0.691580 0.834271
O O14 0.861230 0.583723 0.739949
O O15 0.567498 0.517062 0.862122
O O16 0.425018 0.832771 0.912176
O O17 0.092182 0.804147 0.026482
#
# Coordination Sequence:
#
# PCOD9304257 Si02
#       8
#     8   8   8   8   8   8   8   8
#     4  11  25  43  64 100 137 171 224 274 333 402
#     4  11  23  43  67  95 132 180 223 271 336 407
#     4  12  23  42  69 107 131 167 229 286 333 391
#     4  12  21  43  67  98 132 172 221 279 333 387
#     4  11  25  42  67  99 133 178 217 277 333 405
#     4  11  23  43  69  91 136 178 220 264 344 402
#     4  11  25  40  69 100 135 172 222 280 339 394
#     4  11  26  40  70 102 134 169 226 287 332 392
#
# _framework density 20.650191
#
# number of rings (size 3 to 8) (size 9 to 14) (size 15 to 20)
#    0.000    0.750    5.000    2.250    5.250    1.000 
#    0.000    5.000    0.000    0.000    0.000    0.000 
#    0.000    0.000    0.000    0.000    0.000    0.000 
#
# Total GULP energy -178625.421040 kJ/mol
# GULP energy per Si atom -5582.044407 kJ/mol
# Density = 2.060319 g / cm^3
# Si number density = 20.650191 Si / 1000 Ang^3
#
#
#
# Elastic Constant Matrix: (Units=GPa)
#
#
# Indices 1 2 3 4 5 6 
#
# 1 141.4329 48.3446 50.0399 0.0000 -26.1187 0.0000
# 2 48.3446 71.0629 36.9624 0.0002 -3.0838 0.0000
# 3 50.0399 36.9624 73.4280 0.0009 -12.3254 -0.0001
# 4 0.0000 0.0002 0.0009 18.5844 -0.0002 1.4022
# 5 -26.1187 -3.0838 -12.3254 -0.0002 32.0039 0.0000
# 6 0.0000 0.0000 -0.0001 1.4022 0.0000 30.4551
#
#
#
# Elastic Compliance Matrix: (Units=1/GPa)
#
#
# Indices 1 2 3 4 5 6 
#
# 1 0.011785 -0.005652 -0.003916 0.000000 0.007565 0.000000
# 2 -0.005652 0.021893 -0.008113 0.000000 -0.005628 0.000000
# 3 -0.003916 -0.008113 0.021066 -0.000001 0.004135 0.000000
# 4 0.000000 0.000000 -0.000001 0.053996 0.000000 -0.002486
# 5 0.007565 -0.005628 0.004135 0.000000 0.038470 0.000000
# 6 0.000000 0.000000 0.000000 -0.002486 0.000000 0.032950
#
#
# Mechanical properties :
#
#
# Convention : Reuss Voigt Hill
#
# Bulk Modulus (GPa) = 51.59868 61.84640 56.72254
# Shear Modulus (GPa) = 22.52407 26.24714 24.38560
#
# Velocity S-wave (km/s) = 3.30622 3.56903 3.44014
# Velocity P-wave (km/s) = 6.29413 6.85555 6.58083
#
# Compressibility (1/GPa) = 0.01938034
#
# Stress axis : x y z
#
# Youngs Moduli (GPa) = 84.85183 45.67636 47.47001
#
# Poissons Ratio (x) = 0.25818 0.18591
# Poissons Ratio (y) = 0.47961 0.38514
# Poissons Ratio (z) = 0.33231 0.37059
#
# Static dielectric constant tensor:
#      x y z
#    x 1.787640 0.000000 -0.033820 
#    y 0.000000 1.719830 0.000000 
#    z -0.033820 0.000000 1.802230 
# 
# From -- ./inp_files/293058.got.cif
#   From: 2010.05.17/outbox.cif.g08.bks.cpg/sg15_147_cif.got.tgz:293058.got - 2010.06.03 18:47:42.
