data_PCOD9304329
_publ_section_title
;
Structure prediction by ZEFSAII (Michael W. Deem and Ramdas Pophale) SiO2 
 PCOD9304329
Probable space group: C 2/C
;
_chemical_formula_sum "Si O2"
_cell_formula_units_Z 40
_cell_length_a 14.563051
_cell_length_b 8.804750
_cell_length_c 25.951232
_cell_angle_alpha 90.000000
_cell_angle_beta 149.625159
_cell_angle_gamma 90.000000
_cell_volume 1682.603035
_symmetry_space_group_name_H-M "C 2/C"
_symmetry_group_IT_number 15
_symmetry_cell_setting 'monoclinic'
loop_
_space_group_symop_operation_xyz
x,y,z
-x,y,1/2-z
-x,-y,-z
x,-y,1/2+z
1/2+x,1/2+y,z
1/2-x,1/2+y,1/2-z
1/2-x,1/2-y,-z
1/2+x,1/2-y,1/2+z
loop_
_atom_site_type_symbol
_atom_site_label
_atom_site_fract_x
_atom_site_fract_y
_atom_site_fract_z
Si Si1 0.395411 0.736187 0.313972
Si Si2 0.238661 0.900603 0.926950
Si Si3 0.126700 0.772453 0.356774
Si Si4 0.522226 0.325779 0.526830
Si Si5 0.050156 0.564499 0.144069
O O1 0.593543 0.686670 0.391507
O O2 0.392613 0.699597 0.374339
O O3 0.229741 0.643557 0.209178
O O4 0.374528 0.913685 0.290933
O O5 0.123915 0.045638 0.853220
O O6 0.339408 0.776093 0.940348
O O7 0.404380 0.984055 0.036654
O O8 0.333404 0.733569 0.444315
O O9 0.000000 0.710810 0.250000
O O10 0.053421 0.690483 0.372247
O O11 0.500000 0.500000 0.500000
#
# Coordination Sequence:
#
# PCOD9304329 Si02
#       5
#     8   8   8   8   8
#     4  11  23  43  70  97 133 177 231 275 329 412
#     4  11  25  44  70  98 133 184 227 274 336 411
#     4  12  24  44  64 100 140 171 225 284 339 395
#     4  11  23  44  68  98 138 171 222 280 344 397
#     4  11  23  44  71  96 133 182 231 274 336 405
#
# _framework density 23.772690999999998
#
# number of rings (size 3 to 8) (size 9 to 14) (size 15 to 20)
#    0.000    0.800    2.000    7.200    2.800    1.600 
#    3.600    0.000    0.000    0.000    0.000    0.000 
#    0.000    0.000    0.000    0.000    0.000    0.000 
#
# Total GULP energy -111753.086495 kJ/mol
# GULP energy per Si atom -5587.654325 kJ/mol
# Density = 2.371858 g / cm^3
# Si number density = 23.772691 Si / 1000 Ang^3
#
#
#
# Elastic Constant Matrix: (Units=GPa)
#
#
# Indices 1 2 3 4 5 6 
#
# 1 85.2191 63.7932 58.0204 0.0000 33.0177 0.0000
# 2 63.7932 190.4726 48.9541 0.0000 26.4556 0.0000
# 3 58.0204 48.9541 92.1205 0.0002 31.3393 0.0000
# 4 0.0000 0.0000 0.0002 42.6892 0.0000 21.2552
# 5 33.0177 26.4556 31.3393 0.0000 45.8025 0.0000
# 6 0.0000 0.0000 0.0000 21.2552 0.0000 40.7317
#
#
#
# Elastic Compliance Matrix: (Units=1/GPa)
#
#
# Indices 1 2 3 4 5 6 
#
# 1 0.026065 -0.004715 -0.011007 0.000000 -0.008534 0.000000
# 2 -0.004715 0.007036 -0.000708 0.000000 -0.000181 0.000000
# 3 -0.011007 -0.000708 0.019976 0.000000 -0.005324 0.000000
# 4 0.000000 0.000000 0.000000 0.031648 0.000000 -0.016515
# 5 -0.008534 -0.000181 -0.005324 0.000000 0.031732 0.000000
# 6 0.000000 0.000000 0.000000 -0.016515 0.000000 0.033169
#
#
# Mechanical properties :
#
#
# Convention : Reuss Voigt Hill
#
# Bulk Modulus (GPa) = 49.46620 78.81639 64.14130
# Shear Modulus (GPa) = 26.42334 38.98099 32.70217
#
# Velocity S-wave (km/s) = 3.33753 4.05376 3.71296
# Velocity P-wave (km/s) = 5.97539 7.42542 6.73952
#
# Compressibility (1/GPa) = 0.02021582
#
# Stress axis : x y z
#
# Youngs Moduli (GPa) = 38.36533 142.11824 50.06100
#
# Poissons Ratio (x) = 0.67013 0.55105
# Poissons Ratio (y) = 0.18090 0.03544
# Poissons Ratio (z) = 0.42231 0.10061
#
# Static dielectric constant tensor:
#      x y z
#    x 1.931120 0.000000 -0.110910 
#    y 0.000000 2.109370 0.000000 
#    z -0.110910 0.000000 2.011150 
# 
# From -- ./inp_files/313240.got.cif
#   From: 2010.05.17/outbox.cif.g08.bks.cpg/sg15_157_cif.got.tgz:313240.got - 2010.06.03 18:47:42.
