data_PCOD9304190
_publ_section_title
;
Structure prediction by ZEFSAII (Michael W. Deem and Ramdas Pophale) SiO2 
 PCOD9304190
Probable space group: C 2/C
;
_chemical_formula_sum "Si O2"
_cell_formula_units_Z 36
_cell_length_a 11.990482
_cell_length_b 8.175323
_cell_length_c 19.862422
_cell_angle_alpha 90.000000
_cell_angle_beta 129.938826
_cell_angle_gamma 90.000000
_cell_volume 1492.850763
_symmetry_space_group_name_H-M "C 2/C"
_symmetry_group_IT_number 15
_symmetry_cell_setting 'monoclinic'
loop_
_space_group_symop_operation_xyz
x,y,z
-x,y,1/2-z
-x,-y,-z
x,-y,1/2+z
1/2+x,1/2+y,z
1/2-x,1/2+y,1/2-z
1/2-x,1/2-y,-z
1/2+x,1/2-y,1/2+z
loop_
_atom_site_type_symbol
_atom_site_label
_atom_site_fract_x
_atom_site_fract_y
_atom_site_fract_z
Si Si1 0.180742 0.120593 0.743711
Si Si2 0.361580 0.110917 0.581294
Si Si3 0.172203 0.815875 0.811096
Si Si4 0.500000 0.885855 0.750000
Si Si5 0.450933 0.560410 0.055866
O O1 0.291284 0.188818 0.732599
O O2 0.121667 0.267342 0.766091
O O3 0.244273 0.983657 0.817361
O O4 0.053573 0.033395 0.649620
O O5 0.281111 0.236053 0.602015
O O6 0.455739 0.241554 0.573952
O O7 0.220177 0.017138 0.497745
O O8 0.443378 0.991959 0.664955
O O9 0.000000 0.844114 0.750000
O O10 0.500000 0.500000 0.000000
#
# Coordination Sequence:
#
# PCOD9304190 Si02
#       5
#     8   8   8   4   8
#     4  12  25  43  73  97 144 184 241 294 357 409
#     4  11  23  42  72  98 144 180 237 287 354 419
#     4  12  23  44  67 102 134 185 241 297 338 416
#     4  12  24  46  72 106 130 190 242 292 344 428
#     4  11  23  43  67 103 142 189 222 294 359 421
#
# _framework density 24.114934999999999
#
# number of rings (size 3 to 8) (size 9 to 14) (size 15 to 20)
#    0.000    0.444    6.667    1.333    0.000    0.889 
#    0.000    1.111    0.000    0.000    0.000    0.000 
#    0.000    0.000    0.000    0.000    0.000    0.000 
#
# Total GULP energy -100504.452867 kJ/mol
# GULP energy per Si atom -5583.580715 kJ/mol
# Density = 2.406005 g / cm^3
# Si number density = 24.114935 Si / 1000 Ang^3
#
#
#
# Elastic Constant Matrix: (Units=GPa)
#
#
# Indices 1 2 3 4 5 6 
#
# 1 112.8040 36.8371 3.2173 0.0000 -26.1622 0.0000
# 2 36.8371 118.7278 25.1749 0.0000 -10.2352 0.0000
# 3 3.2173 25.1749 53.5051 0.0000 -0.0332 0.0000
# 4 0.0000 0.0000 0.0000 28.3989 0.0000 -9.3461
# 5 -26.1622 -10.2352 -0.0332 0.0000 35.6040 0.0000
# 6 0.0000 0.0000 0.0000 -9.3461 0.0000 60.8629
#
#
#
# Elastic Compliance Matrix: (Units=1/GPa)
#
#
# Indices 1 2 3 4 5 6 
#
# 1 0.011635 -0.003113 0.000770 0.000000 0.007655 0.000000
# 2 -0.003113 0.010453 -0.004731 0.000000 0.000713 0.000000
# 3 0.000770 -0.004731 0.020869 0.000000 -0.000775 0.000000
# 4 0.000000 0.000000 0.000000 0.037087 0.000000 0.005695
# 5 0.007655 0.000713 -0.000775 0.000000 0.033916 0.000000
# 6 0.000000 0.000000 0.000000 0.005695 0.000000 0.017305
#
#
# Mechanical properties :
#
#
# Convention : Reuss Voigt Hill
#
# Bulk Modulus (GPa) = 34.71126 46.16616 40.43871
# Shear Modulus (GPa) = 32.25472 39.62701 35.94086
#
# Velocity S-wave (km/s) = 3.66121 4.05811 3.86476
# Velocity P-wave (km/s) = 5.68313 6.41431 6.05976
#
# Compressibility (1/GPa) = 0.02880909
#
# Stress axis : x y z
#
# Youngs Moduli (GPa) = 85.94666 95.66520 47.91823
#
# Poissons Ratio (x) = 0.29783 -0.03690
# Poissons Ratio (y) = 0.26758 0.22669
# Poissons Ratio (z) = -0.06618 0.45256
#
# Static dielectric constant tensor:
#      x y z
#    x 1.952860 0.000000 0.042070 
#    y 0.000000 1.983010 0.000000 
#    z 0.042070 0.000000 2.034550 
# 
# From -- ./inp_files/235952.got.cif
#   From: 2010.05.17/outbox.cif.g08.bks.cpg/sg15_118_cif.got.tgz:235952.got - 2010.06.03 18:47:42.
