data_PCOD9304774
_publ_section_title
;
Structure prediction by ZEFSAII (Michael W. Deem and Ramdas Pophale) SiO2 
 PCOD9304774
Probable space group: C 2/C
;
_chemical_formula_sum "Si O2"
_cell_formula_units_Z 40
_cell_length_a 16.963600
_cell_length_b 10.825291
_cell_length_c 14.087056
_cell_angle_alpha 90.000000
_cell_angle_beta 41.451943
_cell_angle_gamma 90.000000
_cell_volume 1712.499053
_symmetry_space_group_name_H-M "C 2/C"
_symmetry_group_IT_number 15
_symmetry_cell_setting 'monoclinic'
loop_
_space_group_symop_operation_xyz
x,y,z
-x,y,1/2-z
-x,-y,-z
x,-y,1/2+z
1/2+x,1/2+y,z
1/2-x,1/2+y,1/2-z
1/2-x,1/2-y,-z
1/2+x,1/2-y,1/2+z
loop_
_atom_site_type_symbol
_atom_site_label
_atom_site_fract_x
_atom_site_fract_y
_atom_site_fract_z
Si Si1 0.918994 0.111941 0.498185
Si Si2 0.316150 0.596459 0.184555
Si Si3 0.815929 0.345202 0.511040
Si Si4 0.500000 0.967328 0.750000
Si Si5 0.000000 0.951425 0.250000
Si Si6 0.167299 0.739362 0.168613
O O1 0.898216 0.253761 0.496281
O O2 0.041998 0.113362 0.444762
O O3 0.808905 0.041416 0.647226
O O4 0.934993 0.037796 0.384944
O O5 0.273481 0.599240 0.331090
O O6 0.251900 0.700293 0.179323
O O7 0.750000 0.250000 0.500000
O O8 0.898723 0.446783 0.387685
O O9 0.427068 0.873444 0.749276
O O10 0.912256 0.862478 0.268810
O O11 0.250000 0.750000 0.000000
#
# Coordination Sequence:
#
# PCOD9304774 Si02
#       6
#     8   8   8   4   4   8
#     4  11  25  45  70 109 138 189 243 290 361 442
#     4  11  26  42  72 104 140 189 240 293 363 424
#     4  12  26  48  73 103 147 188 237 302 363 424
#     4  11  27  46  70 108 141 193 246 288 362 445
#     4  11  23  46  74 100 149 189 242 296 360 443
#     4  11  25  46  71 106 145 190 238 298 364 425
#
# _framework density 23.357678
#
# number of rings (size 3 to 8) (size 9 to 14) (size 15 to 20)
#    0.000    0.800    2.000    4.200    8.400    0.800 
#    0.000    0.000    0.000    0.000    0.000    0.000 
#    0.000    0.000    0.000    0.000    0.000    0.000 
#
# Total GULP energy -111853.815739 kJ/mol
# GULP energy per Si atom -5592.690787 kJ/mol
# Density = 2.330451 g / cm^3
# Si number density = 23.357678 Si / 1000 Ang^3
#
#
#
# Elastic Constant Matrix: (Units=GPa)
#
#
# Indices 1 2 3 4 5 6 
#
# 1 111.5722 30.6970 28.2842 0.0000 -2.4732 0.0000
# 2 30.6970 123.2012 35.4864 0.0000 -0.0461 0.0000
# 3 28.2842 35.4864 124.4560 0.0000 22.7138 0.0000
# 4 0.0000 0.0000 0.0000 43.0810 0.0000 -11.7864
# 5 -2.4732 -0.0461 22.7138 0.0000 35.8637 0.0000
# 6 0.0000 0.0000 0.0000 -11.7864 0.0000 35.0156
#
#
#
# Elastic Compliance Matrix: (Units=1/GPa)
#
#
# Indices 1 2 3 4 5 6 
#
# 1 0.010067 -0.001897 -0.002118 0.000000 0.002033 0.000000
# 2 -0.001897 0.009307 -0.002488 0.000000 0.001457 0.000000
# 3 -0.002118 -0.002488 0.010462 0.000000 -0.006775 0.000000
# 4 0.000000 0.000000 0.000000 0.025567 0.000000 0.008606
# 5 0.002033 0.001457 -0.006775 0.000000 0.032317 0.000000
# 6 0.000000 0.000000 0.000000 0.008606 0.000000 0.031455
#
#
# Mechanical properties :
#
#
# Convention : Reuss Voigt Hill
#
# Bulk Modulus (GPa) = 59.42256 60.90718 60.16487
# Shear Modulus (GPa) = 36.28670 40.44284 38.36477
#
# Velocity S-wave (km/s) = 3.94575 4.16559 4.05716
# Velocity P-wave (km/s) = 6.80104 7.01917 6.91096
#
# Compressibility (1/GPa) = 0.01682862
#
# Stress axis : x y z
#
# Youngs Moduli (GPa) = 99.33631 107.44747 95.58093
#
# Poissons Ratio (x) = 0.20388 0.20242
# Poissons Ratio (y) = 0.18849 0.23784
# Poissons Ratio (z) = 0.21038 0.26737
#
# Static dielectric constant tensor:
#      x y z
#    x 1.951770 0.000000 0.039360 
#    y 0.000000 1.944800 0.000000 
#    z 0.039360 0.000000 1.863770 
# 
# From -- ./inp_files/160682.got.cif
#   From: 2010.05.17/outbox.cif.g08.bks.cpg/sg15_81_cif.got.tgz:160682.got - 2010.06.03 18:47:42.
