data_PCOD9304862
_publ_section_title
;
Structure prediction by ZEFSAII (Michael W. Deem and Ramdas Pophale) SiO2 
 PCOD9304862
Probable space group: C 2/C
;
_chemical_formula_sum "Si O2"
_cell_formula_units_Z 44
_cell_length_a 18.054792
_cell_length_b 8.456827
_cell_length_c 11.363785
_cell_angle_alpha 90.000000
_cell_angle_beta 105.292440
_cell_angle_gamma 90.000000
_cell_volume 1673.657940
_symmetry_space_group_name_H-M "C 2/C"
_symmetry_group_IT_number 15
_symmetry_cell_setting 'monoclinic'
loop_
_space_group_symop_operation_xyz
x,y,z
-x,y,1/2-z
-x,-y,-z
x,-y,1/2+z
1/2+x,1/2+y,z
1/2-x,1/2+y,1/2-z
1/2-x,1/2-y,-z
1/2+x,1/2-y,1/2+z
loop_
_atom_site_type_symbol
_atom_site_label
_atom_site_fract_x
_atom_site_fract_y
_atom_site_fract_z
Si Si1 0.600758 0.627069 0.516372
Si Si2 0.326832 0.251490 0.661579
Si Si3 0.448758 0.811131 0.391519
Si Si4 0.216236 0.921092 0.267107
Si Si5 0.131208 0.218932 0.922934
Si Si6 0.500000 0.913806 0.750000
O O1 0.656378 0.746730 0.468396
O O2 0.516905 0.703891 0.473129
O O3 0.637822 0.596424 0.658001
O O4 0.607525 0.461200 0.448550
O O5 0.409712 0.263233 0.759270
O O6 0.283428 0.106559 0.701831
O O7 0.279827 0.403988 0.681165
O O8 0.380773 0.813830 0.459874
O O9 0.480071 0.976190 0.354321
O O10 0.206730 0.803720 0.374337
O O11 0.070865 0.306331 0.814353
#
# Coordination Sequence:
#
# PCOD9304862 Si02
#       6
#     8   8   8   8   8   4
#     4  11  23  47  75  99 137 185 237 287 347 418
#     4  11  25  45  69 102 139 188 235 281 349 415
#     4  12  24  47  73 104 142 179 235 294 347 409
#     4  11  26  46  69 101 142 188 230 286 346 422
#     4  11  26  43  71 106 138 183 234 282 353 415
#     4  12  26  42  68 110 144 178 230 298 346 402
#
# _framework density 26.289719999999999
#
# number of rings (size 3 to 8) (size 9 to 14) (size 15 to 20)
#    0.000    0.727    3.636    2.727    7.636    0.727 
#    0.000    0.000    0.000    0.000    0.000    0.000 
#    0.000    0.000    0.000    0.000    0.000    0.000 
#
# Total GULP energy -123215.329317 kJ/mol
# GULP energy per Si atom -5600.696787 kJ/mol
# Density = 2.622988 g / cm^3
# Si number density = 26.289720 Si / 1000 Ang^3
#
#
#
# Elastic Constant Matrix: (Units=GPa)
#
#
# Indices 1 2 3 4 5 6 
#
# 1 108.7258 35.6163 17.1270 0.0000 -18.0175 0.0000
# 2 35.6163 64.2751 27.2446 0.0000 -4.3413 0.0000
# 3 17.1270 27.2446 91.5588 0.0000 10.0820 0.0000
# 4 0.0000 0.0000 0.0000 39.7190 0.0000 -7.8874
# 5 -18.0175 -4.3413 10.0820 0.0000 48.4486 0.0000
# 6 0.0000 0.0000 0.0000 -7.8874 0.0000 38.6636
#
#
#
# Elastic Compliance Matrix: (Units=1/GPa)
#
#
# Indices 1 2 3 4 5 6 
#
# 1 0.011979 -0.005972 -0.000916 0.000000 0.004111 0.000000
# 2 -0.005972 0.021149 -0.005261 0.000000 0.000769 0.000000
# 3 -0.000916 -0.005261 0.013047 0.000000 -0.003527 0.000000
# 4 0.000000 0.000000 0.000000 0.026240 0.000000 0.005353
# 5 0.004111 0.000769 -0.003527 0.000000 0.022972 0.000000
# 6 0.000000 0.000000 0.000000 0.005353 0.000000 0.026956
#
#
# Mechanical properties :
#
#
# Convention : Reuss Voigt Hill
#
# Bulk Modulus (GPa) = 45.70941 47.17062 46.44001
# Shear Modulus (GPa) = 32.48139 37.67103 35.07621
#
# Velocity S-wave (km/s) = 3.51881 3.78950 3.65666
# Velocity P-wave (km/s) = 5.82528 6.09333 5.96081
#
# Compressibility (1/GPa) = 0.02187733
#
# Stress axis : x y z
#
# Youngs Moduli (GPa) = 83.47765 47.28326 76.64476
#
# Poissons Ratio (x) = 0.28237 0.07024
# Poissons Ratio (y) = 0.49852 0.40321
# Poissons Ratio (z) = 0.07650 0.24875
#
# Static dielectric constant tensor:
#      x y z
#    x 2.105610 0.000000 -0.015900 
#    y 0.000000 2.036490 0.000000 
#    z -0.015900 0.000000 2.063180 
# 
# From -- ./inp_files/110094.got.cif
#   From: 2010.05.17/outbox.cif.g08.bks.cpg/sg15_56_cif.got.tgz:110094.got - 2010.06.03 18:47:42.
