data_PCOD9304906
_publ_section_title
;
Structure prediction by ZEFSAII (Michael W. Deem and Ramdas Pophale) SiO2 
 PCOD9304906
Probable space group: C 2/C
;
_chemical_formula_sum "Si O2"
_cell_formula_units_Z 40
_cell_length_a 12.380719
_cell_length_b 8.500473
_cell_length_c 14.345723
_cell_angle_alpha 90.000000
_cell_angle_beta 105.323060
_cell_angle_gamma 90.000000
_cell_volume 1456.101435
_symmetry_space_group_name_H-M "C 2/C"
_symmetry_group_IT_number 15
_symmetry_cell_setting 'monoclinic'
loop_
_space_group_symop_operation_xyz
x,y,z
-x,y,1/2-z
-x,-y,-z
x,-y,1/2+z
1/2+x,1/2+y,z
1/2-x,1/2+y,1/2-z
1/2-x,1/2-y,-z
1/2+x,1/2-y,1/2+z
loop_
_atom_site_type_symbol
_atom_site_label
_atom_site_fract_x
_atom_site_fract_y
_atom_site_fract_z
Si Si1 0.636831 0.665716 0.508462
Si Si2 0.910409 0.651950 0.906898
Si Si3 0.917962 0.584930 0.114496
Si Si4 0.710350 0.471184 0.684719
Si Si5 0.102618 0.941911 0.334586
O O1 0.750000 0.750000 0.500000
O O2 0.637636 0.602947 0.614001
O O3 0.618143 0.517355 0.437662
O O4 0.529429 0.770466 0.464564
O O5 0.963001 0.503991 0.862502
O O6 0.838813 0.795957 0.846694
O O7 0.707639 0.512126 0.792846
O O8 0.866359 0.597249 0.998006
O O9 0.827648 0.503137 0.160057
O O10 0.919034 0.240115 0.655124
O O11 0.000000 0.011358 0.250000
#
# Coordination Sequence:
#
# PCOD9304906 Si02
#       5
#     8   8   8   8   8
#     4  12  25  48  79 109 151 211 257 315 402 469
#     4  11  23  48  78 105 152 202 259 329 393 470
#     4  11  26  45  74 116 144 203 264 324 395 473
#     4  12  25  47  78 109 158 204 259 328 393 476
#     4  12  27  49  74 109 158 204 259 326 394 470
#
# _framework density 27.470611999999999
#
# number of rings (size 3 to 8) (size 9 to 14) (size 15 to 20)
#    0.000    0.400    6.000    2.400    2.800    0.000 
#    7.200    0.000    0.000    0.000    0.000    0.000 
#    0.000    0.000    0.000    0.000    0.000    0.000 
#
# Total GULP energy -112223.427122 kJ/mol
# GULP energy per Si atom -5611.171356 kJ/mol
# Density = 2.740809 g / cm^3
# Si number density = 27.470612 Si / 1000 Ang^3
#
#
#
# Elastic Constant Matrix: (Units=GPa)
#
#
# Indices 1 2 3 4 5 6 
#
# 1 149.0615 21.7078 10.4500 0.0000 -12.7125 0.0000
# 2 21.7078 114.8610 20.9151 0.0000 -4.9402 0.0000
# 3 10.4500 20.9151 60.1696 0.0000 -10.8673 0.0000
# 4 0.0000 0.0000 0.0000 34.6267 0.0000 5.1092
# 5 -12.7125 -4.9402 -10.8673 0.0000 47.0459 0.0000
# 6 0.0000 0.0000 0.0000 5.1092 0.0000 53.4277
#
#
#
# Elastic Compliance Matrix: (Units=1/GPa)
#
#
# Indices 1 2 3 4 5 6 
#
# 1 0.007057 -0.001168 -0.000519 0.000000 0.001664 0.000000
# 2 -0.001168 0.009490 -0.003102 0.000000 -0.000036 0.000000
# 3 -0.000519 -0.003102 0.018475 0.000000 0.003802 0.000000
# 4 0.000000 0.000000 0.000000 0.029293 0.000000 -0.002801
# 5 0.001664 -0.000036 0.003802 0.000000 0.022580 0.000000
# 6 0.000000 0.000000 0.000000 -0.002801 0.000000 0.018985
#
#
# Mechanical properties :
#
#
# Convention : Reuss Voigt Hill
#
# Bulk Modulus (GPa) = 39.30252 47.80421 43.55336
# Shear Modulus (GPa) = 40.34229 45.08799 42.71514
#
# Velocity S-wave (km/s) = 3.83634 4.05571 3.94755
# Velocity P-wave (km/s) = 5.82765 6.27467 6.05529
#
# Compressibility (1/GPa) = 0.02544366
#
# Stress axis : x y z
#
# Youngs Moduli (GPa) = 141.70295 105.37131 54.12748
#
# Poissons Ratio (x) = 0.12303 0.02810
# Poissons Ratio (y) = 0.16545 0.16793
# Poissons Ratio (z) = 0.07357 0.32691
#
# Static dielectric constant tensor:
#      x y z
#    x 2.263450 0.000000 0.116210 
#    y 0.000000 2.130180 0.000000 
#    z 0.116210 0.000000 2.221360 
# 
# From -- ./inp_files/294937.got.cif
#   From: 2010.05.17/outbox.cif.g08.bks.cpg/sg15_148_cif.got.tgz:294937.got - 2010.06.03 18:47:42.
