data_PCOD9304420
_publ_section_title
;
Structure prediction by ZEFSAII (Michael W. Deem and Ramdas Pophale) SiO2 
 PCOD9304420
Probable space group: C 2/C
;
_chemical_formula_sum "Si O2"
_cell_formula_units_Z 56
_cell_length_a 5.458360
_cell_length_b 23.999811
_cell_length_c 19.925816
_cell_angle_alpha 90.000000
_cell_angle_beta 106.562907
_cell_angle_gamma 90.000000
_cell_volume 2501.966843
_symmetry_space_group_name_H-M "C 2/C"
_symmetry_group_IT_number 15
_symmetry_cell_setting 'monoclinic'
loop_
_space_group_symop_operation_xyz
x,y,z
-x,y,1/2-z
-x,-y,-z
x,-y,1/2+z
1/2+x,1/2+y,z
1/2-x,1/2+y,1/2-z
1/2-x,1/2-y,-z
1/2+x,1/2-y,1/2+z
loop_
_atom_site_type_symbol
_atom_site_label
_atom_site_fract_x
_atom_site_fract_y
_atom_site_fract_z
Si Si1 0.656260 0.950450 0.438849
Si Si2 0.206910 0.640888 0.827242
Si Si3 0.000000 0.080088 0.750000
Si Si4 0.162715 0.229952 0.333061
Si Si5 0.460752 0.561698 0.420206
Si Si6 0.780531 0.330377 0.634923
Si Si7 0.000000 0.405002 0.750000
Si Si8 0.772865 0.513219 0.337784
O O1 0.661406 0.901038 0.384899
O O2 0.779161 0.929882 0.517015
O O3 0.380299 0.979007 0.410302
O O4 0.822455 0.004705 0.430687
O O5 0.461281 0.618341 0.810891
O O6 0.225055 0.704890 0.848619
O O7 0.000000 0.637105 0.750000
O O8 0.778533 0.035690 0.719144
O O9 0.437589 0.196903 0.354253
O O10 0.000000 0.228026 0.250000
O O11 0.961900 0.210013 0.374528
O O12 0.296405 0.617742 0.418816
O O13 0.539714 0.548093 0.349694
O O14 0.790381 0.362138 0.707304
O O15 0.065045 0.442813 0.691477
#
# Coordination Sequence:
#
# PCOD9304420 Si02
#       8
#     8   8   4   8   8   8   4   8
#     4  11  23  44  63  98 130 181 223 276 336 413
#     4  11  24  42  66  95 129 171 223 286 336 399
#     4  12  22  35  64 100 132 169 218 280 348 398
#     4  11  25  42  69  97 135 176 231 282 346 395
#     4  11  25  41  66  92 139 178 226 268 342 407
#     4  12  24  44  65 104 134 179 223 285 335 407
#     4  12  22  37  66  98 140 165 222 274 346 390
#     4  12  22  39  61 103 138 178 216 277 344 417
#
# _framework density 22.382393
#
# number of rings (size 3 to 8) (size 9 to 14) (size 15 to 20)
#    0.000    0.571    5.714    3.000    4.000    0.000 
#    0.000    1.429    0.000    0.000    0.000    0.000 
#    0.000    0.000    0.000    0.000    0.000    0.000 
#
# Total GULP energy -156001.049925 kJ/mol
# GULP energy per Si atom -5571.466069 kJ/mol
# Density = 2.233145 g / cm^3
# Si number density = 22.382393 Si / 1000 Ang^3
#
#
#
# Elastic Constant Matrix: (Units=GPa)
#
#
# Indices 1 2 3 4 5 6 
#
# 1 94.1707 61.6293 -2.3216 0.0000 1.1328 0.0000
# 2 61.6293 176.5074 32.7811 0.0000 10.3854 0.0000
# 3 -2.3216 32.7811 41.5966 0.0000 15.3817 0.0000
# 4 0.0000 0.0000 0.0000 -7.7602 0.0000 4.1966
# 5 1.1328 10.3854 15.3817 0.0000 23.1249 0.0000
# 6 0.0000 0.0000 0.0000 4.1966 0.0000 19.7831
#
#
#
# Elastic Compliance Matrix: (Units=1/GPa)
#
#
# Indices 1 2 3 4 5 6 
#
# 1 0.014950 -0.006323 0.006682 0.000000 -0.002337 0.000000
# 2 -0.006323 0.009319 -0.008307 0.000000 0.001650 0.000000
# 3 0.006682 -0.008307 0.039390 0.000000 -0.022797 0.000000
# 4 0.000000 0.000000 0.000000 -0.115601 0.000000 0.024523
# 5 -0.002337 0.001650 -0.022797 0.000000 0.057780 0.000000
# 6 0.000000 0.000000 0.000000 0.024523 0.000000 0.045346
#
#
# Mechanical properties :
#
#
# Convention : Reuss Voigt Hill
#
# Bulk Modulus (GPa) = 20.93730 55.16137 38.04933
# Shear Modulus (GPa) = 60.23885 21.70863 40.97374
#
# Velocity S-wave (km/s) = 5.19345 3.11770 4.28322
# Velocity P-wave (km/s) = 6.73329 6.13665 6.44188
#
# Compressibility (1/GPa) = 0.04776166
#
# Stress axis : x y z
#
# Youngs Moduli (GPa) = 66.88869 107.30618 25.38721
#
# Poissons Ratio (x) = 0.67855 -0.16964
# Poissons Ratio (y) = 0.42297 0.21090
# Poissons Ratio (z) = -0.44695 0.89142
#
# Static dielectric constant tensor:
#      x y z
#    x 1.948990 0.000000 0.092860 
#    y 0.000000 1.794910 0.000000 
#    z 0.092860 0.000000 1.907040 
# 
# From -- ./inp_files/261411.got.cif
#   From: 2010.05.17/outbox.cif.g08.bks.cpg/sg15_131_cif.got.tgz:261411.got - 2010.06.03 18:47:42.
