data_PCOD9304615
_publ_section_title
;
Structure prediction by ZEFSAII (Michael W. Deem and Ramdas Pophale) SiO2 
 PCOD9304615
Probable space group: C 2/C
;
_chemical_formula_sum "Si O2"
_cell_formula_units_Z 32
_cell_length_a 6.703783
_cell_length_b 13.103268
_cell_length_c 19.381683
_cell_angle_alpha 90.000000
_cell_angle_beta 56.520561
_cell_angle_gamma 90.000000
_cell_volume 1420.040602
_symmetry_space_group_name_H-M "C 2/C"
_symmetry_group_IT_number 15
_symmetry_cell_setting 'monoclinic'
loop_
_space_group_symop_operation_xyz
x,y,z
-x,y,1/2-z
-x,-y,-z
x,-y,1/2+z
1/2+x,1/2+y,z
1/2-x,1/2+y,1/2-z
1/2-x,1/2-y,-z
1/2+x,1/2-y,1/2+z
loop_
_atom_site_type_symbol
_atom_site_label
_atom_site_fract_x
_atom_site_fract_y
_atom_site_fract_z
Si Si1 0.731653 0.791570 0.127089
Si Si2 0.257658 0.879204 0.222456
Si Si3 0.202126 0.441225 0.874249
Si Si4 0.152376 0.928034 0.020724
O O1 0.490133 0.834958 0.137774
O O2 0.729539 0.848802 0.200769
O O3 0.693938 0.671747 0.142051
O O4 0.991324 0.825215 0.049873
O O5 0.000000 0.837266 0.250000
O O6 0.265498 0.999093 0.203668
O O7 0.315239 0.516334 0.910837
O O8 0.921315 0.423217 0.941846
O O9 0.000000 0.000000 0.000000
#
# Coordination Sequence:
#
# PCOD9304615 Si02
#       4
#     8   8   8   8
#     4  11  25  43  68  97 132 181 220 269 345 388
#     4  11  24  44  63  98 135 167 229 273 317 407
#     4  11  25  45  69  98 137 173 221 280 327 397
#     4  11  23  45  70 100 136 172 225 278 327 399
#
# _framework density 22.534568
#
# number of rings (size 3 to 8) (size 9 to 14) (size 15 to 20)
#    0.000    1.000    5.000    0.750    3.500    3.000 
#    4.500    0.000    0.000    0.000    0.000    0.000 
#    0.000    0.000    0.000    0.000    0.000    0.000 
#
# Total GULP energy -89265.142508 kJ/mol
# GULP energy per Si atom -5579.071407 kJ/mol
# Density = 2.248328 g / cm^3
# Si number density = 22.534568 Si / 1000 Ang^3
#
#
#
# Elastic Constant Matrix: (Units=GPa)
#
#
# Indices 1 2 3 4 5 6 
#
# 1 122.7158 19.2864 16.4186 -0.0003 -38.3898 0.0005
# 2 19.2864 119.2047 -2.1761 -0.0002 -16.7436 0.0003
# 3 16.4186 -2.1761 41.4147 -0.0001 -20.4533 0.0002
# 4 -0.0003 -0.0002 -0.0001 21.5948 0.0002 -4.7618
# 5 -38.3898 -16.7436 -20.4533 0.0002 45.1573 -0.0004
# 6 0.0005 0.0003 0.0002 -4.7618 -0.0004 24.6314
#
#
#
# Elastic Compliance Matrix: (Units=1/GPa)
#
#
# Indices 1 2 3 4 5 6 
#
# 1 0.011130 -0.000481 0.000190 0.000000 0.009370 0.000000
# 2 -0.000481 0.009109 0.002751 0.000000 0.004214 0.000000
# 3 0.000190 0.002751 0.031944 0.000000 0.015650 0.000000
# 4 0.000000 0.000000 0.000000 0.048369 0.000000 0.009351
# 5 0.009370 0.004214 0.015650 0.000000 0.038761 0.000000
# 6 0.000000 0.000000 0.000000 0.009351 0.000000 0.042406
#
#
# Mechanical properties :
#
#
# Convention : Reuss Voigt Hill
#
# Bulk Modulus (GPa) = 17.51274 38.93256 28.22265
# Shear Modulus (GPa) = 25.53152 34.93044 30.23098
#
# Velocity S-wave (km/s) = 3.36965 3.94138 3.66667
# Velocity P-wave (km/s) = 4.78829 6.16660 5.52063
#
# Compressibility (1/GPa) = 0.05710130
#
# Stress axis : x y z
#
# Youngs Moduli (GPa) = 89.84441 109.78234 31.30454
#
# Poissons Ratio (x) = 0.05284 -0.00593
# Poissons Ratio (y) = 0.04324 -0.08611
# Poissons Ratio (z) = -0.01703 -0.30197
#
# Static dielectric constant tensor:
#      x y z
#    x 1.884700 0.000000 -0.066380 
#    y 0.000000 1.809130 0.000000 
#    z -0.066380 0.000000 1.928210 
# 
# From -- ./inp_files/226406.got.cif
#   From: 2010.05.17/outbox.cif.g08.bks.cpg/sg15_114_cif.got.tgz:226406.got - 2010.06.03 18:47:42.
