data_PCOD9304188
_publ_section_title
;
Structure prediction by ZEFSAII (Michael W. Deem and Ramdas Pophale) SiO2 
 PCOD9304188
Probable space group: C 2/C
;
_chemical_formula_sum "Si O2"
_cell_formula_units_Z 64
_cell_length_a 21.742590
_cell_length_b 17.857346
_cell_length_c 12.611491
_cell_angle_alpha 90.000000
_cell_angle_beta 29.831992
_cell_angle_gamma 90.000000
_cell_volume 2435.854848
_symmetry_space_group_name_H-M "C 2/C"
_symmetry_group_IT_number 15
_symmetry_cell_setting 'monoclinic'
loop_
_space_group_symop_operation_xyz
x,y,z
-x,y,1/2-z
-x,-y,-z
x,-y,1/2+z
1/2+x,1/2+y,z
1/2-x,1/2+y,1/2-z
1/2-x,1/2-y,-z
1/2+x,1/2-y,1/2+z
loop_
_atom_site_type_symbol
_atom_site_label
_atom_site_fract_x
_atom_site_fract_y
_atom_site_fract_z
Si Si1 0.384620 0.714434 0.793739
Si Si2 0.957002 0.437242 0.607314
Si Si3 0.950731 0.032397 0.188009
Si Si4 0.320090 0.407468 0.524878
Si Si5 0.822182 0.115244 0.688859
Si Si6 0.227319 0.871954 0.667608
Si Si7 0.376805 0.207092 0.636818
Si Si8 0.897496 0.499891 0.954665
O O1 0.382764 0.668892 0.902335
O O2 0.384329 0.656883 0.694939
O O3 0.502532 0.765758 0.606162
O O4 0.250000 0.750000 0.000000
O O5 0.919874 0.494882 0.560508
O O6 0.053821 0.369984 0.422741
O O7 0.953125 0.468000 0.744653
O O8 0.819554 0.400651 0.809693
O O9 0.839962 0.088992 0.328897
O O10 0.891757 0.970393 0.351815
O O11 0.070578 0.079894 0.042667
O O12 0.000000 0.000000 0.000000
O O13 0.325413 0.406012 0.643238
O O14 0.725049 0.050612 0.863882
O O15 0.736349 0.174854 0.759850
O O16 0.362793 0.913405 0.474420
O O17 0.187556 0.783814 0.719140
#
# Coordination Sequence:
#
# PCOD9304188 Si02
#       8
#     8   8   8   8   8   8   8   8
#     4  12  22  39  65 103 143 181 226 304 385 434
#     4  11  23  45  69 105 145 186 244 300 366 449
#     4  12  23  44  67 100 144 189 240 294 366 442
#     4  12  25  43  74 108 146 188 242 306 373 454
#     4  11  24  43  63  99 146 185 235 304 370 444
#     4  12  24  44  71 107 140 190 245 302 374 441
#     4  11  26  41  68 104 148 188 236 300 382 443
#     4  11  23  42  72  96 136 190 243 297 362 438
#
# _framework density 26.274142999999999
#
# number of rings (size 3 to 8) (size 9 to 14) (size 15 to 20)
#    0.000    0.500    6.250    2.250    1.750    3.000 
#    0.000    0.000    2.750    1.500    0.000    0.000 
#    0.000    0.000    0.000    0.000    0.000    0.000 
#
# Total GULP energy -178271.532152 kJ/mol
# GULP energy per Si atom -5570.985380 kJ/mol
# Density = 2.621434 g / cm^3
# Si number density = 26.274143 Si / 1000 Ang^3
#
#
#
# Elastic Constant Matrix: (Units=GPa)
#
#
# Indices 1 2 3 4 5 6 
#
# 1 98.9231 26.0036 32.3714 0.0000 -21.3924 0.0000
# 2 26.0036 156.8293 38.5295 0.0000 -11.2079 0.0000
# 3 32.3714 38.5295 112.8444 -0.0001 -30.2865 0.0001
# 4 0.0000 0.0000 -0.0001 70.0473 0.0000 -19.0510
# 5 -21.3924 -11.2079 -30.2865 0.0000 54.9616 0.0000
# 6 0.0000 0.0000 0.0001 -19.0510 0.0000 16.3755
#
#
#
# Elastic Compliance Matrix: (Units=1/GPa)
#
#
# Indices 1 2 3 4 5 6 
#
# 1 0.011809 -0.001210 -0.002121 0.000000 0.003181 0.000000
# 2 -0.001210 0.007085 -0.002125 0.000000 -0.000197 0.000000
# 3 -0.002121 -0.002125 0.011569 0.000000 0.005116 0.000000
# 4 0.000000 0.000000 0.000000 0.020884 0.000000 0.024296
# 5 0.003181 -0.000197 0.005116 0.000000 0.022212 0.000000
# 6 0.000000 0.000000 0.000000 0.024296 0.000000 0.089332
#
#
# Mechanical properties :
#
#
# Convention : Reuss Voigt Hill
#
# Bulk Modulus (GPa) = 51.14634 62.48955 56.81794
# Shear Modulus (GPa) = 27.72871 46.38968 37.05920
#
# Velocity S-wave (km/s) = 3.25216 4.20647 3.75971
# Velocity P-wave (km/s) = 5.79747 6.88678 6.36547
#
# Compressibility (1/GPa) = 0.01955174
#
# Stress axis : x y z
#
# Youngs Moduli (GPa) = 84.68322 141.14532 86.43917
#
# Poissons Ratio (x) = 0.17073 0.18332
# Poissons Ratio (y) = 0.10244 0.18368
# Poissons Ratio (z) = 0.17960 0.29992
#
# Static dielectric constant tensor:
#      x y z
#    x 2.237890 0.000000 0.091420 
#    y 0.000000 2.133750 0.000000 
#    z 0.091420 0.000000 2.065100 
# 
# From -- ./inp_files/174233.got.cif
#   From: 2010.05.17/outbox.cif.g08.bks.cpg/sg15_88_cif.got.tgz:174233.got - 2010.06.03 18:47:42.
