data_PCOD9304740
_publ_section_title
;
Structure prediction by ZEFSAII (Michael W. Deem and Ramdas Pophale) SiO2 
 PCOD9304740
Probable space group: C 2/C
;
_chemical_formula_sum "Si O2"
_cell_formula_units_Z 40
_cell_length_a 16.824020
_cell_length_b 25.132540
_cell_length_c 9.417453
_cell_angle_alpha 90.000000
_cell_angle_beta 31.254979
_cell_angle_gamma 90.000000
_cell_volume 2066.043154
_symmetry_space_group_name_H-M "C 2/C"
_symmetry_group_IT_number 15
_symmetry_cell_setting 'monoclinic'
loop_
_space_group_symop_operation_xyz
x,y,z
-x,y,1/2-z
-x,-y,-z
x,-y,1/2+z
1/2+x,1/2+y,z
1/2-x,1/2+y,1/2-z
1/2-x,1/2-y,-z
1/2+x,1/2-y,1/2+z
loop_
_atom_site_type_symbol
_atom_site_label
_atom_site_fract_x
_atom_site_fract_y
_atom_site_fract_z
Si Si1 0.068724 0.545534 0.491394
Si Si2 0.931803 0.757196 0.198512
Si Si3 0.923174 0.150247 0.215226
Si Si4 0.923158 0.954049 0.520445
Si Si5 0.940079 0.662202 0.682766
O O1 0.247742 0.537773 0.243224
O O2 0.000000 0.500000 0.500000
O O3 0.013084 0.604684 0.531911
O O4 0.000000 0.538669 0.750000
O O5 0.750000 0.750000 0.500000
O O6 0.000000 0.767881 0.250000
O O7 0.986448 0.803358 0.006798
O O8 0.002298 0.704184 0.020472
O O9 0.930719 0.098893 0.103409
O O10 0.743856 0.161904 0.520534
O O11 0.000000 0.140609 0.250000
O O12 0.000000 0.000000 0.500000
O O13 0.000000 0.948219 0.250000
O O14 0.000000 0.675826 0.750000
#
# Coordination Sequence:
#
# PCOD9304740 Si02
#       5
#     8   8   8   8   8
#     4  11  24  45  69  99 136 179 224 275 338 403
#     4  12  26  44  70 104 135 173 229 285 340 402
#     4  12  25  45  70  98 137 183 226 275 341 407
#     4  12  26  44  71 102 139 177 227 285 335 403
#     4  11  23  46  69  95 137 182 225 274 343 405
#
# _framework density 19.360679999999999
#
# number of rings (size 3 to 8) (size 9 to 14) (size 15 to 20)
#    0.000    0.400    4.000    6.000    5.600    0.800 
#    0.000    0.000    0.000    0.000    0.000    0.000 
#    0.000    0.000    0.000    0.000    0.000    0.000 
#
# Total GULP energy -111772.513451 kJ/mol
# GULP energy per Si atom -5588.625673 kJ/mol
# Density = 1.931661 g / cm^3
# Si number density = 19.360680 Si / 1000 Ang^3
#
#
#
# Elastic Constant Matrix: (Units=GPa)
#
#
# Indices 1 2 3 4 5 6 
#
# 1 152.9757 59.1039 74.1483 0.0000 -14.5781 -0.0001
# 2 59.1039 143.5780 76.1105 0.0000 8.0857 0.0000
# 3 74.1483 76.1105 178.0247 0.0000 -31.2907 -0.0001
# 4 0.0000 0.0000 0.0000 36.6349 0.0001 11.2199
# 5 -14.5781 8.0857 -31.2907 0.0001 47.2183 0.0001
# 6 -0.0001 0.0000 -0.0001 11.2199 0.0001 34.4197
#
#
#
# Elastic Compliance Matrix: (Units=1/GPa)
#
#
# Indices 1 2 3 4 5 6 
#
# 1 0.008766 -0.002472 -0.002314 0.000000 0.001596 0.000000
# 2 -0.002472 0.010697 -0.004527 0.000000 -0.005595 0.000000
# 3 -0.002314 -0.004527 0.009651 0.000000 0.006457 0.000000
# 4 0.000000 0.000000 0.000000 0.030324 0.000000 -0.009885
# 5 0.001596 -0.005595 0.006457 0.000000 0.026908 0.000000
# 6 0.000000 0.000000 0.000000 -0.009885 0.000000 0.032275
#
#
# Mechanical properties :
#
#
# Convention : Reuss Voigt Hill
#
# Bulk Modulus (GPa) = 95.34022 99.25600 97.29811
# Shear Modulus (GPa) = 35.52581 41.33563 38.43072
#
# Velocity S-wave (km/s) = 4.28827 4.62565 4.46015
# Velocity P-wave (km/s) = 8.59478 8.93907 8.76861
#
# Compressibility (1/GPa) = 0.01048875
#
# Stress axis : x y z
#
# Youngs Moduli (GPa) = 114.08343 93.48041 103.61382
#
# Poissons Ratio (x) = 0.23107 0.23971
# Poissons Ratio (y) = 0.28200 0.46910
# Poissons Ratio (z) = 0.26393 0.42322
#
# Static dielectric constant tensor:
#      x y z
#    x 1.655910 0.000000 -0.010240 
#    y 0.000000 1.457990 0.000000 
#    z -0.010240 0.000000 1.651980 
# 
# From -- ./inp_files/51668.got.cif
#   From: 2010.05.17/outbox.cif.g08.bks.cpg/sg15_26_cif.got.tgz:51668.got - 2010.06.03 18:47:42.
