data_PCOD9304256
_publ_section_title
;
Structure prediction by ZEFSAII (Michael W. Deem and Ramdas Pophale) SiO2 
 PCOD9304256
Probable space group: C 2/C
;
_chemical_formula_sum "Si O2"
_cell_formula_units_Z 32
_cell_length_a 18.094585
_cell_length_b 7.615099
_cell_length_c 9.315710
_cell_angle_alpha 90.000000
_cell_angle_beta 78.576337
_cell_angle_gamma 90.000000
_cell_volume 1258.201414
_symmetry_space_group_name_H-M "C 2/C"
_symmetry_group_IT_number 15
_symmetry_cell_setting 'monoclinic'
loop_
_space_group_symop_operation_xyz
x,y,z
-x,y,1/2-z
-x,-y,-z
x,-y,1/2+z
1/2+x,1/2+y,z
1/2-x,1/2+y,1/2-z
1/2-x,1/2-y,-z
1/2+x,1/2-y,1/2+z
loop_
_atom_site_type_symbol
_atom_site_label
_atom_site_fract_x
_atom_site_fract_y
_atom_site_fract_z
Si Si1 0.663451 0.971954 0.727092
Si Si2 0.066480 0.362687 0.008784
Si Si3 0.425392 0.503426 0.845871
Si Si4 0.328114 0.338016 0.627951
O O1 0.618253 0.839705 0.847679
O O2 0.743703 0.907213 0.641965
O O3 0.613428 0.046222 0.618075
O O4 0.676846 0.136695 0.826728
O O5 0.045679 0.170736 0.077915
O O6 0.000000 0.500000 0.000000
O O7 0.500000 0.586901 0.750000
O O8 0.368830 0.434046 0.745775
O O9 0.379072 0.625658 0.970451
#
# Coordination Sequence:
#
# PCOD9304256 Si02
#       4
#     8   8   8   8
#     4  11  24  42  68 100 133 173 220 272 329 391
#     4  11  23  43  67  95 131 172 223 273 326 391
#     4  11  24  44  66  94 133 174 219 271 327 391
#     4  11  24  43  67  99 135 172 220 272 327 391
#
# _framework density 25.433129999999998
#
# number of rings (size 3 to 8) (size 9 to 14) (size 15 to 20)
#    0.000    1.000    0.000    7.500    0.000   10.000 
#    0.000    3.750    0.000    0.000    0.000    0.000 
#    0.000    0.000    0.000    0.000    0.000    0.000 
#
# Total GULP energy -89928.211900 kJ/mol
# GULP energy per Si atom -5620.513244 kJ/mol
# Density = 2.537524 g / cm^3
# Si number density = 25.433130 Si / 1000 Ang^3
#
#
#
# Elastic Constant Matrix: (Units=GPa)
#
#
# Indices 1 2 3 4 5 6 
#
# 1 153.6957 41.0872 64.3139 0.0000 -21.7215 0.0000
# 2 41.0872 103.1434 35.0569 0.0000 -17.1280 0.0000
# 3 64.3139 35.0569 176.5821 0.0000 -32.6937 0.0000
# 4 0.0000 0.0000 0.0000 42.9430 0.0000 4.9194
# 5 -21.7215 -17.1280 -32.6937 0.0000 50.5562 0.0000
# 6 0.0000 0.0000 0.0000 4.9194 0.0000 34.3389
#
#
#
# Elastic Compliance Matrix: (Units=1/GPa)
#
#
# Indices 1 2 3 4 5 6 
#
# 1 0.008271 -0.002294 -0.002321 0.000000 0.001276 0.000000
# 2 -0.002294 0.011315 -0.001004 0.000000 0.002199 0.000000
# 3 -0.002321 -0.001004 0.007339 0.000000 0.003409 0.000000
# 4 0.000000 0.000000 0.000000 0.023675 0.000000 -0.003392
# 5 0.001276 0.002199 0.003409 0.000000 0.023277 0.000000
# 6 0.000000 0.000000 0.000000 -0.003392 0.000000 0.029607
#
#
# Mechanical properties :
#
#
# Convention : Reuss Voigt Hill
#
# Bulk Modulus (GPa) = 63.74417 79.37077 71.55747
# Shear Modulus (GPa) = 41.68341 45.09852 43.39096
#
# Velocity S-wave (km/s) = 4.05278 4.21553 4.13495
# Velocity P-wave (km/s) = 6.85696 7.41415 7.14099
#
# Compressibility (1/GPa) = 0.01568771
#
# Stress axis : x y z
#
# Youngs Moduli (GPa) = 120.90327 88.37503 136.26314
#
# Poissons Ratio (x) = 0.20275 0.31624
# Poissons Ratio (y) = 0.27737 0.13678
# Poissons Ratio (z) = 0.28059 0.08871
#
# Static dielectric constant tensor:
#      x y z
#    x 1.945400 0.000000 0.017900 
#    y 0.000000 1.993610 0.000000 
#    z 0.017900 0.000000 1.992940 
# 
# From -- ./inp_files/93438.got.cif
#   From: 2010.05.17/outbox.cif.g08.bks.cpg/sg15_47_cif.got.tgz:93438.got - 2010.06.03 18:47:42.
