data_PCOD9304016
_publ_section_title
;
Structure prediction by ZEFSAII (Michael W. Deem and Ramdas Pophale) SiO2 
 PCOD9304016
Probable space group: C 2/C
;
_chemical_formula_sum "Si O2"
_cell_formula_units_Z 36
_cell_length_a 14.153424
_cell_length_b 11.851621
_cell_length_c 14.321414
_cell_angle_alpha 90.000000
_cell_angle_beta 36.869081
_cell_angle_gamma 90.000000
_cell_volume 1441.345738
_symmetry_space_group_name_H-M "C 2/C"
_symmetry_group_IT_number 15
_symmetry_cell_setting 'monoclinic'
loop_
_space_group_symop_operation_xyz
x,y,z
-x,y,1/2-z
-x,-y,-z
x,-y,1/2+z
1/2+x,1/2+y,z
1/2-x,1/2+y,1/2-z
1/2-x,1/2-y,-z
1/2+x,1/2-y,1/2+z
loop_
_atom_site_type_symbol
_atom_site_label
_atom_site_fract_x
_atom_site_fract_y
_atom_site_fract_z
Si Si1 0.000000 0.759672 0.250000
Si Si2 0.469048 0.347918 0.564679
Si Si3 0.728095 0.066167 0.092419
Si Si4 0.170625 0.969599 0.186838
Si Si5 0.664171 0.890273 0.280876
O O1 0.863737 0.671191 0.380130
O O2 0.920004 0.848720 0.243527
O O3 0.350092 0.382638 0.573455
O O4 0.421365 0.434468 0.684375
O O5 0.433503 0.222716 0.628966
O O6 0.652741 0.361497 0.393047
O O7 0.620375 0.981326 0.237338
O O8 0.797627 0.005017 0.946191
O O9 0.324352 0.948746 0.127234
#
# Coordination Sequence:
#
# PCOD9304016 Si02
#       5
#     4   8   8   8   8
#     4  12  22  40  72 104 128 176 230 280 324 412
#     4  11  25  45  68 101 140 179 221 281 341 398
#     4  11  25  42  69 103 135 178 230 276 339 399
#     4  11  23  41  70  97 135 177 223 277 335 396
#     4  11  25  44  68 101 140 177 223 280 340 399
#
# _framework density 24.976658
#
# number of rings (size 3 to 8) (size 9 to 14) (size 15 to 20)
#    0.000    0.889    2.222    6.000    3.111    2.667 
#    0.000    5.556    0.000    0.000    0.000    0.000 
#    0.000    0.000    0.000    0.000    0.000    0.000 
#
# Total GULP energy -100606.244057 kJ/mol
# GULP energy per Si atom -5589.235781 kJ/mol
# Density = 2.491981 g / cm^3
# Si number density = 24.976658 Si / 1000 Ang^3
#
#
#
# Elastic Constant Matrix: (Units=GPa)
#
#
# Indices 1 2 3 4 5 6 
#
# 1 110.0309 25.3622 43.3143 0.0000 26.9282 0.0000
# 2 25.3622 82.7252 14.8923 0.0000 16.9596 0.0000
# 3 43.3143 14.8923 74.8756 0.0000 30.6519 0.0000
# 4 0.0000 0.0000 0.0000 43.9592 0.0000 -6.9003
# 5 26.9282 16.9596 30.6519 0.0000 48.5829 0.0000
# 6 0.0000 0.0000 0.0000 -6.9003 0.0000 39.7372
#
#
#
# Elastic Compliance Matrix: (Units=1/GPa)
#
#
# Indices 1 2 3 4 5 6 
#
# 1 0.012488 -0.002282 -0.005747 0.000000 -0.002499 0.000000
# 2 -0.002282 0.013491 0.000063 0.000000 -0.003485 0.000000
# 3 -0.005747 0.000063 0.020726 0.000000 -0.009913 0.000000
# 4 0.000000 0.000000 0.000000 0.023386 0.000000 0.004061
# 5 -0.002499 -0.003485 -0.009913 0.000000 0.029439 0.000000
# 6 0.000000 0.000000 0.000000 0.004061 0.000000 0.025871
#
#
# Mechanical properties :
#
#
# Convention : Reuss Voigt Hill
#
# Bulk Modulus (GPa) = 32.49593 48.30770 40.40181
# Shear Modulus (GPa) = 32.98373 38.72671 35.85522
#
# Velocity S-wave (km/s) = 3.63792 3.94193 3.79297
# Velocity P-wave (km/s) = 5.53938 6.33258 5.94921
#
# Compressibility (1/GPa) = 0.03077309
#
# Stress axis : x y z
#
# Youngs Moduli (GPa) = 80.07392 74.12482 48.24942
#
# Poissons Ratio (x) = 0.16913 0.27731
# Poissons Ratio (y) = 0.18271 -0.00305
# Poissons Ratio (z) = 0.46021 -0.00468
#
# Static dielectric constant tensor:
#      x y z
#    x 2.032530 0.000000 -0.084860 
#    y 0.000000 1.926730 0.000000 
#    z -0.084860 0.000000 2.064180 
# 
# From -- ./inp_files/94751.got.cif
#   From: 2010.05.17/outbox.cif.g08.bks.cpg/sg15_48_cif.got.tgz:94751.got - 2010.06.03 18:47:42.
