data_PCOD9304380
_publ_section_title
;
Structure prediction by ZEFSAII (Michael W. Deem and Ramdas Pophale) SiO2 
 PCOD9304380
Probable space group: C 2/C
;
_chemical_formula_sum "Si O2"
_cell_formula_units_Z 36
_cell_length_a 8.157069
_cell_length_b 16.638989
_cell_length_c 19.096754
_cell_angle_alpha 90.000000
_cell_angle_beta 144.077402
_cell_angle_gamma 90.000000
_cell_volume 1520.654817
_symmetry_space_group_name_H-M "C 2/C"
_symmetry_group_IT_number 15
_symmetry_cell_setting 'monoclinic'
loop_
_space_group_symop_operation_xyz
x,y,z
-x,y,1/2-z
-x,-y,-z
x,-y,1/2+z
1/2+x,1/2+y,z
1/2-x,1/2+y,1/2-z
1/2-x,1/2-y,-z
1/2+x,1/2-y,1/2+z
loop_
_atom_site_type_symbol
_atom_site_label
_atom_site_fract_x
_atom_site_fract_y
_atom_site_fract_z
Si Si1 0.229028 0.101166 0.577236
Si Si2 0.264707 0.070176 0.426954
Si Si3 0.357681 0.445069 0.308909
Si Si4 0.000000 0.807109 0.250000
Si Si5 0.536666 0.235343 0.490299
O O1 0.203411 0.097656 0.485481
O O2 0.045858 0.060449 0.576293
O O3 0.527915 0.060206 0.690887
O O4 0.193031 0.194555 0.585440
O O5 0.384958 0.149247 0.431751
O O6 0.500000 0.000000 0.500000
O O7 0.976964 0.023630 0.313488
O O8 0.447755 0.366793 0.296838
O O9 0.726981 0.760854 0.127533
O O10 0.750000 0.250000 0.500000
#
# Coordination Sequence:
#
# PCOD9304380 Si02
#       5
#     8   8   8   4   8
#     4  11  24  46  71 107 152 191 248 310 369 444
#     4  12  23  43  73 106 145 195 242 302 374 441
#     4  11  23  43  73 103 148 197 237 305 378 441
#     4  12  22  46  72 104 150 188 246 302 380 428
#     4  12  25  47  78 110 149 196 249 315 375 442
#
# _framework density 23.674011
#
# number of rings (size 3 to 8) (size 9 to 14) (size 15 to 20)
#    0.000    0.444    6.667    1.333    0.000    0.000 
#    0.000   17.778    0.000    0.000    0.000    0.000 
#    0.000    0.000    0.000    0.000    0.000    0.000 
#
# Total GULP energy -100386.757898 kJ/mol
# GULP energy per Si atom -5577.042105 kJ/mol
# Density = 2.362013 g / cm^3
# Si number density = 23.674011 Si / 1000 Ang^3
#
#
#
# Elastic Constant Matrix: (Units=GPa)
#
#
# Indices 1 2 3 4 5 6 
#
# 1 165.5843 79.4051 26.2958 -0.0004 -18.5193 -0.0006
# 2 79.4051 160.5934 26.3248 0.0000 19.8360 -0.0002
# 3 26.2958 26.3248 61.6185 0.0003 6.4254 -0.0002
# 4 -0.0004 0.0000 0.0003 37.9601 0.0000 12.9576
# 5 -18.5193 19.8360 6.4254 0.0000 51.4258 -0.0006
# 6 -0.0006 -0.0002 -0.0002 12.9576 -0.0006 62.0122
#
#
#
# Elastic Compliance Matrix: (Units=1/GPa)
#
#
# Indices 1 2 3 4 5 6 
#
# 1 0.009440 -0.004952 -0.002499 0.000000 0.005622 0.000000
# 2 -0.004952 0.009562 -0.001420 0.000000 -0.005294 0.000000
# 3 -0.002499 -0.001420 0.018175 0.000000 -0.002623 0.000000
# 4 0.000000 0.000000 0.000000 0.028367 0.000000 -0.005927
# 5 0.005622 -0.005294 -0.002623 0.000000 0.023840 0.000000
# 6 0.000000 0.000000 0.000000 -0.005927 0.000000 0.017364
#
#
# Mechanical properties :
#
#
# Convention : Reuss Voigt Hill
#
# Bulk Modulus (GPa) = 51.45220 72.42751 61.93986
# Shear Modulus (GPa) = 38.17721 47.33100 42.75410
#
# Velocity S-wave (km/s) = 4.02010 4.47618 4.25426
# Velocity P-wave (km/s) = 6.58248 7.57463 7.09592
#
# Compressibility (1/GPa) = 0.01943551
#
# Stress axis : x y z
#
# Youngs Moduli (GPa) = 105.93690 104.57901 55.01946
#
# Poissons Ratio (x) = 0.51789 0.13749
# Poissons Ratio (y) = 0.52461 0.07811
# Poissons Ratio (z) = 0.26473 0.14848
#
# Static dielectric constant tensor:
#      x y z
#    x 1.990520 0.000000 -0.166760 
#    y 0.000000 1.887600 0.000000 
#    z -0.166760 0.000000 1.678140 
# 
# From -- ./inp_files/231661.got.cif
#   From: 2010.05.17/outbox.cif.g08.bks.cpg/sg15_116_cif.got.tgz:231661.got - 2010.06.03 18:47:42.
