data_PCOD9304647
_publ_section_title
;
Structure prediction by ZEFSAII (Michael W. Deem and Ramdas Pophale) SiO2 
 PCOD9304647
Probable space group: C 2/C
;
_chemical_formula_sum "Si O2"
_cell_formula_units_Z 56
_cell_length_a 11.617655
_cell_length_b 8.808388
_cell_length_c 22.969094
_cell_angle_alpha 90.000000
_cell_angle_beta 113.724045
_cell_angle_gamma 90.000000
_cell_volume 2151.860921
_symmetry_space_group_name_H-M "C 2/C"
_symmetry_group_IT_number 15
_symmetry_cell_setting 'monoclinic'
loop_
_space_group_symop_operation_xyz
x,y,z
-x,y,1/2-z
-x,-y,-z
x,-y,1/2+z
1/2+x,1/2+y,z
1/2-x,1/2+y,1/2-z
1/2-x,1/2-y,-z
1/2+x,1/2-y,1/2+z
loop_
_atom_site_type_symbol
_atom_site_label
_atom_site_fract_x
_atom_site_fract_y
_atom_site_fract_z
Si Si1 0.518797 0.319268 0.635423
Si Si2 0.341213 0.970280 0.325231
Si Si3 0.066212 0.555886 0.453686
Si Si4 0.136013 0.424328 0.792371
Si Si5 0.000363 0.821295 0.003097
Si Si6 0.227678 0.634015 0.908230
Si Si7 0.418686 0.415922 0.177540
O O1 0.625205 0.206766 0.682974
O O2 0.529095 0.281365 0.569262
O O3 0.385529 0.248181 0.627163
O O4 0.496958 0.498160 0.643092
O O5 0.224045 0.971260 0.344795
O O6 0.465014 0.035809 0.381473
O O7 0.308198 0.066614 0.261208
O O8 0.186355 0.462335 0.457002
O O9 0.000000 0.500000 0.500000
O O10 0.090320 0.732089 0.471993
O O11 0.224353 0.516500 0.854037
O O12 0.099121 0.265613 0.816274
O O13 0.000000 0.498977 0.750000
O O14 0.141800 0.785680 0.052902
O O15 0.000000 0.000000 0.000000
O O16 0.500000 0.465851 0.250000
#
# Coordination Sequence:
#
# PCOD9304647 Si02
#       7
#     8   8   8   8   8   8   8
#     4  11  25  46  71 104 141 191 239 293 361 437
#     4  11  25  46  80 100 148 195 238 300 371 433
#     4  11  23  45  72 102 137 189 237 290 356 432
#     4  11  24  49  68 105 140 189 236 299 365 430
#     4  12  28  42  69 108 142 183 243 296 362 430
#     4  11  25  45  75  96 147 188 239 297 361 439
#     4  11  29  43  72 109 145 182 246 302 359 434
#
# _framework density 26.023986000000001
#
# number of rings (size 3 to 8) (size 9 to 14) (size 15 to 20)
#    0.000    0.857    5.714    1.286   10.000    1.714 
#    0.000    0.000    0.000    0.000    0.000    0.000 
#    0.000    0.000    0.000    0.000    0.000    0.000 
#
# Total GULP energy -156523.128664 kJ/mol
# GULP energy per Si atom -5590.111738 kJ/mol
# Density = 2.596475 g / cm^3
# Si number density = 26.023986 Si / 1000 Ang^3
#
#
#
# Elastic Constant Matrix: (Units=GPa)
#
#
# Indices 1 2 3 4 5 6 
#
# 1 89.4475 22.0876 10.3561 0.0000 10.7702 0.0000
# 2 22.0876 130.7285 43.5514 0.0000 -13.2855 0.0000
# 3 10.3561 43.5514 97.5746 0.0000 -15.2025 0.0000
# 4 0.0000 0.0000 0.0000 38.4293 0.0000 -3.9725
# 5 10.7702 -13.2855 -15.2025 0.0000 38.8020 0.0000
# 6 0.0000 0.0000 0.0000 -3.9725 0.0000 30.1215
#
#
#
# Elastic Compliance Matrix: (Units=1/GPa)
#
#
# Indices 1 2 3 4 5 6 
#
# 1 0.012403 -0.002216 -0.001046 0.000000 -0.004611 0.000000
# 2 -0.002216 0.009476 -0.003614 0.000000 0.002444 0.000000
# 3 -0.001046 -0.003614 0.012594 0.000000 0.003987 0.000000
# 4 0.000000 0.000000 0.000000 0.026381 0.000000 0.003479
# 5 -0.004611 0.002444 0.003987 0.000000 0.029451 0.000000
# 6 0.000000 0.000000 0.000000 0.003479 0.000000 0.033658
#
#
# Mechanical properties :
#
#
# Convention : Reuss Voigt Hill
#
# Bulk Modulus (GPa) = 48.25701 52.19344 50.22523
# Shear Modulus (GPa) = 34.57318 37.58759 36.08039
#
# Velocity S-wave (km/s) = 3.64883 3.80458 3.72752
# Velocity P-wave (km/s) = 6.02789 6.27688 6.15364
#
# Compressibility (1/GPa) = 0.02072238
#
# Stress axis : x y z
#
# Youngs Moduli (GPa) = 80.62429 105.52953 79.40489
#
# Poissons Ratio (x) = 0.23383 0.08305
# Poissons Ratio (y) = 0.17865 0.28694
# Poissons Ratio (z) = 0.08432 0.38134
#
# Static dielectric constant tensor:
#      x y z
#    x 2.079260 0.000000 -0.035680 
#    y 0.000000 2.221490 0.000000 
#    z -0.035680 0.000000 2.029320 
# 
# From -- ./inp_files/273255.got.cif
#   From: 2010.05.17/outbox.cif.g08.bks.cpg/sg15_137_cif.got.tgz:273255.got - 2010.06.03 18:47:42.
