data_PCOD9304766
_publ_section_title
;
Structure prediction by ZEFSAII (Michael W. Deem and Ramdas Pophale) SiO2 
 PCOD9304766
Probable space group: C 2/C
;
_chemical_formula_sum "Si O2"
_cell_formula_units_Z 52
_cell_length_a 13.867389
_cell_length_b 27.496030
_cell_length_c 12.240719
_cell_angle_alpha 90.000000
_cell_angle_beta 30.787617
_cell_angle_gamma 90.000000
_cell_volume 2389.023631
_symmetry_space_group_name_H-M "C 2/C"
_symmetry_group_IT_number 15
_symmetry_cell_setting 'monoclinic'
loop_
_space_group_symop_operation_xyz
x,y,z
-x,y,1/2-z
-x,-y,-z
x,-y,1/2+z
1/2+x,1/2+y,z
1/2-x,1/2+y,1/2-z
1/2-x,1/2-y,-z
1/2+x,1/2-y,1/2+z
loop_
_atom_site_type_symbol
_atom_site_label
_atom_site_fract_x
_atom_site_fract_y
_atom_site_fract_z
Si Si1 0.354399 0.218529 0.807426
Si Si2 0.565922 0.478688 0.056466
Si Si3 0.937639 0.867389 0.191534
Si Si4 0.087490 0.641071 0.904352
Si Si5 0.343302 0.945403 0.310501
Si Si6 0.167287 0.180887 0.279431
Si Si7 0.000000 0.885055 0.750000
O O1 0.500000 0.194120 0.750000
O O2 0.287645 0.173810 0.801420
O O3 0.388833 0.263145 0.691039
O O4 0.250000 0.250000 0.000000
O O5 0.500000 0.489450 0.250000
O O6 0.508777 0.422559 0.102747
O O7 0.500000 0.500000 0.000000
O O8 0.778267 0.499639 0.850343
O O9 0.000000 0.852792 0.250000
O O10 0.713861 0.862131 0.389093
O O11 0.050657 0.835876 0.995742
O O12 0.078232 0.586810 0.865367
O O13 0.887107 0.668694 0.093022
O O14 0.500000 0.944331 0.250000
O O15 0.152732 0.918199 0.537912
O O16 0.110357 0.148833 0.228944
#
# Coordination Sequence:
#
# PCOD9304766 Si02
#       7
#     8   8   8   8   8   8   4
#     4  12  22  38  66 108 148 172 213 280 361 419
#     4  11  23  46  72  98 138 186 237 299 360 424
#     4  11  27  50  68  92 141 190 240 292 344 409
#     4  12  24  41  70 102 139 181 234 284 349 422
#     4  12  23  39  66 107 139 175 226 288 354 430
#     4  12  24  41  71 103 142 184 222 278 357 423
#     4  12  20  36  64 106 144 174 206 276 364 416
#
# _framework density 21.766214999999999
#
# number of rings (size 3 to 8) (size 9 to 14) (size 15 to 20)
#    0.000    0.308    7.692    2.308    0.000    0.615 
#    5.538    2.308    0.000    0.000    0.000    0.000 
#    0.000    0.000    0.000    0.000    0.000    0.000 
#
# Total GULP energy -144803.359766 kJ/mol
# GULP energy per Si atom -5569.359991 kJ/mol
# Density = 2.171667 g / cm^3
# Si number density = 21.766215 Si / 1000 Ang^3
#
#
#
# Elastic Constant Matrix: (Units=GPa)
#
#
# Indices 1 2 3 4 5 6 
#
# 1 193.9906 28.9748 44.4073 0.0000 -10.4332 0.0000
# 2 28.9748 84.8353 16.6954 0.0000 -0.6866 0.0000
# 3 44.4073 16.6954 59.0811 -0.0001 -7.2631 0.0001
# 4 0.0000 0.0000 -0.0001 26.3545 0.0001 -0.9048
# 5 -10.4332 -0.6866 -7.2631 0.0001 45.8388 -0.0001
# 6 0.0000 0.0000 0.0001 -0.9048 -0.0001 34.7258
#
#
#
# Elastic Compliance Matrix: (Units=1/GPa)
#
#
# Indices 1 2 3 4 5 6 
#
# 1 0.006384 -0.001322 -0.004333 0.000000 0.000747 0.000000
# 2 -0.001322 0.012762 -0.002679 0.000000 -0.000534 0.000000
# 3 -0.004333 -0.002679 0.021227 0.000000 0.002337 0.000000
# 4 0.000000 0.000000 0.000000 0.037978 0.000000 0.000990
# 5 0.000747 -0.000534 0.002337 0.000000 0.022348 0.000000
# 6 0.000000 0.000000 0.000000 0.000990 0.000000 0.028823
#
#
# Mechanical properties :
#
#
# Convention : Reuss Voigt Hill
#
# Bulk Modulus (GPa) = 42.18321 57.56246 49.87284
# Shear Modulus (GPa) = 32.44822 37.90580 35.17701
#
# Velocity S-wave (km/s) = 3.86523 4.17765 4.02447
# Velocity P-wave (km/s) = 6.27233 7.05504 6.67517
#
# Compressibility (1/GPa) = 0.02370611
#
# Stress axis : x y z
#
# Youngs Moduli (GPa) = 156.63044 78.35911 47.10924
#
# Poissons Ratio (x) = 0.10357 0.20415
# Poissons Ratio (y) = 0.20702 0.12618
# Poissons Ratio (z) = 0.67875 0.20989
#
# Static dielectric constant tensor:
#      x y z
#    x 1.766850 0.000000 0.023690 
#    y 0.000000 1.814110 0.000000 
#    z 0.023690 0.000000 1.886260 
# 
# From -- ./inp_files/92537.got.cif
#   From: 2010.05.17/outbox.cif.g08.bks.cpg/sg15_47_cif.got.tgz:92537.got - 2010.06.03 18:47:42.
