data_PCOD9304532
_publ_section_title
;
Structure prediction by ZEFSAII (Michael W. Deem and Ramdas Pophale) SiO2 
 PCOD9304532
Probable space group: C 2/C
;
_chemical_formula_sum "Si O2"
_cell_formula_units_Z 52
_cell_length_a 11.025046
_cell_length_b 10.671065
_cell_length_c 22.268400
_cell_angle_alpha 90.000000
_cell_angle_beta 120.602285
_cell_angle_gamma 90.000000
_cell_volume 2254.965773
_symmetry_space_group_name_H-M "C 2/C"
_symmetry_group_IT_number 15
_symmetry_cell_setting 'monoclinic'
loop_
_space_group_symop_operation_xyz
x,y,z
-x,y,1/2-z
-x,-y,-z
x,-y,1/2+z
1/2+x,1/2+y,z
1/2-x,1/2+y,1/2-z
1/2-x,1/2-y,-z
1/2+x,1/2-y,1/2+z
loop_
_atom_site_type_symbol
_atom_site_label
_atom_site_fract_x
_atom_site_fract_y
_atom_site_fract_z
Si Si1 0.580762 0.874319 0.999376
Si Si2 0.500000 0.316243 0.250000
Si Si3 0.798277 0.962804 0.274532
Si Si4 0.332937 0.706264 0.213556
Si Si5 0.175942 0.279273 0.895503
Si Si6 0.202897 0.761344 0.056620
Si Si7 0.878096 0.007028 0.420098
O O1 0.734496 0.846194 0.066612
O O2 0.617430 0.850436 0.939111
O O3 0.462927 0.769784 0.984010
O O4 0.500000 0.000000 0.000000
O O5 0.371245 0.402571 0.235720
O O6 0.451880 0.238493 0.181141
O O7 0.693859 0.850580 0.270335
O O8 0.908143 0.972391 0.358578
O O9 0.765722 0.104089 0.243182
O O10 0.500000 0.685921 0.250000
O O11 0.269501 0.688233 0.130170
O O12 0.295474 0.364743 0.896420
O O13 0.229677 0.903850 0.082145
O O14 0.250000 0.750000 0.000000
O O15 0.000000 0.000000 0.500000
#
# Coordination Sequence:
#
# PCOD9304532 Si02
#       7
#     8   4   8   8   8   8   8
#     4  11  25  45  74 107 144 192 249 306 377 450
#     4  12  26  46  76 108 150 198 246 314 378 454
#     4  11  26  48  73 109 150 195 255 309 385 458
#     4  11  26  50  75 108 149 203 247 317 381 456
#     4  11  25  47  73 108 149 195 248 314 373 450
#     4  11  25  45  70 109 145 187 252 309 376 458
#     4  11  23  44  72  99 144 192 239 311 374 441
#
# _framework density 23.060217999999999
#
# number of rings (size 3 to 8) (size 9 to 14) (size 15 to 20)
#    0.000    0.923    2.308    3.692    6.462    1.231 
#   18.000    0.000    0.000    0.000    0.000    0.000 
#    0.000    0.000    0.000    0.000    0.000    0.000 
#
# Total GULP energy -144945.705553 kJ/mol
# GULP energy per Si atom -5574.834829 kJ/mol
# Density = 2.300773 g / cm^3
# Si number density = 23.060218 Si / 1000 Ang^3
#
#
#
# Elastic Constant Matrix: (Units=GPa)
#
#
# Indices 1 2 3 4 5 6 
#
# 1 73.2257 20.1824 29.7364 0.0000 -10.0560 0.0000
# 2 20.1824 124.0557 49.5840 0.0000 -2.3018 0.0000
# 3 29.7364 49.5840 157.4124 0.0000 -20.9435 0.0000
# 4 0.0000 0.0000 0.0000 19.7564 0.0000 -1.2627
# 5 -10.0560 -2.3018 -20.9435 0.0000 40.3274 0.0000
# 6 0.0000 0.0000 0.0000 -1.2627 0.0000 33.9266
#
#
#
# Elastic Compliance Matrix: (Units=1/GPa)
#
#
# Indices 1 2 3 4 5 6 
#
# 1 0.015293 -0.001631 -0.002020 0.000000 0.002671 0.000000
# 2 -0.001631 0.009438 -0.002844 0.000000 -0.001345 0.000000
# 3 -0.002020 -0.002844 0.008101 0.000000 0.003541 0.000000
# 4 0.000000 0.000000 0.000000 0.050737 0.000000 0.001888
# 5 0.002671 -0.001345 0.003541 0.000000 0.027226 0.000000
# 6 0.000000 0.000000 0.000000 0.001888 0.000000 0.029546
#
#
# Mechanical properties :
#
#
# Convention : Reuss Voigt Hill
#
# Bulk Modulus (GPa) = 50.39564 61.52217 55.95890
# Shear Modulus (GPa) = 31.26094 35.81482 33.53788
#
# Velocity S-wave (km/s) = 3.68587 3.94521 3.81775
# Velocity P-wave (km/s) = 6.32579 6.89128 6.61458
#
# Compressibility (1/GPa) = 0.01984299
#
# Stress axis : x y z
#
# Youngs Moduli (GPa) = 65.38916 105.95572 123.43868
#
# Poissons Ratio (x) = 0.17283 0.24931
# Poissons Ratio (y) = 0.10666 0.35102
# Poissons Ratio (z) = 0.13207 0.30130
#
# Static dielectric constant tensor:
#      x y z
#    x 1.862950 0.000000 -0.037690 
#    y 0.000000 2.028540 0.000000 
#    z -0.037690 0.000000 1.893300 
# 
# From -- ./inp_files/269318.got.cif
#   From: 2010.05.17/outbox.cif.g08.bks.cpg/sg15_135_cif.got.tgz:269318.got - 2010.06.03 18:47:42.
