data_PCOD9304301
_publ_section_title
;
Structure prediction by ZEFSAII (Michael W. Deem and Ramdas Pophale) SiO2 
 PCOD9304301
Probable space group: C 2/C
;
_chemical_formula_sum "Si O2"
_cell_formula_units_Z 40
_cell_length_a 17.191718
_cell_length_b 10.852830
_cell_length_c 17.141817
_cell_angle_alpha 90.000000
_cell_angle_beta 148.828533
_cell_angle_gamma 90.000000
_cell_volume 1655.442962
_symmetry_space_group_name_H-M "C 2/C"
_symmetry_group_IT_number 15
_symmetry_cell_setting 'monoclinic'
loop_
_space_group_symop_operation_xyz
x,y,z
-x,y,1/2-z
-x,-y,-z
x,-y,1/2+z
1/2+x,1/2+y,z
1/2-x,1/2+y,1/2-z
1/2-x,1/2-y,-z
1/2+x,1/2-y,1/2+z
loop_
_atom_site_type_symbol
_atom_site_label
_atom_site_fract_x
_atom_site_fract_y
_atom_site_fract_z
Si Si1 0.356384 0.372233 0.717077
Si Si2 0.366038 0.173468 0.047445
Si Si3 0.869856 0.808650 0.446164
Si Si4 0.875695 0.146873 0.774203
Si Si5 0.669096 0.095515 0.906724
O O1 0.204406 0.326263 0.629531
O O2 0.409487 0.512851 0.767759
O O3 0.295631 0.353350 0.576632
O O4 0.484629 0.301622 0.874835
O O5 0.520675 0.246556 0.172714
O O6 0.364880 0.038605 0.084653
O O7 0.250000 0.250000 0.000000
O O8 0.294559 0.169047 0.899498
O O9 0.898267 0.861498 0.385561
O O10 0.750659 0.891654 0.393087
O O11 0.500000 0.147316 0.750000
#
# Coordination Sequence:
#
# PCOD9304301 Si02
#       5
#     8   8   8   8   8
#     4  11  25  43  67  98 139 184 232 288 351 421
#     4  11  23  43  69 101 139 184 233 284 348 424
#     4  12  24  44  68 100 141 185 234 294 352 413
#     4  11  25  44  70 104 139 183 235 294 353 415
#     4  11  24  42  68  99 136 184 233 284 346 423
#
# _framework density 24.162718000000002
#
# number of rings (size 3 to 8) (size 9 to 14) (size 15 to 20)
#    0.000    0.800    0.000    7.200    0.000    6.400 
#    0.000    5.000    0.000    0.000    0.000    0.000 
#    0.000    0.000    0.000    0.000    0.000    0.000 
#
# Total GULP energy -111682.094819 kJ/mol
# GULP energy per Si atom -5584.104741 kJ/mol
# Density = 2.410772 g / cm^3
# Si number density = 24.162718 Si / 1000 Ang^3
#
#
#
# Elastic Constant Matrix: (Units=GPa)
#
#
# Indices 1 2 3 4 5 6 
#
# 1 112.1318 20.9481 57.5265 0.0000 -31.2637 0.0000
# 2 20.9481 94.7859 58.9286 0.0000 -5.6162 0.0000
# 3 57.5265 58.9286 208.1990 0.0000 -14.3481 0.0000
# 4 0.0000 0.0000 0.0000 48.4309 0.0000 -0.3185
# 5 -31.2637 -5.6162 -14.3481 0.0000 37.2447 0.0000
# 6 0.0000 0.0000 0.0000 -0.3185 0.0000 27.3547
#
#
#
# Elastic Compliance Matrix: (Units=1/GPa)
#
#
# Indices 1 2 3 4 5 6 
#
# 1 0.013241 -0.000593 -0.002805 0.000000 0.009944 0.000000
# 2 -0.000593 0.012840 -0.003463 0.000000 0.000104 0.000000
# 3 -0.002805 -0.003463 0.006534 0.000000 -0.000360 0.000000
# 4 0.000000 0.000000 0.000000 0.020650 0.000000 0.000240
# 5 0.009944 0.000104 -0.000360 0.000000 0.035074 0.000000
# 6 0.000000 0.000000 0.000000 0.000240 0.000000 0.036560
#
#
# Mechanical properties :
#
#
# Convention : Reuss Voigt Hill
#
# Bulk Modulus (GPa) = 52.93371 76.65811 64.79591
# Shear Modulus (GPa) = 34.50222 41.12029 37.81125
#
# Velocity S-wave (km/s) = 3.78287 4.12977 3.96012
# Velocity P-wave (km/s) = 6.40585 7.38476 6.91265
#
# Compressibility (1/GPa) = 0.01889155
#
# Stress axis : x y z
#
# Youngs Moduli (GPa) = 75.52507 77.87874 153.05335
#
# Poissons Ratio (x) = 0.04618 0.42936
# Poissons Ratio (y) = 0.04478 0.53008
# Poissons Ratio (z) = 0.21187 0.26972
#
# Static dielectric constant tensor:
#      x y z
#    x 1.952780 0.000000 -0.022790 
#    y 0.000000 2.100920 0.000000 
#    z -0.022790 0.000000 1.949380 
# 
# From -- ./inp_files/210774.got.cif
#   From: 2010.05.17/outbox.cif.g08.bks.cpg/sg15_106_cif.got.tgz:210774.got - 2010.06.03 18:47:42.
