data_PCOD9304116
_publ_section_title
;
Structure prediction by ZEFSAII (Michael W. Deem and Ramdas Pophale) SiO2 
 PCOD9304116
Probable space group: C 2/C
;
_chemical_formula_sum "Si O2"
_cell_formula_units_Z 48
_cell_length_a 14.970515
_cell_length_b 25.965728
_cell_length_c 8.957524
_cell_angle_alpha 90.000000
_cell_angle_beta 39.328345
_cell_angle_gamma 90.000000
_cell_volume 2206.746941
_symmetry_space_group_name_H-M "C 2/C"
_symmetry_group_IT_number 15
_symmetry_cell_setting 'monoclinic'
loop_
_space_group_symop_operation_xyz
x,y,z
-x,y,1/2-z
-x,-y,-z
x,-y,1/2+z
1/2+x,1/2+y,z
1/2-x,1/2+y,1/2-z
1/2-x,1/2-y,-z
1/2+x,1/2-y,1/2+z
loop_
_atom_site_type_symbol
_atom_site_label
_atom_site_fract_x
_atom_site_fract_y
_atom_site_fract_z
Si Si1 0.376325 0.330783 0.529796
Si Si2 0.970040 0.917445 0.628534
Si Si3 0.294554 0.488168 0.292687
Si Si4 0.887495 0.539220 0.209175
Si Si5 0.095923 0.257410 0.268246
Si Si6 0.444019 0.158086 0.152473
O O1 0.500000 0.337958 0.250000
O O2 0.386448 0.378955 0.629920
O O3 0.414164 0.281688 0.581086
O O4 0.220255 0.325193 0.659991
O O5 0.112886 0.938454 0.367531
O O6 0.000000 0.892471 0.750000
O O7 0.885144 0.970280 0.767393
O O8 0.248628 0.522224 0.210954
O O9 0.161000 0.470035 0.559421
O O10 0.938968 0.597262 0.124127
O O11 0.000000 0.500000 0.000000
O O12 0.000000 0.245786 0.250000
O O13 0.044050 0.311525 0.406813
O O14 0.250000 0.250000 0.000000
O O15 0.500000 0.165905 0.250000
#
# Coordination Sequence:
#
# PCOD9304116 Si02
#       6
#     8   8   8   8   8   8
#     4  12  27  48  79 112 150 200 256 315 383 453
#     4  11  23  43  74 105 147 195 247 316 360 436
#     4  11  23  42  68 106 147 193 253 300 368 437
#     4  12  25  45  68 104 151 200 246 304 371 450
#     4  12  28  53  81 112 147 192 252 321 390 458
#     4  12  28  50  75 110 152 198 252 313 384 456
#
# _framework density 21.751474000000002
#
# number of rings (size 3 to 8) (size 9 to 14) (size 15 to 20)
#    0.000    0.333    5.000    3.500    2.333    4.000 
#    3.000    0.000    0.000    0.000    0.000    0.000 
#    0.000    0.000    0.000    0.000    0.000    0.000 
#
# Total GULP energy -134145.703845 kJ/mol
# GULP energy per Si atom -5589.404327 kJ/mol
# Density = 2.170197 g / cm^3
# Si number density = 21.751474 Si / 1000 Ang^3
#
#
#
# Elastic Constant Matrix: (Units=GPa)
#
#
# Indices 1 2 3 4 5 6 
#
# 1 163.8408 38.6385 35.7555 0.0000 -4.9882 0.0000
# 2 38.6385 111.2588 53.2747 0.0000 9.6298 0.0000
# 3 35.7555 53.2747 130.0178 0.0000 -11.9606 0.0000
# 4 0.0000 0.0000 0.0000 28.4064 0.0000 1.1556
# 5 -4.9882 9.6298 -11.9606 0.0000 25.8501 0.0000
# 6 0.0000 0.0000 0.0000 1.1556 0.0000 28.4042
#
#
#
# Elastic Compliance Matrix: (Units=1/GPa)
#
#
# Indices 1 2 3 4 5 6 
#
# 1 0.006841 -0.002113 -0.000858 0.000000 0.001710 0.000000
# 2 -0.002113 0.013014 -0.005468 0.000000 -0.007785 0.000000
# 3 -0.000858 -0.005468 0.010799 0.000000 0.006868 0.000000
# 4 0.000000 0.000000 0.000000 0.035262 0.000000 -0.001435
# 5 0.001710 -0.007785 0.006868 0.000000 0.045093 0.000000
# 6 0.000000 0.000000 0.000000 -0.001435 0.000000 0.035264
#
#
# Mechanical properties :
#
#
# Convention : Reuss Voigt Hill
#
# Bulk Modulus (GPa) = 72.58515 73.38388 72.98451
# Shear Modulus (GPa) = 29.80759 35.02872 32.41816
#
# Velocity S-wave (km/s) = 3.70587 4.01734 3.86474
# Velocity P-wave (km/s) = 7.19402 7.43837 7.31722
#
# Compressibility (1/GPa) = 0.01377692
#
# Stress axis : x y z
#
# Youngs Moduli (GPa) = 146.17468 76.84208 92.59779
#
# Poissons Ratio (x) = 0.16236 0.07948
# Poissons Ratio (y) = 0.30885 0.50628
# Poissons Ratio (z) = 0.12546 0.42013
#
# Static dielectric constant tensor:
#      x y z
#    x 1.945050 0.000000 -0.013770 
#    y 0.000000 1.494470 0.000000 
#    z -0.013770 0.000000 1.822740 
# 
# From -- ./inp_files/43845.got.cif
#   From: 2010.05.17/outbox.cif.g08.bks.cpg/sg15_22_cif.got.tgz:43845.got - 2010.06.03 18:47:42.
