data_PCOD9304612
_publ_section_title
;
Structure prediction by ZEFSAII (Michael W. Deem and Ramdas Pophale) SiO2 
 PCOD9304612
Probable space group: C 2/C
;
_chemical_formula_sum "Si O2"
_cell_formula_units_Z 52
_cell_length_a 8.141756
_cell_length_b 14.432322
_cell_length_c 16.893656
_cell_angle_alpha 90.000000
_cell_angle_beta 107.081979
_cell_angle_gamma 90.000000
_cell_volume 1897.508765
_symmetry_space_group_name_H-M "C 2/C"
_symmetry_group_IT_number 15
_symmetry_cell_setting 'monoclinic'
loop_
_space_group_symop_operation_xyz
x,y,z
-x,y,1/2-z
-x,-y,-z
x,-y,1/2+z
1/2+x,1/2+y,z
1/2-x,1/2+y,1/2-z
1/2-x,1/2-y,-z
1/2+x,1/2-y,1/2+z
loop_
_atom_site_type_symbol
_atom_site_label
_atom_site_fract_x
_atom_site_fract_y
_atom_site_fract_z
Si Si1 0.912991 0.198238 0.165206
Si Si2 0.924472 0.513826 0.165921
Si Si3 0.369662 0.074969 0.440164
Si Si4 0.912511 0.243995 0.493791
Si Si5 0.243663 0.207380 0.165986
Si Si6 0.500000 0.631858 0.750000
Si Si7 0.339716 0.621929 0.885436
O O1 0.825610 0.110621 0.105564
O O2 0.880629 0.188032 0.265130
O O3 0.650692 0.297811 0.295581
O O4 0.781378 0.287579 0.141980
O O5 0.836479 0.608652 0.179759
O O6 0.784340 0.455878 0.097925
O O7 0.000000 0.455524 0.250000
O O8 0.089729 0.541604 0.142208
O O9 0.463585 0.168595 0.479404
O O10 0.500000 0.000000 0.500000
O O11 0.952196 0.229666 0.396401
O O12 0.788687 0.273265 0.565111
O O13 0.002174 0.151595 0.539146
O O14 0.421114 0.583163 0.815288
#
# Coordination Sequence:
#
# PCOD9304612 Si02
#       7
#     8   8   8   8   8   4   8
#     4  11  23  45  72 103 133 190 236 277 353 426
#     4  12  26  46  67 101 140 184 227 295 348 403
#     4  11  27  46  70 102 146 180 235 295 349 409
#     4  11  23  45  69  99 133 187 225 277 352 426
#     4  12  24  43  76  94 139 181 233 283 349 418
#     4  12  22  46  68 102 132 186 228 294 348 420
#     4  11  26  43  69 102 138 177 234 285 353 413
#
# _framework density 27.404354000000001
#
# number of rings (size 3 to 8) (size 9 to 14) (size 15 to 20)
#    0.000    0.615    5.385    2.308    4.308    3.077 
#    4.154    0.000    0.000    0.000    0.000    0.000 
#    0.000    0.000    0.000    0.000    0.000    0.000 
#
# Total GULP energy -144865.304882 kJ/mol
# GULP energy per Si atom -5571.742495 kJ/mol
# Density = 2.734198 g / cm^3
# Si number density = 27.404354 Si / 1000 Ang^3
#
#
#
# Elastic Constant Matrix: (Units=GPa)
#
#
# Indices 1 2 3 4 5 6 
#
# 1 159.9884 13.6131 37.0797 0.0000 -10.6804 0.0000
# 2 13.6131 51.3310 13.5995 0.0000 13.5503 0.0000
# 3 37.0797 13.5995 144.9595 0.0000 15.4947 0.0000
# 4 0.0000 0.0000 0.0000 23.5355 0.0000 -3.9161
# 5 -10.6804 13.5503 15.4947 0.0000 51.5339 0.0000
# 6 0.0000 0.0000 0.0000 -3.9161 0.0000 136.6774
#
#
#
# Elastic Compliance Matrix: (Units=1/GPa)
#
#
# Indices 1 2 3 4 5 6 
#
# 1 0.007031 -0.002042 -0.001880 0.000000 0.002559 0.000000
# 2 -0.002042 0.021815 -0.000895 0.000000 -0.005890 0.000000
# 3 -0.001880 -0.000895 0.007728 0.000000 -0.002478 0.000000
# 4 0.000000 0.000000 0.000000 0.042693 0.000000 0.001223
# 5 0.002559 -0.005890 -0.002478 0.000000 0.022229 0.000000
# 6 0.000000 0.000000 0.000000 0.001223 0.000000 0.007352
#
#
# Mechanical properties :
#
#
# Convention : Reuss Voigt Hill
#
# Bulk Modulus (GPa) = 37.11985 53.87374 45.49680
# Shear Modulus (GPa) = 39.22756 61.81514 50.52135
#
# Velocity S-wave (km/s) = 3.78754 4.75454 4.29832
# Velocity P-wave (km/s) = 5.71856 7.05991 6.42434
#
# Compressibility (1/GPa) = 0.02693976
#
# Stress axis : x y z
#
# Youngs Moduli (GPa) = 142.22933 45.84029 129.39441
#
# Poissons Ratio (x) = 0.09361 0.24332
# Poissons Ratio (y) = 0.29044 0.11576
# Poissons Ratio (z) = 0.26746 0.04101
#
# Static dielectric constant tensor:
#      x y z
#    x 4.228150 0.000000 0.585670 
#    y 0.000000 1.980530 0.000000 
#    z 0.585670 0.000000 3.386270 
# 
# From -- ./inp_files/145133.got.cif
#   From: 2010.05.17/outbox.cif.g08.bks.cpg/sg15_73_cif.got.tgz:145133.got - 2010.06.03 18:47:42.
