data_PCOD9304297
_publ_section_title
;
Structure prediction by ZEFSAII (Michael W. Deem and Ramdas Pophale) SiO2 
 PCOD9304297
Probable space group: C 2/C
;
_chemical_formula_sum "Si O2"
_cell_formula_units_Z 64
_cell_length_a 14.524513
_cell_length_b 30.805283
_cell_length_c 9.138610
_cell_angle_alpha 90.000000
_cell_angle_beta 47.978083
_cell_angle_gamma 90.000000
_cell_volume 3037.601122
_symmetry_space_group_name_H-M "C 2/C"
_symmetry_group_IT_number 15
_symmetry_cell_setting 'monoclinic'
loop_
_space_group_symop_operation_xyz
x,y,z
-x,y,1/2-z
-x,-y,-z
x,-y,1/2+z
1/2+x,1/2+y,z
1/2-x,1/2+y,1/2-z
1/2-x,1/2-y,-z
1/2+x,1/2-y,1/2+z
loop_
_atom_site_type_symbol
_atom_site_label
_atom_site_fract_x
_atom_site_fract_y
_atom_site_fract_z
Si Si1 0.047160 0.214734 0.535555
Si Si2 0.706770 0.500278 0.758716
Si Si3 0.661713 0.134320 0.694506
Si Si4 0.505071 0.190475 0.074756
Si Si5 0.561763 0.350941 0.527809
Si Si6 0.282537 0.789265 0.589521
Si Si7 0.132447 0.465347 0.167344
Si Si8 0.987295 0.068157 0.931932
O O1 0.162817 0.198039 0.314574
O O2 0.000000 0.203196 0.750000
O O3 0.083465 0.265225 0.503110
O O4 0.937051 0.195112 0.554554
O O5 0.756724 0.481948 0.553558
O O6 0.825606 0.517107 0.720283
O O7 0.605381 0.538383 0.849966
O O8 0.633629 0.461037 0.913819
O O9 0.799375 0.131859 0.612735
O O10 0.673036 0.170981 0.558597
O O11 0.629344 0.086766 0.673221
O O12 0.566720 0.152891 0.914527
O O13 0.500000 0.175973 0.250000
O O14 0.388973 0.210371 0.104459
O O15 0.500000 0.345316 0.750000
O O16 0.485541 0.387810 0.524611
O O17 0.250000 0.750000 0.500000
O O18 0.000000 0.481129 0.250000
O O19 0.000000 0.079608 0.750000
#
# Coordination Sequence:
#
# PCOD9304297 Si02
#       8
#     8   8   8   8   8   8   8   8
#     4  11  26  41  68 104 145 184 235 293 354 409
#     4  11  24  43  70 102 130 180 225 287 360 425
#     4  12  25  45  71 102 141 184 243 292 350 431
#     4  11  27  46  70 102 142 192 234 295 360 421
#     4  12  24  42  69 106 138 183 236 293 346 424
#     4  12  24  45  73 103 144 192 244 292 354 427
#     4  12  25  47  70 100 138 184 237 288 349 433
#     4  11  23  43  69 100 141 171 224 291 365 419
#
# _framework density 21.069257
#
# number of rings (size 3 to 8) (size 9 to 14) (size 15 to 20)
#    0.000    0.500    5.000    3.375    1.750    1.000 
#    0.000    3.125    0.000    0.000    0.000    0.000 
#    0.000    0.000    0.000    0.000    0.000    0.000 
#
# Total GULP energy -178351.823403 kJ/mol
# GULP energy per Si atom -5573.494481 kJ/mol
# Density = 2.102130 g / cm^3
# Si number density = 21.069257 Si / 1000 Ang^3
#
#
#
# Elastic Constant Matrix: (Units=GPa)
#
#
# Indices 1 2 3 4 5 6 
#
# 1 76.2547 9.1241 14.0313 0.0000 2.1593 0.0000
# 2 9.1241 77.8438 25.9220 0.0000 13.2556 0.0000
# 3 14.0313 25.9220 102.4937 0.0000 19.6913 0.0000
# 4 0.0000 0.0000 0.0000 15.5756 0.0000 4.6578
# 5 2.1593 13.2556 19.6913 0.0000 38.3641 0.0000
# 6 0.0000 0.0000 0.0000 4.6578 0.0000 25.0461
#
#
#
# Elastic Compliance Matrix: (Units=1/GPa)
#
#
# Indices 1 2 3 4 5 6 
#
# 1 0.013540 -0.001114 -0.001663 0.000000 0.000477 0.000000
# 2 -0.001114 0.014520 -0.002849 0.000000 -0.003492 0.000000
# 3 -0.001663 -0.002849 0.011646 0.000000 -0.004900 0.000000
# 4 0.000000 0.000000 0.000000 0.067984 0.000000 -0.012643
# 5 0.000477 -0.003492 -0.004900 0.000000 0.029761 0.000000
# 6 0.000000 0.000000 0.000000 -0.012643 0.000000 0.042278
#
#
# Mechanical properties :
#
#
# Convention : Reuss Voigt Hill
#
# Bulk Modulus (GPa) = 35.14542 39.41633 37.28087
# Shear Modulus (GPa) = 24.94190 29.63148 27.28669
#
# Velocity S-wave (km/s) = 3.44438 3.75425 3.60265
# Velocity P-wave (km/s) = 5.70399 6.12708 5.91931
#
# Compressibility (1/GPa) = 0.02845321
#
# Stress axis : x y z
#
# Youngs Moduli (GPa) = 73.85613 68.86979 85.86427
#
# Poissons Ratio (x) = 0.07674 0.14282
# Poissons Ratio (y) = 0.08230 0.24462
# Poissons Ratio (z) = 0.12285 0.19620
#
# Static dielectric constant tensor:
#      x y z
#    x 1.883370 0.000000 0.076100 
#    y 0.000000 1.787460 0.000000 
#    z 0.076100 0.000000 1.806450 
# 
# From -- ./inp_files/44820.got.cif
#   From: 2010.05.17/outbox.cif.g08.bks.cpg/sg15_23_cif.got.tgz:44820.got - 2010.06.03 18:47:42.
