data_PCOD9304789
_publ_section_title
;
Structure prediction by ZEFSAII (Michael W. Deem and Ramdas Pophale) SiO2 
 PCOD9304789
Probable space group: C 2/C
;
_chemical_formula_sum "Si O2"
_cell_formula_units_Z 36
_cell_length_a 16.597633
_cell_length_b 8.976459
_cell_length_c 11.402071
_cell_angle_alpha 90.000000
_cell_angle_beta 78.188484
_cell_angle_gamma 90.000000
_cell_volume 1662.802103
_symmetry_space_group_name_H-M "C 2/C"
_symmetry_group_IT_number 15
_symmetry_cell_setting 'monoclinic'
loop_
_space_group_symop_operation_xyz
x,y,z
-x,y,1/2-z
-x,-y,-z
x,-y,1/2+z
1/2+x,1/2+y,z
1/2-x,1/2+y,1/2-z
1/2-x,1/2-y,-z
1/2+x,1/2-y,1/2+z
loop_
_atom_site_type_symbol
_atom_site_label
_atom_site_fract_x
_atom_site_fract_y
_atom_site_fract_z
Si Si1 0.933344 0.934629 0.870415
Si Si2 0.155271 0.431059 0.310351
Si Si3 0.238112 0.801179 0.636407
Si Si4 0.956279 0.240038 0.987048
Si Si5 0.500000 0.936009 0.750000
O O1 0.849682 0.883846 0.835766
O O2 0.000000 0.964923 0.750000
O O3 0.920901 0.084739 0.948440
O O4 0.971687 0.809117 0.944686
O O5 0.227138 0.338132 0.226073
O O6 0.191671 0.585339 0.345878
O O7 0.112622 0.334458 0.424856
O O8 0.081675 0.465930 0.241589
O O9 0.250000 0.750000 0.500000
O O10 0.990328 0.335893 0.868805
#
# Coordination Sequence:
#
# PCOD9304789 Si02
#       5
#     8   8   8   8   4
#     4  11  23  46  75 106 143 185 241 294 358 427
#     4  12  27  45  73 103 147 185 240 294 362 420
#     4  12  28  46  71 106 147 188 238 298 356 422
#     4  11  24  43  75 104 137 192 233 293 356 425
#     4  12  24  46  72 104 140 184 240 288 354 438
#
# _framework density 21.650200999999999
#
# number of rings (size 3 to 8) (size 9 to 14) (size 15 to 20)
#    0.000    0.444    3.333    4.667    6.222    0.889 
#    0.000    0.000    0.000    0.000    0.000    0.000 
#    0.000    0.000    0.000    0.000    0.000    0.000 
#
# Total GULP energy -100845.848523 kJ/mol
# GULP energy per Si atom -5602.547140 kJ/mol
# Density = 2.160092 g / cm^3
# Si number density = 21.650201 Si / 1000 Ang^3
#
#
#
# Elastic Constant Matrix: (Units=GPa)
#
#
# Indices 1 2 3 4 5 6 
#
# 1 77.0564 41.0550 15.4319 0.0000 3.1652 0.0000
# 2 41.0550 114.9893 64.3644 0.0000 -2.8846 0.0000
# 3 15.4319 64.3644 120.2091 0.0000 -3.5987 0.0000
# 4 0.0000 0.0000 0.0000 54.1069 0.0000 3.4683
# 5 3.1652 -2.8846 -3.5987 0.0000 28.7957 0.0000
# 6 0.0000 0.0000 0.0000 3.4683 0.0000 34.4529
#
#
#
# Elastic Compliance Matrix: (Units=1/GPa)
#
#
# Indices 1 2 3 4 5 6 
#
# 1 0.016351 -0.006686 0.001412 0.000000 -0.002291 0.000000
# 2 -0.006686 0.015157 -0.007217 0.000000 0.001351 0.000000
# 3 0.001412 -0.007217 0.012020 0.000000 0.000624 0.000000
# 4 0.000000 0.000000 0.000000 0.018602 0.000000 -0.001873
# 5 -0.002291 0.001351 0.000624 0.000000 0.035193 0.000000
# 6 0.000000 0.000000 0.000000 -0.001873 0.000000 0.029214
#
#
# Mechanical properties :
#
#
# Convention : Reuss Voigt Hill
#
# Bulk Modulus (GPa) = 53.91585 61.55080 57.73333
# Shear Modulus (GPa) = 31.70581 36.23133 33.96857
#
# Velocity S-wave (km/s) = 3.83098 4.09527 3.96532
# Velocity P-wave (km/s) = 6.67276 7.13113 6.90575
#
# Compressibility (1/GPa) = 0.01854742
#
# Stress axis : x y z
#
# Youngs Moduli (GPa) = 61.15878 65.97629 83.19182
#
# Poissons Ratio (x) = 0.44110 -0.11748
# Poissons Ratio (y) = 0.40889 0.60038
# Poissons Ratio (z) = -0.08637 0.47614
#
# Static dielectric constant tensor:
#      x y z
#    x 1.294690 0.000000 0.901050 
#    y 0.000000 1.792730 0.000000 
#    z 0.901050 0.000000 0.007130 
# 
# From -- ./inp_files/102431.got.cif
#   From: 2010.05.17/outbox.cif.g08.bks.cpg/sg15_52_cif.got.tgz:102431.got - 2010.06.03 18:47:42.
