data_PCOD9304287
_publ_section_title
;
Structure prediction by ZEFSAII (Michael W. Deem and Ramdas Pophale) SiO2 
 PCOD9304287
Probable space group: C 2/C
;
_chemical_formula_sum "Si O2"
_cell_formula_units_Z 56
_cell_length_a 20.976456
_cell_length_b 11.602007
_cell_length_c 11.070392
_cell_angle_alpha 90.000000
_cell_angle_beta 114.270943
_cell_angle_gamma 90.000000
_cell_volume 2456.055646
_symmetry_space_group_name_H-M "C 2/C"
_symmetry_group_IT_number 15
_symmetry_cell_setting 'monoclinic'
loop_
_space_group_symop_operation_xyz
x,y,z
-x,y,1/2-z
-x,-y,-z
x,-y,1/2+z
1/2+x,1/2+y,z
1/2-x,1/2+y,1/2-z
1/2-x,1/2-y,-z
1/2+x,1/2-y,1/2+z
loop_
_atom_site_type_symbol
_atom_site_label
_atom_site_fract_x
_atom_site_fract_y
_atom_site_fract_z
Si Si1 0.500000 0.253434 0.250000
Si Si2 0.200926 0.651053 0.512706
Si Si3 0.406216 0.175730 0.675294
Si Si4 0.559271 0.539631 0.949582
Si Si5 0.403075 0.927552 0.777965
Si Si6 0.343265 0.319682 0.823253
Si Si7 0.000000 0.158820 0.250000
Si Si8 0.205485 0.593405 0.091585
O O1 0.454979 0.341482 0.133695
O O2 0.536308 0.166546 0.183409
O O3 0.250000 0.750000 0.500000
O O4 0.147837 0.616365 0.367581
O O5 0.164059 0.708600 0.597841
O O6 0.235953 0.530837 0.576858
O O7 0.399213 0.281116 0.766292
O O8 0.464294 0.234973 0.637312
O O9 0.332559 0.155784 0.550058
O O10 0.423891 0.055697 0.753029
O O11 0.554097 0.440127 0.846745
O O12 0.500000 0.500000 0.000000
O O13 0.628550 0.570377 0.080653
O O14 0.358342 0.928747 0.865112
O O15 0.268112 0.340678 0.704958
#
# Coordination Sequence:
#
# PCOD9304287 Si02
#       8
#     4   8   8   8   8   8   4   8
#     4  11  25  42  70 100 135 181 232 292 350 421
#     4  11  23  43  68  98 137 180 230 287 351 429
#     4  11  25  45  67 104 141 177 238 291 354 420
#     4  11  25  44  67  98 137 185 236 284 354 423
#     4  11  23  44  68 104 137 180 235 286 363 418
#     4  12  23  45  70  98 143 183 228 300 354 423
#     4  11  25  46  68 102 141 183 232 296 346 421
#     4  11  26  41  71 105 138 187 237 287 358 432
#
# _framework density 22.800785999999999
#
# number of rings (size 3 to 8) (size 9 to 14) (size 15 to 20)
#    0.000    0.857    5.714    0.857    2.000    3.429 
#    0.000    2.857    0.000    0.000    0.000    0.000 
#    0.000    0.000    0.000    0.000    0.000    0.000 
#
# Total GULP energy -155943.039909 kJ/mol
# GULP energy per Si atom -5569.394282 kJ/mol
# Density = 2.274889 g / cm^3
# Si number density = 22.800786 Si / 1000 Ang^3
#
#
#
# Elastic Constant Matrix: (Units=GPa)
#
#
# Indices 1 2 3 4 5 6 
#
# 1 63.7973 36.3606 5.9459 0.0000 -7.3679 0.0000
# 2 36.3606 172.8989 37.7533 0.0000 4.4258 0.0000
# 3 5.9459 37.7533 48.5682 0.0000 -8.4716 0.0000
# 4 0.0000 0.0000 0.0000 12.4169 0.0000 -11.6416
# 5 -7.3679 4.4258 -8.4716 0.0000 28.3902 0.0000
# 6 0.0000 0.0000 0.0000 -11.6416 0.0000 31.6277
#
#
#
# Elastic Compliance Matrix: (Units=1/GPa)
#
#
# Indices 1 2 3 4 5 6 
#
# 1 0.018831 -0.004649 0.002413 0.000000 0.006332 0.000000
# 2 -0.004649 0.008340 -0.006699 0.000000 -0.004506 0.000000
# 3 0.002413 -0.006699 0.027209 0.000000 0.009790 0.000000
# 4 0.000000 0.000000 0.000000 0.122974 0.000000 0.045265
# 5 0.006332 -0.004506 0.009790 0.000000 0.040490 0.000000
# 6 0.000000 0.000000 0.000000 0.045265 0.000000 0.048279
#
#
# Mechanical properties :
#
#
# Convention : Reuss Voigt Hill
#
# Bulk Modulus (GPa) = 27.39067 49.48711 38.43889
# Shear Modulus (GPa) = 16.88257 28.16727 22.52492
#
# Velocity S-wave (km/s) = 2.72405 3.51859 3.14650
# Velocity P-wave (km/s) = 4.68327 6.18535 5.48596
#
# Compressibility (1/GPa) = 0.03650878
#
# Stress axis : x y z
#
# Youngs Moduli (GPa) = 53.10483 119.90994 36.75201
#
# Poissons Ratio (x) = 0.55747 -0.08868
# Poissons Ratio (y) = 0.24689 0.24621
# Poissons Ratio (z) = -0.12814 0.80332
#
# Static dielectric constant tensor:
#      x y z
#    x 1.920660 0.000000 -0.002890 
#    y 0.000000 0.957740 0.000000 
#    z -0.002890 0.000000 1.895490 
# 
# From -- ./inp_files/111617.got.cif
#   From: 2010.05.17/outbox.cif.g08.bks.cpg/sg15_56_cif.got.tgz:111617.got - 2010.06.03 18:47:42.
