data_PCOD9304345
_publ_section_title
;
Structure prediction by ZEFSAII (Michael W. Deem and Ramdas Pophale) SiO2 
 PCOD9304345
Probable space group: C 2/C
;
_chemical_formula_sum "Si O2"
_cell_formula_units_Z 44
_cell_length_a 14.324491
_cell_length_b 28.042980
_cell_length_c 5.400253
_cell_angle_alpha 90.000000
_cell_angle_beta 121.495853
_cell_angle_gamma 90.000000
_cell_volume 1849.705192
_symmetry_space_group_name_H-M "C 2/C"
_symmetry_group_IT_number 15
_symmetry_cell_setting 'monoclinic'
loop_
_space_group_symop_operation_xyz
x,y,z
-x,y,1/2-z
-x,-y,-z
x,-y,1/2+z
1/2+x,1/2+y,z
1/2-x,1/2+y,1/2-z
1/2-x,1/2-y,-z
1/2+x,1/2-y,1/2+z
loop_
_atom_site_type_symbol
_atom_site_label
_atom_site_fract_x
_atom_site_fract_y
_atom_site_fract_z
Si Si1 0.500000 0.355548 0.250000
Si Si2 0.107105 0.294065 0.731908
Si Si3 0.170596 0.895697 0.841670
Si Si4 0.500000 0.531480 0.250000
Si Si5 0.169357 0.199435 0.642794
Si Si6 0.000000 0.531076 0.250000
Si Si7 0.897569 0.402620 0.932980
O O1 0.589510 0.388353 0.501129
O O2 0.430537 0.322476 0.336722
O O3 0.131191 0.254124 0.554601
O O4 0.095367 0.346649 0.609048
O O5 0.000000 0.283015 0.750000
O O6 0.216209 0.296646 0.052592
O O7 0.105018 0.933100 0.916802
O O8 0.286867 0.914575 0.919857
O O9 0.184225 0.841366 0.959063
O O10 0.500000 0.500000 0.500000
O O11 0.903316 0.568349 0.183135
O O12 0.000000 0.500000 0.500000
O O13 0.000000 0.413580 0.250000
#
# Coordination Sequence:
#
# PCOD9304345 Si02
#       7
#     4   8   8   4   8   4   8
#     4  12  21  47  70 104 148 212 253 307 394 458
#     4  11  23  43  71 112 158 204 265 316 388 472
#     4  12  27  47  80 108 156 206 259 328 401 477
#     4  12  29  52  78 116 150 202 272 335 394 470
#     4  11  24  43  72 110 157 211 254 318 387 478
#     4  12  28  55  80 114 156 204 267 326 406 482
#     4  12  27  48  80 115 157 204 260 332 401 474
#
# _framework density 23.787575
#
# number of rings (size 3 to 8) (size 9 to 14) (size 15 to 20)
#    0.000    0.364    6.364    1.636    0.000    3.636 
#    0.000    0.000    0.000    0.000    0.000    0.000 
#    0.000    0.000    0.000    0.000    0.000    0.000 
#
# Total GULP energy -123015.031384 kJ/mol
# GULP energy per Si atom -5591.592336 kJ/mol
# Density = 2.373343 g / cm^3
# Si number density = 23.787575 Si / 1000 Ang^3
#
#
#
# Elastic Constant Matrix: (Units=GPa)
#
#
# Indices 1 2 3 4 5 6 
#
# 1 176.0231 47.8257 41.4133 0.0000 14.2809 0.0000
# 2 47.8257 167.8483 43.5765 0.0000 -18.3400 0.0000
# 3 41.4133 43.5765 98.6503 0.0000 8.6806 0.0000
# 4 0.0000 0.0000 0.0000 23.4556 0.0000 -29.1726
# 5 14.2809 -18.3400 8.6806 0.0000 43.8109 0.0000
# 6 0.0000 0.0000 0.0000 -29.1726 0.0000 29.3552
#
#
#
# Elastic Compliance Matrix: (Units=1/GPa)
#
#
# Indices 1 2 3 4 5 6 
#
# 1 0.006799 -0.001735 -0.001861 0.000000 -0.002574 0.000000
# 2 -0.001735 0.007733 -0.003076 0.000000 0.004412 0.000000
# 3 -0.001861 -0.003076 0.012556 0.000000 -0.003168 0.000000
# 4 0.000000 0.000000 0.000000 -0.180653 0.000000 -0.179529
# 5 -0.002574 0.004412 -0.003168 0.000000 0.026139 0.000000
# 6 0.000000 0.000000 0.000000 -0.179529 0.000000 -0.144347
#
#
# Mechanical properties :
#
#
# Convention : Reuss Voigt Hill
#
# Bulk Modulus (GPa) = 72.76286 78.68364 75.72325
# Shear Modulus (GPa) = -19.69689 39.97140 10.13725
#
# Velocity S-wave (km/s) = -2.88068 4.10365 2.06660
# Velocity P-wave (km/s) = 4.42613 7.45672 6.13161
#
# Compressibility (1/GPa) = 0.01374327
#
# Stress axis : x y z
#
# Youngs Moduli (GPa) = 147.07347 129.31948 79.64619
#
# Poissons Ratio (x) = 0.22442 0.14824
# Poissons Ratio (y) = 0.25523 0.24495
# Poissons Ratio (z) = 0.27375 0.39772
#
# Static dielectric constant tensor:
#      x y z
#    x 1.981550 0.000000 -0.023660 
#    y 0.000000 1.983390 0.000000 
#    z -0.023660 0.000000 1.953550 
# 
# From -- ./inp_files/8324.got.cif
#   From: 2010.05.17/outbox.cif.g08.bks.cpg/sg15_5_cif.got.tgz:8324.got - 2010.06.03 18:47:42.
