data_PCOD9304058
_publ_section_title
;
Structure prediction by ZEFSAII (Michael W. Deem and Ramdas Pophale) SiO2 
 PCOD9304058
Probable space group: C 2/C
;
_chemical_formula_sum "Si O2"
_cell_formula_units_Z 56
_cell_length_a 20.337047
_cell_length_b 21.895338
_cell_length_c 12.338999
_cell_angle_alpha 90.000000
_cell_angle_beta 27.302505
_cell_angle_gamma 90.000000
_cell_volume 2520.212939
_symmetry_space_group_name_H-M "C 2/C"
_symmetry_group_IT_number 15
_symmetry_cell_setting 'monoclinic'
loop_
_space_group_symop_operation_xyz
x,y,z
-x,y,1/2-z
-x,-y,-z
x,-y,1/2+z
1/2+x,1/2+y,z
1/2-x,1/2+y,1/2-z
1/2-x,1/2-y,-z
1/2+x,1/2-y,1/2+z
loop_
_atom_site_type_symbol
_atom_site_label
_atom_site_fract_x
_atom_site_fract_y
_atom_site_fract_z
Si Si1 0.381630 0.926635 0.619593
Si Si2 0.384527 0.494457 0.015134
Si Si3 0.971125 0.096232 0.559067
Si Si4 0.000000 0.710955 0.250000
Si Si5 0.173620 0.399587 0.568094
Si Si6 0.000000 0.492850 0.250000
Si Si7 0.112444 0.700233 0.490219
Si Si8 0.922785 0.769269 0.587934
O O1 0.418924 0.906383 0.686629
O O2 0.327485 0.863549 0.645603
O O3 0.492931 0.952847 0.369037
O O4 0.267671 0.981253 0.803204
O O5 0.500000 0.495624 0.750000
O O6 0.423386 0.545393 0.048578
O O7 0.400120 0.430028 0.053310
O O8 0.045024 0.160362 0.433553
O O9 0.843038 0.102475 0.834288
O O10 0.869618 0.663218 0.425857
O O11 0.979670 0.751146 0.385806
O O12 0.132942 0.460503 0.561857
O O13 0.249722 0.737868 0.333727
O O14 0.016655 0.731414 0.536670
O O15 0.000000 0.687679 0.750000
#
# Coordination Sequence:
#
# PCOD9304058 Si02
#       8
#     8   8   8   4   8   4   8   8
#     4  12  22  43  69  98 135 188 232 293 360 428
#     4  11  23  42  67 101 135 177 228 293 360 425
#     4  11  24  40  68 101 135 178 232 289 359 426
#     4  11  26  42  70 106 144 179 246 302 358 427
#     4  11  23  42  65 103 139 181 234 295 360 429
#     4  11  24  42  64  96 140 183 236 288 358 433
#     4  12  27  49  73 102 144 194 243 296 358 432
#     4  12  27  47  73 106 143 190 242 301 361 427
#
# _framework density 22.220344999999998
#
# number of rings (size 3 to 8) (size 9 to 14) (size 15 to 20)
#    0.000    0.571    6.429    1.714    3.000    1.714 
#    0.000    1.429    0.000    0.000    0.000    0.000 
#    0.000    0.000    0.000    0.000    0.000    0.000 
#
# Total GULP energy -156357.226325 kJ/mol
# GULP energy per Si atom -5584.186654 kJ/mol
# Density = 2.216977 g / cm^3
# Si number density = 22.220345 Si / 1000 Ang^3
#
#
#
# Elastic Constant Matrix: (Units=GPa)
#
#
# Indices 1 2 3 4 5 6 
#
# 1 96.2594 42.8438 30.5954 -0.0013 3.3765 -0.0004
# 2 42.8438 96.1259 11.9324 -0.0051 4.7837 -0.0011
# 3 30.5954 11.9324 64.6204 -0.0052 3.5507 0.0005
# 4 -0.0013 -0.0051 -0.0052 11.4825 0.0007 -2.2942
# 5 3.3765 4.7837 3.5507 0.0007 38.6122 0.0007
# 6 -0.0004 -0.0011 0.0005 -2.2942 0.0007 38.4198
#
#
#
# Elastic Compliance Matrix: (Units=1/GPa)
#
#
# Indices 1 2 3 4 5 6 
#
# 1 0.014916 -0.005906 -0.005970 -0.000004 -0.000024 0.000000
# 2 -0.005906 0.013036 0.000452 0.000006 -0.001140 0.000001
# 3 -0.005970 0.000452 0.018285 0.000008 -0.001215 0.000000
# 4 -0.000004 0.000006 0.000008 0.088141 -0.000003 0.005263
# 5 -0.000024 -0.001140 -0.001215 -0.000003 0.026154 -0.000001
# 6 0.000000 0.000001 0.000000 0.005263 -0.000001 0.026343
#
#
# Mechanical properties :
#
#
# Convention : Reuss Voigt Hill
#
# Bulk Modulus (GPa) = 42.75681 47.52765 45.14223
# Shear Modulus (GPa) = 22.98665 29.14518 26.06591
#
# Velocity S-wave (km/s) = 3.21983 3.62559 3.42872
# Velocity P-wave (km/s) = 5.75387 6.24197 6.00289
#
# Compressibility (1/GPa) = 0.02338808
#
# Stress axis : x y z
#
# Youngs Moduli (GPa) = 67.04424 76.71136 54.68954
#
# Poissons Ratio (x) = 0.45303 0.32650
# Poissons Ratio (y) = 0.39594 -0.02470
# Poissons Ratio (z) = 0.40026 -0.03464
#
# Static dielectric constant tensor:
#      x y z
#    x 1.863590 0.000000 -0.015140 
#    y 0.000000 1.799640 0.000000 
#    z -0.015140 0.000000 1.842640 
# 
# From -- ./inp_files/114727.got.cif
#   From: 2010.05.17/outbox.cif.g08.bks.cpg/sg15_58_cif.got.tgz:114727.got - 2010.06.03 18:47:42.
