data_PCOD9304483
_publ_section_title
;
Structure prediction by ZEFSAII (Michael W. Deem and Ramdas Pophale) SiO2 
 PCOD9304483
Probable space group: C 2/C
;
_chemical_formula_sum "Si O2"
_cell_formula_units_Z 40
_cell_length_a 5.225576
_cell_length_b 27.596376
_cell_length_c 11.775781
_cell_angle_alpha 90.000000
_cell_angle_beta 97.513169
_cell_angle_gamma 90.000000
_cell_volume 1683.570686
_symmetry_space_group_name_H-M "C 2/C"
_symmetry_group_IT_number 15
_symmetry_cell_setting 'monoclinic'
loop_
_space_group_symop_operation_xyz
x,y,z
-x,y,1/2-z
-x,-y,-z
x,-y,1/2+z
1/2+x,1/2+y,z
1/2-x,1/2+y,1/2-z
1/2-x,1/2-y,-z
1/2+x,1/2-y,1/2+z
loop_
_atom_site_type_symbol
_atom_site_label
_atom_site_fract_x
_atom_site_fract_y
_atom_site_fract_z
Si Si1 0.510220 0.252183 0.443809
Si Si2 0.745458 0.700417 0.199835
Si Si3 0.000000 0.397824 0.250000
Si Si4 0.000000 0.832642 0.250000
Si Si5 0.005060 0.442102 0.004183
Si Si6 0.467229 0.407392 0.870902
O O1 0.250000 0.250000 0.500000
O O2 0.695111 0.273024 0.567442
O O3 0.437000 0.206537 0.333545
O O4 0.524060 0.297796 0.359163
O O5 0.500000 0.725388 0.250000
O O6 0.654387 0.645193 0.168195
O O7 0.251350 0.364468 0.258297
O O8 0.987383 0.428177 0.363800
O O9 0.752782 0.413668 0.940659
O O10 0.000000 0.500000 0.000000
O O11 0.258423 0.427576 0.947293
O O12 0.500000 0.433209 0.750000
#
# Coordination Sequence:
#
# PCOD9304483 Si02
#       6
#     8   8   4   4   8   8
#     4  12  27  43  73 102 148 206 252 302 360 452
#     4  11  23  44  70 104 147 189 250 309 369 429
#     4  12  30  50  78 109 158 205 258 318 402 480
#     4  12  28  52  70 115 156 203 258 314 382 454
#     4  12  28  51  79 110 149 198 255 322 400 482
#     4  11  25  46  79 111 146 192 251 325 383 456
#
# _framework density 23.759029000000002
#
# number of rings (size 3 to 8) (size 9 to 14) (size 15 to 20)
#    0.000    0.400    1.000    7.200   12.600    0.000 
#    0.000    0.000    0.000    0.000    0.000    0.000 
#    0.000    0.000    0.000    0.000    0.000    0.000 
#
# Total GULP energy -111665.189504 kJ/mol
# GULP energy per Si atom -5583.259475 kJ/mol
# Density = 2.370495 g / cm^3
# Si number density = 23.759029 Si / 1000 Ang^3
#
#
#
# Elastic Constant Matrix: (Units=GPa)
#
#
# Indices 1 2 3 4 5 6 
#
# 1 239.0717 41.0903 97.0874 0.0000 -10.3055 0.0000
# 2 41.0903 127.5220 68.1493 0.0000 -5.8912 0.0000
# 3 97.0874 68.1493 268.4440 0.0000 -30.3772 0.0000
# 4 0.0000 0.0000 0.0000 179.2460 0.0000 -64.5755
# 5 -10.3055 -5.8912 -30.3772 0.0000 78.8765 0.0000
# 6 0.0000 0.0000 0.0000 -64.5755 0.0000 45.2287
#
#
#
# Elastic Compliance Matrix: (Units=1/GPa)
#
#
# Indices 1 2 3 4 5 6 
#
# 1 0.004963 -0.000740 -0.001610 0.000000 -0.000027 0.000000
# 2 -0.000740 0.009187 -0.002089 0.000000 -0.000215 0.000000
# 3 -0.001610 -0.002089 0.005015 0.000000 0.001565 0.000000
# 4 0.000000 0.000000 0.000000 0.011488 0.000000 0.016402
# 5 -0.000027 -0.000215 0.001565 0.000000 0.013261 0.000000
# 6 0.000000 0.000000 0.000000 0.016402 0.000000 0.045528
#
#
# Mechanical properties :
#
#
# Convention : Reuss Voigt Hill
#
# Bulk Modulus (GPa) = 97.21542 116.41019 106.81280
# Shear Modulus (GPa) = 49.14119 89.25094 69.19606
#
# Velocity S-wave (km/s) = 4.55281 6.13568 5.40253
# Velocity P-wave (km/s) = 8.28514 9.96484 9.16356
#
# Compressibility (1/GPa) = 0.01028643
#
# Stress axis : x y z
#
# Youngs Moduli (GPa) = 201.50319 108.85410 199.40654
#
# Poissons Ratio (x) = 0.08054 0.32106
# Poissons Ratio (y) = 0.14909 0.41654
# Poissons Ratio (z) = 0.32443 0.22739
#
# Static dielectric constant tensor:
#      x y z
#    x 1.923790 0.000000 0.116510 
#    y 0.000000 1.858450 0.000000 
#    z 0.116510 0.000000 1.892800 
# 
# From -- ./inp_files/73110.got.cif
#   From: 2010.05.17/outbox.cif.g08.bks.cpg/sg15_37_cif.got.tgz:73110.got - 2010.06.03 18:47:42.
