data_PCOD9304046
_publ_section_title
;
Structure prediction by ZEFSAII (Michael W. Deem and Ramdas Pophale) SiO2 
 PCOD9304046
Probable space group: C 2/C
;
_chemical_formula_sum "Si O2"
_cell_formula_units_Z 52
_cell_length_a 27.323575
_cell_length_b 5.271903
_cell_length_c 17.617487
_cell_angle_alpha 90.000000
_cell_angle_beta 119.134721
_cell_angle_gamma 90.000000
_cell_volume 2216.667418
_symmetry_space_group_name_H-M "C 2/C"
_symmetry_group_IT_number 15
_symmetry_cell_setting 'monoclinic'
loop_
_space_group_symop_operation_xyz
x,y,z
-x,y,1/2-z
-x,-y,-z
x,-y,1/2+z
1/2+x,1/2+y,z
1/2-x,1/2+y,1/2-z
1/2-x,1/2-y,-z
1/2+x,1/2-y,1/2+z
loop_
_atom_site_type_symbol
_atom_site_label
_atom_site_fract_x
_atom_site_fract_y
_atom_site_fract_z
Si Si1 0.886907 0.503793 0.272995
Si Si2 0.239363 0.422355 0.787889
Si Si3 0.656384 0.778181 0.051798
Si Si4 0.000000 0.000423 0.750000
Si Si5 0.100201 0.785676 0.080692
Si Si6 0.414351 0.870063 0.637197
Si Si7 0.502923 0.171846 0.901222
O O1 0.820743 0.468337 0.232617
O O2 0.894148 0.772127 0.324395
O O3 0.899614 0.440489 0.194464
O O4 0.936793 0.366465 0.357234
O O5 0.267400 0.672025 0.770775
O O6 0.280146 0.304051 0.882651
O O7 0.621406 0.547145 0.061549
O O8 0.636972 0.048010 0.073804
O O9 0.639607 0.795526 0.951112
O O10 0.008697 0.860418 0.835276
O O11 0.055896 0.164111 0.788450
O O12 0.036839 0.747346 0.001471
O O13 0.461420 0.941505 0.610202
#
# Coordination Sequence:
#
# PCOD9304046 Si02
#       7
#     8   8   8   4   8   8   8
#     4  12  23  43  70 102 134 180 236 275 341 408
#     4  12  25  47  70  97 138 181 230 287 332 395
#     4  11  23  47  66  97 138 185 218 283 343 391
#     4  12  18  40  68  90 144 178 212 274 350 408
#     4  11  24  42  70  99 140 176 225 282 338 405
#     4  11  24  41  66  99 139 175 223 283 344 411
#     4  11  23  42  62 103 141 176 219 283 347 411
#
# _framework density 23.458639999999999
#
# number of rings (size 3 to 8) (size 9 to 14) (size 15 to 20)
#    0.000    0.615    7.692    0.462    0.000    3.077 
#    0.000    3.077    0.000    5.538    0.000    0.000 
#    0.000    0.000    0.000    0.000    0.000    0.000 
#
# Total GULP energy -144902.377657 kJ/mol
# GULP energy per Si atom -5573.168371 kJ/mol
# Density = 2.340525 g / cm^3
# Si number density = 23.458640 Si / 1000 Ang^3
#
#
#
# Elastic Constant Matrix: (Units=GPa)
#
#
# Indices 1 2 3 4 5 6 
#
# 1 105.3583 16.2946 51.9960 -0.0001 25.9089 0.0001
# 2 16.2946 81.4188 -4.8094 -0.0005 6.7047 0.0006
# 3 51.9960 -4.8094 144.6371 -0.0002 24.8773 -0.0001
# 4 -0.0001 -0.0005 -0.0002 25.4490 0.0000 16.2634
# 5 25.9089 6.7047 24.8773 0.0000 50.2644 0.0001
# 6 0.0001 0.0006 -0.0001 16.2634 0.0001 17.2027
#
#
#
# Elastic Compliance Matrix: (Units=1/GPa)
#
#
# Indices 1 2 3 4 5 6 
#
# 1 0.012903 -0.002458 -0.003971 0.000000 -0.004358 0.000000
# 2 -0.002458 0.012964 0.001524 0.000001 -0.001217 -0.000002
# 3 -0.003971 0.001524 0.008826 0.000000 -0.002525 0.000000
# 4 0.000000 0.000001 0.000000 0.099269 0.000000 -0.093849
# 5 -0.004358 -0.001217 -0.002525 0.000000 0.023553 0.000000
# 6 0.000000 -0.000002 0.000000 -0.093849 0.000000 0.146855
#
#
# Mechanical properties :
#
#
# Convention : Reuss Voigt Hill
#
# Bulk Modulus (GPa) = 40.18655 50.93073 45.55864
# Shear Modulus (GPa) = 15.50513 36.44541 25.97527
#
# Velocity S-wave (km/s) = 2.57370 3.94585 3.33119
# Velocity P-wave (km/s) = 5.09901 6.52056 5.85310
#
# Compressibility (1/GPa) = 0.02488395
#
# Stress axis : x y z
#
# Youngs Moduli (GPa) = 77.50271 77.13494 113.29848
#
# Poissons Ratio (x) = 0.18959 0.44987
# Poissons Ratio (y) = 0.19050 -0.17266
# Poissons Ratio (z) = 0.30774 -0.11755
#
# Static dielectric constant tensor:
#      x y z
#    x 1.943610 0.000000 -0.022640 
#    y 0.000000 2.022480 0.000000 
#    z -0.022640 0.000000 1.917950 
# 
# From -- ./inp_files/221358.got.cif
#   From: 2010.05.17/outbox.cif.g08.bks.cpg/sg15_111_cif.got.tgz:221358.got - 2010.06.03 18:47:42.
