data_PCOD9304112
_publ_section_title
;
Structure prediction by ZEFSAII (Michael W. Deem and Ramdas Pophale) SiO2 
 PCOD9304112
Probable space group: C 2/C
;
_chemical_formula_sum "Si O2"
_cell_formula_units_Z 56
_cell_length_a 17.062026
_cell_length_b 5.350688
_cell_length_c 26.636587
_cell_angle_alpha 90.000000
_cell_angle_beta 119.900824
_cell_angle_gamma 90.000000
_cell_volume 2108.058152
_symmetry_space_group_name_H-M "C 2/C"
_symmetry_group_IT_number 15
_symmetry_cell_setting 'monoclinic'
loop_
_space_group_symop_operation_xyz
x,y,z
-x,y,1/2-z
-x,-y,-z
x,-y,1/2+z
1/2+x,1/2+y,z
1/2-x,1/2+y,1/2-z
1/2-x,1/2-y,-z
1/2+x,1/2-y,1/2+z
loop_
_atom_site_type_symbol
_atom_site_label
_atom_site_fract_x
_atom_site_fract_y
_atom_site_fract_z
Si Si1 0.898838 0.059269 0.906191
Si Si2 0.949847 0.736256 0.837149
Si Si3 0.927792 0.310772 0.502341
Si Si4 0.936575 0.880655 0.188166
Si Si5 0.218550 0.251293 0.359537
Si Si6 0.374790 0.004647 0.081398
Si Si7 0.704814 0.044307 0.256430
O O1 0.887919 0.913572 0.851010
O O2 0.826157 0.280307 0.889076
O O3 0.883631 0.863929 0.946338
O O4 0.001805 0.144890 0.942970
O O5 0.894140 0.504807 0.798668
O O6 0.996940 0.897418 0.809217
O O7 0.032345 0.646503 0.897524
O O8 0.853784 0.409217 0.518378
O O9 0.000000 0.500000 0.500000
O O10 0.845513 0.023719 0.176432
O O11 0.000000 0.749490 0.250000
O O12 0.905227 0.717903 0.130630
O O13 0.192700 0.335531 0.407569
O O14 0.198665 0.474502 0.313428
O O15 0.760264 0.813281 0.248997
#
# Coordination Sequence:
#
# PCOD9304112 Si02
#       7
#     8   8   8   8   8   8   8
#     4  11  24  46  70 103 138 183 251 303 369 439
#     4  11  23  42  68 102 140 191 239 296 359 450
#     4  11  24  45  76  98 131 189 248 307 370 442
#     4  11  24  42  66  98 149 192 231 287 370 448
#     4  11  27  43  66 109 145 187 236 304 370 436
#     4  11  26  43  70 101 142 188 244 302 370 439
#     4  12  28  43  71 111 152 195 244 303 369 442
#
# _framework density 26.564733
#
# number of rings (size 3 to 8) (size 9 to 14) (size 15 to 20)
#    0.000    0.857    5.714    0.000    8.000    1.714 
#    0.000    1.429    0.000    0.000    0.000    0.000 
#    0.000    0.000    0.000    0.000    0.000    0.000 
#
# Total GULP energy -156851.891824 kJ/mol
# GULP energy per Si atom -5601.853279 kJ/mol
# Density = 2.650427 g / cm^3
# Si number density = 26.564733 Si / 1000 Ang^3
#
#
#
# Elastic Constant Matrix: (Units=GPa)
#
#
# Indices 1 2 3 4 5 6 
#
# 1 114.9743 37.6469 30.0577 0.0001 -14.8622 -0.0002
# 2 37.6469 88.4076 18.0315 0.0002 -10.3799 -0.0002
# 3 30.0577 18.0315 65.4078 0.0001 -16.2983 -0.0001
# 4 0.0001 0.0002 0.0001 39.1399 0.0000 -9.4720
# 5 -14.8622 -10.3799 -16.2983 0.0000 49.9292 0.0001
# 6 -0.0002 -0.0002 -0.0001 -9.4720 0.0001 51.1435
#
#
#
# Elastic Compliance Matrix: (Units=1/GPa)
#
#
# Indices 1 2 3 4 5 6 
#
# 1 0.011085 -0.003810 -0.003722 0.000000 0.001293 0.000000
# 2 -0.003810 0.013404 -0.001668 0.000000 0.001108 0.000000
# 3 -0.003722 -0.001668 0.018610 0.000000 0.004620 0.000000
# 4 0.000000 0.000000 0.000000 0.026748 0.000000 0.004954
# 5 0.001293 0.001108 0.004620 0.000000 0.022152 0.000000
# 6 0.000000 0.000000 0.000000 0.004954 0.000000 0.020470
#
#
# Mechanical properties :
#
#
# Convention : Reuss Voigt Hill
#
# Bulk Modulus (GPa) = 40.48621 48.91800 44.70210
# Shear Modulus (GPa) = 35.94487 40.24610 38.09549
#
# Velocity S-wave (km/s) = 3.68245 3.89655 3.79101
# Velocity P-wave (km/s) = 5.77531 6.22083 6.00221
#
# Compressibility (1/GPa) = 0.02469977
#
# Stress axis : x y z
#
# Youngs Moduli (GPa) = 90.21156 74.60549 53.73397
#
# Poissons Ratio (x) = 0.28421 0.19998
# Poissons Ratio (y) = 0.34366 0.08965
# Poissons Ratio (z) = 0.33574 0.12447
#
# Static dielectric constant tensor:
#      x y z
#    x 2.076380 0.000000 0.010360 
#    y 0.000000 2.114480 0.000000 
#    z 0.010360 0.000000 2.095530 
# 
# From -- ./inp_files/315011.got.cif
#   From: 2010.05.17/outbox.cif.g08.bks.cpg/sg15_158_cif.got.tgz:315011.got - 2010.06.03 18:47:42.
