data_PCOD9304425
_publ_section_title
;
Structure prediction by ZEFSAII (Michael W. Deem and Ramdas Pophale) SiO2 
 PCOD9304425
Probable space group: C 2/C
;
_chemical_formula_sum "Si O2"
_cell_formula_units_Z 48
_cell_length_a 17.096043
_cell_length_b 8.116517
_cell_length_c 13.374914
_cell_angle_alpha 90.000000
_cell_angle_beta 76.258118
_cell_angle_gamma 90.000000
_cell_volume 1802.783414
_symmetry_space_group_name_H-M "C 2/C"
_symmetry_group_IT_number 15
_symmetry_cell_setting 'monoclinic'
loop_
_space_group_symop_operation_xyz
x,y,z
-x,y,1/2-z
-x,-y,-z
x,-y,1/2+z
1/2+x,1/2+y,z
1/2-x,1/2+y,1/2-z
1/2-x,1/2-y,-z
1/2+x,1/2-y,1/2+z
loop_
_atom_site_type_symbol
_atom_site_label
_atom_site_fract_x
_atom_site_fract_y
_atom_site_fract_z
Si Si1 0.618982 0.390169 0.161979
Si Si2 0.849179 0.650755 0.043461
Si Si3 0.017590 0.195490 0.513724
Si Si4 0.734882 0.493601 0.954048
Si Si5 0.243088 0.705344 0.250124
Si Si6 0.418292 0.257920 0.726024
O O1 0.664776 0.306461 0.239632
O O2 0.587938 0.564972 0.213833
O O3 0.550993 0.300825 0.116837
O O4 0.687109 0.401525 0.055322
O O5 0.812061 0.832763 0.036143
O O6 0.793959 0.592623 0.151710
O O7 0.825685 0.530121 0.961426
O O8 0.941265 0.684430 0.033126
O O9 0.067042 0.239404 0.398053
O O10 0.000000 0.000000 0.500000
O O11 0.730353 0.399151 0.852802
O O12 0.324130 0.794235 0.265583
O O13 0.500000 0.180388 0.750000
#
# Coordination Sequence:
#
# PCOD9304425 Si02
#       6
#     8   8   8   8   8   8
#     4  12  24  43  73 104 141 181 241 299 355 425
#     4  11  25  43  71 104 148 183 233 300 353 416
#     4  12  22  42  68 105 141 177 236 299 345 409
#     4  11  23  44  66 104 140 187 233 287 360 423
#     4  12  25  42  71 106 141 190 234 286 361 437
#     4  12  24  41  68 106 134 177 242 295 348 409
#
# _framework density 26.625495000000001
#
# number of rings (size 3 to 8) (size 9 to 14) (size 15 to 20)
#    0.000    0.333    6.667    2.500    2.333    0.000 
#    0.000    0.833    0.000    2.000    0.000    0.000 
#    0.000    0.000    0.000    0.000    0.000    0.000 
#
# Total GULP energy -134290.456988 kJ/mol
# GULP energy per Si atom -5595.435708 kJ/mol
# Density = 2.656489 g / cm^3
# Si number density = 26.625495 Si / 1000 Ang^3
#
#
#
# Elastic Constant Matrix: (Units=GPa)
#
#
# Indices 1 2 3 4 5 6 
#
# 1 216.4150 21.2005 33.7419 0.0000 12.7319 0.0000
# 2 21.2005 13.8485 -11.7222 0.0000 2.7157 0.0000
# 3 33.7419 -11.7222 130.8104 0.0000 2.6104 0.0000
# 4 0.0000 0.0000 0.0000 32.6103 0.0000 8.9943
# 5 12.7319 2.7157 2.6104 0.0000 48.4008 0.0000
# 6 0.0000 0.0000 0.0000 8.9943 0.0000 36.1873
#
#
#
# Elastic Compliance Matrix: (Units=1/GPa)
#
#
# Indices 1 2 3 4 5 6 
#
# 1 0.006212 -0.011564 -0.002622 0.000000 -0.000844 0.000000
# 2 -0.011564 0.100776 0.012079 0.000000 -0.003264 0.000000
# 3 -0.002622 0.012079 0.009413 0.000000 -0.000496 0.000000
# 4 0.000000 0.000000 0.000000 0.032922 0.000000 -0.008183
# 5 -0.000844 -0.003264 -0.000496 0.000000 0.021093 0.000000
# 6 0.000000 0.000000 0.000000 -0.008183 0.000000 0.029668
#
#
# Mechanical properties :
#
#
# Convention : Reuss Voigt Hill
#
# Bulk Modulus (GPa) = 8.91357 49.72383 29.31870
# Shear Modulus (GPa) = 20.68736 44.62994 32.65865
#
# Velocity S-wave (km/s) = 2.79045 4.09860 3.50607
# Velocity P-wave (km/s) = 3.70637 6.41200 5.23694
#
# Compressibility (1/GPa) = 0.11218854
#
# Stress axis : x y z
#
# Youngs Moduli (GPa) = 160.98004 9.92295 106.23372
#
# Poissons Ratio (x) = 0.11474 0.27852
# Poissons Ratio (y) = 1.86149 -1.28316
# Poissons Ratio (z) = 0.42205 -0.11986
#
# Static dielectric constant tensor:
#      x y z
#    x 2.162080 0.000000 0.023010 
#    y 0.000000 2.117380 0.000000 
#    z 0.023010 0.000000 2.061460 
# 
# From -- ./inp_files/151871.got.cif
#   From: 2010.05.17/outbox.cif.g08.bks.cpg/sg15_76_cif.got.tgz:151871.got - 2010.06.03 18:47:42.
