data_PCOD9304101
_publ_section_title
;
Structure prediction by ZEFSAII (Michael W. Deem and Ramdas Pophale) SiO2 
 PCOD9304101
Probable space group: C 2/C
;
_chemical_formula_sum "Si O2"
_cell_formula_units_Z 40
_cell_length_a 8.780224
_cell_length_b 9.148485
_cell_length_c 22.762658
_cell_angle_alpha 90.000000
_cell_angle_beta 91.885892
_cell_angle_gamma 90.000000
_cell_volume 1827.437152
_symmetry_space_group_name_H-M "C 2/C"
_symmetry_group_IT_number 15
_symmetry_cell_setting 'monoclinic'
loop_
_space_group_symop_operation_xyz
x,y,z
-x,y,1/2-z
-x,-y,-z
x,-y,1/2+z
1/2+x,1/2+y,z
1/2-x,1/2+y,1/2-z
1/2-x,1/2-y,-z
1/2+x,1/2-y,1/2+z
loop_
_atom_site_type_symbol
_atom_site_label
_atom_site_fract_x
_atom_site_fract_y
_atom_site_fract_z
Si Si1 0.912829 0.221371 0.869795
Si Si2 0.422767 0.673423 0.510411
Si Si3 0.064503 0.534445 0.308280
Si Si4 0.096932 0.088999 0.192287
Si Si5 0.919682 0.286729 0.098167
O O1 0.755816 0.258090 0.900406
O O2 0.039200 0.202445 0.921463
O O3 0.943351 0.345452 0.823533
O O4 0.907152 0.074277 0.832708
O O5 0.500000 0.500000 0.500000
O O6 0.250000 0.750000 0.500000
O O7 0.520239 0.770931 0.466499
O O8 0.223833 0.613049 0.296543
O O9 0.078664 0.440123 0.367621
O O10 0.000000 0.451573 0.250000
O O11 0.000000 0.102857 0.250000
O O12 0.026438 0.187363 0.140344
#
# Coordination Sequence:
#
# PCOD9304101 Si02
#       5
#     8   8   8   8   8
#     4  11  25  44  70 100 140 183 240 294 368 438
#     4  12  27  47  76 106 146 193 245 306 380 453
#     4  11  25  42  67 104 137 184 237 297 363 442
#     4  11  23  42  67  97 138 182 232 293 362 434
#     4  11  25  44  70 100 140 184 238 296 367 437
#
# _framework density 21.888576
#
# number of rings (size 3 to 8) (size 9 to 14) (size 15 to 20)
#    0.000    0.800    2.000    4.200    5.600    8.800 
#    0.000    0.000    0.000    0.000    0.000    0.000 
#    0.000    0.000    0.000    0.000    0.000    0.000 
#
# Total GULP energy -111403.458114 kJ/mol
# GULP energy per Si atom -5570.172906 kJ/mol
# Density = 2.183876 g / cm^3
# Si number density = 21.888576 Si / 1000 Ang^3
#
#
#
# Elastic Constant Matrix: (Units=GPa)
#
#
# Indices 1 2 3 4 5 6 
#
# 1 86.2713 18.7889 -13.6257 0.0000 -4.2771 0.0000
# 2 18.7889 54.5646 6.1932 0.0000 -9.9531 0.0000
# 3 -13.6257 6.1932 66.8476 0.0000 -0.6801 0.0000
# 4 0.0000 0.0000 0.0000 25.6108 0.0000 -2.3938
# 5 -4.2771 -9.9531 -0.6801 0.0000 43.3850 0.0000
# 6 0.0000 0.0000 0.0000 -2.3938 0.0000 8.1655
#
#
#
# Elastic Compliance Matrix: (Units=1/GPa)
#
#
# Indices 1 2 3 4 5 6 
#
# 1 0.013152 -0.004841 0.003132 0.000000 0.000235 0.000000
# 2 -0.004841 0.021111 -0.002899 0.000000 0.004320 0.000000
# 3 0.003132 -0.002899 0.015865 0.000000 -0.000108 0.000000
# 4 0.000000 0.000000 0.000000 0.040146 0.000000 0.011769
# 5 0.000235 0.004320 -0.000108 0.000000 0.024062 0.000000
# 6 0.000000 0.000000 0.000000 0.011769 0.000000 0.125916
#
#
# Mechanical properties :
#
#
# Convention : Reuss Voigt Hill
#
# Bulk Modulus (GPa) = 24.44298 25.59959 25.02128
# Shear Modulus (GPa) = 19.00370 28.52074 23.76222
#
# Velocity S-wave (km/s) = 2.94972 3.61362 3.29842
# Velocity P-wave (km/s) = 4.77414 5.39739 5.09530
#
# Compressibility (1/GPa) = 0.04091154
#
# Stress axis : x y z
#
# Youngs Moduli (GPa) = 76.03395 47.36845 63.03096
#
# Poissons Ratio (x) = 0.22933 -0.19740
# Poissons Ratio (y) = 0.36811 0.18271
# Poissons Ratio (z) = -0.23812 0.13731
#
# Static dielectric constant tensor:
#      x y z
#    x 1.888220 0.000000 0.204890 
#    y 0.000000 1.867170 0.000000 
#    z 0.204890 0.000000 3.031100 
# 
# From -- ./inp_files/262434.got.cif
#   From: 2010.05.17/outbox.cif.g08.bks.cpg/sg15_132_cif.got.tgz:262434.got - 2010.06.03 18:47:42.
