data_PCOD9304566
_publ_section_title
;
Structure prediction by ZEFSAII (Michael W. Deem and Ramdas Pophale) SiO2 
 PCOD9304566
Probable space group: C 2/C
;
_chemical_formula_sum "Si O2"
_cell_formula_units_Z 32
_cell_length_a 25.813988
_cell_length_b 11.043686
_cell_length_c 9.276716
_cell_angle_alpha 90.000000
_cell_angle_beta 151.824789
_cell_angle_gamma 90.000000
_cell_volume 1248.709099
_symmetry_space_group_name_H-M "C 2/C"
_symmetry_group_IT_number 15
_symmetry_cell_setting 'monoclinic'
loop_
_space_group_symop_operation_xyz
x,y,z
-x,y,1/2-z
-x,-y,-z
x,-y,1/2+z
1/2+x,1/2+y,z
1/2-x,1/2+y,1/2-z
1/2-x,1/2-y,-z
1/2+x,1/2-y,1/2+z
loop_
_atom_site_type_symbol
_atom_site_label
_atom_site_fract_x
_atom_site_fract_y
_atom_site_fract_z
Si Si1 0.659630 0.064200 0.631759
Si Si2 0.000000 0.177354 0.250000
Si Si3 0.141837 0.665806 0.265076
Si Si4 0.500000 0.265309 0.250000
Si Si5 0.607322 0.513143 0.857694
O O1 0.646777 0.099398 0.431348
O O2 0.588683 0.169268 0.535315
O O3 0.620925 0.934021 0.590521
O O4 0.788326 0.036113 0.973033
O O5 0.035817 0.250552 0.477780
O O6 0.900833 0.087468 0.038667
O O7 0.250000 0.750000 0.500000
O O8 0.086147 0.856269 0.379552
O O9 0.500000 0.500000 0.500000
#
# Coordination Sequence:
#
# PCOD9304566 Si02
#       5
#     8   4   8   4   8
#     4  12  27  49  80 112 163 207 271 337 409 485
#     4  11  23  44  76 102 163 211 260 336 398 483
#     4  12  26  51  76 119 158 212 271 334 413 486
#     4  11  27  48  74 120 153 209 276 320 410 487
#     4  11  25  45  74 115 160 215 267 332 401 486
#
# _framework density 25.626463999999999
#
# number of rings (size 3 to 8) (size 9 to 14) (size 15 to 20)
#    0.000    0.500    2.500    5.250    3.500    7.000 
#    0.000    0.000    0.000    0.000    0.000    0.000 
#    0.000    0.000    0.000    0.000    0.000    0.000 
#
# Total GULP energy -89101.202024 kJ/mol
# GULP energy per Si atom -5568.825126 kJ/mol
# Density = 2.556814 g / cm^3
# Si number density = 25.626464 Si / 1000 Ang^3
#
#
#
# Elastic Constant Matrix: (Units=GPa)
#
#
# Indices 1 2 3 4 5 6 
#
# 1 90.6111 45.7830 45.5655 0.0000 7.4236 0.0000
# 2 45.7830 198.9945 74.9370 0.0000 -0.6911 0.0000
# 3 45.5655 74.9370 139.4563 0.0000 9.1017 0.0000
# 4 0.0000 0.0000 0.0000 48.9542 0.0000 -0.6593
# 5 7.4236 -0.6911 9.1017 0.0000 54.0985 0.0000
# 6 0.0000 0.0000 0.0000 -0.6593 0.0000 47.4907
#
#
#
# Elastic Compliance Matrix: (Units=1/GPa)
#
#
# Indices 1 2 3 4 5 6 
#
# 1 0.013820 -0.001902 -0.003406 0.000000 -0.001348 0.000000
# 2 -0.001902 0.006585 -0.002972 0.000000 0.000845 0.000000
# 3 -0.003406 -0.002972 0.009962 0.000000 -0.001247 0.000000
# 4 0.000000 0.000000 0.000000 0.020431 0.000000 0.000284
# 5 -0.001348 0.000845 -0.001247 0.000000 0.018890 0.000000
# 6 0.000000 0.000000 0.000000 0.000284 0.000000 0.021061
#
#
# Mechanical properties :
#
#
# Convention : Reuss Voigt Hill
#
# Bulk Modulus (GPa) = 72.42325 84.62588 78.52456
# Shear Modulus (GPa) = 44.67833 47.62712 46.15272
#
# Velocity S-wave (km/s) = 4.17999 4.31572 4.24840
# Velocity P-wave (km/s) = 7.18463 7.61108 7.40092
#
# Compressibility (1/GPa) = 0.01380772
#
# Stress axis : x y z
#
# Youngs Moduli (GPa) = 72.35832 151.85947 100.38188
#
# Poissons Ratio (x) = 0.28881 0.34186
# Poissons Ratio (y) = 0.13761 0.29836
# Poissons Ratio (z) = 0.24643 0.45136
#
# Static dielectric constant tensor:
#      x y z
#    x 2.727290 0.000000 0.190370 
#    y 0.000000 2.048600 0.000000 
#    z 0.190370 0.000000 2.060820 
# 
# From -- ./inp_files/60795.got.cif
#   From: 2010.05.17/outbox.cif.g08.bks.cpg/sg15_31_cif.got.tgz:60795.got - 2010.06.03 18:47:42.
