data_PCOD9304993
_publ_section_title
;
Structure prediction by ZEFSAII (Michael W. Deem and Ramdas Pophale) SiO2 
 PCOD9304993
Probable space group: C 2/C
;
_chemical_formula_sum "Si O2"
_cell_formula_units_Z 48
_cell_length_a 25.471992
_cell_length_b 8.316677
_cell_length_c 11.724915
_cell_angle_alpha 90.000000
_cell_angle_beta 121.082991
_cell_angle_gamma 90.000000
_cell_volume 2127.205486
_symmetry_space_group_name_H-M "C 2/C"
_symmetry_group_IT_number 15
_symmetry_cell_setting 'monoclinic'
loop_
_space_group_symop_operation_xyz
x,y,z
-x,y,1/2-z
-x,-y,-z
x,-y,1/2+z
1/2+x,1/2+y,z
1/2-x,1/2+y,1/2-z
1/2-x,1/2-y,-z
1/2+x,1/2-y,1/2+z
loop_
_atom_site_type_symbol
_atom_site_label
_atom_site_fract_x
_atom_site_fract_y
_atom_site_fract_z
Si Si1 0.901479 0.487767 0.831640
Si Si2 0.796022 0.680384 0.808935
Si Si3 0.989840 0.339902 0.120953
Si Si4 0.174640 0.016149 0.751979
Si Si5 0.946764 0.995486 0.534754
Si Si6 0.619244 0.278888 0.384437
O O1 0.833687 0.537225 0.791439
O O2 0.897954 0.359401 0.725321
O O3 0.941329 0.649734 0.851593
O O4 0.941590 0.414093 0.979198
O O5 0.727869 0.631390 0.765194
O O6 0.800063 0.835315 0.731509
O O7 0.833286 0.716452 0.967364
O O8 0.961466 0.167988 0.116634
O O9 0.000000 0.433368 0.250000
O O10 0.116482 0.023915 0.603596
O O11 0.151347 0.078242 0.847985
O O12 0.937352 0.144834 0.608576
O O13 0.000000 0.000000 0.500000
#
# Coordination Sequence:
#
# PCOD9304993 Si02
#       6
#     8   8   8   8   8   8
#     4  11  24  47  71 106 147 189 241 297 366 437
#     4  11  25  46  73 104 148 186 245 307 362 435
#     4  11  24  40  70 103 144 183 240 293 360 422
#     4  11  24  46  72 104 144 194 241 301 366 432
#     4  11  26  45  70 105 147 189 238 296 362 434
#     4  11  24  47  75 105 144 195 241 301 375 429
#
# _framework density 22.564813999999998
#
# number of rings (size 3 to 8) (size 9 to 14) (size 15 to 20)
#    0.000    1.000    1.667    4.500    4.667    2.667 
#    6.000    4.167    0.000    0.000    0.000    0.000 
#    0.000    0.000    0.000    0.000    0.000    0.000 
#
# Total GULP energy -134173.128430 kJ/mol
# GULP energy per Si atom -5590.547018 kJ/mol
# Density = 2.251346 g / cm^3
# Si number density = 22.564814 Si / 1000 Ang^3
#
#
#
# Elastic Constant Matrix: (Units=GPa)
#
#
# Indices 1 2 3 4 5 6 
#
# 1 146.7975 48.9024 50.2173 0.0000 0.3580 0.0000
# 2 48.9024 97.4088 57.9735 0.0000 -7.6419 0.0000
# 3 50.2173 57.9735 91.1160 0.0000 -12.5240 0.0000
# 4 0.0000 0.0000 0.0000 -97.4817 0.0000 16.8735
# 5 0.3580 -7.6419 -12.5240 0.0000 33.0828 0.0000
# 6 0.0000 0.0000 0.0000 16.8735 0.0000 54.1552
#
#
#
# Elastic Compliance Matrix: (Units=1/GPa)
#
#
# Indices 1 2 3 4 5 6 
#
# 1 0.008870 -0.002473 -0.003594 0.000000 -0.002028 0.000000
# 2 -0.002473 0.017213 -0.009535 0.000000 0.000393 0.000000
# 3 -0.003594 -0.009535 0.019753 0.000000 0.005314 0.000000
# 4 0.000000 0.000000 0.000000 -0.009733 0.000000 0.003033
# 5 -0.002028 0.000393 0.005314 0.000000 0.032352 0.000000
# 6 0.000000 0.000000 0.000000 0.003033 0.000000 0.017521
#
#
# Mechanical properties :
#
#
# Convention : Reuss Voigt Hill
#
# Bulk Modulus (GPa) = 68.34191 72.16763 70.25477
# Shear Modulus (GPa) = 40.96437 9.83321 25.39879
#
# Velocity S-wave (km/s) = 4.26538 2.08979 3.35862
# Velocity P-wave (km/s) = 7.38990 6.15425 6.80020
#
# Compressibility (1/GPa) = 0.01463231
#
# Stress axis : x y z
#
# Youngs Moduli (GPa) = 112.73447 58.09417 50.62568
#
# Poissons Ratio (x) = 0.14369 0.18194
# Poissons Ratio (y) = 0.27884 0.48271
# Poissons Ratio (z) = 0.40514 0.55393
#
# Static dielectric constant tensor:
#      x y z
#    x 1.857180 0.000000 -0.054120 
#    y 0.000000 2.477370 0.000000 
#    z -0.054120 0.000000 1.829290 
# 
# From -- ./inp_files/116798.got.cif
#   From: 2010.05.17/outbox.cif.g08.bks.cpg/sg15_59_cif.got.tgz:116798.got - 2010.06.03 18:47:42.
