data_PCOD9304746
_publ_section_title
;
Structure prediction by ZEFSAII (Michael W. Deem and Ramdas Pophale) SiO2 
 PCOD9304746
Probable space group: C 2/C
;
_chemical_formula_sum "Si O2"
_cell_formula_units_Z 36
_cell_length_a 27.965160
_cell_length_b 6.566789
_cell_length_c 27.830080
_cell_angle_alpha 90.000000
_cell_angle_beta 160.087846
_cell_angle_gamma 90.000000
_cell_volume 1740.614895
_symmetry_space_group_name_H-M "C 2/C"
_symmetry_group_IT_number 15
_symmetry_cell_setting 'monoclinic'
loop_
_space_group_symop_operation_xyz
x,y,z
-x,y,1/2-z
-x,-y,-z
x,-y,1/2+z
1/2+x,1/2+y,z
1/2-x,1/2+y,1/2-z
1/2-x,1/2-y,-z
1/2+x,1/2-y,1/2+z
loop_
_atom_site_type_symbol
_atom_site_label
_atom_site_fract_x
_atom_site_fract_y
_atom_site_fract_z
Si Si1 0.878033 0.497331 0.815902
Si Si2 0.090499 0.192988 0.069219
Si Si3 0.016643 0.522942 0.349136
Si Si4 0.000000 0.205128 0.250000
Si Si5 0.693524 0.652293 0.897226
O O1 0.864675 0.681638 0.840917
O O2 0.728923 0.384605 0.673012
O O3 0.935640 0.562553 0.818645
O O4 0.992775 0.340833 0.945651
O O5 0.000000 0.000000 0.000000
O O6 0.043756 0.351301 0.334834
O O7 0.918613 0.697819 0.233186
O O8 0.169315 0.613915 0.505388
O O9 0.881070 0.056851 0.158367
O O10 0.750000 0.750000 0.000000
#
# Coordination Sequence:
#
# PCOD9304746 Si02
#       5
#     8   8   8   4   8
#     4  11  25  44  69 101 130 176 219 274 332 395
#     4  11  23  46  70  93 137 169 219 277 333 390
#     4  12  26  42  70  99 133 176 224 268 331 394
#     4  12  24  42  70  92 138 174 222 264 326 394
#     4  12  23  46  64  94 137 176 216 277 320 381
#
# _framework density 20.682348000000001
#
# number of rings (size 3 to 8) (size 9 to 14) (size 15 to 20)
#    0.000    0.444    6.667    2.000    0.000    3.556 
#    0.000    0.000    0.000    0.000    0.000    0.000 
#    0.000    0.000    0.000    0.000    0.000    0.000 
#
# Total GULP energy -100716.341791 kJ/mol
# GULP energy per Si atom -5595.352322 kJ/mol
# Density = 2.063527 g / cm^3
# Si number density = 20.682348 Si / 1000 Ang^3
#
#
#
# Elastic Constant Matrix: (Units=GPa)
#
#
# Indices 1 2 3 4 5 6 
#
# 1 63.3957 -12.4900 6.8844 -0.0001 15.5807 -0.0002
# 2 -12.4900 67.6712 17.5105 0.0009 -1.6116 0.0009
# 3 6.8844 17.5105 98.4610 -0.0016 29.3926 -0.0003
# 4 -0.0001 0.0009 -0.0016 31.0683 -0.0004 15.4781
# 5 15.5807 -1.6116 29.3926 -0.0004 33.3936 -0.0001
# 6 -0.0002 0.0009 -0.0003 15.4781 -0.0001 22.8518
#
#
#
# Elastic Compliance Matrix: (Units=1/GPa)
#
#
# Indices 1 2 3 4 5 6 
#
# 1 0.018552 0.002948 0.000977 0.000000 -0.009374 0.000000
# 2 0.002948 0.016428 -0.004007 0.000000 0.002944 0.000000
# 3 0.000977 -0.004007 0.014913 0.000001 -0.013775 0.000000
# 4 0.000000 0.000000 0.000001 0.048580 0.000000 -0.032904
# 5 -0.009374 0.002944 -0.013775 0.000000 0.046586 0.000000
# 6 0.000000 0.000000 0.000000 -0.032904 0.000000 0.066047
#
#
# Mechanical properties :
#
#
# Convention : Reuss Voigt Hill
#
# Bulk Modulus (GPa) = 20.10851 28.14862 24.12857
# Shear Modulus (GPa) = 21.94463 31.97096 26.95780
#
# Velocity S-wave (km/s) = 3.26088 3.93594 3.61421
# Velocity P-wave (km/s) = 4.89096 5.85620 5.39521
#
# Compressibility (1/GPa) = 0.04973019
#
# Stress axis : x y z
#
# Youngs Moduli (GPa) = 53.90120 60.87042 67.05716
#
# Poissons Ratio (x) = -0.17946 -0.06549
# Poissons Ratio (y) = -0.15891 0.26867
# Poissons Ratio (z) = -0.05264 0.24388
#
# Static dielectric constant tensor:
#      x y z
#    x 1.726380 0.000000 0.007150 
#    y 0.000000 1.721570 0.000000 
#    z 0.007150 0.000000 1.756870 
# 
# From -- ./inp_files/319883.got.cif
#   From: 2010.05.17/outbox.cif.g08.bks.cpg/sg15_160_cif.got.tgz:319883.got - 2010.06.03 18:47:42.
