data_PCOD9304723
_publ_section_title
;
Structure prediction by ZEFSAII (Michael W. Deem and Ramdas Pophale) SiO2 
 PCOD9304723
Probable space group: C 2/C
;
_chemical_formula_sum "Si O2"
_cell_formula_units_Z 64
_cell_length_a 23.424100
_cell_length_b 16.626988
_cell_length_c 20.129569
_cell_angle_alpha 90.000000
_cell_angle_beta 157.541608
_cell_angle_gamma 90.000000
_cell_volume 2994.942221
_symmetry_space_group_name_H-M "C 2/C"
_symmetry_group_IT_number 15
_symmetry_cell_setting 'monoclinic'
loop_
_space_group_symop_operation_xyz
x,y,z
-x,y,1/2-z
-x,-y,-z
x,-y,1/2+z
1/2+x,1/2+y,z
1/2-x,1/2+y,1/2-z
1/2-x,1/2-y,-z
1/2+x,1/2-y,1/2+z
loop_
_atom_site_type_symbol
_atom_site_label
_atom_site_fract_x
_atom_site_fract_y
_atom_site_fract_z
Si Si1 0.635735 0.618815 0.706758
Si Si2 0.560522 0.383256 0.381666
Si Si3 0.182021 0.310728 0.752338
Si Si4 0.376495 0.439172 0.566029
Si Si5 0.039264 0.411756 0.215197
Si Si6 0.012770 0.859346 0.938178
Si Si7 0.691253 0.201080 0.107998
Si Si8 0.456191 0.952571 0.521465
O O1 0.573037 0.595741 0.711142
O O2 0.659397 0.715516 0.735646
O O3 0.521349 0.609840 0.522543
O O4 0.782392 0.570072 0.842237
O O5 0.500000 0.341042 0.250000
O O6 0.678159 0.335085 0.552347
O O7 0.638338 0.465241 0.439818
O O8 0.200532 0.328713 0.694036
O O9 0.043411 0.368003 0.621236
O O10 0.500000 0.407177 0.750000
O O11 0.216698 0.397642 0.400770
O O12 0.446156 0.428193 0.568536
O O13 0.000000 0.421899 0.250000
O O14 0.003784 0.490030 0.132873
O O15 0.935886 0.343466 0.070897
O O16 0.853900 0.817697 0.753796
O O17 0.141431 0.792988 0.063332
O O18 0.500000 0.000000 0.500000
#
# Coordination Sequence:
#
# PCOD9304723 Si02
#       8
#     8   8   8   8   8   8   8   8
#     4  11  26  41  72 101 138 180 236 284 352 412
#     4  11  25  44  67  98 137 179 231 289 347 408
#     4  11  23  46  67 102 137 182 229 289 344 418
#     4  11  25  44  68  96 139 180 227 281 350 414
#     4  12  26  44  69 102 141 182 233 290 348 417
#     4  11  24  42  70 101 137 180 228 286 345 425
#     4  11  24  42  70 101 140 177 230 281 353 415
#     4  12  25  42  72 103 140 184 236 291 353 414
#
# _framework density 21.369361999999999
#
# number of rings (size 3 to 8) (size 9 to 14) (size 15 to 20)
#    0.000    0.750    3.750    3.000   10.500    1.500 
#    0.000    3.750    0.000    0.000    0.000    0.000 
#    0.000    0.000    0.000    0.000    0.000    0.000 
#
# Total GULP energy -178828.523345 kJ/mol
# GULP energy per Si atom -5588.391355 kJ/mol
# Density = 2.132072 g / cm^3
# Si number density = 21.369362 Si / 1000 Ang^3
#
#
#
# Elastic Constant Matrix: (Units=GPa)
#
#
# Indices 1 2 3 4 5 6 
#
# 1 138.8704 23.2456 55.9086 -0.0012 -17.7224 -0.0006
# 2 23.2456 33.3416 24.9489 -0.0047 -6.7452 -0.0019
# 3 55.9086 24.9489 128.1633 -0.0019 -11.9787 -0.0008
# 4 -0.0012 -0.0047 -0.0019 -65.8160 -0.0016 -21.6722
# 5 -17.7224 -6.7452 -11.9787 -0.0016 42.8541 -0.0006
# 6 -0.0006 -0.0019 -0.0008 -21.6722 -0.0006 14.1250
#
#
#
# Elastic Compliance Matrix: (Units=1/GPa)
#
#
# Indices 1 2 3 4 5 6 
#
# 1 0.009399 -0.003704 -0.003153 0.000000 0.002423 0.000000
# 2 -0.003704 0.037151 -0.005353 -0.000003 0.002819 0.000001
# 3 -0.003153 -0.005353 0.010288 0.000000 0.000729 0.000000
# 4 0.000000 -0.000003 0.000000 -0.010094 -0.000001 -0.015488
# 5 0.002423 0.002819 0.000729 -0.000001 0.024985 0.000000
# 6 0.000000 0.000001 0.000000 -0.015488 0.000000 0.047034
#
#
# Mechanical properties :
#
#
# Convention : Reuss Voigt Hill
#
# Bulk Modulus (GPa) = 30.84578 56.50906 43.67742
# Shear Modulus (GPa) = 32.47012 11.31743 21.89378
#
# Velocity S-wave (km/s) = 3.90227 2.30382 3.20432
# Velocity P-wave (km/s) = 5.89657 5.79467 5.84584
#
# Compressibility (1/GPa) = 0.03241935
#
# Stress axis : x y z
#
# Youngs Moduli (GPa) = 106.38875 26.91747 97.20009
#
# Poissons Ratio (x) = 0.09970 0.30646
# Poissons Ratio (y) = 0.39405 0.52028
# Poissons Ratio (z) = 0.33543 0.14408
#
# Static dielectric constant tensor:
#      x y z
#    x 1.772670 0.000000 0.012260 
#    y 0.000000 1.770530 0.000000 
#    z 0.012260 0.000000 1.784590 
# 
# From -- ./inp_files/256044.got.cif
#   From: 2010.05.17/outbox.cif.g08.bks.cpg/sg15_129_cif.got.tgz:256044.got - 2010.06.03 18:47:42.
