data_PCOD9304450
_publ_section_title
;
Structure prediction by ZEFSAII (Michael W. Deem and Ramdas Pophale) SiO2 
 PCOD9304450
Probable space group: C 2/C
;
_chemical_formula_sum "Si O2"
_cell_formula_units_Z 40
_cell_length_a 18.065847
_cell_length_b 7.613608
_cell_length_c 22.530394
_cell_angle_alpha 90.000000
_cell_angle_beta 148.877470
_cell_angle_gamma 90.000000
_cell_volume 1601.765541
_symmetry_space_group_name_H-M "C 2/C"
_symmetry_group_IT_number 15
_symmetry_cell_setting 'monoclinic'
loop_
_space_group_symop_operation_xyz
x,y,z
-x,y,1/2-z
-x,-y,-z
x,-y,1/2+z
1/2+x,1/2+y,z
1/2-x,1/2+y,1/2-z
1/2-x,1/2-y,-z
1/2+x,1/2-y,1/2+z
loop_
_atom_site_type_symbol
_atom_site_label
_atom_site_fract_x
_atom_site_fract_y
_atom_site_fract_z
Si Si1 0.687030 0.513830 0.006657
Si Si2 0.577901 0.413653 0.609556
Si Si3 0.142512 0.211054 0.311817
Si Si4 0.300561 0.108955 0.953980
Si Si5 0.603085 0.052040 0.668264
O O1 0.762773 0.339228 0.081735
O O2 0.732218 0.555520 0.970891
O O3 0.519565 0.480242 0.902539
O O4 0.731732 0.685506 0.075830
O O5 0.500000 0.500000 0.500000
O O6 0.573016 0.203580 0.599475
O O7 0.741964 0.466470 0.729518
O O8 0.107096 0.331697 0.231190
O O9 0.000000 0.167871 0.250000
O O10 0.232870 0.033969 0.363574
O O11 0.470776 0.080356 0.076503
#
# Coordination Sequence:
#
# PCOD9304450 Si02
#       5
#     8   8   8   8   8
#     4  11  23  44  68  97 140 174 228 290 335 414
#     4  12  25  44  69 101 142 183 233 288 344 417
#     4  12  23  43  71 101 136 180 232 289 349 411
#     4  11  24  44  70 102 136 180 231 288 348 412
#     4  12  24  44  70  98 141 189 229 289 352 410
#
# _framework density 24.972443999999999
#
# number of rings (size 3 to 8) (size 9 to 14) (size 15 to 20)
#    0.000    0.400    6.000    3.000    0.000    2.400 
#    3.600    4.000    0.000    0.000    0.000    0.000 
#    0.000    0.000    0.000    0.000    0.000    0.000 
#
# Total GULP energy -112158.030077 kJ/mol
# GULP energy per Si atom -5607.901504 kJ/mol
# Density = 2.491561 g / cm^3
# Si number density = 24.972444 Si / 1000 Ang^3
#
#
#
# Elastic Constant Matrix: (Units=GPa)
#
#
# Indices 1 2 3 4 5 6 
#
# 1 83.9778 6.3600 51.9829 0.0000 23.6662 0.0000
# 2 6.3600 136.1353 26.8510 -0.0002 17.0459 -0.0001
# 3 51.9829 26.8510 122.5220 -0.0003 41.3577 -0.0001
# 4 0.0000 -0.0002 -0.0003 46.4954 0.0000 5.9410
# 5 23.6662 17.0459 41.3577 0.0000 53.8095 0.0000
# 6 0.0000 -0.0001 -0.0001 5.9410 0.0000 30.8696
#
#
#
# Elastic Compliance Matrix: (Units=1/GPa)
#
#
# Indices 1 2 3 4 5 6 
#
# 1 0.016480 0.000802 -0.006259 0.000000 -0.002691 0.000000
# 2 0.000802 0.007812 -0.001482 0.000000 -0.001688 0.000000
# 3 -0.006259 -0.001482 0.013577 0.000000 -0.007213 0.000000
# 4 0.000000 0.000000 0.000000 0.022050 0.000000 -0.004244
# 5 -0.002691 -0.001688 -0.007213 0.000000 0.025846 0.000000
# 6 0.000000 0.000000 0.000000 -0.004244 0.000000 0.033211
#
#
# Mechanical properties :
#
#
# Convention : Reuss Voigt Hill
#
# Bulk Modulus (GPa) = 41.68580 57.00255 49.34418
# Shear Modulus (GPa) = 35.49815 43.39766 39.44791
#
# Velocity S-wave (km/s) = 3.77436 4.17324 3.97880
# Velocity P-wave (km/s) = 5.97690 6.78948 6.39611
#
# Compressibility (1/GPa) = 0.02398898
#
# Stress axis : x y z
#
# Youngs Moduli (GPa) = 60.67881 128.00969 73.65389
#
# Poissons Ratio (x) = -0.10262 0.46103
# Poissons Ratio (y) = -0.04864 0.10918
# Poissons Ratio (z) = 0.37981 0.18976
#
# Static dielectric constant tensor:
#      x y z
#    x 2.067940 0.000000 -0.065010 
#    y 0.000000 1.943910 0.000000 
#    z -0.065010 0.000000 1.966450 
# 
# From -- ./inp_files/121679.got.cif
#   From: 2010.05.17/outbox.cif.g08.bks.cpg/sg15_61_cif.got.tgz:121679.got - 2010.06.03 18:47:42.
