data_PCOD9304309
_publ_section_title
;
Structure prediction by ZEFSAII (Michael W. Deem and Ramdas Pophale) SiO2 
 PCOD9304309
Probable space group: C 2/C
;
_chemical_formula_sum "Si O2"
_cell_formula_units_Z 20
_cell_length_a 5.201352
_cell_length_b 28.578532
_cell_length_c 5.271481
_cell_angle_alpha 90.000000
_cell_angle_beta 92.066730
_cell_angle_gamma 90.000000
_cell_volume 783.080138
_symmetry_space_group_name_H-M "C 2/C"
_symmetry_group_IT_number 15
_symmetry_cell_setting 'monoclinic'
loop_
_space_group_symop_operation_xyz
x,y,z
-x,y,1/2-z
-x,-y,-z
x,-y,1/2+z
1/2+x,1/2+y,z
1/2-x,1/2+y,1/2-z
1/2-x,1/2-y,-z
1/2+x,1/2-y,1/2+z
loop_
_atom_site_type_symbol
_atom_site_label
_atom_site_fract_x
_atom_site_fract_y
_atom_site_fract_z
Si Si1 0.500000 0.532648 0.750000
Si Si2 0.165829 0.196166 0.505448
Si Si3 0.725519 0.902805 0.581820
O O1 0.500000 0.500000 0.500000
O O2 0.723316 0.568503 0.672941
O O3 0.250000 0.250000 0.500000
O O4 0.347224 0.150964 0.489298
O O5 0.000000 0.192399 0.250000
O O6 0.000000 0.189350 0.750000
O O7 0.500000 0.922797 0.750000
O O8 0.000000 0.903844 0.750000
#
# Coordination Sequence:
#
# PCOD9304309 Si02
#       3
#     4   8   8
#     4  12  26  52  78 112 148 200 252 314 376 442
#     4  11  23  43  69 109 149 197 245 301 368 445
#     4  11  26  50  76 111 153 196 249 312 372 446
#
# _framework density 25.54017
#
# number of rings (size 3 to 8) (size 9 to 14) (size 15 to 20)
#    0.000    0.800    4.000    2.400    0.000    6.400 
#    0.000    0.000    0.000    0.000    0.000    0.000 
#    0.000    0.000    0.000    0.000    0.000    0.000 
#
# Total GULP energy -55868.348995 kJ/mol
# GULP energy per Si atom -5586.834900 kJ/mol
# Density = 2.548204 g / cm^3
# Si number density = 25.540170 Si / 1000 Ang^3
#
#
#
# Elastic Constant Matrix: (Units=GPa)
#
#
# Indices 1 2 3 4 5 6 
#
# 1 110.2912 14.7452 63.2385 0.0000 -25.1632 0.0000
# 2 14.7452 199.9793 53.3807 0.0000 -20.7822 0.0000
# 3 63.2385 53.3807 244.2999 0.0000 -41.5908 0.0000
# 4 0.0000 0.0000 0.0000 54.2121 0.0000 -27.5807
# 5 -25.1632 -20.7822 -41.5908 0.0000 69.3835 0.0000
# 6 0.0000 0.0000 0.0000 -27.5807 0.0000 3.5330
#
#
#
# Elastic Compliance Matrix: (Units=1/GPa)
#
#
# Indices 1 2 3 4 5 6 
#
# 1 0.011040 0.000105 -0.002443 0.000000 0.002571 0.000000
# 2 0.000105 0.005374 -0.001026 0.000000 0.001033 0.000000
# 3 -0.002443 -0.001026 0.005286 0.000000 0.001975 0.000000
# 4 0.000000 0.000000 0.000000 -0.006207 0.000000 -0.048458
# 5 0.002571 0.001033 0.001975 0.000000 0.016839 0.000000
# 6 0.000000 0.000000 0.000000 -0.048458 0.000000 -0.095249
#
#
# Mechanical properties :
#
#
# Convention : Reuss Voigt Hill
#
# Bulk Modulus (GPa) = 66.78521 90.81102 78.79812
# Shear Modulus (GPa) = -97.65709 53.63944 -22.00883
#
# Velocity S-wave (km/s) = -6.19029 4.58776 -2.93871
# Velocity P-wave (km/s) = 4.98869 7.98103 4.40510
#
# Compressibility (1/GPa) = 0.01497337
#
# Stress axis : x y z
#
# Youngs Moduli (GPa) = 90.57767 186.08551 189.17302
#
# Poissons Ratio (x) = -0.01959 0.46218
# Poissons Ratio (y) = -0.00954 0.19402
# Poissons Ratio (z) = 0.22129 0.19085
#
# Static dielectric constant tensor:
#      x y z
#    x 2.081820 0.000000 0.068050 
#    y 0.000000 2.216690 0.000000 
#    z 0.068050 0.000000 1.959330 
# 
# From -- ./inp_files/542.got.cif
#   From: 2010.05.17/outbox.cif.g08.bks.cpg/sg15_1_cif.got.tgz:542.got - 2010.06.03 18:47:42.
