data_PCOD9304491
_publ_section_title
;
Structure prediction by ZEFSAII (Michael W. Deem and Ramdas Pophale) SiO2 
 PCOD9304491
Probable space group: C 2/C
;
_chemical_formula_sum "Si O2"
_cell_formula_units_Z 48
_cell_length_a 22.909851
_cell_length_b 8.375319
_cell_length_c 14.693835
_cell_angle_alpha 90.000000
_cell_angle_beta 45.644045
_cell_angle_gamma 90.000000
_cell_volume 2015.909779
_symmetry_space_group_name_H-M "C 2/C"
_symmetry_group_IT_number 15
_symmetry_cell_setting 'monoclinic'
loop_
_space_group_symop_operation_xyz
x,y,z
-x,y,1/2-z
-x,-y,-z
x,-y,1/2+z
1/2+x,1/2+y,z
1/2-x,1/2+y,1/2-z
1/2-x,1/2-y,-z
1/2+x,1/2-y,1/2+z
loop_
_atom_site_type_symbol
_atom_site_label
_atom_site_fract_x
_atom_site_fract_y
_atom_site_fract_z
Si Si1 0.837692 0.559551 0.790670
Si Si2 0.823647 0.954937 0.431667
Si Si3 0.089659 0.635046 0.135367
Si Si4 0.121344 0.921861 0.804896
Si Si5 0.417953 0.941061 0.538435
Si Si6 0.565049 0.421697 0.542879
O O1 0.901595 0.500891 0.797363
O O2 0.857342 0.737257 0.735438
O O3 0.848031 0.449995 0.690765
O O4 0.752510 0.531980 0.933536
O O5 0.842077 0.769164 0.426506
O O6 0.819922 0.984923 0.328069
O O7 0.900314 0.044816 0.395389
O O8 0.000000 0.707927 0.250000
O O9 0.096678 0.558475 0.029208
O O10 0.118742 0.974559 0.912503
O O11 0.029451 0.962331 0.870813
O O12 0.426513 0.762823 0.492888
O O13 0.500000 0.000000 0.500000
#
# Coordination Sequence:
#
# PCOD9304491 Si02
#       6
#     8   8   8   8   8   8
#     4  12  26  45  68 103 140 185 227 290 358 414
#     4  12  27  42  67 105 143 177 232 290 356 410
#     4  12  24  44  74  99 137 190 239 288 347 413
#     4  11  23  44  70  95 142 179 235 285 342 417
#     4  12  24  44  72  98 137 179 238 287 344 416
#     4  11  24  42  71 102 131 185 232 287 345 413
#
# _framework density 23.810590000000001
#
# number of rings (size 3 to 8) (size 9 to 14) (size 15 to 20)
#    0.000    0.333    3.333    5.500    2.333    4.000 
#    0.000    0.000    0.000    0.000    0.000    0.000 
#    0.000    0.000    0.000    0.000    0.000    0.000 
#
# Total GULP energy -134486.702556 kJ/mol
# GULP energy per Si atom -5603.612607 kJ/mol
# Density = 2.375640 g / cm^3
# Si number density = 23.810590 Si / 1000 Ang^3
#
#
#
# Elastic Constant Matrix: (Units=GPa)
#
#
# Indices 1 2 3 4 5 6 
#
# 1 42.0382 10.6618 11.6365 0.0001 9.9145 0.0000
# 2 10.6618 116.8495 13.5163 0.0006 12.7953 -0.0005
# 3 11.6365 13.5163 144.8060 0.0002 12.0685 -0.0002
# 4 0.0001 0.0006 0.0002 41.1192 -0.0001 6.7951
# 5 9.9145 12.7953 12.0685 -0.0001 48.9328 0.0001
# 6 0.0000 -0.0005 -0.0002 6.7951 0.0001 11.9033
#
#
#
# Elastic Compliance Matrix: (Units=1/GPa)
#
#
# Indices 1 2 3 4 5 6 
#
# 1 0.025675 -0.001685 -0.001541 0.000000 -0.004382 0.000000
# 2 -0.001685 0.008980 -0.000547 0.000000 -0.001872 0.000001
# 3 -0.001541 -0.000547 0.007191 0.000000 -0.001318 0.000000
# 4 0.000000 0.000000 0.000000 0.026853 0.000000 -0.015329
# 5 -0.004382 -0.001872 -0.001318 0.000000 0.022139 0.000000
# 6 0.000000 0.000001 0.000000 -0.015329 0.000000 0.092761
#
#
# Mechanical properties :
#
#
# Convention : Reuss Voigt Hill
#
# Bulk Modulus (GPa) = 29.15369 41.70254 35.42811
# Shear Modulus (GPa) = 24.68208 38.24968 31.46588
#
# Velocity S-wave (km/s) = 3.22312 4.01236 3.63920
# Velocity P-wave (km/s) = 5.11096 6.24641 5.70700
#
# Compressibility (1/GPa) = 0.03430098
#
# Stress axis : x y z
#
# Youngs Moduli (GPa) = 38.94836 111.35898 139.07205
#
# Poissons Ratio (x) = 0.18760 0.21428
# Poissons Ratio (y) = 0.06561 0.07605
# Poissons Ratio (z) = 0.06001 0.06089
#
# Static dielectric constant tensor:
#      x y z
#    x 1.907410 0.000000 -0.068390 
#    y 0.000000 1.871980 0.000000 
#    z -0.068390 0.000000 1.916710 
# 
# From -- ./inp_files/176864.got.cif
#   From: 2010.05.17/outbox.cif.g08.bks.cpg/sg15_89_cif.got.tgz:176864.got - 2010.06.03 18:47:42.
