data_PCOD9304619
_publ_section_title
;
Structure prediction by ZEFSAII (Michael W. Deem and Ramdas Pophale) SiO2 
 PCOD9304619
Probable space group: C 2/C
;
_chemical_formula_sum "Si O2"
_cell_formula_units_Z 56
_cell_length_a 22.722526
_cell_length_b 12.809182
_cell_length_c 9.290340
_cell_angle_alpha 90.000000
_cell_angle_beta 122.862338
_cell_angle_gamma 90.000000
_cell_volume 2271.312371
_symmetry_space_group_name_H-M "C 2/C"
_symmetry_group_IT_number 15
_symmetry_cell_setting 'monoclinic'
loop_
_space_group_symop_operation_xyz
x,y,z
-x,y,1/2-z
-x,-y,-z
x,-y,1/2+z
1/2+x,1/2+y,z
1/2-x,1/2+y,1/2-z
1/2-x,1/2-y,-z
1/2+x,1/2-y,1/2+z
loop_
_atom_site_type_symbol
_atom_site_label
_atom_site_fract_x
_atom_site_fract_y
_atom_site_fract_z
Si Si1 0.509745 0.606982 0.430595
Si Si2 0.356721 0.981359 0.977792
Si Si3 0.446402 0.077652 0.353828
Si Si4 0.693653 0.794359 0.151968
Si Si5 0.832330 0.109093 0.838701
Si Si6 0.452551 0.270753 0.079263
Si Si7 0.209569 0.899628 0.880227
O O1 0.500000 0.597125 0.250000
O O2 0.500000 0.500000 0.500000
O O3 0.588213 0.646535 0.567251
O O4 0.450480 0.680225 0.419057
O O5 0.332581 0.086303 0.860048
O O6 0.388664 0.905004 0.900789
O O7 0.291138 0.930510 0.969936
O O8 0.411109 0.022442 0.169613
O O9 0.493930 0.175345 0.376921
O O10 0.500000 0.000000 0.500000
O O11 0.771439 0.815734 0.193758
O O12 0.701427 0.712906 0.292736
O O13 0.626446 0.749448 0.975000
O O14 0.826985 0.995079 0.756318
O O15 0.814060 0.099622 0.985113
O O16 0.500000 0.339457 0.250000
#
# Coordination Sequence:
#
# PCOD9304619 Si02
#       7
#     8   8   8   8   8   8   8
#     4  12  27  48  76 106 146 192 251 302 362 437
#     4  11  24  44  70 108 139 198 239 303 366 444
#     4  12  23  44  70 104 147 183 245 296 373 433
#     4  11  23  45  70 101 146 188 239 296 366 435
#     4  11  25  47  69 107 136 193 243 294 374 428
#     4  12  25  46  72 107 146 194 241 304 370 437
#     4  11  25  45  73  97 150 185 242 303 365 431
#
# _framework density 24.655349000000001
#
# number of rings (size 3 to 8) (size 9 to 14) (size 15 to 20)
#    0.000    0.571    2.857    5.571    2.000    2.286 
#    0.000    2.857    0.000    0.000    0.000    0.000 
#    0.000    0.000    0.000    0.000    0.000    0.000 
#
# Total GULP energy -156514.678428 kJ/mol
# GULP energy per Si atom -5589.809944 kJ/mol
# Density = 2.459923 g / cm^3
# Si number density = 24.655349 Si / 1000 Ang^3
#
#
#
# Elastic Constant Matrix: (Units=GPa)
#
#
# Indices 1 2 3 4 5 6 
#
# 1 144.6829 29.7212 43.0104 0.0000 20.4175 0.0000
# 2 29.7212 84.1637 43.9769 0.0000 2.8540 0.0000
# 3 43.0104 43.9769 124.1246 0.0000 11.8454 0.0000
# 4 0.0000 0.0000 0.0000 27.1539 0.0000 5.1587
# 5 20.4175 2.8540 11.8454 0.0000 56.3188 0.0000
# 6 0.0000 0.0000 0.0000 5.1587 0.0000 29.9599
#
#
#
# Elastic Compliance Matrix: (Units=1/GPa)
#
#
# Indices 1 2 3 4 5 6 
#
# 1 0.008215 -0.001783 -0.001979 0.000000 -0.002472 0.000000
# 2 -0.001783 0.014975 -0.004773 0.000000 0.000891 0.000000
# 3 -0.001979 -0.004773 0.010553 0.000000 -0.001260 0.000000
# 4 0.000000 0.000000 0.000000 0.038073 0.000000 -0.006556
# 5 -0.002472 0.000891 -0.001260 0.000000 0.018872 0.000000
# 6 0.000000 0.000000 0.000000 -0.006556 0.000000 0.034507
#
#
# Mechanical properties :
#
#
# Convention : Reuss Voigt Hill
#
# Bulk Modulus (GPa) = 59.97496 65.15424 62.56460
# Shear Modulus (GPa) = 33.82442 38.43738 36.13090
#
# Velocity S-wave (km/s) = 3.70792 3.95269 3.83226
# Velocity P-wave (km/s) = 6.53527 6.87859 6.70912
#
# Compressibility (1/GPa) = 0.01667362
#
# Stress axis : x y z
#
# Youngs Moduli (GPa) = 121.72765 66.77830 94.75627
#
# Poissons Ratio (x) = 0.11908 0.18752
# Poissons Ratio (y) = 0.21706 0.45225
# Poissons Ratio (z) = 0.24089 0.31872
#
# Static dielectric constant tensor:
#      x y z
#    x 2.022480 0.000000 -0.120090 
#    y 0.000000 2.038860 0.000000 
#    z -0.120090 0.000000 2.398080 
# 
# From -- ./inp_files/61986.got.cif
#   From: 2010.05.17/outbox.cif.g08.bks.cpg/sg15_31_cif.got.tgz:61986.got - 2010.06.03 18:47:42.
