data_PCOD9304919
_publ_section_title
;
Structure prediction by ZEFSAII (Michael W. Deem and Ramdas Pophale) SiO2 
 PCOD9304919
Probable space group: C 2/C
;
_chemical_formula_sum "Si O2"
_cell_formula_units_Z 52
_cell_length_a 11.153688
_cell_length_b 16.436432
_cell_length_c 24.280704
_cell_angle_alpha 90.000000
_cell_angle_beta 148.042102
_cell_angle_gamma 90.000000
_cell_volume 2356.057541
_symmetry_space_group_name_H-M "C 2/C"
_symmetry_group_IT_number 15
_symmetry_cell_setting 'monoclinic'
loop_
_space_group_symop_operation_xyz
x,y,z
-x,y,1/2-z
-x,-y,-z
x,-y,1/2+z
1/2+x,1/2+y,z
1/2-x,1/2+y,1/2-z
1/2-x,1/2-y,-z
1/2+x,1/2-y,1/2+z
loop_
_atom_site_type_symbol
_atom_site_label
_atom_site_fract_x
_atom_site_fract_y
_atom_site_fract_z
Si Si1 0.649190 0.930880 0.402574
Si Si2 0.882551 0.504903 0.394620
Si Si3 0.500000 0.626590 0.750000
Si Si4 0.500000 0.044207 0.250000
Si Si5 0.411287 0.241717 0.809541
Si Si6 0.500000 0.640991 0.250000
Si Si7 0.377131 0.344464 0.898797
Si Si8 0.386915 0.246392 0.110028
O O1 0.573539 0.988410 0.423541
O O2 0.629646 0.987008 0.342177
O O3 0.489205 0.851077 0.333435
O O4 0.899255 0.895796 0.505838
O O5 0.708568 0.431018 0.317121
O O6 0.720992 0.583938 0.327485
O O7 0.000000 0.500000 0.500000
O O8 0.583769 0.679576 0.834553
O O9 0.311815 0.100765 0.205193
O O10 0.543851 0.301011 0.819664
O O11 0.438907 0.268926 0.883792
O O12 0.148890 0.260508 0.694517
O O13 0.249533 0.317699 0.904764
O O14 0.250000 0.250000 0.000000
#
# Coordination Sequence:
#
# PCOD9304919 Si02
#       8
#     8   8   4   4   8   4   8   8
#     4  12  27  44  76 106 143 191 247 301 370 446
#     4  11  25  45  70 103 146 194 240 306 375 437
#     4  11  23  50  67 109 148 190 252 307 363 446
#     4  12  26  48  68 102 152 180 236 304 370 434
#     4  12  24  50  72 106 148 189 246 317 355 440
#     4  11  27  42  73 105 142 188 252 299 367 454
#     4  12  25  49  74 105 146 196 241 305 376 437
#     4  12  26  44  79 105 148 200 247 305 378 439
#
# _framework density 22.070768000000001
#
# number of rings (size 3 to 8) (size 9 to 14) (size 15 to 20)
#    0.000    0.308    4.615    3.231    6.462    1.231 
#    0.000    0.000    0.000    0.000    0.000    0.000 
#    0.000    0.000    0.000    0.000    0.000    0.000 
#
# Total GULP energy -145304.108180 kJ/mol
# GULP energy per Si atom -5588.619545 kJ/mol
# Density = 2.202053 g / cm^3
# Si number density = 22.070768 Si / 1000 Ang^3
#
#
#
# Elastic Constant Matrix: (Units=GPa)
#
#
# Indices 1 2 3 4 5 6 
#
# 1 82.1175 38.3373 31.1121 0.0001 5.5188 0.0000
# 2 38.3373 83.4881 -0.5094 0.0001 2.4394 0.0000
# 3 31.1121 -0.5094 83.7583 0.0002 3.0036 -0.0003
# 4 0.0001 0.0001 0.0002 21.7040 0.0001 -12.3493
# 5 5.5188 2.4394 3.0036 0.0001 43.2551 0.0000
# 6 0.0000 0.0000 -0.0003 -12.3493 0.0000 37.1837
#
#
#
# Elastic Compliance Matrix: (Units=1/GPa)
#
#
# Indices 1 2 3 4 5 6 
#
# 1 0.019035 -0.008742 -0.007072 0.000000 -0.001445 0.000000
# 2 -0.008742 0.016013 0.003345 0.000000 -0.000020 0.000000
# 3 -0.007072 0.003345 0.014597 0.000000 -0.000300 0.000000
# 4 0.000000 0.000000 0.000000 0.056810 0.000000 0.018867
# 5 -0.001445 -0.000020 -0.000300 0.000000 0.023325 0.000000
# 6 0.000000 0.000000 0.000000 0.018867 0.000000 0.033160
#
#
# Mechanical properties :
#
#
# Convention : Reuss Voigt Hill
#
# Bulk Modulus (GPa) = 40.47249 43.02712 41.74981
# Shear Modulus (GPa) = 25.49547 32.45682 28.97615
#
# Velocity S-wave (km/s) = 3.40247 3.83897 3.62729
# Velocity P-wave (km/s) = 5.81490 6.26001 6.04156
#
# Compressibility (1/GPa) = 0.02470814
#
# Stress axis : x y z
#
# Youngs Moduli (GPa) = 52.53360 62.44933 68.50653
#
# Poissons Ratio (x) = 0.54593 0.48448
# Poissons Ratio (y) = 0.45924 -0.22917
# Poissons Ratio (z) = 0.37152 -0.20891
#
# Static dielectric constant tensor:
#      x y z
#    x 2.013380 0.000000 0.100710 
#    y 0.000000 1.820060 0.000000 
#    z 0.100710 0.000000 1.773320 
# 
# From -- ./inp_files/293503.got.cif
#   From: 2010.05.17/outbox.cif.g08.bks.cpg/sg15_147_cif.got.tgz:293503.got - 2010.06.03 18:47:42.
