data_PCOD9304122
_publ_section_title
;
Structure prediction by ZEFSAII (Michael W. Deem and Ramdas Pophale) SiO2 
 PCOD9304122
Probable space group: C 2/C
;
_chemical_formula_sum "Si O2"
_cell_formula_units_Z 36
_cell_length_a 17.696515
_cell_length_b 6.759972
_cell_length_c 16.068132
_cell_angle_alpha 90.000000
_cell_angle_beta 126.188975
_cell_angle_gamma 90.000000
_cell_volume 1551.355617
_symmetry_space_group_name_H-M "C 2/C"
_symmetry_group_IT_number 15
_symmetry_cell_setting 'monoclinic'
loop_
_space_group_symop_operation_xyz
x,y,z
-x,y,1/2-z
-x,-y,-z
x,-y,1/2+z
1/2+x,1/2+y,z
1/2-x,1/2+y,1/2-z
1/2-x,1/2-y,-z
1/2+x,1/2-y,1/2+z
loop_
_atom_site_type_symbol
_atom_site_label
_atom_site_fract_x
_atom_site_fract_y
_atom_site_fract_z
Si Si1 0.074320 0.985018 0.973688
Si Si2 0.500000 0.365190 0.750000
Si Si3 0.856901 0.579055 0.755288
Si Si4 0.752122 0.251762 0.404305
Si Si5 0.814308 0.353488 0.878061
O O1 0.040204 0.991546 0.855162
O O2 0.127561 0.774555 0.018795
O O3 0.148157 0.151449 0.048555
O O4 0.000000 0.000000 0.000000
O O5 0.426962 0.220665 0.751372
O O6 0.827123 0.393551 0.679903
O O7 0.881798 0.467345 0.857232
O O8 0.761153 0.703532 0.712073
O O9 0.750000 0.250000 0.500000
O O10 0.750707 0.476683 0.375739
#
# Coordination Sequence:
#
# PCOD9304122 Si02
#       5
#     8   4   8   8   8
#     4  11  27  45  68 102 145 184 229 292 351 412
#     4  12  26  44  68 106 144 180 242 294 340 418
#     4  11  24  42  71 100 137 184 229 289 348 413
#     4  11  23  42  68  97 133 180 230 283 347 411
#     4  11  23  45  70  99 134 185 234 277 352 424
#
# _framework density 23.205511000000001
#
# number of rings (size 3 to 8) (size 9 to 14) (size 15 to 20)
#    0.000    0.889    2.222    4.000    3.111   10.667 
#    0.000    2.222    0.000    0.000    0.000    0.000 
#    0.000    0.000    0.000    0.000    0.000    0.000 
#
# Total GULP energy -100514.573840 kJ/mol
# GULP energy per Si atom -5584.142991 kJ/mol
# Density = 2.315269 g / cm^3
# Si number density = 23.205511 Si / 1000 Ang^3
#
#
#
# Elastic Constant Matrix: (Units=GPa)
#
#
# Indices 1 2 3 4 5 6 
#
# 1 60.3408 -19.3561 -24.3502 0.0000 -3.6730 0.0000
# 2 -19.3561 98.8233 19.6309 0.0000 3.9240 0.0000
# 3 -24.3502 19.6309 99.7529 0.0000 -9.3633 0.0000
# 4 0.0000 0.0000 0.0000 30.4857 0.0000 -11.8861
# 5 -3.6730 3.9240 -9.3633 0.0000 28.8295 0.0000
# 6 0.0000 0.0000 0.0000 -11.8861 0.0000 21.1216
#
#
#
# Elastic Compliance Matrix: (Units=1/GPa)
#
#
# Indices 1 2 3 4 5 6 
#
# 1 0.019520 0.002776 0.004555 0.000000 0.003589 0.000000
# 2 0.002776 0.011059 -0.001657 0.000000 -0.001690 0.000000
# 3 0.004555 -0.001657 0.011901 0.000000 0.004671 0.000000
# 4 0.000000 0.000000 0.000000 0.042022 0.000000 0.023648
# 5 0.003589 -0.001690 0.004671 0.000000 0.036891 0.000000
# 6 0.000000 0.000000 0.000000 0.023648 0.000000 0.060653
#
#
# Mechanical properties :
#
#
# Convention : Reuss Voigt Hill
#
# Bulk Modulus (GPa) = 18.57771 23.41848 20.99809
# Shear Modulus (GPa) = 26.50530 34.95351 30.72940
#
# Velocity S-wave (km/s) = 3.38331 3.88527 3.64294
# Velocity P-wave (km/s) = 4.82550 5.49916 5.17331
#
# Compressibility (1/GPa) = 0.05382796
#
# Stress axis : x y z
#
# Youngs Moduli (GPa) = 51.23020 90.42328 84.02358
#
# Poissons Ratio (x) = -0.25100 -0.38276
# Poissons Ratio (y) = -0.14221 0.13926
# Poissons Ratio (z) = -0.23338 0.14987
#
# Static dielectric constant tensor:
#      x y z
#    x 1.855330 0.000000 -0.020580 
#    y 0.000000 8.033070 0.000000 
#    z -0.020580 0.000000 1.889040 
# 
# From -- ./inp_files/208166.got.cif
#   From: 2010.05.17/outbox.cif.g08.bks.cpg/sg15_105_cif.got.tgz:208166.got - 2010.06.03 18:47:42.
