data_PCOD9304279
_publ_section_title
;
Structure prediction by ZEFSAII (Michael W. Deem and Ramdas Pophale) SiO2 
 PCOD9304279
Probable space group: C 2/C
;
_chemical_formula_sum "Si O2"
_cell_formula_units_Z 40
_cell_length_a 24.733232
_cell_length_b 13.830966
_cell_length_c 9.548320
_cell_angle_alpha 90.000000
_cell_angle_beta 33.409081
_cell_angle_gamma 90.000000
_cell_volume 1798.485130
_symmetry_space_group_name_H-M "C 2/C"
_symmetry_group_IT_number 15
_symmetry_cell_setting 'monoclinic'
loop_
_space_group_symop_operation_xyz
x,y,z
-x,y,1/2-z
-x,-y,-z
x,-y,1/2+z
1/2+x,1/2+y,z
1/2-x,1/2+y,1/2-z
1/2-x,1/2-y,-z
1/2+x,1/2-y,1/2+z
loop_
_atom_site_type_symbol
_atom_site_label
_atom_site_fract_x
_atom_site_fract_y
_atom_site_fract_z
Si Si1 0.663427 0.288233 0.587350
Si Si2 0.912307 0.518755 0.334489
Si Si3 0.264575 0.310441 0.606416
Si Si4 0.470225 0.219257 0.155875
Si Si5 0.777760 0.532463 0.872860
O O1 0.750000 0.250000 0.500000
O O2 0.693994 0.239276 0.374335
O O3 0.680261 0.403186 0.571342
O O4 0.556405 0.259008 0.872197
O O5 0.947982 0.607831 0.159308
O O6 0.841298 0.567353 0.603198
O O7 0.841281 0.459279 0.380175
O O8 0.000000 0.479756 0.250000
O O9 0.250000 0.250000 0.500000
O O10 0.380216 0.292458 0.374813
O O11 0.241533 0.421157 0.622901
O O12 0.500000 0.202928 0.250000
#
# Coordination Sequence:
#
# PCOD9304279 Si02
#       5
#     8   8   8   8   8
#     4  12  24  45  75 101 141 192 238 298 369 421
#     4  11  23  43  68 106 143 183 242 298 351 429
#     4  12  25  47  69 105 149 184 240 307 353 434
#     4  11  23  45  71 100 144 189 235 293 361 425
#     4  12  24  43  74 104 142 192 240 298 365 426
#
# _framework density 22.240939000000001
#
# number of rings (size 3 to 8) (size 9 to 14) (size 15 to 20)
#    0.000    0.400    6.000    3.000    0.000    3.200 
#    0.000    0.000    0.000    0.000    0.000    0.000 
#    0.000    0.000    0.000    0.000    0.000    0.000 
#
# Total GULP energy -111511.977578 kJ/mol
# GULP energy per Si atom -5575.598879 kJ/mol
# Density = 2.219032 g / cm^3
# Si number density = 22.240939 Si / 1000 Ang^3
#
#
#
# Elastic Constant Matrix: (Units=GPa)
#
#
# Indices 1 2 3 4 5 6 
#
# 1 58.7602 50.4633 36.1100 0.0000 12.9354 0.0000
# 2 50.4633 143.9321 41.8024 0.0000 -4.4432 0.0000
# 3 36.1100 41.8024 160.6382 0.0000 5.7979 0.0000
# 4 0.0000 0.0000 0.0000 33.6864 0.0000 -10.3439
# 5 12.9354 -4.4432 5.7979 0.0000 42.6486 0.0000
# 6 0.0000 0.0000 0.0000 -10.3439 0.0000 38.7810
#
#
#
# Elastic Compliance Matrix: (Units=1/GPa)
#
#
# Indices 1 2 3 4 5 6 
#
# 1 0.029703 -0.009592 -0.003838 0.000000 -0.009487 0.000000
# 2 -0.009592 0.010661 -0.000767 0.000000 0.004124 0.000000
# 3 -0.003838 -0.000767 0.007284 0.000000 0.000094 0.000000
# 4 0.000000 0.000000 0.000000 0.032334 0.000000 0.008624
# 5 -0.009487 0.004124 0.000094 0.000000 0.026742 0.000000
# 6 0.000000 0.000000 0.000000 0.008624 0.000000 0.028086
#
#
# Mechanical properties :
#
#
# Convention : Reuss Voigt Hill
#
# Bulk Modulus (GPa) = 51.93916 68.89799 60.41857
# Shear Modulus (GPa) = 29.47723 38.68688 34.08205
#
# Velocity S-wave (km/s) = 3.64450 4.17519 3.91884
# Velocity P-wave (km/s) = 6.41198 7.36805 6.90658
#
# Compressibility (1/GPa) = 0.01925330
#
# Stress axis : x y z
#
# Youngs Moduli (GPa) = 33.66632 93.80159 137.28368
#
# Poissons Ratio (x) = 0.89976 0.52696
# Poissons Ratio (y) = 0.32293 0.10528
# Poissons Ratio (z) = 0.12923 0.07193
#
# Static dielectric constant tensor:
#      x y z
#    x 1.747620 0.000000 0.055240 
#    y 0.000000 1.855060 0.000000 
#    z 0.055240 0.000000 1.807130 
# 
# From -- ./inp_files/61380.got.cif
#   From: 2010.05.17/outbox.cif.g08.bks.cpg/sg15_31_cif.got.tgz:61380.got - 2010.06.03 18:47:42.
