data_PCOD9304395
_publ_section_title
;
Structure prediction by ZEFSAII (Michael W. Deem and Ramdas Pophale) SiO2 
 PCOD9304395
Probable space group: C 2/C
;
_chemical_formula_sum "Si O2"
_cell_formula_units_Z 48
_cell_length_a 11.353950
_cell_length_b 10.354598
_cell_length_c 17.383230
_cell_angle_alpha 90.000000
_cell_angle_beta 101.971872
_cell_angle_gamma 90.000000
_cell_volume 1999.218925
_symmetry_space_group_name_H-M "C 2/C"
_symmetry_group_IT_number 15
_symmetry_cell_setting 'monoclinic'
loop_
_space_group_symop_operation_xyz
x,y,z
-x,y,1/2-z
-x,-y,-z
x,-y,1/2+z
1/2+x,1/2+y,z
1/2-x,1/2+y,1/2-z
1/2-x,1/2-y,-z
1/2+x,1/2-y,1/2+z
loop_
_atom_site_type_symbol
_atom_site_label
_atom_site_fract_x
_atom_site_fract_y
_atom_site_fract_z
Si Si1 0.177820 0.243461 0.410825
Si Si2 0.100496 0.697165 0.419677
Si Si3 0.466265 0.483179 0.084904
Si Si4 0.798697 0.896107 0.844596
Si Si5 0.434255 0.859232 0.405258
Si Si6 0.145187 0.378318 0.673798
O O1 0.250000 0.250000 0.500000
O O2 0.274218 0.230819 0.356559
O O3 0.073448 0.351484 0.395887
O O4 0.108844 0.106827 0.399922
O O5 0.218554 0.619460 0.410702
O O6 0.065126 0.665349 0.502791
O O7 0.107526 0.852186 0.414601
O O8 0.992357 0.666138 0.346801
O O9 0.597177 0.496682 0.142326
O O10 0.500000 0.500000 0.000000
O O11 0.867697 0.758595 0.853757
O O12 0.707862 0.908922 0.762229
O O13 0.366422 0.990613 0.377343
#
# Coordination Sequence:
#
# PCOD9304395 Si02
#       6
#     8   8   8   8   8   8
#     4  11  23  45  73 100 140 185 239 291 350 427
#     4  12  24  46  73 104 139 186 243 283 361 427
#     4  11  23  43  74 105 135 186 237 291 353 426
#     4  11  27  46  68 106 145 182 237 299 358 423
#     4  11  25  46  72 104 135 190 241 285 354 432
#     4  12  27  45  69 105 145 187 228 300 364 411
#
# _framework density 24.009378000000002
#
# number of rings (size 3 to 8) (size 9 to 14) (size 15 to 20)
#    0.000    0.667    5.000    2.500    4.667    4.000 
#    6.000    0.000    0.000    0.000    0.000    0.000 
#    0.000    0.000    0.000    0.000    0.000    0.000 
#
# Total GULP energy -134361.132420 kJ/mol
# GULP energy per Si atom -5598.380517 kJ/mol
# Density = 2.395473 g / cm^3
# Si number density = 24.009378 Si / 1000 Ang^3
#
#
#
# Elastic Constant Matrix: (Units=GPa)
#
#
# Indices 1 2 3 4 5 6 
#
# 1 120.6182 26.5504 18.0104 0.0000 16.4748 0.0000
# 2 26.5504 77.7635 24.4037 0.0000 5.1587 0.0000
# 3 18.0104 24.4037 104.5473 0.0000 37.7421 0.0000
# 4 0.0000 0.0000 0.0000 25.9248 0.0000 11.1324
# 5 16.4748 5.1587 37.7421 0.0000 36.6815 0.0000
# 6 0.0000 0.0000 0.0000 11.1324 0.0000 18.7113
#
#
#
# Elastic Compliance Matrix: (Units=1/GPa)
#
#
# Indices 1 2 3 4 5 6 
#
# 1 0.009506 -0.003182 0.000771 0.000000 -0.004616 0.000000
# 2 -0.003182 0.015053 -0.004323 0.000000 0.003760 0.000000
# 3 0.000771 -0.004323 0.016461 0.000000 -0.016676 0.000000
# 4 0.000000 0.000000 0.000000 0.051809 0.000000 -0.030824
# 5 -0.004616 0.003760 -0.016676 0.000000 0.045964 0.000000
# 6 0.000000 0.000000 0.000000 -0.030824 0.000000 0.071783
#
#
# Mechanical properties :
#
#
# Convention : Reuss Voigt Hill
#
# Bulk Modulus (GPa) = 36.29231 48.98422 42.63827
# Shear Modulus (GPa) = 21.43832 31.86116 26.64974
#
# Velocity S-wave (km/s) = 2.99141 3.64679 3.33524
# Velocity P-wave (km/s) = 5.20385 6.17888 5.71221
#
# Compressibility (1/GPa) = 0.02755405
#
# Stress axis : x y z
#
# Youngs Moduli (GPa) = 105.19446 66.43218 60.74867
#
# Poissons Ratio (x) = 0.21135 -0.04685
# Poissons Ratio (y) = 0.33468 0.26261
# Poissons Ratio (z) = -0.08113 0.28718
#
# Static dielectric constant tensor:
#      x y z
#    x 1.935660 0.000000 0.008720 
#    y 0.000000 1.856330 0.000000 
#    z 0.008720 0.000000 1.865310 
# 
# From -- ./inp_files/196569.got.cif
#   From: 2010.05.17/outbox.cif.g08.bks.cpg/sg15_99_cif.got.tgz:196569.got - 2010.06.03 18:47:42.
