data_PCOD9304520
_publ_section_title
;
Structure prediction by ZEFSAII (Michael W. Deem and Ramdas Pophale) SiO2 
 PCOD9304520
Probable space group: C 2/C
;
_chemical_formula_sum "Si O2"
_cell_formula_units_Z 40
_cell_length_a 16.666010
_cell_length_b 22.278895
_cell_length_c 9.136110
_cell_angle_alpha 90.000000
_cell_angle_beta 147.591987
_cell_angle_gamma 90.000000
_cell_volume 1818.053773
_symmetry_space_group_name_H-M "C 2/C"
_symmetry_group_IT_number 15
_symmetry_cell_setting 'monoclinic'
loop_
_space_group_symop_operation_xyz
x,y,z
-x,y,1/2-z
-x,-y,-z
x,-y,1/2+z
1/2+x,1/2+y,z
1/2-x,1/2+y,1/2-z
1/2-x,1/2-y,-z
1/2+x,1/2-y,1/2+z
loop_
_atom_site_type_symbol
_atom_site_label
_atom_site_fract_x
_atom_site_fract_y
_atom_site_fract_z
Si Si1 0.607623 0.977188 0.293941
Si Si2 0.349978 0.391200 0.532771
Si Si3 0.894627 0.222719 0.298647
Si Si4 0.671780 0.109317 0.470502
Si Si5 0.205664 0.291549 0.796376
O O1 0.500000 0.949695 0.250000
O O2 0.721392 0.929017 0.410645
O O3 0.684162 0.037409 0.475063
O O4 0.500000 0.000000 0.000000
O O5 0.500000 0.430641 0.750000
O O6 0.407370 0.339537 0.730896
O O7 0.277994 0.370174 0.267599
O O8 0.834324 0.213098 0.371297
O O9 0.040040 0.265311 0.501573
O O10 0.750000 0.250000 0.000000
O O11 0.500000 0.122593 0.250000
O O12 0.699326 0.142501 0.359481
O O13 0.250000 0.250000 0.000000
#
# Coordination Sequence:
#
# PCOD9304520 Si02
#       5
#     8   8   8   8   8
#     4  11  24  46  74 102 132 185 241 276 343 425
#     4  12  26  45  69 105 147 176 229 300 350 403
#     4  12  26  42  67 101 136 182 231 283 345 406
#     4  11  23  44  71  98 136 186 232 283 339 422
#     4  12  25  44  69  97 138 183 229 280 344 413
#
# _framework density 22.001548
#
# number of rings (size 3 to 8) (size 9 to 14) (size 15 to 20)
#    0.000    0.400    4.000    7.200    2.800    0.800 
#    0.000    2.000    0.000    0.000    0.000    0.000 
#    0.000    0.000    0.000    0.000    0.000    0.000 
#
# Total GULP energy -111794.988199 kJ/mol
# GULP energy per Si atom -5589.749410 kJ/mol
# Density = 2.195147 g / cm^3
# Si number density = 22.001548 Si / 1000 Ang^3
#
#
#
# Elastic Constant Matrix: (Units=GPa)
#
#
# Indices 1 2 3 4 5 6 
#
# 1 139.4255 27.8533 43.6669 0.0000 -4.9148 0.0000
# 2 27.8533 59.6323 22.8701 0.0000 5.9168 0.0000
# 3 43.6669 22.8701 140.4527 0.0000 12.4165 0.0000
# 4 0.0000 0.0000 0.0000 26.9251 0.0000 -8.0661
# 5 -4.9148 5.9168 12.4165 0.0000 38.4966 0.0000
# 6 0.0000 0.0000 0.0000 -8.0661 0.0000 27.1741
#
#
#
# Elastic Compliance Matrix: (Units=1/GPa)
#
#
# Indices 1 2 3 4 5 6 
#
# 1 0.008670 -0.003383 -0.002356 0.000000 0.002387 0.000000
# 2 -0.003383 0.019337 -0.001849 0.000000 -0.002808 0.000000
# 3 -0.002356 -0.001849 0.008394 0.000000 -0.002724 0.000000
# 4 0.000000 0.000000 0.000000 0.040765 0.000000 0.012100
# 5 0.002387 -0.002808 -0.002724 0.000000 0.027591 0.000000
# 6 0.000000 0.000000 0.000000 0.012100 0.000000 0.040391
#
#
# Mechanical properties :
#
#
# Convention : Reuss Voigt Hill
#
# Bulk Modulus (GPa) = 47.11084 58.69900 52.90492
# Shear Modulus (GPa) = 29.86878 34.86053 32.36465
#
# Velocity S-wave (km/s) = 3.68853 3.98484 3.83954
# Velocity P-wave (km/s) = 6.29280 6.92166 6.61471
#
# Compressibility (1/GPa) = 0.02122654
#
# Stress axis : x y z
#
# Youngs Moduli (GPa) = 115.34009 51.71388 119.13210
#
# Poissons Ratio (x) = 0.17495 0.28063
# Poissons Ratio (y) = 0.39019 0.22024
# Poissons Ratio (z) = 0.27170 0.09560
#
# Static dielectric constant tensor:
#      x y z
#    x 1.906470 0.000000 -0.014950 
#    y 0.000000 2.328270 0.000000 
#    z -0.014950 0.000000 1.857570 
# 
# From -- ./inp_files/51698.got.cif
#   From: 2010.05.17/outbox.cif.g08.bks.cpg/sg15_26_cif.got.tgz:51698.got - 2010.06.03 18:47:42.
