data_PCOD9304708
_publ_section_title
;
Structure prediction by ZEFSAII (Michael W. Deem and Ramdas Pophale) SiO2 
 PCOD9304708
Probable space group: C 2/C
;
_chemical_formula_sum "Si O2"
_cell_formula_units_Z 48
_cell_length_a 11.652110
_cell_length_b 9.836625
_cell_length_c 18.542661
_cell_angle_alpha 90.000000
_cell_angle_beta 125.418763
_cell_angle_gamma 90.000000
_cell_volume 1731.997840
_symmetry_space_group_name_H-M "C 2/C"
_symmetry_group_IT_number 15
_symmetry_cell_setting 'monoclinic'
loop_
_space_group_symop_operation_xyz
x,y,z
-x,y,1/2-z
-x,-y,-z
x,-y,1/2+z
1/2+x,1/2+y,z
1/2-x,1/2+y,1/2-z
1/2-x,1/2-y,-z
1/2+x,1/2-y,1/2+z
loop_
_atom_site_type_symbol
_atom_site_label
_atom_site_fract_x
_atom_site_fract_y
_atom_site_fract_z
Si Si1 0.394765 0.457960 0.548569
Si Si2 0.088520 0.699375 0.619081
Si Si3 0.843678 0.910051 0.682374
Si Si4 0.860197 0.400544 0.145616
Si Si5 0.151162 0.365094 0.739297
Si Si6 0.582590 0.240506 0.454021
O O1 0.513531 0.346612 0.603420
O O2 0.305486 0.463361 0.590154
O O3 0.281781 0.410680 0.450398
O O4 0.459246 0.601796 0.552652
O O5 0.990955 0.608935 0.636777
O O6 0.250851 0.738998 0.696627
O O7 0.063973 0.669912 0.525221
O O8 0.852603 0.745325 0.682206
O O9 0.737360 0.939450 0.706733
O O10 0.000000 0.965789 0.750000
O O11 0.860044 0.527602 0.199631
O O12 0.989093 0.312635 0.853194
O O13 0.750000 0.250000 0.500000
#
# Coordination Sequence:
#
# PCOD9304708 Si02
#       6
#     8   8   8   8   8   8
#     4  11  23  50  83 118 167 225 286 358 438 528
#     4  11  24  53  87 125 171 230 296 361 446 532
#     4  11  23  45  78 130 166 226 290 353 445 528
#     4  11  24  47  87 123 171 230 295 357 449 538
#     4  12  26  49  83 129 174 229 297 366 439 532
#     4  12  29  53  78 125 177 226 296 371 448 523
#
# _framework density 27.713661999999999
#
# number of rings (size 3 to 8) (size 9 to 14) (size 15 to 20)
#    0.000    0.667    5.000    4.500    2.333    2.000 
#   12.000    1.667    0.000    0.000    0.000    0.000 
#    0.000    0.000    0.000    0.000    0.000    0.000 
#
# Total GULP energy -134670.797890 kJ/mol
# GULP energy per Si atom -5611.283245 kJ/mol
# Density = 2.765058 g / cm^3
# Si number density = 27.713662 Si / 1000 Ang^3
#
#
#
# Elastic Constant Matrix: (Units=GPa)
#
#
# Indices 1 2 3 4 5 6 
#
# 1 190.5624 56.9275 83.7612 0.0000 -0.4576 0.0000
# 2 56.9275 114.0951 23.2318 0.0000 2.3804 0.0000
# 3 83.7612 23.2318 165.7687 0.0000 14.9391 0.0000
# 4 0.0000 0.0000 0.0000 47.0754 0.0000 -9.2815
# 5 -0.4576 2.3804 14.9391 0.0000 58.3357 0.0000
# 6 0.0000 0.0000 0.0000 -9.2815 0.0000 44.0975
#
#
#
# Elastic Compliance Matrix: (Units=1/GPa)
#
#
# Indices 1 2 3 4 5 6 
#
# 1 0.007773 -0.003172 -0.003583 0.000000 0.001108 0.000000
# 2 -0.003172 0.010316 0.000202 0.000000 -0.000497 0.000000
# 3 -0.003583 0.000202 0.008003 0.000000 -0.002086 0.000000
# 4 0.000000 0.000000 0.000000 0.022162 0.000000 0.004665
# 5 0.001108 -0.000497 -0.002086 0.000000 0.017705 0.000000
# 6 0.000000 0.000000 0.000000 0.004665 0.000000 0.023659
#
#
# Mechanical properties :
#
#
# Convention : Reuss Voigt Hill
#
# Bulk Modulus (GPa) = 77.00622 88.69636 82.85129
# Shear Modulus (GPa) = 46.70624 50.33544 48.52084
#
# Velocity S-wave (km/s) = 4.10971 4.26639 4.18879
# Velocity P-wave (km/s) = 7.09692 7.50623 7.30445
#
# Compressibility (1/GPa) = 0.01298596
#
# Stress axis : x y z
#
# Youngs Moduli (GPa) = 128.65760 96.93252 124.96057
#
# Poissons Ratio (x) = 0.30744 0.44770
# Poissons Ratio (y) = 0.40807 -0.02520
# Poissons Ratio (z) = 0.46095 -0.01955
#
# Static dielectric constant tensor:
#      x y z
#    x 2.205820 0.000000 -0.026350 
#    y 0.000000 2.209530 0.000000 
#    z -0.026350 0.000000 2.180660 
# 
# From -- ./inp_files/196245.got.cif
#   From: 2010.05.17/outbox.cif.g08.bks.cpg/sg15_99_cif.got.tgz:196245.got - 2010.06.03 18:47:42.
