data_PCOD9304228
_publ_section_title
;
Structure prediction by ZEFSAII (Michael W. Deem and Ramdas Pophale) SiO2 
 PCOD9304228
Probable space group: C 2/C
;
_chemical_formula_sum "Si O2"
_cell_formula_units_Z 56
_cell_length_a 14.926515
_cell_length_b 11.652317
_cell_length_c 14.462023
_cell_angle_alpha 90.000000
_cell_angle_beta 88.420679
_cell_angle_gamma 90.000000
_cell_volume 2514.402227
_symmetry_space_group_name_H-M "C 2/C"
_symmetry_group_IT_number 15
_symmetry_cell_setting 'monoclinic'
loop_
_space_group_symop_operation_xyz
x,y,z
-x,y,1/2-z
-x,-y,-z
x,-y,1/2+z
1/2+x,1/2+y,z
1/2-x,1/2+y,1/2-z
1/2-x,1/2-y,-z
1/2+x,1/2-y,1/2+z
loop_
_atom_site_type_symbol
_atom_site_label
_atom_site_fract_x
_atom_site_fract_y
_atom_site_fract_z
Si Si1 0.450108 0.021420 0.850223
Si Si2 0.238883 0.976529 0.121690
Si Si3 0.183761 0.285273 0.918477
Si Si4 0.806640 0.325859 0.268702
Si Si5 0.091385 0.072689 0.477722
Si Si6 0.013456 0.682958 0.013941
Si Si7 0.397039 0.589176 0.234059
O O1 0.500000 0.009229 0.750000
O O2 0.353322 0.072394 0.825281
O O3 0.449987 0.904009 0.908911
O O4 0.496104 0.112472 0.919508
O O5 0.285161 0.867167 0.165933
O O6 0.307951 0.078456 0.099806
O O7 0.170860 0.018093 0.202651
O O8 0.175361 0.963032 0.036438
O O9 0.220659 0.221010 0.826815
O O10 0.082228 0.266199 0.950020
O O11 0.250000 0.250000 0.000000
O O12 0.876576 0.221145 0.260477
O O13 0.118048 0.061444 0.371274
O O14 0.073357 0.206486 0.496914
O O15 0.000000 0.000000 0.500000
O O16 0.500000 0.562775 0.250000
#
# Coordination Sequence:
#
# PCOD9304228 Si02
#       7
#     8   8   8   8   8   8   8
#     4  11  23  44  70  98 134 173 227 275 329 397
#     4  11  27  42  66 103 130 178 219 277 341 385
#     4  11  23  43  65  96 135 176 221 267 343 401
#     4  11  24  43  68  95 138 174 219 278 333 400
#     4  12  25  44  70 100 137 175 227 275 325 403
#     4  11  25  42  72 101 128 179 226 274 330 392
#     4  11  24  45  68  95 134 181 222 266 338 403
#
# _framework density 22.271695000000001
#
# number of rings (size 3 to 8) (size 9 to 14) (size 15 to 20)
#    0.000    0.857    2.857    3.857    4.000    5.143 
#    0.000    0.000    0.000    0.000    0.000    0.000 
#    0.000    0.000    0.000    0.000    0.000    0.000 
#
# Total GULP energy -156825.736000 kJ/mol
# GULP energy per Si atom -5600.919143 kJ/mol
# Density = 2.222100 g / cm^3
# Si number density = 22.271695 Si / 1000 Ang^3
#
#
#
# Elastic Constant Matrix: (Units=GPa)
#
#
# Indices 1 2 3 4 5 6 
#
# 1 47.0899 -4.9914 12.3100 0.0000 3.5977 0.0000
# 2 -4.9914 61.2893 17.5287 0.0000 6.8309 0.0000
# 3 12.3100 17.5287 140.7731 0.0000 4.1997 0.0000
# 4 0.0000 0.0000 0.0000 35.9960 0.0000 9.1985
# 5 3.5977 6.8309 4.1997 0.0000 29.6854 0.0000
# 6 0.0000 0.0000 0.0000 9.1985 0.0000 5.9346
#
#
#
# Elastic Compliance Matrix: (Units=1/GPa)
#
#
# Indices 1 2 3 4 5 6 
#
# 1 0.022342 0.002790 -0.002210 0.000000 -0.003037 0.000000
# 2 0.002790 0.017661 -0.002322 0.000000 -0.004074 0.000000
# 3 -0.002210 -0.002322 0.007594 0.000000 -0.000272 0.000000
# 4 0.000000 0.000000 0.000000 0.046001 0.000000 -0.071301
# 5 -0.003037 -0.004074 -0.000272 0.000000 0.035031 0.000000
# 6 0.000000 0.000000 0.000000 -0.071301 0.000000 0.279016
#
#
# Mechanical properties :
#
#
# Convention : Reuss Voigt Hill
#
# Bulk Modulus (GPa) = 22.66892 33.20520 27.93706
# Shear Modulus (GPa) = 11.74168 29.27688 20.50928
#
# Velocity S-wave (km/s) = 2.29858 3.62958 3.03787
# Velocity P-wave (km/s) = 4.15272 5.70146 4.98757
#
# Compressibility (1/GPa) = 0.04411326
#
# Stress axis : x y z
#
# Youngs Moduli (GPa) = 44.75949 56.62095 131.68071
#
# Poissons Ratio (x) = -0.15798 0.29108
# Poissons Ratio (y) = -0.12489 0.30571
# Poissons Ratio (z) = 0.09894 0.13145
#
# Static dielectric constant tensor:
#      x y z
#    x 1.771280 0.000000 -0.001250 
#    y 0.000000 1.806710 0.000000 
#    z -0.001250 0.000000 1.794600 
# 
# From -- ./inp_files/152625.got.cif
#   From: 2010.05.17/outbox.cif.g08.bks.cpg/sg15_77_cif.got.tgz:152625.got - 2010.06.03 18:47:42.
