data_PCOD9304646
_publ_section_title
;
Structure prediction by ZEFSAII (Michael W. Deem and Ramdas Pophale) SiO2 
 PCOD9304646
Probable space group: C 2/C
;
_chemical_formula_sum "Si O2"
_cell_formula_units_Z 40
_cell_length_a 11.377428
_cell_length_b 7.863724
_cell_length_c 20.029063
_cell_angle_alpha 90.000000
_cell_angle_beta 78.247676
_cell_angle_gamma 90.000000
_cell_volume 1754.414426
_symmetry_space_group_name_H-M "C 2/C"
_symmetry_group_IT_number 15
_symmetry_cell_setting 'monoclinic'
loop_
_space_group_symop_operation_xyz
x,y,z
-x,y,1/2-z
-x,-y,-z
x,-y,1/2+z
1/2+x,1/2+y,z
1/2-x,1/2+y,1/2-z
1/2-x,1/2-y,-z
1/2+x,1/2-y,1/2+z
loop_
_atom_site_type_symbol
_atom_site_label
_atom_site_fract_x
_atom_site_fract_y
_atom_site_fract_z
Si Si1 0.880319 0.746334 0.721129
Si Si2 0.672158 0.112854 0.338258
Si Si3 0.384572 0.460654 0.966531
Si Si4 0.014501 0.076334 0.827728
Si Si5 0.131210 0.419248 0.996547
O O1 0.781443 0.801867 0.786288
O O2 0.844031 0.578804 0.685238
O O3 0.000000 0.708120 0.750000
O O4 0.900697 0.910475 0.671026
O O5 0.561889 0.236150 0.334315
O O6 0.677037 0.121514 0.416840
O O7 0.407880 0.545842 0.892001
O O8 0.252116 0.511000 0.010491
O O9 0.500000 0.500000 0.000000
O O10 0.385998 0.255571 0.961928
O O11 0.000000 0.065053 0.750000
O O12 0.000000 0.500000 0.000000
#
# Coordination Sequence:
#
# PCOD9304646 Si02
#       5
#     8   8   8   8   8
#     4  11  24  42  67 101 141 184 233 296 360 427
#     4  12  23  44  70 104 141 185 242 295 361 430
#     4  11  24  47  70 100 145 192 232 295 362 422
#     4  11  23  45  72 101 145 188 236 299 363 428
#     4  11  25  45  72 104 141 187 245 294 353 435
#
# _framework density 22.799631000000002
#
# number of rings (size 3 to 8) (size 9 to 14) (size 15 to 20)
#    0.000    0.800    4.000    4.200    0.000    2.400 
#    0.000    0.000    0.000    0.000    0.000    0.000 
#    0.000    0.000    0.000    0.000    0.000    0.000 
#
# Total GULP energy -111647.592212 kJ/mol
# GULP energy per Si atom -5582.379611 kJ/mol
# Density = 2.274774 g / cm^3
# Si number density = 22.799631 Si / 1000 Ang^3
#
#
#
# Elastic Constant Matrix: (Units=GPa)
#
#
# Indices 1 2 3 4 5 6 
#
# 1 123.2419 11.5945 0.7883 0.0000 -11.1571 0.0000
# 2 11.5945 97.6744 3.7398 0.0000 2.9998 0.0000
# 3 0.7883 3.7398 51.8955 0.0000 1.1396 0.0000
# 4 0.0000 0.0000 0.0000 19.1216 0.0000 -13.3413
# 5 -11.1571 2.9998 1.1396 0.0000 40.8573 0.0000
# 6 0.0000 0.0000 0.0000 -13.3413 0.0000 23.3587
#
#
#
# Elastic Compliance Matrix: (Units=1/GPa)
#
#
# Indices 1 2 3 4 5 6 
#
# 1 0.008431 -0.001070 -0.000103 0.000000 0.002384 0.000000
# 2 -0.001070 0.010424 -0.000712 0.000000 -0.001038 0.000000
# 3 -0.000103 -0.000712 0.019334 0.000000 -0.000515 0.000000
# 4 0.000000 0.000000 0.000000 0.086944 0.000000 0.049658
# 5 0.002384 -0.001038 -0.000515 0.000000 0.025217 0.000000
# 6 0.000000 0.000000 0.000000 0.049658 0.000000 0.071173
#
#
# Mechanical properties :
#
#
# Convention : Reuss Voigt Hill
#
# Bulk Modulus (GPa) = 29.05451 33.89523 31.47487
# Shear Modulus (GPa) = 21.11785 33.78013 27.44899
#
# Velocity S-wave (km/s) = 3.04671 3.85334 3.47352
# Velocity P-wave (km/s) = 5.01475 5.89037 5.47011
#
# Compressibility (1/GPa) = 0.03441807
#
# Stress axis : x y z
#
# Youngs Moduli (GPa) = 118.60619 95.93005 51.72317
#
# Poissons Ratio (x) = 0.10265 0.00534
# Poissons Ratio (y) = 0.12692 0.03684
# Poissons Ratio (z) = 0.01225 0.06832
#
# Static dielectric constant tensor:
#      x y z
#    x 2.042960 0.000000 0.033270 
#    y 0.000000 1.847930 0.000000 
#    z 0.033270 0.000000 1.810830 
# 
# From -- ./inp_files/235736.got.cif
#   From: 2010.05.17/outbox.cif.g08.bks.cpg/sg15_118_cif.got.tgz:235736.got - 2010.06.03 18:47:42.
