data_PCOD9304516
_publ_section_title
;
Structure prediction by ZEFSAII (Michael W. Deem and Ramdas Pophale) SiO2 
 PCOD9304516
Probable space group: C 2/C
;
_chemical_formula_sum "Si O2"
_cell_formula_units_Z 56
_cell_length_a 17.643048
_cell_length_b 16.752162
_cell_length_c 16.184713
_cell_angle_alpha 90.000000
_cell_angle_beta 30.469930
_cell_angle_gamma 90.000000
_cell_volume 2425.667012
_symmetry_space_group_name_H-M "C 2/C"
_symmetry_group_IT_number 15
_symmetry_cell_setting 'monoclinic'
loop_
_space_group_symop_operation_xyz
x,y,z
-x,y,1/2-z
-x,-y,-z
x,-y,1/2+z
1/2+x,1/2+y,z
1/2-x,1/2+y,1/2-z
1/2-x,1/2-y,-z
1/2+x,1/2-y,1/2+z
loop_
_atom_site_type_symbol
_atom_site_label
_atom_site_fract_x
_atom_site_fract_y
_atom_site_fract_z
Si Si1 0.392844 0.835377 0.474669
Si Si2 0.213577 0.071116 0.511604
Si Si3 0.000000 0.529757 0.750000
Si Si4 0.631411 0.647077 0.436281
Si Si5 0.000000 0.952723 0.750000
Si Si6 0.888709 0.305068 0.933433
Si Si7 0.538788 0.088684 0.428272
Si Si8 0.462078 0.329033 0.655566
O O1 0.430111 0.909767 0.381762
O O2 0.484356 0.853844 0.472078
O O3 0.458380 0.750645 0.387639
O O4 0.214892 0.828022 0.656214
O O5 0.103416 0.086731 0.538187
O O6 0.245287 0.155457 0.524819
O O7 0.367983 0.027752 0.341676
O O8 0.137278 0.008753 0.642942
O O9 0.638619 0.732158 0.477674
O O10 0.789094 0.610598 0.256020
O O11 0.529147 0.656913 0.451647
O O12 0.962263 0.899114 0.863672
O O13 0.000000 0.290171 0.750000
O O14 0.945698 0.377583 0.938773
O O15 0.500000 0.000000 0.500000
#
# Coordination Sequence:
#
# PCOD9304516 Si02
#       8
#     8   8   4   8   4   8   8   8
#     4  11  24  44  74 101 141 185 240 300 361 441
#     4  12  25  45  70 105 144 189 240 295 366 427
#     4  12  23  46  75 106 132 202 244 294 359 442
#     4  11  25  45  72 106 147 187 240 300 362 436
#     4  12  29  46  67 104 146 184 238 306 363 430
#     4  12  24  44  76 109 145 195 247 296 363 447
#     4  11  23  44  71 109 144 184 247 299 357 435
#     4  11  26  48  69 105 141 188 241 301 369 434
#
# _framework density 23.086434000000001
#
# number of rings (size 3 to 8) (size 9 to 14) (size 15 to 20)
#    0.000    0.571    5.000    2.571    5.000    1.714 
#    0.000    0.000    0.000    0.000    0.000    0.000 
#    0.000    0.000    0.000    0.000    0.000    0.000 
#
# Total GULP energy -156238.339860 kJ/mol
# GULP energy per Si atom -5579.940709 kJ/mol
# Density = 2.303389 g / cm^3
# Si number density = 23.086434 Si / 1000 Ang^3
#
#
#
# Elastic Constant Matrix: (Units=GPa)
#
#
# Indices 1 2 3 4 5 6 
#
# 1 87.7139 21.0566 13.8623 0.0001 17.5505 0.0003
# 2 21.0566 144.8380 52.5463 0.0005 11.1402 0.0002
# 3 13.8623 52.5463 68.7098 0.0011 8.6674 0.0002
# 4 0.0001 0.0005 0.0011 30.9124 -0.0008 2.6634
# 5 17.5505 11.1402 8.6674 -0.0008 30.1772 0.0001
# 6 0.0003 0.0002 0.0002 2.6634 0.0001 34.7366
#
#
#
# Elastic Compliance Matrix: (Units=1/GPa)
#
#
# Indices 1 2 3 4 5 6 
#
# 1 0.013207 -0.001017 -0.001002 0.000000 -0.007018 0.000000
# 2 -0.001017 0.009698 -0.007091 0.000000 -0.000952 0.000000
# 3 -0.001002 -0.007091 0.020519 -0.000001 -0.002693 0.000000
# 4 0.000000 0.000000 -0.000001 0.032565 0.000001 -0.002497
# 5 -0.007018 -0.000952 -0.002693 0.000001 0.038344 0.000000
# 6 0.000000 0.000000 0.000000 -0.002497 0.000000 0.028979
#
#
# Mechanical properties :
#
#
# Convention : Reuss Voigt Hill
#
# Bulk Modulus (GPa) = 39.67548 52.91022 46.29285
# Shear Modulus (GPa) = 29.42323 33.41836 31.42079
#
# Velocity S-wave (km/s) = 3.57386 3.80877 3.69318
# Velocity P-wave (km/s) = 5.85260 6.50464 6.18722
#
# Compressibility (1/GPa) = 0.02520448
#
# Stress axis : x y z
#
# Youngs Moduli (GPa) = 75.71538 103.11376 48.73548
#
# Poissons Ratio (x) = 0.10486 0.04881
# Poissons Ratio (y) = 0.07700 0.34560
# Poissons Ratio (z) = 0.07584 0.73122
#
# Static dielectric constant tensor:
#      x y z
#    x 1.940730 0.000000 0.022760 
#    y 0.000000 1.883500 0.000000 
#    z 0.022760 0.000000 1.913790 
# 
# From -- ./inp_files/215756.got.cif
#   From: 2010.05.17/outbox.cif.g08.bks.cpg/sg15_108_cif.got.tgz:215756.got - 2010.06.03 18:47:42.
