data_PCOD9304054
_publ_section_title
;
Structure prediction by ZEFSAII (Michael W. Deem and Ramdas Pophale) SiO2 
 PCOD9304054
Probable space group: C 2/C
;
_chemical_formula_sum "Si O2"
_cell_formula_units_Z 64
_cell_length_a 6.743659
_cell_length_b 24.131900
_cell_length_c 20.122891
_cell_angle_alpha 90.000000
_cell_angle_beta 84.861953
_cell_angle_gamma 90.000000
_cell_volume 3261.586514
_symmetry_space_group_name_H-M "C 2/C"
_symmetry_group_IT_number 15
_symmetry_cell_setting 'monoclinic'
loop_
_space_group_symop_operation_xyz
x,y,z
-x,y,1/2-z
-x,-y,-z
x,-y,1/2+z
1/2+x,1/2+y,z
1/2-x,1/2+y,1/2-z
1/2-x,1/2-y,-z
1/2+x,1/2-y,1/2+z
loop_
_atom_site_type_symbol
_atom_site_label
_atom_site_fract_x
_atom_site_fract_y
_atom_site_fract_z
Si Si1 0.470645 0.298348 0.843297
Si Si2 0.675423 0.475229 0.040464
Si Si3 0.942332 0.857546 0.419936
Si Si4 0.612091 0.150193 0.176868
Si Si5 0.599508 0.218603 0.956290
Si Si6 0.478412 0.063130 0.067855
Si Si7 0.593845 0.736480 0.818385
Si Si8 0.239150 0.158559 0.027963
O O1 0.654294 0.336920 0.815463
O O2 0.555423 0.254602 0.893481
O O3 0.317964 0.261071 0.804508
O O4 0.331708 0.335846 0.894497
O O5 0.579567 0.423695 0.083992
O O6 0.811113 0.515273 0.083600
O O7 0.500000 0.500000 0.000000
O O8 0.832607 0.456877 0.979150
O O9 0.062279 0.817566 0.365109
O O10 0.049490 0.844835 0.486654
O O11 0.717794 0.835326 0.429485
O O12 0.500000 0.140391 0.250000
O O13 0.559639 0.101155 0.126645
O O14 0.529531 0.209631 0.152467
O O15 0.750000 0.250000 0.000000
O O16 0.395251 0.204603 0.999621
O O17 0.360900 0.102568 0.020573
O O18 0.500000 0.723524 0.750000
#
# Coordination Sequence:
#
# PCOD9304054 Si02
#       8
#     8   8   8   8   8   8   8   8
#     4  12  22  38  63  95 133 168 210 270 325 397
#     4  11  24  40  68  94 127 173 220 281 349 385
#     4  12  22  39  61  91 134 170 215 270 330 396
#     4  11  25  43  66  94 132 178 222 269 333 405
#     4  12  21  32  56  96 133 167 201 256 333 406
#     4  11  23  42  64  96 133 165 223 279 330 406
#     4  11  25  42  62  92 133 180 224 262 327 408
#     4  12  21  34  63  96 128 167 208 270 346 386
#
# _framework density 19.622350999999998
#
# number of rings (size 3 to 8) (size 9 to 14) (size 15 to 20)
#    0.000    0.500    7.500    2.625    0.000    2.000 
#    0.000    0.000    2.750    0.000    0.000    0.000 
#    0.000    0.000    0.000    0.000    0.000    0.000 
#
# Total GULP energy -178413.954882 kJ/mol
# GULP energy per Si atom -5575.436090 kJ/mol
# Density = 1.957769 g / cm^3
# Si number density = 19.622351 Si / 1000 Ang^3
#
#
#
# Elastic Constant Matrix: (Units=GPa)
#
#
# Indices 1 2 3 4 5 6 
#
# 1 121.1557 38.9332 23.1294 0.0000 -15.2798 0.0000
# 2 38.9332 106.1675 25.0980 0.0000 -0.3026 0.0000
# 3 23.1294 25.0980 64.4957 0.0000 -0.9661 0.0000
# 4 0.0000 0.0000 0.0000 26.1389 0.0000 2.1536
# 5 -15.2798 -0.3026 -0.9661 0.0000 33.8917 0.0000
# 6 0.0000 0.0000 0.0000 2.1536 0.0000 50.0352
#
#
#
# Elastic Compliance Matrix: (Units=1/GPa)
#
#
# Indices 1 2 3 4 5 6 
#
# 1 0.010313 -0.003206 -0.002383 0.000000 0.004553 0.000000
# 2 -0.003206 0.011370 -0.003296 0.000000 -0.001438 0.000000
# 3 -0.002383 -0.003296 0.017633 0.000000 -0.000601 0.000000
# 4 0.000000 0.000000 0.000000 0.038393 0.000000 -0.001652
# 5 0.004553 -0.001438 -0.000601 0.000000 0.031528 0.000000
# 6 0.000000 0.000000 0.000000 -0.001652 0.000000 0.020057
#
#
# Mechanical properties :
#
#
# Convention : Reuss Voigt Hill
#
# Bulk Modulus (GPa) = 46.41162 51.79336 49.10249
# Shear Modulus (GPa) = 32.41559 35.65705 34.03632
#
# Velocity S-wave (km/s) = 4.06886 4.26745 4.16933
# Velocity P-wave (km/s) = 6.76594 7.12277 6.94664
#
# Compressibility (1/GPa) = 0.02154633
#
# Stress axis : x y z
#
# Youngs Moduli (GPa) = 96.96417 87.95210 56.71126
#
# Poissons Ratio (x) = 0.28195 0.13513
# Poissons Ratio (y) = 0.31084 0.18694
# Poissons Ratio (z) = 0.23105 0.28992
#
# Static dielectric constant tensor:
#      x y z
#    x 1.763090 0.000000 -0.014300 
#    y 0.000000 1.770680 0.000000 
#    z -0.014300 0.000000 1.721860 
# 
# From -- ./inp_files/261694.got.cif
#   From: 2010.05.17/outbox.cif.g08.bks.cpg/sg15_131_cif.got.tgz:261694.got - 2010.06.03 18:47:42.
