data_PCOD9304026
_publ_section_title
;
Structure prediction by ZEFSAII (Michael W. Deem and Ramdas Pophale) SiO2 
 PCOD9304026
Probable space group: C 2/C
;
_chemical_formula_sum "Si O2"
_cell_formula_units_Z 40
_cell_length_a 23.942151
_cell_length_b 15.137849
_cell_length_c 12.892401
_cell_angle_alpha 90.000000
_cell_angle_beta 23.107117
_cell_angle_gamma 90.000000
_cell_volume 1833.778971
_symmetry_space_group_name_H-M "C 2/C"
_symmetry_group_IT_number 15
_symmetry_cell_setting 'monoclinic'
loop_
_space_group_symop_operation_xyz
x,y,z
-x,y,1/2-z
-x,-y,-z
x,-y,1/2+z
1/2+x,1/2+y,z
1/2-x,1/2+y,1/2-z
1/2-x,1/2-y,-z
1/2+x,1/2-y,1/2+z
loop_
_atom_site_type_symbol
_atom_site_label
_atom_site_fract_x
_atom_site_fract_y
_atom_site_fract_z
Si Si1 0.844156 0.872894 0.069246
Si Si2 0.268287 0.288976 0.853979
Si Si3 0.447701 0.598842 0.618572
Si Si4 0.278779 0.037375 0.347046
Si Si5 0.949550 0.438333 0.235332
O O1 0.748430 0.791739 0.195458
O O2 0.864295 0.872226 0.157793
O O3 0.781235 0.963922 0.129927
O O4 0.000000 0.862328 0.750000
O O5 0.416004 0.340502 0.595174
O O6 0.250000 0.250000 0.000000
O O7 0.140025 0.358350 0.064629
O O8 0.500000 0.500000 0.500000
O O9 0.348390 0.594211 0.888960
O O10 0.346947 0.987881 0.330389
O O11 0.410130 0.086835 0.069169
O O12 0.000000 0.493248 0.250000
#
# Coordination Sequence:
#
# PCOD9304026 Si02
#       5
#     8   8   8   8   8
#     4  12  22  41  73  98 137 183 228 275 351 412
#     4  12  23  42  68  97 135 183 221 272 347 415
#     4  12  23  44  72 104 136 180 235 283 336 415
#     4  11  24  42  70 104 133 176 236 286 330 410
#     4  11  23  41  71  96 135 179 227 276 347 405
#
# _framework density 21.812878999999999
#
# number of rings (size 3 to 8) (size 9 to 14) (size 15 to 20)
#    0.000    0.400    8.000    1.800    0.000    0.000 
#    0.000    1.000    4.400    0.000    0.000    0.000 
#    0.000    0.000    0.000    0.000    0.000    0.000 
#
# Total GULP energy -111943.474904 kJ/mol
# GULP energy per Si atom -5597.173745 kJ/mol
# Density = 2.176323 g / cm^3
# Si number density = 21.812879 Si / 1000 Ang^3
#
#
#
# Elastic Constant Matrix: (Units=GPa)
#
#
# Indices 1 2 3 4 5 6 
#
# 1 110.5728 48.6207 45.0684 0.0000 -17.0985 0.0000
# 2 48.6207 76.8681 51.4253 0.0000 -11.3566 0.0000
# 3 45.0684 51.4253 166.8200 0.0000 -4.2173 0.0000
# 4 0.0000 0.0000 0.0000 32.8142 0.0000 -10.3028
# 5 -17.0985 -11.3566 -4.2173 0.0000 30.4854 0.0000
# 6 0.0000 0.0000 0.0000 -10.3028 0.0000 11.1520
#
#
#
# Elastic Compliance Matrix: (Units=1/GPa)
#
#
# Indices 1 2 3 4 5 6 
#
# 1 0.013336 -0.006807 -0.001384 0.000000 0.004753 0.000000
# 2 -0.006807 0.020810 -0.004492 0.000000 0.003313 0.000000
# 3 -0.001384 -0.004492 0.007718 0.000000 -0.001382 0.000000
# 4 0.000000 0.000000 0.000000 0.042926 0.000000 0.039657
# 5 0.004753 0.003313 -0.001382 0.000000 0.036511 0.000000
# 6 0.000000 0.000000 0.000000 0.039657 0.000000 0.126307
#
#
# Mechanical properties :
#
#
# Convention : Reuss Voigt Hill
#
# Bulk Modulus (GPa) = 60.61756 71.60996 66.11376
# Shear Modulus (GPa) = 17.95495 28.83344 23.39419
#
# Velocity S-wave (km/s) = 2.87215 3.63967 3.27845
# Velocity P-wave (km/s) = 6.23290 7.11080 6.68628
#
# Compressibility (1/GPa) = 0.01649687
#
# Stress axis : x y z
#
# Youngs Moduli (GPa) = 74.98384 48.05456 129.56148
#
# Poissons Ratio (x) = 0.32711 0.17936
# Poissons Ratio (y) = 0.51042 0.58201
# Poissons Ratio (z) = 0.10381 0.21587
#
# Static dielectric constant tensor:
#      x y z
#    x 1.836350 0.000000 -0.034700 
#    y 0.000000 1.832410 0.000000 
#    z -0.034700 0.000000 1.772230 
# 
# From -- ./inp_files/178278.got.cif
#   From: 2010.05.17/outbox.cif.g08.bks.cpg/sg15_90_cif.got.tgz:178278.got - 2010.06.03 18:47:42.
