data_PCOD9304637
_publ_section_title
;
Structure prediction by ZEFSAII (Michael W. Deem and Ramdas Pophale) SiO2 
 PCOD9304637
Probable space group: C 2/C
;
_chemical_formula_sum "Si O2"
_cell_formula_units_Z 64
_cell_length_a 15.018497
_cell_length_b 8.773644
_cell_length_c 30.321217
_cell_angle_alpha 90.000000
_cell_angle_beta 135.559810
_cell_angle_gamma 90.000000
_cell_volume 2797.390484
_symmetry_space_group_name_H-M "C 2/C"
_symmetry_group_IT_number 15
_symmetry_cell_setting 'monoclinic'
loop_
_space_group_symop_operation_xyz
x,y,z
-x,y,1/2-z
-x,-y,-z
x,-y,1/2+z
1/2+x,1/2+y,z
1/2-x,1/2+y,1/2-z
1/2-x,1/2-y,-z
1/2+x,1/2-y,1/2+z
loop_
_atom_site_type_symbol
_atom_site_label
_atom_site_fract_x
_atom_site_fract_y
_atom_site_fract_z
Si Si1 0.141661 0.627592 0.952868
Si Si2 0.208955 0.354567 0.040184
Si Si3 0.155477 0.658454 0.858228
Si Si4 0.958346 0.790498 0.088415
Si Si5 0.363802 0.807826 0.391403
Si Si6 0.174514 0.552222 0.188859
Si Si7 0.100320 0.026656 0.574907
Si Si8 0.382590 0.186641 0.756778
O O1 0.145277 0.578599 0.902693
O O2 0.004621 0.689628 0.920011
O O3 0.250000 0.750000 0.000000
O O4 0.183509 0.494001 0.999374
O O5 0.359014 0.318076 0.092579
O O6 0.147922 0.386181 0.065384
O O7 0.130719 0.225994 0.986506
O O8 0.308962 0.666171 0.908949
O O9 0.133835 0.622478 0.798663
O O10 0.024322 0.755623 0.815897
O O11 0.050024 0.646176 0.128318
O O12 0.044790 0.929419 0.103060
O O13 0.327757 0.633746 0.390763
O O14 0.286819 0.917779 0.331478
O O15 0.282490 0.679742 0.230481
O O16 0.141273 0.458602 0.220748
O O17 0.000000 0.000000 0.500000
#
# Coordination Sequence:
#
# PCOD9304637 Si02
#       8
#     8   8   8   8   8   8   8   8
#     4  12  25  42  71 113 159 194 242 303 391 470
#     4  11  24  41  71 110 152 197 234 308 377 464
#     4  11  25  48  74 105 146 202 253 303 384 455
#     4  11  23  45  71 104 153 192 246 299 382 461
#     4  12  26  41  73 111 152 191 248 301 376 453
#     4  12  27  50  72 106 139 196 257 327 369 435
#     4  12  24  44  76 117 153 200 237 302 397 478
#     4  11  27  50  80  97 147 200 266 319 374 442
#
# _framework density 22.878466
#
# number of rings (size 3 to 8) (size 9 to 14) (size 15 to 20)
#    0.000    0.500    5.000    2.625    7.000    0.000 
#    2.250    0.000    0.000    0.000    0.000    0.000 
#    0.000    0.000    0.000    0.000    0.000    0.000 
#
# Total GULP energy -178163.881066 kJ/mol
# GULP energy per Si atom -5567.621283 kJ/mol
# Density = 2.282639 g / cm^3
# Si number density = 22.878466 Si / 1000 Ang^3
#
#
#
# Elastic Constant Matrix: (Units=GPa)
#
#
# Indices 1 2 3 4 5 6 
#
# 1 128.3646 18.3396 42.1829 0.0000 -10.5056 0.0000
# 2 18.3396 83.0551 24.4224 0.0000 -3.9743 0.0000
# 3 42.1829 24.4224 61.2210 0.0000 -0.5972 0.0000
# 4 0.0000 0.0000 0.0000 31.0674 0.0000 2.0246
# 5 -10.5056 -3.9743 -0.5972 0.0000 64.7326 0.0000
# 6 0.0000 0.0000 0.0000 2.0246 0.0000 17.0659
#
#
#
# Elastic Compliance Matrix: (Units=1/GPa)
#
#
# Indices 1 2 3 4 5 6 
#
# 1 0.010234 -0.000130 -0.006984 0.000000 0.001588 0.000000
# 2 -0.000130 0.013682 -0.005361 0.000000 0.000769 0.000000
# 3 -0.006984 -0.005361 0.023273 0.000000 -0.001248 0.000000
# 4 0.000000 0.000000 0.000000 0.032439 0.000000 -0.003848
# 5 0.001588 0.000769 -0.001248 0.000000 0.015742 0.000000
# 6 0.000000 0.000000 0.000000 -0.003848 0.000000 0.059053
#
#
# Mechanical properties :
#
#
# Convention : Reuss Voigt Hill
#
# Bulk Modulus (GPa) = 44.96657 49.17006 47.06832
# Shear Modulus (GPa) = 26.76860 35.08623 30.92742
#
# Velocity S-wave (km/s) = 3.42429 3.92036 3.68069
# Velocity P-wave (km/s) = 5.94403 6.48312 6.21942
#
# Compressibility (1/GPa) = 0.02223874
#
# Stress axis : x y z
#
# Youngs Moduli (GPa) = 97.71349 73.08794 42.96836
#
# Poissons Ratio (x) = 0.00951 0.30010
# Poissons Ratio (y) = 0.01271 0.23035
# Poissons Ratio (z) = 0.68244 0.39182
#
# Static dielectric constant tensor:
#      x y z
#    x 1.957280 0.000000 0.156380 
#    y 0.000000 3.929620 0.000000 
#    z 0.156380 0.000000 2.092640 
# 
# From -- ./inp_files/313179.got.cif
#   From: 2010.05.17/outbox.cif.g08.bks.cpg/sg15_157_cif.got.tgz:313179.got - 2010.06.03 18:47:42.
