data_PCOD9304317
_publ_section_title
;
Structure prediction by ZEFSAII (Michael W. Deem and Ramdas Pophale) SiO2 
 PCOD9304317
Probable space group: C 2/C
;
_chemical_formula_sum "Si O2"
_cell_formula_units_Z 48
_cell_length_a 17.424936
_cell_length_b 11.207828
_cell_length_c 11.298974
_cell_angle_alpha 90.000000
_cell_angle_beta 93.777183
_cell_angle_gamma 90.000000
_cell_volume 2201.847568
_symmetry_space_group_name_H-M "C 2/C"
_symmetry_group_IT_number 15
_symmetry_cell_setting 'monoclinic'
loop_
_space_group_symop_operation_xyz
x,y,z
-x,y,1/2-z
-x,-y,-z
x,-y,1/2+z
1/2+x,1/2+y,z
1/2-x,1/2+y,1/2-z
1/2-x,1/2-y,-z
1/2+x,1/2-y,1/2+z
loop_
_atom_site_type_symbol
_atom_site_label
_atom_site_fract_x
_atom_site_fract_y
_atom_site_fract_z
Si Si1 0.080608 0.041232 0.062620
Si Si2 0.418726 0.927692 0.503909
Si Si3 0.327448 0.287735 0.080493
Si Si4 0.916112 0.280460 0.282761
Si Si5 0.829799 0.181404 0.853152
Si Si6 0.169176 0.651457 0.948177
O O1 0.075711 0.155678 0.148165
O O2 0.112125 0.927597 0.135667
O O3 0.139968 0.087970 0.968136
O O4 0.000000 0.000000 0.000000
O O5 0.400375 0.804046 0.572048
O O6 0.391097 0.884022 0.371080
O O7 0.500000 0.000000 0.500000
O O8 0.363913 0.020326 0.562177
O O9 0.307397 0.293489 0.216582
O O10 0.250000 0.250000 0.000000
O O11 0.865190 0.269873 0.161356
O O12 0.000000 0.317987 0.250000
O O13 0.758655 0.145811 0.930006
O O14 0.857664 0.297324 0.928056
#
# Coordination Sequence:
#
# PCOD9304317 Si02
#       6
#     8   8   8   8   8   8
#     4  11  26  45  71 106 142 186 238 297 362 427
#     4  11  24  44  70 103 138 181 236 292 354 414
#     4  11  26  51  73 102 144 190 238 295 360 429
#     4  11  23  43  69  97 145 180 229 293 358 418
#     4  11  26  44  73 101 140 185 241 287 354 437
#     4  11  25  44  68 106 138 183 237 291 354 428
#
# _framework density 21.799875
#
# number of rings (size 3 to 8) (size 9 to 14) (size 15 to 20)
#    0.000    1.000    1.667    4.000    9.333    0.000 
#    3.000    0.000    0.000    0.000    0.000    0.000 
#    0.000    0.000    0.000    0.000    0.000    0.000 
#
# Total GULP energy -133891.612782 kJ/mol
# GULP energy per Si atom -5578.817199 kJ/mol
# Density = 2.175026 g / cm^3
# Si number density = 21.799875 Si / 1000 Ang^3
#
#
#
# Elastic Constant Matrix: (Units=GPa)
#
#
# Indices 1 2 3 4 5 6 
#
# 1 64.7500 14.0229 14.5641 0.0000 11.8162 0.0000
# 2 14.0229 74.9255 36.6855 0.0000 16.0798 0.0000
# 3 14.5641 36.6855 148.4180 0.0000 9.2395 0.0000
# 4 0.0000 0.0000 0.0000 21.4605 0.0000 -5.7311
# 5 11.8162 16.0798 9.2395 0.0000 37.8985 0.0000
# 6 0.0000 0.0000 0.0000 -5.7311 0.0000 25.3797
#
#
#
# Elastic Compliance Matrix: (Units=1/GPa)
#
#
# Indices 1 2 3 4 5 6 
#
# 1 0.016818 -0.001769 -0.000948 0.000000 -0.004262 0.000000
# 2 -0.001769 0.016645 -0.003590 0.000000 -0.005635 0.000000
# 3 -0.000948 -0.003590 0.007722 0.000000 -0.000064 0.000000
# 4 0.000000 0.000000 0.000000 0.049588 0.000000 0.011198
# 5 -0.004262 -0.005635 -0.000064 0.000000 0.030122 0.000000
# 6 0.000000 0.000000 0.000000 0.011198 0.000000 0.041930
#
#
# Mechanical properties :
#
#
# Convention : Reuss Voigt Hill
#
# Bulk Modulus (GPa) = 34.99945 46.51540 40.75743
# Shear Modulus (GPa) = 27.03271 31.80247 29.41759
#
# Velocity S-wave (km/s) = 3.52524 3.82362 3.67746
# Velocity P-wave (km/s) = 5.71485 6.39353 6.06369
#
# Compressibility (1/GPa) = 0.02857188
#
# Stress axis : x y z
#
# Youngs Moduli (GPa) = 59.45989 60.07905 129.49955
#
# Poissons Ratio (x) = 0.10627 0.12274
# Poissons Ratio (y) = 0.10518 0.46488
# Poissons Ratio (z) = 0.05636 0.21567
#
# Static dielectric constant tensor:
#      x y z
#    x 1.849240 0.000000 0.051300 
#    y 0.000000 1.857300 0.000000 
#    z 0.051300 0.000000 2.236450 
# 
# From -- ./inp_files/103825.got.cif
#   From: 2010.05.17/outbox.cif.g08.bks.cpg/sg15_52_cif.got.tgz:103825.got - 2010.06.03 18:47:42.
