data_PCOD9304197
_publ_section_title
;
Structure prediction by ZEFSAII (Michael W. Deem and Ramdas Pophale) SiO2 
 PCOD9304197
Probable space group: C 2/C
;
_chemical_formula_sum "Si O2"
_cell_formula_units_Z 40
_cell_length_a 10.342042
_cell_length_b 28.396387
_cell_length_c 15.980307
_cell_angle_alpha 90.000000
_cell_angle_beta 21.528426
_cell_angle_gamma 90.000000
_cell_volume 1722.172014
_symmetry_space_group_name_H-M "C 2/C"
_symmetry_group_IT_number 15
_symmetry_cell_setting 'monoclinic'
loop_
_space_group_symop_operation_xyz
x,y,z
-x,y,1/2-z
-x,-y,-z
x,-y,1/2+z
1/2+x,1/2+y,z
1/2-x,1/2+y,1/2-z
1/2-x,1/2-y,-z
1/2+x,1/2-y,1/2+z
loop_
_atom_site_type_symbol
_atom_site_label
_atom_site_fract_x
_atom_site_fract_y
_atom_site_fract_z
Si Si1 0.099788 0.203768 0.961451
Si Si2 0.199680 0.857611 0.712519
Si Si3 0.824548 0.967899 0.273901
Si Si4 0.277170 0.300847 0.303956
Si Si5 0.298546 0.943643 0.455465
O O1 0.500000 0.195093 0.750000
O O2 0.059207 0.193254 0.886807
O O3 0.866428 0.172020 0.163750
O O4 0.998329 0.257808 0.039786
O O5 0.596223 0.848473 0.445833
O O6 0.000000 0.838984 0.750000
O O7 0.024356 0.908377 0.832647
O O8 0.000000 0.945120 0.250000
O O9 0.500000 0.000000 0.500000
O O10 0.616427 0.938581 0.330527
O O11 0.123248 0.004152 0.059408
O O12 0.500000 0.284529 0.250000
O O13 0.500000 0.932497 0.250000
#
# Coordination Sequence:
#
# PCOD9304197 Si02
#       5
#     8   8   8   8   8
#     4  12  23  43  72 101 131 192 238 274 356 425
#     4  12  25  43  68 100 143 185 237 285 342 418
#     4   9  19  41  72 101 132 177 226 280 353 420
#     4  12  26  43  71 101 139 182 237 298 351 411
#     4  11  23  42  73 103 138 180 233 287 344 420
#
# _framework density 23.226483999999999
#
# number of rings (size 3 to 8) (size 9 to 14) (size 15 to 20)
#    0.000    0.800    4.000    4.800    0.000    0.000 
#    0.000    8.000   17.600    0.000    0.000    0.000 
#    0.000    0.000    0.000    0.000    0.000    0.000 
#
# Total GULP energy -111677.682969 kJ/mol
# GULP energy per Si atom -5583.884148 kJ/mol
# Density = 2.317362 g / cm^3
# Si number density = 23.226484 Si / 1000 Ang^3
#
#
#
# Elastic Constant Matrix: (Units=GPa)
#
#
# Indices 1 2 3 4 5 6 
#
# 1 126.0694 29.8110 34.8108 -0.0023 41.3356 -0.0007
# 2 29.8110 100.3355 33.2048 -0.0033 14.3244 -0.0008
# 3 34.8108 33.2048 61.7551 -0.0002 28.4575 0.0005
# 4 -0.0023 -0.0033 -0.0002 90.7176 0.0040 10.6025
# 5 41.3356 14.3244 28.4575 0.0040 51.1725 0.0010
# 6 -0.0007 -0.0008 0.0005 10.6025 0.0010 24.6405
#
#
#
# Elastic Compliance Matrix: (Units=1/GPa)
#
#
# Indices 1 2 3 4 5 6 
#
# 1 0.011368 -0.001619 -0.002037 0.000001 -0.007597 0.000000
# 2 -0.001619 0.012358 -0.006374 0.000000 0.001393 0.000000
# 3 -0.002037 -0.006374 0.025800 0.000000 -0.010918 -0.000001
# 4 0.000001 0.000000 0.000000 0.011607 -0.000001 -0.004994
# 5 -0.007597 0.001393 -0.010918 -0.000001 0.031360 -0.000001
# 6 0.000000 0.000000 -0.000001 -0.004994 -0.000001 0.042733
#
#
# Mechanical properties :
#
#
# Convention : Reuss Voigt Hill
#
# Bulk Modulus (GPa) = 33.93756 53.75702 43.84729
# Shear Modulus (GPa) = 30.28331 45.99500 38.13915
#
# Velocity S-wave (km/s) = 3.61477 4.45486 4.05662
# Velocity P-wave (km/s) = 5.66263 7.04670 6.39224
#
# Compressibility (1/GPa) = 0.02946588
#
# Stress axis : x y z
#
# Youngs Moduli (GPa) = 87.96365 80.91831 38.76042
#
# Poissons Ratio (x) = 0.13101 0.07895
# Poissons Ratio (y) = 0.14241 0.24707
# Poissons Ratio (z) = 0.17917 0.51579
#
# Static dielectric constant tensor:
#      x y z
#    x 2.141500 0.000010 -0.069000 
#    y 0.000010 1.916380 0.000000 
#    z -0.069000 0.000000 1.910910 
# 
# From -- ./inp_files/139685.got.cif
#   From: 2010.05.17/outbox.cif.g08.bks.cpg/sg15_70_cif.got.tgz:139685.got - 2010.06.03 18:47:42.
