data_PCOD9304342
_publ_section_title
;
Structure prediction by ZEFSAII (Michael W. Deem and Ramdas Pophale) SiO2 
 PCOD9304342
Probable space group: C 2/C
;
_chemical_formula_sum "Si O2"
_cell_formula_units_Z 40
_cell_length_a 14.173427
_cell_length_b 23.586829
_cell_length_c 9.024070
_cell_angle_alpha 90.000000
_cell_angle_beta 145.677854
_cell_angle_gamma 90.000000
_cell_volume 1701.009967
_symmetry_space_group_name_H-M "C 2/C"
_symmetry_group_IT_number 15
_symmetry_cell_setting 'monoclinic'
loop_
_space_group_symop_operation_xyz
x,y,z
-x,y,1/2-z
-x,-y,-z
x,-y,1/2+z
1/2+x,1/2+y,z
1/2-x,1/2+y,1/2-z
1/2-x,1/2-y,-z
1/2+x,1/2-y,1/2+z
loop_
_atom_site_type_symbol
_atom_site_label
_atom_site_fract_x
_atom_site_fract_y
_atom_site_fract_z
Si Si1 0.245507 0.767131 0.321732
Si Si2 0.894238 0.169397 0.341535
Si Si3 0.858156 0.528252 0.716226
Si Si4 0.876164 0.660387 0.736920
Si Si5 0.656225 0.538592 0.163460
O O1 0.250000 0.750000 0.500000
O O2 0.269001 0.705697 0.279971
O O3 0.381984 0.802988 0.397318
O O4 0.075593 0.802710 0.083432
O O5 0.892766 0.104348 0.390934
O O6 0.806643 0.173884 0.068501
O O7 0.870114 0.594519 0.773318
O O8 0.812685 0.531998 0.482809
O O9 0.709089 0.487169 0.576176
O O10 0.000000 0.500000 0.000000
O O11 0.000000 0.666461 0.750000
O O12 0.500000 0.500000 0.000000
#
# Coordination Sequence:
#
# PCOD9304342 Si02
#       5
#     8   8   8   8   8
#     4  12  26  45  71 105 141 184 244 315 371 424
#     4  11  25  46  70 101 143 194 242 293 371 453
#     4  11  23  43  71 105 143 186 238 295 361 434
#     4  11  24  47  74 102 142 197 245 291 366 459
#     4  11  24  43  70 103 141 187 239 296 364 442
#
# _framework density 23.515440999999999
#
# number of rings (size 3 to 8) (size 9 to 14) (size 15 to 20)
#    0.000    0.800    0.000    7.800    0.000    8.000 
#    0.000    6.000    0.000    0.000    0.000    0.000 
#    0.000    0.000    0.000    0.000    0.000    0.000 
#
# Total GULP energy -111349.417146 kJ/mol
# GULP energy per Si atom -5567.470857 kJ/mol
# Density = 2.346192 g / cm^3
# Si number density = 23.515441 Si / 1000 Ang^3
#
#
#
# Elastic Constant Matrix: (Units=GPa)
#
#
# Indices 1 2 3 4 5 6 
#
# 1 133.5430 103.8144 49.9793 0.0000 -13.6455 0.0000
# 2 103.8144 188.3043 74.8907 0.0000 -26.7404 0.0000
# 3 49.9793 74.8907 114.0282 0.0000 0.2055 0.0000
# 4 0.0000 0.0000 0.0000 52.6508 0.0000 -0.8036
# 5 -13.6455 -26.7404 0.2055 0.0000 38.0236 0.0000
# 6 0.0000 0.0000 0.0000 -0.8036 0.0000 39.7025
#
#
#
# Elastic Compliance Matrix: (Units=1/GPa)
#
#
# Indices 1 2 3 4 5 6 
#
# 1 0.013260 -0.006765 -0.001369 0.000000 0.000009 0.000000
# 2 -0.006765 0.011776 -0.004780 0.000000 0.005880 0.000000
# 3 -0.001369 -0.004780 0.012516 0.000000 -0.003920 0.000000
# 4 0.000000 0.000000 0.000000 0.018999 0.000000 0.000385
# 5 0.000009 0.005880 -0.003920 0.000000 0.030459 0.000000
# 6 0.000000 0.000000 0.000000 0.000385 0.000000 0.025195
#
#
# Mechanical properties :
#
#
# Convention : Reuss Voigt Hill
#
# Bulk Modulus (GPa) = 85.28692 99.24936 92.26814
# Shear Modulus (GPa) = 35.22588 39.88811 37.55700
#
# Velocity S-wave (km/s) = 3.87459 4.12303 4.00073
# Velocity P-wave (km/s) = 7.50758 8.05999 7.78868
#
# Compressibility (1/GPa) = 0.01172513
#
# Stress axis : x y z
#
# Youngs Moduli (GPa) = 75.41221 84.91850 79.89710
#
# Poissons Ratio (x) = 0.57446 0.10939
# Poissons Ratio (y) = 0.51015 0.38188
# Poissons Ratio (z) = 0.10325 0.40588
#
# Static dielectric constant tensor:
#      x y z
#    x 2.132410 0.000000 0.058880 
#    y 0.000000 1.817070 0.000000 
#    z 0.058880 0.000000 1.952340 
# 
# From -- ./inp_files/42406.got.cif
#   From: 2010.05.17/outbox.cif.g08.bks.cpg/sg15_22_cif.got.tgz:42406.got - 2010.06.03 18:47:42.
