data_PCOD9304773
_publ_section_title
;
Structure prediction by ZEFSAII (Michael W. Deem and Ramdas Pophale) SiO2 
 PCOD9304773
Probable space group: C 2/C
;
_chemical_formula_sum "Si O2"
_cell_formula_units_Z 36
_cell_length_a 12.216940
_cell_length_b 15.655574
_cell_length_c 9.560093
_cell_angle_alpha 90.000000
_cell_angle_beta 71.538025
_cell_angle_gamma 90.000000
_cell_volume 1734.388836
_symmetry_space_group_name_H-M "C 2/C"
_symmetry_group_IT_number 15
_symmetry_cell_setting 'monoclinic'
loop_
_space_group_symop_operation_xyz
x,y,z
-x,y,1/2-z
-x,-y,-z
x,-y,1/2+z
1/2+x,1/2+y,z
1/2-x,1/2+y,1/2-z
1/2-x,1/2-y,-z
1/2+x,1/2-y,1/2+z
loop_
_atom_site_type_symbol
_atom_site_label
_atom_site_fract_x
_atom_site_fract_y
_atom_site_fract_z
Si Si1 0.708485 0.086676 0.708852
Si Si2 0.000000 0.282276 0.250000
Si Si3 0.368163 0.231503 0.376624
Si Si4 0.612137 0.044074 0.024421
Si Si5 0.921070 0.799963 0.072071
O O1 0.608619 0.159422 0.751195
O O2 0.831184 0.122514 0.608997
O O3 0.659111 0.014549 0.628065
O O4 0.709209 0.052611 0.865945
O O5 0.950750 0.231697 0.404460
O O6 0.250000 0.250000 0.500000
O O7 0.412079 0.138792 0.407790
O O8 0.359709 0.236765 0.211772
O O9 0.454726 0.303549 0.402616
O O10 0.500000 0.000000 0.000000
#
# Coordination Sequence:
#
# PCOD9304773 Si02
#       5
#     8   4   8   8   8
#     4  12  25  42  67 106 140 179 232 292 358 408
#     4  12  22  40  68 102 140 174 236 290 344 406
#     4  11  23  46  73  97 135 186 240 281 352 425
#     4  12  24  42  69 104 139 178 231 293 350 417
#     4  11  24  41  69 102 136 182 232 292 345 423
#
# _framework density 20.756592000000001
#
# number of rings (size 3 to 8) (size 9 to 14) (size 15 to 20)
#    0.000    0.444    6.667    0.667    9.333    0.000 
#    0.000    1.111    0.000    0.000    0.000    0.000 
#    0.000    0.000    0.000    0.000    0.000    0.000 
#
# Total GULP energy -100446.783137 kJ/mol
# GULP energy per Si atom -5580.376841 kJ/mol
# Density = 2.070935 g / cm^3
# Si number density = 20.756592 Si / 1000 Ang^3
#
#
#
# Elastic Constant Matrix: (Units=GPa)
#
#
# Indices 1 2 3 4 5 6 
#
# 1 84.6420 23.2577 11.2725 0.0000 -26.0812 0.0000
# 2 23.2577 37.8727 14.6864 0.0000 0.9271 0.0000
# 3 11.2725 14.6864 179.3723 0.0000 -12.9764 0.0000
# 4 0.0000 0.0000 0.0000 33.4481 0.0000 -0.9229
# 5 -26.0812 0.9271 -12.9764 0.0000 43.8533 0.0000
# 6 0.0000 0.0000 0.0000 -0.9229 0.0000 29.0125
#
#
#
# Elastic Compliance Matrix: (Units=1/GPa)
#
#
# Indices 1 2 3 4 5 6 
#
# 1 0.018535 -0.011911 0.000640 0.000000 0.011464 0.000000
# 2 -0.011911 0.034993 -0.002741 0.000000 -0.008635 0.000000
# 3 0.000640 -0.002741 0.005918 0.000000 0.002190 0.000000
# 4 0.000000 0.000000 0.000000 0.029923 0.000000 0.000952
# 5 0.011464 -0.008635 0.002190 0.000000 0.030452 0.000000
# 6 0.000000 0.000000 0.000000 0.000952 0.000000 0.034498
#
#
# Mechanical properties :
#
#
# Convention : Reuss Voigt Hill
#
# Bulk Modulus (GPa) = 31.82615 44.48001 38.15308
# Shear Modulus (GPa) = 25.93127 38.10749 32.01938
#
# Velocity S-wave (km/s) = 3.53838 4.28941 3.93187
# Velocity P-wave (km/s) = 5.66214 6.78292 6.24771
#
# Compressibility (1/GPa) = 0.03142070
#
# Stress axis : x y z
#
# Youngs Moduli (GPa) = 53.95279 28.57701 168.98651
#
# Poissons Ratio (x) = 0.34038 -0.10812
# Poissons Ratio (y) = 0.64263 0.46324
# Poissons Ratio (z) = -0.03452 0.07834
#
# Static dielectric constant tensor:
#      x y z
#    x 1.756340 0.000000 -0.001430 
#    y 0.000000 1.755670 0.000000 
#    z -0.001430 0.000000 1.810860 
# 
# From -- ./inp_files/37420.got.cif
#   From: 2010.05.17/outbox.cif.g08.bks.cpg/sg15_19_cif.got.tgz:37420.got - 2010.06.03 18:47:42.
