data_PCOD9304537
_publ_section_title
;
Structure prediction by ZEFSAII (Michael W. Deem and Ramdas Pophale) SiO2 
 PCOD9304537
Probable space group: C 2/C
;
_chemical_formula_sum "Si O2"
_cell_formula_units_Z 48
_cell_length_a 11.651335
_cell_length_b 9.673023
_cell_length_c 17.638092
_cell_angle_alpha 90.000000
_cell_angle_beta 61.394403
_cell_angle_gamma 90.000000
_cell_volume 1745.229216
_symmetry_space_group_name_H-M "C 2/C"
_symmetry_group_IT_number 15
_symmetry_cell_setting 'monoclinic'
loop_
_space_group_symop_operation_xyz
x,y,z
-x,y,1/2-z
-x,-y,-z
x,-y,1/2+z
1/2+x,1/2+y,z
1/2-x,1/2+y,1/2-z
1/2-x,1/2-y,-z
1/2+x,1/2-y,1/2+z
loop_
_atom_site_type_symbol
_atom_site_label
_atom_site_fract_x
_atom_site_fract_y
_atom_site_fract_z
Si Si1 0.640124 0.419843 0.885017
Si Si2 0.941143 0.062752 0.851636
Si Si3 0.338299 0.133482 0.569481
Si Si4 0.817782 0.759331 0.896486
Si Si5 0.670248 0.117431 0.314563
Si Si6 0.597289 0.976149 0.610955
O O1 0.539399 0.537500 0.890752
O O2 0.588092 0.274821 0.934717
O O3 0.721000 0.380596 0.783904
O O4 0.754743 0.461073 0.906143
O O5 0.887249 0.905749 0.864731
O O6 0.000000 0.092673 0.750000
O O7 0.814688 0.159050 0.903971
O O8 0.396557 0.050318 0.480777
O O9 0.329906 0.031880 0.643843
O O10 0.710473 0.769241 0.863675
O O11 0.920870 0.635120 0.858839
O O12 0.750000 0.750000 0.000000
O O13 0.524030 0.120562 0.327057
#
# Coordination Sequence:
#
# PCOD9304537 Si02
#       6
#     8   8   8   8   8   8
#     4  12  27  44  69 105 141 191 233 286 367 426
#     4  11  23  46  70 100 144 184 233 294 355 421
#     4  11  25  46  69 102 145 183 233 298 351 420
#     4  11  23  44  73 102 133 186 236 287 353 420
#     4  11  25  46  70 104 142 184 238 298 350 424
#     4  12  26  44  71 107 140 184 239 289 360 424
#
# _framework density 27.503549
#
# number of rings (size 3 to 8) (size 9 to 14) (size 15 to 20)
#    0.000    0.667    6.667    2.500    4.667    4.667 
#    0.000    0.000    0.000    0.000    0.000    0.000 
#    0.000    0.000    0.000    0.000    0.000    0.000 
#
# Total GULP energy -134476.367746 kJ/mol
# GULP energy per Si atom -5603.181989 kJ/mol
# Density = 2.744095 g / cm^3
# Si number density = 27.503549 Si / 1000 Ang^3
#
#
#
# Elastic Constant Matrix: (Units=GPa)
#
#
# Indices 1 2 3 4 5 6 
#
# 1 170.1662 40.5358 11.5802 0.0000 21.6062 0.0000
# 2 40.5358 84.2477 24.5250 0.0000 12.4722 0.0000
# 3 11.5802 24.5250 115.1748 0.0000 10.3474 0.0000
# 4 0.0000 0.0000 0.0000 29.7674 0.0000 2.0644
# 5 21.6062 12.4722 10.3474 0.0000 47.5016 0.0000
# 6 0.0000 0.0000 0.0000 2.0644 0.0000 46.5417
#
#
#
# Elastic Compliance Matrix: (Units=1/GPa)
#
#
# Indices 1 2 3 4 5 6 
#
# 1 0.006884 -0.003007 0.000162 0.000000 -0.002377 0.000000
# 2 -0.003007 0.014341 -0.002587 0.000000 -0.001834 0.000000
# 3 0.000162 -0.002587 0.009345 0.000000 -0.001430 0.000000
# 4 0.000000 0.000000 0.000000 0.033697 0.000000 -0.001495
# 5 -0.002377 -0.001834 -0.001430 0.000000 0.022926 0.000000
# 6 0.000000 0.000000 0.000000 -0.001495 0.000000 0.021552
#
#
# Mechanical properties :
#
#
# Convention : Reuss Voigt Hill
#
# Bulk Modulus (GPa) = 50.74583 58.09677 54.42130
# Shear Modulus (GPa) = 39.62605 44.29196 41.95901
#
# Velocity S-wave (km/s) = 3.79985 4.01734 3.91011
# Velocity P-wave (km/s) = 6.14350 6.53360 6.34155
#
# Compressibility (1/GPa) = 0.01970605
#
# Stress axis : x y z
#
# Youngs Moduli (GPa) = 145.26926 69.72881 107.00368
#
# Poissons Ratio (x) = 0.20970 -0.01731
# Poissons Ratio (y) = 0.43688 0.27678
# Poissons Ratio (z) = -0.02350 0.18036
#
# Static dielectric constant tensor:
#      x y z
#    x 2.748700 0.000000 -0.092090 
#    y 0.000000 2.184440 0.000000 
#    z -0.092090 0.000000 2.072040 
# 
# From -- ./inp_files/196521.got.cif
#   From: 2010.05.17/outbox.cif.g08.bks.cpg/sg15_99_cif.got.tgz:196521.got - 2010.06.03 18:47:42.
