data_PCOD9304463
_publ_section_title
;
Structure prediction by ZEFSAII (Michael W. Deem and Ramdas Pophale) SiO2 
 PCOD9304463
Probable space group: C 2/C
;
_chemical_formula_sum "Si O2"
_cell_formula_units_Z 40
_cell_length_a 6.088960
_cell_length_b 12.854252
_cell_length_c 23.608983
_cell_angle_alpha 90.000000
_cell_angle_beta 124.346392
_cell_angle_gamma 90.000000
_cell_volume 1525.663833
_symmetry_space_group_name_H-M "C 2/C"
_symmetry_group_IT_number 15
_symmetry_cell_setting 'monoclinic'
loop_
_space_group_symop_operation_xyz
x,y,z
-x,y,1/2-z
-x,-y,-z
x,-y,1/2+z
1/2+x,1/2+y,z
1/2-x,1/2+y,1/2-z
1/2-x,1/2-y,-z
1/2+x,1/2-y,1/2+z
loop_
_atom_site_type_symbol
_atom_site_label
_atom_site_fract_x
_atom_site_fract_y
_atom_site_fract_z
Si Si1 0.332743 0.986276 0.381750
Si Si2 0.474631 0.325413 0.681573
Si Si3 0.833654 0.384064 0.639169
Si Si4 0.842295 0.136654 0.991030
Si Si5 0.431686 0.669085 0.875086
O O1 0.573645 0.931731 0.449518
O O2 0.068761 0.917783 0.355246
O O3 0.238797 0.102934 0.383039
O O4 0.470565 0.018216 0.341483
O O5 0.500000 0.358954 0.750000
O O6 0.739703 0.351927 0.687337
O O7 0.378318 0.206457 0.669200
O O8 0.573575 0.408590 0.563746
O O9 0.937438 0.275322 0.628652
O O10 0.972198 0.147384 0.947282
O O11 0.750000 0.250000 0.000000
#
# Coordination Sequence:
#
# PCOD9304463 Si02
#       5
#     8   8   8   8   8
#     4  11  25  41  69 102 136 178 235 286 360 422
#     4  11  26  49  69  95 139 190 246 297 355 430
#     4  11  24  43  70 102 142 186 226 299 359 435
#     4  12  22  41  69 106 147 181 231 287 371 445
#     4  11  23  44  69 102 139 185 232 295 363 430
#
# _framework density 26.218097
#
# number of rings (size 3 to 8) (size 9 to 14) (size 15 to 20)
#    0.000    0.800    4.000    2.400    0.000    4.800 
#    7.200    0.000    0.000    0.000    0.000    0.000 
#    0.000    0.000    0.000    0.000    0.000    0.000 
#
# Total GULP energy -111616.825404 kJ/mol
# GULP energy per Si atom -5580.841270 kJ/mol
# Density = 2.615842 g / cm^3
# Si number density = 26.218097 Si / 1000 Ang^3
#
#
#
# Elastic Constant Matrix: (Units=GPa)
#
#
# Indices 1 2 3 4 5 6 
#
# 1 180.2221 87.3304 54.3893 0.0000 -48.4464 0.0000
# 2 87.3304 168.0815 29.7948 0.0000 -13.7089 0.0000
# 3 54.3893 29.7948 82.3945 0.0000 -27.0660 0.0000
# 4 0.0000 0.0000 0.0000 10.2606 0.0000 -3.8535
# 5 -48.4464 -13.7089 -27.0660 0.0000 55.4326 0.0000
# 6 0.0000 0.0000 0.0000 -3.8535 0.0000 90.2100
#
#
#
# Elastic Compliance Matrix: (Units=1/GPa)
#
#
# Indices 1 2 3 4 5 6 
#
# 1 0.010284 -0.004264 -0.003145 0.000000 0.006398 0.000000
# 2 -0.004264 0.008138 -0.000823 0.000000 -0.002116 0.000000
# 3 -0.003145 -0.000823 0.016127 0.000000 0.004922 0.000000
# 4 0.000000 0.000000 0.000000 0.099049 0.000000 0.004231
# 5 0.006398 -0.002116 0.004922 0.000000 0.025511 0.000000
# 6 0.000000 0.000000 0.000000 0.004231 0.000000 0.011266
#
#
# Mechanical properties :
#
#
# Convention : Reuss Voigt Hill
#
# Bulk Modulus (GPa) = 55.29401 85.96967 70.63184
# Shear Modulus (GPa) = 25.92440 48.45955 37.19197
#
# Velocity S-wave (km/s) = 3.14793 4.30388 3.77047
# Velocity P-wave (km/s) = 5.86075 7.58678 6.77892
#
# Compressibility (1/GPa) = 0.01808514
#
# Stress axis : x y z
#
# Youngs Moduli (GPa) = 97.24096 122.87669 62.00632
#
# Poissons Ratio (x) = 0.52393 0.19501
# Poissons Ratio (y) = 0.41462 0.05105
# Poissons Ratio (z) = 0.30582 0.10116
#
# Static dielectric constant tensor:
#      x y z
#    x 2.322120 0.000000 0.002830 
#    y 0.000000 2.044280 0.000000 
#    z 0.002830 0.000000 2.063300 
# 
# From -- ./inp_files/260482.got.cif
#   From: 2010.05.17/outbox.cif.g08.bks.cpg/sg15_131_cif.got.tgz:260482.got - 2010.06.03 18:47:42.
