data_PCOD9304503
_publ_section_title
;
Structure prediction by ZEFSAII (Michael W. Deem and Ramdas Pophale) SiO2 
 PCOD9304503
Probable space group: C 2/C
;
_chemical_formula_sum "Si O2"
_cell_formula_units_Z 40
_cell_length_a 10.446462
_cell_length_b 14.829976
_cell_length_c 11.527965
_cell_angle_alpha 90.000000
_cell_angle_beta 95.821223
_cell_angle_gamma 90.000000
_cell_volume 1776.711714
_symmetry_space_group_name_H-M "C 2/C"
_symmetry_group_IT_number 15
_symmetry_cell_setting 'monoclinic'
loop_
_space_group_symop_operation_xyz
x,y,z
-x,y,1/2-z
-x,-y,-z
x,-y,1/2+z
1/2+x,1/2+y,z
1/2-x,1/2+y,1/2-z
1/2-x,1/2-y,-z
1/2+x,1/2-y,1/2+z
loop_
_atom_site_type_symbol
_atom_site_label
_atom_site_fract_x
_atom_site_fract_y
_atom_site_fract_z
Si Si1 0.537849 0.252607 0.457213
Si Si2 0.045340 0.071529 0.094201
Si Si3 0.221746 0.048038 0.303776
Si Si4 0.393227 0.122266 0.833037
Si Si5 0.184941 0.257732 0.725404
O O1 0.585522 0.335577 0.539372
O O2 0.548854 0.167046 0.544318
O O3 0.398922 0.278619 0.390317
O O4 0.618745 0.245702 0.346151
O O5 0.165421 0.028219 0.171572
O O6 0.911623 0.082318 0.151383
O O7 0.000000 0.000000 0.000000
O O8 0.305546 0.137155 0.304451
O O9 0.296290 0.960166 0.354220
O O10 0.500000 0.090094 0.750000
O O11 0.313812 0.200367 0.756921
#
# Coordination Sequence:
#
# PCOD9304503 Si02
#       5
#     8   8   8   8   8
#     4  11  25  45  76  99 142 190 231 291 354 416
#     4  11  23  44  71 101 136 189 240 285 345 416
#     4  11  26  42  69 105 141 177 239 292 344 420
#     4  12  26  45  71 104 144 187 232 287 358 415
#     4  11  25  47  69 106 142 182 238 288 350 423
#
# _framework density 22.513500000000001
#
# number of rings (size 3 to 8) (size 9 to 14) (size 15 to 20)
#    0.000    0.800    2.000    4.200    5.600    8.800 
#    0.000    0.000    0.000    0.000    0.000    0.000 
#    0.000    0.000    0.000    0.000    0.000    0.000 
#
# Total GULP energy -111609.133095 kJ/mol
# GULP energy per Si atom -5580.456655 kJ/mol
# Density = 2.246226 g / cm^3
# Si number density = 22.513500 Si / 1000 Ang^3
#
#
#
# Elastic Constant Matrix: (Units=GPa)
#
#
# Indices 1 2 3 4 5 6 
#
# 1 46.0017 1.3840 24.0783 0.0000 7.1779 0.0000
# 2 1.3840 90.6975 10.0346 0.0000 -4.8499 0.0000
# 3 24.0783 10.0346 68.2054 0.0000 12.3535 0.0000
# 4 0.0000 0.0000 0.0000 35.3063 0.0000 3.2852
# 5 7.1779 -4.8499 12.3535 0.0000 23.8517 0.0000
# 6 0.0000 0.0000 0.0000 3.2852 0.0000 37.9789
#
#
#
# Elastic Compliance Matrix: (Units=1/GPa)
#
#
# Indices 1 2 3 4 5 6 
#
# 1 0.026943 0.000399 -0.008957 0.000000 -0.003388 0.000000
# 2 0.000399 0.011478 -0.002461 0.000000 0.003489 0.000000
# 3 -0.008957 -0.002461 0.019630 0.000000 -0.007972 0.000000
# 4 0.000000 0.000000 0.000000 0.028553 0.000000 -0.002470
# 5 -0.003388 0.003489 -0.007972 0.000000 0.047784 0.000000
# 6 0.000000 0.000000 0.000000 -0.002470 0.000000 0.026544
#
#
# Mechanical properties :
#
#
# Convention : Reuss Voigt Hill
#
# Bulk Modulus (GPa) = 27.76822 30.65537 29.21179
# Shear Modulus (GPa) = 25.64432 30.72121 28.18276
#
# Velocity S-wave (km/s) = 3.37866 3.69801 3.54194
# Velocity P-wave (km/s) = 5.25179 5.64621 5.45257
#
# Compressibility (1/GPa) = 0.03601240
#
# Stress axis : x y z
#
# Youngs Moduli (GPa) = 37.11526 87.11963 50.94372
#
# Poissons Ratio (x) = -0.03473 0.45628
# Poissons Ratio (y) = -0.01479 0.12539
# Poissons Ratio (z) = 0.33243 0.21444
#
# Static dielectric constant tensor:
#      x y z
#    x 1.875530 0.000000 0.008650 
#    y 0.000000 1.782840 0.000000 
#    z 0.008650 0.000000 1.886790 
# 
# From -- ./inp_files/85725.got.cif
#   From: 2010.05.17/outbox.cif.g08.bks.cpg/sg15_43_cif.got.tgz:85725.got - 2010.06.03 18:47:42.
