data_PCOD9304806
_publ_section_title
;
Structure prediction by ZEFSAII (Michael W. Deem and Ramdas Pophale) SiO2 
 PCOD9304806
Probable space group: C 2/C
;
_chemical_formula_sum "Si O2"
_cell_formula_units_Z 64
_cell_length_a 15.902661
_cell_length_b 29.379046
_cell_length_c 10.808553
_cell_angle_alpha 90.000000
_cell_angle_beta 144.862595
_cell_angle_gamma 90.000000
_cell_volume 2906.363922
_symmetry_space_group_name_H-M "C 2/C"
_symmetry_group_IT_number 15
_symmetry_cell_setting 'monoclinic'
loop_
_space_group_symop_operation_xyz
x,y,z
-x,y,1/2-z
-x,-y,-z
x,-y,1/2+z
1/2+x,1/2+y,z
1/2-x,1/2+y,1/2-z
1/2-x,1/2-y,-z
1/2+x,1/2-y,1/2+z
loop_
_atom_site_type_symbol
_atom_site_label
_atom_site_fract_x
_atom_site_fract_y
_atom_site_fract_z
Si Si1 0.838097 0.296068 0.587788
Si Si2 0.937128 0.896652 0.045459
Si Si3 0.243840 0.729234 0.856819
Si Si4 0.194142 0.144595 0.699495
Si Si5 0.081203 0.691817 0.055033
Si Si6 0.149581 0.568108 0.761326
Si Si7 0.650062 0.100416 0.041366
Si Si8 0.410857 0.501790 0.024530
O O1 0.750000 0.250000 0.500000
O O2 0.765205 0.327514 0.397604
O O3 0.864669 0.323817 0.745419
O O4 0.000000 0.280752 0.750000
O O5 0.000000 0.875074 0.250000
O O6 0.063234 0.885210 0.097579
O O7 0.898700 0.948404 0.036148
O O8 0.791674 0.887585 0.791828
O O9 0.339140 0.684044 0.941541
O O10 0.304619 0.769622 0.846365
O O11 0.077651 0.714904 0.629902
O O12 0.250000 0.750000 0.000000
O O13 0.306547 0.110215 0.772365
O O14 0.075271 0.650028 0.954315
O O15 0.972362 0.566065 0.549038
O O16 0.186050 0.581200 0.948544
O O17 0.254111 0.527185 0.839798
O O18 0.500000 0.521886 0.250000
O O19 0.500000 0.500000 0.000000
#
# Coordination Sequence:
#
# PCOD9304806 Si02
#       8
#     8   8   8   8   8   8   8   8
#     4  12  23  42  65  94 141 193 251 304 369 435
#     4  11  26  46  74 110 143 193 252 314 380 464
#     4  12  26  43  65  98 138 190 246 306 364 429
#     4  12  24  44  68 101 141 194 249 303 377 445
#     4  12  24  45  65  97 141 191 245 306 363 436
#     4  11  24  45  74 107 149 193 241 307 391 456
#     4  11  25  46  73 107 155 195 246 311 381 464
#     4  11  23  46  79 113 150 190 250 314 385 471
#
# _framework density 22.020643
#
# number of rings (size 3 to 8) (size 9 to 14) (size 15 to 20)
#    0.000    0.500    5.000    2.625    3.500    2.000 
#    2.250    0.000    0.000    0.000    0.000    0.000 
#    0.000    0.000    0.000    0.000    0.000    0.000 
#
# Total GULP energy -178443.807369 kJ/mol
# GULP energy per Si atom -5576.368980 kJ/mol
# Density = 2.197052 g / cm^3
# Si number density = 22.020643 Si / 1000 Ang^3
#
#
#
# Elastic Constant Matrix: (Units=GPa)
#
#
# Indices 1 2 3 4 5 6 
#
# 1 141.1572 42.1138 61.3493 0.0000 7.0915 0.0000
# 2 42.1138 86.7075 21.2772 0.0000 13.3822 0.0000
# 3 61.3493 21.2772 124.6333 0.0000 8.0532 0.0000
# 4 0.0000 0.0000 0.0000 20.4338 0.0000 0.1526
# 5 7.0915 13.3822 8.0532 0.0000 40.8300 0.0000
# 6 0.0000 0.0000 0.0000 0.1526 0.0000 35.2819
#
#
#
# Elastic Compliance Matrix: (Units=1/GPa)
#
#
# Indices 1 2 3 4 5 6 
#
# 1 0.010116 -0.003908 -0.004337 0.000000 0.000379 0.000000
# 2 -0.003908 0.014088 -0.000230 0.000000 -0.003893 0.000000
# 3 -0.004337 -0.000230 0.010275 0.000000 -0.001198 0.000000
# 4 0.000000 0.000000 0.000000 0.048940 0.000000 -0.000212
# 5 0.000379 -0.003893 -0.001198 0.000000 0.025938 0.000000
# 6 0.000000 0.000000 0.000000 -0.000212 0.000000 0.028344
#
#
# Mechanical properties :
#
#
# Convention : Reuss Voigt Hill
#
# Bulk Modulus (GPa) = 57.04453 66.88650 61.96551
# Shear Modulus (GPa) = 31.15377 34.49299 32.82338
#
# Velocity S-wave (km/s) = 3.76540 3.96206 3.86498
# Velocity P-wave (km/s) = 6.69818 7.16736 6.93673
#
# Compressibility (1/GPa) = 0.01753017
#
# Stress axis : x y z
#
# Youngs Moduli (GPa) = 98.85388 70.98079 97.32367
#
# Poissons Ratio (x) = 0.27736 0.42208
# Poissons Ratio (y) = 0.38628 0.02239
# Poissons Ratio (z) = 0.42871 0.01633
#
# Static dielectric constant tensor:
#      x y z
#    x 1.893840 0.000000 -0.036230 
#    y 0.000000 1.818300 0.000000 
#    z -0.036230 0.000000 2.088410 
# 
# From -- ./inp_files/108655.got.cif
#   From: 2010.05.17/outbox.cif.g08.bks.cpg/sg15_55_cif.got.tgz:108655.got - 2010.06.03 18:47:42.
