data_PCOD9304510
_publ_section_title
;
Structure prediction by ZEFSAII (Michael W. Deem and Ramdas Pophale) SiO2 
 PCOD9304510
Probable space group: C 2/C
;
_chemical_formula_sum "Si O2"
_cell_formula_units_Z 40
_cell_length_a 27.904397
_cell_length_b 5.163022
_cell_length_c 10.482371
_cell_angle_alpha 90.000000
_cell_angle_beta 89.669224
_cell_angle_gamma 90.000000
_cell_volume 1510.180669
_symmetry_space_group_name_H-M "C 2/C"
_symmetry_group_IT_number 15
_symmetry_cell_setting 'monoclinic'
loop_
_space_group_symop_operation_xyz
x,y,z
-x,y,1/2-z
-x,-y,-z
x,-y,1/2+z
1/2+x,1/2+y,z
1/2-x,1/2+y,1/2-z
1/2-x,1/2-y,-z
1/2+x,1/2-y,1/2+z
loop_
_atom_site_type_symbol
_atom_site_label
_atom_site_fract_x
_atom_site_fract_y
_atom_site_fract_z
Si Si1 0.671972 0.419019 0.326740
Si Si2 0.375519 0.118168 0.385720
Si Si3 0.952982 0.267869 0.296371
Si Si4 0.572771 0.497953 0.950734
Si Si5 0.709936 0.924219 0.430395
O O1 0.648134 0.349908 0.193521
O O2 0.626449 0.400099 0.422673
O O3 0.690101 0.711122 0.331962
O O4 0.712755 0.204672 0.361573
O O5 0.415986 0.224087 0.481305
O O6 0.330369 0.019663 0.463789
O O7 0.403982 0.929340 0.291763
O O8 0.954203 0.162392 0.441094
O O9 0.000000 0.420907 0.250000
O O10 0.950023 0.046845 0.187098
O O11 0.750000 0.750000 0.500000
#
# Coordination Sequence:
#
# PCOD9304510 Si02
#       5
#     8   8   8   8   8
#     4  11  23  44  71 103 147 193 242 308 379 446
#     4  11  24  44  71 100 153 194 255 308 393 447
#     4  12  26  45  73 109 152 206 263 325 384 460
#     4  11  24  46  72 106 149 203 252 320 383 461
#     4  11  25  43  72 109 146 192 249 309 379 460
#
# _framework density 26.486898
#
# number of rings (size 3 to 8) (size 9 to 14) (size 15 to 20)
#    0.000    0.800    4.000    3.600    0.000    3.200 
#    0.000    0.000    0.000    0.000    0.000    0.000 
#    0.000    0.000    0.000    0.000    0.000    0.000 
#
# Total GULP energy -111822.030217 kJ/mol
# GULP energy per Si atom -5591.101511 kJ/mol
# Density = 2.642661 g / cm^3
# Si number density = 26.486898 Si / 1000 Ang^3
#
#
#
# Elastic Constant Matrix: (Units=GPa)
#
#
# Indices 1 2 3 4 5 6 
#
# 1 74.0999 30.2549 7.9737 0.0000 -9.9834 0.0000
# 2 30.2549 79.8037 30.6471 0.0000 4.0849 0.0000
# 3 7.9737 30.6471 117.9944 0.0000 5.9713 0.0000
# 4 0.0000 0.0000 0.0000 36.6124 0.0000 2.3985
# 5 -9.9834 4.0849 5.9713 0.0000 48.7230 0.0000
# 6 0.0000 0.0000 0.0000 2.3985 0.0000 27.8578
#
#
#
# Elastic Compliance Matrix: (Units=1/GPa)
#
#
# Indices 1 2 3 4 5 6 
#
# 1 0.016715 -0.006696 0.000410 0.000000 0.003936 0.000000
# 2 -0.006696 0.016627 -0.003749 0.000000 -0.002307 0.000000
# 3 0.000410 -0.003749 0.009460 0.000000 -0.000761 0.000000
# 4 0.000000 0.000000 0.000000 0.027468 0.000000 -0.002365
# 5 0.003936 -0.002307 -0.000761 0.000000 0.021617 0.000000
# 6 0.000000 0.000000 0.000000 -0.002365 0.000000 0.036100
#
#
# Mechanical properties :
#
#
# Convention : Reuss Voigt Hill
#
# Bulk Modulus (GPa) = 43.99078 45.51660 44.75369
# Shear Modulus (GPa) = 32.12627 36.17346 34.14986
#
# Velocity S-wave (km/s) = 3.48647 3.69956 3.59459
# Velocity P-wave (km/s) = 5.73165 5.95574 5.84477
#
# Compressibility (1/GPa) = 0.02273204
#
# Stress axis : x y z
#
# Youngs Moduli (GPa) = 59.82473 60.14177 105.71267
#
# Poissons Ratio (x) = 0.40272 -0.04339
# Poissons Ratio (y) = 0.40060 0.39636
# Poissons Ratio (z) = -0.02456 0.22550
#
# Static dielectric constant tensor:
#      x y z
#    x 2.206720 0.000000 0.029260 
#    y 0.000000 2.220200 0.000000 
#    z 0.029260 0.000000 2.050620 
# 
# From -- ./inp_files/120721.got.cif
#   From: 2010.05.17/outbox.cif.g08.bks.cpg/sg15_61_cif.got.tgz:120721.got - 2010.06.03 18:47:42.
