data_PCOD9304274
_publ_section_title
;
Structure prediction by ZEFSAII (Michael W. Deem and Ramdas Pophale) SiO2 
 PCOD9304274
Probable space group: C 2/C
;
_chemical_formula_sum "Si O2"
_cell_formula_units_Z 40
_cell_length_a 17.893196
_cell_length_b 8.618880
_cell_length_c 11.668848
_cell_angle_alpha 90.000000
_cell_angle_beta 116.126768
_cell_angle_gamma 90.000000
_cell_volume 1615.685961
_symmetry_space_group_name_H-M "C 2/C"
_symmetry_group_IT_number 15
_symmetry_cell_setting 'monoclinic'
loop_
_space_group_symop_operation_xyz
x,y,z
-x,y,1/2-z
-x,-y,-z
x,-y,1/2+z
1/2+x,1/2+y,z
1/2-x,1/2+y,1/2-z
1/2-x,1/2-y,-z
1/2+x,1/2-y,1/2+z
loop_
_atom_site_type_symbol
_atom_site_label
_atom_site_fract_x
_atom_site_fract_y
_atom_site_fract_z
Si Si1 0.952249 0.357707 0.534426
Si Si2 0.391993 0.099374 0.229993
Si Si3 0.418088 0.558221 0.377915
Si Si4 0.374685 0.760347 0.162836
Si Si5 0.186584 0.231335 0.627536
O O1 0.883123 0.377894 0.588188
O O2 0.911156 0.228852 0.428500
O O3 0.000000 0.500000 0.500000
O O4 0.031852 0.303572 0.663513
O O5 0.321906 0.147657 0.273055
O O6 0.413755 0.917406 0.239326
O O7 0.500000 0.500000 0.500000
O O8 0.415610 0.605419 0.242161
O O9 0.345075 0.436208 0.352309
O O10 0.279579 0.765652 0.142745
O O11 0.371688 0.767223 0.022837
#
# Coordination Sequence:
#
# PCOD9304274 Si02
#       5
#     8   8   8   8   8
#     4  11  23  43  68 103 138 189 238 306 370 434
#     4  11  23  43  71  99 143 190 242 299 374 448
#     4  12  26  44  74 108 146 188 249 316 372 436
#     4  11  26  46  73  99 155 195 242 310 371 457
#     4  11  26  48  69 109 143 200 250 300 378 444
#
# _framework density 24.757287999999999
#
# number of rings (size 3 to 8) (size 9 to 14) (size 15 to 20)
#    0.000    0.800    4.000    2.400    2.800    0.800 
#    0.000    2.000    0.000    0.000    0.000    0.000 
#    0.000    0.000    0.000    0.000    0.000    0.000 
#
# Total GULP energy -111465.877266 kJ/mol
# GULP energy per Si atom -5573.293863 kJ/mol
# Density = 2.470094 g / cm^3
# Si number density = 24.757288 Si / 1000 Ang^3
#
#
#
# Elastic Constant Matrix: (Units=GPa)
#
#
# Indices 1 2 3 4 5 6 
#
# 1 107.5443 35.8696 41.5671 0.0000 -26.7923 0.0000
# 2 35.8696 106.1006 60.1365 0.0000 -20.6493 0.0000
# 3 41.5671 60.1365 129.6799 0.0000 -26.6166 0.0000
# 4 0.0000 0.0000 0.0000 33.3925 0.0000 4.0602
# 5 -26.7923 -20.6493 -26.6166 0.0000 50.8694 0.0000
# 6 0.0000 0.0000 0.0000 4.0602 0.0000 23.4466
#
#
#
# Elastic Compliance Matrix: (Units=1/GPa)
#
#
# Indices 1 2 3 4 5 6 
#
# 1 0.011822 -0.002043 -0.001943 0.000000 0.004381 0.000000
# 2 -0.002043 0.013392 -0.005221 0.000000 0.001628 0.000000
# 3 -0.001943 -0.005221 0.011327 0.000000 0.002784 0.000000
# 4 0.000000 0.000000 0.000000 0.030591 0.000000 -0.005297
# 5 0.004381 0.001628 0.002784 0.000000 0.024083 0.000000
# 6 0.000000 0.000000 0.000000 -0.005297 0.000000 0.043567
#
#
# Mechanical properties :
#
#
# Convention : Reuss Voigt Hill
#
# Bulk Modulus (GPa) = 55.16751 68.71902 61.94326
# Shear Modulus (GPa) = 31.39946 35.25847 33.32897
#
# Velocity S-wave (km/s) = 3.56517 3.77791 3.67308
# Velocity P-wave (km/s) = 6.26729 6.84452 6.56226
#
# Compressibility (1/GPa) = 0.01812661
#
# Stress axis : x y z
#
# Youngs Moduli (GPa) = 84.58652 74.67220 88.28732
#
# Poissons Ratio (x) = 0.15255 0.17154
# Poissons Ratio (y) = 0.17281 0.46096
# Poissons Ratio (z) = 0.16435 0.38988
#
# Static dielectric constant tensor:
#      x y z
#    x 2.085190 0.000000 -0.050130 
#    y 0.000000 2.014220 0.000000 
#    z -0.050130 0.000000 2.099540 
# 
# From -- ./inp_files/102859.got.cif
#   From: 2010.05.17/outbox.cif.g08.bks.cpg/sg15_52_cif.got.tgz:102859.got - 2010.06.03 18:47:42.
