data_PCOD9304001
_publ_section_title
;
Structure prediction by ZEFSAII (Michael W. Deem and Ramdas Pophale) SiO2 
 PCOD9304001
Probable space group: C 2/C
;
_chemical_formula_sum "Si O2"
_cell_formula_units_Z 36
_cell_length_a 5.408071
_cell_length_b 25.900232
_cell_length_c 11.785423
_cell_angle_alpha 90.000000
_cell_angle_beta 91.691542
_cell_angle_gamma 90.000000
_cell_volume 1650.068293
_symmetry_space_group_name_H-M "C 2/C"
_symmetry_group_IT_number 15
_symmetry_cell_setting 'monoclinic'
loop_
_space_group_symop_operation_xyz
x,y,z
-x,y,1/2-z
-x,-y,-z
x,-y,1/2+z
1/2+x,1/2+y,z
1/2-x,1/2+y,1/2-z
1/2-x,1/2-y,-z
1/2+x,1/2-y,1/2+z
loop_
_atom_site_type_symbol
_atom_site_label
_atom_site_fract_x
_atom_site_fract_y
_atom_site_fract_z
Si Si1 0.300670 0.207568 0.827383
Si Si2 0.510105 0.561740 0.995674
Si Si3 0.524188 0.900066 0.620933
Si Si4 0.445909 0.786575 0.938633
Si Si5 0.000000 0.114452 0.750000
O O1 0.500000 0.234885 0.750000
O O2 0.221632 0.156134 0.760749
O O3 0.092192 0.247681 0.860591
O O4 0.400328 0.192463 0.951634
O O5 0.496707 0.582204 0.865519
O O6 0.500000 0.500000 0.000000
O O7 0.258959 0.577659 0.056913
O O8 0.761795 0.585153 0.056461
O O9 0.500000 0.919211 0.750000
O O10 0.601354 0.839297 0.626970
O O11 0.250000 0.750000 0.000000
#
# Coordination Sequence:
#
# PCOD9304001 Si02
#       5
#     8   8   8   8   4
#     4  11  23  41  69 104 146 195 252 300 375 457
#     4  12  29  54  81 113 148 208 265 332 398 456
#     4  12  28  50  77 116 160 198 256 325 395 470
#     4  11  25  43  67 109 153 200 252 300 379 471
#     4  12  26  48  78 108 158 192 270 324 382 480
#
# _framework density 21.817278000000002
#
# number of rings (size 3 to 8) (size 9 to 14) (size 15 to 20)
#    0.000    0.444    2.222    5.333   10.889    0.000 
#    0.000    0.000    0.000    0.000    0.000    0.000 
#    0.000    0.000    0.000    0.000    0.000    0.000 
#
# Total GULP energy -100467.387045 kJ/mol
# GULP energy per Si atom -5581.521502 kJ/mol
# Density = 2.176762 g / cm^3
# Si number density = 21.817278 Si / 1000 Ang^3
#
#
#
# Elastic Constant Matrix: (Units=GPa)
#
#
# Indices 1 2 3 4 5 6 
#
# 1 154.6042 54.1158 79.3239 0.0000 -35.1989 0.0000
# 2 54.1158 148.8385 52.7331 0.0000 -21.2346 0.0000
# 3 79.3239 52.7331 195.9919 0.0000 -14.6959 0.0000
# 4 0.0000 0.0000 0.0000 27.9400 0.0000 8.4616
# 5 -35.1989 -21.2346 -14.6959 0.0000 57.1324 0.0000
# 6 0.0000 0.0000 0.0000 8.4616 0.0000 24.1545
#
#
#
# Elastic Compliance Matrix: (Units=1/GPa)
#
#
# Indices 1 2 3 4 5 6 
#
# 1 0.009721 -0.001785 -0.003115 0.000000 0.004524 0.000000
# 2 -0.001785 0.008061 -0.001330 0.000000 0.001554 0.000000
# 3 -0.003115 -0.001330 0.006668 0.000000 -0.000698 0.000000
# 4 0.000000 0.000000 0.000000 0.040039 0.000000 -0.014026
# 5 0.004524 0.001554 -0.000698 0.000000 0.020689 0.000000
# 6 0.000000 0.000000 0.000000 -0.014026 0.000000 0.046314
#
#
# Mechanical properties :
#
#
# Convention : Reuss Voigt Hill
#
# Bulk Modulus (GPa) = 83.40018 96.86447 90.13232
# Shear Modulus (GPa) = 33.79564 42.72952 38.26258
#
# Velocity S-wave (km/s) = 3.94004 4.43032 4.19235
# Velocity P-wave (km/s) = 7.68168 8.40623 8.05211
#
# Compressibility (1/GPa) = 0.01199038
#
# Stress axis : x y z
#
# Youngs Moduli (GPa) = 102.86637 124.05960 149.96223
#
# Poissons Ratio (x) = 0.22151 0.46711
# Poissons Ratio (y) = 0.18367 0.19939
# Poissons Ratio (z) = 0.32042 0.16495
#
# Static dielectric constant tensor:
#      x y z
#    x 1.923970 0.000000 0.089360 
#    y 0.000000 1.787370 0.000000 
#    z 0.089360 0.000000 1.823070 
# 
# From -- ./inp_files/72576.got.cif
#   From: 2010.05.17/outbox.cif.g08.bks.cpg/sg15_37_cif.got.tgz:72576.got - 2010.06.03 18:47:42.
