data_PCOD9304124
_publ_section_title
;
Structure prediction by ZEFSAII (Michael W. Deem and Ramdas Pophale) SiO2 
 PCOD9304124
Probable space group: C 2/C
;
_chemical_formula_sum "Si O2"
_cell_formula_units_Z 52
_cell_length_a 13.872179
_cell_length_b 5.505295
_cell_length_c 26.778305
_cell_angle_alpha 90.000000
_cell_angle_beta 107.850579
_cell_angle_gamma 90.000000
_cell_volume 1946.619450
_symmetry_space_group_name_H-M "C 2/C"
_symmetry_group_IT_number 15
_symmetry_cell_setting 'monoclinic'
loop_
_space_group_symop_operation_xyz
x,y,z
-x,y,1/2-z
-x,-y,-z
x,-y,1/2+z
1/2+x,1/2+y,z
1/2-x,1/2+y,1/2-z
1/2-x,1/2-y,-z
1/2+x,1/2-y,1/2+z
loop_
_atom_site_type_symbol
_atom_site_label
_atom_site_fract_x
_atom_site_fract_y
_atom_site_fract_z
Si Si1 0.187130 0.372252 0.808917
Si Si2 0.079343 0.084079 0.054326
Si Si3 0.143443 0.611528 0.483647
Si Si4 0.888367 0.056444 0.789082
Si Si5 0.047805 0.927520 0.381972
Si Si6 0.206410 0.664986 0.908342
Si Si7 0.500000 0.184689 0.750000
O O1 0.160242 0.131022 0.772421
O O2 0.294040 0.472918 0.806691
O O3 0.179488 0.438054 0.866346
O O4 0.099314 0.536028 0.773320
O O5 0.029800 0.107238 0.100507
O O6 0.172706 0.890128 0.070522
O O7 0.110238 0.345822 0.035222
O O8 0.000000 0.000000 0.000000
O O9 0.250000 0.750000 0.500000
O O10 0.164816 0.363342 0.458214
O O11 0.075811 0.750918 0.432258
O O12 0.970574 0.850376 0.791453
O O13 0.970376 0.219855 0.832132
O O14 0.148659 0.086567 0.382102
#
# Coordination Sequence:
#
# PCOD9304124 Si02
#       7
#     8   8   8   8   8   8   4
#     4  12  26  45  71 103 144 189 244 305 363 445
#     4   9  20  41  67  98 137 170 227 287 342 425
#     4   9  22  41  64 100 136 173 222 288 346 421
#     4  12  26  45  71 104 142 189 246 303 368 434
#     4  11  23  42  70  96 133 186 231 286 357 428
#     4  11  23  42  68  98 135 183 232 281 364 427
#     4  12  26  48  72 100 140 192 238 300 376 416
#
# _framework density 26.712978
#
# number of rings (size 3 to 8) (size 9 to 14) (size 15 to 20)
#    0.000    1.231    4.615    0.462    4.308    6.154 
#    0.000    4.615    0.000    0.000    0.000    0.000 
#    0.000    0.000    0.000    0.000    0.000    0.000 
#
# Total GULP energy -144811.847234 kJ/mol
# GULP energy per Si atom -5569.686432 kJ/mol
# Density = 2.665218 g / cm^3
# Si number density = 26.712978 Si / 1000 Ang^3
#
#
#
# Elastic Constant Matrix: (Units=GPa)
#
#
# Indices 1 2 3 4 5 6 
#
# 1 139.1044 16.1409 42.2158 0.0000 18.7848 0.0000
# 2 16.1409 46.7212 17.6452 0.0000 3.7635 0.0000
# 3 42.2158 17.6452 139.2397 0.0000 16.6255 0.0000
# 4 0.0000 0.0000 0.0000 31.9170 0.0000 6.9505
# 5 18.7848 3.7635 16.6255 0.0000 77.4942 0.0000
# 6 0.0000 0.0000 0.0000 6.9505 0.0000 40.3950
#
#
#
# Elastic Compliance Matrix: (Units=1/GPa)
#
#
# Indices 1 2 3 4 5 6 
#
# 1 0.008242 -0.001945 -0.002078 0.000000 -0.001458 0.000000
# 2 -0.001945 0.022957 -0.002302 0.000000 -0.000150 0.000000
# 3 -0.002078 -0.002302 0.008241 0.000000 -0.001152 0.000000
# 4 0.000000 0.000000 0.000000 0.032551 0.000000 -0.005601
# 5 -0.001458 -0.000150 -0.001152 0.000000 0.013512 0.000000
# 6 0.000000 0.000000 0.000000 -0.005601 0.000000 0.025719
#
#
# Mechanical properties :
#
#
# Convention : Reuss Voigt Hill
#
# Bulk Modulus (GPa) = 37.32727 53.00769 45.16748
# Shear Modulus (GPa) = 37.64985 46.56546 42.10766
#
# Velocity S-wave (km/s) = 3.75830 4.17967 3.97457
# Velocity P-wave (km/s) = 5.73035 6.57110 6.16507
#
# Compressibility (1/GPa) = 0.02679007
#
# Stress axis : x y z
#
# Youngs Moduli (GPa) = 121.32797 43.56001 121.34032
#
# Poissons Ratio (x) = 0.08473 0.25219
# Poissons Ratio (y) = 0.23599 0.27928
# Poissons Ratio (z) = 0.25217 0.10026
#
# Static dielectric constant tensor:
#      x y z
#    x 2.161850 0.000000 -0.110200 
#    y 0.000000 2.289420 0.000000 
#    z -0.110200 0.000000 2.476660 
# 
# From -- ./inp_files/312406.got.cif
#   From: 2010.05.17/outbox.cif.g08.bks.cpg/sg15_157_cif.got.tgz:312406.got - 2010.06.03 18:47:42.
