data_PCOD9304860
_publ_section_title
;
Structure prediction by ZEFSAII (Michael W. Deem and Ramdas Pophale) SiO2 
 PCOD9304860
Probable space group: C 2/C
;
_chemical_formula_sum "Si O2"
_cell_formula_units_Z 36
_cell_length_a 18.955378
_cell_length_b 6.840756
_cell_length_c 19.381665
_cell_angle_alpha 90.000000
_cell_angle_beta 38.761732
_cell_angle_gamma 90.000000
_cell_volume 1573.474278
_symmetry_space_group_name_H-M "C 2/C"
_symmetry_group_IT_number 15
_symmetry_cell_setting 'monoclinic'
loop_
_space_group_symop_operation_xyz
x,y,z
-x,y,1/2-z
-x,-y,-z
x,-y,1/2+z
1/2+x,1/2+y,z
1/2-x,1/2+y,1/2-z
1/2-x,1/2-y,-z
1/2+x,1/2-y,1/2+z
loop_
_atom_site_type_symbol
_atom_site_label
_atom_site_fract_x
_atom_site_fract_y
_atom_site_fract_z
Si Si1 0.819852 0.479967 0.168629
Si Si2 0.532281 0.698012 0.013546
Si Si3 0.500000 0.322843 0.250000
Si Si4 0.691584 0.824787 0.682199
Si Si5 0.673231 0.569917 0.032471
O O1 0.921189 0.328128 0.099447
O O2 0.734909 0.382993 0.178939
O O3 0.781079 0.531875 0.274970
O O4 0.873479 0.677319 0.097973
O O5 0.579268 0.654672 0.052861
O O6 0.500000 0.500000 0.000000
O O7 0.440549 0.194263 0.235738
O O8 0.602694 0.453718 0.143732
O O9 0.754492 0.914208 0.567788
O O10 0.750000 0.750000 0.000000
#
# Coordination Sequence:
#
# PCOD9304860 Si02
#       5
#     8   8   4   8   8
#     4  11  26  44  78 107 150 188 255 316 377 449
#     4  11  23  47  75 109 142 197 251 315 377 447
#     4  12  30  46  74 106 156 196 248 308 380 452
#     4  12  27  48  75 111 150 198 252 315 381 453
#     4  12  28  47  74 105 155 197 255 303 386 450
#
# _framework density 22.879306
#
# number of rings (size 3 to 8) (size 9 to 14) (size 15 to 20)
#    0.000    0.444    2.222    4.667   12.444    0.000 
#    0.000    0.000    0.000    0.000    0.000    0.000 
#    0.000    0.000    0.000    0.000    0.000    0.000 
#
# Total GULP energy -100790.938515 kJ/mol
# GULP energy per Si atom -5599.496584 kJ/mol
# Density = 2.282723 g / cm^3
# Si number density = 22.879306 Si / 1000 Ang^3
#
#
#
# Elastic Constant Matrix: (Units=GPa)
#
#
# Indices 1 2 3 4 5 6 
#
# 1 166.3313 51.7313 12.5523 0.0000 -7.5174 0.0001
# 2 51.7313 136.2522 41.7231 0.0000 3.3069 -0.0006
# 3 12.5523 41.7231 95.4690 -0.0003 12.7297 0.0003
# 4 0.0000 0.0000 -0.0003 3.6562 -0.0001 14.8428
# 5 -7.5174 3.3069 12.7297 -0.0001 33.0056 -0.0001
# 6 0.0001 -0.0006 0.0003 14.8428 -0.0001 48.8840
#
#
#
# Elastic Compliance Matrix: (Units=1/GPa)
#
#
# Indices 1 2 3 4 5 6 
#
# 1 0.006927 -0.002679 0.000015 -0.000001 0.001841 0.000000
# 2 -0.002679 0.009521 -0.003795 0.000004 -0.000100 -0.000001
# 3 0.000015 -0.003795 0.012735 -0.000006 -0.004528 0.000002
# 4 -0.000001 0.000004 -0.000006 -1.175625 -0.000001 0.356959
# 5 0.001841 -0.000100 -0.004528 -0.000001 0.032474 0.000001
# 6 0.000000 -0.000001 0.000002 0.356959 0.000001 -0.087928
#
#
# Mechanical properties :
#
#
# Convention : Reuss Voigt Hill
#
# Bulk Modulus (GPa) = 61.48636 67.78510 64.63573
# Shear Modulus (GPa) = -4.22456 36.57886 16.17715
#
# Velocity S-wave (km/s) = -1.36032 4.00281 2.66195
# Velocity P-wave (km/s) = 4.94624 7.14527 6.14492
#
# Compressibility (1/GPa) = 0.01626377
#
# Stress axis : x y z
#
# Youngs Moduli (GPa) = 144.35239 105.02776 78.52262
#
# Poissons Ratio (x) = 0.28141 -0.00116
# Poissons Ratio (y) = 0.38677 0.29803
# Poissons Ratio (z) = -0.00212 0.39863
#
# Static dielectric constant tensor:
#      x y z
#    x 1.844160 0.000000 0.010110 
#    y 0.000000 1.890260 0.000000 
#    z 0.010110 0.000000 1.857630 
# 
# From -- ./inp_files/179941.got.cif
#   From: 2010.05.17/outbox.cif.g08.bks.cpg/sg15_90_cif.got.tgz:179941.got - 2010.06.03 18:47:42.
