data_PCOD9304111
_publ_section_title
;
Structure prediction by ZEFSAII (Michael W. Deem and Ramdas Pophale) SiO2 
 PCOD9304111
Probable space group: C 2/C
;
_chemical_formula_sum "Si O2"
_cell_formula_units_Z 40
_cell_length_a 6.602850
_cell_length_b 23.058258
_cell_length_c 11.349809
_cell_angle_alpha 90.000000
_cell_angle_beta 84.739860
_cell_angle_gamma 90.000000
_cell_volume 1720.733763
_symmetry_space_group_name_H-M "C 2/C"
_symmetry_group_IT_number 15
_symmetry_cell_setting 'monoclinic'
loop_
_space_group_symop_operation_xyz
x,y,z
-x,y,1/2-z
-x,-y,-z
x,-y,1/2+z
1/2+x,1/2+y,z
1/2-x,1/2+y,1/2-z
1/2-x,1/2-y,-z
1/2+x,1/2-y,1/2+z
loop_
_atom_site_type_symbol
_atom_site_label
_atom_site_fract_x
_atom_site_fract_y
_atom_site_fract_z
Si Si1 0.000000 0.261452 0.750000
Si Si2 0.197505 0.152532 0.180526
Si Si3 0.527683 0.416987 0.109490
Si Si4 0.215478 0.505759 0.546221
Si Si5 0.500000 0.064128 0.250000
Si Si6 0.567813 0.702254 0.513867
O O1 0.801541 0.302426 0.766933
O O2 0.041737 0.223291 0.861258
O O3 0.376951 0.105271 0.164080
O O4 0.000000 0.124179 0.250000
O O5 0.100583 0.189693 0.078445
O O6 0.500000 0.411561 0.250000
O O7 0.304602 0.430705 0.067965
O O8 0.639323 0.362491 0.044338
O O9 0.645175 0.473244 0.057243
O O10 0.000000 0.500000 0.500000
O O11 0.171943 0.473041 0.672937
O O12 0.750000 0.750000 0.500000
#
# Coordination Sequence:
#
# PCOD9304111 Si02
#       6
#     4   8   8   8   4   8
#     4  11  24  44  66 100 134 186 238 293 370 436
#     4  11  23  42  68 102 140 187 239 297 361 438
#     4  11  25  45  69 101 144 185 236 299 363 429
#     4  11  24  45  71 103 141 188 240 301 363 435
#     4  11  24  42  74 108 142 192 250 293 374 450
#     4  12  24  45  70 100 143 186 241 300 368 435
#
# _framework density 23.245895999999998
#
# number of rings (size 3 to 8) (size 9 to 14) (size 15 to 20)
#    0.000    0.800    3.000    4.200    2.800    4.000 
#    3.600    2.000    0.000    0.000    0.000    0.000 
#    0.000    0.000    0.000    0.000    0.000    0.000 
#
# Total GULP energy -111393.798189 kJ/mol
# GULP energy per Si atom -5569.689909 kJ/mol
# Density = 2.319299 g / cm^3
# Si number density = 23.245896 Si / 1000 Ang^3
#
#
#
# Elastic Constant Matrix: (Units=GPa)
#
#
# Indices 1 2 3 4 5 6 
#
# 1 83.3942 24.0207 33.1231 0.0000 21.9860 0.0000
# 2 24.0207 94.8552 36.6236 0.0000 13.1407 0.0000
# 3 33.1231 36.6236 121.4201 0.0000 24.0396 0.0000
# 4 0.0000 0.0000 0.0000 26.5611 0.0000 1.1507
# 5 21.9860 13.1407 24.0396 0.0000 36.7184 0.0000
# 6 0.0000 0.0000 0.0000 1.1507 0.0000 47.8389
#
#
#
# Elastic Compliance Matrix: (Units=1/GPa)
#
#
# Indices 1 2 3 4 5 6 
#
# 1 0.015291 -0.002068 -0.002162 0.000000 -0.007001 0.000000
# 2 -0.002068 0.012368 -0.002913 0.000000 -0.001281 0.000000
# 3 -0.002162 -0.002913 0.010618 0.000000 -0.004615 0.000000
# 4 0.000000 0.000000 0.000000 0.037688 0.000000 -0.000907
# 5 -0.007001 -0.001281 -0.004615 0.000000 0.034906 0.000000
# 6 0.000000 0.000000 0.000000 -0.000907 0.000000 0.020925
#
#
# Mechanical properties :
#
#
# Convention : Reuss Voigt Hill
#
# Bulk Modulus (GPa) = 41.67972 54.13381 47.90677
# Shear Modulus (GPa) = 32.45102 35.95050 34.20076
#
# Velocity S-wave (km/s) = 3.74035 3.93686 3.83986
# Velocity P-wave (km/s) = 6.05165 6.63349 6.34924
#
# Compressibility (1/GPa) = 0.02399248
#
# Stress axis : x y z
#
# Youngs Moduli (GPa) = 65.39770 80.85289 94.18155
#
# Poissons Ratio (x) = 0.16719 0.20359
# Poissons Ratio (y) = 0.13523 0.27433
# Poissons Ratio (z) = 0.14137 0.23551
#
# Static dielectric constant tensor:
#      x y z
#    x 2.244990 0.000000 -0.117520 
#    y 0.000000 2.078940 0.000000 
#    z -0.117520 0.000000 2.012920 
# 
# From -- ./inp_files/73370.got.cif
#   From: 2010.05.17/outbox.cif.g08.bks.cpg/sg15_37_cif.got.tgz:73370.got - 2010.06.03 18:47:42.
