data_PCOD9304321
_publ_section_title
;
Structure prediction by ZEFSAII (Michael W. Deem and Ramdas Pophale) SiO2 
 PCOD9304321
Probable space group: C 2/C
;
_chemical_formula_sum "Si O2"
_cell_formula_units_Z 60
_cell_length_a 11.251190
_cell_length_b 22.034890
_cell_length_c 15.944281
_cell_angle_alpha 90.000000
_cell_angle_beta 43.227703
_cell_angle_gamma 90.000000
_cell_volume 2707.329572
_symmetry_space_group_name_H-M "C 2/C"
_symmetry_group_IT_number 15
_symmetry_cell_setting 'monoclinic'
loop_
_space_group_symop_operation_xyz
x,y,z
-x,y,1/2-z
-x,-y,-z
x,-y,1/2+z
1/2+x,1/2+y,z
1/2-x,1/2+y,1/2-z
1/2-x,1/2-y,-z
1/2+x,1/2-y,1/2+z
loop_
_atom_site_type_symbol
_atom_site_label
_atom_site_fract_x
_atom_site_fract_y
_atom_site_fract_z
Si Si1 0.192743 0.533137 0.623105
Si Si2 0.117520 0.444517 0.973403
Si Si3 0.863225 0.353950 0.057998
Si Si4 0.134397 0.857435 0.753492
Si Si5 0.918385 0.252530 0.618940
Si Si6 0.538339 0.369199 0.478922
Si Si7 0.500000 0.304764 0.250000
Si Si8 0.834617 0.393451 0.886103
O O1 0.207801 0.539934 0.514587
O O2 0.341092 0.571738 0.592899
O O3 0.197270 0.460859 0.634199
O O4 0.000000 0.553126 0.750000
O O5 0.254155 0.415487 0.837187
O O6 0.000000 0.500000 0.000000
O O7 0.980643 0.390536 0.061382
O O8 0.663593 0.348126 0.179093
O O9 0.884558 0.388055 0.957676
O O10 0.934384 0.286154 0.010852
O O11 0.266763 0.802296 0.702961
O O12 0.024983 0.869315 0.892787
O O13 0.000000 0.840761 0.750000
O O14 0.999354 0.236185 0.667312
O O15 0.861766 0.191223 0.601309
O O16 0.355292 0.364602 0.523892
O O17 0.000000 0.368546 0.750000
#
# Coordination Sequence:
#
# PCOD9304321 Si02
#       8
#     8   8   8   8   8   8   4   8
#     4  11  26  44  69 101 139 185 230 287 349 415
#     4  11  23  47  68  97 136 180 227 283 348 404
#     4  11  24  41  67  98 131 176 224 279 343 405
#     4  11  25  47  71 100 131 184 236 280 342 417
#     4  11  26  42  69  99 139 179 221 287 341 413
#     4  12  25  47  69 101 141 182 235 284 347 421
#     4  12  24  44  64 104 134 170 226 276 348 406
#     4  11  23  43  70 102 135 179 229 286 348 409
#
# _framework density 22.162058999999999
#
# number of rings (size 3 to 8) (size 9 to 14) (size 15 to 20)
#    0.000    0.800    4.000    3.200    6.533    1.067 
#    3.600    0.000    0.000    0.000    0.000    0.000 
#    0.000    0.000    0.000    0.000    0.000    0.000 
#
# Total GULP energy -167674.750338 kJ/mol
# GULP energy per Si atom -5589.158345 kJ/mol
# Density = 2.211162 g / cm^3
# Si number density = 22.162059 Si / 1000 Ang^3
#
#
#
# Elastic Constant Matrix: (Units=GPa)
#
#
# Indices 1 2 3 4 5 6 
#
# 1 60.7772 0.1457 -11.5989 0.0001 -2.8290 0.0000
# 2 0.1457 85.5664 18.7569 0.0000 1.0638 0.0000
# 3 -11.5989 18.7569 50.4011 0.0002 -10.7818 0.0000
# 4 0.0001 0.0000 0.0002 12.5716 -0.0001 -0.5511
# 5 -2.8290 1.0638 -10.7818 -0.0001 34.2901 0.0000
# 6 0.0000 0.0000 0.0000 -0.5511 0.0000 38.4108
#
#
#
# Elastic Compliance Matrix: (Units=1/GPa)
#
#
# Indices 1 2 3 4 5 6 
#
# 1 0.017586 -0.001199 0.005159 0.000000 0.003110 0.000000
# 2 -0.001199 0.012939 -0.005573 0.000000 -0.002253 0.000000
# 3 0.005159 -0.005573 0.024905 0.000000 0.008429 0.000000
# 4 0.000000 0.000000 0.000000 0.079594 0.000000 0.001142
# 5 0.003110 -0.002253 0.008429 0.000000 0.032140 0.000000
# 6 0.000000 0.000000 0.000000 0.001142 0.000000 0.026051
#
#
# Mechanical properties :
#
#
# Convention : Reuss Voigt Hill
#
# Bulk Modulus (GPa) = 19.15638 23.48357 21.31997
# Shear Modulus (GPa) = 23.38170 29.68390 26.53280
#
# Velocity S-wave (km/s) = 3.25165 3.66375 3.46384
# Velocity P-wave (km/s) = 4.77076 5.34011 5.06344
#
# Compressibility (1/GPa) = 0.05220193
#
# Stress axis : x y z
#
# Youngs Moduli (GPa) = 56.86445 77.28847 40.15214
#
# Poissons Ratio (x) = 0.09270 -0.20713
# Poissons Ratio (y) = 0.06821 0.22377
# Poissons Ratio (z) = -0.29335 0.43073
#
# Static dielectric constant tensor:
#      x y z
#    x 1.841180 0.000000 0.002750 
#    y 0.000000 1.833610 0.000000 
#    z 0.002750 0.000000 1.830570 
# 
# From -- ./inp_files/200500.got.cif
#   From: 2010.05.17/outbox.cif.g08.bks.cpg/sg15_101_cif.got.tgz:200500.got - 2010.06.03 18:47:42.
