data_PCOD9304846
_publ_section_title
;
Structure prediction by ZEFSAII (Michael W. Deem and Ramdas Pophale) SiO2 
 PCOD9304846
Probable space group: C 2/C
;
_chemical_formula_sum "Si O2"
_cell_formula_units_Z 32
_cell_length_a 19.143335
_cell_length_b 6.587858
_cell_length_c 14.982811
_cell_angle_alpha 90.000000
_cell_angle_beta 45.880726
_cell_angle_gamma 90.000000
_cell_volume 1356.482945
_symmetry_space_group_name_H-M "C 2/C"
_symmetry_group_IT_number 15
_symmetry_cell_setting 'monoclinic'
loop_
_space_group_symop_operation_xyz
x,y,z
-x,y,1/2-z
-x,-y,-z
x,-y,1/2+z
1/2+x,1/2+y,z
1/2-x,1/2+y,1/2-z
1/2-x,1/2-y,-z
1/2+x,1/2-y,1/2+z
loop_
_atom_site_type_symbol
_atom_site_label
_atom_site_fract_x
_atom_site_fract_y
_atom_site_fract_z
Si Si1 0.144610 0.013277 0.306668
Si Si2 0.528194 0.803337 0.032859
Si Si3 0.746860 0.682866 0.380955
Si Si4 0.604750 0.070329 0.114308
O O1 0.225133 0.101048 0.302395
O O2 0.068877 0.187948 0.349241
O O3 0.085939 0.848230 0.417421
O O4 0.194599 0.893920 0.182209
O O5 0.500000 0.000000 0.000000
O O6 0.589866 0.881764 0.061599
O O7 0.646208 0.742404 0.518390
O O8 0.814792 0.542415 0.380598
O O9 0.500000 0.116525 0.250000
#
# Coordination Sequence:
#
# PCOD9304846 Si02
#       4
#     8   8   8   8
#     4  11  25  45  78 104 142 196 249 299 365 439
#     4  11  23  47  73 104 144 195 240 299 370 437
#     4  11  25  45  75 106 144 191 248 303 359 442
#     4  11  25  46  68 105 153 181 240 307 360 431
#
# _framework density 23.590420000000002
#
# number of rings (size 3 to 8) (size 9 to 14) (size 15 to 20)
#    0.000    1.000    2.500    3.000    7.000    1.000 
#    9.000    0.000    0.000    0.000    0.000    0.000 
#    0.000    0.000    0.000    0.000    0.000    0.000 
#
# Total GULP energy -89641.920775 kJ/mol
# GULP energy per Si atom -5602.620048 kJ/mol
# Density = 2.353673 g / cm^3
# Si number density = 23.590420 Si / 1000 Ang^3
#
#
#
# Elastic Constant Matrix: (Units=GPa)
#
#
# Indices 1 2 3 4 5 6 
#
# 1 116.5369 37.2836 -3.3415 0.0014 -5.2303 -0.0029
# 2 37.2836 94.9919 25.6378 -0.0073 -12.9755 0.0063
# 3 -3.3415 25.6378 99.8991 -0.0002 -9.5386 0.0006
# 4 0.0014 -0.0073 -0.0002 34.8213 0.0018 -6.1347
# 5 -5.2303 -12.9755 -9.5386 0.0018 23.7122 -0.0015
# 6 -0.0029 0.0063 0.0006 -6.1347 -0.0015 47.5949
#
#
#
# Elastic Compliance Matrix: (Units=1/GPa)
#
#
# Indices 1 2 3 4 5 6 
#
# 1 0.010008 -0.004262 0.001473 -0.000001 0.000468 0.000001
# 2 -0.004262 0.013783 -0.003171 0.000003 0.005327 -0.000002
# 3 0.001473 -0.003171 0.011168 -0.000001 0.003082 0.000000
# 4 -0.000001 0.000003 -0.000001 0.029385 -0.000001 0.003788
# 5 0.000468 0.005327 0.003082 -0.000001 0.046430 0.000001
# 6 0.000001 -0.000002 0.000000 0.003788 0.000001 0.021499
#
#
# Mechanical properties :
#
#
# Convention : Reuss Voigt Hill
#
# Bulk Modulus (GPa) = 43.40458 47.84309 45.62384
# Shear Modulus (GPa) = 32.92248 38.01556 35.46902
#
# Velocity S-wave (km/s) = 3.73981 4.01868 3.88175
# Velocity P-wave (km/s) = 6.08994 6.46976 6.28272
#
# Compressibility (1/GPa) = 0.02303904
#
# Stress axis : x y z
#
# Youngs Moduli (GPa) = 99.92381 72.55126 89.54551
#
# Poissons Ratio (x) = 0.30918 -0.13191
# Poissons Ratio (y) = 0.42583 0.28397
# Poissons Ratio (z) = -0.14720 0.23008
#
# Static dielectric constant tensor:
#      x y z
#    x 1.892770 0.000000 -0.003370 
#    y 0.000000 1.891310 0.000000 
#    z -0.003370 0.000000 1.915320 
# 
# From -- ./inp_files/217379.got.cif
#   From: 2010.05.17/outbox.cif.g08.bks.cpg/sg15_109_cif.got.tgz:217379.got - 2010.06.03 18:47:42.
