data_PCOD9304466
_publ_section_title
;
Structure prediction by ZEFSAII (Michael W. Deem and Ramdas Pophale) SiO2 
 PCOD9304466
Probable space group: C 2/C
;
_chemical_formula_sum "Si O2"
_cell_formula_units_Z 48
_cell_length_a 14.082679
_cell_length_b 6.936926
_cell_length_c 18.514338
_cell_angle_alpha 90.000000
_cell_angle_beta 89.273492
_cell_angle_gamma 90.000000
_cell_volume 1808.529577
_symmetry_space_group_name_H-M "C 2/C"
_symmetry_group_IT_number 15
_symmetry_cell_setting 'monoclinic'
loop_
_space_group_symop_operation_xyz
x,y,z
-x,y,1/2-z
-x,-y,-z
x,-y,1/2+z
1/2+x,1/2+y,z
1/2-x,1/2+y,1/2-z
1/2-x,1/2-y,-z
1/2+x,1/2-y,1/2+z
loop_
_atom_site_type_symbol
_atom_site_label
_atom_site_fract_x
_atom_site_fract_y
_atom_site_fract_z
Si Si1 0.604247 0.090683 0.712291
Si Si2 0.901321 0.832401 0.126601
Si Si3 0.743857 0.998696 0.910448
Si Si4 0.447027 0.059870 0.426265
Si Si5 0.691019 0.662963 0.730938
Si Si6 0.642398 0.354541 0.970733
O O1 0.500000 0.126390 0.750000
O O2 0.594404 0.106480 0.624387
O O3 0.641113 0.868995 0.720435
O O4 0.698479 0.187166 0.746058
O O5 0.814816 0.693809 0.103059
O O6 0.868897 0.921717 0.201947
O O7 0.983449 0.676224 0.126980
O O8 0.926449 0.002231 0.070654
O O9 0.811118 0.039316 0.841795
O O10 0.678946 0.194473 0.914108
O O11 0.785802 0.999222 0.990489
O O12 0.380729 0.223032 0.460125
O O13 0.500000 0.000000 0.500000
#
# Coordination Sequence:
#
# PCOD9304466 Si02
#       6
#     8   8   8   8   8   8
#     4  12  26  51  78 111 160 206 263 336 399 478
#     4  12  25  44  74 109 149 201 262 317 396 478
#     4  11  23  44  69 106 148 192 253 330 381 462
#     4  12  25  48  74 108 159 208 259 336 397 466
#     4  12  24  46  78 110 149 208 261 318 408 469
#     4  11  25  41  71 105 148 200 257 311 397 468
#
# _framework density 26.540897999999999
#
# number of rings (size 3 to 8) (size 9 to 14) (size 15 to 20)
#    0.000    0.333    6.667    2.000    2.333    1.333 
#    0.000    0.833    0.000    0.000    0.000    0.000 
#    0.000    0.000    0.000    0.000    0.000    0.000 
#
# Total GULP energy -134027.529717 kJ/mol
# GULP energy per Si atom -5584.480405 kJ/mol
# Density = 2.648049 g / cm^3
# Si number density = 26.540898 Si / 1000 Ang^3
#
#
#
# Elastic Constant Matrix: (Units=GPa)
#
#
# Indices 1 2 3 4 5 6 
#
# 1 92.9936 -2.9627 43.3190 0.0000 -2.3891 0.0000
# 2 -2.9627 51.6594 36.9365 0.0000 0.6468 0.0000
# 3 43.3190 36.9365 155.8002 0.0000 -6.4210 0.0000
# 4 0.0000 0.0000 0.0000 45.8857 0.0000 7.9140
# 5 -2.3891 0.6468 -6.4210 0.0000 49.8016 0.0000
# 6 0.0000 0.0000 0.0000 7.9140 0.0000 37.7593
#
#
#
# Elastic Compliance Matrix: (Units=1/GPa)
#
#
# Indices 1 2 3 4 5 6 
#
# 1 0.013009 0.004013 -0.004569 0.000000 -0.000017 0.000000
# 2 0.004013 0.024598 -0.006990 0.000000 -0.001028 0.000000
# 3 -0.004569 -0.006990 0.009391 0.000000 0.001082 0.000000
# 4 0.000000 0.000000 0.000000 0.022611 0.000000 -0.004739
# 5 -0.000017 -0.001028 0.001082 0.000000 0.020232 0.000000
# 6 0.000000 0.000000 0.000000 -0.004739 0.000000 0.027477
#
#
# Mechanical properties :
#
#
# Convention : Reuss Voigt Hill
#
# Bulk Modulus (GPa) = 31.34140 50.55987 40.95064
# Shear Modulus (GPa) = 34.95403 41.56669 38.26036
#
# Velocity S-wave (km/s) = 3.63297 3.96174 3.80091
# Velocity P-wave (km/s) = 5.42516 6.32600 5.89282
#
# Compressibility (1/GPa) = 0.03190667
#
# Stress axis : x y z
#
# Youngs Moduli (GPa) = 76.86764 40.65300 106.48826
#
# Poissons Ratio (x) = -0.16316 0.48658
# Poissons Ratio (y) = -0.30850 0.74435
# Poissons Ratio (z) = 0.35123 0.28416
#
# Static dielectric constant tensor:
#      x y z
#    x 2.329960 0.000000 0.006970 
#    y 0.000000 2.176070 0.000000 
#    z 0.006970 0.000000 2.096610 
# 
# From -- ./inp_files/202962.got.cif
#   From: 2010.05.17/outbox.cif.g08.bks.cpg/sg15_102_cif.got.tgz:202962.got - 2010.06.03 18:47:42.
