data_PCOD9304261
_publ_section_title
;
Structure prediction by ZEFSAII (Michael W. Deem and Ramdas Pophale) SiO2 
 PCOD9304261
Probable space group: C 2/C
;
_chemical_formula_sum "Si O2"
_cell_formula_units_Z 40
_cell_length_a 16.927989
_cell_length_b 24.054369
_cell_length_c 9.188306
_cell_angle_alpha 90.000000
_cell_angle_beta 32.156854
_cell_angle_gamma 90.000000
_cell_volume 1991.321609
_symmetry_space_group_name_H-M "C 2/C"
_symmetry_group_IT_number 15
_symmetry_cell_setting 'monoclinic'
loop_
_space_group_symop_operation_xyz
x,y,z
-x,y,1/2-z
-x,-y,-z
x,-y,1/2+z
1/2+x,1/2+y,z
1/2-x,1/2+y,1/2-z
1/2-x,1/2-y,-z
1/2+x,1/2-y,1/2+z
loop_
_atom_site_type_symbol
_atom_site_label
_atom_site_fract_x
_atom_site_fract_y
_atom_site_fract_z
Si Si1 0.500000 0.124008 0.750000
Si Si2 0.283187 0.191934 0.874132
Si Si3 0.500000 0.622858 0.250000
Si Si4 0.674179 0.265344 0.967314
Si Si5 0.056790 0.937749 0.379480
Si Si6 0.728016 0.393623 0.844966
O O1 0.410649 0.160266 0.766713
O O2 0.622441 0.088713 0.470702
O O3 0.311737 0.213147 0.664843
O O4 0.250000 0.250000 0.000000
O O5 0.130007 0.158614 0.117861
O O6 0.418624 0.587666 0.500642
O O7 0.740250 0.326221 0.827023
O O8 0.500000 0.276059 0.250000
O O9 0.750000 0.250000 0.000000
O O10 0.915082 0.908307 0.527354
O O11 0.000000 0.000000 0.500000
O O12 0.190400 0.922933 0.058865
#
# Coordination Sequence:
#
# PCOD9304261 Si02
#       6
#     4   8   4   8   8   8
#     4  12  23  44  66 100 150 184 222 291 356 404
#     4  12  25  37  64  98 143 190 226 272 347 427
#     4  12  23  42  66 102 132 182 244 285 338 436
#     4  12  24  39  62  98 139 185 230 275 338 424
#     4  11  23  45  74  97 127 179 244 300 356 415
#     4  11  23  43  67  97 137 178 224 293 344 412
#
# _framework density 20.087160999999998
#
# number of rings (size 3 to 8) (size 9 to 14) (size 15 to 20)
#    0.000    0.400    6.000    4.200    2.800    0.000 
#    0.000    1.000    0.000    0.000    0.000    0.000 
#    0.000    0.000    0.000    0.000    0.000    0.000 
#
# Total GULP energy -111535.856306 kJ/mol
# GULP energy per Si atom -5576.792815 kJ/mol
# Density = 2.004144 g / cm^3
# Si number density = 20.087161 Si / 1000 Ang^3
#
#
#
# Elastic Constant Matrix: (Units=GPa)
#
#
# Indices 1 2 3 4 5 6 
#
# 1 119.1419 24.6944 32.1380 0.0000 9.5455 -0.0001
# 2 24.6944 81.0267 21.8118 0.0000 10.7819 0.0000
# 3 32.1380 21.8118 158.6098 -0.0002 15.1446 -0.0003
# 4 0.0000 0.0000 -0.0002 12.5012 0.0001 5.7680
# 5 9.5455 10.7819 15.1446 0.0001 43.9554 0.0001
# 6 -0.0001 0.0000 -0.0003 5.7680 0.0001 2.0068
#
#
#
# Elastic Compliance Matrix: (Units=1/GPa)
#
#
# Indices 1 2 3 4 5 6 
#
# 1 0.009352 -0.002324 -0.001485 0.000000 -0.000949 0.000000
# 2 -0.002324 0.013693 -0.001178 0.000000 -0.002448 0.000000
# 3 -0.001485 -0.001178 0.006937 0.000001 -0.001779 -0.000003
# 4 0.000000 0.000000 0.000001 -0.245295 -0.000002 0.705011
# 5 -0.000949 -0.002448 -0.001779 -0.000002 0.024170 0.000004
# 6 0.000000 0.000000 -0.000003 0.705011 0.000004 -1.528005
#
#
# Mechanical properties :
#
#
# Convention : Reuss Voigt Hill
#
# Bulk Modulus (GPa) = 49.98048 57.34073 53.66061
# Shear Modulus (GPa) = -2.93685 30.36831 13.71573
#
# Velocity S-wave (km/s) = -1.21047 3.89244 2.61590
# Velocity P-wave (km/s) = 4.79397 6.98637 5.99131
#
# Compressibility (1/GPa) = 0.02000781
#
# Stress axis : x y z
#
# Youngs Moduli (GPa) = 106.93375 73.03064 144.14439
#
# Poissons Ratio (x) = 0.16973 0.21400
# Poissons Ratio (y) = 0.24853 0.16985
# Poissons Ratio (z) = 0.15875 0.08606
#
# Static dielectric constant tensor:
#      x y z
#    x 1.700820 0.000000 0.048550 
#    y 0.000000 1.760490 0.000000 
#    z 0.048550 0.000000 1.755140 
# 
# From -- ./inp_files/41981.got.cif
#   From: 2010.05.17/outbox.cif.g08.bks.cpg/sg15_21_cif.got.tgz:41981.got - 2010.06.03 18:47:42.
