data_PCOD9304322
_publ_section_title
;
Structure prediction by ZEFSAII (Michael W. Deem and Ramdas Pophale) SiO2 
 PCOD9304322
Probable space group: C 2/C
;
_chemical_formula_sum "Si O2"
_cell_formula_units_Z 48
_cell_length_a 14.540403
_cell_length_b 11.706696
_cell_length_c 26.224801
_cell_angle_alpha 90.000000
_cell_angle_beta 150.992925
_cell_angle_gamma 90.000000
_cell_volume 2164.666257
_symmetry_space_group_name_H-M "C 2/C"
_symmetry_group_IT_number 15
_symmetry_cell_setting 'monoclinic'
loop_
_space_group_symop_operation_xyz
x,y,z
-x,y,1/2-z
-x,-y,-z
x,-y,1/2+z
1/2+x,1/2+y,z
1/2-x,1/2+y,1/2-z
1/2-x,1/2-y,-z
1/2+x,1/2-y,1/2+z
loop_
_atom_site_type_symbol
_atom_site_label
_atom_site_fract_x
_atom_site_fract_y
_atom_site_fract_z
Si Si1 0.873006 0.050744 0.982559
Si Si2 0.500000 0.315574 0.250000
Si Si3 0.000000 0.624118 0.750000
Si Si4 0.447064 0.991225 0.916004
Si Si5 0.358361 0.749863 0.365798
Si Si6 0.640956 0.523792 0.911469
Si Si7 0.116099 0.823525 0.733165
O O1 0.657260 0.054777 0.858094
O O2 0.911857 0.981961 0.054119
O O3 0.953189 0.180193 0.027610
O O4 0.000000 0.000000 0.000000
O O5 0.687198 0.245858 0.323576
O O6 0.448865 0.392231 0.174883
O O7 0.902390 0.709364 0.743416
O O8 0.399009 0.117948 0.875063
O O9 0.268779 0.910074 0.828703
O O10 0.635984 0.950997 0.979883
O O11 0.500000 0.000000 0.000000
O O12 0.308430 0.698531 0.286998
O O13 0.581132 0.395231 0.864587
#
# Coordination Sequence:
#
# PCOD9304322 Si02
#       7
#     8   4   4   8   8   8   8
#     4  11  28  47  71 102 150 190 244 297 369 437
#     4  12  23  43  74 104 146 180 241 297 366 438
#     4  12  25  45  72 100 142 200 241 293 372 440
#     4  12  21  40  70 101 138 182 242 301 358 439
#     4  11  25  43  69 107 140 186 242 303 366 437
#     4  11  23  43  70 102 136 187 234 302 355 432
#     4  11  24  41  70 103 142 183 242 304 365 426
#
# _framework density 22.174320000000002
#
# number of rings (size 3 to 8) (size 9 to 14) (size 15 to 20)
#    0.000    0.667    3.333    4.500    2.333    7.333 
#    0.000    1.667    0.000    0.000    0.000    0.000 
#    0.000    0.000    0.000    0.000    0.000    0.000 
#
# Total GULP energy -134058.326422 kJ/mol
# GULP energy per Si atom -5585.763601 kJ/mol
# Density = 2.212385 g / cm^3
# Si number density = 22.174320 Si / 1000 Ang^3
#
#
#
# Elastic Constant Matrix: (Units=GPa)
#
#
# Indices 1 2 3 4 5 6 
#
# 1 125.8285 14.1833 35.7820 0.0000 -12.2757 0.0000
# 2 14.1833 30.4854 25.4338 0.0001 -7.2792 0.0000
# 3 35.7820 25.4338 110.9891 0.0006 -7.8614 -0.0001
# 4 0.0000 0.0001 0.0006 17.3359 0.0000 6.4277
# 5 -12.2757 -7.2792 -7.8614 0.0000 39.9889 -0.0001
# 6 0.0000 0.0000 -0.0001 6.4277 -0.0001 39.7751
#
#
#
# Elastic Compliance Matrix: (Units=1/GPa)
#
#
# Indices 1 2 3 4 5 6 
#
# 1 0.009010 -0.001746 -0.002364 0.000000 0.001983 0.000000
# 2 -0.001746 0.042186 -0.008720 0.000000 0.005429 0.000000
# 3 -0.002364 -0.008720 0.011770 0.000000 0.000001 0.000000
# 4 0.000000 0.000000 0.000000 0.061360 0.000000 -0.009916
# 5 0.001983 0.005429 0.000001 0.000000 0.026604 0.000000
# 6 0.000000 0.000000 0.000000 -0.009916 0.000000 0.026744
#
#
# Mechanical properties :
#
#
# Convention : Reuss Voigt Hill
#
# Bulk Modulus (GPa) = 26.80487 46.45568 36.63027
# Shear Modulus (GPa) = 23.17286 32.21359 27.69322
#
# Velocity S-wave (km/s) = 3.23620 3.81562 3.53779
# Velocity P-wave (km/s) = 5.10671 6.35670 5.76568
#
# Compressibility (1/GPa) = 0.03730665
#
# Stress axis : x y z
#
# Youngs Moduli (GPa) = 110.98901 23.70451 84.95936
#
# Poissons Ratio (x) = 0.04138 0.20086
# Poissons Ratio (y) = 0.19377 0.74083
# Poissons Ratio (z) = 0.26240 0.20670
#
# Static dielectric constant tensor:
#      x y z
#    x 1.903620 0.000000 -0.060200 
#    y 0.000000 1.811780 0.000000 
#    z -0.060200 0.000000 1.818120 
# 
# From -- ./inp_files/296219.got.cif
#   From: 2010.05.17/outbox.cif.g08.bks.cpg/sg15_149_cif.got.tgz:296219.got - 2010.06.03 18:47:42.
