data_PCOD9304996
_publ_section_title
;
Structure prediction by ZEFSAII (Michael W. Deem and Ramdas Pophale) SiO2 
 PCOD9304996
Probable space group: C 2/C
;
_chemical_formula_sum "Si O2"
_cell_formula_units_Z 52
_cell_length_a 13.770908
_cell_length_b 14.641253
_cell_length_c 13.847807
_cell_angle_alpha 90.000000
_cell_angle_beta 110.773978
_cell_angle_gamma 90.000000
_cell_volume 2610.521841
_symmetry_space_group_name_H-M "C 2/C"
_symmetry_group_IT_number 15
_symmetry_cell_setting 'monoclinic'
loop_
_space_group_symop_operation_xyz
x,y,z
-x,y,1/2-z
-x,-y,-z
x,-y,1/2+z
1/2+x,1/2+y,z
1/2-x,1/2+y,1/2-z
1/2-x,1/2-y,-z
1/2+x,1/2-y,1/2+z
loop_
_atom_site_type_symbol
_atom_site_label
_atom_site_fract_x
_atom_site_fract_y
_atom_site_fract_z
Si Si1 0.345891 0.542586 0.043357
Si Si2 0.753731 0.115137 0.205342
Si Si3 0.956657 0.176298 0.386688
Si Si4 0.345203 0.298299 0.260112
Si Si5 0.579003 0.334933 0.410489
Si Si6 0.205870 0.446270 0.303931
Si Si7 0.500000 0.832556 0.250000
O O1 0.275371 0.581554 0.105061
O O2 0.444945 0.609395 0.067296
O O3 0.386828 0.440937 0.080417
O O4 0.279362 0.540679 0.922370
O O5 0.867224 0.125834 0.294278
O O6 0.698223 0.212181 0.196805
O O7 0.690049 0.041484 0.244215
O O8 0.912040 0.198385 0.476629
O O9 0.988268 0.265510 0.337700
O O10 0.458393 0.325815 0.338791
O O11 0.357446 0.282045 0.149903
O O12 0.267723 0.381149 0.252112
O O13 0.100871 0.395215 0.294700
#
# Coordination Sequence:
#
# PCOD9304996 Si02
#       7
#     8   8   8   8   8   8   4
#     4  12  23  41  74 103 130 178 237 292 330 394
#     4  12  25  43  69 101 142 180 225 281 342 405
#     4  12  22  41  68 104 133 176 235 279 334 401
#     4  11  24  43  68 103 141 174 224 287 341 399
#     4  11  24  40  71 103 134 177 231 288 335 393
#     4  12  25  47  68  99 140 181 226 280 347 404
#     4  12  28  44  68  96 144 182 222 280 344 424
#
# _framework density 19.919388000000001
#
# number of rings (size 3 to 8) (size 9 to 14) (size 15 to 20)
#    0.000    0.308    7.692    1.385    4.308    3.077 
#    2.769    0.769    0.000    0.000    0.000    0.000 
#    0.000    0.000    0.000    0.000    0.000    0.000 
#
# Total GULP energy -145462.402542 kJ/mol
# GULP energy per Si atom -5594.707790 kJ/mol
# Density = 1.987405 g / cm^3
# Si number density = 19.919388 Si / 1000 Ang^3
#
#
#
# Elastic Constant Matrix: (Units=GPa)
#
#
# Indices 1 2 3 4 5 6 
#
# 1 69.5314 13.4996 31.9168 0.0000 -10.0007 0.0000
# 2 13.4996 56.9989 4.7298 0.0000 0.5215 0.0000
# 3 31.9168 4.7298 53.8436 0.0000 -25.9078 0.0000
# 4 0.0000 0.0000 0.0000 8.5948 0.0000 -11.7492
# 5 -10.0007 0.5215 -25.9078 0.0000 37.4676 0.0000
# 6 0.0000 0.0000 0.0000 -11.7492 0.0000 46.7447
#
#
#
# Elastic Compliance Matrix: (Units=1/GPa)
#
#
# Indices 1 2 3 4 5 6 
#
# 1 0.020985 -0.003765 -0.014069 0.000000 -0.004075 0.000000
# 2 -0.003765 0.018447 0.000007 0.000000 -0.001257 0.000000
# 3 -0.014069 0.000007 0.037622 0.000000 0.022259 0.000000
# 4 0.000000 0.000000 0.000000 0.177252 0.000000 0.044552
# 5 -0.004075 -0.001257 0.022259 0.000000 0.041011 0.000000
# 6 0.000000 0.000000 0.000000 0.044552 0.000000 0.032591
#
#
# Mechanical properties :
#
#
# Convention : Reuss Voigt Hill
#
# Bulk Modulus (GPa) = 24.15578 31.18514 27.67046
# Shear Modulus (GPa) = 13.24984 27.24328 20.24656
#
# Velocity S-wave (km/s) = 2.58189 3.70222 3.19160
# Velocity P-wave (km/s) = 4.58708 5.82794 5.24434
#
# Compressibility (1/GPa) = 0.04139796
#
# Stress axis : x y z
#
# Youngs Moduli (GPa) = 47.65282 54.20957 26.58028
#
# Poissons Ratio (x) = 0.20412 0.37396
# Poissons Ratio (y) = 0.17943 -0.00017
# Poissons Ratio (z) = 0.67044 -0.00036
#
# Static dielectric constant tensor:
#      x y z
#    x 1.695550 0.000000 -0.022870 
#    y 0.000000 1.666720 0.000000 
#    z -0.022870 0.000000 1.706330 
# 
# From -- ./inp_files/154071.got.cif
#   From: 2010.05.17/outbox.cif.g08.bks.cpg/sg15_78_cif.got.tgz:154071.got - 2010.06.03 18:47:42.
