data_PCOD9304377
_publ_section_title
;
Structure prediction by ZEFSAII (Michael W. Deem and Ramdas Pophale) SiO2 
 PCOD9304377
Probable space group: C 2/C
;
_chemical_formula_sum "Si O2"
_cell_formula_units_Z 44
_cell_length_a 17.975819
_cell_length_b 8.886731
_cell_length_c 19.104443
_cell_angle_alpha 90.000000
_cell_angle_beta 48.801398
_cell_angle_gamma 90.000000
_cell_volume 2296.316624
_symmetry_space_group_name_H-M "C 2/C"
_symmetry_group_IT_number 15
_symmetry_cell_setting 'monoclinic'
loop_
_space_group_symop_operation_xyz
x,y,z
-x,y,1/2-z
-x,-y,-z
x,-y,1/2+z
1/2+x,1/2+y,z
1/2-x,1/2+y,1/2-z
1/2-x,1/2-y,-z
1/2+x,1/2-y,1/2+z
loop_
_atom_site_type_symbol
_atom_site_label
_atom_site_fract_x
_atom_site_fract_y
_atom_site_fract_z
Si Si1 0.367033 0.761863 0.441374
Si Si2 0.752066 0.820952 0.609603
Si Si3 0.000000 0.080502 0.250000
Si Si4 0.894294 0.921603 0.066617
Si Si5 0.568604 0.689618 0.804933
Si Si6 0.373189 0.890618 0.946128
O O1 0.250000 0.750000 0.500000
O O2 0.424306 0.682826 0.341376
O O3 0.386756 0.677210 0.501769
O O4 0.400044 0.934573 0.431619
O O5 0.654931 0.772229 0.710223
O O6 0.711914 0.881803 0.560285
O O7 0.823987 0.681464 0.545954
O O8 0.811390 0.950043 0.612430
O O9 0.048586 0.967741 0.277096
O O10 0.893158 0.834001 0.140132
O O11 0.000000 0.000000 0.000000
O O12 0.466735 0.785317 0.869027
#
# Coordination Sequence:
#
# PCOD9304377 Si02
#       6
#     8   8   4   8   8   8
#     4  12  26  43  71 103 138 178 234 286 342 406
#     4  11  23  44  73  97 138 186 228 275 351 415
#     4  12  24  42  72 102 138 182 228 284 348 406
#     4  12  25  49  66 102 146 179 222 297 349 397
#     4  12  25  45  73 101 140 186 233 279 351 417
#     4  11  23  43  73 103 133 182 235 281 336 418
#
# _framework density 19.16112
#
# number of rings (size 3 to 8) (size 9 to 14) (size 15 to 20)
#    0.000    0.364    7.273    1.091    2.545    3.636 
#    3.273    0.000    0.000    0.000    0.000    0.000 
#    0.000    0.000    0.000    0.000    0.000    0.000 
#
# Total GULP energy -122944.205873 kJ/mol
# GULP energy per Si atom -5588.372994 kJ/mol
# Density = 1.911751 g / cm^3
# Si number density = 19.161120 Si / 1000 Ang^3
#
#
#
# Elastic Constant Matrix: (Units=GPa)
#
#
# Indices 1 2 3 4 5 6 
#
# 1 100.7821 43.7068 31.8387 0.0000 5.2818 0.0000
# 2 43.7068 88.8872 0.0527 0.0000 2.3378 0.0000
# 3 31.8387 0.0527 46.5259 0.0000 4.1757 0.0000
# 4 0.0000 0.0000 0.0000 32.1245 0.0000 -1.9985
# 5 5.2818 2.3378 4.1757 0.0000 37.4344 0.0000
# 6 0.0000 0.0000 0.0000 -1.9985 0.0000 41.0443
#
#
#
# Elastic Compliance Matrix: (Units=1/GPa)
#
#
# Indices 1 2 3 4 5 6 
#
# 1 0.017393 -0.008530 -0.011839 0.000000 -0.000601 0.000000
# 2 -0.008530 0.015452 0.005857 0.000000 -0.000415 0.000000
# 3 -0.011839 0.005857 0.029769 0.000000 -0.002016 0.000000
# 4 0.000000 0.000000 0.000000 0.031223 0.000000 0.001520
# 5 -0.000601 -0.000415 -0.002016 0.000000 0.027049 0.000000
# 6 0.000000 0.000000 0.000000 0.001520 0.000000 0.024438
#
#
# Mechanical properties :
#
#
# Convention : Reuss Voigt Hill
#
# Bulk Modulus (GPa) = 29.77021 43.04350 36.40686
# Shear Modulus (GPa) = 26.94768 32.82709 29.88739
#
# Velocity S-wave (km/s) = 3.75423 4.14359 3.95371
# Velocity P-wave (km/s) = 5.86198 6.73834 6.31538
#
# Compressibility (1/GPa) = 0.03359063
#
# Stress axis : x y z
#
# Youngs Moduli (GPa) = 57.49432 64.71780 33.59163
#
# Poissons Ratio (x) = 0.55201 0.39769
# Poissons Ratio (y) = 0.49040 -0.19673
# Poissons Ratio (z) = 0.68067 -0.37903
#
# Static dielectric constant tensor:
#      x y z
#    x 1.635330 0.000000 0.012070 
#    y 0.000000 1.687040 0.000000 
#    z 0.012070 0.000000 1.683530 
# 
# From -- ./inp_files/159442.got.cif
#   From: 2010.05.17/outbox.cif.g08.bks.cpg/sg15_80_cif.got.tgz:159442.got - 2010.06.03 18:47:42.
