data_PCOD9304636
_publ_section_title
;
Structure prediction by ZEFSAII (Michael W. Deem and Ramdas Pophale) SiO2 
 PCOD9304636
Probable space group: C 2/C
;
_chemical_formula_sum "Si O2"
_cell_formula_units_Z 40
_cell_length_a 6.272784
_cell_length_b 22.591630
_cell_length_c 14.324428
_cell_angle_alpha 90.000000
_cell_angle_beta 68.009932
_cell_angle_gamma 90.000000
_cell_volume 1882.267995
_symmetry_space_group_name_H-M "C 2/C"
_symmetry_group_IT_number 15
_symmetry_cell_setting 'monoclinic'
loop_
_space_group_symop_operation_xyz
x,y,z
-x,y,1/2-z
-x,-y,-z
x,-y,1/2+z
1/2+x,1/2+y,z
1/2-x,1/2+y,1/2-z
1/2-x,1/2-y,-z
1/2+x,1/2-y,1/2+z
loop_
_atom_site_type_symbol
_atom_site_label
_atom_site_fract_x
_atom_site_fract_y
_atom_site_fract_z
Si Si1 0.162303 0.055931 0.953634
Si Si2 0.157169 0.591440 0.369602
Si Si3 0.718193 0.352291 0.012936
Si Si4 0.000000 0.806990 0.750000
Si Si5 0.519305 0.242851 0.931833
Si Si6 0.500000 0.999328 0.750000
O O1 0.357381 0.037257 0.848319
O O2 0.004051 0.107429 0.934651
O O3 0.258866 0.072880 0.040727
O O4 0.000000 0.000000 0.000000
O O5 0.298921 0.649246 0.316564
O O6 0.166336 0.542067 0.287031
O O7 0.890186 0.608755 0.422522
O O8 0.877731 0.322216 0.066070
O O9 0.634747 0.294547 0.972936
O O10 0.927775 0.763777 0.680108
O O11 0.250000 0.250000 0.000000
#
# Coordination Sequence:
#
# PCOD9304636 Si02
#       6
#     8   8   8   4   8   4
#     4  12  25  47  72 107 151 190 247 311 359 445
#     4  12  24  48  73 105 142 192 255 298 358 457
#     4  11  23  46  73  99 147 188 232 316 359 420
#     4  12  22  42  79 100 138 193 250 296 368 452
#     4  11  23  45  71 104 142 181 250 306 364 432
#     4  12  26  42  77 108 146 203 240 302 390 426
#
# _framework density 21.250958000000001
#
# number of rings (size 3 to 8) (size 9 to 14) (size 15 to 20)
#    0.000    0.400    6.000    3.000    0.000    0.000 
#    0.000    6.000    0.000    0.000    0.000    0.000 
#    0.000    0.000    0.000    0.000    0.000    0.000 
#
# Total GULP energy -111744.949465 kJ/mol
# GULP energy per Si atom -5587.247473 kJ/mol
# Density = 2.120259 g / cm^3
# Si number density = 21.250958 Si / 1000 Ang^3
#
#
#
# Elastic Constant Matrix: (Units=GPa)
#
#
# Indices 1 2 3 4 5 6 
#
# 1 83.9600 33.5020 38.1797 0.0000 13.8975 0.0000
# 2 33.5020 98.3366 49.2770 0.0000 23.4934 0.0000
# 3 38.1797 49.2770 123.8470 0.0000 13.2272 0.0000
# 4 0.0000 0.0000 0.0000 46.8304 0.0000 6.3196
# 5 13.8975 23.4934 13.2272 0.0000 16.7147 0.0000
# 6 0.0000 0.0000 0.0000 6.3196 0.0000 109.6151
#
#
#
# Elastic Compliance Matrix: (Units=1/GPa)
#
#
# Indices 1 2 3 4 5 6 
#
# 1 0.015356 -0.001781 -0.003199 0.000000 -0.007733 0.000000
# 2 -0.001781 0.017747 -0.004376 0.000000 -0.020001 0.000000
# 3 -0.003199 -0.004376 0.010771 0.000000 0.000287 0.000000
# 4 0.000000 0.000000 0.000000 0.021521 0.000000 -0.001241
# 5 -0.007733 -0.020001 0.000287 0.000000 0.094142 0.000000
# 6 0.000000 0.000000 0.000000 -0.001241 0.000000 0.009194
#
#
# Mechanical properties :
#
#
# Convention : Reuss Voigt Hill
#
# Bulk Modulus (GPa) = 39.74354 60.89566 50.31960
# Shear Modulus (GPa) = 25.53208 46.97769 36.25488
#
# Velocity S-wave (km/s) = 3.46996 4.70682 4.13490
# Velocity P-wave (km/s) = 5.89888 7.63260 6.82105
#
# Compressibility (1/GPa) = 0.02516132
#
# Stress axis : x y z
#
# Youngs Moduli (GPa) = 65.12145 56.34707 92.83873
#
# Poissons Ratio (x) = 0.10035 0.29703
# Poissons Ratio (y) = 0.11597 0.40628
# Poissons Ratio (z) = 0.20835 0.24659
#
# Static dielectric constant tensor:
#      x y z
#    x 1.840500 0.000000 0.034320 
#    y 0.000000 1.731800 0.000000 
#    z 0.034320 0.000000 1.708450 
# 
# From -- ./inp_files/129303.got.cif
#   From: 2010.05.17/outbox.cif.g08.bks.cpg/sg15_65_cif.got.tgz:129303.got - 2010.06.03 18:47:42.
