data_PCOD9304167
_publ_section_title
;
Structure prediction by ZEFSAII (Michael W. Deem and Ramdas Pophale) SiO2 
 PCOD9304167
Probable space group: C 2/C
;
_chemical_formula_sum "Si O2"
_cell_formula_units_Z 40
_cell_length_a 9.184053
_cell_length_b 13.166208
_cell_length_c 22.093075
_cell_angle_alpha 90.000000
_cell_angle_beta 51.302070
_cell_angle_gamma 90.000000
_cell_volume 2084.961366
_symmetry_space_group_name_H-M "C 2/C"
_symmetry_group_IT_number 15
_symmetry_cell_setting 'monoclinic'
loop_
_space_group_symop_operation_xyz
x,y,z
-x,y,1/2-z
-x,-y,-z
x,-y,1/2+z
1/2+x,1/2+y,z
1/2-x,1/2+y,1/2-z
1/2-x,1/2-y,-z
1/2+x,1/2-y,1/2+z
loop_
_atom_site_type_symbol
_atom_site_label
_atom_site_fract_x
_atom_site_fract_y
_atom_site_fract_z
Si Si1 0.276577 0.386353 0.893142
Si Si2 0.614997 0.787243 0.482474
Si Si3 0.201568 0.097761 0.673953
Si Si4 0.886181 0.093713 0.503186
Si Si5 0.463107 0.830913 0.329058
O O1 0.301920 0.477778 0.839769
O O2 0.320712 0.419700 0.950965
O O3 0.406712 0.288423 0.846631
O O4 0.209654 0.385500 0.092437
O O5 0.750000 0.750000 0.500000
O O6 0.738389 0.850637 0.404148
O O7 0.517262 0.692984 0.473605
O O8 0.439475 0.851775 0.552239
O O9 0.355304 0.135437 0.681364
O O10 0.000000 0.129325 0.750000
O O11 0.000000 0.000000 0.500000
O O12 0.500000 0.858662 0.250000
#
# Coordination Sequence:
#
# PCOD9304167 Si02
#       5
#     8   8   8   8   8
#     4  11  23  47  70  92 134 180 221 281 337 396
#     4  11  23  42  70  99 130 177 227 277 327 406
#     4  12  26  43  68 101 134 175 225 273 343 405
#     4  11  23  43  70  98 131 177 230 274 335 404
#     4  11  25  46  65  96 139 173 218 283 339 398
#
# _framework density 19.185008
#
# number of rings (size 3 to 8) (size 9 to 14) (size 15 to 20)
#    0.000    0.800    4.000    3.600   11.200    0.000 
#    0.000    1.000    0.000    0.000    0.000    0.000 
#    0.000    0.000    0.000    0.000    0.000    0.000 
#
# Total GULP energy -111815.739323 kJ/mol
# GULP energy per Si atom -5590.786966 kJ/mol
# Density = 1.914134 g / cm^3
# Si number density = 19.185008 Si / 1000 Ang^3
#
#
#
# Elastic Constant Matrix: (Units=GPa)
#
#
# Indices 1 2 3 4 5 6 
#
# 1 165.0949 49.2017 67.3099 0.0001 -6.3079 0.0000
# 2 49.2017 77.9280 47.8059 0.0001 -23.5670 0.0000
# 3 67.3099 47.8059 97.1160 0.0001 -11.5369 0.0000
# 4 0.0001 0.0001 0.0001 -12.1299 -0.0001 -9.0978
# 5 -6.3079 -23.5670 -11.5369 -0.0001 39.5259 0.0000
# 6 0.0000 0.0000 0.0000 -9.0978 0.0000 23.8272
#
#
#
# Elastic Compliance Matrix: (Units=1/GPa)
#
#
# Indices 1 2 3 4 5 6 
#
# 1 0.008913 -0.003266 -0.004799 0.000000 -0.001926 0.000000
# 2 -0.003266 0.022932 -0.007730 0.000000 0.010895 0.000000
# 3 -0.004799 -0.007730 0.017393 0.000000 -0.000298 0.000000
# 4 0.000000 0.000000 0.000000 -0.064087 0.000000 -0.024470
# 5 -0.001926 0.010895 -0.000298 0.000000 0.031402 0.000000
# 6 0.000000 0.000000 0.000000 -0.024470 0.000000 0.032626
#
#
# Mechanical properties :
#
#
# Convention : Reuss Voigt Hill
#
# Bulk Modulus (GPa) = 56.66503 74.30821 65.48662
# Shear Modulus (GPa) = 57.70313 21.96606 39.83459
#
# Velocity S-wave (km/s) = 5.49022 3.38740 4.56163
# Velocity P-wave (km/s) = 8.35405 7.35634 7.87102
#
# Compressibility (1/GPa) = 0.01764757
#
# Stress axis : x y z
#
# Youngs Moduli (GPa) = 112.19066 43.60783 57.49548
#
# Poissons Ratio (x) = 0.14243 0.27590
# Poissons Ratio (y) = 0.36644 0.44445
# Poissons Ratio (z) = 0.53837 0.33710
#
# Static dielectric constant tensor:
#      x y z
#    x 1.606480 0.000000 0.000640 
#    y 0.000000 1.707720 0.000000 
#    z 0.000640 0.000000 1.634420 
# 
# From -- ./inp_files/230965.got.cif
#   From: 2010.05.17/outbox.cif.g08.bks.cpg/sg15_116_cif.got.tgz:230965.got - 2010.06.03 18:47:42.
