data_PCOD9304267
_publ_section_title
;
Structure prediction by ZEFSAII (Michael W. Deem and Ramdas Pophale) SiO2 
 PCOD9304267
Probable space group: C 2/C
;
_chemical_formula_sum "Si O2"
_cell_formula_units_Z 56
_cell_length_a 16.054811
_cell_length_b 9.877516
_cell_length_c 15.356104
_cell_angle_alpha 90.000000
_cell_angle_beta 103.165343
_cell_angle_gamma 90.000000
_cell_volume 2371.191716
_symmetry_space_group_name_H-M "C 2/C"
_symmetry_group_IT_number 15
_symmetry_cell_setting 'monoclinic'
loop_
_space_group_symop_operation_xyz
x,y,z
-x,y,1/2-z
-x,-y,-z
x,-y,1/2+z
1/2+x,1/2+y,z
1/2-x,1/2+y,1/2-z
1/2-x,1/2-y,-z
1/2+x,1/2-y,1/2+z
loop_
_atom_site_type_symbol
_atom_site_label
_atom_site_fract_x
_atom_site_fract_y
_atom_site_fract_z
Si Si1 0.888022 0.583769 0.546486
Si Si2 0.441007 0.948533 0.853341
Si Si3 0.938965 0.881186 0.811236
Si Si4 0.594829 0.613814 0.467687
Si Si5 0.881502 0.837372 0.324079
Si Si6 0.801370 0.344742 0.288799
Si Si7 0.263552 0.597235 0.534836
O O1 0.914276 0.568955 0.449759
O O2 0.870119 0.741784 0.560815
O O3 0.803354 0.495152 0.534333
O O4 0.967320 0.521758 0.619309
O O5 0.432391 0.798400 0.813537
O O6 0.372209 0.041104 0.786903
O O7 0.856402 0.791506 0.809542
O O8 0.000000 0.824811 0.750000
O O9 0.998539 0.887228 0.910039
O O10 0.910050 0.031091 0.777966
O O11 0.599696 0.628357 0.571615
O O12 0.646700 0.480484 0.452686
O O13 0.779596 0.820052 0.291241
O O14 0.761851 0.393208 0.370566
O O15 0.250000 0.750000 0.500000
#
# Coordination Sequence:
#
# PCOD9304267 Si02
#       7
#     8   8   8   8   8   8   8
#     4   9  19  38  64  94 127 170 224 271 333 401
#     4   9  19  38  65  92 125 174 222 275 332 398
#     4  12  26  44  69 101 139 176 227 285 342 408
#     4  11  23  43  68 101 131 183 225 281 341 414
#     4  11  24  41  71  96 137 180 230 280 347 405
#     4  11  23  46  65  98 138 183 223 283 347 407
#     4  11  24  38  68 102 139 173 229 287 340 407
#
# _framework density 23.616816
#
# number of rings (size 3 to 8) (size 9 to 14) (size 15 to 20)
#    0.000    1.429    1.429    3.429    4.000    3.429 
#    0.000    0.714    0.000    0.000    0.000    0.000 
#    0.000    0.000    0.000    0.000    0.000    0.000 
#
# Total GULP energy -156662.230035 kJ/mol
# GULP energy per Si atom -5595.079644 kJ/mol
# Density = 2.356306 g / cm^3
# Si number density = 23.616816 Si / 1000 Ang^3
#
#
#
# Elastic Constant Matrix: (Units=GPa)
#
#
# Indices 1 2 3 4 5 6 
#
# 1 71.2301 24.2029 53.2056 0.0000 21.9768 0.0000
# 2 24.2029 165.0047 15.6675 0.0000 13.3026 0.0000
# 3 53.2056 15.6675 93.0224 0.0000 33.5232 0.0000
# 4 0.0000 0.0000 0.0000 4.9437 0.0000 20.0136
# 5 21.9768 13.3026 33.5232 0.0000 36.7129 0.0000
# 6 0.0000 0.0000 0.0000 20.0136 0.0000 42.3265
#
#
#
# Elastic Compliance Matrix: (Units=1/GPa)
#
#
# Indices 1 2 3 4 5 6 
#
# 1 0.025518 -0.002292 -0.013419 0.000000 -0.002191 0.000000
# 2 -0.002292 0.006456 0.000853 0.000000 -0.001746 0.000000
# 3 -0.013419 0.000853 0.023100 0.000000 -0.013369 0.000000
# 4 0.000000 0.000000 0.000000 -0.221266 0.000000 0.104623
# 5 -0.002191 -0.001746 -0.013369 0.000000 0.041390 0.000000
# 6 0.000000 0.000000 0.000000 0.104623 0.000000 -0.025844
#
#
# Mechanical properties :
#
#
# Convention : Reuss Voigt Hill
#
# Bulk Modulus (GPa) = 39.43817 57.26768 48.35292
# Shear Modulus (GPa) = -44.45354 32.54204 -5.95575
#
# Velocity S-wave (km/s) = -4.34324 3.71606 -1.58975
# Velocity P-wave (km/s) = 2.90106 6.53555 4.14109
#
# Compressibility (1/GPa) = 0.02535615
#
# Stress axis : x y z
#
# Youngs Moduli (GPa) = 39.18869 154.88446 43.29060
#
# Poissons Ratio (x) = 0.35501 0.58094
# Poissons Ratio (y) = 0.08982 -0.03692
# Poissons Ratio (z) = 0.52589 -0.13208
#
# Static dielectric constant tensor:
#      x y z
#    x 1.873800 0.000000 -0.026970 
#    y 0.000000 1.918900 0.000000 
#    z -0.026970 0.000000 1.899990 
# 
# From -- ./inp_files/209634.got.cif
#   From: 2010.05.17/outbox.cif.g08.bks.cpg/sg15_105_cif.got.tgz:209634.got - 2010.06.03 18:47:42.
