data_PCOD9304102
_publ_section_title
;
Structure prediction by ZEFSAII (Michael W. Deem and Ramdas Pophale) SiO2 
 PCOD9304102
Probable space group: C 2/C
;
_chemical_formula_sum "Si O2"
_cell_formula_units_Z 52
_cell_length_a 7.242062
_cell_length_b 12.509929
_cell_length_c 24.882386
_cell_angle_alpha 90.000000
_cell_angle_beta 89.509563
_cell_angle_gamma 90.000000
_cell_volume 2254.203896
_symmetry_space_group_name_H-M "C 2/C"
_symmetry_group_IT_number 15
_symmetry_cell_setting 'monoclinic'
loop_
_space_group_symop_operation_xyz
x,y,z
-x,y,1/2-z
-x,-y,-z
x,-y,1/2+z
1/2+x,1/2+y,z
1/2-x,1/2+y,1/2-z
1/2-x,1/2-y,-z
1/2+x,1/2-y,1/2+z
loop_
_atom_site_type_symbol
_atom_site_label
_atom_site_fract_x
_atom_site_fract_y
_atom_site_fract_z
Si Si1 0.447952 0.954156 0.081215
Si Si2 0.680607 0.201103 0.210880
Si Si3 0.000000 0.051503 0.250000
Si Si4 0.658399 0.933737 0.294079
Si Si5 0.367952 0.725409 0.445973
Si Si6 0.011401 0.683903 0.402011
Si Si7 0.863458 0.146537 0.980371
O O1 0.411337 0.954768 0.145373
O O2 0.549267 0.840781 0.070237
O O3 0.266609 0.942570 0.044280
O O4 0.537200 0.070646 0.068797
O O5 0.500000 0.198341 0.250000
O O6 0.790433 0.311299 0.215839
O O7 0.595424 0.187011 0.152638
O O8 0.844367 0.117142 0.218975
O O9 0.138930 0.986235 0.211943
O O10 0.500000 0.964025 0.250000
O O11 0.250000 0.750000 0.500000
O O12 0.234025 0.682856 0.399971
O O13 0.508386 0.634607 0.467570
O O14 0.969634 0.796895 0.430665
O O15 0.750000 0.250000 0.000000
#
# Coordination Sequence:
#
# PCOD9304102 Si02
#       7
#     8   8   4   8   8   8   8
#     4  11  23  42  69  97 137 180 232 285 354 421
#     4  12  26  46  73 104 144 186 232 290 355 423
#     4  12  26  48  72 104 146 180 240 290 348 426
#     4  12  26  46  73 106 143 188 232 292 353 423
#     4   9  22  41  67  96 134 176 232 295 339 409
#     4  11  23  42  67  98 132 181 227 278 358 414
#     4   9  20  41  61  94 131 169 229 286 335 405
#
# _framework density 23.068010999999998
#
# number of rings (size 3 to 8) (size 9 to 14) (size 15 to 20)
#    0.000    1.231    3.077    2.308    2.154    8.615 
#    0.000    0.000    0.000    0.000    0.000    0.000 
#    0.000    0.000    0.000    0.000    0.000    0.000 
#
# Total GULP energy -144947.106538 kJ/mol
# GULP energy per Si atom -5574.888713 kJ/mol
# Density = 2.301551 g / cm^3
# Si number density = 23.068011 Si / 1000 Ang^3
#
#
#
# Elastic Constant Matrix: (Units=GPa)
#
#
# Indices 1 2 3 4 5 6 
#
# 1 88.8984 8.6037 35.6515 0.0000 17.1363 0.0000
# 2 8.6037 62.9561 2.9597 0.0000 -4.0162 0.0000
# 3 35.6515 2.9597 66.5463 0.0000 17.8825 0.0000
# 4 0.0000 0.0000 0.0000 25.1807 0.0000 8.6180
# 5 17.1363 -4.0162 17.8825 0.0000 45.2760 0.0000
# 6 0.0000 0.0000 0.0000 8.6180 0.0000 51.8322
#
#
#
# Elastic Compliance Matrix: (Units=1/GPa)
#
#
# Indices 1 2 3 4 5 6 
#
# 1 0.014841 -0.001887 -0.007062 0.000000 -0.002995 0.000000
# 2 -0.001887 0.016304 -0.000330 0.000000 0.002291 0.000000
# 3 -0.007062 -0.000330 0.020266 0.000000 -0.005361 0.000000
# 4 0.000000 0.000000 0.000000 0.042109 0.000000 -0.007001
# 5 -0.002995 0.002291 -0.005361 0.000000 0.025541 0.000000
# 6 0.000000 0.000000 0.000000 -0.007001 0.000000 0.020457
#
#
# Mechanical properties :
#
#
# Convention : Reuss Voigt Hill
#
# Bulk Modulus (GPa) = 30.43912 34.75895 32.59904
# Shear Modulus (GPa) = 29.58122 35.87017 32.72569
#
# Velocity S-wave (km/s) = 3.58487 3.94759 3.77060
# Velocity P-wave (km/s) = 5.50991 5.98989 5.75491
#
# Compressibility (1/GPa) = 0.03285246
#
# Stress axis : x y z
#
# Youngs Moduli (GPa) = 67.38116 61.33607 49.34439
#
# Poissons Ratio (x) = 0.11576 0.34847
# Poissons Ratio (y) = 0.12717 0.01626
# Poissons Ratio (z) = 0.47585 0.02022
#
# Static dielectric constant tensor:
#      x y z
#    x 1.942580 0.000000 0.029800 
#    y 0.000000 1.886170 0.000000 
#    z 0.029800 0.000000 1.800820 
# 
# From -- ./inp_files/287713.got.cif
#   From: 2010.05.17/outbox.cif.g08.bks.cpg/sg15_144_cif.got.tgz:287713.got - 2010.06.03 18:47:42.
