data_PCOD9304939
_publ_section_title
;
Structure prediction by ZEFSAII (Michael W. Deem and Ramdas Pophale) SiO2 
 PCOD9304939
Probable space group: C 2/C
;
_chemical_formula_sum "Si O2"
_cell_formula_units_Z 60
_cell_length_a 27.544566
_cell_length_b 13.245073
_cell_length_c 29.520836
_cell_angle_alpha 90.000000
_cell_angle_beta 17.221633
_cell_angle_gamma 90.000000
_cell_volume 3188.683794
_symmetry_space_group_name_H-M "C 2/C"
_symmetry_group_IT_number 15
_symmetry_cell_setting 'monoclinic'
loop_
_space_group_symop_operation_xyz
x,y,z
-x,y,1/2-z
-x,-y,-z
x,-y,1/2+z
1/2+x,1/2+y,z
1/2-x,1/2+y,1/2-z
1/2-x,1/2-y,-z
1/2+x,1/2-y,1/2+z
loop_
_atom_site_type_symbol
_atom_site_label
_atom_site_fract_x
_atom_site_fract_y
_atom_site_fract_z
Si Si1 0.089041 0.952194 0.993398
Si Si2 0.500000 0.398742 0.250000
Si Si3 0.906016 0.358811 0.714821
Si Si4 0.902725 0.453501 0.027082
Si Si5 0.619966 0.137983 0.855128
Si Si6 0.982094 0.140825 0.493836
Si Si7 0.382838 0.357688 0.256140
Si Si8 0.847167 0.643090 0.422214
O O1 0.281464 0.950543 0.833631
O O2 0.004483 0.059912 0.059001
O O3 0.070097 0.898890 0.961134
O O4 0.012137 0.888872 0.102718
O O5 0.448011 0.349666 0.248646
O O6 0.311068 0.433800 0.433799
O O7 0.816280 0.252120 0.801551
O O8 0.968926 0.373414 0.607872
O O9 0.056319 0.356189 0.616055
O O10 0.846939 0.414065 0.125575
O O11 0.750313 0.445191 0.129666
O O12 0.986572 0.561557 0.953535
O O13 0.789587 0.141841 0.677322
O O14 0.549399 0.249515 0.922881
O O15 0.750000 0.750000 0.500000
O O16 0.000000 0.629144 0.250000
#
# Coordination Sequence:
#
# PCOD9304939 Si02
#       8
#     8   4   8   8   8   8   8   8
#     4  11  25  39  58  91 122 161 210 247 300 379
#     4  12  24  38  56  88 124 166 210 242 314 368
#     4  12  22  37  56  83 124 164 205 240 298 361
#     4  11  24  38  57  86 122 157 205 246 304 369
#     4  11  24  41  60  85 119 160 200 259 308 359
#     4  11  24  41  62  85 122 159 206 258 308 358
#     4  12  22  37  59  87 123 168 195 247 299 373
#     4  12  22  36  53  81 120 166 199 247 297 367
#
# _framework density 18.816541000000001
#
# number of rings (size 3 to 8) (size 9 to 14) (size 15 to 20)
#    0.000    0.533    6.000    3.200    3.733    0.000 
#    0.000    0.000    0.000    0.000    0.000    0.933 
#    4.000    0.000    0.000    0.000    0.000    0.000 
#
# Total GULP energy -167086.842484 kJ/mol
# GULP energy per Si atom -5569.561416 kJ/mol
# Density = 1.877371 g / cm^3
# Si number density = 18.816541 Si / 1000 Ang^3
#
#
#
# Elastic Constant Matrix: (Units=GPa)
#
#
# Indices 1 2 3 4 5 6 
#
# 1 63.0646 27.5626 14.9238 0.0015 0.0778 -0.0016
# 2 27.5626 81.0754 13.1622 0.0048 -9.1515 -0.0066
# 3 14.9238 13.1622 93.6326 0.0278 -2.3553 0.0004
# 4 0.0015 0.0048 0.0278 23.0108 -0.0014 -4.8283
# 5 0.0778 -9.1515 -2.3553 -0.0014 39.0491 -0.0003
# 6 -0.0016 -0.0066 0.0004 -4.8283 -0.0003 9.9987
#
#
#
# Elastic Compliance Matrix: (Units=1/GPa)
#
#
# Indices 1 2 3 4 5 6 
#
# 1 0.019151 -0.006340 -0.002203 0.000003 -0.001657 0.000000
# 2 -0.006340 0.015047 -0.001017 0.000001 0.003478 0.000009
# 3 -0.002203 -0.001017 0.011185 -0.000015 0.000441 -0.000009
# 4 0.000003 0.000001 -0.000015 0.048358 0.000001 0.023352
# 5 -0.001657 0.003478 0.000441 0.000001 0.026454 0.000003
# 6 0.000000 0.000009 -0.000009 0.023352 0.000003 0.111289
#
#
# Mechanical properties :
#
#
# Convention : Reuss Voigt Hill
#
# Bulk Modulus (GPa) = 38.07598 38.78552 38.43075
# Shear Modulus (GPa) = 19.27829 26.55332 22.91580
#
# Velocity S-wave (km/s) = 3.20432 3.76063 3.49356
# Velocity P-wave (km/s) = 5.82834 6.28599 6.06148
#
# Compressibility (1/GPa) = 0.02626327
#
# Stress axis : x y z
#
# Youngs Moduli (GPa) = 52.21646 66.45718 89.40355
#
# Poissons Ratio (x) = 0.42134 0.19694
# Poissons Ratio (y) = 0.33105 0.09094
# Poissons Ratio (z) = 0.11503 0.06760
#
# Static dielectric constant tensor:
#      x y z
#    x 1.653940 0.000000 0.019340 
#    y 0.000000 1.639930 0.000020 
#    z 0.019340 0.000020 1.787010 
# 
# From -- ./inp_files/65508.got.cif
#   From: 2010.05.17/outbox.cif.g08.bks.cpg/sg15_33_cif.got.tgz:65508.got - 2010.06.03 18:47:42.
