data_PCOD9304593
_publ_section_title
;
Structure prediction by ZEFSAII (Michael W. Deem and Ramdas Pophale) SiO2 
 PCOD9304593
Probable space group: C 2/C
;
_chemical_formula_sum "Si O2"
_cell_formula_units_Z 44
_cell_length_a 15.025261
_cell_length_b 9.354350
_cell_length_c 15.823975
_cell_angle_alpha 90.000000
_cell_angle_beta 117.598188
_cell_angle_gamma 90.000000
_cell_volume 1971.023980
_symmetry_space_group_name_H-M "C 2/C"
_symmetry_group_IT_number 15
_symmetry_cell_setting 'monoclinic'
loop_
_space_group_symop_operation_xyz
x,y,z
-x,y,1/2-z
-x,-y,-z
x,-y,1/2+z
1/2+x,1/2+y,z
1/2-x,1/2+y,1/2-z
1/2-x,1/2-y,-z
1/2+x,1/2-y,1/2+z
loop_
_atom_site_type_symbol
_atom_site_label
_atom_site_fract_x
_atom_site_fract_y
_atom_site_fract_z
Si Si1 0.335360 0.755393 0.397165
Si Si2 0.465505 0.910547 0.568614
Si Si3 0.110016 0.258075 0.268714
Si Si4 0.160051 0.960578 0.366266
Si Si5 0.500000 0.221902 0.250000
Si Si6 0.231916 0.519162 0.920997
O O1 0.421383 0.767167 0.505719
O O2 0.383357 0.771082 0.327877
O O3 0.263769 0.891417 0.380378
O O4 0.269471 0.613369 0.380873
O O5 0.533124 0.869153 0.680767
O O6 0.370881 0.982853 0.574346
O O7 0.500000 0.000000 0.500000
O O8 0.201104 0.344505 0.352638
O O9 0.000000 0.307054 0.250000
O O10 0.122365 0.092110 0.295498
O O11 0.084884 0.828313 0.322262
O O12 0.183045 0.025875 0.469156
#
# Coordination Sequence:
#
# PCOD9304593 Si02
#       6
#     8   8   8   8   4   8
#     4  11  23  45  68 100 138 192 239 291 372 436
#     4  11  24  41  73 109 141 187 245 298 362 431
#     4  12  26  41  69 106 144 185 246 305 361 426
#     4  11  23  45  69  98 140 194 234 298 366 433
#     4  12  22  44  74 104 150 190 242 296 362 432
#     4  11  23  45  68 100 145 188 242 303 358 441
#
# _framework density 22.323422000000001
#
# number of rings (size 3 to 8) (size 9 to 14) (size 15 to 20)
#    0.000    0.727    4.545    3.818    3.818    2.909 
#    0.000    7.273    0.000    0.000    0.000    0.000 
#    0.000    0.000    0.000    0.000    0.000    0.000 
#
# Total GULP energy -122784.137202 kJ/mol
# GULP energy per Si atom -5581.097146 kJ/mol
# Density = 2.227261 g / cm^3
# Si number density = 22.323422 Si / 1000 Ang^3
#
#
#
# Elastic Constant Matrix: (Units=GPa)
#
#
# Indices 1 2 3 4 5 6 
#
# 1 79.6283 21.9880 48.8730 0.0000 -23.9563 0.0000
# 2 21.9880 88.8887 38.5453 0.0000 -15.4094 0.0000
# 3 48.8730 38.5453 172.4690 0.0000 -25.2426 0.0000
# 4 0.0000 0.0000 0.0000 -17.7689 0.0000 -33.2911
# 5 -23.9563 -15.4094 -25.2426 0.0000 37.9531 0.0000
# 6 0.0000 0.0000 0.0000 -33.2911 0.0000 -9.0777
#
#
#
# Elastic Compliance Matrix: (Units=1/GPa)
#
#
# Indices 1 2 3 4 5 6 
#
# 1 0.017535 -0.001420 -0.003452 0.000000 0.008196 0.000000
# 2 -0.001420 0.013020 -0.002066 0.000000 0.003016 0.000000
# 3 -0.003452 -0.002066 0.007529 0.000000 0.001990 0.000000
# 4 0.000000 0.000000 0.000000 0.009586 0.000000 -0.035154
# 5 0.008196 0.003016 0.001990 0.000000 0.034070 0.000000
# 6 0.000000 0.000000 0.000000 -0.035154 0.000000 0.018763
#
#
# Mechanical properties :
#
#
# Convention : Reuss Voigt Hill
#
# Bulk Modulus (GPa) = 41.30823 62.19985 51.75404
# Shear Modulus (GPa) = 40.83356 17.65996 29.24676
#
# Velocity S-wave (km/s) = 4.28153 2.81569 3.62351
# Velocity P-wave (km/s) = 6.55642 6.20438 6.38283
#
# Compressibility (1/GPa) = 0.02420825
#
# Stress axis : x y z
#
# Youngs Moduli (GPa) = 57.02933 76.80493 132.81331
#
# Poissons Ratio (x) = 0.10905 0.45848
# Poissons Ratio (y) = 0.08097 0.27441
# Poissons Ratio (z) = 0.19687 0.15869
#
# Static dielectric constant tensor:
#      x y z
#    x 1.836430 0.000000 0.044270 
#    y 0.000000 1.833330 0.000000 
#    z 0.044270 0.000000 1.886610 
# 
# From -- ./inp_files/159812.got.cif
#   From: 2010.05.17/outbox.cif.g08.bks.cpg/sg15_80_cif.got.tgz:159812.got - 2010.06.03 18:47:42.
