data_PCOD9304041
_publ_section_title
;
Structure prediction by ZEFSAII (Michael W. Deem and Ramdas Pophale) SiO2 
 PCOD9304041
Probable space group: C 2/C
;
_chemical_formula_sum "Si O2"
_cell_formula_units_Z 48
_cell_length_a 22.461312
_cell_length_b 9.006715
_cell_length_c 17.655162
_cell_angle_alpha 90.000000
_cell_angle_beta 34.555170
_cell_angle_gamma 90.000000
_cell_volume 2025.858489
_symmetry_space_group_name_H-M "C 2/C"
_symmetry_group_IT_number 15
_symmetry_cell_setting 'monoclinic'
loop_
_space_group_symop_operation_xyz
x,y,z
-x,y,1/2-z
-x,-y,-z
x,-y,1/2+z
1/2+x,1/2+y,z
1/2-x,1/2+y,1/2-z
1/2-x,1/2-y,-z
1/2+x,1/2-y,1/2+z
loop_
_atom_site_type_symbol
_atom_site_label
_atom_site_fract_x
_atom_site_fract_y
_atom_site_fract_z
Si Si1 0.253469 0.206091 0.408562
Si Si2 0.839706 0.576975 0.605993
Si Si3 0.399962 0.446530 0.954176
Si Si4 0.039050 0.481739 0.792532
Si Si5 0.745333 0.773475 0.816566
Si Si6 0.611442 0.324062 0.702476
O O1 0.250000 0.250000 0.500000
O O2 0.243024 0.347753 0.365509
O O3 0.357363 0.107038 0.292045
O O4 0.151877 0.106853 0.494320
O O5 0.840500 0.693205 0.673859
O O6 0.797361 0.419097 0.678849
O O7 0.946687 0.546537 0.449240
O O8 0.524743 0.434684 0.828426
O O9 0.374472 0.373264 0.898648
O O10 0.344920 0.346973 0.075377
O O11 0.066677 0.656360 0.755079
O O12 0.000000 0.431602 0.750000
O O13 0.784180 0.825341 0.858088
#
# Coordination Sequence:
#
# PCOD9304041 Si02
#       6
#     8   8   8   8   8   8
#     4  12  26  44  72 105 146 182 232 297 351 414
#     4  12  28  47  71 104 142 191 235 290 356 427
#     4  11  23  43  72 107 135 183 241 281 349 421
#     4  12  23  45  73 106 138 185 237 290 359 412
#     4  12  25  46  69 101 144 186 238 286 354 422
#     4  11  23  41  77 104 139 184 235 296 344 420
#
# _framework density 23.693660000000001
#
# number of rings (size 3 to 8) (size 9 to 14) (size 15 to 20)
#    0.000    0.333    6.667    2.500    0.000    6.000 
#    0.000    2.500    0.000    0.000    0.000    0.000 
#    0.000    0.000    0.000    0.000    0.000    0.000 
#
# Total GULP energy -134450.038785 kJ/mol
# GULP energy per Si atom -5602.084949 kJ/mol
# Density = 2.363973 g / cm^3
# Si number density = 23.693660 Si / 1000 Ang^3
#
#
#
# Elastic Constant Matrix: (Units=GPa)
#
#
# Indices 1 2 3 4 5 6 
#
# 1 29.9361 -7.2783 -16.7219 0.0000 2.3701 0.0001
# 2 -7.2783 122.8076 39.0348 -0.0002 3.6648 0.0001
# 3 -16.7219 39.0348 97.1285 -0.0001 5.1234 0.0001
# 4 0.0000 -0.0002 -0.0001 33.9899 0.0001 0.7996
# 5 2.3701 3.6648 5.1234 0.0001 33.0141 -0.0001
# 6 0.0001 0.0001 0.0001 0.7996 -0.0001 34.6077
#
#
#
# Elastic Compliance Matrix: (Units=1/GPa)
#
#
# Indices 1 2 3 4 5 6 
#
# 1 0.037412 0.000251 0.006537 0.000000 -0.003728 0.000000
# 2 0.000251 0.009344 -0.003687 0.000000 -0.000483 0.000000
# 3 0.006537 -0.003687 0.013012 0.000000 -0.002079 0.000000
# 4 0.000000 0.000000 0.000000 0.029437 0.000000 -0.000680
# 5 -0.003728 -0.000483 -0.002079 0.000000 0.030934 0.000000
# 6 0.000000 0.000000 0.000000 -0.000680 0.000000 0.028911
#
#
# Mechanical properties :
#
#
# Convention : Reuss Voigt Hill
#
# Bulk Modulus (GPa) = 15.15833 31.10458 23.13145
# Shear Modulus (GPa) = 30.33285 35.97817 33.15551
#
# Velocity S-wave (km/s) = 3.58188 3.90099 3.74483
# Velocity P-wave (km/s) = 4.84954 5.78330 5.33688
#
# Compressibility (1/GPa) = 0.06597034
#
# Stress axis : x y z
#
# Youngs Moduli (GPa) = 26.72937 107.02195 76.85032
#
# Poissons Ratio (x) = -0.02684 -0.50236
# Poissons Ratio (y) = -0.00670 0.28331
# Poissons Ratio (z) = -0.17473 0.39454
#
# Static dielectric constant tensor:
#      x y z
#    x 1.913970 0.000000 0.039040 
#    y 0.000000 1.887840 0.000000 
#    z 0.039040 0.000000 1.868440 
# 
# From -- ./inp_files/254792.got.cif
#   From: 2010.05.17/outbox.cif.g08.bks.cpg/sg15_128_cif.got.tgz:254792.got - 2010.06.03 18:47:42.
