data_PCOD9304273
_publ_section_title
;
Structure prediction by ZEFSAII (Michael W. Deem and Ramdas Pophale) SiO2 
 PCOD9304273
Probable space group: C 2/C
;
_chemical_formula_sum "Si O2"
_cell_formula_units_Z 52
_cell_length_a 5.665501
_cell_length_b 21.383455
_cell_length_c 21.750448
_cell_angle_alpha 90.000000
_cell_angle_beta 103.137692
_cell_angle_gamma 90.000000
_cell_volume 2566.055595
_symmetry_space_group_name_H-M "C 2/C"
_symmetry_group_IT_number 15
_symmetry_cell_setting 'monoclinic'
loop_
_space_group_symop_operation_xyz
x,y,z
-x,y,1/2-z
-x,-y,-z
x,-y,1/2+z
1/2+x,1/2+y,z
1/2-x,1/2+y,1/2-z
1/2-x,1/2-y,-z
1/2+x,1/2-y,1/2+z
loop_
_atom_site_type_symbol
_atom_site_label
_atom_site_fract_x
_atom_site_fract_y
_atom_site_fract_z
Si Si1 0.500000 0.953839 0.750000
Si Si2 0.608910 0.142518 0.362783
Si Si3 0.829894 0.544548 0.031191
Si Si4 0.574295 0.294907 0.826119
Si Si5 0.692184 0.447666 0.307584
Si Si6 0.927585 0.646962 0.673674
Si Si7 0.564851 0.447281 0.094167
O O1 0.400147 0.908869 0.691734
O O2 0.681205 0.000669 0.726522
O O3 0.598228 0.106519 0.427515
O O4 0.353194 0.180677 0.346653
O O5 0.862732 0.178047 0.359465
O O6 0.754977 0.496323 0.079983
O O7 0.610208 0.564609 0.973425
O O8 0.000000 0.500000 0.000000
O O9 0.500000 0.306492 0.750000
O O10 0.577238 0.220232 0.837041
O O11 0.500000 0.417243 0.250000
O O12 0.576992 0.480660 0.359189
O O13 0.859573 0.393295 0.344781
O O14 0.689645 0.612262 0.633818
O O15 0.000000 0.637114 0.750000
#
# Coordination Sequence:
#
# PCOD9304273 Si02
#       7
#     4   8   8   8   8   8   8
#     4  12  24  38  64 104 138 174 232 292 362 418
#     4  12  26  45  70 102 141 187 236 288 355 423
#     4  11  26  46  71  98 141 185 234 291 362 421
#     4  11  26  46  70 102 143 192 230 291 354 422
#     4  12  22  38  67 104 136 174 226 294 355 411
#     4  11  23  43  68 103 138 178 234 288 350 411
#     4  11  24  43  70 102 135 183 228 292 355 420
#
# _framework density 20.264562999999999
#
# number of rings (size 3 to 8) (size 9 to 14) (size 15 to 20)
#    0.000    0.615    3.846    3.692   10.769    0.000 
#    0.000    1.538    0.000    0.000    0.000    0.000 
#    0.000    0.000    0.000    0.000    0.000    0.000 
#
# Total GULP energy -144930.894154 kJ/mol
# GULP energy per Si atom -5574.265160 kJ/mol
# Density = 2.021844 g / cm^3
# Si number density = 20.264563 Si / 1000 Ang^3
#
#
#
# Elastic Constant Matrix: (Units=GPa)
#
#
# Indices 1 2 3 4 5 6 
#
# 1 124.1653 68.0583 35.3810 0.0000 -18.4323 0.0000
# 2 68.0583 124.3556 50.7018 0.0000 7.1206 0.0000
# 3 35.3810 50.7018 80.9710 0.0000 -3.2108 0.0000
# 4 0.0000 0.0000 0.0000 30.6397 0.0000 4.4680
# 5 -18.4323 7.1206 -3.2108 0.0000 44.4597 0.0000
# 6 0.0000 0.0000 0.0000 4.4680 0.0000 11.2565
#
#
#
# Elastic Compliance Matrix: (Units=1/GPa)
#
#
# Indices 1 2 3 4 5 6 
#
# 1 0.013288 -0.007237 -0.001013 0.000000 0.006595 0.000000
# 2 -0.007237 0.014964 -0.006440 0.000000 -0.005862 0.000000
# 3 -0.001013 -0.006440 0.016898 0.000000 0.001832 0.000000
# 4 0.000000 0.000000 0.000000 0.034643 0.000000 -0.013750
# 5 0.006595 -0.005862 0.001832 0.000000 0.026298 0.000000
# 6 0.000000 0.000000 0.000000 -0.013750 0.000000 0.094296
#
#
# Mechanical properties :
#
#
# Convention : Reuss Voigt Hill
#
# Bulk Modulus (GPa) = 63.41410 70.86380 67.13895
# Shear Modulus (GPa) = 21.27453 28.96121 25.11787
#
# Velocity S-wave (km/s) = 3.24364 3.78452 3.52447
# Velocity P-wave (km/s) = 6.73716 7.35813 7.05448
#
# Compressibility (1/GPa) = 0.01576936
#
# Stress axis : x y z
#
# Youngs Moduli (GPa) = 75.25375 66.82920 59.17861
#
# Poissons Ratio (x) = 0.48365 0.05997
# Poissons Ratio (y) = 0.54462 0.38110
# Poissons Ratio (z) = 0.07625 0.43037
#
# Static dielectric constant tensor:
#      x y z
#    x 1.877550 0.000000 0.010520 
#    y 0.000000 1.698600 0.000000 
#    z 0.010520 0.000000 1.727580 
# 
# From -- ./inp_files/227587.got.cif
#   From: 2010.05.17/outbox.cif.g08.bks.cpg/sg15_114_cif.got.tgz:227587.got - 2010.06.03 18:47:42.
