data_PCOD9304159
_publ_section_title
;
Structure prediction by ZEFSAII (Michael W. Deem and Ramdas Pophale) SiO2 
 PCOD9304159
Probable space group: C 2/C
;
_chemical_formula_sum "Si O2"
_cell_formula_units_Z 60
_cell_length_a 13.329210
_cell_length_b 20.210156
_cell_length_c 14.093290
_cell_angle_alpha 90.000000
_cell_angle_beta 135.516939
_cell_angle_gamma 90.000000
_cell_volume 2660.220098
_symmetry_space_group_name_H-M "C 2/C"
_symmetry_group_IT_number 15
_symmetry_cell_setting 'monoclinic'
loop_
_space_group_symop_operation_xyz
x,y,z
-x,y,1/2-z
-x,-y,-z
x,-y,1/2+z
1/2+x,1/2+y,z
1/2-x,1/2+y,1/2-z
1/2-x,1/2-y,-z
1/2+x,1/2-y,1/2+z
loop_
_atom_site_type_symbol
_atom_site_label
_atom_site_fract_x
_atom_site_fract_y
_atom_site_fract_z
Si Si1 0.719845 0.014076 0.565232
Si Si2 0.500000 0.414295 0.250000
Si Si3 0.029545 0.740422 0.007676
Si Si4 0.635651 0.226610 0.790955
Si Si5 0.501812 0.869552 0.638683
Si Si6 0.487476 0.609929 0.956461
Si Si7 0.708130 0.080709 0.894757
Si Si8 0.260593 0.967275 0.709379
O O1 0.869574 0.041000 0.629497
O O2 0.608720 0.073018 0.468705
O O3 0.697493 0.945588 0.494532
O O4 0.743240 0.001894 0.691733
O O5 0.543283 0.381576 0.178023
O O6 0.203328 0.742157 0.103445
O O7 0.990756 0.697718 0.073391
O O8 0.981801 0.816057 0.988651
O O9 0.928962 0.713326 0.856236
O O10 0.500000 0.263757 0.750000
O O11 0.651627 0.154912 0.850848
O O12 0.500000 0.859431 0.750000
O O13 0.654116 0.900187 0.717198
O O14 0.356142 0.586993 0.934683
O O15 0.613388 0.558416 0.064890
O O16 0.649011 0.016897 0.797017
#
# Coordination Sequence:
#
# PCOD9304159 Si02
#       8
#     8   4   8   8   8   8   8   8
#     4  12  25  41  73 105 144 185 235 298 370 429
#     4  12  22  42  70 104 138 194 232 294 366 418
#     4  11  27  49  71 107 142 197 247 295 355 437
#     4  11  26  48  77 102 146 190 244 302 361 428
#     4  12  26  45  70 107 145 188 236 298 363 432
#     4  11  24  45  69 101 145 189 244 297 349 437
#     4  11  23  42  70 106 141 183 237 300 365 429
#     4  12  23  44  67 103 147 183 236 297 366 431
#
# _framework density 22.554524000000001
#
# number of rings (size 3 to 8) (size 9 to 14) (size 15 to 20)
#    0.000    0.533    4.000    3.600    6.533    0.000 
#    4.800    2.000    0.000    0.000    0.000    0.000 
#    0.000    0.000    0.000    0.000    0.000    0.000 
#
# Total GULP energy -167343.024193 kJ/mol
# GULP energy per Si atom -5578.100806 kJ/mol
# Density = 2.250319 g / cm^3
# Si number density = 22.554524 Si / 1000 Ang^3
#
#
#
# Elastic Constant Matrix: (Units=GPa)
#
#
# Indices 1 2 3 4 5 6 
#
# 1 72.9362 6.9004 31.0692 0.0000 -2.4009 0.0000
# 2 6.9004 84.3224 12.6391 0.0000 -1.6701 0.0000
# 3 31.0692 12.6391 96.0736 0.0000 -2.2003 0.0000
# 4 0.0000 0.0000 0.0000 22.4967 0.0000 -11.6320
# 5 -2.4009 -1.6701 -2.2003 0.0000 46.7091 0.0000
# 6 0.0000 0.0000 0.0000 -11.6320 0.0000 27.2664
#
#
#
# Elastic Compliance Matrix: (Units=1/GPa)
#
#
# Indices 1 2 3 4 5 6 
#
# 1 0.015940 -0.000533 -0.005072 0.000000 0.000561 0.000000
# 2 -0.000533 0.012122 -0.001414 0.000000 0.000339 0.000000
# 3 -0.005072 -0.001414 0.012241 0.000000 0.000265 0.000000
# 4 0.000000 0.000000 0.000000 0.057031 0.000000 0.024330
# 5 0.000561 0.000339 0.000265 0.000000 0.021463 0.000000
# 6 0.000000 0.000000 0.000000 0.024330 0.000000 0.047054
#
#
# Mechanical properties :
#
#
# Convention : Reuss Voigt Hill
#
# Bulk Modulus (GPa) = 38.07525 39.39439 38.73482
# Shear Modulus (GPa) = 26.50496 32.80933 29.65714
#
# Velocity S-wave (km/s) = 3.43177 3.81815 3.63010
# Velocity P-wave (km/s) = 5.71146 6.07798 5.89757
#
# Compressibility (1/GPa) = 0.02626378
#
# Stress axis : x y z
#
# Youngs Moduli (GPa) = 62.73515 82.49726 81.69252
#
# Poissons Ratio (x) = 0.04398 0.41433
# Poissons Ratio (y) = 0.03344 0.11555
# Poissons Ratio (z) = 0.31818 0.11669
#
# Static dielectric constant tensor:
#      x y z
#    x 1.912760 0.000000 0.029430 
#    y 0.000000 1.826790 0.000000 
#    z 0.029430 0.000000 1.751510 
# 
# From -- ./inp_files/156373.got.cif
#   From: 2010.05.17/outbox.cif.g08.bks.cpg/sg15_79_cif.got.tgz:156373.got - 2010.06.03 18:47:42.
