data_PCOD9304243
_publ_section_title
;
Structure prediction by ZEFSAII (Michael W. Deem and Ramdas Pophale) SiO2 
 PCOD9304243
Probable space group: C 2/C
;
_chemical_formula_sum "Si O2"
_cell_formula_units_Z 40
_cell_length_a 11.611174
_cell_length_b 17.733108
_cell_length_c 17.879068
_cell_angle_alpha 90.000000
_cell_angle_beta 28.791063
_cell_angle_gamma 90.000000
_cell_volume 1772.995610
_symmetry_space_group_name_H-M "C 2/C"
_symmetry_group_IT_number 15
_symmetry_cell_setting 'monoclinic'
loop_
_space_group_symop_operation_xyz
x,y,z
-x,y,1/2-z
-x,-y,-z
x,-y,1/2+z
1/2+x,1/2+y,z
1/2-x,1/2+y,1/2-z
1/2-x,1/2-y,-z
1/2+x,1/2-y,1/2+z
loop_
_atom_site_type_symbol
_atom_site_label
_atom_site_fract_x
_atom_site_fract_y
_atom_site_fract_z
Si Si1 0.996975 0.669882 0.910854
Si Si2 0.718247 0.934487 0.582802
Si Si3 0.298749 0.591895 0.624804
Si Si4 0.985463 0.423111 0.555450
Si Si5 0.990475 0.166394 0.138233
O O1 0.074083 0.611121 0.803357
O O2 0.102149 0.749125 0.822833
O O3 0.074815 0.641860 0.947885
O O4 0.706500 0.671279 0.075121
O O5 0.500000 0.893653 0.750000
O O6 0.637813 0.937016 0.543192
O O7 0.980591 0.901752 0.443288
O O8 0.755558 0.011943 0.609058
O O9 0.373724 0.647143 0.516101
O O10 0.715724 0.395608 0.731066
O O11 0.000000 0.500000 0.500000
#
# Coordination Sequence:
#
# PCOD9304243 Si02
#       5
#     8   8   8   8   8
#     4  11  25  44  71 110 137 186 236 294 358 425
#     4  11  23  43  66  97 137 184 227 288 353 417
#     4  11  23  43  70  95 137 184 230 278 355 429
#     4  12  25  43  70 107 141 182 242 299 350 414
#     4  11  23  46  73  99 149 184 231 290 360 433
#
# _framework density 22.560687999999999
#
# number of rings (size 3 to 8) (size 9 to 14) (size 15 to 20)
#    0.000    0.800    2.000    6.000    2.800    4.000 
#    0.000    6.000    0.000    0.000    0.000    0.000 
#    0.000    0.000    0.000    0.000    0.000    0.000 
#
# Total GULP energy -111724.342066 kJ/mol
# GULP energy per Si atom -5586.217103 kJ/mol
# Density = 2.250934 g / cm^3
# Si number density = 22.560688 Si / 1000 Ang^3
#
#
#
# Elastic Constant Matrix: (Units=GPa)
#
#
# Indices 1 2 3 4 5 6 
#
# 1 176.4115 42.4641 57.3198 -0.0071 -2.1255 -0.0010
# 2 42.4641 56.4744 33.5008 -0.0642 -9.8861 0.0248
# 3 57.3198 33.5008 77.5669 -0.0754 0.2574 0.0192
# 4 -0.0071 -0.0642 -0.0754 35.1348 -0.0010 6.1181
# 5 -2.1255 -9.8861 0.2574 -0.0010 42.0387 0.0031
# 6 -0.0010 0.0248 0.0192 6.1181 0.0031 26.4245
#
#
#
# Elastic Compliance Matrix: (Units=1/GPa)
#
#
# Indices 1 2 3 4 5 6 
#
# 1 0.007905 -0.003423 -0.004362 -0.000016 -0.000378 0.000010
# 2 -0.003423 0.026717 -0.009030 0.000034 0.006165 -0.000027
# 3 -0.004362 -0.009030 0.020024 0.000028 -0.002467 -0.000012
# 4 -0.000016 0.000034 0.000028 0.029658 0.000008 -0.006867
# 5 -0.000378 0.006165 -0.002467 0.000008 0.025233 -0.000009
# 6 0.000010 -0.000027 -0.000012 -0.006867 -0.000009 0.039434
#
#
# Mechanical properties :
#
#
# Convention : Reuss Voigt Hill
#
# Bulk Modulus (GPa) = 47.58293 64.11359 55.84826
# Shear Modulus (GPa) = 26.37054 32.53081 29.45068
#
# Velocity S-wave (km/s) = 3.42259 3.80139 3.61695
# Velocity P-wave (km/s) = 6.06264 6.90995 6.50012
#
# Compressibility (1/GPa) = 0.02101594
#
# Stress axis : x y z
#
# Youngs Moduli (GPa) = 126.49775 37.42998 49.94023
#
# Poissons Ratio (x) = 0.12811 0.21786
# Poissons Ratio (y) = 0.43296 0.45096
# Poissons Ratio (z) = 0.55182 0.33799
#
# Static dielectric constant tensor:
#      x y z
#    x 1.865980 -0.000020 -0.090120 
#    y -0.000020 1.894230 0.000080 
#    z -0.090120 0.000080 2.036320 
# 
# From -- ./inp_files/199668.got.cif
#   From: 2010.05.17/outbox.cif.g08.bks.cpg/sg15_100_cif.got.tgz:199668.got - 2010.06.03 18:47:42.
