data_PCOD9304418
_publ_section_title
;
Structure prediction by ZEFSAII (Michael W. Deem and Ramdas Pophale) SiO2 
 PCOD9304418
Probable space group: C 2/C
;
_chemical_formula_sum "Si O2"
_cell_formula_units_Z 32
_cell_length_a 26.328457
_cell_length_b 6.764133
_cell_length_c 9.696289
_cell_angle_alpha 90.000000
_cell_angle_beta 94.856770
_cell_angle_gamma 90.000000
_cell_volume 1720.604045
_symmetry_space_group_name_H-M "C 2/C"
_symmetry_group_IT_number 15
_symmetry_cell_setting 'monoclinic'
loop_
_space_group_symop_operation_xyz
x,y,z
-x,y,1/2-z
-x,-y,-z
x,-y,1/2+z
1/2+x,1/2+y,z
1/2-x,1/2+y,1/2-z
1/2-x,1/2-y,-z
1/2+x,1/2-y,1/2+z
loop_
_atom_site_type_symbol
_atom_site_label
_atom_site_fract_x
_atom_site_fract_y
_atom_site_fract_z
Si Si1 0.639571 0.940601 0.209706
Si Si2 0.890728 0.947685 0.967448
Si Si3 0.809941 0.718780 0.500448
Si Si4 0.059826 0.777610 0.244645
O O1 0.623496 0.746887 0.121700
O O2 0.667379 0.878453 0.356120
O O3 0.590090 0.072742 0.232330
O O4 0.675793 0.076430 0.123461
O O5 0.927423 0.086216 0.884334
O O6 0.916754 0.884956 0.115997
O O7 0.840165 0.076335 0.984675
O O8 0.750000 0.750000 0.500000
O O9 0.000000 0.747908 0.250000
#
# Coordination Sequence:
#
# PCOD9304418 Si02
#       4
#     8   8   8   8
#     4  11  24  44  63  96 131 159 214 263 304 380
#     4  11  23  44  63  95 130 158 218 260 303 382
#     4  11  26  42  67  94 126 170 207 259 317 367
#     4  11  24  42  67  93 126 170 207 259 317 367
#
# _framework density 18.598120999999999
#
# number of rings (size 3 to 8) (size 9 to 14) (size 15 to 20)
#    0.000    1.000    5.000    0.750    3.500    3.000 
#    0.000    0.000    0.000    0.000    0.000    0.000 
#    0.000    0.000    0.000    0.000    0.000    0.000 
#
# Total GULP energy -89489.661214 kJ/mol
# GULP energy per Si atom -5593.103826 kJ/mol
# Density = 1.855579 g / cm^3
# Si number density = 18.598121 Si / 1000 Ang^3
#
#
#
# Elastic Constant Matrix: (Units=GPa)
#
#
# Indices 1 2 3 4 5 6 
#
# 1 188.4712 85.6099 50.7643 0.0000 -29.9355 0.0000
# 2 85.6099 137.3740 63.0265 0.0000 -2.4832 0.0000
# 3 50.7643 63.0265 109.3776 0.0000 -12.6210 0.0000
# 4 0.0000 0.0000 0.0000 47.6815 0.0000 0.4962
# 5 -29.9355 -2.4832 -12.6210 0.0000 13.7342 0.0000
# 6 0.0000 0.0000 0.0000 0.4962 0.0000 9.2519
#
#
#
# Elastic Compliance Matrix: (Units=1/GPa)
#
#
# Indices 1 2 3 4 5 6 
#
# 1 0.013494 -0.008945 0.002348 0.000000 0.029952 0.000000
# 2 -0.008945 0.016011 -0.007820 0.000000 -0.023788 0.000000
# 3 0.002348 -0.007820 0.014527 0.000000 0.017052 0.000000
# 4 0.000000 0.000000 0.000000 0.020984 0.000000 -0.001125
# 5 0.029952 -0.023788 0.017052 0.000000 0.149466 0.000000
# 6 0.000000 0.000000 0.000000 -0.001125 0.000000 0.108147
#
#
# Mechanical properties :
#
#
# Convention : Reuss Voigt Hill
#
# Bulk Modulus (GPa) = 65.79690 92.66938 79.23314
# Shear Modulus (GPa) = 14.02413 29.85498 21.93955
#
# Velocity S-wave (km/s) = 2.74900 4.01093 3.43835
# Velocity P-wave (km/s) = 6.74767 8.44899 7.64580
#
# Compressibility (1/GPa) = 0.01519828
#
# Stress axis : x y z
#
# Youngs Moduli (GPa) = 74.10661 62.45545 68.83958
#
# Poissons Ratio (x) = 0.55867 -0.16161
# Poissons Ratio (y) = 0.66289 0.53829
# Poissons Ratio (z) = -0.17398 0.48837
#
# Static dielectric constant tensor:
#      x y z
#    x 1.588980 0.000000 -0.015920 
#    y 0.000000 1.624940 0.000000 
#    z -0.015920 0.000000 1.629590 
# 
# From -- ./inp_files/67875.got.cif
#   From: 2010.05.17/outbox.cif.g08.bks.cpg/sg15_34_cif.got.tgz:67875.got - 2010.06.03 18:47:42.
