data_PCOD9304855
_publ_section_title
;
Structure prediction by ZEFSAII (Michael W. Deem and Ramdas Pophale) SiO2 
 PCOD9304855
Probable space group: C 2/C
;
_chemical_formula_sum "Si O2"
_cell_formula_units_Z 40
_cell_length_a 18.016917
_cell_length_b 14.583316
_cell_length_c 11.509019
_cell_angle_alpha 90.000000
_cell_angle_beta 147.622114
_cell_angle_gamma 90.000000
_cell_volume 1619.329611
_symmetry_space_group_name_H-M "C 2/C"
_symmetry_group_IT_number 15
_symmetry_cell_setting 'monoclinic'
loop_
_space_group_symop_operation_xyz
x,y,z
-x,y,1/2-z
-x,-y,-z
x,-y,1/2+z
1/2+x,1/2+y,z
1/2-x,1/2+y,1/2-z
1/2-x,1/2-y,-z
1/2+x,1/2-y,1/2+z
loop_
_atom_site_type_symbol
_atom_site_label
_atom_site_fract_x
_atom_site_fract_y
_atom_site_fract_z
Si Si1 0.658352 0.977971 0.675264
Si Si2 0.414717 0.688705 0.848089
Si Si3 0.676219 0.361149 0.777074
Si Si4 0.629047 0.863509 0.853083
Si Si5 0.798403 0.837228 0.424161
O O1 0.735507 0.074048 0.779627
O O2 0.500000 0.000000 0.500000
O O3 0.698524 0.919844 0.613928
O O4 0.699224 0.917766 0.840697
O O5 0.442235 0.775738 0.803178
O O6 0.259564 0.663165 0.604137
O O7 0.408930 0.704325 0.979599
O O8 0.543656 0.618925 0.018506
O O9 0.699626 0.251087 0.803176
O O10 0.663095 0.375330 0.897641
O O11 0.500000 0.909842 0.750000
#
# Coordination Sequence:
#
# PCOD9304855 Si02
#       5
#     8   8   8   8   8
#     4  12  27  47  75 108 149 198 257 309 378 457
#     4  11  23  47  74 107 149 196 251 311 384 446
#     4  11  26  49  75 109 154 201 251 316 379 453
#     4  11  25  44  77 109 147 198 250 316 377 452
#     4  11  26  47  73 109 152 202 248 312 382 451
#
# _framework density 24.701581000000001
#
# number of rings (size 3 to 8) (size 9 to 14) (size 15 to 20)
#    0.000    0.800    2.000    4.200    8.400    0.800 
#    3.600    0.000    0.000    0.000    0.000    0.000 
#    0.000    0.000    0.000    0.000    0.000    0.000 
#
# Total GULP energy -111575.400488 kJ/mol
# GULP energy per Si atom -5578.770024 kJ/mol
# Density = 2.464536 g / cm^3
# Si number density = 24.701581 Si / 1000 Ang^3
#
#
#
# Elastic Constant Matrix: (Units=GPa)
#
#
# Indices 1 2 3 4 5 6 
#
# 1 151.0575 24.7351 49.0138 0.0000 -24.8833 0.0000
# 2 24.7351 77.3943 39.4885 0.0000 -19.2054 0.0000
# 3 49.0138 39.4885 113.9000 0.0000 -0.8290 0.0000
# 4 0.0000 0.0000 0.0000 15.3439 0.0000 1.2763
# 5 -24.8833 -19.2054 -0.8290 0.0000 40.7265 0.0000
# 6 0.0000 0.0000 0.0000 1.2763 0.0000 37.7295
#
#
#
# Elastic Compliance Matrix: (Units=1/GPa)
#
#
# Indices 1 2 3 4 5 6 
#
# 1 0.008699 0.000579 -0.003904 0.000000 0.005509 0.000000
# 2 0.000579 0.018248 -0.006511 0.000000 0.008826 0.000000
# 3 -0.003904 -0.006511 0.012679 0.000000 -0.005198 0.000000
# 4 0.000000 0.000000 0.000000 0.065356 0.000000 -0.002211
# 5 0.005509 0.008826 -0.005198 0.000000 0.031976 0.000000
# 6 0.000000 0.000000 0.000000 -0.002211 0.000000 0.026579
#
#
# Mechanical properties :
#
#
# Convention : Reuss Voigt Hill
#
# Bulk Modulus (GPa) = 50.11666 63.20296 56.65981
# Shear Modulus (GPa) = 26.33466 34.03427 30.18447
#
# Velocity S-wave (km/s) = 3.26868 3.71592 3.49945
# Velocity P-wave (km/s) = 5.88036 6.63724 6.27023
#
# Compressibility (1/GPa) = 0.01995344
#
# Stress axis : x y z
#
# Youngs Moduli (GPa) = 114.95019 54.79909 78.86894
#
# Poissons Ratio (x) = -0.03171 0.30791
# Poissons Ratio (y) = -0.06651 0.51355
# Poissons Ratio (z) = 0.44877 0.35682
#
# Static dielectric constant tensor:
#      x y z
#    x 2.149160 0.000000 -0.024490 
#    y 0.000000 2.180610 0.000000 
#    z -0.024490 0.000000 2.096180 
# 
# From -- ./inp_files/105552.got.cif
#   From: 2010.05.17/outbox.cif.g08.bks.cpg/sg15_53_cif.got.tgz:105552.got - 2010.06.03 18:47:42.
