data_PCOD9304531
_publ_section_title
;
Structure prediction by ZEFSAII (Michael W. Deem and Ramdas Pophale) SiO2 
 PCOD9304531
Probable space group: C 2/C
;
_chemical_formula_sum "Si O2"
_cell_formula_units_Z 52
_cell_length_a 15.993603
_cell_length_b 27.089571
_cell_length_c 8.230910
_cell_angle_alpha 90.000000
_cell_angle_beta 141.478997
_cell_angle_gamma 90.000000
_cell_volume 2220.986535
_symmetry_space_group_name_H-M "C 2/C"
_symmetry_group_IT_number 15
_symmetry_cell_setting 'monoclinic'
loop_
_space_group_symop_operation_xyz
x,y,z
-x,y,1/2-z
-x,-y,-z
x,-y,1/2+z
1/2+x,1/2+y,z
1/2-x,1/2+y,1/2-z
1/2-x,1/2-y,-z
1/2+x,1/2-y,1/2+z
loop_
_atom_site_type_symbol
_atom_site_label
_atom_site_fract_x
_atom_site_fract_y
_atom_site_fract_z
Si Si1 0.000000 0.104813 0.750000
Si Si2 0.281927 0.528643 0.522478
Si Si3 0.986251 0.440758 0.048369
Si Si4 0.000000 0.716232 0.250000
Si Si5 0.590318 0.829497 0.541376
Si Si6 0.611922 0.693762 0.108405
Si Si7 0.500000 0.341147 0.750000
Si Si8 0.287501 0.570594 0.890868
O O1 0.873160 0.068529 0.567512
O O2 0.978002 0.145184 0.575360
O O3 0.291475 0.546361 0.720316
O O4 0.336909 0.473014 0.586171
O O5 0.126936 0.529335 0.223957
O O6 0.129913 0.424688 0.193155
O O7 0.000000 0.462360 0.250000
O O8 0.917814 0.388105 0.966601
O O9 0.939978 0.687668 0.316902
O O10 0.094438 0.755637 0.483980
O O11 0.500000 0.812522 0.250000
O O12 0.738776 0.818962 0.708642
O O13 0.566041 0.696548 0.222117
O O14 0.375858 0.379892 0.529747
#
# Coordination Sequence:
#
# PCOD9304531 Si02
#       8
#     4   8   8   4   8   8   4   8
#     4  11  23  44  72  94 140 190 234 298 359 435
#     4  12  25  43  67 100 144 189 245 299 359 430
#     4  11  24  45  71 101 144 190 239 304 366 433
#     4  11  28  48  79 112 146 192 241 310 380 455
#     4  11  25  48  78 110 149 190 246 306 374 453
#     4  11  25  50  72 108 149 187 242 308 373 447
#     4  12  25  46  75 104 146 198 247 300 373 440
#     4  12  27  41  69 103 142 193 248 300 360 434
#
# _framework density 23.413018000000001
#
# number of rings (size 3 to 8) (size 9 to 14) (size 15 to 20)
#    0.000    0.615    3.077    4.615    5.385    1.846 
#    8.308    0.000    0.000    0.000    0.000    0.000 
#    0.000    0.000    0.000    0.000    0.000    0.000 
#
# Total GULP energy -145073.217955 kJ/mol
# GULP energy per Si atom -5579.739152 kJ/mol
# Density = 2.335973 g / cm^3
# Si number density = 23.413018 Si / 1000 Ang^3
#
#
#
# Elastic Constant Matrix: (Units=GPa)
#
#
# Indices 1 2 3 4 5 6 
#
# 1 150.9109 27.3237 39.4924 0.0000 -17.1601 0.0000
# 2 27.3237 38.0886 24.4925 0.0000 -6.1744 0.0000
# 3 39.4924 24.4925 65.2113 0.0000 0.6671 0.0000
# 4 0.0000 0.0000 0.0000 64.0329 0.0000 19.2640
# 5 -17.1601 -6.1744 0.6671 0.0000 36.3393 0.0000
# 6 0.0000 0.0000 0.0000 19.2640 0.0000 47.4218
#
#
#
# Elastic Compliance Matrix: (Units=1/GPa)
#
#
# Indices 1 2 3 4 5 6 
#
# 1 0.008671 -0.002932 -0.004187 0.000000 0.003673 0.000000
# 2 -0.002932 0.037023 -0.012182 0.000000 0.005130 0.000000
# 3 -0.004187 -0.012182 0.022492 0.000000 -0.004460 0.000000
# 4 0.000000 0.000000 0.000000 0.017791 0.000000 -0.007227
# 5 0.003673 0.005130 -0.004460 0.000000 0.030206 0.000000
# 6 0.000000 0.000000 0.000000 -0.007227 0.000000 0.024023
#
#
# Mechanical properties :
#
#
# Convention : Reuss Voigt Hill
#
# Bulk Modulus (GPa) = 33.80394 48.53644 41.17019
# Shear Modulus (GPa) = 26.50118 40.41894 33.46006
#
# Velocity S-wave (km/s) = 3.36802 4.15944 3.78447
# Velocity P-wave (km/s) = 5.44005 6.62144 6.05961
#
# Compressibility (1/GPa) = 0.02958235
#
# Stress axis : x y z
#
# Youngs Moduli (GPa) = 115.32960 27.01017 44.46062
#
# Poissons Ratio (x) = 0.07919 0.18618
# Poissons Ratio (y) = 0.33815 0.54163
# Poissons Ratio (z) = 0.48294 0.32904
#
# Static dielectric constant tensor:
#      x y z
#    x 2.399850 0.000000 0.003770 
#    y 0.000000 1.882310 0.000000 
#    z 0.003770 0.000000 1.972040 
# 
# From -- ./inp_files/44960.got.cif
#   From: 2010.05.17/outbox.cif.g08.bks.cpg/sg15_23_cif.got.tgz:44960.got - 2010.06.03 18:47:42.
