data_PCOD9304786
_publ_section_title
;
Structure prediction by ZEFSAII (Michael W. Deem and Ramdas Pophale) SiO2 
 PCOD9304786
Probable space group: C 2/C
;
_chemical_formula_sum "Si O2"
_cell_formula_units_Z 44
_cell_length_a 13.702312
_cell_length_b 22.528303
_cell_length_c 11.740092
_cell_angle_alpha 90.000000
_cell_angle_beta 147.930258
_cell_angle_gamma 90.000000
_cell_volume 1924.191925
_symmetry_space_group_name_H-M "C 2/C"
_symmetry_group_IT_number 15
_symmetry_cell_setting 'monoclinic'
loop_
_space_group_symop_operation_xyz
x,y,z
-x,y,1/2-z
-x,-y,-z
x,-y,1/2+z
1/2+x,1/2+y,z
1/2-x,1/2+y,1/2-z
1/2-x,1/2-y,-z
1/2+x,1/2-y,1/2+z
loop_
_atom_site_type_symbol
_atom_site_label
_atom_site_fract_x
_atom_site_fract_y
_atom_site_fract_z
Si Si1 0.070197 0.532795 0.452590
Si Si2 0.938326 0.666622 0.314064
Si Si3 0.915541 0.833201 0.906305
Si Si4 0.157491 0.056941 0.311587
Si Si5 0.815171 0.713557 0.753385
Si Si6 0.500000 0.130581 0.750000
O O1 0.017441 0.601063 0.419159
O O2 0.279833 0.509658 0.655637
O O3 0.000000 0.522970 0.250000
O O4 0.000000 0.500000 0.500000
O O5 0.041671 0.709565 0.502020
O O6 0.000000 0.682318 0.250000
O O7 0.719952 0.668628 0.119291
O O8 0.905733 0.900280 0.851797
O O9 0.817853 0.783738 0.725865
O O10 0.126452 0.814360 0.111035
O O11 0.344868 0.089361 0.539211
O O12 0.000000 0.057393 0.250000
O O13 0.893799 0.672515 0.732696
#
# Coordination Sequence:
#
# PCOD9304786 Si02
#       6
#     8   8   8   8   8   4
#     4  11  23  46  74  99 142 186 236 298 355 415
#     4  11  26  48  69  98 141 187 237 294 344 416
#     4  12  24  44  70 104 139 186 232 285 359 419
#     4  12  24  41  70 107 138 183 229 286 355 427
#     4  12  25  43  70 105 141 183 233 286 354 421
#     4  12  22  40  70 102 144 176 218 292 350 414
#
# _framework density 22.866741000000001
#
# number of rings (size 3 to 8) (size 9 to 14) (size 15 to 20)
#    0.000    0.364    8.182    0.000    1.273    2.909 
#    6.545    1.818    0.000    0.000    0.000    0.000 
#    0.000    0.000    0.000    0.000    0.000    0.000 
#
# Total GULP energy -122771.120434 kJ/mol
# GULP energy per Si atom -5580.505474 kJ/mol
# Density = 2.281470 g / cm^3
# Si number density = 22.866741 Si / 1000 Ang^3
#
#
#
# Elastic Constant Matrix: (Units=GPa)
#
#
# Indices 1 2 3 4 5 6 
#
# 1 183.0929 16.1427 46.0284 0.0000 33.1877 0.0000
# 2 16.1427 89.2243 6.8036 0.0000 4.3703 0.0000
# 3 46.0284 6.8036 61.3194 0.0000 17.2402 0.0000
# 4 0.0000 0.0000 0.0000 63.2709 0.0000 4.8896
# 5 33.1877 4.3703 17.2402 0.0000 42.0147 0.0000
# 6 0.0000 0.0000 0.0000 4.8896 0.0000 36.9172
#
#
#
# Elastic Compliance Matrix: (Units=1/GPa)
#
#
# Indices 1 2 3 4 5 6 
#
# 1 0.007329 -0.000805 -0.004304 0.000000 -0.003939 0.000000
# 2 -0.000805 0.011413 -0.000573 0.000000 -0.000316 0.000000
# 3 -0.004304 -0.000573 0.021060 0.000000 -0.005182 0.000000
# 4 0.000000 0.000000 0.000000 0.015969 0.000000 -0.002115
# 5 -0.003939 -0.000316 -0.005182 0.000000 0.029072 0.000000
# 6 0.000000 0.000000 0.000000 -0.002115 0.000000 0.027368
#
#
# Mechanical properties :
#
#
# Convention : Reuss Voigt Hill
#
# Bulk Modulus (GPa) = 35.16683 52.39845 43.78264
# Shear Modulus (GPa) = 37.57912 46.08469 41.83190
#
# Velocity S-wave (km/s) = 4.05828 4.49415 4.28176
# Velocity P-wave (km/s) = 6.11326 7.06358 6.60553
#
# Compressibility (1/GPa) = 0.02843589
#
# Stress axis : x y z
#
# Youngs Moduli (GPa) = 136.44841 87.62318 47.48429
#
# Poissons Ratio (x) = 0.07052 0.20439
# Poissons Ratio (y) = 0.10981 0.02722
# Poissons Ratio (z) = 0.58734 0.05023
#
# Static dielectric constant tensor:
#      x y z
#    x 1.848240 0.000000 0.006130 
#    y 0.000000 1.933100 0.000000 
#    z 0.006130 0.000000 1.888750 
# 
# From -- ./inp_files/91355.got.cif
#   From: 2010.05.17/outbox.cif.g08.bks.cpg/sg15_46_cif.got.tgz:91355.got - 2010.06.03 18:47:42.
