data_PCOD9304810
_publ_section_title
;
Structure prediction by ZEFSAII (Michael W. Deem and Ramdas Pophale) SiO2 
 PCOD9304810
Probable space group: C 2/C
;
_chemical_formula_sum "Si O2"
_cell_formula_units_Z 24
_cell_length_a 5.096397
_cell_length_b 17.711973
_cell_length_c 9.467608
_cell_angle_alpha 90.000000
_cell_angle_beta 86.249983
_cell_angle_gamma 90.000000
_cell_volume 852.785088
_symmetry_space_group_name_H-M "C 2/C"
_symmetry_group_IT_number 15
_symmetry_cell_setting 'monoclinic'
loop_
_space_group_symop_operation_xyz
x,y,z
-x,y,1/2-z
-x,-y,-z
x,-y,1/2+z
1/2+x,1/2+y,z
1/2-x,1/2+y,1/2-z
1/2-x,1/2-y,-z
1/2+x,1/2-y,1/2+z
loop_
_atom_site_type_symbol
_atom_site_label
_atom_site_fract_x
_atom_site_fract_y
_atom_site_fract_z
Si Si1 0.812539 0.465858 0.388215
Si Si2 0.222968 0.873427 0.840952
Si Si3 0.048935 0.197332 0.916322
O O1 0.635894 0.539811 0.369619
O O2 0.680395 0.386045 0.414860
O O3 0.000000 0.453384 0.250000
O O4 0.000000 0.500000 0.500000
O O5 0.500000 0.876125 0.750000
O O6 0.215705 0.824567 0.983903
O O7 0.000000 0.838442 0.750000
O O8 0.000000 0.215651 0.750000
O O9 0.250000 0.250000 0.000000
#
# Coordination Sequence:
#
# PCOD9304810 Si02
#       3
#     8   8   8
#     4  11  23  46  83 122 160 213 281 353 424 503
#     4  11  25  51  86 121 159 212 280 356 429 504
#     4  12  28  51  81 123 173 227 280 347 426 513
#
# _framework density 28.143082
#
# number of rings (size 3 to 8) (size 9 to 14) (size 15 to 20)
#    0.000    0.667    0.000    8.000    0.000    6.667 
#    0.000   11.667    0.000   16.000    0.000    0.000 
#    0.000    0.000    0.000    0.000    0.000    0.000 
#
# Total GULP energy -67243.361145 kJ/mol
# GULP energy per Si atom -5603.613429 kJ/mol
# Density = 2.807903 g / cm^3
# Si number density = 28.143082 Si / 1000 Ang^3
#
#
#
# Elastic Constant Matrix: (Units=GPa)
#
#
# Indices 1 2 3 4 5 6 
#
# 1 114.6082 40.4827 82.5339 0.0000 -13.2584 0.0000
# 2 40.4827 242.7642 61.8724 0.0000 -9.7008 0.0000
# 3 82.5339 61.8724 224.2333 0.0000 3.9715 0.0000
# 4 0.0000 0.0000 0.0000 45.2932 0.0000 16.9447
# 5 -13.2584 -9.7008 3.9715 0.0000 67.7132 0.0000
# 6 0.0000 0.0000 0.0000 16.9447 0.0000 11.7455
#
#
#
# Elastic Compliance Matrix: (Units=1/GPa)
#
#
# Indices 1 2 3 4 5 6 
#
# 1 0.012504 -0.000858 -0.004412 0.000000 0.002584 0.000000
# 2 -0.000858 0.004524 -0.000942 0.000000 0.000535 0.000000
# 3 -0.004412 -0.000942 0.006368 0.000000 -0.001372 0.000000
# 4 0.000000 0.000000 0.000000 0.047966 0.000000 -0.069199
# 5 0.002584 0.000535 -0.001372 0.000000 0.015431 0.000000
# 6 0.000000 0.000000 0.000000 -0.069199 0.000000 0.184970
#
#
# Mechanical properties :
#
#
# Convention : Reuss Voigt Hill
#
# Bulk Modulus (GPa) = 91.13118 105.70930 98.42024
# Shear Modulus (GPa) = 17.37057 51.39816 34.38437
#
# Velocity S-wave (km/s) = 2.48709 4.27818 3.49917
# Velocity P-wave (km/s) = 6.37959 7.87697 7.16749
#
# Compressibility (1/GPa) = 0.01097319
#
# Stress axis : x y z
#
# Youngs Moduli (GPa) = 79.97310 221.05693 157.04326
#
# Poissons Ratio (x) = 0.18956 0.69281
# Poissons Ratio (y) = 0.06858 0.14795
# Poissons Ratio (z) = 0.35281 0.20825
#
# Static dielectric constant tensor:
#      x y z
#    x 5.487780 0.000000 5.004020 
#    y 0.000000 2.223340 0.000000 
#    z 5.004020 0.000000 10.047130 
# 
# From -- ./inp_files/71472.got.cif
#   From: 2010.05.17/outbox.cif.g08.bks.cpg/sg15_36_cif.got.tgz:71472.got - 2010.06.03 18:47:42.
