data_PCOD9304999
_publ_section_title
;
Structure prediction by ZEFSAII (Michael W. Deem and Ramdas Pophale) SiO2 
 PCOD9304999
Probable space group: C 2/C
;
_chemical_formula_sum "Si O2"
_cell_formula_units_Z 40
_cell_length_a 4.996560
_cell_length_b 19.194308
_cell_length_c 19.452811
_cell_angle_alpha 90.000000
_cell_angle_beta 100.751916
_cell_angle_gamma 90.000000
_cell_volume 1832.879057
_symmetry_space_group_name_H-M "C 2/C"
_symmetry_group_IT_number 15
_symmetry_cell_setting 'monoclinic'
loop_
_space_group_symop_operation_xyz
x,y,z
-x,y,1/2-z
-x,-y,-z
x,-y,1/2+z
1/2+x,1/2+y,z
1/2-x,1/2+y,1/2-z
1/2-x,1/2-y,-z
1/2+x,1/2-y,1/2+z
loop_
_atom_site_type_symbol
_atom_site_label
_atom_site_fract_x
_atom_site_fract_y
_atom_site_fract_z
Si Si1 0.930721 0.376944 0.387118
Si Si2 0.706190 0.989222 0.948797
Si Si3 0.500000 0.808346 0.250000
Si Si4 0.500000 0.218033 0.250000
Si Si5 0.533898 0.306854 0.044456
Si Si6 0.707324 0.831883 0.903059
O O1 0.665034 0.360282 0.421259
O O2 0.090726 0.450348 0.393763
O O3 0.888994 0.353777 0.307360
O O4 0.157924 0.325186 0.426936
O O5 0.657380 0.913218 0.914887
O O6 0.500000 0.000000 0.000000
O O7 0.000000 0.000000 0.000000
O O8 0.764591 0.761307 0.278218
O O9 0.333362 0.180280 0.180319
O O10 0.463055 0.229643 0.067516
O O11 0.480796 0.320351 0.961150
#
# Coordination Sequence:
#
# PCOD9304999 Si02
#       6
#     8   8   4   4   8   8
#     4  12  22  45  67  98 129 178 216 270 331 392
#     4  12  25  43  66  99 135 171 220 280 327 390
#     4  12  24  43  66  99 134 172 218 274 332 397
#     4  12  26  43  66 101 138 168 216 288 332 383
#     4  11  24  40  73  98 124 179 232 265 319 394
#     4  11  24  44  68 101 134 173 224 277 332 392
#
# _framework density 21.823588000000001
#
# number of rings (size 3 to 8) (size 9 to 14) (size 15 to 20)
#    0.000    0.400    8.000    0.000    0.000    8.800 
#    0.000    0.000    0.000    4.800    0.000    0.000 
#    0.000    0.000    0.000    0.000    0.000    0.000 
#
# Total GULP energy -111484.653152 kJ/mol
# GULP energy per Si atom -5574.232658 kJ/mol
# Density = 2.177392 g / cm^3
# Si number density = 21.823588 Si / 1000 Ang^3
#
#
#
# Elastic Constant Matrix: (Units=GPa)
#
#
# Indices 1 2 3 4 5 6 
#
# 1 100.3426 0.5123 7.9907 0.0000 -4.5738 0.0000
# 2 0.5123 156.3686 27.6083 0.0000 -5.9456 0.0000
# 3 7.9907 27.6083 150.9774 0.0000 -5.3241 0.0000
# 4 0.0000 0.0000 0.0000 29.6147 0.0000 -0.3033
# 5 -4.5738 -5.9456 -5.3241 0.0000 15.5038 0.0000
# 6 0.0000 0.0000 0.0000 -0.3033 0.0000 19.0685
#
#
#
# Elastic Compliance Matrix: (Units=1/GPa)
#
#
# Indices 1 2 3 4 5 6 
#
# 1 0.010134 0.000159 -0.000463 0.000000 0.002891 0.000000
# 2 0.000159 0.006682 -0.001152 0.000000 0.002214 0.000000
# 3 -0.000463 -0.001152 0.006922 0.000000 0.001799 0.000000
# 4 0.000000 0.000000 0.000000 0.033773 0.000000 0.000537
# 5 0.002891 0.002214 0.001799 0.000000 0.066820 0.000000
# 6 0.000000 0.000000 0.000000 0.000537 0.000000 0.052451
#
#
# Mechanical properties :
#
#
# Convention : Reuss Voigt Hill
#
# Bulk Modulus (GPa) = 48.02164 53.32347 50.67256
# Shear Modulus (GPa) = 26.78995 37.60922 32.19959
#
# Velocity S-wave (km/s) = 3.50747 4.15580 3.84532
# Velocity P-wave (km/s) = 6.20124 6.89308 6.55629
#
# Compressibility (1/GPa) = 0.02082394
#
# Stress axis : x y z
#
# Youngs Moduli (GPa) = 98.68029 149.65037 144.46353
#
# Poissons Ratio (x) = -0.02373 0.06694
# Poissons Ratio (y) = -0.01565 0.16646
# Poissons Ratio (z) = 0.04573 0.17244
#
# Static dielectric constant tensor:
#      x y z
#    x 1.810440 0.000000 0.018210 
#    y 0.000000 1.806900 0.000000 
#    z 0.018210 0.000000 1.806670 
# 
# From -- ./inp_files/226883.got.cif
#   From: 2010.05.17/outbox.cif.g08.bks.cpg/sg15_114_cif.got.tgz:226883.got - 2010.06.03 18:47:42.
