data_PCOD9304803
_publ_section_title
;
Structure prediction by ZEFSAII (Michael W. Deem and Ramdas Pophale) SiO2 
 PCOD9304803
Probable space group: C 2/C
;
_chemical_formula_sum "Si O2"
_cell_formula_units_Z 36
_cell_length_a 9.357667
_cell_length_b 21.757748
_cell_length_c 9.652387
_cell_angle_alpha 90.000000
_cell_angle_beta 49.302175
_cell_angle_gamma 90.000000
_cell_volume 1489.966834
_symmetry_space_group_name_H-M "C 2/C"
_symmetry_group_IT_number 15
_symmetry_cell_setting 'monoclinic'
loop_
_space_group_symop_operation_xyz
x,y,z
-x,y,1/2-z
-x,-y,-z
x,-y,1/2+z
1/2+x,1/2+y,z
1/2-x,1/2+y,1/2-z
1/2-x,1/2-y,-z
1/2+x,1/2-y,1/2+z
loop_
_atom_site_type_symbol
_atom_site_label
_atom_site_fract_x
_atom_site_fract_y
_atom_site_fract_z
Si Si1 0.128662 0.799610 0.478372
Si Si2 0.000000 0.601765 0.250000
Si Si3 0.000000 0.598313 0.750000
Si Si4 0.438322 0.179609 0.561475
Si Si5 0.795898 0.005930 0.561102
Si Si6 0.000000 0.091318 0.250000
O O1 0.250000 0.750000 0.500000
O O2 0.248363 0.822457 0.271859
O O3 0.021925 0.858203 0.613189
O O4 0.975403 0.751264 0.521383
O O5 0.183017 0.557296 0.134494
O O6 0.968481 0.644228 0.402168
O O7 0.924043 0.643432 0.916687
O O8 0.151572 0.553493 0.723470
O O9 0.834263 0.041526 0.390361
O O10 0.000000 0.000000 0.500000
#
# Coordination Sequence:
#
# PCOD9304803 Si02
#       6
#     8   4   4   8   8   4
#     4  12  22  42  78 113 145 197 270 326 376 454
#     4  11  32  52  71 117 170 208 251 314 426 461
#     4  11  23  46  78 106 144 203 263 312 376 459
#     4  12  25  48  76 116 154 201 260 332 387 471
#     4  11  28  45  75 112 160 206 256 324 387 473
#     4  12  23  42  71 125 140 199 272 318 376 462
#
# _framework density 24.161612999999999
#
# number of rings (size 3 to 8) (size 9 to 14) (size 15 to 20)
#    0.000    0.444    6.667    0.000    9.333    2.667 
#    0.000    0.000    0.000    0.000    0.000    0.000 
#    0.000    0.000    0.000    0.000    0.000    0.000 
#
# Total GULP energy -100298.121637 kJ/mol
# GULP energy per Si atom -5572.117869 kJ/mol
# Density = 2.410662 g / cm^3
# Si number density = 24.161613 Si / 1000 Ang^3
#
#
#
# Elastic Constant Matrix: (Units=GPa)
#
#
# Indices 1 2 3 4 5 6 
#
# 1 68.2473 46.0010 50.2539 0.0000 1.2149 0.0000
# 2 46.0010 159.7339 104.8715 0.0000 14.9266 0.0000
# 3 50.2539 104.8715 178.8567 0.0000 25.8130 0.0000
# 4 0.0000 0.0000 0.0000 14.6636 0.0000 60.7837
# 5 1.2149 14.9266 25.8130 0.0000 42.7057 0.0000
# 6 0.0000 0.0000 0.0000 60.7837 0.0000 -56.3530
#
#
#
# Elastic Compliance Matrix: (Units=1/GPa)
#
#
# Indices 1 2 3 4 5 6 
#
# 1 0.019833 -0.003332 -0.004060 0.000000 0.003054 0.000000
# 2 -0.003332 0.010739 -0.005294 0.000000 -0.000459 0.000000
# 3 -0.004060 -0.005294 0.010465 0.000000 -0.004360 0.000000
# 4 0.000000 0.000000 0.000000 0.012465 0.000000 0.013445
# 5 0.003054 -0.000459 -0.004360 0.000000 0.026125 0.000000
# 6 0.000000 0.000000 0.000000 0.013445 0.000000 -0.003243
#
#
# Mechanical properties :
#
#
# Convention : Reuss Voigt Hill
#
# Bulk Modulus (GPa) = 63.83411 89.89896 76.86654
# Shear Modulus (GPa) = 46.73915 13.91734 30.32825
#
# Velocity S-wave (km/s) = 4.40300 2.40263 3.54676
# Velocity P-wave (km/s) = 7.23364 6.70708 6.97533
#
# Compressibility (1/GPa) = 0.01566560
#
# Stress axis : x y z
#
# Youngs Moduli (GPa) = 50.41996 93.12215 95.55431
#
# Poissons Ratio (x) = 0.31025 0.38795
# Poissons Ratio (y) = 0.16798 0.50589
# Poissons Ratio (z) = 0.20470 0.49301
#
# Static dielectric constant tensor:
#      x y z
#    x 2.237350 0.000000 -0.137630 
#    y 0.000000 1.933980 0.000000 
#    z -0.137630 0.000000 2.013260 
# 
# From -- ./inp_files/88259.got.cif
#   From: 2010.05.17/outbox.cif.g08.bks.cpg/sg15_45_cif.got.tgz:88259.got - 2010.06.03 18:47:42.
