data_PCOD9304247
_publ_section_title
;
Structure prediction by ZEFSAII (Michael W. Deem and Ramdas Pophale) SiO2 
 PCOD9304247
Probable space group: C 2/C
;
_chemical_formula_sum "Si O2"
_cell_formula_units_Z 48
_cell_length_a 10.908749
_cell_length_b 17.353329
_cell_length_c 10.642209
_cell_angle_alpha 90.000000
_cell_angle_beta 111.369364
_cell_angle_gamma 90.000000
_cell_volume 1876.100866
_symmetry_space_group_name_H-M "C 2/C"
_symmetry_group_IT_number 15
_symmetry_cell_setting 'monoclinic'
loop_
_space_group_symop_operation_xyz
x,y,z
-x,y,1/2-z
-x,-y,-z
x,-y,1/2+z
1/2+x,1/2+y,z
1/2-x,1/2+y,1/2-z
1/2-x,1/2-y,-z
1/2+x,1/2-y,1/2+z
loop_
_atom_site_type_symbol
_atom_site_label
_atom_site_fract_x
_atom_site_fract_y
_atom_site_fract_z
Si Si1 0.879185 0.638679 0.367833
Si Si2 0.514712 0.639870 0.006970
Si Si3 0.000000 0.511588 0.250000
Si Si4 0.226742 0.402428 0.309676
Si Si5 0.894625 0.271887 0.106165
Si Si6 0.357668 0.538126 0.256825
Si Si7 0.000000 0.766737 0.250000
O O1 0.939430 0.667112 0.518525
O O2 0.733084 0.606204 0.330637
O O3 0.892557 0.709159 0.272892
O O4 0.960315 0.567823 0.345993
O O5 0.366843 0.609981 0.927591
O O6 0.549385 0.682246 0.887332
O O7 0.492179 0.700903 0.113004
O O8 0.610050 0.572224 0.090680
O O9 0.123651 0.460403 0.333438
O O10 0.146615 0.321235 0.285319
O O11 0.278219 0.457612 0.215934
O O12 0.750000 0.250000 0.000000
O O13 0.500000 0.529027 0.250000
#
# Coordination Sequence:
#
# PCOD9304247 Si02
#       7
#     8   8   4   8   8   8   4
#     4   9  21  44  72  97 142 176 227 296 342 418
#     4  11  24  42  69 101 143 183 234 288 349 423
#     4   9  20  44  66 104 133 180 230 282 359 406
#     4  11  23  43  67 100 138 179 230 289 341 419
#     4  11  23  43  69 103 133 181 237 284 351 412
#     4  11  24  44  70 104 143 186 225 287 360 418
#     4   9  22  44  68  98 135 184 234 286 345 408
#
# _framework density 25.584976000000001
#
# number of rings (size 3 to 8) (size 9 to 14) (size 15 to 20)
#    0.000    1.667    0.833    2.500    1.167    5.333 
#    6.000    3.333    0.000    0.000    0.000    0.000 
#    0.000    0.000    0.000    0.000    0.000    0.000 
#
# Total GULP energy -133785.473148 kJ/mol
# GULP energy per Si atom -5574.394715 kJ/mol
# Density = 2.552674 g / cm^3
# Si number density = 25.584976 Si / 1000 Ang^3
#
#
#
# Elastic Constant Matrix: (Units=GPa)
#
#
# Indices 1 2 3 4 5 6 
#
# 1 94.7967 36.6719 16.6458 0.0000 -18.4852 0.0000
# 2 36.6719 116.8396 30.8236 0.0000 -11.4416 0.0000
# 3 16.6458 30.8236 89.5008 0.0000 -3.5501 0.0000
# 4 0.0000 0.0000 0.0000 31.0693 0.0000 8.5971
# 5 -18.4852 -11.4416 -3.5501 0.0000 29.8397 0.0000
# 6 0.0000 0.0000 0.0000 8.5971 0.0000 34.3558
#
#
#
# Elastic Compliance Matrix: (Units=1/GPa)
#
#
# Indices 1 2 3 4 5 6 
#
# 1 0.013331 -0.003220 -0.001097 0.000000 0.006893 0.000000
# 2 -0.003220 0.010514 -0.002955 0.000000 0.001685 0.000000
# 3 -0.001097 -0.002955 0.012381 0.000000 -0.000340 0.000000
# 4 0.000000 0.000000 0.000000 0.034581 0.000000 -0.008653
# 5 0.006893 0.001685 -0.000340 0.000000 0.038389 0.000000
# 6 0.000000 0.000000 0.000000 -0.008653 0.000000 0.031273
#
#
# Mechanical properties :
#
#
# Convention : Reuss Voigt Hill
#
# Bulk Modulus (GPa) = 46.12034 52.15774 49.13904
# Shear Modulus (GPa) = 30.81851 33.51935 32.16893
#
# Velocity S-wave (km/s) = 3.47444 3.62348 3.54974
# Velocity P-wave (km/s) = 5.84475 6.15926 6.00406
#
# Compressibility (1/GPa) = 0.02168241
#
# Stress axis : x y z
#
# Youngs Moduli (GPa) = 75.01144 95.11145 80.76606
#
# Poissons Ratio (x) = 0.30624 0.08861
# Poissons Ratio (y) = 0.24152 0.23869
# Poissons Ratio (z) = 0.08230 0.28108
#
# Static dielectric constant tensor:
#      x y z
#    x 1.952350 0.000000 -0.223880 
#    y 0.000000 2.099580 0.000000 
#    z -0.223880 0.000000 1.605980 
# 
# From -- ./inp_files/87915.got.cif
#   From: 2010.05.17/outbox.cif.g08.bks.cpg/sg15_44_cif.got.tgz:87915.got - 2010.06.03 18:47:42.
