data_PCOD9304461
_publ_section_title
;
Structure prediction by ZEFSAII (Michael W. Deem and Ramdas Pophale) SiO2 
 PCOD9304461
Probable space group: C 2/C
;
_chemical_formula_sum "Si O2"
_cell_formula_units_Z 52
_cell_length_a 25.298629
_cell_length_b 7.663065
_cell_length_c 11.380232
_cell_angle_alpha 90.000000
_cell_angle_beta 92.224676
_cell_angle_gamma 90.000000
_cell_volume 2204.566259
_symmetry_space_group_name_H-M "C 2/C"
_symmetry_group_IT_number 15
_symmetry_cell_setting 'monoclinic'
loop_
_space_group_symop_operation_xyz
x,y,z
-x,y,1/2-z
-x,-y,-z
x,-y,1/2+z
1/2+x,1/2+y,z
1/2-x,1/2+y,1/2-z
1/2-x,1/2-y,-z
1/2+x,1/2-y,1/2+z
loop_
_atom_site_type_symbol
_atom_site_label
_atom_site_fract_x
_atom_site_fract_y
_atom_site_fract_z
Si Si1 0.290330 0.740769 0.110367
Si Si2 0.607586 0.762455 0.830082
Si Si3 0.500000 0.721816 0.750000
Si Si4 0.405203 0.837837 0.183498
Si Si5 0.959884 0.840021 0.483524
Si Si6 0.624822 0.377468 0.586666
Si Si7 0.796342 0.923303 0.263213
O O1 0.349233 0.815145 0.108861
O O2 0.259539 0.844418 0.209815
O O3 0.295284 0.540809 0.147837
O O4 0.250000 0.750000 0.000000
O O5 0.557228 0.639852 0.792889
O O6 0.658982 0.720601 0.757721
O O7 0.587373 0.956285 0.801426
O O8 0.621837 0.734019 0.967490
O O9 0.518442 0.782020 0.620358
O O10 0.450013 0.760885 0.102951
O O11 0.398387 0.733468 0.305320
O O12 0.907143 0.945010 0.443085
O O13 0.000000 0.000000 0.500000
O O14 0.681742 0.447078 0.634132
#
# Coordination Sequence:
#
# PCOD9304461 Si02
#       7
#     8   8   4   8   8   8   8
#     4  11  24  43  71  99 132 183 229 285 346 409
#     4  12  26  44  68 104 146 180 229 292 340 411
#     4  12  26  40  72  96 136 184 228 276 348 400
#     4  11  28  44  69 105 141 180 231 286 347 410
#     4  12  23  45  72  98 134 184 233 283 340 413
#     4  11  23  45  70  99 137 184 232 284 343 410
#     4  11  23  44  69 102 138 180 234 280 349 412
#
# _framework density 23.587405
#
# number of rings (size 3 to 8) (size 9 to 14) (size 15 to 20)
#    0.000    0.615    3.077    5.538    2.154    4.308 
#    0.000    5.385    0.000    0.000    0.000    0.000 
#    0.000    0.000    0.000    0.000    0.000    0.000 
#
# Total GULP energy -145161.615881 kJ/mol
# GULP energy per Si atom -5583.139072 kJ/mol
# Density = 2.353372 g / cm^3
# Si number density = 23.587405 Si / 1000 Ang^3
#
#
#
# Elastic Constant Matrix: (Units=GPa)
#
#
# Indices 1 2 3 4 5 6 
#
# 1 75.7465 6.0506 6.8710 0.0000 -3.2746 0.0000
# 2 6.0506 104.7227 22.6747 0.0000 -12.8403 0.0000
# 3 6.8710 22.6747 100.0117 0.0000 -2.0754 0.0000
# 4 0.0000 0.0000 0.0000 21.1095 0.0000 -9.5832
# 5 -3.2746 -12.8403 -2.0754 0.0000 44.9030 0.0000
# 6 0.0000 0.0000 0.0000 -9.5832 0.0000 35.9432
#
#
#
# Elastic Compliance Matrix: (Units=1/GPa)
#
#
# Indices 1 2 3 4 5 6 
#
# 1 0.013348 -0.000504 -0.000786 0.000000 0.000793 0.000000
# 2 -0.000504 0.010417 -0.002268 0.000000 0.002837 0.000000
# 3 -0.000786 -0.002268 0.010563 0.000000 -0.000218 0.000000
# 4 0.000000 0.000000 0.000000 0.053896 0.000000 0.014370
# 5 0.000793 0.002837 -0.000218 0.000000 0.023129 0.000000
# 6 0.000000 0.000000 0.000000 0.014370 0.000000 0.031653
#
#
# Mechanical properties :
#
#
# Convention : Reuss Voigt Hill
#
# Bulk Modulus (GPa) = 36.75009 39.07482 37.91246
# Shear Modulus (GPa) = 31.40854 36.71678 34.06266
#
# Velocity S-wave (km/s) = 3.65304 3.94969 3.80426
# Velocity P-wave (km/s) = 5.77989 6.11572 5.95018
#
# Compressibility (1/GPa) = 0.02721082
#
# Stress axis : x y z
#
# Youngs Moduli (GPa) = 74.91881 95.99546 94.67355
#
# Poissons Ratio (x) = 0.04835 0.07445
# Poissons Ratio (y) = 0.03774 0.21475
# Poissons Ratio (z) = 0.05891 0.21775
#
# Static dielectric constant tensor:
#      x y z
#    x 1.997580 0.000000 -0.002770 
#    y 0.000000 1.949680 0.000000 
#    z -0.002770 0.000000 2.002580 
# 
# From -- ./inp_files/121522.got.cif
#   From: 2010.05.17/outbox.cif.g08.bks.cpg/sg15_61_cif.got.tgz:121522.got - 2010.06.03 18:47:42.
