data_PCOD9304130
_publ_section_title
;
Structure prediction by ZEFSAII (Michael W. Deem and Ramdas Pophale) SiO2 
 PCOD9304130
Probable space group: C 2/C
;
_chemical_formula_sum "Si O2"
_cell_formula_units_Z 40
_cell_length_a 9.539722
_cell_length_b 15.216667
_cell_length_c 14.805258
_cell_angle_alpha 90.000000
_cell_angle_beta 67.965039
_cell_angle_gamma 90.000000
_cell_volume 1992.186235
_symmetry_space_group_name_H-M "C 2/C"
_symmetry_group_IT_number 15
_symmetry_cell_setting 'monoclinic'
loop_
_space_group_symop_operation_xyz
x,y,z
-x,y,1/2-z
-x,-y,-z
x,-y,1/2+z
1/2+x,1/2+y,z
1/2-x,1/2+y,1/2-z
1/2-x,1/2-y,-z
1/2+x,1/2-y,1/2+z
loop_
_atom_site_type_symbol
_atom_site_label
_atom_site_fract_x
_atom_site_fract_y
_atom_site_fract_z
Si Si1 0.321046 0.007166 0.805977
Si Si2 0.678323 0.621117 0.191235
Si Si3 0.828941 0.808171 0.404540
Si Si4 0.821419 0.507733 0.518601
Si Si5 0.817172 0.801870 0.198579
O O1 0.500000 0.006404 0.750000
O O2 0.258231 0.103367 0.796285
O O3 0.251767 0.933433 0.756858
O O4 0.294567 0.991037 0.918139
O O5 0.500000 0.618468 0.250000
O O6 0.733095 0.570822 0.088620
O O7 0.734830 0.721021 0.170956
O O8 0.750000 0.750000 0.500000
O O9 0.750582 0.902955 0.426520
O O10 0.811105 0.776258 0.306057
O O11 0.009273 0.810598 0.374960
O O12 0.000000 0.500000 0.500000
#
# Coordination Sequence:
#
# PCOD9304130 Si02
#       5
#     8   8   8   8   8
#     4  12  25  45  72  99 140 183 230 287 348 414
#     4  12  26  44  70 104 142 180 232 290 345 411
#     4  11  23  42  69 101 139 181 235 278 344 418
#     4  12  24  43  72 102 137 185 233 284 350 416
#     4  11  25  43  68 101 140 180 227 290 345 406
#
# _framework density 20.078444000000001
#
# number of rings (size 3 to 8) (size 9 to 14) (size 15 to 20)
#    0.000    0.400    4.000    4.200    2.800    5.600 
#    0.000    0.000    0.000    0.000    0.000    0.000 
#    0.000    0.000    0.000    0.000    0.000    0.000 
#
# Total GULP energy -111891.721966 kJ/mol
# GULP energy per Si atom -5594.586098 kJ/mol
# Density = 2.003274 g / cm^3
# Si number density = 20.078444 Si / 1000 Ang^3
#
#
#
# Elastic Constant Matrix: (Units=GPa)
#
#
# Indices 1 2 3 4 5 6 
#
# 1 101.1159 22.5244 18.0782 0.0000 -39.7339 0.0000
# 2 22.5244 94.8163 1.8907 0.0000 -22.9063 0.0000
# 3 18.0782 1.8907 104.9227 0.0000 -15.5966 0.0000
# 4 0.0000 0.0000 0.0000 42.6774 0.0000 -2.7963
# 5 -39.7339 -22.9063 -15.5966 0.0000 41.4117 0.0000
# 6 0.0000 0.0000 0.0000 -2.7963 0.0000 31.6257
#
#
#
# Elastic Compliance Matrix: (Units=1/GPa)
#
#
# Indices 1 2 3 4 5 6 
#
# 1 0.015902 -0.000148 -0.000510 0.000000 0.014984 0.000000
# 2 -0.000148 0.012243 0.000837 0.000000 0.006946 0.000000
# 3 -0.000510 0.000837 0.010169 0.000000 0.003804 0.000000
# 4 0.000000 0.000000 0.000000 0.023568 0.000000 0.002084
# 5 0.014984 0.006946 0.003804 0.000000 0.043799 0.000000
# 6 0.000000 0.000000 0.000000 0.002084 0.000000 0.031804
#
#
# Mechanical properties :
#
#
# Convention : Reuss Voigt Hill
#
# Bulk Modulus (GPa) = 25.85753 42.87127 34.36440
# Shear Modulus (GPa) = 33.32971 40.36707 36.84839
#
# Velocity S-wave (km/s) = 4.07870 4.48869 4.28860
# Velocity P-wave (km/s) = 5.92345 6.94713 6.45562
#
# Compressibility (1/GPa) = 0.03867345
#
# Stress axis : x y z
#
# Youngs Moduli (GPa) = 62.88687 81.67875 98.33788
#
# Poissons Ratio (x) = 0.01205 0.05014
# Poissons Ratio (y) = 0.00928 -0.08234
# Poissons Ratio (z) = 0.03206 -0.06839
#
# Static dielectric constant tensor:
#      x y z
#    x 1.695740 0.000000 0.043360 
#    y 0.000000 1.687960 0.000000 
#    z 0.043360 0.000000 1.739520 
# 
# From -- ./inp_files/133068.got.cif
#   From: 2010.05.17/outbox.cif.g08.bks.cpg/sg15_67_cif.got.tgz:133068.got - 2010.06.03 18:47:42.
