data_PCOD9304700
_publ_section_title
;
Structure prediction by ZEFSAII (Michael W. Deem and Ramdas Pophale) SiO2 
 PCOD9304700
Probable space group: C 2/C
;
_chemical_formula_sum "Si O2"
_cell_formula_units_Z 56
_cell_length_a 8.790790
_cell_length_b 11.680633
_cell_length_c 22.369937
_cell_angle_alpha 90.000000
_cell_angle_beta 66.138931
_cell_angle_gamma 90.000000
_cell_volume 2100.663744
_symmetry_space_group_name_H-M "C 2/C"
_symmetry_group_IT_number 15
_symmetry_cell_setting 'monoclinic'
loop_
_space_group_symop_operation_xyz
x,y,z
-x,y,1/2-z
-x,-y,-z
x,-y,1/2+z
1/2+x,1/2+y,z
1/2-x,1/2+y,1/2-z
1/2-x,1/2-y,-z
1/2+x,1/2-y,1/2+z
loop_
_atom_site_type_symbol
_atom_site_label
_atom_site_fract_x
_atom_site_fract_y
_atom_site_fract_z
Si Si1 0.366709 0.400938 0.516850
Si Si2 0.688927 0.910018 0.240555
Si Si3 0.485974 0.920241 0.569517
Si Si4 0.436365 0.210148 0.954893
Si Si5 0.975567 0.182834 0.628892
Si Si6 0.524018 0.716502 0.317677
Si Si7 0.331256 0.513281 0.831602
O O1 0.500000 0.500000 0.500000
O O2 0.179259 0.443917 0.551188
O O3 0.419802 0.305742 0.556303
O O4 0.407211 0.347102 0.446034
O O5 0.500000 0.942899 0.250000
O O6 0.690329 0.795056 0.282537
O O7 0.800920 0.882818 0.165160
O O8 0.781043 0.999630 0.269826
O O9 0.465211 0.878692 0.504624
O O10 0.441898 0.815314 0.621990
O O11 0.346127 0.011463 0.607452
O O12 0.439073 0.205730 0.882801
O O13 0.250000 0.250000 0.000000
O O14 0.074375 0.130099 0.668458
O O15 0.500000 0.718569 0.250000
O O16 0.442592 0.590506 0.342040
#
# Coordination Sequence:
#
# PCOD9304700 Si02
#       7
#     8   8   8   8   8   8   8
#     4  11  27  45  72 112 154 197 258 324 386 462
#     4  11  27  45  75 110 152 201 257 324 379 469
#     4  11  26  49  76 113 153 200 264 324 389 473
#     4  11  23  45  76 107 150 199 250 319 389 456
#     4  11  25  49  71 108 152 195 255 316 382 464
#     4  11  24  46  76 109 150 205 253 310 389 463
#     4  12  26  50  79 108 155 207 260 318 393 470
#
# _framework density 26.658239999999999
#
# number of rings (size 3 to 8) (size 9 to 14) (size 15 to 20)
#    0.000    0.857    1.429    5.571   10.000    0.571 
#    0.000    1.429    0.000    0.000    0.000    0.000 
#    0.000    0.000    0.000    0.000    0.000    0.000 
#
# Total GULP energy -156100.165445 kJ/mol
# GULP energy per Si atom -5575.005909 kJ/mol
# Density = 2.659756 g / cm^3
# Si number density = 26.658240 Si / 1000 Ang^3
#
#
#
# Elastic Constant Matrix: (Units=GPa)
#
#
# Indices 1 2 3 4 5 6 
#
# 1 180.0238 43.8372 46.0480 0.0000 -0.4986 0.0000
# 2 43.8372 68.3852 10.9838 0.0000 10.9888 0.0000
# 3 46.0480 10.9838 142.0779 0.0000 -10.7461 0.0000
# 4 0.0000 0.0000 0.0000 42.3027 0.0000 0.9451
# 5 -0.4986 10.9888 -10.7461 0.0000 50.6132 0.0000
# 6 0.0000 0.0000 0.0000 0.9451 0.0000 50.9729
#
#
#
# Elastic Compliance Matrix: (Units=1/GPa)
#
#
# Indices 1 2 3 4 5 6 
#
# 1 0.007106 -0.004344 -0.001921 0.000000 0.000605 0.000000
# 2 -0.004344 0.018104 -0.000297 0.000000 -0.004036 0.000000
# 3 -0.001921 -0.000297 0.007813 0.000000 0.001704 0.000000
# 4 0.000000 0.000000 0.000000 0.023649 0.000000 -0.000438
# 5 0.000605 -0.004036 0.001704 0.000000 0.021002 0.000000
# 6 0.000000 0.000000 0.000000 -0.000438 0.000000 0.019626
#
#
# Mechanical properties :
#
#
# Convention : Reuss Voigt Hill
#
# Bulk Modulus (GPa) = 50.25567 65.80275 58.02921
# Shear Modulus (GPa) = 42.71436 48.08561 45.39998
#
# Velocity S-wave (km/s) = 4.00721 4.25170 4.13126
# Velocity P-wave (km/s) = 6.34847 6.98856 6.67619
#
# Compressibility (1/GPa) = 0.01989825
#
# Stress axis : x y z
#
# Youngs Moduli (GPa) = 140.73268 55.23715 127.99164
#
# Poissons Ratio (x) = 0.23993 0.24592
# Poissons Ratio (y) = 0.61129 0.03803
# Poissons Ratio (z) = 0.27041 0.01641
#
# Static dielectric constant tensor:
#      x y z
#    x 2.188330 0.000000 0.019980 
#    y 0.000000 2.502310 0.000000 
#    z 0.019980 0.000000 2.092380 
# 
# From -- ./inp_files/264603.got.cif
#   From: 2010.05.17/outbox.cif.g08.bks.cpg/sg15_133_cif.got.tgz:264603.got - 2010.06.03 18:47:42.
