data_PCOD9304845
_publ_section_title
;
Structure prediction by ZEFSAII (Michael W. Deem and Ramdas Pophale) SiO2 
 PCOD9304845
Probable space group: C 2/C
;
_chemical_formula_sum "Si O2"
_cell_formula_units_Z 40
_cell_length_a 16.650967
_cell_length_b 21.691926
_cell_length_c 8.511568
_cell_angle_alpha 90.000000
_cell_angle_beta 146.233770
_cell_angle_gamma 90.000000
_cell_volume 1708.717132
_symmetry_space_group_name_H-M "C 2/C"
_symmetry_group_IT_number 15
_symmetry_cell_setting 'monoclinic'
loop_
_space_group_symop_operation_xyz
x,y,z
-x,y,1/2-z
-x,-y,-z
x,-y,1/2+z
1/2+x,1/2+y,z
1/2-x,1/2+y,1/2-z
1/2-x,1/2-y,-z
1/2+x,1/2-y,1/2+z
loop_
_atom_site_type_symbol
_atom_site_label
_atom_site_fract_x
_atom_site_fract_y
_atom_site_fract_z
Si Si1 0.551065 0.836610 0.078359
Si Si2 0.835862 0.975817 0.042954
Si Si3 0.246028 0.089755 0.390023
Si Si4 0.977608 0.798941 0.027196
Si Si5 0.732078 0.862597 0.062097
O O1 0.612427 0.876392 0.318963
O O2 0.643127 0.859626 0.077364
O O3 0.577668 0.763852 0.139425
O O4 0.383339 0.844837 0.760832
O O5 0.800891 0.927998 0.126066
O O6 0.000000 0.969573 0.250000
O O7 0.808726 0.043626 0.063097
O O8 0.739852 0.952619 0.741091
O O9 0.129270 0.143523 0.167600
O O10 0.134205 0.816170 0.214666
O O11 0.000000 0.787518 0.250000
#
# Coordination Sequence:
#
# PCOD9304845 Si02
#       5
#     8   8   8   8   8
#     4  11  27  43  74 109 145 187 238 291 371 422
#     4  12  25  46  76 104 146 188 249 296 355 422
#     4  12  26  45  73 110 137 187 247 295 353 421
#     4  12  23  47  74 106 144 188 235 296 355 432
#     4  11  23  47  73 103 150 190 232 294 363 424
#
# _framework density 23.409376000000002
#
# number of rings (size 3 to 8) (size 9 to 14) (size 15 to 20)
#    0.000    0.400    6.000    3.000    2.800    1.600 
#    0.000    2.000    0.000    0.000    0.000    0.000 
#    0.000    0.000    0.000    0.000    0.000    0.000 
#
# Total GULP energy -112071.692971 kJ/mol
# GULP energy per Si atom -5603.584649 kJ/mol
# Density = 2.335610 g / cm^3
# Si number density = 23.409376 Si / 1000 Ang^3
#
#
#
# Elastic Constant Matrix: (Units=GPa)
#
#
# Indices 1 2 3 4 5 6 
#
# 1 89.5054 42.0077 34.3367 0.0000 11.9304 0.0000
# 2 42.0077 162.2734 38.0739 0.0000 -3.5074 0.0000
# 3 34.3367 38.0739 89.5390 0.0000 -11.4015 0.0000
# 4 0.0000 0.0000 0.0000 29.4162 0.0000 -13.0169
# 5 11.9304 -3.5074 -11.4015 0.0000 31.7091 0.0000
# 6 0.0000 0.0000 0.0000 -13.0169 0.0000 -7.9208
#
#
#
# Elastic Compliance Matrix: (Units=1/GPa)
#
#
# Indices 1 2 3 4 5 6 
#
# 1 0.015955 -0.002916 -0.005957 0.000000 -0.008467 0.000000
# 2 -0.002916 0.007381 -0.001862 0.000000 0.001244 0.000000
# 3 -0.005957 -0.001862 0.015200 0.000000 0.007500 0.000000
# 4 0.000000 0.000000 0.000000 0.019682 0.000000 -0.032345
# 5 -0.008467 0.001244 0.007500 0.000000 0.037557 0.000000
# 6 0.000000 0.000000 0.000000 -0.032345 0.000000 -0.073095
#
#
# Mechanical properties :
#
#
# Convention : Reuss Voigt Hill
#
# Bulk Modulus (GPa) = 58.59494 63.35046 60.97270
# Shear Modulus (GPa) = 100.32731 25.76754 63.04742
#
# Velocity S-wave (km/s) = 6.55368 3.32133 5.19529
# Velocity P-wave (km/s) = 9.07483 6.46754 7.87977
#
# Compressibility (1/GPa) = 0.01706632
#
# Stress axis : x y z
#
# Youngs Moduli (GPa) = 62.67753 135.48337 65.79158
#
# Poissons Ratio (x) = 0.39501 0.39190
# Poissons Ratio (y) = 0.18274 0.12251
# Poissons Ratio (z) = 0.37336 0.25228
#
# Static dielectric constant tensor:
#      x y z
#    x 1.900830 0.000000 -0.038440 
#    y 0.000000 1.855080 0.000000 
#    z -0.038440 0.000000 1.902070 
# 
# From -- ./inp_files/51699.got.cif
#   From: 2010.05.17/outbox.cif.g08.bks.cpg/sg15_26_cif.got.tgz:51699.got - 2010.06.03 18:47:42.
