data_PCOD9304262
_publ_section_title
;
Structure prediction by ZEFSAII (Michael W. Deem and Ramdas Pophale) SiO2 
 PCOD9304262
Probable space group: C 2/C
;
_chemical_formula_sum "Si O2"
_cell_formula_units_Z 56
_cell_length_a 21.028322
_cell_length_b 14.674588
_cell_length_c 17.773179
_cell_angle_alpha 90.000000
_cell_angle_beta 26.743117
_cell_angle_gamma 90.000000
_cell_volume 2467.968634
_symmetry_space_group_name_H-M "C 2/C"
_symmetry_group_IT_number 15
_symmetry_cell_setting 'monoclinic'
loop_
_space_group_symop_operation_xyz
x,y,z
-x,y,1/2-z
-x,-y,-z
x,-y,1/2+z
1/2+x,1/2+y,z
1/2-x,1/2+y,1/2-z
1/2-x,1/2-y,-z
1/2+x,1/2-y,1/2+z
loop_
_atom_site_type_symbol
_atom_site_label
_atom_site_fract_x
_atom_site_fract_y
_atom_site_fract_z
Si Si1 0.784238 0.876740 0.675058
Si Si2 0.630174 0.600524 0.664141
Si Si3 0.214833 0.518891 0.621028
Si Si4 0.111133 0.823542 0.494550
Si Si5 0.559270 0.134063 0.611907
Si Si6 0.158017 0.926823 0.717620
Si Si7 0.600782 0.295454 0.338455
O O1 0.796726 0.923232 0.743830
O O2 0.654923 0.806928 0.796068
O O3 0.932343 0.819026 0.508941
O O4 0.757217 0.960112 0.648571
O O5 0.500000 0.632663 0.750000
O O6 0.742805 0.555422 0.488239
O O7 0.580229 0.516392 0.770210
O O8 0.671332 0.672236 0.685232
O O9 0.303509 0.613467 0.537980
O O10 0.055352 0.558966 0.791507
O O11 0.115051 0.715526 0.501272
O O12 0.145053 0.844294 0.370794
O O13 0.947689 0.844764 0.680827
O O14 0.500000 0.178328 0.750000
O O15 0.702653 0.082386 0.478549
#
# Coordination Sequence:
#
# PCOD9304262 Si02
#       7
#     8   8   8   8   8   8   8
#     4  11  25  47  69 105 135 194 243 295 352 421
#     4  12  23  45  69 102 137 192 237 285 354 434
#     4  12  26  44  70 103 143 185 239 291 364 425
#     4  11  24  44  70 100 137 187 232 291 352 442
#     4  12  26  40  66 109 139 176 226 303 369 412
#     4  11  23  43  67  97 140 176 233 289 360 424
#     4  11  25  45  72 101 140 187 245 293 353 420
#
# _framework density 22.690726000000002
#
# number of rings (size 3 to 8) (size 9 to 14) (size 15 to 20)
#    0.000    0.571    5.714    1.714    4.000    5.714 
#    0.000    0.000    0.000    0.000    0.000    0.000 
#    0.000    0.000    0.000    0.000    0.000    0.000 
#
# Total GULP energy -156008.301731 kJ/mol
# GULP energy per Si atom -5571.725062 kJ/mol
# Density = 2.263908 g / cm^3
# Si number density = 22.690726 Si / 1000 Ang^3
#
#
#
# Elastic Constant Matrix: (Units=GPa)
#
#
# Indices 1 2 3 4 5 6 
#
# 1 87.5871 13.6791 13.5128 0.0003 21.4928 -0.0001
# 2 13.6791 41.1211 6.7564 0.0006 1.1745 -0.0004
# 3 13.5128 6.7564 50.0464 0.0006 2.9814 -0.0004
# 4 0.0003 0.0006 0.0006 24.5714 -0.0004 1.4923
# 5 21.4928 1.1745 2.9814 -0.0004 32.1470 0.0002
# 6 -0.0001 -0.0004 -0.0004 1.4923 0.0002 39.1934
#
#
#
# Elastic Compliance Matrix: (Units=1/GPa)
#
#
# Indices 1 2 3 4 5 6 
#
# 1 0.014849 -0.004195 -0.002877 0.000000 -0.009508 0.000000
# 2 -0.004195 0.026067 -0.002511 -0.000001 0.002085 0.000000
# 3 -0.002877 -0.002511 0.021094 0.000000 0.000059 0.000000
# 4 0.000000 -0.000001 0.000000 0.040792 0.000001 -0.001553
# 5 -0.009508 0.002085 0.000059 0.000001 0.037382 0.000000
# 6 0.000000 0.000000 0.000000 -0.001553 0.000000 0.025574
#
#
# Mechanical properties :
#
#
# Convention : Reuss Voigt Hill
#
# Bulk Modulus (GPa) = 23.34011 27.40567 25.37289
# Shear Modulus (GPa) = 25.09983 28.83614 26.96798
#
# Velocity S-wave (km/s) = 3.32952 3.56874 3.45121
# Velocity P-wave (km/s) = 5.00894 5.39309 5.20456
#
# Compressibility (1/GPa) = 0.04284471
#
# Stress axis : x y z
#
# Youngs Moduli (GPa) = 67.34294 38.36274 47.40776
#
# Poissons Ratio (x) = 0.16095 0.13637
# Poissons Ratio (y) = 0.28254 0.11902
# Poissons Ratio (z) = 0.19372 0.09631
#
# Static dielectric constant tensor:
#      x y z
#    x 1.872970 0.000000 0.038970 
#    y 0.000000 1.932710 0.000000 
#    z 0.038970 0.000000 1.881670 
# 
# From -- ./inp_files/215690.got.cif
#   From: 2010.05.17/outbox.cif.g08.bks.cpg/sg15_108_cif.got.tgz:215690.got - 2010.06.03 18:47:42.
