data_PCOD9304540
_publ_section_title
;
Structure prediction by ZEFSAII (Michael W. Deem and Ramdas Pophale) SiO2 
 PCOD9304540
Probable space group: C 2/C
;
_chemical_formula_sum "Si O2"
_cell_formula_units_Z 56
_cell_length_a 14.930733
_cell_length_b 13.588284
_cell_length_c 11.608005
_cell_angle_alpha 90.000000
_cell_angle_beta 81.242697
_cell_angle_gamma 90.000000
_cell_volume 2327.612237
_symmetry_space_group_name_H-M "C 2/C"
_symmetry_group_IT_number 15
_symmetry_cell_setting 'monoclinic'
loop_
_space_group_symop_operation_xyz
x,y,z
-x,y,1/2-z
-x,-y,-z
x,-y,1/2+z
1/2+x,1/2+y,z
1/2-x,1/2+y,1/2-z
1/2-x,1/2-y,-z
1/2+x,1/2-y,1/2+z
loop_
_atom_site_type_symbol
_atom_site_label
_atom_site_fract_x
_atom_site_fract_y
_atom_site_fract_z
Si Si1 0.988355 0.141607 0.085051
Si Si2 0.933613 0.930513 0.357329
Si Si3 0.917271 0.318599 0.188805
Si Si4 0.240079 0.050100 0.762007
Si Si5 0.675646 0.697120 0.934836
Si Si6 0.529589 0.900129 0.559771
Si Si7 0.147530 0.358130 0.756903
O O1 0.925721 0.200147 0.189239
O O2 0.019666 0.035500 0.125201
O O3 0.082044 0.194479 0.024464
O O4 0.933393 0.124888 0.977937
O O5 0.835909 0.937764 0.319930
O O6 0.000000 0.879545 0.250000
O O7 0.827631 0.378765 0.232487
O O8 0.000000 0.358396 0.250000
O O9 0.942171 0.334510 0.052235
O O10 0.198228 0.085211 0.892462
O O11 0.274853 0.939169 0.745244
O O12 0.675502 0.754965 0.811157
O O13 0.750000 0.750000 0.000000
O O14 0.609570 0.880460 0.636361
O O15 0.438930 0.879014 0.646588
O O16 0.500000 0.000000 0.500000
#
# Coordination Sequence:
#
# PCOD9304540 Si02
#       7
#     8   8   8   8   8   8   8
#     4  11  25  46  77 101 148 204 249 312 374 461
#     4  11  25  49  72 102 152 202 252 308 385 450
#     4  12  25  45  74 111 151 188 254 320 383 454
#     4  12  27  45  74 112 153 192 264 315 378 467
#     4  12  26  46  75 109 148 201 252 311 389 461
#     4  11  23  44  73 103 145 190 236 305 396 448
#     4  11  26  44  74 109 147 198 245 311 387 459
#
# _framework density 24.058990000000001
#
# number of rings (size 3 to 8) (size 9 to 14) (size 15 to 20)
#    0.000    0.571    4.286    3.000    4.000    2.857 
#    0.000    0.000    0.000    0.000    0.000    0.000 
#    0.000    0.000    0.000    0.000    0.000    0.000 
#
# Total GULP energy -156456.389905 kJ/mol
# GULP energy per Si atom -5587.728211 kJ/mol
# Density = 2.400423 g / cm^3
# Si number density = 24.058990 Si / 1000 Ang^3
#
#
#
# Elastic Constant Matrix: (Units=GPa)
#
#
# Indices 1 2 3 4 5 6 
#
# 1 113.5971 -0.3054 31.0777 0.0000 19.6701 0.0000
# 2 -0.3054 65.0597 2.9150 0.0000 -1.7007 0.0000
# 3 31.0777 2.9150 109.1351 0.0000 25.5967 0.0000
# 4 0.0000 0.0000 0.0000 40.9033 0.0000 -13.5113
# 5 19.6701 -1.7007 25.5967 0.0000 42.6963 0.0000
# 6 0.0000 0.0000 0.0000 -13.5113 0.0000 34.6179
#
#
#
# Elastic Compliance Matrix: (Units=1/GPa)
#
#
# Indices 1 2 3 4 5 6 
#
# 1 0.009944 0.000051 -0.002047 0.000000 -0.003352 0.000000
# 2 0.000051 0.015426 -0.000658 0.000000 0.000985 0.000000
# 3 -0.002047 -0.000658 0.011111 0.000000 -0.005744 0.000000
# 4 0.000000 0.000000 0.000000 0.028066 0.000000 0.010954
# 5 -0.003352 0.000985 -0.005744 0.000000 0.028448 0.000000
# 6 0.000000 0.000000 0.000000 0.010954 0.000000 0.033162
#
#
# Mechanical properties :
#
#
# Convention : Reuss Voigt Hill
#
# Bulk Modulus (GPa) = 32.07908 39.46293 35.77101
# Shear Modulus (GPa) = 35.24727 40.58381 37.91554
#
# Velocity S-wave (km/s) = 3.83173 4.11158 3.97412
# Velocity P-wave (km/s) = 5.73922 6.24326 5.99654
#
# Compressibility (1/GPa) = 0.03117297
#
# Stress axis : x y z
#
# Youngs Moduli (GPa) = 100.56790 64.82580 90.00422
#
# Poissons Ratio (x) = -0.00329 0.18422
# Poissons Ratio (y) = -0.00511 0.05918
# Poissons Ratio (z) = 0.20584 0.04263
#
# Static dielectric constant tensor:
#      x y z
#    x 1.914100 0.000000 -0.006100 
#    y 0.000000 2.140360 0.000000 
#    z -0.006100 0.000000 1.828010 
# 
# From -- ./inp_files/97047.got.cif
#   From: 2010.05.17/outbox.cif.g08.bks.cpg/sg15_49_cif.got.tgz:97047.got - 2010.06.03 18:47:42.
