data_PCOD9304388
_publ_section_title
;
Structure prediction by ZEFSAII (Michael W. Deem and Ramdas Pophale) SiO2 
 PCOD9304388
Probable space group: C 2/C
;
_chemical_formula_sum "Si O2"
_cell_formula_units_Z 48
_cell_length_a 11.505655
_cell_length_b 20.038962
_cell_length_c 13.006763
_cell_angle_alpha 90.000000
_cell_angle_beta 36.913753
_cell_angle_gamma 90.000000
_cell_volume 1801.150144
_symmetry_space_group_name_H-M "C 2/C"
_symmetry_group_IT_number 15
_symmetry_cell_setting 'monoclinic'
loop_
_space_group_symop_operation_xyz
x,y,z
-x,y,1/2-z
-x,-y,-z
x,-y,1/2+z
1/2+x,1/2+y,z
1/2-x,1/2+y,1/2-z
1/2-x,1/2-y,-z
1/2+x,1/2-y,1/2+z
loop_
_atom_site_type_symbol
_atom_site_label
_atom_site_fract_x
_atom_site_fract_y
_atom_site_fract_z
Si Si1 0.597476 0.577056 0.522880
Si Si2 0.684186 0.954300 0.041955
Si Si3 0.843255 0.757940 0.700410
Si Si4 0.635603 0.109650 0.362945
Si Si5 0.253761 0.315413 0.427969
Si Si6 0.310070 0.351453 0.098153
O O1 0.662330 0.512163 0.539576
O O2 0.741028 0.583332 0.322548
O O3 0.624775 0.636161 0.584450
O O4 0.385588 0.591112 0.623649
O O5 0.500000 0.963488 0.250000
O O6 0.787741 0.887645 0.007219
O O7 0.628767 0.942251 0.962316
O O8 0.741788 0.822011 0.821493
O O9 0.714458 0.723284 0.702167
O O10 0.878637 0.691075 0.740019
O O11 0.030637 0.793337 0.521396
O O12 0.431943 0.137392 0.464409
O O13 0.250000 0.250000 0.500000
#
# Coordination Sequence:
#
# PCOD9304388 Si02
#       6
#     8   8   8   8   8   8
#     4  11  26  46  77 104 147 196 250 320 373 454
#     4  12  28  49  71 108 156 206 251 303 382 470
#     4  11  23  43  73 112 146 189 250 315 381 441
#     4  11  24  44  70 109 146 194 249 315 376 451
#     4  12  21  41  73 108 143 185 252 313 379 426
#     4  11  25  48  73 111 148 198 253 314 382 457
#
# _framework density 26.649637999999999
#
# number of rings (size 3 to 8) (size 9 to 14) (size 15 to 20)
#    0.000    0.667    5.000    3.000    0.000    9.333 
#    3.000    3.333    0.000    0.000    0.000    0.000 
#    0.000    0.000    0.000    0.000    0.000    0.000 
#
# Total GULP energy -134076.795498 kJ/mol
# GULP energy per Si atom -5586.533146 kJ/mol
# Density = 2.658898 g / cm^3
# Si number density = 26.649638 Si / 1000 Ang^3
#
#
#
# Elastic Constant Matrix: (Units=GPa)
#
#
# Indices 1 2 3 4 5 6 
#
# 1 133.7678 64.4139 48.0340 0.0042 33.7478 -0.0027
# 2 64.4139 139.0616 47.6075 0.0065 30.2082 -0.0043
# 3 48.0340 47.6075 110.6673 -0.0029 22.7742 0.0029
# 4 0.0042 0.0065 -0.0029 28.2654 -0.0012 5.1336
# 5 33.7478 30.2082 22.7742 -0.0012 40.5434 0.0010
# 6 -0.0027 -0.0043 0.0029 5.1336 0.0010 33.9292
#
#
#
# Elastic Compliance Matrix: (Units=1/GPa)
#
#
# Indices 1 2 3 4 5 6 
#
# 1 0.011296 -0.003186 -0.002358 -0.000002 -0.005704 0.000001
# 2 -0.003186 0.010248 -0.002261 -0.000003 -0.003713 0.000002
# 3 -0.002358 -0.002261 0.011626 0.000002 -0.002882 -0.000002
# 4 -0.000002 -0.000003 0.000002 0.036379 0.000003 -0.005504
# 5 -0.005704 -0.003713 -0.002882 0.000003 0.033798 -0.000002
# 6 0.000001 0.000002 -0.000002 -0.005504 -0.000002 0.030306
#
#
# Mechanical properties :
#
#
# Convention : Reuss Voigt Hill
#
# Bulk Modulus (GPa) = 56.95558 78.17860 67.56709
# Shear Modulus (GPa) = 32.23401 35.44368 33.83885
#
# Velocity S-wave (km/s) = 3.48163 3.65086 3.56725
# Velocity P-wave (km/s) = 6.13031 6.86812 6.50968
#
# Compressibility (1/GPa) = 0.01755754
#
# Stress axis : x y z
#
# Youngs Moduli (GPa) = 88.53034 97.58466 86.01570
#
# Poissons Ratio (x) = 0.31087 0.20287
# Poissons Ratio (y) = 0.28203 0.19452
# Poissons Ratio (z) = 0.20880 0.22069
#
# Static dielectric constant tensor:
#      x y z
#    x 1.346170 0.000010 -0.296160 
#    y 0.000010 2.087400 0.000000 
#    z -0.296160 0.000000 2.326530 
# 
# From -- ./inp_files/89423.got.cif
#   From: 2010.05.17/outbox.cif.g08.bks.cpg/sg15_45_cif.got.tgz:89423.got - 2010.06.03 18:47:42.
