data_PCOD9304650
_publ_section_title
;
Structure prediction by ZEFSAII (Michael W. Deem and Ramdas Pophale) SiO2 
 PCOD9304650
Probable space group: C 2/C
;
_chemical_formula_sum "Si O2"
_cell_formula_units_Z 60
_cell_length_a 9.060204
_cell_length_b 26.998792
_cell_length_c 24.924076
_cell_angle_alpha 90.000000
_cell_angle_beta 153.245049
_cell_angle_gamma 90.000000
_cell_volume 2744.626998
_symmetry_space_group_name_H-M "C 2/C"
_symmetry_group_IT_number 15
_symmetry_cell_setting 'monoclinic'
loop_
_space_group_symop_operation_xyz
x,y,z
-x,y,1/2-z
-x,-y,-z
x,-y,1/2+z
1/2+x,1/2+y,z
1/2-x,1/2+y,1/2-z
1/2-x,1/2-y,-z
1/2+x,1/2-y,1/2+z
loop_
_atom_site_type_symbol
_atom_site_label
_atom_site_fract_x
_atom_site_fract_y
_atom_site_fract_z
Si Si1 0.833397 0.379976 0.386836
Si Si2 0.526115 0.833758 0.844371
Si Si3 0.000000 0.600602 0.750000
Si Si4 0.123996 0.555259 0.348559
Si Si5 0.318415 0.241141 0.746660
Si Si6 0.593143 0.044241 0.891971
Si Si7 0.150296 0.840228 0.438516
Si Si8 0.288589 0.302026 0.483238
O O1 0.500000 0.360883 0.250000
O O2 0.782111 0.374430 0.433339
O O3 0.907657 0.432163 0.382310
O O4 0.134353 0.345254 0.468383
O O5 0.477029 0.890580 0.812168
O O6 0.248020 0.792848 0.744967
O O7 0.601449 0.832725 0.932409
O O8 0.849659 0.815032 0.918609
O O9 0.989147 0.570052 0.802057
O O10 0.327407 0.633303 0.857101
O O11 0.519941 0.555905 0.476295
O O12 0.039127 0.514029 0.365387
O O13 0.000000 0.538874 0.250000
O O14 0.500000 0.251092 0.750000
O O15 0.549874 0.204422 0.854701
O O16 0.975945 0.212322 0.625705
O O17 0.250000 0.250000 0.500000
#
# Coordination Sequence:
#
# PCOD9304650 Si02
#       8
#     8   8   4   8   8   8   8   8
#     4  12  23  40  69 104 136 170 233 303 341 396
#     4  12  26  45  67  98 139 192 234 283 353 424
#     4  12  18  40  76  98 128 174 230 288 336 418
#     4  11  25  46  74 100 135 185 231 282 358 434
#     4  12  25  42  65  96 137 188 233 279 337 420
#     4  11  23  45  72 104 131 175 237 288 349 419
#     4  12  22  41  68  99 135 176 230 286 339 406
#     4  12  26  42  65 102 138 182 237 285 349 415
#
# _framework density 21.860893999999998
#
# number of rings (size 3 to 8) (size 9 to 14) (size 15 to 20)
#    0.000    0.267    8.000    1.200    3.733    0.000 
#    0.000    1.333    0.000    0.000    0.000    0.000 
#    0.000    0.000    0.000    0.000    0.000    0.000 
#
# Total GULP energy -167924.214391 kJ/mol
# GULP energy per Si atom -5597.473813 kJ/mol
# Density = 2.181114 g / cm^3
# Si number density = 21.860894 Si / 1000 Ang^3
#
#
#
# Elastic Constant Matrix: (Units=GPa)
#
#
# Indices 1 2 3 4 5 6 
#
# 1 126.5037 48.2930 7.4100 -0.0022 -0.8269 0.0027
# 2 48.2930 129.5210 -2.5568 -0.0024 8.1616 0.0006
# 3 7.4100 -2.5568 42.4557 -0.0189 -8.6979 0.0072
# 4 -0.0022 -0.0024 -0.0189 35.7293 -0.0022 -0.7270
# 5 -0.8269 8.1616 -8.6979 -0.0022 23.8969 0.0024
# 6 0.0027 0.0006 0.0072 -0.7270 0.0024 43.4681
#
#
#
# Elastic Compliance Matrix: (Units=1/GPa)
#
#
# Indices 1 2 3 4 5 6 
#
# 1 0.009378 -0.003589 -0.001659 0.000000 0.000946 0.000000
# 2 -0.003589 0.009264 0.000552 0.000001 -0.003087 0.000000
# 3 -0.001659 0.000552 0.025746 0.000014 0.009125 -0.000004
# 4 0.000000 0.000001 0.000014 0.027998 0.000007 0.000468
# 5 0.000946 -0.003087 0.009125 0.000007 0.046255 -0.000004
# 6 0.000000 0.000000 -0.000004 0.000468 -0.000004 0.023013
#
#
# Mechanical properties :
#
#
# Convention : Reuss Voigt Hill
#
# Bulk Modulus (GPa) = 28.57456 44.97476 36.77466
# Shear Modulus (GPa) = 30.72885 36.97447 33.85166
#
# Velocity S-wave (km/s) = 3.75327 4.11707 3.93937
# Velocity P-wave (km/s) = 5.64643 6.57405 6.12782
#
# Compressibility (1/GPa) = 0.03499617
#
# Stress axis : x y z
#
# Youngs Moduli (GPa) = 106.62717 107.93918 38.84064
#
# Poissons Ratio (x) = 0.38742 0.06444
# Poissons Ratio (y) = 0.38271 -0.02143
# Poissons Ratio (z) = 0.17691 -0.05956
#
# Static dielectric constant tensor:
#      x y z
#    x 1.780460 0.000000 -0.017060 
#    y 0.000000 1.817560 -0.000010 
#    z -0.017060 -0.000010 1.812410 
# 
# From -- ./inp_files/266654.got.cif
#   From: 2010.05.17/outbox.cif.g08.bks.cpg/sg15_134_cif.got.tgz:266654.got - 2010.06.03 18:47:42.
