data_PCOD9304809
_publ_section_title
;
Structure prediction by ZEFSAII (Michael W. Deem and Ramdas Pophale) SiO2 
 PCOD9304809
Probable space group: C 2/C
;
_chemical_formula_sum "Si O2"
_cell_formula_units_Z 48
_cell_length_a 10.194181
_cell_length_b 26.952903
_cell_length_c 14.706187
_cell_angle_alpha 90.000000
_cell_angle_beta 151.978685
_cell_angle_gamma 90.000000
_cell_volume 1898.326834
_symmetry_space_group_name_H-M "C 2/C"
_symmetry_group_IT_number 15
_symmetry_cell_setting 'monoclinic'
loop_
_space_group_symop_operation_xyz
x,y,z
-x,y,1/2-z
-x,-y,-z
x,-y,1/2+z
1/2+x,1/2+y,z
1/2-x,1/2+y,1/2-z
1/2-x,1/2-y,-z
1/2+x,1/2-y,1/2+z
loop_
_atom_site_type_symbol
_atom_site_label
_atom_site_fract_x
_atom_site_fract_y
_atom_site_fract_z
Si Si1 0.813457 0.401696 0.556407
Si Si2 0.753854 0.364144 0.315537
Si Si3 0.971592 0.796311 0.627899
Si Si4 0.293506 0.998730 0.459910
Si Si5 0.206577 0.395822 0.455978
Si Si6 0.969874 0.246561 0.826349
O O1 0.820587 0.375481 0.461838
O O2 0.484198 0.398877 0.375227
O O3 0.915738 0.457731 0.602466
O O4 0.000000 0.378440 0.750000
O O5 0.629622 0.309822 0.229797
O O6 0.030496 0.371708 0.429328
O O7 0.750000 0.750000 0.500000
O O8 0.886457 0.849004 0.530941
O O9 0.000000 0.809401 0.750000
O O10 0.256085 0.778528 0.754838
O O11 0.204600 0.051066 0.449702
O O12 0.000000 0.975777 0.250000
O O13 0.500000 0.000000 0.500000
O O14 0.000000 0.409822 0.250000
O O15 0.768568 0.256130 0.585605
#
# Coordination Sequence:
#
# PCOD9304809 Si02
#       6
#     8   8   8   8   8   8
#     4  11  23  46  81 114 158 206 262 328 411 476
#     4  11  24  51  75 113 160 203 265 339 390 484
#     4  12  26  48  77 108 155 212 268 334 407 479
#     4  12  24  48  80 115 159 206 259 332 402 484
#     4  12  27  48  77 111 160 209 266 323 407 483
#     4  12  27  47  77 112 154 206 274 336 407 476
#
# _framework density 25.285425
#
# number of rings (size 3 to 8) (size 9 to 14) (size 15 to 20)
#    0.000    0.333    6.667    2.500    2.333    2.000 
#    6.000    3.333    0.000    0.000    0.000    0.000 
#    0.000    0.000    0.000    0.000    0.000    0.000 
#
# Total GULP energy -134026.994776 kJ/mol
# GULP energy per Si atom -5584.458116 kJ/mol
# Density = 2.522787 g / cm^3
# Si number density = 25.285425 Si / 1000 Ang^3
#
#
#
# Elastic Constant Matrix: (Units=GPa)
#
#
# Indices 1 2 3 4 5 6 
#
# 1 117.1017 10.6564 33.0240 0.0000 15.1825 0.0000
# 2 10.6564 165.0572 28.6852 0.0001 6.8781 0.0000
# 3 33.0240 28.6852 105.5198 0.0000 -3.6657 0.0001
# 4 0.0000 0.0001 0.0000 -22.8341 0.0000 0.5310
# 5 15.1825 6.8781 -3.6657 0.0000 40.1456 0.0000
# 6 0.0000 0.0000 0.0001 0.5310 0.0000 32.6334
#
#
#
# Elastic Compliance Matrix: (Units=1/GPa)
#
#
# Indices 1 2 3 4 5 6 
#
# 1 0.009991 0.000098 -0.003296 0.000000 -0.004096 0.000000
# 2 0.000098 0.006423 -0.001822 0.000000 -0.001304 0.000000
# 3 -0.003296 -0.001822 0.011093 0.000000 0.002572 0.000000
# 4 0.000000 0.000000 0.000000 -0.043778 0.000000 0.000712
# 5 -0.004096 -0.001304 0.002572 0.000000 0.026917 0.000000
# 6 0.000000 0.000000 0.000000 0.000712 0.000000 0.030632
#
#
# Mechanical properties :
#
#
# Convention : Reuss Voigt Hill
#
# Bulk Modulus (GPa) = 57.24749 59.15667 58.20208
# Shear Modulus (GPa) = 87.50324 31.00985 59.25654
#
# Velocity S-wave (km/s) = 5.88909 3.50579 4.84623
# Velocity P-wave (km/s) = 8.30250 6.31140 7.37445
#
# Compressibility (1/GPa) = 0.01746802
#
# Stress axis : x y z
#
# Youngs Moduli (GPa) = 100.08772 155.68613 90.14595
#
# Poissons Ratio (x) = -0.01533 0.29712
# Poissons Ratio (y) = -0.00985 0.16427
# Poissons Ratio (z) = 0.32989 0.28370
#
# Static dielectric constant tensor:
#      x y z
#    x 1.627780 0.000000 1.078990 
#    y 0.000000 2.378500 0.000000 
#    z 1.078990 0.000000 3.881770 
# 
# From -- ./inp_files/148852.got.cif
#   From: 2010.05.17/outbox.cif.g08.bks.cpg/sg15_75_cif.got.tgz:148852.got - 2010.06.03 18:47:42.
