data_PCOD9304452
_publ_section_title
;
Structure prediction by ZEFSAII (Michael W. Deem and Ramdas Pophale) SiO2 
 PCOD9304452
Probable space group: C 2/C
;
_chemical_formula_sum "Si O2"
_cell_formula_units_Z 40
_cell_length_a 7.989980
_cell_length_b 11.177599
_cell_length_c 18.139605
_cell_angle_alpha 90.000000
_cell_angle_beta 99.521091
_cell_angle_gamma 90.000000
_cell_volume 1597.710000
_symmetry_space_group_name_H-M "C 2/C"
_symmetry_group_IT_number 15
_symmetry_cell_setting 'monoclinic'
loop_
_space_group_symop_operation_xyz
x,y,z
-x,y,1/2-z
-x,-y,-z
x,-y,1/2+z
1/2+x,1/2+y,z
1/2-x,1/2+y,1/2-z
1/2-x,1/2-y,-z
1/2+x,1/2-y,1/2+z
loop_
_atom_site_type_symbol
_atom_site_label
_atom_site_fract_x
_atom_site_fract_y
_atom_site_fract_z
Si Si1 0.928408 0.390977 0.541234
Si Si2 0.607750 0.497249 0.602656
Si Si3 0.799036 0.367668 0.247500
Si Si4 0.434066 0.310925 0.522502
Si Si5 0.145063 0.387451 0.698824
O O1 0.763166 0.433335 0.571785
O O2 0.000000 0.500000 0.500000
O O3 0.924478 0.288960 0.479204
O O4 0.059326 0.353444 0.615183
O O5 0.687665 0.565797 0.676691
O O6 0.468091 0.391220 0.597434
O O7 0.542648 0.599187 0.543568
O O8 0.780267 0.476302 0.306454
O O9 0.741023 0.228405 0.240299
O O10 0.000000 0.356611 0.250000
O O11 0.250000 0.250000 0.500000
O O12 0.000000 0.405987 0.750000
#
# Coordination Sequence:
#
# PCOD9304452 Si02
#       5
#     8   8   8   8   8
#     4  12  23  44  72 102 138 185 232 293 359 422
#     4  11  23  44  68  98 139 181 228 294 345 425
#     4  11  24  47  73 100 142 188 240 294 359 430
#     4  11  24  42  67 102 139 176 232 285 351 418
#     4  11  25  47  69 101 141 186 239 291 360 430
#
# _framework density 25.035834000000001
#
# number of rings (size 3 to 8) (size 9 to 14) (size 15 to 20)
#    0.000    0.800    8.000    0.600    0.000    4.000 
#    7.200    0.000    0.000    0.000    0.000    0.000 
#    0.000    0.000    0.000    0.000    0.000    0.000 
#
# Total GULP energy -111549.254202 kJ/mol
# GULP energy per Si atom -5577.462710 kJ/mol
# Density = 2.497885 g / cm^3
# Si number density = 25.035834 Si / 1000 Ang^3
#
#
#
# Elastic Constant Matrix: (Units=GPa)
#
#
# Indices 1 2 3 4 5 6 
#
# 1 67.8998 31.9599 -7.1704 0.0000 11.4673 0.0000
# 2 31.9599 180.3306 -1.0820 0.0000 9.7419 0.0000
# 3 -7.1704 -1.0820 49.9096 0.0000 11.1662 0.0000
# 4 0.0000 0.0000 0.0000 37.4253 0.0000 30.5946
# 5 11.4673 9.7419 11.1662 0.0000 27.9976 0.0000
# 6 0.0000 0.0000 0.0000 30.5946 0.0000 28.8303
#
#
#
# Elastic Compliance Matrix: (Units=1/GPa)
#
#
# Indices 1 2 3 4 5 6 
#
# 1 0.017815 -0.002695 0.004308 0.000000 -0.008077 0.000000
# 2 -0.002695 0.006077 -0.000032 0.000000 -0.000998 0.000000
# 3 0.004308 -0.000032 0.023109 0.000000 -0.010970 0.000000
# 4 0.000000 0.000000 0.000000 0.201671 0.000000 -0.214011
# 5 -0.008077 -0.000998 -0.010970 0.000000 0.043748 0.000000
# 6 0.000000 0.000000 0.000000 -0.214011 0.000000 0.261793
#
#
# Mechanical properties :
#
#
# Convention : Reuss Voigt Hill
#
# Bulk Modulus (GPa) = 19.93537 38.39500 29.16518
# Shear Modulus (GPa) = 8.80636 37.14615 22.97626
#
# Velocity S-wave (km/s) = 1.87754 3.85609 3.03270
# Velocity P-wave (km/s) = 3.56093 5.93255 4.89262
#
# Compressibility (1/GPa) = 0.05016211
#
# Stress axis : x y z
#
# Youngs Moduli (GPa) = 56.13161 164.56194 43.27375
#
# Poissons Ratio (x) = 0.44353 -0.18643
# Poissons Ratio (y) = 0.15129 0.00140
# Poissons Ratio (z) = -0.24182 0.00531
#
# Static dielectric constant tensor:
#      x y z
#    x 1.971640 0.000000 0.134210 
#    y 0.000000 2.122060 0.000000 
#    z 0.134210 0.000000 1.917910 
# 
# From -- ./inp_files/187964.got.cif
#   From: 2010.05.17/outbox.cif.g08.bks.cpg/sg15_94_cif.got.tgz:187964.got - 2010.06.03 18:47:42.
