data_PCOD9304550
_publ_section_title
;
Structure prediction by ZEFSAII (Michael W. Deem and Ramdas Pophale) SiO2 
 PCOD9304550
Probable space group: C 2/C
;
_chemical_formula_sum "Si O2"
_cell_formula_units_Z 56
_cell_length_a 22.072829
_cell_length_b 15.523797
_cell_length_c 15.409342
_cell_angle_alpha 90.000000
_cell_angle_beta 153.144448
_cell_angle_gamma 90.000000
_cell_volume 2385.235356
_symmetry_space_group_name_H-M "C 2/C"
_symmetry_group_IT_number 15
_symmetry_cell_setting 'monoclinic'
loop_
_space_group_symop_operation_xyz
x,y,z
-x,y,1/2-z
-x,-y,-z
x,-y,1/2+z
1/2+x,1/2+y,z
1/2-x,1/2+y,1/2-z
1/2-x,1/2-y,-z
1/2+x,1/2-y,1/2+z
loop_
_atom_site_type_symbol
_atom_site_label
_atom_site_fract_x
_atom_site_fract_y
_atom_site_fract_z
Si Si1 0.601586 0.289858 0.300167
Si Si2 0.535048 0.513835 0.697309
Si Si3 0.913218 0.715146 0.403437
Si Si4 0.864547 0.413729 0.237116
Si Si5 0.365313 0.280263 0.521981
Si Si6 0.282734 0.086058 0.447965
Si Si7 0.238850 0.555222 0.269455
O O1 0.500000 0.270077 0.250000
O O2 0.750000 0.250000 0.500000
O O3 0.607767 0.393544 0.299839
O O4 0.549680 0.253780 0.141419
O O5 0.500000 0.485874 0.750000
O O6 0.634256 0.446804 0.780476
O O7 0.394159 0.529364 0.470185
O O8 0.893662 0.783761 0.455261
O O9 0.780726 0.654873 0.228329
O O10 0.022537 0.648120 0.579799
O O11 0.841101 0.497269 0.264797
O O12 0.730885 0.356111 0.073106
O O13 0.874393 0.434970 0.148077
O O14 0.500000 0.278560 0.750000
O O15 0.292897 0.188572 0.446630
O O16 0.316310 0.044091 0.398332
#
# Coordination Sequence:
#
# PCOD9304550 Si02
#       7
#     8   8   8   8   8   8   8
#     4  11  27  47  74 110 148 197 252 312 370 442
#     4  11  23  44  73  99 140 190 247 311 364 450
#     4  11  26  47  72 104 150 183 247 307 366 446
#     4  12  26  44  74 105 139 193 241 298 377 451
#     4  11  26  44  72 107 145 189 237 304 371 444
#     4  11  25  45  68 102 142 183 236 304 365 442
#     4  11  26  45  70 102 140 189 243 304 374 440
#
# _framework density 23.477765999999999
#
# number of rings (size 3 to 8) (size 9 to 14) (size 15 to 20)
#    0.000    0.857    2.857    3.000   10.000    0.000 
#    0.000    0.714    0.000    0.000    0.000    0.000 
#    0.000    0.000    0.000    0.000    0.000    0.000 
#
# Total GULP energy -156905.328886 kJ/mol
# GULP energy per Si atom -5603.761746 kJ/mol
# Density = 2.342433 g / cm^3
# Si number density = 23.477766 Si / 1000 Ang^3
#
#
#
# Elastic Constant Matrix: (Units=GPa)
#
#
# Indices 1 2 3 4 5 6 
#
# 1 193.0842 49.6686 52.6355 0.0000 -33.9811 0.0000
# 2 49.6686 55.3518 36.9541 0.0000 1.1271 0.0000
# 3 52.6355 36.9541 113.1029 0.0000 0.5775 0.0000
# 4 0.0000 0.0000 0.0000 33.3342 0.0000 11.8828
# 5 -33.9811 1.1271 0.5775 0.0000 46.9138 0.0000
# 6 0.0000 0.0000 0.0000 11.8828 0.0000 37.5949
#
#
#
# Elastic Compliance Matrix: (Units=1/GPa)
#
#
# Indices 1 2 3 4 5 6 
#
# 1 0.008462 -0.006486 -0.001851 0.000000 0.006308 0.000000
# 2 -0.006486 0.028088 -0.006132 0.000000 -0.005297 0.000000
# 3 -0.001851 -0.006132 0.011713 0.000000 -0.001338 0.000000
# 4 0.000000 0.000000 0.000000 0.033809 0.000000 -0.010686
# 5 0.006308 -0.005297 -0.001338 0.000000 0.026029 0.000000
# 6 0.000000 0.000000 0.000000 -0.010686 0.000000 0.029977
#
#
# Mechanical properties :
#
#
# Convention : Reuss Voigt Hill
#
# Bulk Modulus (GPa) = 51.74465 71.11725 61.43095
# Shear Modulus (GPa) = 28.82555 38.38730 33.60642
#
# Velocity S-wave (km/s) = 3.50777 4.04796 3.78751
# Velocity P-wave (km/s) = 6.20432 7.22531 6.73419
#
# Compressibility (1/GPa) = 0.01932567
#
# Stress axis : x y z
#
# Youngs Moduli (GPa) = 118.17008 35.60256 85.37355
#
# Poissons Ratio (x) = 0.23092 0.15804
# Poissons Ratio (y) = 0.76646 0.52348
# Poissons Ratio (z) = 0.21876 0.21830
#
# Static dielectric constant tensor:
#      x y z
#    x 1.902760 0.000000 0.007720 
#    y 0.000000 1.842650 0.000000 
#    z 0.007720 0.000000 1.958440 
# 
# From -- ./inp_files/169182.got.cif
#   From: 2010.05.17/outbox.cif.g08.bks.cpg/sg15_85_cif.got.tgz:169182.got - 2010.06.03 18:47:42.
