data_PCOD9304987
_publ_section_title
;
Structure prediction by ZEFSAII (Michael W. Deem and Ramdas Pophale) SiO2 
 PCOD9304987
Probable space group: C 2/C
;
_chemical_formula_sum "Si O2"
_cell_formula_units_Z 56
_cell_length_a 23.996647
_cell_length_b 14.395117
_cell_length_c 9.463316
_cell_angle_alpha 90.000000
_cell_angle_beta 120.677825
_cell_angle_gamma 90.000000
_cell_volume 2811.465147
_symmetry_space_group_name_H-M "C 2/C"
_symmetry_group_IT_number 15
_symmetry_cell_setting 'monoclinic'
loop_
_space_group_symop_operation_xyz
x,y,z
-x,y,1/2-z
-x,-y,-z
x,-y,1/2+z
1/2+x,1/2+y,z
1/2-x,1/2+y,1/2-z
1/2-x,1/2-y,-z
1/2+x,1/2-y,1/2+z
loop_
_atom_site_type_symbol
_atom_site_label
_atom_site_fract_x
_atom_site_fract_y
_atom_site_fract_z
Si Si1 0.252479 0.965325 0.942292
Si Si2 0.028703 0.581349 0.442293
Si Si3 0.522463 0.249131 0.633571
Si Si4 0.133437 0.063470 0.923873
Si Si5 0.442517 0.569399 0.964989
Si Si6 0.662001 0.300345 0.708969
Si Si7 0.179344 0.590381 0.700040
O O1 0.211752 0.874063 0.842038
O O2 0.203710 0.028721 0.969205
O O3 0.276378 0.026039 0.841503
O O4 0.310033 0.937673 0.122931
O O5 0.011262 0.679725 0.490296
O O6 0.106370 0.576606 0.552375
O O7 0.000000 0.575137 0.250000
O O8 0.000000 0.500000 0.500000
O O9 0.500000 0.201506 0.750000
O O10 0.475960 0.337351 0.560133
O O11 0.598045 0.280111 0.721953
O O12 0.096861 0.083742 0.730486
O O13 0.136433 0.150207 0.033437
O O14 0.099449 0.980735 0.968521
O O15 0.500000 0.500000 0.000000
O O16 0.693483 0.200922 0.713827
#
# Coordination Sequence:
#
# PCOD9304987 Si02
#       7
#     8   8   8   8   8   8   8
#     4  12  22  47  65  96 133 177 219 277 329 391
#     4  11  25  47  70  97 133 168 222 281 329 392
#     4  11  24  40  67 101 134 178 219 264 336 396
#     4  12  23  40  64  96 139 175 217 274 326 400
#     4  12  22  36  64  96 138 175 214 259 334 392
#     4  11  24  43  67  98 137 171 230 272 329 399
#     4  11  26  43  72  94 128 176 221 271 338 394
#
# _framework density 19.918441000000001
#
# number of rings (size 3 to 8) (size 9 to 14) (size 15 to 20)
#    0.000    0.571    4.286    3.857    4.000    1.714 
#    0.000    1.429    0.000    0.000    0.000    0.000 
#    0.000    0.000    0.000    0.000    0.000    0.000 
#
# Total GULP energy -156548.430692 kJ/mol
# GULP energy per Si atom -5591.015382 kJ/mol
# Density = 1.987311 g / cm^3
# Si number density = 19.918441 Si / 1000 Ang^3
#
#
#
# Elastic Constant Matrix: (Units=GPa)
#
#
# Indices 1 2 3 4 5 6 
#
# 1 67.0792 39.9676 39.7685 0.0000 -16.6822 0.0000
# 2 39.9676 105.4149 27.6506 0.0000 -12.2452 0.0000
# 3 39.7685 27.6506 137.3638 0.0000 -5.7344 0.0000
# 4 0.0000 0.0000 0.0000 36.2195 0.0000 0.1422
# 5 -16.6822 -12.2452 -5.7344 0.0000 27.1648 0.0000
# 6 0.0000 0.0000 0.0000 0.1422 0.0000 23.8556
#
#
#
# Elastic Compliance Matrix: (Units=1/GPa)
#
#
# Indices 1 2 3 4 5 6 
#
# 1 0.024868 -0.006727 -0.005382 0.000000 0.011103 0.000000
# 2 -0.006727 0.012315 -0.000476 0.000000 0.001320 0.000000
# 3 -0.005382 -0.000476 0.008865 0.000000 -0.001648 0.000000
# 4 0.000000 0.000000 0.000000 0.027610 0.000000 -0.000165
# 5 0.011103 0.001320 -0.001648 0.000000 0.043878 0.000000
# 6 0.000000 0.000000 0.000000 -0.000165 0.000000 0.041920
#
#
# Mechanical properties :
#
#
# Convention : Reuss Voigt Hill
#
# Bulk Modulus (GPa) = 47.89842 58.29238 53.09540
# Shear Modulus (GPa) = 26.09796 30.94606 28.52201
#
# Velocity S-wave (km/s) = 3.62365 3.94590 3.78820
# Velocity P-wave (km/s) = 6.45037 7.07737 6.77113
#
# Compressibility (1/GPa) = 0.02087751
#
# Stress axis : x y z
#
# Youngs Moduli (GPa) = 40.21235 81.20114 112.80143
#
# Poissons Ratio (x) = 0.54625 0.60709
# Poissons Ratio (y) = 0.27051 0.05373
# Poissons Ratio (z) = 0.21642 0.03868
#
# Static dielectric constant tensor:
#      x y z
#    x 1.740970 0.000000 -0.104710 
#    y 0.000000 1.681200 0.000000 
#    z -0.104710 0.000000 1.941510 
# 
# From -- ./inp_files/61978.got.cif
#   From: 2010.05.17/outbox.cif.g08.bks.cpg/sg15_31_cif.got.tgz:61978.got - 2010.06.03 18:47:42.
