data_PCOD9304455
_publ_section_title
;
Structure prediction by ZEFSAII (Michael W. Deem and Ramdas Pophale) SiO2 
 PCOD9304455
Probable space group: C 2/C
;
_chemical_formula_sum "Si O2"
_cell_formula_units_Z 44
_cell_length_a 23.481565
_cell_length_b 5.292659
_cell_length_c 13.887064
_cell_angle_alpha 90.000000
_cell_angle_beta 89.829325
_cell_angle_gamma 90.000000
_cell_volume 1725.875495
_symmetry_space_group_name_H-M "C 2/C"
_symmetry_group_IT_number 15
_symmetry_cell_setting 'monoclinic'
loop_
_space_group_symop_operation_xyz
x,y,z
-x,y,1/2-z
-x,-y,-z
x,-y,1/2+z
1/2+x,1/2+y,z
1/2-x,1/2+y,1/2-z
1/2-x,1/2-y,-z
1/2+x,1/2-y,1/2+z
loop_
_atom_site_type_symbol
_atom_site_label
_atom_site_fract_x
_atom_site_fract_y
_atom_site_fract_z
Si Si1 0.528355 0.750534 0.042779
Si Si2 0.500000 0.574153 0.250000
Si Si3 0.868144 0.554532 0.506583
Si Si4 0.114561 0.917946 0.828055
Si Si5 0.824644 0.557305 0.822114
Si Si6 0.216617 0.694640 0.360780
O O1 0.520313 0.733814 0.157571
O O2 0.500000 0.500000 0.000000
O O3 0.593851 0.802413 0.010948
O O4 0.500000 0.000000 0.000000
O O5 0.442374 0.440336 0.210353
O O6 0.898626 0.749371 0.577709
O O7 0.855229 0.630155 0.396662
O O8 0.810068 0.501849 0.564520
O O9 0.134194 0.725774 0.743560
O O10 0.168355 0.089677 0.853359
O O11 0.784471 0.417300 0.746565
O O12 0.780518 0.726446 0.882875
#
# Coordination Sequence:
#
# PCOD9304455 Si02
#       6
#     8   4   8   8   8   8
#     4  12  27  48  75 110 151 201 256 314 378 458
#     4  12  24  48  76 104 152 198 252 318 382 454
#     4  11  25  43  70 105 143 187 248 304 379 447
#     4  11  24  44  68 104 139 190 239 299 376 445
#     4  11  23  44  69 100 141 185 241 308 362 452
#     4  11  24  44  69 102 142 189 247 299 384 450
#
# _framework density 25.494306999999999
#
# number of rings (size 3 to 8) (size 9 to 14) (size 15 to 20)
#    0.000    0.727    5.455    1.636    0.000    4.364 
#    0.000    0.000    0.000    0.000    0.000    0.000 
#    0.000    0.000    0.000    0.000    0.000    0.000 
#
# Total GULP energy -122996.925848 kJ/mol
# GULP energy per Si atom -5590.769357 kJ/mol
# Density = 2.543628 g / cm^3
# Si number density = 25.494307 Si / 1000 Ang^3
#
#
#
# Elastic Constant Matrix: (Units=GPa)
#
#
# Indices 1 2 3 4 5 6 
#
# 1 94.7108 2.1002 8.5428 0.0000 -8.8655 0.0000
# 2 2.1002 51.8211 2.6389 0.0000 -6.1302 0.0000
# 3 8.5428 2.6389 108.3528 0.0000 -6.8932 0.0000
# 4 0.0000 0.0000 0.0000 18.0346 0.0000 -7.9273
# 5 -8.8655 -6.1302 -6.8932 0.0000 48.0759 0.0000
# 6 0.0000 0.0000 0.0000 -7.9273 0.0000 43.5365
#
#
#
# Elastic Compliance Matrix: (Units=1/GPa)
#
#
# Indices 1 2 3 4 5 6 
#
# 1 0.010803 -0.000180 -0.000729 0.000000 0.001865 0.000000
# 2 -0.000180 0.019607 -0.000309 0.000000 0.002423 0.000000
# 3 -0.000729 -0.000309 0.009368 0.000000 0.001169 0.000000
# 4 0.000000 0.000000 0.000000 0.060273 0.000000 0.010975
# 5 0.001865 0.002423 0.001169 0.000000 0.021621 0.000000
# 6 0.000000 0.000000 0.000000 0.010975 0.000000 0.024968
#
#
# Mechanical properties :
#
#
# Convention : Reuss Voigt Hill
#
# Bulk Modulus (GPa) = 26.77954 31.27206 29.02580
# Shear Modulus (GPa) = 30.95537 38.03627 34.49582
#
# Velocity S-wave (km/s) = 3.48833 3.86677 3.68241
# Velocity P-wave (km/s) = 5.17219 5.67704 5.43048
#
# Compressibility (1/GPa) = 0.03734194
#
# Stress axis : x y z
#
# Youngs Moduli (GPa) = 92.56929 51.00279 106.74079
#
# Poissons Ratio (x) = 0.00919 0.07778
# Poissons Ratio (y) = 0.01667 0.03300
# Poissons Ratio (z) = 0.06746 0.01577
#
# Static dielectric constant tensor:
#      x y z
#    x 2.169100 0.000000 -0.054270 
#    y 0.000000 2.024550 0.000000 
#    z -0.054270 0.000000 2.041260 
# 
# From -- ./inp_files/170809.got.cif
#   From: 2010.05.17/outbox.cif.g08.bks.cpg/sg15_86_cif.got.tgz:170809.got - 2010.06.03 18:47:42.
