data_PCOD9304349
_publ_section_title
;
Structure prediction by ZEFSAII (Michael W. Deem and Ramdas Pophale) SiO2 
 PCOD9304349
Probable space group: C 2/C
;
_chemical_formula_sum "Si O2"
_cell_formula_units_Z 44
_cell_length_a 15.730764
_cell_length_b 14.330529
_cell_length_c 20.768792
_cell_angle_alpha 90.000000
_cell_angle_beta 24.902246
_cell_angle_gamma 90.000000
_cell_volume 1971.419225
_symmetry_space_group_name_H-M "C 2/C"
_symmetry_group_IT_number 15
_symmetry_cell_setting 'monoclinic'
loop_
_space_group_symop_operation_xyz
x,y,z
-x,y,1/2-z
-x,-y,-z
x,-y,1/2+z
1/2+x,1/2+y,z
1/2-x,1/2+y,1/2-z
1/2-x,1/2-y,-z
1/2+x,1/2-y,1/2+z
loop_
_atom_site_type_symbol
_atom_site_label
_atom_site_fract_x
_atom_site_fract_y
_atom_site_fract_z
Si Si1 0.796691 0.578182 0.279700
Si Si2 0.205850 0.232598 0.769525
Si Si3 0.984392 0.034730 0.910198
Si Si4 0.840194 0.306671 0.560922
Si Si5 0.694448 0.033593 0.505937
Si Si6 0.500000 0.836859 0.250000
O O1 0.800885 0.689819 0.281209
O O2 0.700174 0.537961 0.411618
O O3 0.643775 0.539809 0.329602
O O4 0.020270 0.541593 0.112969
O O5 0.132544 0.289772 0.882257
O O6 0.439388 0.208603 0.620104
O O7 0.088203 0.136543 0.839711
O O8 0.888788 0.008555 0.907665
O O9 0.766673 0.405531 0.584358
O O10 0.682987 0.228662 0.646666
O O11 0.592028 0.101977 0.629375
#
# Coordination Sequence:
#
# PCOD9304349 Si02
#       6
#     8   8   8   8   8   4
#     4  11  23  43  71  98 144 194 241 289 364 437
#     4  12  25  45  74 101 145 192 240 296 363 432
#     4  11  23  44  71 104 143 191 239 294 364 440
#     4  12  25  43  69 109 141 183 241 306 362 416
#     4  12  24  43  70 106 142 190 243 297 358 436
#     4  12  22  40  72 104 132 178 240 298 358 414
#
# _framework density 22.318946
#
# number of rings (size 3 to 8) (size 9 to 14) (size 15 to 20)
#    0.000    0.364    7.273    1.636    2.545    1.455 
#    0.000    0.000    0.000    0.000    0.000    0.000 
#    0.000    0.000    0.000    0.000    0.000    0.000 
#
# Total GULP energy -123121.283248 kJ/mol
# GULP energy per Si atom -5596.421966 kJ/mol
# Density = 2.226815 g / cm^3
# Si number density = 22.318946 Si / 1000 Ang^3
#
#
#
# Elastic Constant Matrix: (Units=GPa)
#
#
# Indices 1 2 3 4 5 6 
#
# 1 57.7009 27.1207 39.8117 -0.0048 -16.3184 0.0062
# 2 27.1207 116.5692 44.0203 0.0035 -18.3377 -0.0057
# 3 39.8117 44.0203 83.6504 0.0051 -11.9100 0.0104
# 4 -0.0048 0.0035 0.0051 55.8173 0.0073 -19.9473
# 5 -16.3184 -18.3377 -11.9100 0.0073 28.1005 -0.0143
# 6 0.0062 -0.0057 0.0104 -19.9473 -0.0143 58.3110
#
#
#
# Elastic Compliance Matrix: (Units=1/GPa)
#
#
# Indices 1 2 3 4 5 6 
#
# 1 0.029037 -0.000430 -0.011954 0.000003 0.011515 0.000003
# 2 -0.000430 0.011385 -0.005070 0.000000 0.005031 0.000003
# 3 -0.011954 -0.005070 0.020063 -0.000004 -0.001747 -0.000005
# 4 0.000003 0.000000 -0.000004 0.020411 -0.000001 0.006982
# 5 0.011515 0.005031 -0.001747 -0.000001 0.044816 0.000010
# 6 0.000003 0.000003 -0.000005 0.006982 0.000010 0.019538
#
#
# Mechanical properties :
#
#
# Convention : Reuss Voigt Hill
#
# Bulk Modulus (GPa) = 39.09780 53.31400 46.20590
# Shear Modulus (GPa) = 26.49936 38.24362 32.37149
#
# Velocity S-wave (km/s) = 3.44946 4.14394 3.81255
# Velocity P-wave (km/s) = 5.78108 6.84365 6.33468
#
# Compressibility (1/GPa) = 0.02557689
#
# Stress axis : x y z
#
# Youngs Moduli (GPa) = 34.43841 87.83715 49.84269
#
# Poissons Ratio (x) = 0.03778 0.59581
# Poissons Ratio (y) = 0.01481 0.25271
# Poissons Ratio (z) = 0.41167 0.44535
#
# Static dielectric constant tensor:
#      x y z
#    x 1.868440 0.000000 0.016980 
#    y 0.000000 1.821830 0.000010 
#    z 0.016980 0.000010 1.818970 
# 
# From -- ./inp_files/47527.got.cif
#   From: 2010.05.17/outbox.cif.g08.bks.cpg/sg15_24_cif.got.tgz:47527.got - 2010.06.03 18:47:42.
