data_PCOD9304709
_publ_section_title
;
Structure prediction by ZEFSAII (Michael W. Deem and Ramdas Pophale) SiO2 
 PCOD9304709
Probable space group: C 2/C
;
_chemical_formula_sum "Si O2"
_cell_formula_units_Z 44
_cell_length_a 17.367181
_cell_length_b 8.496189
_cell_length_c 18.804058
_cell_angle_alpha 90.000000
_cell_angle_beta 138.831037
_cell_angle_gamma 90.000000
_cell_volume 1826.488380
_symmetry_space_group_name_H-M "C 2/C"
_symmetry_group_IT_number 15
_symmetry_cell_setting 'monoclinic'
loop_
_space_group_symop_operation_xyz
x,y,z
-x,y,1/2-z
-x,-y,-z
x,-y,1/2+z
1/2+x,1/2+y,z
1/2-x,1/2+y,1/2-z
1/2-x,1/2-y,-z
1/2+x,1/2-y,1/2+z
loop_
_atom_site_type_symbol
_atom_site_label
_atom_site_fract_x
_atom_site_fract_y
_atom_site_fract_z
Si Si1 0.190889 0.586124 0.044091
Si Si2 0.397583 0.477112 0.284826
Si Si3 0.199477 0.914714 0.130796
Si Si4 0.500000 0.765368 0.750000
Si Si5 0.241870 0.592530 0.449584
Si Si6 0.534888 0.838021 0.189799
O O1 0.272268 0.485678 0.154733
O O2 0.183905 0.754534 0.076275
O O3 0.255210 0.553369 0.013302
O O4 0.058253 0.567233 0.923524
O O5 0.370707 0.427435 0.346105
O O6 0.479226 0.352077 0.301510
O O7 0.452218 0.651865 0.320120
O O8 0.338621 0.908832 0.240923
O O9 0.178071 0.059723 0.062309
O O10 0.388899 0.877429 0.669095
O O11 0.250000 0.750000 0.500000
O O12 0.500000 0.831552 0.250000
#
# Coordination Sequence:
#
# PCOD9304709 Si02
#       6
#     8   8   8   4   8   8
#     4  11  25  49  77 103 144 201 242 291 372 443
#     4  11  27  47  71 110 150 188 243 311 365 426
#     4  11  27  48  72 107 149 187 249 303 354 444
#     4  12  26  46  68 104 152 186 230 308 368 420
#     4  12  25  43  74 104 141 187 244 294 370 427
#     4  11  23  45  79 102 140 198 248 289 361 447
#
# _framework density 24.089943999999999
#
# number of rings (size 3 to 8) (size 9 to 14) (size 15 to 20)
#    0.000    0.727    4.545    1.636   10.182    1.455 
#    3.273    0.000    0.000    0.000    0.000    0.000 
#    0.000    0.000    0.000    0.000    0.000    0.000 
#
# Total GULP energy -122815.593196 kJ/mol
# GULP energy per Si atom -5582.526963 kJ/mol
# Density = 2.403511 g / cm^3
# Si number density = 24.089944 Si / 1000 Ang^3
#
#
#
# Elastic Constant Matrix: (Units=GPa)
#
#
# Indices 1 2 3 4 5 6 
#
# 1 163.3407 51.9276 19.8806 0.0000 -48.9592 0.0000
# 2 51.9276 94.6886 -5.7717 0.0000 -32.9175 0.0000
# 3 19.8806 -5.7717 43.8045 0.0000 -4.8643 0.0000
# 4 0.0000 0.0000 0.0000 13.8197 0.0000 9.1157
# 5 -48.9592 -32.9175 -4.8643 0.0000 49.3388 0.0000
# 6 0.0000 0.0000 0.0000 9.1157 0.0000 18.9590
#
#
#
# Elastic Compliance Matrix: (Units=1/GPa)
#
#
# Indices 1 2 3 4 5 6 
#
# 1 0.009761 -0.003086 -0.004034 0.000000 0.007230 0.000000
# 2 -0.003086 0.015090 0.004213 0.000000 0.007421 0.000000
# 3 -0.004034 0.004213 0.025360 0.000000 0.001308 0.000000
# 4 0.000000 0.000000 0.000000 0.105968 0.000000 -0.050951
# 5 0.007230 0.007421 0.001308 0.000000 0.032522 0.000000
# 6 0.000000 0.000000 0.000000 -0.050951 0.000000 0.077243
#
#
# Mechanical properties :
#
#
# Convention : Reuss Voigt Hill
#
# Bulk Modulus (GPa) = 22.52398 48.21186 35.36792
# Shear Modulus (GPa) = 17.44860 32.14333 24.79596
#
# Velocity S-wave (km/s) = 2.69422 3.65678 3.21176
# Velocity P-wave (km/s) = 4.36448 6.15517 5.33548
#
# Compressibility (1/GPa) = 0.04439713
#
# Stress axis : x y z
#
# Youngs Moduli (GPa) = 102.44779 66.27060 39.43257
#
# Poissons Ratio (x) = 0.20448 0.15906
# Poissons Ratio (y) = 0.31611 -0.16612
# Poissons Ratio (z) = 0.41325 -0.27918
#
# Static dielectric constant tensor:
#      x y z
#    x 1.864330 0.000000 0.038530 
#    y 0.000000 1.969110 0.000000 
#    z 0.038530 0.000000 2.108860 
# 
# From -- ./inp_files/209757.got.cif
#   From: 2010.05.17/outbox.cif.g08.bks.cpg/sg15_105_cif.got.tgz:209757.got - 2010.06.03 18:47:42.
