data_PCOD9304663
_publ_section_title
;
Structure prediction by ZEFSAII (Michael W. Deem and Ramdas Pophale) SiO2 
 PCOD9304663
Probable space group: C 2/C
;
_chemical_formula_sum "Si O2"
_cell_formula_units_Z 40
_cell_length_a 11.682165
_cell_length_b 14.744188
_cell_length_c 12.574506
_cell_angle_alpha 90.000000
_cell_angle_beta 136.814047
_cell_angle_gamma 90.000000
_cell_volume 1482.262274
_symmetry_space_group_name_H-M "C 2/C"
_symmetry_group_IT_number 15
_symmetry_cell_setting 'monoclinic'
loop_
_space_group_symop_operation_xyz
x,y,z
-x,y,1/2-z
-x,-y,-z
x,-y,1/2+z
1/2+x,1/2+y,z
1/2-x,1/2+y,1/2-z
1/2-x,1/2-y,-z
1/2+x,1/2-y,1/2+z
loop_
_atom_site_type_symbol
_atom_site_label
_atom_site_fract_x
_atom_site_fract_y
_atom_site_fract_z
Si Si1 0.153388 0.874425 0.034178
Si Si2 0.954501 0.292931 0.355767
Si Si3 0.186538 0.282045 0.841681
Si Si4 0.644485 0.072604 0.128891
Si Si5 0.481639 0.456204 0.351871
O O1 0.340233 0.842586 0.189585
O O2 0.048031 0.886548 0.073396
O O3 0.049025 0.801391 0.896995
O O4 0.135475 0.975125 0.975455
O O5 0.810364 0.272111 0.346082
O O6 0.100197 0.350527 0.512202
O O7 0.160508 0.376539 0.753897
O O8 0.000000 0.267772 0.750000
O O9 0.250000 0.250000 0.000000
O O10 0.817569 0.019139 0.236818
O O11 0.500000 0.000000 0.000000
O O12 0.500000 0.414168 0.250000
#
# Coordination Sequence:
#
# PCOD9304663 Si02
#       5
#     8   8   8   8   8
#     4  11  23  45  73 102 145 186 247 309 364 451
#     4  12  22  43  73 104 145 189 242 311 374 437
#     4  12  24  42  75 116 142 189 250 317 380 441
#     4  12  25  47  67 108 158 190 242 312 379 453
#     4  11  26  48  73 103 149 198 240 304 386 450
#
# _framework density 26.985778
#
# number of rings (size 3 to 8) (size 9 to 14) (size 15 to 20)
#    0.000    0.400    8.000    0.000    0.000    4.000 
#    0.000    5.000    0.000    0.000    0.000    0.000 
#    0.000    0.000    0.000    0.000    0.000    0.000 
#
# Total GULP energy -111696.177455 kJ/mol
# GULP energy per Si atom -5584.808873 kJ/mol
# Density = 2.692436 g / cm^3
# Si number density = 26.985778 Si / 1000 Ang^3
#
#
#
# Elastic Constant Matrix: (Units=GPa)
#
#
# Indices 1 2 3 4 5 6 
#
# 1 103.4044 30.4312 64.9816 -0.0001 -11.5608 -0.0001
# 2 30.4312 132.6485 73.2117 -0.0001 -8.1296 0.0000
# 3 64.9816 73.2117 211.9873 -0.0002 10.7944 -0.0001
# 4 -0.0001 -0.0001 -0.0002 77.0186 -0.0001 5.2488
# 5 -11.5608 -8.1296 10.7944 -0.0001 66.5976 -0.0001
# 6 -0.0001 0.0000 -0.0001 5.2488 -0.0001 -6.2325
#
#
#
# Elastic Compliance Matrix: (Units=1/GPa)
#
#
# Indices 1 2 3 4 5 6 
#
# 1 0.012521 -0.000633 -0.003757 0.000000 0.002705 0.000000
# 2 -0.000633 0.009535 -0.003179 0.000000 0.001569 0.000000
# 3 -0.003757 -0.003179 0.007078 0.000000 -0.002187 0.000000
# 4 0.000000 0.000000 0.000000 0.012279 0.000000 0.010341
# 5 0.002705 0.001569 -0.002187 0.000000 0.016031 0.000000
# 6 0.000000 0.000000 0.000000 0.010341 0.000000 -0.151740
#
#
# Mechanical properties :
#
#
# Convention : Reuss Voigt Hill
#
# Bulk Modulus (GPa) = 71.45094 87.25436 79.35265
# Shear Modulus (GPa) = -67.12001 46.10443 -10.50779
#
# Velocity S-wave (km/s) = -4.99263 4.13785 -1.97542
# Velocity P-wave (km/s) = 2.58851 7.43187 4.92607
#
# Compressibility (1/GPa) = 0.01399562
#
# Stress axis : x y z
#
# Youngs Moduli (GPa) = 79.86867 104.88223 141.27990
#
# Poissons Ratio (x) = 0.06638 0.53081
# Poissons Ratio (y) = 0.05055 0.44909
# Poissons Ratio (z) = 0.30008 0.33339
#
# Static dielectric constant tensor:
#      x y z
#    x 2.113560 0.000000 -0.057090 
#    y 0.000000 2.149020 0.000000 
#    z -0.057090 0.000000 2.076820 
# 
# From -- ./inp_files/154158.got.cif
#   From: 2010.05.17/outbox.cif.g08.bks.cpg/sg15_78_cif.got.tgz:154158.got - 2010.06.03 18:47:42.
