data_PCOD9304781
_publ_section_title
;
Structure prediction by ZEFSAII (Michael W. Deem and Ramdas Pophale) SiO2 
 PCOD9304781
Probable space group: C 2/C
;
_chemical_formula_sum "Si O2"
_cell_formula_units_Z 48
_cell_length_a 15.263525
_cell_length_b 27.050931
_cell_length_c 9.059077
_cell_angle_alpha 90.000000
_cell_angle_beta 36.170923
_cell_angle_gamma 90.000000
_cell_volume 2207.584427
_symmetry_space_group_name_H-M "C 2/C"
_symmetry_group_IT_number 15
_symmetry_cell_setting 'monoclinic'
loop_
_space_group_symop_operation_xyz
x,y,z
-x,y,1/2-z
-x,-y,-z
x,-y,1/2+z
1/2+x,1/2+y,z
1/2-x,1/2+y,1/2-z
1/2-x,1/2-y,-z
1/2+x,1/2-y,1/2+z
loop_
_atom_site_type_symbol
_atom_site_label
_atom_site_fract_x
_atom_site_fract_y
_atom_site_fract_z
Si Si1 0.586518 0.246675 0.282572
Si Si2 0.555245 0.642715 0.843000
Si Si3 0.824875 0.023215 0.499976
Si Si4 0.647492 0.095907 0.952154
Si Si5 0.202955 0.070644 0.270256
Si Si6 0.543128 0.150433 0.523892
O O1 0.500000 0.234294 0.250000
O O2 0.539736 0.300051 0.411607
O O3 0.585290 0.202708 0.399173
O O4 0.750000 0.250000 0.000000
O O5 0.500000 0.643073 0.750000
O O6 0.724531 0.624856 0.632105
O O7 0.556464 0.603129 0.433537
O O8 0.732600 0.051955 0.751374
O O9 0.761600 0.038796 0.425674
O O10 0.000000 0.034874 0.250000
O O11 0.819319 0.966476 0.561950
O O12 0.500000 0.083350 0.250000
O O13 0.587486 0.130161 0.901828
O O14 0.329246 0.109095 0.143464
O O15 0.500000 0.157697 0.750000
#
# Coordination Sequence:
#
# PCOD9304781 Si02
#       6
#     8   8   8   8   8   8
#     4  11  23  46  74 106 142 195 249 301 376 453
#     4  11  24  46  78 108 145 196 253 307 368 444
#     4  12  27  48  74 108 147 195 260 306 363 443
#     4  12  26  46  74 108 150 195 244 309 377 441
#     4  12  27  48  75 105 150 198 253 305 367 445
#     4  12  26  48  71 111 157 190 245 317 380 444
#
# _framework density 21.743223
#
# number of rings (size 3 to 8) (size 9 to 14) (size 15 to 20)
#    0.000    0.333    3.333    6.500    4.667    1.333 
#    3.000    2.500    0.000    0.000    0.000    0.000 
#    0.000    0.000    0.000    0.000    0.000    0.000 
#
# Total GULP energy -134211.257099 kJ/mol
# GULP energy per Si atom -5592.135712 kJ/mol
# Density = 2.169373 g / cm^3
# Si number density = 21.743223 Si / 1000 Ang^3
#
#
#
# Elastic Constant Matrix: (Units=GPa)
#
#
# Indices 1 2 3 4 5 6 
#
# 1 149.1502 72.9955 79.5979 0.0000 -15.0884 0.0000
# 2 72.9955 183.6619 79.2367 0.0000 13.8914 0.0000
# 3 79.5979 79.2367 102.9956 0.0000 9.7333 0.0000
# 4 0.0000 0.0000 0.0000 59.9534 0.0000 -0.3826
# 5 -15.0884 13.8914 9.7333 0.0000 36.5004 0.0000
# 6 0.0000 0.0000 0.0000 -0.3826 0.0000 33.9790
#
#
#
# Elastic Compliance Matrix: (Units=1/GPa)
#
#
# Indices 1 2 3 4 5 6 
#
# 1 0.014044 -0.001829 -0.010321 0.000000 0.009254 0.000000
# 2 -0.001829 0.008465 -0.004845 0.000000 -0.002686 0.000000
# 3 -0.010321 -0.004845 0.022202 0.000000 -0.008343 0.000000
# 4 0.000000 0.000000 0.000000 0.016681 0.000000 0.000188
# 5 0.009254 -0.002686 -0.008343 0.000000 0.034469 0.000000
# 6 0.000000 0.000000 0.000000 0.000188 0.000000 0.029432
#
#
# Mechanical properties :
#
#
# Convention : Reuss Voigt Hill
#
# Bulk Modulus (GPa) = 93.28098 99.94090 96.61094
# Shear Modulus (GPa) = 30.70187 39.68507 35.19347
#
# Velocity S-wave (km/s) = 3.76176 4.27684 4.02754
# Velocity P-wave (km/s) = 7.86525 8.39359 8.13371
#
# Compressibility (1/GPa) = 0.01072030
#
# Stress axis : x y z
#
# Youngs Moduli (GPa) = 71.20496 118.13149 45.04176
#
# Poissons Ratio (x) = 0.21604 0.46488
# Poissons Ratio (y) = 0.13022 0.21824
# Poissons Ratio (z) = 0.73492 0.57238
#
# Static dielectric constant tensor:
#      x y z
#    x 1.790480 0.000000 0.005600 
#    y 0.000000 1.617520 0.000000 
#    z 0.005600 0.000000 1.794930 
# 
# From -- ./inp_files/43821.got.cif
#   From: 2010.05.17/outbox.cif.g08.bks.cpg/sg15_22_cif.got.tgz:43821.got - 2010.06.03 18:47:42.
