data_PCOD9304226
_publ_section_title
;
Structure prediction by ZEFSAII (Michael W. Deem and Ramdas Pophale) SiO2 
 PCOD9304226
Probable space group: C 2/C
;
_chemical_formula_sum "Si O2"
_cell_formula_units_Z 48
_cell_length_a 22.972527
_cell_length_b 9.600265
_cell_length_c 12.414597
_cell_angle_alpha 90.000000
_cell_angle_beta 117.235666
_cell_angle_gamma 90.000000
_cell_volume 2434.393019
_symmetry_space_group_name_H-M "C 2/C"
_symmetry_group_IT_number 15
_symmetry_cell_setting 'monoclinic'
loop_
_space_group_symop_operation_xyz
x,y,z
-x,y,1/2-z
-x,-y,-z
x,-y,1/2+z
1/2+x,1/2+y,z
1/2-x,1/2+y,1/2-z
1/2-x,1/2-y,-z
1/2+x,1/2-y,1/2+z
loop_
_atom_site_type_symbol
_atom_site_label
_atom_site_fract_x
_atom_site_fract_y
_atom_site_fract_z
Si Si1 0.892319 0.578501 0.918843
Si Si2 0.730557 0.918442 0.759038
Si Si3 0.981302 0.353991 0.113595
Si Si4 0.178626 0.133655 0.756209
Si Si5 0.935936 0.937929 0.499823
Si Si6 0.659747 0.339199 0.488641
O O1 0.836971 0.504625 0.798489
O O2 0.952088 0.640834 0.900270
O O3 0.927767 0.460578 0.020779
O O4 0.858310 0.697951 0.962446
O O5 0.713418 0.758586 0.720778
O O6 0.776716 0.996420 0.712521
O O7 0.775174 0.908052 0.903925
O O8 0.000000 0.393342 0.250000
O O9 0.952841 0.198974 0.081706
O O10 0.111729 0.103143 0.638664
O O11 0.168832 0.182191 0.869874
O O12 0.898687 0.052579 0.538962
O O13 0.000000 0.000000 0.500000
#
# Coordination Sequence:
#
# PCOD9304226 Si02
#       6
#     8   8   8   8   8   8
#     4  11  24  44  64  98 136 168 221 269 317 396
#     4  11  23  43  65  96 130 164 219 272 314 392
#     4  11  26  42  66  97 133 175 214 270 326 381
#     4  11  25  44  69  94 129 174 216 270 328 386
#     4  11  24  45  64  98 133 164 221 273 317 392
#     4  11  25  42  71  95 128 178 215 264 334 386
#
# _framework density 19.717441000000001
#
# number of rings (size 3 to 8) (size 9 to 14) (size 15 to 20)
#    0.000    1.000    5.000    0.500    4.667    0.000 
#    0.000    1.667    0.000    0.000    0.000    0.000 
#    0.000    0.000    0.000    0.000    0.000    0.000 
#
# Total GULP energy -134075.304426 kJ/mol
# GULP energy per Si atom -5586.471018 kJ/mol
# Density = 1.967256 g / cm^3
# Si number density = 19.717441 Si / 1000 Ang^3
#
#
#
# Elastic Constant Matrix: (Units=GPa)
#
#
# Indices 1 2 3 4 5 6 
#
# 1 89.3458 44.1231 35.8747 0.0000 21.8481 0.0000
# 2 44.1231 101.0249 18.8888 0.0000 0.3596 0.0000
# 3 35.8747 18.8888 36.9723 0.0000 3.7081 0.0000
# 4 0.0000 0.0000 0.0000 21.8257 0.0000 10.4660
# 5 21.8481 0.3596 3.7081 0.0000 32.9179 0.0000
# 6 0.0000 0.0000 0.0000 10.4660 0.0000 30.1952
#
#
#
# Elastic Compliance Matrix: (Units=1/GPa)
#
#
# Indices 1 2 3 4 5 6 
#
# 1 0.027382 -0.007994 -0.020907 0.000000 -0.015731 0.000000
# 2 -0.007994 0.013287 0.000456 0.000000 0.005109 0.000000
# 3 -0.020907 0.000456 0.046232 0.000000 0.008664 0.000000
# 4 0.000000 0.000000 0.000000 0.054951 0.000000 -0.019047
# 5 -0.015731 0.005109 0.008664 0.000000 0.039788 0.000000
# 6 0.000000 0.000000 0.000000 -0.019047 0.000000 0.039720
#
#
# Mechanical properties :
#
#
# Convention : Reuss Voigt Hill
#
# Bulk Modulus (GPa) = 33.32176 47.23512 40.27844
# Shear Modulus (GPa) = 17.34592 25.55152 21.44872
#
# Velocity S-wave (km/s) = 2.96923 3.60374 3.30177
# Velocity P-wave (km/s) = 5.35644 6.42837 5.91673
#
# Compressibility (1/GPa) = 0.03001042
#
# Stress axis : x y z
#
# Youngs Moduli (GPa) = 36.52032 75.26431 21.63013
#
# Poissons Ratio (x) = 0.60168 0.45223
# Poissons Ratio (y) = 0.29195 -0.00987
# Poissons Ratio (z) = 0.76354 -0.03435
#
# Static dielectric constant tensor:
#      x y z
#    x 1.684890 0.000000 0.022930 
#    y 0.000000 1.685560 0.000000 
#    z 0.022930 0.000000 1.675360 
# 
# From -- ./inp_files/116799.got.cif
#   From: 2010.05.17/outbox.cif.g08.bks.cpg/sg15_59_cif.got.tgz:116799.got - 2010.06.03 18:47:42.
