data_PCOD9304678
_publ_section_title
;
Structure prediction by ZEFSAII (Michael W. Deem and Ramdas Pophale) SiO2 
 PCOD9304678
Probable space group: C 2/C
;
_chemical_formula_sum "Si O2"
_cell_formula_units_Z 64
_cell_length_a 30.007502
_cell_length_b 9.142111
_cell_length_c 17.580258
_cell_angle_alpha 90.000000
_cell_angle_beta 143.293729
_cell_angle_gamma 90.000000
_cell_volume 2882.665199
_symmetry_space_group_name_H-M "C 2/C"
_symmetry_group_IT_number 15
_symmetry_cell_setting 'monoclinic'
loop_
_space_group_symop_operation_xyz
x,y,z
-x,y,1/2-z
-x,-y,-z
x,-y,1/2+z
1/2+x,1/2+y,z
1/2-x,1/2+y,1/2-z
1/2-x,1/2-y,-z
1/2+x,1/2-y,1/2+z
loop_
_atom_site_type_symbol
_atom_site_label
_atom_site_fract_x
_atom_site_fract_y
_atom_site_fract_z
Si Si1 0.342139 0.107391 0.910212
Si Si2 0.583247 0.913172 0.832068
Si Si3 0.702232 0.794274 0.696157
Si Si4 0.440952 0.695906 0.444947
Si Si5 0.703172 0.356977 0.034967
Si Si6 0.321298 0.647662 0.579976
Si Si7 0.370052 0.817220 0.201266
Si Si8 0.608674 0.597932 0.671672
O O1 0.281762 0.235069 0.831590
O O2 0.411315 0.177464 0.959447
O O3 0.306008 0.967321 0.820766
O O4 0.364745 0.053954 0.024283
O O5 0.500000 0.919697 0.750000
O O6 0.609420 0.752790 0.843034
O O7 0.600357 0.027683 0.788908
O O8 0.688106 0.713982 0.595991
O O9 0.643634 0.732977 0.675770
O O10 0.428564 0.749959 0.341085
O O11 0.524372 0.643641 0.575491
O O12 0.392433 0.547050 0.381573
O O13 0.790429 0.329259 0.135024
O O14 0.691677 0.528892 0.003166
O O15 0.649724 0.277346 0.900342
O O16 0.250000 0.750000 0.500000
O O17 0.342144 0.566007 0.686811
#
# Coordination Sequence:
#
# PCOD9304678 Si02
#       8
#     8   8   8   8   8   8   8   8
#     4  12  27  46  70 105 142 187 235 300 351 425
#     4  12  28  46  69 105 150 187 236 296 356 427
#     4  12  27  43  70 109 138 181 241 295 357 411
#     4  11  25  48  73  98 146 185 232 288 364 429
#     4  11  24  45  71 103 137 184 241 291 351 416
#     4  12  25  46  73 105 141 186 241 293 355 428
#     4  11  23  45  73  99 139 190 234 291 346 428
#     4  11  27  46  70 107 139 186 233 292 358 432
#
# _framework density 22.201675999999999
#
# number of rings (size 3 to 8) (size 9 to 14) (size 15 to 20)
#    0.000    0.500    5.000    2.250    8.750    0.500 
#    0.000    0.625    0.000    0.000    0.000    0.000 
#    0.000    0.000    0.000    0.000    0.000    0.000 
#
# Total GULP energy -179123.310783 kJ/mol
# GULP energy per Si atom -5597.603462 kJ/mol
# Density = 2.215114 g / cm^3
# Si number density = 22.201676 Si / 1000 Ang^3
#
#
#
# Elastic Constant Matrix: (Units=GPa)
#
#
# Indices 1 2 3 4 5 6 
#
# 1 28.4833 13.6180 -5.4383 0.0000 7.4039 0.0000
# 2 13.6180 107.8958 8.3639 0.0000 3.0014 0.0000
# 3 -5.4383 8.3639 74.6309 0.0000 -10.0708 0.0000
# 4 0.0000 0.0000 0.0000 32.2763 0.0000 -10.5454
# 5 7.4039 3.0014 -10.0708 0.0000 21.6648 0.0000
# 6 0.0000 0.0000 0.0000 -10.5454 0.0000 33.1155
#
#
#
# Elastic Compliance Matrix: (Units=1/GPa)
#
#
# Indices 1 2 3 4 5 6 
#
# 1 0.041093 -0.004984 0.001868 0.000000 -0.012485 0.000000
# 2 -0.004984 0.010028 -0.001541 0.000000 -0.000402 0.000000
# 3 0.001868 -0.001541 0.014564 0.000000 0.006345 0.000000
# 4 0.000000 0.000000 0.000000 0.034580 0.000000 0.011012
# 5 -0.012485 -0.000402 0.006345 0.000000 0.053430 0.000000
# 6 0.000000 0.000000 0.000000 0.011012 0.000000 0.033704
#
#
# Mechanical properties :
#
#
# Convention : Reuss Voigt Hill
#
# Bulk Modulus (GPa) = 17.73953 27.12193 22.43073
# Shear Modulus (GPa) = 23.20141 30.37574 26.78857
#
# Velocity S-wave (km/s) = 3.23620 3.70290 3.47739
# Velocity P-wave (km/s) = 4.68738 5.52491 5.12328
#
# Compressibility (1/GPa) = 0.05637128
#
# Stress axis : x y z
#
# Youngs Moduli (GPa) = 24.33496 99.72140 68.66060
#
# Poissons Ratio (x) = 0.49702 -0.12828
# Poissons Ratio (y) = 0.12129 0.10583
# Poissons Ratio (z) = -0.04547 0.15370
#
# Static dielectric constant tensor:
#      x y z
#    x 1.793790 0.000000 -0.022890 
#    y 0.000000 1.847260 0.000000 
#    z -0.022890 0.000000 1.846380 
# 
# From -- ./inp_files/224656.got.cif
#   From: 2010.05.17/outbox.cif.g08.bks.cpg/sg15_113_cif.got.tgz:224656.got - 2010.06.03 18:47:42.
