data_PCOD9304927
_publ_section_title
;
Structure prediction by ZEFSAII (Michael W. Deem and Ramdas Pophale) SiO2 
 PCOD9304927
Probable space group: C 2/C
;
_chemical_formula_sum "Si O2"
_cell_formula_units_Z 40
_cell_length_a 25.158871
_cell_length_b 13.023392
_cell_length_c 15.956882
_cell_angle_alpha 90.000000
_cell_angle_beta 162.835399
_cell_angle_gamma 90.000000
_cell_volume 1542.974298
_symmetry_space_group_name_H-M "C 2/C"
_symmetry_group_IT_number 15
_symmetry_cell_setting 'monoclinic'
loop_
_space_group_symop_operation_xyz
x,y,z
-x,y,1/2-z
-x,-y,-z
x,-y,1/2+z
1/2+x,1/2+y,z
1/2-x,1/2+y,1/2-z
1/2-x,1/2-y,-z
1/2+x,1/2-y,1/2+z
loop_
_atom_site_type_symbol
_atom_site_label
_atom_site_fract_x
_atom_site_fract_y
_atom_site_fract_z
Si Si1 0.661401 0.224581 0.778738
Si Si2 0.780407 0.437161 0.910942
Si Si3 0.751434 0.238968 0.365344
Si Si4 0.840639 0.595546 0.868102
Si Si5 0.742647 0.584900 0.994222
O O1 0.703378 0.324770 0.786574
O O2 0.448065 0.212762 0.468399
O O3 0.734166 0.128948 0.834413
O O4 0.750000 0.250000 0.000000
O O5 0.742770 0.508823 0.774314
O O6 0.693431 0.486192 0.864205
O O7 0.000000 0.434897 0.250000
O O8 0.850903 0.303102 0.443303
O O9 0.728666 0.324815 0.403676
O O10 0.826250 0.137921 0.524670
O O11 0.047344 0.564324 0.168671
#
# Coordination Sequence:
#
# PCOD9304927 Si02
#       5
#     8   8   8   8   8
#     4  11  24  36  53  89 120 151 184 234 294 339
#     4   9  19  38  60  80 114 153 192 233 280 342
#     4   9  17  33  59  80 116 148 185 239 280 329
#     4   9  19  37  58  84 111 152 195 233 278 339
#     4   8  16  34  58  87 105 146 196 238 271 332
#
# _framework density 25.923959
#
# number of rings (size 3 to 8) (size 9 to 14) (size 15 to 20)
#    0.000    2.800    0.000    1.800    2.800    3.200 
#    3.600    3.000    0.000    0.000    0.000    0.000 
#    0.000    0.000    0.000    0.000    0.000    0.000 
#
# Total GULP energy -111757.817902 kJ/mol
# GULP energy per Si atom -5587.890895 kJ/mol
# Density = 2.586495 g / cm^3
# Si number density = 25.923959 Si / 1000 Ang^3
#
#
#
# Elastic Constant Matrix: (Units=GPa)
#
#
# Indices 1 2 3 4 5 6 
#
# 1 95.1477 44.1899 46.9578 0.0000 -12.5954 0.0000
# 2 44.1899 85.8256 4.8190 0.0000 -10.5171 0.0000
# 3 46.9578 4.8190 86.4608 0.0000 -16.7944 0.0000
# 4 0.0000 0.0000 0.0000 22.7188 0.0000 -8.7845
# 5 -12.5954 -10.5171 -16.7944 0.0000 45.8304 0.0000
# 6 0.0000 0.0000 0.0000 -8.7845 0.0000 42.4033
#
#
#
# Elastic Compliance Matrix: (Units=1/GPa)
#
#
# Indices 1 2 3 4 5 6 
#
# 1 0.020239 -0.009899 -0.010552 0.000000 -0.000576 0.000000
# 2 -0.009899 0.016832 0.005017 0.000000 0.002981 0.000000
# 3 -0.010552 0.005017 0.017956 0.000000 0.004831 0.000000
# 4 0.000000 0.000000 0.000000 0.047849 0.000000 0.009913
# 5 -0.000576 0.002981 0.004831 0.000000 0.024116 0.000000
# 6 0.000000 0.000000 0.000000 0.009913 0.000000 0.025637
#
#
# Mechanical properties :
#
#
# Convention : Reuss Voigt Hill
#
# Bulk Modulus (GPa) = 41.39351 51.04084 46.21718
# Shear Modulus (GPa) = 26.10313 33.62165 29.86239
#
# Velocity S-wave (km/s) = 3.17663 3.60520 3.39768
# Velocity P-wave (km/s) = 5.42739 6.08781 5.76706
#
# Compressibility (1/GPa) = 0.02415838
#
# Stress axis : x y z
#
# Youngs Moduli (GPa) = 49.41037 59.41175 55.69287
#
# Poissons Ratio (x) = 0.58809 0.58767
# Poissons Ratio (y) = 0.48909 -0.27940
# Poissons Ratio (z) = 0.52138 -0.29806
#
# Static dielectric constant tensor:
#      x y z
#    x 2.080850 0.000000 -0.009350 
#    y 0.000000 2.060420 0.000000 
#    z -0.009350 0.000000 2.037660 
# 
# From -- ./inp_files/85485.got.cif
#   From: 2010.05.17/outbox.cif.g08.bks.cpg/sg15_43_cif.got.tgz:85485.got - 2010.06.03 18:47:42.
