data_PCOD9304946
_publ_section_title
;
Structure prediction by ZEFSAII (Michael W. Deem and Ramdas Pophale) SiO2 
 PCOD9304946
Probable space group: C 2/C
;
_chemical_formula_sum "Si O2"
_cell_formula_units_Z 40
_cell_length_a 8.886862
_cell_length_b 22.823145
_cell_length_c 17.950310
_cell_angle_alpha 90.000000
_cell_angle_beta 29.032609
_cell_angle_gamma 90.000000
_cell_volume 1766.903044
_symmetry_space_group_name_H-M "C 2/C"
_symmetry_group_IT_number 15
_symmetry_cell_setting 'monoclinic'
loop_
_space_group_symop_operation_xyz
x,y,z
-x,y,1/2-z
-x,-y,-z
x,-y,1/2+z
1/2+x,1/2+y,z
1/2-x,1/2+y,1/2-z
1/2-x,1/2-y,-z
1/2+x,1/2-y,1/2+z
loop_
_atom_site_type_symbol
_atom_site_label
_atom_site_fract_x
_atom_site_fract_y
_atom_site_fract_z
Si Si1 0.694122 0.144014 0.107960
Si Si2 0.794220 0.637690 0.765098
Si Si3 0.876575 0.561113 0.587268
Si Si4 0.140281 0.331362 0.890866
Si Si5 0.904663 0.746557 0.616652
O O1 0.500000 0.104175 0.250000
O O2 0.461746 0.174295 0.149533
O O3 0.833239 0.192644 0.103793
O O4 0.963213 0.117260 0.941245
O O5 0.934387 0.591052 0.644751
O O6 0.748748 0.701303 0.744325
O O7 0.000000 0.645193 0.750000
O O8 0.500000 0.561975 0.750000
O O9 0.000000 0.500000 0.500000
O O10 0.059473 0.604307 0.453042
O O11 0.500000 0.317600 0.750000
O O12 0.919910 0.293421 0.037009
O O13 0.250000 0.750000 0.500000
#
# Coordination Sequence:
#
# PCOD9304946 Si02
#       5
#     8   8   8   8   8
#     4  12  26  39  65 100 146 188 239 285 346 412
#     4  11  25  46  69 105 147 183 235 294 347 425
#     4  11  24  49  78 104 133 179 235 302 368 424
#     4  11  25  43  64  99 144 186 243 292 345 421
#     4  11  24  38  65 100 144 194 234 281 342 415
#
# _framework density 22.638480999999999
#
# number of rings (size 3 to 8) (size 9 to 14) (size 15 to 20)
#    0.000    0.800    4.000    2.400   11.200    0.000 
#    0.000    2.000    0.000    0.000    0.000    0.000 
#    0.000    0.000    0.000    0.000    0.000    0.000 
#
# Total GULP energy -111336.477432 kJ/mol
# GULP energy per Si atom -5566.823872 kJ/mol
# Density = 2.258695 g / cm^3
# Si number density = 22.638481 Si / 1000 Ang^3
#
#
#
# Elastic Constant Matrix: (Units=GPa)
#
#
# Indices 1 2 3 4 5 6 
#
# 1 170.1928 -6.7847 36.0509 0.0130 12.3924 0.0033
# 2 -6.7847 70.0508 7.1244 0.0347 31.5716 0.0094
# 3 36.0509 7.1244 63.1177 0.0579 15.9103 0.0002
# 4 0.0130 0.0347 0.0579 -107.6324 -0.0053 -30.6116
# 5 12.3924 31.5716 15.9103 -0.0053 51.4831 0.0010
# 6 0.0033 0.0094 0.0002 -30.6116 0.0010 -0.4471
#
#
#
# Elastic Compliance Matrix: (Units=1/GPa)
#
#
# Indices 1 2 3 4 5 6 
#
# 1 0.006846 0.001750 -0.003711 0.000001 -0.001574 -0.000006
# 2 0.001750 0.020222 -0.000054 0.000006 -0.012805 0.000005
# 3 -0.003711 -0.000054 0.019234 -0.000001 -0.005017 0.000039
# 4 0.000001 0.000006 -0.000001 0.000503 -0.000003 -0.034436
# 5 -0.001574 -0.012805 -0.005017 -0.000003 0.029206 -0.000019
# 6 -0.000006 0.000005 0.000039 -0.034436 -0.000019 0.121079
#
#
# Mechanical properties :
#
#
# Convention : Reuss Voigt Hill
#
# Bulk Modulus (GPa) = 23.65676 41.79363 32.72519
# Shear Modulus (GPa) = 23.23303 6.47875 14.85589
#
# Velocity S-wave (km/s) = 3.20701 1.69353 2.56446
# Velocity P-wave (km/s) = 4.91790 4.72498 4.82240
#
# Compressibility (1/GPa) = 0.04227122
#
# Stress axis : x y z
#
# Youngs Moduli (GPa) = 146.06720 49.45200 51.99146
#
# Poissons Ratio (x) = -0.08654 0.19294
# Poissons Ratio (y) = -0.25562 0.00282
# Poissons Ratio (z) = 0.54206 0.00268
#
# Static dielectric constant tensor:
#      x y z
#    x 1.860760 -0.000010 0.256820 
#    y -0.000010 2.025800 0.000000 
#    z 0.256820 0.000000 -0.072880 
# 
# From -- ./inp_files/137097.got.cif
#   From: 2010.05.17/outbox.cif.g08.bks.cpg/sg15_69_cif.got.tgz:137097.got - 2010.06.03 18:47:42.
