data_PCOD9304036
_publ_section_title
;
Structure prediction by ZEFSAII (Michael W. Deem and Ramdas Pophale) SiO2 
 PCOD9304036
Probable space group: C 2/C
;
_chemical_formula_sum "Si O2"
_cell_formula_units_Z 44
_cell_length_a 9.346724
_cell_length_b 16.437044
_cell_length_c 14.567924
_cell_angle_alpha 90.000000
_cell_angle_beta 118.998679
_cell_angle_gamma 90.000000
_cell_volume 1957.517315
_symmetry_space_group_name_H-M "C 2/C"
_symmetry_group_IT_number 15
_symmetry_cell_setting 'monoclinic'
loop_
_space_group_symop_operation_xyz
x,y,z
-x,y,1/2-z
-x,-y,-z
x,-y,1/2+z
1/2+x,1/2+y,z
1/2-x,1/2+y,1/2-z
1/2-x,1/2-y,-z
1/2+x,1/2-y,1/2+z
loop_
_atom_site_type_symbol
_atom_site_label
_atom_site_fract_x
_atom_site_fract_y
_atom_site_fract_z
Si Si1 0.436243 0.509831 0.333304
Si Si2 0.904677 0.447299 0.339062
Si Si3 0.000000 0.301448 0.250000
Si Si4 0.072694 0.600192 0.449698
Si Si5 0.321413 0.235423 0.420199
Si Si6 0.909298 0.126137 0.489468
O O1 0.500000 0.524062 0.250000
O O2 0.258368 0.468539 0.266773
O O3 0.427646 0.590551 0.392576
O O4 0.544564 0.446813 0.426124
O O5 0.866760 0.434455 0.434047
O O6 0.985382 0.364417 0.329556
O O7 0.026518 0.523419 0.372743
O O8 0.165157 0.250702 0.307433
O O9 0.221053 0.648759 0.449998
O O10 0.910152 0.651293 0.422559
O O11 0.250000 0.250000 0.500000
O O12 0.463225 0.302443 0.453335
#
# Coordination Sequence:
#
# PCOD9304036 Si02
#       6
#     8   8   4   8   8   8
#     4  11  23  41  74 106 138 183 241 299 359 435
#     4  11  23  43  73 101 141 186 237 292 359 430
#     4  12  24  46  74 104 144 194 246 294 368 434
#     4  11  25  45  72 104 141 188 238 296 360 432
#     4  12  27  45  69 105 147 191 235 303 367 434
#     4  11  25  44  71 105 142 187 238 294 366 434
#
# _framework density 22.477450000000001
#
# number of rings (size 3 to 8) (size 9 to 14) (size 15 to 20)
#    0.000    0.727    5.455    1.636    5.091    1.455 
#    0.000    0.000    2.000    0.000    0.000    0.000 
#    0.000    0.000    0.000    0.000    0.000    0.000 
#
# Total GULP energy -123101.666486 kJ/mol
# GULP energy per Si atom -5595.530295 kJ/mol
# Density = 2.242629 g / cm^3
# Si number density = 22.477450 Si / 1000 Ang^3
#
#
#
# Elastic Constant Matrix: (Units=GPa)
#
#
# Indices 1 2 3 4 5 6 
#
# 1 123.8662 25.0298 41.6415 0.0000 11.6784 0.0000
# 2 25.0298 56.0353 33.5856 0.0000 16.0548 0.0000
# 3 41.6415 33.5856 91.0563 0.0000 1.1529 0.0000
# 4 0.0000 0.0000 0.0000 23.1637 0.0000 -4.3399
# 5 11.6784 16.0548 1.1529 0.0000 45.9770 0.0000
# 6 0.0000 0.0000 0.0000 -4.3399 0.0000 23.4100
#
#
#
# Elastic Compliance Matrix: (Units=1/GPa)
#
#
# Indices 1 2 3 4 5 6 
#
# 1 0.009880 -0.001515 -0.003936 0.000000 -0.001882 0.000000
# 2 -0.001515 0.026320 -0.008906 0.000000 -0.008582 0.000000
# 3 -0.003936 -0.008906 0.016020 0.000000 0.003708 0.000000
# 4 0.000000 0.000000 0.000000 0.044724 0.000000 0.008291
# 5 -0.001882 -0.008582 0.003708 0.000000 0.025132 0.000000
# 6 0.000000 0.000000 0.000000 0.008291 0.000000 0.044254
#
#
# Mechanical properties :
#
#
# Convention : Reuss Voigt Hill
#
# Bulk Modulus (GPa) = 42.54287 52.38574 47.46431
# Shear Modulus (GPa) = 24.64517 29.89019 27.26768
#
# Velocity S-wave (km/s) = 3.31485 3.65058 3.48676
# Velocity P-wave (km/s) = 5.79818 6.41291 6.11328
#
# Compressibility (1/GPa) = 0.02350570
#
# Stress axis : x y z
#
# Youngs Moduli (GPa) = 101.21585 37.99420 62.42156
#
# Poissons Ratio (x) = 0.05757 0.24566
# Poissons Ratio (y) = 0.15336 0.55595
# Poissons Ratio (z) = 0.39834 0.33839
#
# Static dielectric constant tensor:
#      x y z
#    x 1.856420 0.000000 -0.024780 
#    y 0.000000 1.814530 0.000000 
#    z -0.024780 0.000000 1.861800 
# 
# From -- ./inp_files/134955.got.cif
#   From: 2010.05.17/outbox.cif.g08.bks.cpg/sg15_68_cif.got.tgz:134955.got - 2010.06.03 18:47:42.
