data_PCOD9304974
_publ_section_title
;
Structure prediction by ZEFSAII (Michael W. Deem and Ramdas Pophale) SiO2 
 PCOD9304974
Probable space group: C 2/C
;
_chemical_formula_sum "Si O2"
_cell_formula_units_Z 56
_cell_length_a 5.008444
_cell_length_b 18.911387
_cell_length_c 28.112201
_cell_angle_alpha 90.000000
_cell_angle_beta 71.530332
_cell_angle_gamma 90.000000
_cell_volume 2525.541431
_symmetry_space_group_name_H-M "C 2/C"
_symmetry_group_IT_number 15
_symmetry_cell_setting 'monoclinic'
loop_
_space_group_symop_operation_xyz
x,y,z
-x,y,1/2-z
-x,-y,-z
x,-y,1/2+z
1/2+x,1/2+y,z
1/2-x,1/2+y,1/2-z
1/2-x,1/2-y,-z
1/2+x,1/2-y,1/2+z
loop_
_atom_site_type_symbol
_atom_site_label
_atom_site_fract_x
_atom_site_fract_y
_atom_site_fract_z
Si Si1 0.077578 0.165030 0.607119
Si Si2 0.306395 0.988766 0.964418
Si Si3 0.900109 0.007202 0.621194
Si Si4 0.794843 0.685839 0.961093
Si Si5 0.681752 0.881081 0.692171
Si Si6 0.691187 0.885572 0.943786
Si Si7 0.744506 0.800984 0.851291
O O1 0.407837 0.184351 0.584068
O O2 0.027539 0.083922 0.625861
O O3 0.958974 0.172769 0.560344
O O4 0.883216 0.221981 0.646418
O O5 0.315468 0.021470 0.910846
O O6 0.293468 0.125151 0.001118
O O7 0.369612 0.905988 0.950468
O O8 0.000000 0.000000 0.000000
O O9 0.772332 0.960145 0.670790
O O10 0.130245 0.951329 0.587505
O O11 0.750000 0.750000 0.000000
O O12 0.500000 0.883007 0.750000
O O13 0.484916 0.850226 0.661542
O O14 0.950215 0.828321 0.683565
O O15 0.760033 0.819113 0.906773
O O16 0.500000 0.000000 0.000000
#
# Coordination Sequence:
#
# PCOD9304974 Si02
#       7
#     8   8   8   8   8   8   8
#     4  12  27  42  63  99 141 181 224 278 331 387
#     4  12  22  35  57  91 134 178 220 258 311 381
#     4  11  26  43  68  99 138 174 224 288 336 390
#     4  12  26  39  62  95 142 194 236 262 311 389
#     4  11  25  49  78 101 123 169 227 283 355 427
#     4  11  24  40  62  93 135 189 228 268 311 388
#     4  11  24  45  70  96 135 169 220 279 339 395
#
# _framework density 22.173461
#
# number of rings (size 3 to 8) (size 9 to 14) (size 15 to 20)
#    0.000    0.571    4.286    3.429    6.000    0.000 
#    0.000    1.429    0.000    0.000    0.000    0.000 
#    0.000    0.000    0.000    0.000    0.000    0.000 
#
# Total GULP energy -156194.021716 kJ/mol
# GULP energy per Si atom -5578.357918 kJ/mol
# Density = 2.212299 g / cm^3
# Si number density = 22.173461 Si / 1000 Ang^3
#
#
#
# Elastic Constant Matrix: (Units=GPa)
#
#
# Indices 1 2 3 4 5 6 
#
# 1 110.7705 30.5804 16.8458 0.0000 -20.4284 0.0000
# 2 30.5804 139.6034 35.1018 0.0000 -19.7616 0.0000
# 3 16.8458 35.1018 91.9628 0.0000 -24.0459 0.0000
# 4 0.0000 0.0000 0.0000 22.8969 0.0000 -6.3507
# 5 -20.4284 -19.7616 -24.0459 0.0000 34.3434 0.0000
# 6 0.0000 0.0000 0.0000 -6.3507 0.0000 33.4748
#
#
#
# Elastic Compliance Matrix: (Units=1/GPa)
#
#
# Indices 1 2 3 4 5 6 
#
# 1 0.010433 -0.001546 0.000084 0.000000 0.005376 0.000000
# 2 -0.001546 0.008411 -0.002329 0.000000 0.002290 0.000000
# 3 0.000084 -0.002329 0.013967 0.000000 0.008490 0.000000
# 4 0.000000 0.000000 0.000000 0.046100 0.000000 0.008746
# 5 0.005376 0.002290 0.008490 0.000000 0.039577 0.000000
# 6 0.000000 0.000000 0.000000 0.008746 0.000000 0.031532
#
#
# Mechanical properties :
#
#
# Convention : Reuss Voigt Hill
#
# Bulk Modulus (GPa) = 39.63269 56.37696 48.00483
# Shear Modulus (GPa) = 30.11849 35.46360 32.79104
#
# Velocity S-wave (km/s) = 3.68953 4.00355 3.84974
# Velocity P-wave (km/s) = 6.00524 6.84484 6.43874
#
# Compressibility (1/GPa) = 0.02523170
#
# Stress axis : x y z
#
# Youngs Moduli (GPa) = 95.85064 118.88582 71.59674
#
# Poissons Ratio (x) = 0.18375 -0.00604
# Poissons Ratio (y) = 0.14815 0.16672
# Poissons Ratio (z) = -0.00809 0.27684
#
# Static dielectric constant tensor:
#      x y z
#    x 1.907880 0.000000 -0.033520 
#    y 0.000000 2.154680 0.000000 
#    z -0.033520 0.000000 1.825280 
# 
# From -- ./inp_files/305747.got.cif
#   From: 2010.05.17/outbox.cif.g08.bks.cpg/sg15_153_cif.got.tgz:305747.got - 2010.06.03 18:47:42.
