data_PCOD9304719
_publ_section_title
;
Structure prediction by ZEFSAII (Michael W. Deem and Ramdas Pophale) SiO2 
 PCOD9304719
Probable space group: C 2/C
;
_chemical_formula_sum "Si O2"
_cell_formula_units_Z 48
_cell_length_a 8.633008
_cell_length_b 18.419120
_cell_length_c 14.982383
_cell_angle_alpha 90.000000
_cell_angle_beta 88.332704
_cell_angle_gamma 90.000000
_cell_volume 2381.376204
_symmetry_space_group_name_H-M "C 2/C"
_symmetry_group_IT_number 15
_symmetry_cell_setting 'monoclinic'
loop_
_space_group_symop_operation_xyz
x,y,z
-x,y,1/2-z
-x,-y,-z
x,-y,1/2+z
1/2+x,1/2+y,z
1/2-x,1/2+y,1/2-z
1/2-x,1/2-y,-z
1/2+x,1/2-y,1/2+z
loop_
_atom_site_type_symbol
_atom_site_label
_atom_site_fract_x
_atom_site_fract_y
_atom_site_fract_z
Si Si1 0.605336 0.321262 0.660643
Si Si2 0.089329 0.061466 0.440347
Si Si3 0.373229 0.927385 0.678103
Si Si4 0.827978 0.038278 0.726994
Si Si5 0.433444 0.081551 0.496330
Si Si6 0.597296 0.842610 0.157503
O O1 0.500000 0.317007 0.750000
O O2 0.522241 0.371828 0.586881
O O3 0.754401 0.363027 0.693551
O O4 0.641686 0.239380 0.630506
O O5 0.248903 0.084546 0.486120
O O6 0.145539 0.024292 0.347207
O O7 0.000000 0.000000 0.500000
O O8 0.500000 0.942550 0.750000
O O9 0.472628 0.897606 0.593535
O O10 0.265403 0.000635 0.688445
O O11 0.734982 0.102177 0.679903
O O12 0.000000 0.062724 0.750000
O O13 0.493606 0.124227 0.580718
O O14 0.500000 0.000000 0.500000
O O15 0.500000 0.839288 0.250000
#
# Coordination Sequence:
#
# PCOD9304719 Si02
#       6
#     8   8   8   8   8   8
#     4  11  23  46  66  95 142 184 217 283 356 402
#     4  12  24  41  69 100 130 178 230 278 340 414
#     4  12  21  40  70  96 132 175 232 275 335 420
#     4  12  23  41  69 100 131 179 232 279 337 410
#     4  12  23  40  68 100 132 174 227 284 340 402
#     4  11  27  44  65  99 140 176 227 288 346 409
#
# _framework density 20.156413000000001
#
# number of rings (size 3 to 8) (size 9 to 14) (size 15 to 20)
#    0.000    0.333    6.667    2.500    2.333    2.000 
#    0.000    0.000    0.000    0.000    0.000    0.000 
#    0.000    0.000    0.000    0.000    0.000    0.000 
#
# Total GULP energy -133934.770544 kJ/mol
# GULP energy per Si atom -5580.615439 kJ/mol
# Density = 2.011054 g / cm^3
# Si number density = 20.156413 Si / 1000 Ang^3
#
#
#
# Elastic Constant Matrix: (Units=GPa)
#
#
# Indices 1 2 3 4 5 6 
#
# 1 119.5793 29.9342 20.9191 0.0000 4.2549 0.0000
# 2 29.9342 122.1611 12.8293 0.0000 3.5986 0.0000
# 3 20.9191 12.8293 76.5440 0.0000 -3.9054 0.0000
# 4 0.0000 0.0000 0.0000 18.7937 0.0000 12.9769
# 5 4.2549 3.5986 -3.9054 0.0000 25.2320 0.0000
# 6 0.0000 0.0000 0.0000 12.9769 0.0000 29.4261
#
#
#
# Elastic Compliance Matrix: (Units=1/GPa)
#
#
# Indices 1 2 3 4 5 6 
#
# 1 0.009322 -0.001995 -0.002297 0.000000 -0.001643 0.000000
# 2 -0.001995 0.008810 -0.000986 0.000000 -0.001073 0.000000
# 3 -0.002297 -0.000986 0.013995 0.000000 0.002694 0.000000
# 4 0.000000 0.000000 0.000000 0.076505 0.000000 -0.033739
# 5 -0.001643 -0.001073 0.002694 0.000000 0.040479 0.000000
# 6 0.000000 0.000000 0.000000 -0.033739 0.000000 0.048862
#
#
# Mechanical properties :
#
#
# Convention : Reuss Voigt Hill
#
# Bulk Modulus (GPa) = 46.35875 49.51662 47.93769
# Shear Modulus (GPa) = 23.17812 31.66381 27.42097
#
# Velocity S-wave (km/s) = 3.39472 3.96776 3.69237
# Velocity P-wave (km/s) = 6.19797 6.75355 6.48172
#
# Compressibility (1/GPa) = 0.02157090
#
# Stress axis : x y z
#
# Youngs Moduli (GPa) = 107.26945 113.50930 71.45423
#
# Poissons Ratio (x) = 0.22641 0.16415
# Poissons Ratio (y) = 0.21397 0.07047
# Poissons Ratio (z) = 0.24643 0.11194
#
# Static dielectric constant tensor:
#      x y z
#    x 1.707800 0.000000 -0.015300 
#    y 0.000000 1.729230 0.000000 
#    z -0.015300 0.000000 1.741420 
# 
# From -- ./inp_files/134819.got.cif
#   From: 2010.05.17/outbox.cif.g08.bks.cpg/sg15_68_cif.got.tgz:134819.got - 2010.06.03 18:47:42.
