data_PCOD9304737
_publ_section_title
;
Structure prediction by ZEFSAII (Michael W. Deem and Ramdas Pophale) SiO2 
 PCOD9304737
Probable space group: C 2/C
;
_chemical_formula_sum "Si O2"
_cell_formula_units_Z 48
_cell_length_a 9.450770
_cell_length_b 25.269081
_cell_length_c 14.170259
_cell_angle_alpha 90.000000
_cell_angle_beta 138.739512
_cell_angle_gamma 90.000000
_cell_volume 2231.712864
_symmetry_space_group_name_H-M "C 2/C"
_symmetry_group_IT_number 15
_symmetry_cell_setting 'monoclinic'
loop_
_space_group_symop_operation_xyz
x,y,z
-x,y,1/2-z
-x,-y,-z
x,-y,1/2+z
1/2+x,1/2+y,z
1/2-x,1/2+y,1/2-z
1/2-x,1/2-y,-z
1/2+x,1/2-y,1/2+z
loop_
_atom_site_type_symbol
_atom_site_label
_atom_site_fract_x
_atom_site_fract_y
_atom_site_fract_z
Si Si1 0.000000 0.527506 0.250000
Si Si2 0.182734 0.625212 0.766573
Si Si3 0.572074 0.043784 0.963175
Si Si4 0.867235 0.887718 0.898109
Si Si5 0.500315 0.243752 0.645334
Si Si6 0.269552 0.219132 0.105606
Si Si7 0.500000 0.602473 0.250000
O O1 0.907585 0.489920 0.122187
O O2 0.796053 0.562556 0.183195
O O3 0.128241 0.687259 0.718858
O O4 0.000000 0.612484 0.750000
O O5 0.113354 0.588413 0.644355
O O6 0.406903 0.611024 0.930100
O O7 0.792269 0.070408 0.108358
O O8 0.500000 0.000000 0.000000
O O9 0.741557 0.843936 0.897497
O O10 0.918574 0.873710 0.812483
O O11 0.500000 0.268269 0.750000
O O12 0.603731 0.267360 0.604054
O O13 0.250000 0.250000 0.500000
O O14 0.500000 0.237510 0.250000
O O15 0.250000 0.250000 0.000000
#
# Coordination Sequence:
#
# PCOD9304737 Si02
#       7
#     4   8   8   8   8   8   4
#     4  12  26  48  70 105 157 204 248 310 390 446
#     4  11  23  46  69 104 143 186 244 309 368 437
#     4  12  26  44  71 109 147 196 246 309 383 445
#     4  12  26  47  74 107 148 198 252 313 377 458
#     4  11  25  46  77 109 141 191 252 311 375 450
#     4  12  26  47  69 105 149 193 240 306 386 454
#     4  12  26  44  76 109 145 192 262 316 372 454
#
# _framework density 21.508143
#
# number of rings (size 3 to 8) (size 9 to 14) (size 15 to 20)
#    0.000    0.333    5.000    4.000    3.500    4.000 
#    0.000    1.667    0.000    0.000    0.000    0.000 
#    0.000    0.000    0.000    0.000    0.000    0.000 
#
# Total GULP energy -133601.891147 kJ/mol
# GULP energy per Si atom -5566.745464 kJ/mol
# Density = 2.145919 g / cm^3
# Si number density = 21.508143 Si / 1000 Ang^3
#
#
#
# Elastic Constant Matrix: (Units=GPa)
#
#
# Indices 1 2 3 4 5 6 
#
# 1 93.3358 16.1019 46.7689 0.0000 -2.9356 0.0000
# 2 16.1019 63.2559 26.7608 0.0000 -14.6648 0.0000
# 3 46.7689 26.7608 209.4103 0.0000 1.3125 0.0000
# 4 0.0000 0.0000 0.0000 23.0219 0.0000 -4.3956
# 5 -2.9356 -14.6648 1.3125 0.0000 42.5536 0.0000
# 6 0.0000 0.0000 0.0000 -4.3956 0.0000 13.8647
#
#
#
# Elastic Compliance Matrix: (Units=1/GPa)
#
#
# Indices 1 2 3 4 5 6 
#
# 1 0.012321 -0.002028 -0.002494 0.000000 0.000228 0.000000
# 2 -0.002028 0.018627 -0.001967 0.000000 0.006340 0.000000
# 3 -0.002494 -0.001967 0.005590 0.000000 -0.001022 0.000000
# 4 0.000000 0.000000 0.000000 0.046236 0.000000 0.014658
# 5 0.000228 0.006340 -0.001022 0.000000 0.025732 0.000000
# 6 0.000000 0.000000 0.000000 0.014658 0.000000 0.076773
#
#
# Mechanical properties :
#
#
# Convention : Reuss Voigt Hill
#
# Bulk Modulus (GPa) = 42.44626 60.58503 51.51565
# Shear Modulus (GPa) = 24.25886 34.31272 29.28579
#
# Velocity S-wave (km/s) = 3.36205 3.99850 3.69401
# Velocity P-wave (km/s) = 5.90331 7.03896 6.49600
#
# Compressibility (1/GPa) = 0.02355920
#
# Stress axis : x y z
#
# Youngs Moduli (GPa) = 81.16396 53.68506 178.88841
#
# Poissons Ratio (x) = 0.10889 0.44613
# Poissons Ratio (y) = 0.16463 0.35189
# Poissons Ratio (z) = 0.20241 0.10560
#
# Static dielectric constant tensor:
#      x y z
#    x 1.741150 0.000000 -0.025140 
#    y 0.000000 1.971520 0.000000 
#    z -0.025140 0.000000 1.758590 
# 
# From -- ./inp_files/139067.got.cif
#   From: 2010.05.17/outbox.cif.g08.bks.cpg/sg15_70_cif.got.tgz:139067.got - 2010.06.03 18:47:42.
