data_PCOD9304904
_publ_section_title
;
Structure prediction by ZEFSAII (Michael W. Deem and Ramdas Pophale) SiO2 
 PCOD9304904
Probable space group: C 2/C
;
_chemical_formula_sum "Si O2"
_cell_formula_units_Z 28
_cell_length_a 11.497790
_cell_length_b 12.800986
_cell_length_c 8.029485
_cell_angle_alpha 90.000000
_cell_angle_beta 75.739116
_cell_angle_gamma 90.000000
_cell_volume 1145.385765
_symmetry_space_group_name_H-M "C 2/C"
_symmetry_group_IT_number 15
_symmetry_cell_setting 'monoclinic'
loop_
_space_group_symop_operation_xyz
x,y,z
-x,y,1/2-z
-x,-y,-z
x,-y,1/2+z
1/2+x,1/2+y,z
1/2-x,1/2+y,1/2-z
1/2-x,1/2-y,-z
1/2+x,1/2-y,1/2+z
loop_
_atom_site_type_symbol
_atom_site_label
_atom_site_fract_x
_atom_site_fract_y
_atom_site_fract_z
Si Si1 0.532280 0.665231 0.930374
Si Si2 0.132719 0.540963 0.923698
Si Si3 0.000000 0.309209 0.250000
Si Si4 0.196501 0.039630 0.362334
O O1 0.500000 0.697710 0.750000
O O2 0.634846 0.576167 0.885788
O O3 0.551979 0.750261 0.068442
O O4 0.413936 0.610822 0.049770
O O5 0.109208 0.621644 0.783950
O O6 0.237502 0.459768 0.838392
O O7 0.192038 0.582937 0.068123
O O8 0.000000 0.500000 0.000000
#
# Coordination Sequence:
#
# PCOD9304904 Si02
#       4
#     8   8   4   8
#     4  11  25  48  76 110 139 188 247 309 354 422
#     4  12  24  46  70 104 146 195 234 295 367 433
#     4  12  28  44  70 116 146 184 246 300 360 436
#     4  11  23  48  76 101 141 194 245 286 370 439
#
# _framework density 24.445910999999999
#
# number of rings (size 3 to 8) (size 9 to 14) (size 15 to 20)
#    0.000    0.571    5.714    1.714    4.000    4.571 
#    5.143    0.000    0.000    0.000    0.000    0.000 
#    0.000    0.000    0.000    0.000    0.000    0.000 
#
# Total GULP energy -77995.095078 kJ/mol
# GULP energy per Si atom -5571.078220 kJ/mol
# Density = 2.439027 g / cm^3
# Si number density = 24.445911 Si / 1000 Ang^3
#
#
#
# Elastic Constant Matrix: (Units=GPa)
#
#
# Indices 1 2 3 4 5 6 
#
# 1 126.6842 36.7014 13.4517 0.0000 -12.9482 0.0000
# 2 36.7014 48.4037 50.4510 0.0000 9.0840 0.0000
# 3 13.4517 50.4510 121.8228 0.0000 -2.2221 0.0000
# 4 0.0000 0.0000 0.0000 -44.9306 0.0000 9.1846
# 5 -12.9482 9.0840 -2.2221 0.0000 76.5495 0.0000
# 6 0.0000 0.0000 0.0000 9.1846 0.0000 14.7898
#
#
#
# Elastic Compliance Matrix: (Units=1/GPa)
#
#
# Indices 1 2 3 4 5 6 
#
# 1 0.012187 -0.015253 0.005044 0.000000 0.004018 0.000000
# 2 -0.015253 0.057253 -0.022209 0.000000 -0.010019 0.000000
# 3 0.005044 -0.022209 0.016922 0.000000 0.003980 0.000000
# 4 0.000000 0.000000 0.000000 -0.019749 0.000000 0.012265
# 5 0.004018 -0.010019 0.003980 0.000000 0.015048 0.000000
# 6 0.000000 0.000000 0.000000 0.012265 0.000000 0.059998
#
#
# Mechanical properties :
#
#
# Convention : Reuss Voigt Hill
#
# Bulk Modulus (GPa) = 46.45198 55.34655 50.89927
# Shear Modulus (GPa) = 23.40063 22.36884 22.88473
#
# Velocity S-wave (km/s) = 3.09729 3.02823 3.06296
# Velocity P-wave (km/s) = 5.64217 5.90902 5.77714
#
# Compressibility (1/GPa) = 0.02152761
#
# Stress axis : x y z
#
# Youngs Moduli (GPa) = 82.05145 17.46624 59.09523
#
# Poissons Ratio (x) = 0.26640 -0.29808
# Poissons Ratio (y) = 1.25149 1.31245
# Poissons Ratio (z) = -0.41388 0.38791
#
# Static dielectric constant tensor:
#      x y z
#    x 1.895640 0.000000 0.200590 
#    y 0.000000 2.090810 0.000000 
#    z 0.200590 0.000000 -0.535080 
# 
# From -- ./inp_files/27561.got.cif
#   From: 2010.05.17/outbox.cif.g08.bks.cpg/sg15_14_cif.got.tgz:27561.got - 2010.06.03 18:47:42.
