data_PCOD9304597
_publ_section_title
;
Structure prediction by ZEFSAII (Michael W. Deem and Ramdas Pophale) SiO2 
 PCOD9304597
Probable space group: C 2/C
;
_chemical_formula_sum "Si O2"
_cell_formula_units_Z 44
_cell_length_a 23.799837
_cell_length_b 5.602506
_cell_length_c 14.419829
_cell_angle_alpha 90.000000
_cell_angle_beta 97.171926
_cell_angle_gamma 90.000000
_cell_volume 1907.678293
_symmetry_space_group_name_H-M "C 2/C"
_symmetry_group_IT_number 15
_symmetry_cell_setting 'monoclinic'
loop_
_space_group_symop_operation_xyz
x,y,z
-x,y,1/2-z
-x,-y,-z
x,-y,1/2+z
1/2+x,1/2+y,z
1/2-x,1/2+y,1/2-z
1/2-x,1/2-y,-z
1/2+x,1/2-y,1/2+z
loop_
_atom_site_type_symbol
_atom_site_label
_atom_site_fract_x
_atom_site_fract_y
_atom_site_fract_z
Si Si1 0.329210 0.017015 0.344511
Si Si2 0.500000 0.618210 0.750000
Si Si3 0.481043 0.250073 0.042570
Si Si4 0.294842 0.328785 0.165767
Si Si5 0.868883 0.540762 0.045637
Si Si6 0.110259 0.793405 0.790155
O O1 0.271532 0.872262 0.351608
O O2 0.352406 0.094018 0.448681
O O3 0.373983 0.855497 0.298058
O O4 0.311488 0.221230 0.269210
O O5 0.498345 0.756207 0.846577
O O6 0.557113 0.462363 0.764612
O O7 0.412675 0.247985 0.028132
O O8 0.500000 0.500000 0.000000
O O9 0.500000 0.000000 0.000000
O O10 0.316040 0.149606 0.090488
O O11 0.332955 0.565160 0.168165
O O12 0.901463 0.380955 0.126884
#
# Coordination Sequence:
#
# PCOD9304597 Si02
#       6
#     8   4   8   8   8   8
#     4  11  24  44  73 102 146 187 247 315 369 459
#     4  12  26  52  76 102 162 192 244 326 366 452
#     4  12  28  47  76 112 146 203 257 304 383 455
#     4  11  23  45  68 105 139 193 243 299 392 444
#     4  11  26  44  71 106 143 188 254 306 380 451
#     4  11  25  47  72 106 145 197 244 304 387 446
#
# _framework density 23.064684
#
# number of rings (size 3 to 8) (size 9 to 14) (size 15 to 20)
#    0.000    0.727    3.636    2.727    2.545    5.091 
#    0.000    0.000    0.000    0.000    0.000    0.000 
#    0.000    0.000    0.000    0.000    0.000    0.000 
#
# Total GULP energy -123176.900384 kJ/mol
# GULP energy per Si atom -5598.950017 kJ/mol
# Density = 2.301219 g / cm^3
# Si number density = 23.064684 Si / 1000 Ang^3
#
#
#
# Elastic Constant Matrix: (Units=GPa)
#
#
# Indices 1 2 3 4 5 6 
#
# 1 105.5525 30.5361 40.0304 0.0000 -11.8058 0.0000
# 2 30.5361 84.9784 47.6258 0.0000 -10.7631 0.0000
# 3 40.0304 47.6258 167.4438 0.0000 -12.8845 0.0000
# 4 0.0000 0.0000 0.0000 -0.4549 0.0000 -3.2482
# 5 -11.8058 -10.7631 -12.8845 0.0000 17.9338 0.0000
# 6 0.0000 0.0000 0.0000 -3.2482 0.0000 27.1766
#
#
#
# Elastic Compliance Matrix: (Units=1/GPa)
#
#
# Indices 1 2 3 4 5 6 
#
# 1 0.011366 -0.002573 -0.001618 0.000000 0.004776 0.000000
# 2 -0.002573 0.015190 -0.003318 0.000000 0.005039 0.000000
# 3 -0.001618 -0.003318 0.007481 0.000000 0.002318 0.000000
# 4 0.000000 0.000000 0.000000 -1.186036 0.000000 -0.141759
# 5 0.004776 0.005039 0.002318 0.000000 0.063595 0.000000
# 6 0.000000 0.000000 0.000000 -0.141759 0.000000 0.019853
#
#
# Mechanical properties :
#
#
# Convention : Reuss Voigt Hill
#
# Bulk Modulus (GPa) = 52.57543 66.03991 59.30767
# Shear Modulus (GPa) = -4.77466 24.91660 10.07097
#
# Velocity S-wave (km/s) = -1.44035 3.29035 2.09186
# Velocity P-wave (km/s) = 4.48086 6.56733 5.62174
#
# Compressibility (1/GPa) = 0.01902029
#
# Stress axis : x y z
#
# Youngs Moduli (GPa) = 87.98177 65.83405 133.67189
#
# Poissons Ratio (x) = 0.16936 0.21629
# Poissons Ratio (y) = 0.22634 0.44347
# Poissons Ratio (z) = 0.14236 0.21841
#
# Static dielectric constant tensor:
#      x y z
#    x 1.783740 0.000000 0.007160 
#    y 0.000000 1.904790 0.000000 
#    z 0.007160 0.000000 1.813940 
# 
# From -- ./inp_files/170810.got.cif
#   From: 2010.05.17/outbox.cif.g08.bks.cpg/sg15_86_cif.got.tgz:170810.got - 2010.06.03 18:47:42.
