data_PCOD9304086
_publ_section_title
;
Structure prediction by ZEFSAII (Michael W. Deem and Ramdas Pophale) SiO2 
 PCOD9304086
Probable space group: C 2/C
;
_chemical_formula_sum "Si O2"
_cell_formula_units_Z 44
_cell_length_a 7.155714
_cell_length_b 16.982648
_cell_length_c 20.128445
_cell_angle_alpha 90.000000
_cell_angle_beta 52.933019
_cell_angle_gamma 90.000000
_cell_volume 1951.794877
_symmetry_space_group_name_H-M "C 2/C"
_symmetry_group_IT_number 15
_symmetry_cell_setting 'monoclinic'
loop_
_space_group_symop_operation_xyz
x,y,z
-x,y,1/2-z
-x,-y,-z
x,-y,1/2+z
1/2+x,1/2+y,z
1/2-x,1/2+y,1/2-z
1/2-x,1/2-y,-z
1/2+x,1/2-y,1/2+z
loop_
_atom_site_type_symbol
_atom_site_label
_atom_site_fract_x
_atom_site_fract_y
_atom_site_fract_z
Si Si1 0.300247 0.631935 0.547791
Si Si2 0.761599 0.658160 0.218778
Si Si3 0.500000 0.594357 0.750000
Si Si4 0.950211 0.201238 0.888642
Si Si5 0.946356 0.227500 0.106498
Si Si6 0.525153 0.008584 0.822978
O O1 0.503864 0.648415 0.557373
O O2 0.401067 0.654596 0.454053
O O3 0.100756 0.699627 0.599881
O O4 0.182683 0.548728 0.590364
O O5 0.500000 0.636893 0.250000
O O6 0.721614 0.695449 0.300256
O O7 0.936551 0.584651 0.181553
O O8 0.873506 0.725224 0.149194
O O9 0.510166 0.648055 0.812512
O O10 0.265334 0.543908 0.799908
O O11 0.697040 0.236021 0.924824
O O12 0.500000 0.029997 0.750000
#
# Coordination Sequence:
#
# PCOD9304086 Si02
#       6
#     8   8   4   8   8   8
#     4  11  24  40  69  98 130 167 220 266 326 378
#     4  12  24  42  67  94 131 171 221 260 325 382
#     4  12  22  36  68  96 126 156 232 262 300 376
#     4  12  21  41  68  96 125 174 216 264 311 391
#     4  11  23  42  66  99 133 167 212 276 322 379
#     4  12  24  42  65  96 128 173 214 267 318 386
#
# _framework density 22.543351999999999
#
# number of rings (size 3 to 8) (size 9 to 14) (size 15 to 20)
#    0.000    0.364    8.182    1.636    0.000    0.000 
#    0.000    4.545    0.000    0.000    0.000    0.000 
#    0.000    0.000    0.000    0.000    0.000    0.000 
#
# Total GULP energy -123031.654086 kJ/mol
# GULP energy per Si atom -5592.347913 kJ/mol
# Density = 2.249204 g / cm^3
# Si number density = 22.543352 Si / 1000 Ang^3
#
#
#
# Elastic Constant Matrix: (Units=GPa)
#
#
# Indices 1 2 3 4 5 6 
#
# 1 96.4527 14.6322 -11.4022 0.0002 0.0811 0.0000
# 2 14.6322 58.1117 9.5647 0.0000 1.8413 0.0000
# 3 -11.4022 9.5647 26.8400 0.0001 -1.8864 0.0000
# 4 0.0002 0.0000 0.0001 7.9061 -0.0001 -14.4121
# 5 0.0811 1.8413 -1.8864 -0.0001 17.6975 0.0000
# 6 0.0000 0.0000 0.0000 -14.4121 0.0000 24.8512
#
#
#
# Elastic Compliance Matrix: (Units=1/GPa)
#
#
# Indices 1 2 3 4 5 6 
#
# 1 0.011754 -0.004066 0.006517 0.000006 0.001064 0.000003
# 2 -0.004066 0.019808 -0.008997 -0.000004 -0.003001 -0.000002
# 3 0.006517 -0.008997 0.043623 0.000011 0.005556 0.000006
# 4 0.000006 -0.000004 0.000011 -2.212428 -0.000015 -1.283068
# 5 0.001064 -0.003001 0.005556 -0.000015 0.057405 -0.000009
# 6 0.000003 -0.000002 0.000006 -1.283068 -0.000009 -0.703859
#
#
# Mechanical properties :
#
#
# Convention : Reuss Voigt Hill
#
# Bulk Modulus (GPa) = 16.10478 22.99931 19.55204
# Shear Modulus (GPa) = -1.81824 21.33161 9.75668
#
# Velocity S-wave (km/s) = -0.89906 3.07945 2.08263
# Velocity P-wave (km/s) = 2.46611 4.78210 3.80461
#
# Compressibility (1/GPa) = 0.06209338
#
# Stress axis : x y z
#
# Youngs Moduli (GPa) = 85.07646 50.48473 22.92364
#
# Poissons Ratio (x) = 0.20527 -0.14940
# Poissons Ratio (y) = 0.34592 0.20624
# Poissons Ratio (z) = -0.55445 0.45421
#
# Static dielectric constant tensor:
#      x y z
#    x 1.867940 0.000000 -0.008450 
#    y 0.000000 1.826440 0.000000 
#    z -0.008450 0.000000 1.818850 
# 
# From -- ./inp_files/264137.got.cif
#   From: 2010.05.17/outbox.cif.g08.bks.cpg/sg15_133_cif.got.tgz:264137.got - 2010.06.03 18:47:42.
