data_PCOD9304028
_publ_section_title
;
Structure prediction by ZEFSAII (Michael W. Deem and Ramdas Pophale) SiO2 
 PCOD9304028
Probable space group: C 2/C
;
_chemical_formula_sum "Si O2"
_cell_formula_units_Z 48
_cell_length_a 27.198138
_cell_length_b 11.146346
_cell_length_c 14.266963
_cell_angle_alpha 90.000000
_cell_angle_beta 149.923322
_cell_angle_gamma 90.000000
_cell_volume 2167.596110
_symmetry_space_group_name_H-M "C 2/C"
_symmetry_group_IT_number 15
_symmetry_cell_setting 'monoclinic'
loop_
_space_group_symop_operation_xyz
x,y,z
-x,y,1/2-z
-x,-y,-z
x,-y,1/2+z
1/2+x,1/2+y,z
1/2-x,1/2+y,1/2-z
1/2-x,1/2-y,-z
1/2+x,1/2-y,1/2+z
loop_
_atom_site_type_symbol
_atom_site_label
_atom_site_fract_x
_atom_site_fract_y
_atom_site_fract_z
Si Si1 0.558653 0.573300 0.751363
Si Si2 0.276220 0.700941 0.389859
Si Si3 0.059946 0.713271 0.111718
Si Si4 0.095867 0.811100 0.763993
Si Si5 0.903964 0.567038 0.153138
Si Si6 0.768531 0.660743 0.398218
O O1 0.500000 0.597356 0.750000
O O2 0.532846 0.670371 0.630064
O O3 0.543782 0.437610 0.695364
O O4 0.672645 0.595801 0.965643
O O5 0.169338 0.728920 0.253486
O O6 0.347489 0.814623 0.521535
O O7 0.266410 0.664984 0.265922
O O8 0.062412 0.601599 0.186440
O O9 0.982436 0.713100 0.900046
O O10 0.176859 0.825940 0.816397
O O11 0.154848 0.767259 0.952299
O O12 0.000000 0.543247 0.250000
O O13 0.827306 0.459748 0.019091
#
# Coordination Sequence:
#
# PCOD9304028 Si02
#       6
#     8   8   8   8   8   8
#     4  11  23  41  71  98 132 173 224 272 329 388
#     4  11  24  42  69  96 133 173 224 267 331 388
#     4  11  23  43  70  95 134 173 223 270 328 391
#     4  11  25  43  66  97 135 169 224 271 329 388
#     4  11  24  44  68  94 134 174 220 265 333 391
#     4  11  26  43  65  96 135 175 217 276 327 390
#
# _framework density 22.144347
#
# number of rings (size 3 to 8) (size 9 to 14) (size 15 to 20)
#    0.000    1.000    0.000    8.500    7.000    0.667 
#    0.000    0.000    0.000    0.000    0.000    0.000 
#    0.000    0.000    0.000    0.000    0.000    0.000 
#
# Total GULP energy -134385.422143 kJ/mol
# GULP energy per Si atom -5599.392589 kJ/mol
# Density = 2.209395 g / cm^3
# Si number density = 22.144347 Si / 1000 Ang^3
#
#
#
# Elastic Constant Matrix: (Units=GPa)
#
#
# Indices 1 2 3 4 5 6 
#
# 1 45.2662 -7.9366 11.8952 0.0000 5.1797 0.0000
# 2 -7.9366 60.2400 -1.0812 0.0000 1.2117 0.0000
# 3 11.8952 -1.0812 99.8383 0.0000 6.4252 0.0000
# 4 0.0000 0.0000 0.0000 25.3611 0.0000 -1.0690
# 5 5.1797 1.2117 6.4252 0.0000 42.6138 0.0000
# 6 0.0000 0.0000 0.0000 -1.0690 0.0000 14.5475
#
#
#
# Elastic Compliance Matrix: (Units=1/GPa)
#
#
# Indices 1 2 3 4 5 6 
#
# 1 0.023619 0.003116 -0.002615 0.000000 -0.002565 0.000000
# 2 0.003116 0.017025 -0.000133 0.000000 -0.000843 0.000000
# 3 -0.002615 -0.000133 0.010407 0.000000 -0.001247 0.000000
# 4 0.000000 0.000000 0.000000 0.039553 0.000000 0.002907
# 5 -0.002565 -0.000843 -0.001247 0.000000 0.023990 0.000000
# 6 0.000000 0.000000 0.000000 0.002907 0.000000 0.068954
#
#
# Mechanical properties :
#
#
# Convention : Reuss Voigt Hill
#
# Bulk Modulus (GPa) = 19.30957 23.45549 21.38253
# Shear Modulus (GPa) = 24.99079 30.00229 27.49654
#
# Velocity S-wave (km/s) = 3.36302 3.68482 3.52759
# Velocity P-wave (km/s) = 4.88044 5.35901 5.12531
#
# Compressibility (1/GPa) = 0.05178780
#
# Stress axis : x y z
#
# Youngs Moduli (GPa) = 42.33929 58.73571 96.09265
#
# Poissons Ratio (x) = -0.18304 0.25130
# Poissons Ratio (y) = -0.13195 0.01275
# Poissons Ratio (z) = 0.11073 0.00779
#
# Static dielectric constant tensor:
#      x y z
#    x 1.779590 0.000000 -0.009340 
#    y 0.000000 1.804780 0.000000 
#    z -0.009340 0.000000 1.807700 
# 
# From -- ./inp_files/152481.got.cif
#   From: 2010.05.17/outbox.cif.g08.bks.cpg/sg15_77_cif.got.tgz:152481.got - 2010.06.03 18:47:42.
