data_PCOD9304832
_publ_section_title
;
Structure prediction by ZEFSAII (Michael W. Deem and Ramdas Pophale) SiO2 
 PCOD9304832
Probable space group: C 2/C
;
_chemical_formula_sum "Si O2"
_cell_formula_units_Z 36
_cell_length_a 12.651540
_cell_length_b 10.546304
_cell_length_c 23.970899
_cell_angle_alpha 90.000000
_cell_angle_beta 154.275463
_cell_angle_gamma 90.000000
_cell_volume 1388.234045
_symmetry_space_group_name_H-M "C 2/C"
_symmetry_group_IT_number 15
_symmetry_cell_setting 'monoclinic'
loop_
_space_group_symop_operation_xyz
x,y,z
-x,y,1/2-z
-x,-y,-z
x,-y,1/2+z
1/2+x,1/2+y,z
1/2-x,1/2+y,1/2-z
1/2-x,1/2-y,-z
1/2+x,1/2-y,1/2+z
loop_
_atom_site_type_symbol
_atom_site_label
_atom_site_fract_x
_atom_site_fract_y
_atom_site_fract_z
Si Si1 0.883285 0.419610 0.113370
Si Si2 0.097923 0.845092 0.736315
Si Si3 0.852459 0.638543 0.009408
Si Si4 0.000000 0.784362 0.250000
Si Si5 0.837570 0.069363 0.355464
O O1 0.934247 0.271154 0.136047
O O2 0.125746 0.466439 0.260512
O O3 0.881259 0.506928 0.056568
O O4 0.612383 0.442544 0.008656
O O5 0.115341 0.929549 0.689101
O O6 0.000000 0.883790 0.750000
O O7 0.381877 0.815228 0.882611
O O8 0.664253 0.634895 0.869601
O O9 0.750000 0.750000 0.000000
O O10 0.193593 0.695037 0.308475
#
# Coordination Sequence:
#
# PCOD9304832 Si02
#       5
#     8   8   8   4   8
#     4  11  24  44  75 102 143 187 241 289 357 430
#     4  11  24  46  72 105 145 185 244 298 356 423
#     4  11  23  47  71 107 150 186 237 300 362 428
#     4  12  24  46  74 102 152 186 234 304 360 418
#     4  11  26  44  71 106 144 187 238 298 356 429
#
# _framework density 25.932226
#
# number of rings (size 3 to 8) (size 9 to 14) (size 15 to 20)
#    0.000    0.889    4.444    3.333    1.556    0.889 
#    2.000    3.333    0.000    0.000    0.000    0.000 
#    0.000    0.000    0.000    0.000    0.000    0.000 
#
# Total GULP energy -100635.679510 kJ/mol
# GULP energy per Si atom -5590.871084 kJ/mol
# Density = 2.587320 g / cm^3
# Si number density = 25.932226 Si / 1000 Ang^3
#
#
#
# Elastic Constant Matrix: (Units=GPa)
#
#
# Indices 1 2 3 4 5 6 
#
# 1 180.5814 27.9899 68.3508 0.0006 27.0948 0.0003
# 2 27.9899 55.3045 32.8314 0.0005 4.3699 0.0000
# 3 68.3508 32.8314 273.9943 0.0035 26.1528 0.0002
# 4 0.0006 0.0005 0.0035 15.9543 0.0003 1.7102
# 5 27.0948 4.3699 26.1528 0.0003 68.2334 0.0003
# 6 0.0003 0.0000 0.0002 1.7102 0.0003 16.3266
#
#
#
# Elastic Compliance Matrix: (Units=1/GPa)
#
#
# Indices 1 2 3 4 5 6 
#
# 1 0.006678 -0.002525 -0.001168 0.000000 -0.002042 0.000000
# 2 -0.002525 0.020430 -0.001857 0.000000 0.000406 0.000000
# 3 -0.001168 -0.001857 0.004264 -0.000001 -0.001051 0.000000
# 4 0.000000 0.000000 -0.000001 0.063391 0.000000 -0.006640
# 5 -0.002042 0.000406 -0.001051 0.000000 0.015843 0.000000
# 6 0.000000 0.000000 0.000000 -0.006640 0.000000 0.061945
#
#
# Mechanical properties :
#
#
# Convention : Reuss Voigt Hill
#
# Bulk Modulus (GPa) = 49.33021 85.35827 67.34424
# Shear Modulus (GPa) = 26.25939 45.48340 35.87140
#
# Velocity S-wave (km/s) = 3.18562 4.19254 3.72328
# Velocity P-wave (km/s) = 5.70919 7.51159 6.67154
#
# Compressibility (1/GPa) = 0.02027155
#
# Stress axis : x y z
#
# Youngs Moduli (GPa) = 149.75405 48.94823 234.51919
#
# Poissons Ratio (x) = 0.12358 0.27401
# Poissons Ratio (y) = 0.37807 0.43549
# Poissons Ratio (z) = 0.17497 0.09089
#
# Static dielectric constant tensor:
#      x y z
#    x 2.024130 0.000000 -0.070860 
#    y 0.000000 2.075220 0.000000 
#    z -0.070860 0.000000 2.092100 
# 
# From -- ./inp_files/269399.got.cif
#   From: 2010.05.17/outbox.cif.g08.bks.cpg/sg15_135_cif.got.tgz:269399.got - 2010.06.03 18:47:42.
