data_PCOD9304399
_publ_section_title
;
Structure prediction by ZEFSAII (Michael W. Deem and Ramdas Pophale) SiO2 
 PCOD9304399
Probable space group: C 2/C
;
_chemical_formula_sum "Si O2"
_cell_formula_units_Z 60
_cell_length_a 11.922928
_cell_length_b 24.074947
_cell_length_c 20.837553
_cell_angle_alpha 90.000000
_cell_angle_beta 150.705570
_cell_angle_gamma 90.000000
_cell_volume 2926.632071
_symmetry_space_group_name_H-M "C 2/C"
_symmetry_group_IT_number 15
_symmetry_cell_setting 'monoclinic'
loop_
_space_group_symop_operation_xyz
x,y,z
-x,y,1/2-z
-x,-y,-z
x,-y,1/2+z
1/2+x,1/2+y,z
1/2-x,1/2+y,1/2-z
1/2-x,1/2-y,-z
1/2+x,1/2-y,1/2+z
loop_
_atom_site_type_symbol
_atom_site_label
_atom_site_fract_x
_atom_site_fract_y
_atom_site_fract_z
Si Si1 0.313683 0.857608 0.702433
Si Si2 0.443845 0.932543 0.289419
Si Si3 0.437918 0.554160 0.510266
Si Si4 0.904182 0.618591 0.389904
Si Si5 0.000000 0.940967 0.750000
Si Si6 0.750090 0.789852 0.598593
Si Si7 0.792618 0.828124 0.473947
Si Si8 0.834384 0.512933 0.002805
O O1 0.500000 0.826470 0.750000
O O2 0.230256 0.908809 0.616696
O O3 0.435816 0.869887 0.830683
O O4 0.065745 0.835813 0.602196
O O5 0.500000 0.963113 0.250000
O O6 0.629002 0.881973 0.382755
O O7 0.177637 0.915854 0.149468
O O8 0.482515 0.973028 0.369289
O O9 0.500000 0.500000 0.500000
O O10 0.319618 0.535215 0.516109
O O11 0.649264 0.594791 0.274999
O O12 0.920648 0.673409 0.442450
O O13 0.064428 0.565806 0.483959
O O14 0.822166 0.976850 0.621317
O O15 0.733411 0.809544 0.516827
O O16 0.742543 0.723161 0.592231
O O17 0.000000 0.802344 0.750000
#
# Coordination Sequence:
#
# PCOD9304399 Si02
#       8
#     8   8   8   8   4   8   8   8
#     4  12  23  41  66  96 133 175 222 279 355 423
#     4  12  22  38  65 100 139 174 233 285 336 409
#     4  12  23  37  60  97 140 182 223 278 345 415
#     4  12  23  42  67  97 134 183 230 279 352 421
#     4  12  24  42  62  92 136 184 234 278 340 420
#     4  11  23  43  74  95 130 172 237 296 338 404
#     4  11  24  44  70 104 127 174 233 297 347 390
#     4  12  25  39  63  97 140 189 222 278 350 430
#
# _framework density 20.501380000000001
#
# number of rings (size 3 to 8) (size 9 to 14) (size 15 to 20)
#    0.000    0.267    6.000    4.800    0.000    1.067 
#    0.000    0.667    7.333    0.000    0.000    0.000 
#    0.000    0.000    0.000    0.000    0.000    0.000 
#
# Total GULP energy -167371.889237 kJ/mol
# GULP energy per Si atom -5579.062975 kJ/mol
# Density = 2.045472 g / cm^3
# Si number density = 20.501380 Si / 1000 Ang^3
#
#
#
# Elastic Constant Matrix: (Units=GPa)
#
#
# Indices 1 2 3 4 5 6 
#
# 1 107.0523 15.5747 6.7039 -0.0175 -2.8769 0.0054
# 2 15.5747 72.2278 16.5221 0.0192 -3.2121 -0.0015
# 3 6.7039 16.5221 62.0066 0.0373 -5.0356 0.0139
# 4 -0.0175 0.0192 0.0373 -17.3199 0.0167 -12.3556
# 5 -2.8769 -3.2121 -5.0356 0.0167 38.6728 -0.0068
# 6 0.0054 -0.0015 0.0139 -12.3556 -0.0068 8.1930
#
#
#
# Elastic Compliance Matrix: (Units=1/GPa)
#
#
# Indices 1 2 3 4 5 6 
#
# 1 0.009669 -0.001952 -0.000485 -0.000004 0.000494 -0.000012
# 2 -0.001952 0.015158 -0.003777 0.000002 0.000622 0.000013
# 3 -0.000485 -0.003777 0.017341 0.000027 0.001908 0.000012
# 4 -0.000004 0.000002 0.000027 -0.027814 0.000008 -0.041945
# 5 0.000494 0.000622 0.001908 0.000008 0.026195 0.000030
# 6 -0.000012 0.000013 0.000012 -0.041945 0.000030 0.058799
#
#
# Mechanical properties :
#
#
# Convention : Reuss Voigt Hill
#
# Bulk Modulus (GPa) = 33.62596 35.43200 34.52898
# Shear Modulus (GPa) = 41.08833 19.40825 30.24829
#
# Velocity S-wave (km/s) = 4.48166 3.08016 3.84530
# Velocity P-wave (km/s) = 6.57402 5.47449 6.04929
#
# Compressibility (1/GPa) = 0.02973893
#
# Stress axis : x y z
#
# Youngs Moduli (GPa) = 103.42467 65.97293 57.66607
#
# Poissons Ratio (x) = 0.12878 0.02797
# Poissons Ratio (y) = 0.20188 0.21782
# Poissons Ratio (z) = 0.05017 0.24920
#
# Static dielectric constant tensor:
#      x y z
#    x 1.760190 0.000000 0.019140 
#    y 0.000000 1.787460 -0.000010 
#    z 0.019140 -0.000010 1.767500 
# 
# From -- ./inp_files/240877.got.cif
#   From: 2010.05.17/outbox.cif.g08.bks.cpg/sg15_121_cif.got.tgz:240877.got - 2010.06.03 18:47:42.
