data_PCOD9304430
_publ_section_title
;
Structure prediction by ZEFSAII (Michael W. Deem and Ramdas Pophale) SiO2 
 PCOD9304430
Probable space group: C 2/C
;
_chemical_formula_sum "Si O2"
_cell_formula_units_Z 44
_cell_length_a 12.765594
_cell_length_b 7.546385
_cell_length_c 21.945905
_cell_angle_alpha 90.000000
_cell_angle_beta 43.391156
_cell_angle_gamma 90.000000
_cell_volume 1452.361191
_symmetry_space_group_name_H-M "C 2/C"
_symmetry_group_IT_number 15
_symmetry_cell_setting 'monoclinic'
loop_
_space_group_symop_operation_xyz
x,y,z
-x,y,1/2-z
-x,-y,-z
x,-y,1/2+z
1/2+x,1/2+y,z
1/2-x,1/2+y,1/2-z
1/2-x,1/2-y,-z
1/2+x,1/2-y,1/2+z
loop_
_atom_site_type_symbol
_atom_site_label
_atom_site_fract_x
_atom_site_fract_y
_atom_site_fract_z
Si Si1 0.500000 0.714897 0.250000
Si Si2 0.243436 0.655116 0.166228
Si Si3 0.285460 0.201241 0.071064
Si Si4 0.053756 0.973447 0.035075
Si Si5 0.292323 0.041413 0.185420
Si Si6 0.663535 0.680177 0.583318
O O1 0.626048 0.804016 0.153795
O O2 0.622860 0.605934 0.237175
O O3 0.387018 0.536862 0.073928
O O4 0.182463 0.565118 0.253315
O O5 0.130967 0.719688 0.161309
O O6 0.318277 0.837947 0.157936
O O7 0.375670 0.328456 0.988630
O O8 0.377516 0.160528 0.096023
O O9 0.249707 0.005048 0.064193
O O10 0.191852 0.827339 0.990044
O O11 0.000248 0.897424 0.124985
#
# Coordination Sequence:
#
# PCOD9304430 Si02
#       6
#     4   8   8   8   8   8
#     4   8  18  44  70  94 132 180 234 296 356 418
#     4  11  24  43  71 105 141 189 246 295 365 440
#     4   9  22  44  71 100 140 187 236 296 367 431
#     4  12  25  43  73 104 148 188 243 305 363 442
#     4   9  22  41  71  99 140 182 242 293 367 427
#     4  11  23  44  67 105 143 183 236 296 372 428
#
# _framework density 30.295496
#
# number of rings (size 3 to 8) (size 9 to 14) (size 15 to 20)
#    1.091    0.727    1.818    1.636    2.545    2.909 
#    0.000    0.000    0.000    6.545    0.000    0.000 
#    0.000    0.000    0.000    0.000    0.000    0.000 
#
# Total GULP energy -122527.864293 kJ/mol
# GULP energy per Si atom -5569.448377 kJ/mol
# Density = 3.022654 g / cm^3
# Si number density = 30.295496 Si / 1000 Ang^3
#
#
#
# Elastic Constant Matrix: (Units=GPa)
#
#
# Indices 1 2 3 4 5 6 
#
# 1 229.5408 83.6081 79.3412 0.0000 39.5846 0.0000
# 2 83.6081 171.3733 43.6012 0.0000 15.7058 0.0001
# 3 79.3412 43.6012 133.9748 0.0000 20.2134 0.0000
# 4 0.0000 0.0000 0.0000 58.8321 0.0000 31.2487
# 5 39.5846 15.7058 20.2134 0.0000 64.5643 0.0000
# 6 0.0000 0.0001 0.0000 31.2487 0.0000 59.3074
#
#
#
# Elastic Compliance Matrix: (Units=1/GPa)
#
#
# Indices 1 2 3 4 5 6 
#
# 1 0.006594 -0.002272 -0.002770 0.000000 -0.002623 0.000000
# 2 -0.002272 0.007200 -0.000990 0.000000 -0.000049 0.000000
# 3 -0.002770 -0.000990 0.009587 0.000000 -0.001062 0.000000
# 4 0.000000 0.000000 0.000000 0.023603 0.000000 -0.012436
# 5 -0.002623 -0.000049 -0.001062 0.000000 0.017441 0.000000
# 6 0.000000 0.000000 0.000000 -0.012436 0.000000 0.023414
#
#
# Mechanical properties :
#
#
# Convention : Reuss Voigt Hill
#
# Bulk Modulus (GPa) = 88.36616 105.33221 96.84919
# Shear Modulus (GPa) = 48.22763 58.42999 53.32881
#
# Velocity S-wave (km/s) = 3.99420 4.39643 4.20013
# Velocity P-wave (km/s) = 7.10654 7.78557 7.45379
#
# Compressibility (1/GPa) = 0.01131655
#
# Stress axis : x y z
#
# Youngs Moduli (GPa) = 151.65987 138.88867 104.30779
#
# Poissons Ratio (x) = 0.31553 0.28891
# Poissons Ratio (y) = 0.34454 0.10332
# Poissons Ratio (z) = 0.42007 0.13757
#
# Static dielectric constant tensor:
#      x y z
#    x 2.427850 0.000000 0.153110 
#    y 0.000000 2.216760 0.000000 
#    z 0.153110 0.000000 2.549680 
# 
# From -- ./inp_files/294726.got.cif
#   From: 2010.05.17/outbox.cif.g08.bks.cpg/sg15_148_cif.got.tgz:294726.got - 2010.06.03 18:47:42.
