data_PCOD9304187
_publ_section_title
;
Structure prediction by ZEFSAII (Michael W. Deem and Ramdas Pophale) SiO2 
 PCOD9304187
Probable space group: C 2/C
;
_chemical_formula_sum "Si O2"
_cell_formula_units_Z 40
_cell_length_a 18.066934
_cell_length_b 14.793194
_cell_length_c 13.273876
_cell_angle_alpha 90.000000
_cell_angle_beta 154.294231
_cell_angle_gamma 90.000000
_cell_volume 1538.804560
_symmetry_space_group_name_H-M "C 2/C"
_symmetry_group_IT_number 15
_symmetry_cell_setting 'monoclinic'
loop_
_space_group_symop_operation_xyz
x,y,z
-x,y,1/2-z
-x,-y,-z
x,-y,1/2+z
1/2+x,1/2+y,z
1/2-x,1/2+y,1/2-z
1/2-x,1/2-y,-z
1/2+x,1/2-y,1/2+z
loop_
_atom_site_type_symbol
_atom_site_label
_atom_site_fract_x
_atom_site_fract_y
_atom_site_fract_z
Si Si1 0.145427 0.475770 0.801567
Si Si2 0.361128 0.395231 0.667326
Si Si3 0.767367 0.477259 0.315823
Si Si4 0.542714 0.308287 0.045658
Si Si5 0.158724 0.815550 0.503415
O O1 0.180405 0.475793 0.724394
O O2 0.279289 0.396695 0.994016
O O3 0.951569 0.453309 0.586920
O O4 0.189181 0.575239 0.898076
O O5 0.500000 0.412805 0.750000
O O6 0.340400 0.465436 0.735774
O O7 0.415104 0.302938 0.791948
O O8 0.671278 0.386448 0.170099
O O9 0.668272 0.232751 0.245478
O O10 0.431049 0.339790 0.002336
O O11 0.000000 0.767606 0.250000
#
# Coordination Sequence:
#
# PCOD9304187 Si02
#       5
#     8   8   8   8   8
#     4  11  23  43  75 107 139 184 247 295 356 426
#     4  12  23  43  73 105 141 192 240 297 355 424
#     4  11  23  42  72 106 143 185 244 297 350 434
#     4  12  25  45  69 107 150 186 241 299 362 431
#     4  12  26  45  73 105 146 195 234 303 367 427
#
# _framework density 25.994205000000001
#
# number of rings (size 3 to 8) (size 9 to 14) (size 15 to 20)
#    0.000    0.400    4.000    6.000    0.000    1.600 
#    0.000    1.000    0.000    0.000    0.000    0.000 
#    0.000    0.000    0.000    0.000    0.000    0.000 
#
# Total GULP energy -111504.447223 kJ/mol
# GULP energy per Si atom -5575.222361 kJ/mol
# Density = 2.593504 g / cm^3
# Si number density = 25.994205 Si / 1000 Ang^3
#
#
#
# Elastic Constant Matrix: (Units=GPa)
#
#
# Indices 1 2 3 4 5 6 
#
# 1 114.9805 24.5285 41.8685 0.0000 -17.5252 0.0000
# 2 24.5285 64.5263 36.6539 0.0000 3.3570 0.0000
# 3 41.8685 36.6539 138.8590 0.0000 3.4446 0.0000
# 4 0.0000 0.0000 0.0000 39.8557 0.0000 -8.9963
# 5 -17.5252 3.3570 3.4446 0.0000 38.0511 0.0000
# 6 0.0000 0.0000 0.0000 -8.9963 0.0000 20.9779
#
#
#
# Elastic Compliance Matrix: (Units=1/GPa)
#
#
# Indices 1 2 3 4 5 6 
#
# 1 0.011193 -0.003003 -0.002723 0.000000 0.005667 0.000000
# 2 -0.003003 0.019089 -0.004067 0.000000 -0.002699 0.000000
# 3 -0.002723 -0.004067 0.009139 0.000000 -0.001723 0.000000
# 4 0.000000 0.000000 0.000000 0.027780 0.000000 0.011913
# 5 0.005667 -0.002699 -0.001723 0.000000 0.029284 0.000000
# 6 0.000000 0.000000 0.000000 0.011913 0.000000 0.052778
#
#
# Mechanical properties :
#
#
# Convention : Reuss Voigt Hill
#
# Bulk Modulus (GPa) = 50.41201 58.27417 54.34309
# Shear Modulus (GPa) = 28.49660 34.13129 31.31395
#
# Velocity S-wave (km/s) = 3.31459 3.62751 3.47457
# Velocity P-wave (km/s) = 5.83818 6.32550 6.08672
#
# Compressibility (1/GPa) = 0.01983654
#
# Stress axis : x y z
#
# Youngs Moduli (GPa) = 89.34260 52.38494 109.42513
#
# Poissons Ratio (x) = 0.15731 0.29794
# Poissons Ratio (y) = 0.26829 0.44498
# Poissons Ratio (z) = 0.24326 0.21303
#
# Static dielectric constant tensor:
#      x y z
#    x 2.014220 0.000000 -0.128520 
#    y 0.000000 2.115760 0.000000 
#    z -0.128520 0.000000 2.235940 
# 
# From -- ./inp_files/169236.got.cif
#   From: 2010.05.17/outbox.cif.g08.bks.cpg/sg15_85_cif.got.tgz:169236.got - 2010.06.03 18:47:42.
