data_PCOD9304286
_publ_section_title
;
Structure prediction by ZEFSAII (Michael W. Deem and Ramdas Pophale) SiO2 
 PCOD9304286
Probable space group: C 2/C
;
_chemical_formula_sum "Si O2"
_cell_formula_units_Z 44
_cell_length_a 13.462935
_cell_length_b 11.709638
_cell_length_c 25.071175
_cell_angle_alpha 90.000000
_cell_angle_beta 146.397163
_cell_angle_gamma 90.000000
_cell_volume 2187.372732
_symmetry_space_group_name_H-M "C 2/C"
_symmetry_group_IT_number 15
_symmetry_cell_setting 'monoclinic'
loop_
_space_group_symop_operation_xyz
x,y,z
-x,y,1/2-z
-x,-y,-z
x,-y,1/2+z
1/2+x,1/2+y,z
1/2-x,1/2+y,1/2-z
1/2-x,1/2-y,-z
1/2+x,1/2-y,1/2+z
loop_
_atom_site_type_symbol
_atom_site_label
_atom_site_fract_x
_atom_site_fract_y
_atom_site_fract_z
Si Si1 0.500000 0.333182 0.250000
Si Si2 0.608826 0.979215 0.200435
Si Si3 0.752010 0.626539 0.029976
Si Si4 0.769520 0.855525 0.852844
Si Si5 0.452058 0.732929 0.107859
Si Si6 0.504591 0.502367 0.839039
O O1 0.367386 0.247870 0.220126
O O2 0.411393 0.416971 0.168210
O O3 0.536899 0.850429 0.166542
O O4 0.789112 0.983954 0.245181
O O5 0.444671 0.062562 0.110011
O O6 0.681472 0.030119 0.289055
O O7 0.713075 0.638360 0.075786
O O8 0.750000 0.750000 0.000000
O O9 0.599369 0.548186 0.934955
O O10 0.940516 0.818913 0.894876
O O11 0.458409 0.630235 0.152882
O O12 0.250000 0.750000 0.000000
#
# Coordination Sequence:
#
# PCOD9304286 Si02
#       6
#     4   8   8   8   8   8
#     4  12  20  46  66 102 128 180 234 270 332 414
#     4  11  23  43  68  98 137 174 222 280 337 398
#     4  12  23  44  72 100 129 183 237 271 330 417
#     4  11  23  43  75  94 134 185 228 275 332 415
#     4  11  24  46  64 101 142 171 220 291 340 389
#     4  11  25  42  69  97 140 177 221 284 340 400
#
# _framework density 20.115456999999999
#
# number of rings (size 3 to 8) (size 9 to 14) (size 15 to 20)
#    0.000    0.727    7.273    0.000    2.545    2.909 
#    9.818    2.727    0.000    0.000    0.000    0.000 
#    0.000    0.000    0.000    0.000    0.000    0.000 
#
# Total GULP energy -122768.663646 kJ/mol
# GULP energy per Si atom -5580.393802 kJ/mol
# Density = 2.006967 g / cm^3
# Si number density = 20.115457 Si / 1000 Ang^3
#
#
#
# Elastic Constant Matrix: (Units=GPa)
#
#
# Indices 1 2 3 4 5 6 
#
# 1 55.4418 33.6308 33.8796 0.0000 1.3476 0.0000
# 2 33.6308 187.3725 67.0794 0.0000 -6.7815 0.0000
# 3 33.8796 67.0794 98.9882 0.0000 10.5630 0.0000
# 4 0.0000 0.0000 0.0000 47.4175 0.0000 -0.5003
# 5 1.3476 -6.7815 10.5630 0.0000 43.9768 0.0000
# 6 0.0000 0.0000 0.0000 -0.5003 0.0000 25.5458
#
#
#
# Elastic Compliance Matrix: (Units=1/GPa)
#
#
# Indices 1 2 3 4 5 6 
#
# 1 0.023252 -0.001681 -0.006892 0.000000 0.000684 0.000000
# 2 -0.001681 0.007401 -0.004687 0.000000 0.002319 0.000000
# 3 -0.006892 -0.004687 0.016104 0.000000 -0.004380 0.000000
# 4 0.000000 0.000000 0.000000 0.021094 0.000000 0.000413
# 5 0.000684 0.002319 -0.004380 0.000000 0.024128 0.000000
# 6 0.000000 0.000000 0.000000 0.000413 0.000000 0.039154
#
#
# Mechanical properties :
#
#
# Convention : Reuss Voigt Hill
#
# Bulk Modulus (GPa) = 49.41518 67.88688 58.65103
# Shear Modulus (GPa) = 30.41417 37.20219 33.80818
#
# Velocity S-wave (km/s) = 3.89264 4.30517 4.10409
# Velocity P-wave (km/s) = 6.69497 7.65079 7.18878
#
# Compressibility (1/GPa) = 0.02023670
#
# Stress axis : x y z
#
# Youngs Moduli (GPa) = 43.00777 135.12433 62.09490
#
# Poissons Ratio (x) = 0.22720 0.42793
# Poissons Ratio (y) = 0.07231 0.29103
# Poissons Ratio (z) = 0.29639 0.63332
#
# Static dielectric constant tensor:
#      x y z
#    x 1.765060 0.000000 -0.017210 
#    y 0.000000 1.725670 0.000000 
#    z -0.017210 0.000000 1.748910 
# 
# From -- ./inp_files/151735.got.cif
#   From: 2010.05.17/outbox.cif.g08.bks.cpg/sg15_76_cif.got.tgz:151735.got - 2010.06.03 18:47:42.
