data_PCOD9304623
_publ_section_title
;
Structure prediction by ZEFSAII (Michael W. Deem and Ramdas Pophale) SiO2 
 PCOD9304623
Probable space group: C 2/C
;
_chemical_formula_sum "Si O2"
_cell_formula_units_Z 48
_cell_length_a 17.060454
_cell_length_b 8.447431
_cell_length_c 15.279585
_cell_angle_alpha 90.000000
_cell_angle_beta 62.459058
_cell_angle_gamma 90.000000
_cell_volume 1952.513426
_symmetry_space_group_name_H-M "C 2/C"
_symmetry_group_IT_number 15
_symmetry_cell_setting 'monoclinic'
loop_
_space_group_symop_operation_xyz
x,y,z
-x,y,1/2-z
-x,-y,-z
x,-y,1/2+z
1/2+x,1/2+y,z
1/2-x,1/2+y,1/2-z
1/2-x,1/2-y,-z
1/2+x,1/2-y,1/2+z
loop_
_atom_site_type_symbol
_atom_site_label
_atom_site_fract_x
_atom_site_fract_y
_atom_site_fract_z
Si Si1 0.423482 0.905004 0.088780
Si Si2 0.006926 0.071469 0.092417
Si Si3 0.263762 0.715917 0.134542
Si Si4 0.669827 0.697922 0.101951
Si Si5 0.897859 0.470860 0.789861
Si Si6 0.667847 0.516478 0.766387
O O1 0.468660 0.749708 0.107508
O O2 0.344756 0.833548 0.068289
O O3 0.386698 0.005228 0.190156
O O4 0.500000 0.000000 0.000000
O O5 0.103537 0.086336 0.081662
O O6 0.937805 0.972778 0.185844
O O7 0.000000 0.000000 0.000000
O O8 0.177122 0.646551 0.131397
O O9 0.309466 0.564259 0.153733
O O10 0.216161 0.819652 0.233525
O O11 0.619718 0.856357 0.159512
O O12 0.697507 0.597161 0.172144
O O13 0.750000 0.750000 0.000000
O O14 0.000000 0.423837 0.750000
#
# Coordination Sequence:
#
# PCOD9304623 Si02
#       6
#     8   8   8   8   8   8
#     4  11  25  45  74 102 146 194 245 301 379 446
#     4  11  26  43  73 104 145 186 247 301 373 440
#     4  11  24  42  77 100 145 188 248 295 379 436
#     4  12  26  44  74 103 147 198 247 302 374 441
#     4  12  24  49  71 105 152 202 241 311 380 440
#     4  11  23  45  70 104 143 188 241 303 364 442
#
# _framework density 24.583698999999999
#
# number of rings (size 3 to 8) (size 9 to 14) (size 15 to 20)
#    0.000    0.667    6.667    0.500   11.667    1.333 
#    0.000    1.667    0.000    0.000    0.000    0.000 
#    0.000    0.000    0.000    0.000    0.000    0.000 
#
# Total GULP energy -134147.263358 kJ/mol
# GULP energy per Si atom -5589.469307 kJ/mol
# Density = 2.452775 g / cm^3
# Si number density = 24.583699 Si / 1000 Ang^3
#
#
#
# Elastic Constant Matrix: (Units=GPa)
#
#
# Indices 1 2 3 4 5 6 
#
# 1 143.4457 31.1873 36.7001 0.0000 -14.7181 0.0000
# 2 31.1873 55.1809 10.4852 0.0000 -16.3233 0.0000
# 3 36.7001 10.4852 109.3739 0.0000 -10.0447 0.0000
# 4 0.0000 0.0000 0.0000 30.8922 0.0000 -15.3217
# 5 -14.7181 -16.3233 -10.0447 0.0000 26.2864 0.0000
# 6 0.0000 0.0000 0.0000 -15.3217 0.0000 48.6887
#
#
#
# Elastic Compliance Matrix: (Units=1/GPa)
#
#
# Indices 1 2 3 4 5 6 
#
# 1 0.008590 -0.003981 -0.002369 0.000000 0.001432 0.000000
# 2 -0.003981 0.024130 0.000201 0.000000 0.012832 0.000000
# 3 -0.002369 0.000201 0.010165 0.000000 0.002683 0.000000
# 4 0.000000 0.000000 0.000000 0.038357 0.000000 0.012071
# 5 0.001432 0.012832 0.002683 0.000000 0.047838 0.000000
# 6 0.000000 0.000000 0.000000 0.012071 0.000000 0.024337
#
#
# Mechanical properties :
#
#
# Convention : Reuss Voigt Hill
#
# Bulk Modulus (GPa) = 32.69406 51.63839 42.16623
# Shear Modulus (GPa) = 28.42348 36.48198 32.45273
#
# Velocity S-wave (km/s) = 3.40397 3.85644 3.63725
# Velocity P-wave (km/s) = 5.36445 6.39377 5.90159
#
# Compressibility (1/GPa) = 0.03058660
#
# Stress axis : x y z
#
# Youngs Moduli (GPa) = 116.41583 41.44233 98.37671
#
# Poissons Ratio (x) = 0.16498 0.23307
# Poissons Ratio (y) = 0.46346 -0.01978
# Poissons Ratio (z) = 0.27581 -0.00833
#
# Static dielectric constant tensor:
#      x y z
#    x 2.470410 0.000000 -0.232800 
#    y 0.000000 1.911980 0.000000 
#    z -0.232800 0.000000 2.066040 
# 
# From -- ./inp_files/208956.got.cif
#   From: 2010.05.17/outbox.cif.g08.bks.cpg/sg15_105_cif.got.tgz:208956.got - 2010.06.03 18:47:42.
