data_PCOD9304574
_publ_section_title
;
Structure prediction by ZEFSAII (Michael W. Deem and Ramdas Pophale) SiO2 
 PCOD9304574
Probable space group: C 2/C
;
_chemical_formula_sum "Si O2"
_cell_formula_units_Z 48
_cell_length_a 27.228820
_cell_length_b 8.442452
_cell_length_c 9.947997
_cell_angle_alpha 90.000000
_cell_angle_beta 91.895695
_cell_angle_gamma 90.000000
_cell_volume 2285.574143
_symmetry_space_group_name_H-M "C 2/C"
_symmetry_group_IT_number 15
_symmetry_cell_setting 'monoclinic'
loop_
_space_group_symop_operation_xyz
x,y,z
-x,y,1/2-z
-x,-y,-z
x,-y,1/2+z
1/2+x,1/2+y,z
1/2-x,1/2+y,1/2-z
1/2-x,1/2-y,-z
1/2+x,1/2-y,1/2+z
loop_
_atom_site_type_symbol
_atom_site_label
_atom_site_fract_x
_atom_site_fract_y
_atom_site_fract_z
Si Si1 0.094086 0.806749 0.780478
Si Si2 0.381087 0.331224 0.237910
Si Si3 0.212027 0.659914 0.171749
Si Si4 0.046232 0.696165 0.035635
Si Si5 0.306354 0.132191 0.637282
Si Si6 0.565441 0.828341 0.994678
O O1 0.140293 0.693721 0.815862
O O2 0.075832 0.772038 0.629031
O O3 0.111177 0.986987 0.799673
O O4 0.053224 0.763924 0.886703
O O5 0.326739 0.293423 0.285344
O O6 0.418971 0.289278 0.360109
O O7 0.395192 0.218196 0.114368
O O8 0.266082 0.732489 0.164360
O O9 0.208192 0.519833 0.277897
O O10 0.195923 0.601654 0.022355
O O11 0.063563 0.513128 0.034190
O O12 0.989043 0.705909 0.067413
#
# Coordination Sequence:
#
# PCOD9304574 Si02
#       6
#     8   8   8   8   8   8
#     4  12  25  42  66  99 136 176 220 276 334 393
#     4  12  25  42  66  99 136 176 220 276 334 393
#     4  11  25  46  71 100 136 175 221 272 330 399
#     4  11  23  45  64  97 132 175 233 273 331 397
#     4  11  25  46  71 100 136 175 221 272 330 399
#     4  11  25  41  70  93 132 181 223 279 331 393
#
# _framework density 21.001289
#
# number of rings (size 3 to 8) (size 9 to 14) (size 15 to 20)
#    0.000    0.667    1.667    6.000    2.333    7.333 
#    0.000    0.000    0.000    0.000    0.000    0.000 
#    0.000    0.000    0.000    0.000    0.000    0.000 
#
# Total GULP energy -134415.538997 kJ/mol
# GULP energy per Si atom -5600.647458 kJ/mol
# Density = 2.095349 g / cm^3
# Si number density = 21.001289 Si / 1000 Ang^3
#
#
#
# Elastic Constant Matrix: (Units=GPa)
#
#
# Indices 1 2 3 4 5 6 
#
# 1 52.9935 -10.2229 -4.6051 0.0000 -8.5358 0.0000
# 2 -10.2229 62.6903 4.9966 0.0000 -2.6054 0.0000
# 3 -4.6051 4.9966 52.5454 0.0000 -19.7228 0.0000
# 4 0.0000 0.0000 0.0000 24.8586 0.0000 -0.8284
# 5 -8.5358 -2.6054 -19.7228 0.0000 31.0608 0.0000
# 6 0.0000 0.0000 0.0000 -0.8284 0.0000 16.0355
#
#
#
# Elastic Compliance Matrix: (Units=1/GPa)
#
#
# Indices 1 2 3 4 5 6 
#
# 1 0.021507 0.003493 0.005096 0.000000 0.009439 0.000000
# 2 0.003493 0.016646 -0.000515 0.000000 0.002029 0.000000
# 3 0.005096 -0.000515 0.026306 0.000000 0.018061 0.000000
# 4 0.000000 0.000000 0.000000 0.040297 0.000000 0.002082
# 5 0.009439 0.002029 0.018061 0.000000 0.046427 0.000000
# 6 0.000000 0.000000 0.000000 0.002082 0.000000 0.062469
#
#
# Mechanical properties :
#
#
# Convention : Reuss Voigt Hill
#
# Bulk Modulus (GPa) = 12.40580 16.50736 14.45658
# Shear Modulus (GPa) = 22.28420 26.26168 24.27294
#
# Velocity S-wave (km/s) = 3.26097 3.54005 3.40337
# Velocity P-wave (km/s) = 4.48314 4.95848 4.72679
#
# Compressibility (1/GPa) = 0.08060743
#
# Stress axis : x y z
#
# Youngs Moduli (GPa) = 46.49578 60.07275 38.01444
#
# Poissons Ratio (x) = -0.20985 -0.19371
# Poissons Ratio (y) = -0.16243 0.01958
# Poissons Ratio (z) = -0.23693 0.03094
#
# Static dielectric constant tensor:
#      x y z
#    x 1.718380 0.000000 -0.009490 
#    y 0.000000 1.720440 0.000000 
#    z -0.009490 0.000000 1.716930 
# 
# From -- ./inp_files/68588.got.cif
#   From: 2010.05.17/outbox.cif.g08.bks.cpg/sg15_35_cif.got.tgz:68588.got - 2010.06.03 18:47:42.
