data_PCOD9304857
_publ_section_title
;
Structure prediction by ZEFSAII (Michael W. Deem and Ramdas Pophale) SiO2 
 PCOD9304857
Probable space group: C 2/C
;
_chemical_formula_sum "Si O2"
_cell_formula_units_Z 48
_cell_length_a 9.096311
_cell_length_b 17.304760
_cell_length_c 15.842722
_cell_angle_alpha 90.000000
_cell_angle_beta 117.518017
_cell_angle_gamma 90.000000
_cell_volume 2211.660629
_symmetry_space_group_name_H-M "C 2/C"
_symmetry_group_IT_number 15
_symmetry_cell_setting 'monoclinic'
loop_
_space_group_symop_operation_xyz
x,y,z
-x,y,1/2-z
-x,-y,-z
x,-y,1/2+z
1/2+x,1/2+y,z
1/2-x,1/2+y,1/2-z
1/2-x,1/2-y,-z
1/2+x,1/2-y,1/2+z
loop_
_atom_site_type_symbol
_atom_site_label
_atom_site_fract_x
_atom_site_fract_y
_atom_site_fract_z
Si Si1 0.374399 0.685267 0.497708
Si Si2 0.814293 0.528407 0.056370
Si Si3 0.653869 0.931588 0.597635
Si Si4 0.000000 0.635419 0.750000
Si Si5 0.853365 0.077653 0.852002
Si Si6 0.000000 0.035622 0.250000
Si Si7 0.578555 0.207100 0.949019
O O1 0.250000 0.750000 0.500000
O O2 0.272202 0.609102 0.451531
O O3 0.528885 0.651318 0.594975
O O4 0.446406 0.727957 0.436170
O O5 0.706343 0.465855 0.078448
O O6 0.010594 0.541632 0.124653
O O7 0.814940 0.501758 0.959381
O O8 0.584187 0.861515 0.520787
O O9 0.833817 0.916108 0.685025
O O10 0.172594 0.596235 0.766261
O O11 0.055072 0.677951 0.848938
O O12 0.949198 0.019899 0.814911
O O13 0.750000 0.250000 0.000000
#
# Coordination Sequence:
#
# PCOD9304857 Si02
#       7
#     8   8   8   4   8   4   8
#     4  12  25  46  74 106 150 188 238 306 372 427
#     4  11  23  47  75 101 148 195 245 302 356 437
#     4  11  24  46  74 108 146 191 250 301 357 433
#     4  12  26  47  78 101 150 194 246 294 378 437
#     4  12  26  46  73 108 140 199 246 302 359 438
#     4  12  28  41  78 109 146 190 260 298 354 433
#     4  12  26  48  73 109 149 194 239 301 375 438
#
# _framework density 21.703149
#
# number of rings (size 3 to 8) (size 9 to 14) (size 15 to 20)
#    0.000    0.333    6.667    1.500    7.000    0.667 
#    0.000    0.000    3.667    0.000    0.000    0.000 
#    0.000    0.000    0.000    0.000    0.000    0.000 
#
# Total GULP energy -133955.577791 kJ/mol
# GULP energy per Si atom -5581.482408 kJ/mol
# Density = 2.165375 g / cm^3
# Si number density = 21.703149 Si / 1000 Ang^3
#
#
#
# Elastic Constant Matrix: (Units=GPa)
#
#
# Indices 1 2 3 4 5 6 
#
# 1 145.9862 33.1069 32.8274 0.0000 21.4425 0.0000
# 2 33.1069 104.6900 26.9483 0.0000 12.4036 0.0000
# 3 32.8274 26.9483 80.7325 0.0000 28.6135 0.0000
# 4 0.0000 0.0000 0.0000 29.2232 0.0000 14.4029
# 5 21.4425 12.4036 28.6135 0.0000 40.6260 0.0000
# 6 0.0000 0.0000 0.0000 14.4029 0.0000 54.0410
#
#
#
# Elastic Compliance Matrix: (Units=1/GPa)
#
#
# Indices 1 2 3 4 5 6 
#
# 1 0.008015 -0.001783 -0.001809 0.000000 -0.002412 0.000000
# 2 -0.001783 0.010876 -0.002748 0.000000 -0.000444 0.000000
# 3 -0.001809 -0.002748 0.017863 0.000000 -0.010787 0.000000
# 4 0.000000 0.000000 0.000000 0.039394 0.000000 -0.010499
# 5 -0.002412 -0.000444 -0.010787 0.000000 0.033621 0.000000
# 6 0.000000 0.000000 0.000000 -0.010499 0.000000 0.021303
#
#
# Mechanical properties :
#
#
# Convention : Reuss Voigt Hill
#
# Bulk Modulus (GPa) = 41.53975 57.46376 49.50176
# Shear Modulus (GPa) = 32.94315 40.67979 36.81147
#
# Velocity S-wave (km/s) = 3.90025 4.33410 4.12288
# Velocity P-wave (km/s) = 6.28204 7.18196 6.74702
#
# Compressibility (1/GPa) = 0.02407333
#
# Stress axis : x y z
#
# Youngs Moduli (GPa) = 124.75884 91.94649 55.98281
#
# Poissons Ratio (x) = 0.16397 0.10128
# Poissons Ratio (y) = 0.22249 0.15383
# Poissons Ratio (z) = 0.22571 0.25266
#
# Static dielectric constant tensor:
#      x y z
#    x 0.036290 0.000000 0.060070 
#    y 0.000000 1.804550 0.000000 
#    z 0.060070 0.000000 1.906450 
# 
# From -- ./inp_files/190674.got.cif
#   From: 2010.05.17/outbox.cif.g08.bks.cpg/sg15_96_cif.got.tgz:190674.got - 2010.06.03 18:47:42.
