data_PCOD9304969
_publ_section_title
;
Structure prediction by ZEFSAII (Michael W. Deem and Ramdas Pophale) SiO2 
 PCOD9304969
Probable space group: C 2/C
;
_chemical_formula_sum "Si O2"
_cell_formula_units_Z 64
_cell_length_a 17.594584
_cell_length_b 9.265526
_cell_length_c 30.683185
_cell_angle_alpha 90.000000
_cell_angle_beta 39.176650
_cell_angle_gamma 90.000000
_cell_volume 3159.873037
_symmetry_space_group_name_H-M "C 2/C"
_symmetry_group_IT_number 15
_symmetry_cell_setting 'monoclinic'
loop_
_space_group_symop_operation_xyz
x,y,z
-x,y,1/2-z
-x,-y,-z
x,-y,1/2+z
1/2+x,1/2+y,z
1/2-x,1/2+y,1/2-z
1/2-x,1/2-y,-z
1/2+x,1/2-y,1/2+z
loop_
_atom_site_type_symbol
_atom_site_label
_atom_site_fract_x
_atom_site_fract_y
_atom_site_fract_z
Si Si1 0.394177 0.609549 0.824961
Si Si2 0.487489 0.001535 0.557651
Si Si3 0.984156 0.868351 0.668126
Si Si4 0.234254 0.873284 0.676514
Si Si5 0.478312 0.341260 0.570341
Si Si6 0.111507 0.361838 0.169420
Si Si7 0.193956 0.290131 0.479205
Si Si8 0.836675 0.027338 0.059098
O O1 0.500000 0.685441 0.750000
O O2 0.461002 0.498203 0.827757
O O3 0.316587 0.514866 0.825558
O O4 0.298876 0.689792 0.897030
O O5 0.374234 0.902414 0.621271
O O6 0.610292 0.930495 0.520221
O O7 0.500000 0.000000 0.500000
O O8 0.466727 0.168480 0.578582
O O9 0.845582 0.852264 0.744776
O O10 0.995268 0.892984 0.612130
O O11 0.057056 0.729069 0.653452
O O12 0.196495 0.743519 0.660961
O O13 0.590080 0.387926 0.490101
O O14 0.369381 0.418854 0.593018
O O15 0.196993 0.490109 0.116877
O O16 0.000000 0.402126 0.250000
O O17 0.250000 0.250000 0.500000
O O18 0.121149 0.155726 0.491612
#
# Coordination Sequence:
#
# PCOD9304969 Si02
#       8
#     8   8   8   8   8   8   8   8
#     4   9  18  38  66  87 123 169 213 257 318 392
#     4  12  22  42  68  86 125 172 216 253 318 394
#     4   9  20  39  63  93 121 161 217 257 310 386
#     4   9  18  39  65  91 115 164 215 253 308 386
#     4  11  24  40  61  93 126 167 208 262 325 379
#     4   9  20  39  65  89 122 164 204 256 320 383
#     4  12  26  41  61  99 127 163 220 273 317 375
#     4  11  24  40  59  90 130 160 205 264 325 369
#
# _framework density 20.253976999999999
#
# number of rings (size 3 to 8) (size 9 to 14) (size 15 to 20)
#    0.000    1.750    2.500    3.000    5.250    1.000 
#    4.500    2.500    0.000    0.000    0.000    0.000 
#    0.000    0.000    0.000    0.000    0.000    0.000 
#
# Total GULP energy -178580.522957 kJ/mol
# GULP energy per Si atom -5580.641342 kJ/mol
# Density = 2.020788 g / cm^3
# Si number density = 20.253977 Si / 1000 Ang^3
#
#
#
# Elastic Constant Matrix: (Units=GPa)
#
#
# Indices 1 2 3 4 5 6 
#
# 1 96.1559 18.5078 45.1508 -0.0001 11.8662 -0.0002
# 2 18.5078 57.4751 37.6927 -0.0001 -9.9583 -0.0004
# 3 45.1508 37.6927 102.2579 0.0000 -12.2186 -0.0001
# 4 -0.0001 -0.0001 0.0000 26.8853 0.0000 -7.7573
# 5 11.8662 -9.9583 -12.2186 0.0000 31.9857 -0.0001
# 6 -0.0002 -0.0004 -0.0001 -7.7573 -0.0001 22.2467
#
#
#
# Elastic Compliance Matrix: (Units=1/GPa)
#
#
# Indices 1 2 3 4 5 6 
#
# 1 0.015178 -0.001763 -0.007115 0.000000 -0.008898 0.000000
# 2 -0.001763 0.023675 -0.007324 0.000000 0.005227 0.000000
# 3 -0.007115 -0.007324 0.016412 0.000000 0.006629 0.000000
# 4 0.000000 0.000000 0.000000 0.041356 0.000000 0.014421
# 5 -0.008898 0.005227 0.006629 0.000000 0.038725 0.000000
# 6 0.000000 0.000000 0.000000 0.014421 0.000000 0.049979
#
#
# Mechanical properties :
#
#
# Convention : Reuss Voigt Hill
#
# Bulk Modulus (GPa) = 43.74056 50.95461 47.34759
# Shear Modulus (GPa) = 22.18778 26.52605 24.35692
#
# Velocity S-wave (km/s) = 3.31339 3.62286 3.47158
# Velocity P-wave (km/s) = 6.02337 6.53549 6.28465
#
# Compressibility (1/GPa) = 0.02286208
#
# Stress axis : x y z
#
# Youngs Moduli (GPa) = 65.88460 42.23818 60.92967
#
# Poissons Ratio (x) = 0.07447 0.43351
# Poissons Ratio (y) = 0.11616 0.44623
# Poissons Ratio (z) = 0.46877 0.30934
#
# Static dielectric constant tensor:
#      x y z
#    x 1.702610 0.000000 -0.044050 
#    y 0.000000 1.778670 0.000000 
#    z -0.044050 0.000000 1.760190 
# 
# From -- ./inp_files/315699.got.cif
#   From: 2010.05.17/outbox.cif.g08.bks.cpg/sg15_158_cif.got.tgz:315699.got - 2010.06.03 18:47:42.
