data_PCOD9304944
_publ_section_title
;
Structure prediction by ZEFSAII (Michael W. Deem and Ramdas Pophale) SiO2 
 PCOD9304944
Probable space group: C 2/C
;
_chemical_formula_sum "Si O2"
_cell_formula_units_Z 60
_cell_length_a 18.966832
_cell_length_b 4.952848
_cell_length_c 29.189305
_cell_angle_alpha 90.000000
_cell_angle_beta 76.902318
_cell_angle_gamma 90.000000
_cell_volume 2670.704764
_symmetry_space_group_name_H-M "C 2/C"
_symmetry_group_IT_number 15
_symmetry_cell_setting 'monoclinic'
loop_
_space_group_symop_operation_xyz
x,y,z
-x,y,1/2-z
-x,-y,-z
x,-y,1/2+z
1/2+x,1/2+y,z
1/2-x,1/2+y,1/2-z
1/2-x,1/2-y,-z
1/2+x,1/2-y,1/2+z
loop_
_atom_site_type_symbol
_atom_site_label
_atom_site_fract_x
_atom_site_fract_y
_atom_site_fract_z
Si Si1 0.029077 0.447946 0.348996
Si Si2 0.371267 0.540854 0.809538
Si Si3 0.500000 0.105155 0.250000
Si Si4 0.276968 0.499266 0.966270
Si Si5 0.876358 0.966465 0.148496
Si Si6 0.758217 0.662011 0.383948
Si Si7 0.114306 0.724785 0.602084
Si Si8 0.295468 0.742559 0.245092
O O1 0.057023 0.169309 0.365989
O O2 0.017721 0.449498 0.295076
O O3 0.952477 0.481527 0.386010
O O4 0.089420 0.673215 0.350661
O O5 0.431860 0.707510 0.773943
O O6 0.301327 0.718177 0.833843
O O7 0.400192 0.419197 0.852450
O O8 0.342781 0.293318 0.783464
O O9 0.247029 0.588716 0.920471
O O10 0.360767 0.418919 0.942923
O O11 0.250000 0.250000 0.000000
O O12 0.250000 0.750000 0.000000
O O13 0.814859 0.011506 0.119522
O O14 0.838673 0.089747 0.199245
O O15 0.814532 0.455240 0.398501
O O16 0.225528 0.548384 0.261922
#
# Coordination Sequence:
#
# PCOD9304944 Si02
#       8
#     8   8   4   8   8   8   8   8
#     4  12  28  43  65  97 146 193 239 286 338 413
#     4  11  24  38  63  95 137 186 243 288 332 389
#     4  12  24  42  60  96 138 204 250 280 324 398
#     4  11  24  45  80 114 132 167 230 301 368 441
#     4  12  27  42  64 100 139 194 231 287 352 405
#     4  11  24  45  73 104 141 176 236 299 351 418
#     4  11  25  44  74 102 140 183 232 292 351 420
#     4  12  24  39  59  87 132 183 238 288 329 388
#
# _framework density 22.465978
#
# number of rings (size 3 to 8) (size 9 to 14) (size 15 to 20)
#    0.000    0.533    5.333    2.400    7.467    0.533 
#    0.000    0.000    0.000    4.800    0.000    0.000 
#    0.000    0.000    0.000    0.000    0.000    0.000 
#
# Total GULP energy -167669.910474 kJ/mol
# GULP energy per Si atom -5588.997016 kJ/mol
# Density = 2.241484 g / cm^3
# Si number density = 22.465978 Si / 1000 Ang^3
#
#
#
# Elastic Constant Matrix: (Units=GPa)
#
#
# Indices 1 2 3 4 5 6 
#
# 1 108.4025 21.3307 35.4462 -0.0014 -12.7810 -0.0012
# 2 21.3307 94.5350 28.9909 -0.0027 -9.4925 -0.0048
# 3 35.4462 28.9909 114.5229 -0.0005 -28.9629 -0.0001
# 4 -0.0014 -0.0027 -0.0005 33.4124 -0.0008 3.4201
# 5 -12.7810 -9.4925 -28.9629 -0.0008 18.8482 -0.0003
# 6 -0.0012 -0.0048 -0.0001 3.4201 -0.0003 35.1734
#
#
#
# Elastic Compliance Matrix: (Units=1/GPa)
#
#
# Indices 1 2 3 4 5 6 
#
# 1 0.010570 -0.001418 -0.002095 0.000000 0.003235 0.000000
# 2 -0.001418 0.011712 -0.002089 0.000001 0.001727 0.000001
# 3 -0.002095 -0.002089 0.015185 0.000000 0.020861 0.000000
# 4 0.000000 0.000001 0.000000 0.030230 0.000003 -0.002939
# 5 0.003235 0.001727 0.020861 0.000003 0.088175 0.000001
# 6 0.000000 0.000001 0.000000 -0.002939 0.000001 0.028716
#
#
# Mechanical properties :
#
#
# Convention : Reuss Voigt Hill
#
# Bulk Modulus (GPa) = 38.07548 54.33289 46.20419
# Shear Modulus (GPa) = 24.44432 32.93297 28.68864
#
# Velocity S-wave (km/s) = 3.30215 3.83287 3.57736
# Velocity P-wave (km/s) = 5.61461 6.62003 6.13794
#
# Compressibility (1/GPa) = 0.02626362
#
# Stress axis : x y z
#
# Youngs Moduli (GPa) = 94.60581 85.38157 65.85503
#
# Poissons Ratio (x) = 0.12106 0.13793
# Poissons Ratio (y) = 0.13414 0.13760
# Poissons Ratio (z) = 0.19815 0.17840
#
# Static dielectric constant tensor:
#      x y z
#    x 1.923530 0.000000 -0.022340 
#    y 0.000000 1.878280 0.000000 
#    z -0.022340 0.000000 1.866610 
# 
# From -- ./inp_files/315077.got.cif
#   From: 2010.05.17/outbox.cif.g08.bks.cpg/sg15_158_cif.got.tgz:315077.got - 2010.06.03 18:47:42.
