data_PCOD9304714
_publ_section_title
;
Structure prediction by ZEFSAII (Michael W. Deem and Ramdas Pophale) SiO2 
 PCOD9304714
Probable space group: C 2/C
;
_chemical_formula_sum "Si O2"
_cell_formula_units_Z 40
_cell_length_a 14.547412
_cell_length_b 7.378015
_cell_length_c 23.883636
_cell_angle_alpha 90.000000
_cell_angle_beta 144.484969
_cell_angle_gamma 90.000000
_cell_volume 1489.153398
_symmetry_space_group_name_H-M "C 2/C"
_symmetry_group_IT_number 15
_symmetry_cell_setting 'monoclinic'
loop_
_space_group_symop_operation_xyz
x,y,z
-x,y,1/2-z
-x,-y,-z
x,-y,1/2+z
1/2+x,1/2+y,z
1/2-x,1/2+y,1/2-z
1/2-x,1/2-y,-z
1/2+x,1/2-y,1/2+z
loop_
_atom_site_type_symbol
_atom_site_label
_atom_site_fract_x
_atom_site_fract_y
_atom_site_fract_z
Si Si1 0.993268 0.225808 0.870109
Si Si2 0.249250 0.647568 0.588039
Si Si3 0.944157 0.612969 0.810268
Si Si4 0.754443 0.723094 0.605536
Si Si5 0.592374 0.375966 0.604449
O O1 0.908197 0.064589 0.860788
O O2 0.906544 0.406440 0.807326
O O3 0.080734 0.155944 0.857669
O O4 0.123332 0.302306 0.977798
O O5 0.227659 0.438941 0.593986
O O6 0.215191 0.793020 0.619795
O O7 0.847636 0.674654 0.708135
O O8 0.912128 0.728055 0.848836
O O9 0.128922 0.648980 0.885349
O O10 0.582507 0.636226 0.511558
#
# Coordination Sequence:
#
# PCOD9304714 Si02
#       5
#     8   8   8   8   8
#     4  11  24  46  76 114 151 209 264 324 405 475
#     4  11  23  45  83 109 154 208 263 329 404 478
#     4  11  25  47  75 110 162 204 263 328 391 477
#     4  11  23  47  76 114 156 210 262 327 401 478
#     4  12  24  49  81 109 158 206 264 329 395 475
#
# _framework density 26.860900999999998
#
# number of rings (size 3 to 8) (size 9 to 14) (size 15 to 20)
#    0.000    0.800    4.000    4.200    0.000    0.000 
#   10.800    8.000    0.000    0.000    0.000    0.000 
#    0.000    0.000    0.000    0.000    0.000    0.000 
#
# Total GULP energy -112303.121735 kJ/mol
# GULP energy per Si atom -5615.156087 kJ/mol
# Density = 2.679976 g / cm^3
# Si number density = 26.860901 Si / 1000 Ang^3
#
#
#
# Elastic Constant Matrix: (Units=GPa)
#
#
# Indices 1 2 3 4 5 6 
#
# 1 204.7204 77.9569 47.8507 0.0000 4.1314 0.0000
# 2 77.9569 247.5729 53.9285 0.0000 3.2445 0.0000
# 3 47.8507 53.9285 93.2654 0.0000 -9.2743 0.0000
# 4 0.0000 0.0000 0.0000 54.6153 0.0000 -4.6706
# 5 4.1314 3.2445 -9.2743 0.0000 49.2581 0.0000
# 6 0.0000 0.0000 0.0000 -4.6706 0.0000 61.1111
#
#
#
# Elastic Compliance Matrix: (Units=1/GPa)
#
#
# Indices 1 2 3 4 5 6 
#
# 1 0.005970 -0.001353 -0.002366 0.000000 -0.000857 0.000000
# 2 -0.001353 0.004961 -0.002237 0.000000 -0.000635 0.000000
# 3 -0.002366 -0.002237 0.013517 0.000000 0.002891 0.000000
# 4 0.000000 0.000000 0.000000 0.018430 0.000000 0.001409
# 5 -0.000857 -0.000635 0.002891 0.000000 0.020959 0.000000
# 6 0.000000 0.000000 0.000000 0.001409 0.000000 0.016471
#
#
# Mechanical properties :
#
#
# Convention : Reuss Voigt Hill
#
# Bulk Modulus (GPa) = 79.77423 100.55897 90.16660
# Shear Modulus (GPa) = 51.86681 57.38507 54.62594
#
# Velocity S-wave (km/s) = 4.39901 4.62711 4.51450
# Velocity P-wave (km/s) = 7.45421 8.12804 7.79841
#
# Compressibility (1/GPa) = 0.01253538
#
# Stress axis : x y z
#
# Youngs Moduli (GPa) = 167.49435 201.57033 73.98078
#
# Poissons Ratio (x) = 0.27281 0.17502
# Poissons Ratio (y) = 0.22669 0.16552
# Poissons Ratio (z) = 0.39626 0.45098
#
# Static dielectric constant tensor:
#      x y z
#    x 2.069480 0.000000 0.065330 
#    y 0.000000 2.047150 0.000000 
#    z 0.065330 0.000000 2.158740 
# 
# From -- ./inp_files/151500.got.cif
#   From: 2010.05.17/outbox.cif.g08.bks.cpg/sg15_76_cif.got.tgz:151500.got - 2010.06.03 18:47:42.
