data_PCOD9304285
_publ_section_title
;
Structure prediction by ZEFSAII (Michael W. Deem and Ramdas Pophale) SiO2 
 PCOD9304285
Probable space group: C 2/C
;
_chemical_formula_sum "Si O2"
_cell_formula_units_Z 64
_cell_length_a 27.754385
_cell_length_b 16.814277
_cell_length_c 22.054077
_cell_angle_alpha 90.000000
_cell_angle_beta 18.150243
_cell_angle_gamma 90.000000
_cell_volume 3206.051088
_symmetry_space_group_name_H-M "C 2/C"
_symmetry_group_IT_number 15
_symmetry_cell_setting 'monoclinic'
loop_
_space_group_symop_operation_xyz
x,y,z
-x,y,1/2-z
-x,-y,-z
x,-y,1/2+z
1/2+x,1/2+y,z
1/2-x,1/2+y,1/2-z
1/2-x,1/2-y,-z
1/2+x,1/2-y,1/2+z
loop_
_atom_site_type_symbol
_atom_site_label
_atom_site_fract_x
_atom_site_fract_y
_atom_site_fract_z
Si Si1 0.200426 0.931798 0.367127
Si Si2 0.328521 0.857610 0.062696
Si Si3 0.826978 0.037997 0.982752
Si Si4 0.985901 0.511239 0.698209
Si Si5 0.549251 0.816602 0.449974
Si Si6 0.179734 0.781877 0.021636
Si Si7 0.332909 0.069166 0.134449
Si Si8 0.999931 0.870142 0.506954
O O1 0.295757 0.851832 0.267001
O O2 0.045667 0.906729 0.517220
O O3 0.171006 0.989282 0.457757
O O4 0.316963 0.983031 0.184880
O O5 0.412937 0.828265 0.023610
O O6 0.155899 0.889916 0.282938
O O7 0.429874 0.924831 0.908519
O O8 0.298658 0.781727 0.056596
O O9 0.695046 0.998708 0.099435
O O10 0.773175 0.129568 0.053747
O O11 0.000000 0.036681 0.750000
O O12 0.067403 0.560912 0.546439
O O13 0.000000 0.541265 0.750000
O O14 0.412022 0.869806 0.586336
O O15 0.517624 0.725049 0.472778
O O16 0.000000 0.786925 0.250000
O O17 0.250000 0.750000 0.000000
O O18 0.157788 0.094444 0.329620
#
# Coordination Sequence:
#
# PCOD9304285 Si02
#       8
#     8   8   8   8   8   8   8   8
#     4  11  23  43  68  98 135 174 227 289 337 400
#     4  11  24  41  64 100 139 181 222 269 338 412
#     4  11  26  43  69  97 135 185 224 275 338 409
#     4  12  25  43  66  93 136 180 222 278 340 410
#     4  11  23  44  66  97 133 180 222 283 345 400
#     4  11  25  42  61  96 144 188 220 261 326 422
#     4  12  23  42  68  99 134 170 230 281 346 395
#     4  11  26  39  68 101 133 173 223 290 337 402
#
# _framework density 19.962251999999999
#
# number of rings (size 3 to 8) (size 9 to 14) (size 15 to 20)
#    0.000    0.750    3.750    4.875    8.750    1.000 
#    0.000    0.000    0.000    4.500    0.000    0.000 
#    0.000    0.000    0.000    0.000    0.000    0.000 
#
# Total GULP energy -178873.895987 kJ/mol
# GULP energy per Si atom -5589.809250 kJ/mol
# Density = 1.991682 g / cm^3
# Si number density = 19.962252 Si / 1000 Ang^3
#
#
#
# Elastic Constant Matrix: (Units=GPa)
#
#
# Indices 1 2 3 4 5 6 
#
# 1 148.5379 43.4757 51.6204 0.0031 -10.8884 -0.0057
# 2 43.4757 75.6725 14.4717 0.0032 1.0856 0.0044
# 3 51.6204 14.4717 104.3823 0.0073 -15.7383 -0.0168
# 4 0.0031 0.0032 0.0073 28.4962 -0.0050 9.0207
# 5 -10.8884 1.0856 -15.7383 -0.0050 46.7472 0.0169
# 6 -0.0057 0.0044 -0.0168 9.0207 0.0169 -27.0313
#
#
#
# Elastic Compliance Matrix: (Units=1/GPa)
#
#
# Indices 1 2 3 4 5 6 
#
# 1 0.009560 -0.004759 -0.003914 0.000001 0.001019 0.000000
# 2 -0.004759 0.015988 -0.000091 -0.000002 -0.001510 0.000002
# 3 -0.003914 -0.000091 0.012001 -0.000001 0.003131 -0.000005
# 4 0.000001 -0.000002 -0.000001 0.031740 0.000000 0.010592
# 5 0.001019 -0.001510 0.003131 0.000000 0.022718 0.000012
# 6 0.000000 0.000002 -0.000005 0.010592 0.000012 -0.033460
#
#
# Mechanical properties :
#
#
# Convention : Reuss Voigt Hill
#
# Bulk Modulus (GPa) = 49.94846 60.85869 55.40357
# Shear Modulus (GPa) = 60.42436 24.24408 42.33422
#
# Velocity S-wave (km/s) = 5.50772 3.48874 4.61012
# Velocity P-wave (km/s) = 8.09459 6.83970 7.49346
#
# Compressibility (1/GPa) = 0.02002064
#
# Stress axis : x y z
#
# Youngs Moduli (GPa) = 104.60107 62.54761 83.32928
#
# Poissons Ratio (x) = 0.29764 0.32618
# Poissons Ratio (y) = 0.49775 0.00759
# Poissons Ratio (z) = 0.40945 0.00569
#
# Static dielectric constant tensor:
#      x y z
#    x 1.718120 0.000000 0.003080 
#    y 0.000000 1.728830 0.000000 
#    z 0.003080 0.000000 1.715310 
# 
# From -- ./inp_files/258048.got.cif
#   From: 2010.05.17/outbox.cif.g08.bks.cpg/sg15_130_cif.got.tgz:258048.got - 2010.06.03 18:47:42.
