data_PCOD9304816
_publ_section_title
;
Structure prediction by ZEFSAII (Michael W. Deem and Ramdas Pophale) SiO2 
 PCOD9304816
Probable space group: C 2/C
;
_chemical_formula_sum "Si O2"
_cell_formula_units_Z 36
_cell_length_a 8.384385
_cell_length_b 24.181092
_cell_length_c 8.640238
_cell_angle_alpha 90.000000
_cell_angle_beta 71.016516
_cell_angle_gamma 90.000000
_cell_volume 1656.479168
_symmetry_space_group_name_H-M "C 2/C"
_symmetry_group_IT_number 15
_symmetry_cell_setting 'monoclinic'
loop_
_space_group_symop_operation_xyz
x,y,z
-x,y,1/2-z
-x,-y,-z
x,-y,1/2+z
1/2+x,1/2+y,z
1/2-x,1/2+y,1/2-z
1/2-x,1/2-y,-z
1/2+x,1/2-y,1/2+z
loop_
_atom_site_type_symbol
_atom_site_label
_atom_site_fract_x
_atom_site_fract_y
_atom_site_fract_z
Si Si1 0.000000 0.327052 0.750000
Si Si2 0.719496 0.917152 0.552267
Si Si3 0.571826 0.409561 0.566783
Si Si4 0.186168 0.474273 0.235089
Si Si5 0.305681 0.706224 0.356442
O O1 0.915978 0.368353 0.902480
O O2 0.841153 0.294862 0.727317
O O3 0.718155 0.953286 0.397507
O O4 0.904414 0.892536 0.525336
O O5 0.685082 0.960089 0.703840
O O6 0.500000 0.434828 0.750000
O O7 0.677239 0.449628 0.425435
O O8 0.679044 0.356115 0.581085
O O9 0.000000 0.453972 0.250000
O O10 0.500000 0.718891 0.250000
O O11 0.250000 0.750000 0.500000
#
# Coordination Sequence:
#
# PCOD9304816 Si02
#       5
#     4   8   8   8   8
#     4  12  24  48  78 102 142 194 230 300 360 420
#     4  12  24  42  70 103 149 193 238 286 354 419
#     4  11  23  47  68 100 146 187 238 295 351 420
#     4  12  25  39  67 108 144 195 242 284 345 428
#     4  11  26  49  75 105 137 181 241 303 362 423
#
# _framework density 21.732842000000002
#
# number of rings (size 3 to 8) (size 9 to 14) (size 15 to 20)
#    0.000    0.444    5.556    4.667    0.000    3.556 
#    4.000    0.000    0.000    0.000    0.000    0.000 
#    0.000    0.000    0.000    0.000    0.000    0.000 
#
# Total GULP energy -100617.046711 kJ/mol
# GULP energy per Si atom -5589.835928 kJ/mol
# Density = 2.168338 g / cm^3
# Si number density = 21.732842 Si / 1000 Ang^3
#
#
#
# Elastic Constant Matrix: (Units=GPa)
#
#
# Indices 1 2 3 4 5 6 
#
# 1 185.8869 34.3636 50.7325 0.0000 0.1141 0.0000
# 2 34.3636 41.1314 39.7101 0.0000 -5.7502 0.0000
# 3 50.7325 39.7101 93.0282 0.0000 6.7064 0.0000
# 4 0.0000 0.0000 0.0000 33.2364 0.0000 0.0710
# 5 0.1141 -5.7502 6.7064 0.0000 42.8060 0.0000
# 6 0.0000 0.0000 0.0000 0.0710 0.0000 14.8310
#
#
#
# Elastic Compliance Matrix: (Units=1/GPa)
#
#
# Indices 1 2 3 4 5 6 
#
# 1 0.006600 -0.003527 -0.002082 0.000000 -0.000165 0.000000
# 2 -0.003527 0.046472 -0.018574 0.000000 0.009162 0.000000
# 3 -0.002082 -0.018574 0.020221 0.000000 -0.005658 0.000000
# 4 0.000000 0.000000 0.000000 0.030088 0.000000 -0.000144
# 5 -0.000165 0.009162 -0.005658 0.000000 0.025479 0.000000
# 6 0.000000 0.000000 0.000000 -0.000144 0.000000 0.067427
#
#
# Mechanical properties :
#
#
# Convention : Reuss Voigt Hill
#
# Bulk Modulus (GPa) = 40.11687 63.29543 51.70615
# Shear Modulus (GPa) = 19.76581 31.19071 25.47826
#
# Velocity S-wave (km/s) = 3.01905 3.79250 3.42766
# Velocity P-wave (km/s) = 5.53643 6.95449 6.28558
#
# Compressibility (1/GPa) = 0.02492717
#
# Stress axis : x y z
#
# Youngs Moduli (GPa) = 151.51713 21.51815 49.45347
#
# Poissons Ratio (x) = 0.07590 0.10294
# Poissons Ratio (y) = 0.53446 0.91855
# Poissons Ratio (z) = 0.31540 0.39968
#
# Static dielectric constant tensor:
#      x y z
#    x 1.874500 0.000000 0.009310 
#    y 0.000000 1.751230 0.000000 
#    z 0.009310 0.000000 1.787450 
# 
# From -- ./inp_files/23281.got.cif
#   From: 2010.05.17/outbox.cif.g08.bks.cpg/sg15_12_cif.got.tgz:23281.got - 2010.06.03 18:47:42.
