data_PCOD9304881
_publ_section_title
;
Structure prediction by ZEFSAII (Michael W. Deem and Ramdas Pophale) SiO2 
 PCOD9304881
Probable space group: C 2/C
;
_chemical_formula_sum "Si O2"
_cell_formula_units_Z 44
_cell_length_a 11.696525
_cell_length_b 19.948120
_cell_length_c 9.307931
_cell_angle_alpha 90.000000
_cell_angle_beta 61.409793
_cell_angle_gamma 90.000000
_cell_volume 1906.946630
_symmetry_space_group_name_H-M "C 2/C"
_symmetry_group_IT_number 15
_symmetry_cell_setting 'monoclinic'
loop_
_space_group_symop_operation_xyz
x,y,z
-x,y,1/2-z
-x,-y,-z
x,-y,1/2+z
1/2+x,1/2+y,z
1/2-x,1/2+y,1/2-z
1/2-x,1/2-y,-z
1/2+x,1/2-y,1/2+z
loop_
_atom_site_type_symbol
_atom_site_label
_atom_site_fract_x
_atom_site_fract_y
_atom_site_fract_z
Si Si1 0.357663 0.707953 0.766483
Si Si2 0.778356 0.104515 0.565967
Si Si3 0.214351 0.905047 0.991274
Si Si4 0.500000 0.500000 0.000000
Si Si5 0.411361 0.062217 0.593602
Si Si6 0.146358 0.644200 0.356038
O O1 0.500000 0.707172 0.750000
O O2 0.327043 0.661198 0.647369
O O3 0.337449 0.782284 0.719070
O O4 0.282853 0.669569 0.940577
O O5 0.645944 0.073411 0.714068
O O6 0.740151 0.133717 0.435412
O O7 0.888761 0.048262 0.495829
O O8 0.075073 0.933630 0.029240
O O9 0.305815 0.905803 0.797338
O O10 0.280874 0.947031 0.077677
O O11 0.499419 0.125655 0.491163
O O12 0.500000 0.000000 0.500000
#
# Coordination Sequence:
#
# PCOD9304881 Si02
#       6
#     8   8   8   4   8   8
#     4  11  23  48  69 101 145 197 244 300 376 460
#     4  11  26  44  73 107 151 187 248 318 369 457
#     4  11  25  42  74 102 144 193 244 310 371 459
#     4  12  24  48  72 108 148 188 250 306 384 434
#     4  11  24  46  71 106 146 193 246 307 380 447
#     4  12  25  43  71 107 143 193 246 307 373 447
#
# _framework density 23.073536000000001
#
# number of rings (size 3 to 8) (size 9 to 14) (size 15 to 20)
#    0.000    0.727    1.818    5.455    0.000    8.000 
#    0.000    1.818    0.000    0.000    0.000    0.000 
#    0.000    0.000    0.000    0.000    0.000    0.000 
#
# Total GULP energy -122474.308516 kJ/mol
# GULP energy per Si atom -5567.014023 kJ/mol
# Density = 2.302102 g / cm^3
# Si number density = 23.073536 Si / 1000 Ang^3
#
#
#
# Elastic Constant Matrix: (Units=GPa)
#
#
# Indices 1 2 3 4 5 6 
#
# 1 124.6817 23.6307 3.1792 0.0000 6.4902 0.0000
# 2 23.6307 122.1301 11.9540 0.0000 -6.6189 0.0000
# 3 3.1792 11.9540 62.0339 0.0000 12.8496 0.0000
# 4 0.0000 0.0000 0.0000 21.5850 0.0000 5.1895
# 5 6.4902 -6.6189 12.8496 0.0000 18.2540 0.0000
# 6 0.0000 0.0000 0.0000 5.1895 0.0000 39.9609
#
#
#
# Elastic Compliance Matrix: (Units=1/GPa)
#
#
# Indices 1 2 3 4 5 6 
#
# 1 0.008603 -0.001985 0.000848 0.000000 -0.004375 0.000000
# 2 -0.001985 0.009190 -0.002933 0.000000 0.006103 0.000000
# 3 0.000848 -0.002933 0.019814 0.000000 -0.015313 0.000000
# 4 0.000000 0.000000 0.000000 0.047822 0.000000 -0.006210
# 5 -0.004375 0.006103 -0.015313 0.000000 0.069330 0.000000
# 6 0.000000 0.000000 0.000000 -0.006210 0.000000 0.025831
#
#
# Mechanical properties :
#
#
# Convention : Reuss Voigt Hill
#
# Bulk Modulus (GPa) = 33.93714 42.93037 38.43376
# Shear Modulus (GPa) = 25.18243 33.96546 29.57394
#
# Velocity S-wave (km/s) = 3.30722 3.84090 3.58400
# Velocity P-wave (km/s) = 5.41514 6.19001 5.81550
#
# Compressibility (1/GPa) = 0.02946624
#
# Stress axis : x y z
#
# Youngs Moduli (GPa) = 116.24275 108.81597 50.46969
#
# Poissons Ratio (x) = 0.21596 -0.04279
# Poissons Ratio (y) = 0.23070 0.14804
# Poissons Ratio (z) = -0.09855 0.31919
#
# Static dielectric constant tensor:
#      x y z
#    x 1.836060 0.000000 -0.023220 
#    y 0.000000 1.908450 0.000000 
#    z -0.023220 0.000000 1.879770 
# 
# From -- ./inp_files/30757.got.cif
#   From: 2010.05.17/outbox.cif.g08.bks.cpg/sg15_16_cif.got.tgz:30757.got - 2010.06.03 18:47:42.
