data_PCOD9304665
_publ_section_title
;
Structure prediction by ZEFSAII (Michael W. Deem and Ramdas Pophale) SiO2 
 PCOD9304665
Probable space group: C 2/C
;
_chemical_formula_sum "Si O2"
_cell_formula_units_Z 56
_cell_length_a 23.984123
_cell_length_b 13.490388
_cell_length_c 14.714128
_cell_angle_alpha 90.000000
_cell_angle_beta 31.863254
_cell_angle_gamma 90.000000
_cell_volume 2513.213196
_symmetry_space_group_name_H-M "C 2/C"
_symmetry_group_IT_number 15
_symmetry_cell_setting 'monoclinic'
loop_
_space_group_symop_operation_xyz
x,y,z
-x,y,1/2-z
-x,-y,-z
x,-y,1/2+z
1/2+x,1/2+y,z
1/2-x,1/2+y,1/2-z
1/2-x,1/2-y,-z
1/2+x,1/2-y,1/2+z
loop_
_atom_site_type_symbol
_atom_site_label
_atom_site_fract_x
_atom_site_fract_y
_atom_site_fract_z
Si Si1 0.641191 0.551284 0.737101
Si Si2 0.987333 0.438698 0.660324
Si Si3 0.013777 0.334637 0.126649
Si Si4 0.244419 0.719903 0.265297
Si Si5 0.268724 0.114450 0.385601
Si Si6 0.443505 0.346943 0.603120
Si Si7 0.723526 0.061585 0.770103
O O1 0.696337 0.595595 0.572531
O O2 0.590896 0.442583 0.790202
O O3 0.724804 0.537646 0.703556
O O4 0.547136 0.620068 0.904569
O O5 0.890004 0.382208 0.750365
O O6 0.000000 0.417502 0.750000
O O7 0.964556 0.556612 0.682040
O O8 0.098633 0.421440 0.457331
O O9 0.000000 0.306627 0.250000
O O10 0.966342 0.250145 0.129658
O O11 0.138734 0.340740 0.934283
O O12 0.257720 0.710615 0.138150
O O13 0.347641 0.677086 0.168938
O O14 0.228119 0.831633 0.321303
O O15 0.255590 0.021487 0.334236
#
# Coordination Sequence:
#
# PCOD9304665 Si02
#       7
#     8   8   8   8   8   8   8
#     4  11  25  46  70  99 145 185 233 290 354 422
#     4  11  23  45  73 103 141 185 234 297 349 412
#     4  11  25  44  73 108 140 180 239 291 350 418
#     4  12  27  45  70 103 142 184 240 288 349 427
#     4  12  26  46  74 102 143 190 234 291 363 408
#     4  11  25  48  68 102 143 183 235 295 344 429
#     4  12  24  47  70 103 143 185 235 294 345 423
#
# _framework density 22.282233000000002
#
# number of rings (size 3 to 8) (size 9 to 14) (size 15 to 20)
#    0.000    0.571    5.714    1.286    6.000    1.714 
#    2.571    0.000    0.000    0.000    0.000    0.000 
#    0.000    0.000    0.000    0.000    0.000    0.000 
#
# Total GULP energy -156852.530797 kJ/mol
# GULP energy per Si atom -5601.876100 kJ/mol
# Density = 2.223152 g / cm^3
# Si number density = 22.282233 Si / 1000 Ang^3
#
#
#
# Elastic Constant Matrix: (Units=GPa)
#
#
# Indices 1 2 3 4 5 6 
#
# 1 118.8123 22.5140 34.9426 0.0000 -6.4879 0.0000
# 2 22.5140 56.6829 -16.1278 0.0000 -3.7062 0.0000
# 3 34.9426 -16.1278 81.4913 0.0000 2.3981 0.0000
# 4 0.0000 0.0000 0.0000 20.9250 0.0000 -4.6950
# 5 -6.4879 -3.7062 2.3981 0.0000 31.5106 0.0000
# 6 0.0000 0.0000 0.0000 -4.6950 0.0000 30.6860
#
#
#
# Elastic Compliance Matrix: (Units=1/GPa)
#
#
# Indices 1 2 3 4 5 6 
#
# 1 0.011549 -0.006226 -0.006247 0.000000 0.002121 0.000000
# 2 -0.006226 0.022168 0.007034 0.000000 0.000790 0.000000
# 3 -0.006247 0.007034 0.016392 0.000000 -0.001706 0.000000
# 4 0.000000 0.000000 0.000000 0.049489 0.000000 0.007572
# 5 0.002121 0.000790 -0.001706 0.000000 0.032395 0.000000
# 6 0.000000 0.000000 0.000000 0.007572 0.000000 0.033747
#
#
# Mechanical properties :
#
#
# Convention : Reuss Voigt Hill
#
# Bulk Modulus (GPa) = 25.49021 37.73823 31.61422
# Shear Modulus (GPa) = 26.35806 31.00149 28.67977
#
# Velocity S-wave (km/s) = 3.44309 3.73407 3.59153
# Velocity P-wave (km/s) = 5.22217 5.96358 5.60515
#
# Compressibility (1/GPa) = 0.03923075
#
# Stress axis : x y z
#
# Youngs Moduli (GPa) = 86.58414 45.11030 61.00507
#
# Poissons Ratio (x) = 0.28086 0.38109
# Poissons Ratio (y) = 0.53908 -0.42909
# Poissons Ratio (z) = 0.54088 -0.31729
#
# Static dielectric constant tensor:
#      x y z
#    x 1.797010 0.000000 0.002090 
#    y 0.000000 1.860850 0.000000 
#    z 0.002090 0.000000 1.788410 
# 
# From -- ./inp_files/173770.got.cif
#   From: 2010.05.17/outbox.cif.g08.bks.cpg/sg15_87_cif.got.tgz:173770.got - 2010.06.03 18:47:42.
