data_PCOD9304625
_publ_section_title
;
Structure prediction by ZEFSAII (Michael W. Deem and Ramdas Pophale) SiO2 
 PCOD9304625
Probable space group: C 2/C
;
_chemical_formula_sum "Si O2"
_cell_formula_units_Z 44
_cell_length_a 15.697535
_cell_length_b 6.716120
_cell_length_c 20.500317
_cell_angle_alpha 90.000000
_cell_angle_beta 75.263577
_cell_angle_gamma 90.000000
_cell_volume 2090.184731
_symmetry_space_group_name_H-M "C 2/C"
_symmetry_group_IT_number 15
_symmetry_cell_setting 'monoclinic'
loop_
_space_group_symop_operation_xyz
x,y,z
-x,y,1/2-z
-x,-y,-z
x,-y,1/2+z
1/2+x,1/2+y,z
1/2-x,1/2+y,1/2-z
1/2-x,1/2-y,-z
1/2+x,1/2-y,1/2+z
loop_
_atom_site_type_symbol
_atom_site_label
_atom_site_fract_x
_atom_site_fract_y
_atom_site_fract_z
Si Si1 0.000000 0.399453 0.750000
Si Si2 0.106909 0.667053 0.633206
Si Si3 0.812014 0.726403 0.425625
Si Si4 0.634330 0.669456 0.810299
Si Si5 0.230023 0.975799 0.680040
Si Si6 0.019770 0.006187 0.572295
O O1 0.036234 0.539274 0.686372
O O2 0.075956 0.260245 0.763325
O O3 0.175137 0.505325 0.592763
O O4 0.154351 0.822760 0.671786
O O5 0.061509 0.797689 0.586626
O O6 0.750000 0.750000 0.500000
O O7 0.907006 0.826673 0.423443
O O8 0.772902 0.844083 0.370936
O O9 0.680093 0.851905 0.838467
O O10 0.708826 0.544367 0.757830
O O11 0.568839 0.549283 0.869501
O O12 0.000000 0.000000 0.500000
#
# Coordination Sequence:
#
# PCOD9304625 Si02
#       6
#     4   8   8   8   8   8
#     4  12  20  44  72  96 132 174 232 278 350 396
#     4  11  23  45  70  95 136 184 223 290 339 408
#     4  11  26  45  69  99 137 185 228 281 348 412
#     4  12  24  45  68 104 137 177 235 285 344 413
#     4  11  26  43  69 102 136 181 231 286 344 415
#     4  11  27  44  68 102 138 180 233 282 345 421
#
# _framework density 21.05077
#
# number of rings (size 3 to 8) (size 9 to 14) (size 15 to 20)
#    0.000    0.727    3.636    3.273    5.091    3.636 
#    0.000    0.000    0.000    0.000    0.000    0.000 
#    0.000    0.000    0.000    0.000    0.000    0.000 
#
# Total GULP energy -123142.746849 kJ/mol
# GULP energy per Si atom -5597.397584 kJ/mol
# Density = 2.100286 g / cm^3
# Si number density = 21.050770 Si / 1000 Ang^3
#
#
#
# Elastic Constant Matrix: (Units=GPa)
#
#
# Indices 1 2 3 4 5 6 
#
# 1 51.7806 20.7329 13.4513 0.0000 7.7831 0.0000
# 2 20.7329 112.4046 48.6871 0.0000 3.6520 0.0000
# 3 13.4513 48.6871 122.8205 0.0000 -7.6997 0.0000
# 4 0.0000 0.0000 0.0000 22.9183 0.0000 1.8498
# 5 7.7831 3.6520 -7.6997 0.0000 41.5181 0.0000
# 6 0.0000 0.0000 0.0000 1.8498 0.0000 32.9558
#
#
#
# Elastic Compliance Matrix: (Units=1/GPa)
#
#
# Indices 1 2 3 4 5 6 
#
# 1 0.021567 -0.003280 -0.001313 0.000000 -0.003998 0.000000
# 2 -0.003280 0.011367 -0.004220 0.000000 -0.001168 0.000000
# 3 -0.001313 -0.004220 0.010115 0.000000 0.002493 0.000000
# 4 0.000000 0.000000 0.000000 0.043832 0.000000 -0.002460
# 5 -0.003998 -0.001168 0.002493 0.000000 0.025400 0.000000
# 6 0.000000 0.000000 0.000000 -0.002460 0.000000 0.030482
#
#
# Mechanical properties :
#
#
# Convention : Reuss Voigt Hill
#
# Bulk Modulus (GPa) = 39.33172 50.30537 44.81854
# Shear Modulus (GPa) = 29.60979 33.08739 31.34859
#
# Velocity S-wave (km/s) = 3.75452 3.96888 3.86319
# Velocity P-wave (km/s) = 6.12536 6.70461 6.42152
#
# Compressibility (1/GPa) = 0.02542477
#
# Stress axis : x y z
#
# Youngs Moduli (GPa) = 46.36643 87.97252 98.86419
#
# Poissons Ratio (x) = 0.28852 0.12977
# Poissons Ratio (y) = 0.15206 0.41721
# Poissons Ratio (z) = 0.06086 0.37125
#
# Static dielectric constant tensor:
#      x y z
#    x 1.759610 0.000000 -0.008350 
#    y 0.000000 1.781000 0.000000 
#    z -0.008350 0.000000 1.859320 
# 
# From -- ./inp_files/246427.got.cif
#   From: 2010.05.17/outbox.cif.g08.bks.cpg/sg15_124_cif.got.tgz:246427.got - 2010.06.03 18:47:42.
