data_PCOD9304489
_publ_section_title
;
Structure prediction by ZEFSAII (Michael W. Deem and Ramdas Pophale) SiO2 
 PCOD9304489
Probable space group: C 2/C
;
_chemical_formula_sum "Si O2"
_cell_formula_units_Z 56
_cell_length_a 9.544828
_cell_length_b 10.452577
_cell_length_c 24.323811
_cell_angle_alpha 90.000000
_cell_angle_beta 58.909144
_cell_angle_gamma 90.000000
_cell_volume 2078.136907
_symmetry_space_group_name_H-M "C 2/C"
_symmetry_group_IT_number 15
_symmetry_cell_setting 'monoclinic'
loop_
_space_group_symop_operation_xyz
x,y,z
-x,y,1/2-z
-x,-y,-z
x,-y,1/2+z
1/2+x,1/2+y,z
1/2-x,1/2+y,1/2-z
1/2-x,1/2-y,-z
1/2+x,1/2-y,1/2+z
loop_
_atom_site_type_symbol
_atom_site_label
_atom_site_fract_x
_atom_site_fract_y
_atom_site_fract_z
Si Si1 0.172450 0.065250 0.948005
Si Si2 0.000000 0.919963 0.250000
Si Si3 0.592978 0.758346 0.629095
Si Si4 0.000000 0.678748 0.750000
Si Si5 0.356822 0.380554 0.634926
Si Si6 0.677323 0.953451 0.774534
Si Si7 0.697377 0.678817 0.115716
Si Si8 0.525590 0.073535 0.052765
O O1 0.204420 0.215849 0.940220
O O2 0.182081 0.018167 0.882808
O O3 0.325784 0.005695 0.949829
O O4 0.000000 0.000000 0.000000
O O5 0.031358 0.848067 0.184776
O O6 0.157889 0.003994 0.229475
O O7 0.782972 0.781043 0.606070
O O8 0.574318 0.780634 0.566830
O O9 0.478597 0.877768 0.671003
O O10 0.895235 0.586369 0.732611
O O11 0.883084 0.757090 0.814394
O O12 0.246655 0.365414 0.710997
O O13 0.545621 0.369152 0.610557
O O14 0.831925 0.576474 0.105771
O O15 0.500000 0.000000 0.000000
#
# Coordination Sequence:
#
# PCOD9304489 Si02
#       8
#     8   4   8   4   8   8   8   8
#     4  11  26  53  79 107 152 209 259 327 389 458
#     4  12  25  39  72 106 142 202 247 315 402 460
#     4  11  23  47  69 105 155 199 252 315 393 464
#     4  12  21  45  76 108 158 204 245 323 404 472
#     4  11  23  44  70 106 153 195 248 319 387 463
#     4  12  23  43  68 109 157 191 253 314 388 474
#     4  12  27  46  79 115 153 206 262 321 401 465
#     4  11  27  49  76 113 153 205 271 323 381 467
#
# _framework density 26.947216000000001
#
# number of rings (size 3 to 8) (size 9 to 14) (size 15 to 20)
#    0.000    0.571    4.286    3.429    4.000    2.857 
#    0.000    2.857    0.000    0.000    0.000    0.000 
#    0.000    0.000    0.000    0.000    0.000    0.000 
#
# Total GULP energy -156345.125182 kJ/mol
# GULP energy per Si atom -5583.754471 kJ/mol
# Density = 2.688588 g / cm^3
# Si number density = 26.947216 Si / 1000 Ang^3
#
#
#
# Elastic Constant Matrix: (Units=GPa)
#
#
# Indices 1 2 3 4 5 6 
#
# 1 260.2465 56.1954 57.7770 0.0000 -24.1410 0.0000
# 2 56.1954 72.2487 30.3440 0.0000 3.3964 0.0000
# 3 57.7770 30.3440 107.4063 0.0000 -19.0878 0.0000
# 4 0.0000 0.0000 0.0000 40.4864 0.0000 -10.2082
# 5 -24.1410 3.3964 -19.0878 0.0000 41.0468 0.0000
# 6 0.0000 0.0000 0.0000 -10.2082 0.0000 34.2136
#
#
#
# Elastic Compliance Matrix: (Units=1/GPa)
#
#
# Indices 1 2 3 4 5 6 
#
# 1 0.005157 -0.003608 -0.001268 0.000000 0.002742 0.000000
# 2 -0.003608 0.018751 -0.004371 0.000000 -0.005706 0.000000
# 3 -0.001268 -0.004371 0.012164 0.000000 0.005273 0.000000
# 4 0.000000 0.000000 0.000000 0.026709 0.000000 0.007969
# 5 0.002742 -0.005706 0.005273 0.000000 0.028899 0.000000
# 6 0.000000 0.000000 0.000000 0.007969 0.000000 0.031606
#
#
# Mechanical properties :
#
#
# Convention : Reuss Voigt Hill
#
# Bulk Modulus (GPa) = 56.88237 80.94826 68.91531
# Shear Modulus (GPa) = 33.86620 42.85504 38.36062
#
# Velocity S-wave (km/s) = 3.54893 3.99222 3.77708
# Velocity P-wave (km/s) = 6.16018 7.16626 6.68218
#
# Compressibility (1/GPa) = 0.01758014
#
# Stress axis : x y z
#
# Youngs Moduli (GPa) = 193.89643 53.32970 82.20835
#
# Poissons Ratio (x) = 0.19241 0.10421
# Poissons Ratio (y) = 0.69957 0.35931
# Poissons Ratio (z) = 0.24580 0.23309
#
# Static dielectric constant tensor:
#      x y z
#    x 2.139040 0.000000 0.162250 
#    y 0.000000 2.136800 0.000000 
#    z 0.162250 0.000000 2.200850 
# 
# From -- ./inp_files/307446.got.cif
#   From: 2010.05.17/outbox.cif.g08.bks.cpg/sg15_154_cif.got.tgz:307446.got - 2010.06.03 18:47:42.
