data_PCOD9304680
_publ_section_title
;
Structure prediction by ZEFSAII (Michael W. Deem and Ramdas Pophale) SiO2 
 PCOD9304680
Probable space group: C 2/C
;
_chemical_formula_sum "Si O2"
_cell_formula_units_Z 44
_cell_length_a 13.774619
_cell_length_b 8.477229
_cell_length_c 16.465685
_cell_angle_alpha 90.000000
_cell_angle_beta 67.069499
_cell_angle_gamma 90.000000
_cell_volume 1770.771932
_symmetry_space_group_name_H-M "C 2/C"
_symmetry_group_IT_number 15
_symmetry_cell_setting 'monoclinic'
loop_
_space_group_symop_operation_xyz
x,y,z
-x,y,1/2-z
-x,-y,-z
x,-y,1/2+z
1/2+x,1/2+y,z
1/2-x,1/2+y,1/2-z
1/2-x,1/2-y,-z
1/2+x,1/2-y,1/2+z
loop_
_atom_site_type_symbol
_atom_site_label
_atom_site_fract_x
_atom_site_fract_y
_atom_site_fract_z
Si Si1 0.000000 0.620825 0.250000
Si Si2 0.655852 0.516961 0.065527
Si Si3 0.778741 0.787507 0.096391
Si Si4 0.215644 0.521395 0.229866
Si Si5 0.192727 0.322024 0.386479
Si Si6 0.493437 0.725493 0.931735
O O1 0.892583 0.523743 0.284732
O O2 0.005404 0.710537 0.335262
O O3 0.682248 0.667970 0.113622
O O4 0.704296 0.366465 0.095009
O O5 0.542362 0.458188 0.072410
O O6 0.727707 0.570242 0.966434
O O7 0.901160 0.739290 0.050307
O O8 0.779334 0.867482 0.183104
O O9 0.182107 0.476454 0.332176
O O10 0.284696 0.668292 0.176008
O O11 0.099504 0.294835 0.480879
#
# Coordination Sequence:
#
# PCOD9304680 Si02
#       6
#     4   8   8   8   8   8
#     4  12  26  46  76 108 150 196 260 304 394 460
#     4  11  23  45  74 106 146 198 246 318 378 464
#     4  11  26  46  75 113 150 192 264 313 386 470
#     4  12  26  48  70 111 148 197 255 319 379 463
#     4  12  25  47  75 103 153 197 250 315 387 448
#     4  12  25  48  76 110 148 207 247 317 389 458
#
# _framework density 24.847919999999998
#
# number of rings (size 3 to 8) (size 9 to 14) (size 15 to 20)
#    0.000    0.364    3.636    5.455    0.000    5.818 
#    0.000    0.000    0.000    0.000    0.000    0.000 
#    0.000    0.000    0.000    0.000    0.000    0.000 
#
# Total GULP energy -122598.499212 kJ/mol
# GULP energy per Si atom -5572.659055 kJ/mol
# Density = 2.479137 g / cm^3
# Si number density = 24.847920 Si / 1000 Ang^3
#
#
#
# Elastic Constant Matrix: (Units=GPa)
#
#
# Indices 1 2 3 4 5 6 
#
# 1 99.2912 21.3656 8.3948 0.0000 5.7510 0.0000
# 2 21.3656 77.3418 55.5093 0.0000 1.0311 0.0000
# 3 8.3948 55.5093 117.2432 0.0000 13.2850 0.0000
# 4 0.0000 0.0000 0.0000 35.5970 0.0000 6.5829
# 5 5.7510 1.0311 13.2850 0.0000 35.3691 0.0000
# 6 0.0000 0.0000 0.0000 6.5829 0.0000 34.0301
#
#
#
# Elastic Compliance Matrix: (Units=1/GPa)
#
#
# Indices 1 2 3 4 5 6 
#
# 1 0.010933 -0.003947 0.001331 0.000000 -0.002163 0.000000
# 2 -0.003947 0.021327 -0.010254 0.000000 0.003871 0.000000
# 3 0.001331 -0.010254 0.013870 0.000000 -0.005127 0.000000
# 4 0.000000 0.000000 0.000000 0.029135 0.000000 -0.005636
# 5 -0.002163 0.003871 -0.005127 0.000000 0.030438 0.000000
# 6 0.000000 0.000000 0.000000 -0.005636 0.000000 0.030476
#
#
# Mechanical properties :
#
#
# Convention : Reuss Voigt Hill
#
# Bulk Modulus (GPa) = 49.04038 51.60173 50.32105
# Shear Modulus (GPa) = 29.63582 34.90633 32.27108
#
# Velocity S-wave (km/s) = 3.45728 3.75213 3.60772
# Velocity P-wave (km/s) = 5.97629 6.29154 6.13594
#
# Compressibility (1/GPa) = 0.02039136
#
# Stress axis : x y z
#
# Youngs Moduli (GPa) = 91.46325 46.88799 72.10021
#
# Poissons Ratio (x) = 0.18505 -0.09594
# Poissons Ratio (y) = 0.36097 0.73929
# Poissons Ratio (z) = -0.12171 0.48077
#
# Static dielectric constant tensor:
#      x y z
#    x 1.958150 0.000000 0.065010 
#    y 0.000000 2.063180 0.000000 
#    z 0.065010 0.000000 2.036490 
# 
# From -- ./inp_files/202918.got.cif
#   From: 2010.05.17/outbox.cif.g08.bks.cpg/sg15_102_cif.got.tgz:202918.got - 2010.06.03 18:47:42.
