data_PCOD9304580
_publ_section_title
;
Structure prediction by ZEFSAII (Michael W. Deem and Ramdas Pophale) SiO2 
 PCOD9304580
Probable space group: C 2/C
;
_chemical_formula_sum "Si O2"
_cell_formula_units_Z 36
_cell_length_a 12.692234
_cell_length_b 11.690617
_cell_length_c 10.489932
_cell_angle_alpha 90.000000
_cell_angle_beta 91.859966
_cell_angle_gamma 90.000000
_cell_volume 1555.676540
_symmetry_space_group_name_H-M "C 2/C"
_symmetry_group_IT_number 15
_symmetry_cell_setting 'monoclinic'
loop_
_space_group_symop_operation_xyz
x,y,z
-x,y,1/2-z
-x,-y,-z
x,-y,1/2+z
1/2+x,1/2+y,z
1/2-x,1/2+y,1/2-z
1/2-x,1/2-y,-z
1/2+x,1/2-y,1/2+z
loop_
_atom_site_type_symbol
_atom_site_label
_atom_site_fract_x
_atom_site_fract_y
_atom_site_fract_z
Si Si1 0.756790 0.543782 0.017334
Si Si2 0.534282 0.628663 0.019217
Si Si3 0.231272 0.372785 0.256487
Si Si4 0.000000 0.725369 0.750000
Si Si5 0.592986 0.801603 0.826223
O O1 0.658164 0.622177 0.054607
O O2 0.751266 0.431465 0.105141
O O3 0.858197 0.614484 0.066678
O O4 0.747825 0.540495 0.863175
O O5 0.477693 0.693315 0.129243
O O6 0.500000 0.500000 0.000000
O O7 0.526778 0.701090 0.891531
O O8 0.310454 0.264745 0.239761
O O9 0.108273 0.342625 0.236840
O O10 0.500000 0.867510 0.750000
#
# Coordination Sequence:
#
# PCOD9304580 Si02
#       5
#     8   8   8   4   8
#     4  11  24  46  67 102 136 186 226 284 342 411
#     4  11  24  42  71 100 133 175 232 287 345 399
#     4  11  25  44  70  99 141 180 230 279 347 403
#     4  12  24  44  68  98 138 174 222 286 338 406
#     4  11  23  45  66 100 136 179 225 287 340 410
#
# _framework density 23.141057
#
# number of rings (size 3 to 8) (size 9 to 14) (size 15 to 20)
#    0.000    0.889    4.444    2.667    9.333    2.667 
#    0.000    3.333    0.000    0.000    0.000    0.000 
#    0.000    0.000    0.000    0.000    0.000    0.000 
#
# Total GULP energy -100538.626873 kJ/mol
# GULP energy per Si atom -5585.479271 kJ/mol
# Density = 2.308839 g / cm^3
# Si number density = 23.141057 Si / 1000 Ang^3
#
#
#
# Elastic Constant Matrix: (Units=GPa)
#
#
# Indices 1 2 3 4 5 6 
#
# 1 79.6122 -3.9439 32.5045 0.0000 4.5078 0.0000
# 2 -3.9439 23.3398 9.8917 0.0000 -14.7074 0.0000
# 3 32.5045 9.8917 73.9130 0.0000 -5.7696 0.0000
# 4 0.0000 0.0000 0.0000 59.0191 0.0000 -9.1188
# 5 4.5078 -14.7074 -5.7696 0.0000 44.6567 0.0000
# 6 0.0000 0.0000 0.0000 -9.1188 0.0000 50.9190
#
#
#
# Elastic Compliance Matrix: (Units=1/GPa)
#
#
# Indices 1 2 3 4 5 6 
#
# 1 0.016103 0.005549 -0.007888 0.000000 -0.000817 0.000000
# 2 0.005549 0.058656 -0.008916 0.000000 0.017606 0.000000
# 3 -0.007888 -0.008916 0.018208 0.000000 0.000212 0.000000
# 4 0.000000 0.000000 0.000000 0.017426 0.000000 0.003121
# 5 -0.000817 0.017606 0.000212 0.000000 0.028301 0.000000
# 6 0.000000 0.000000 0.000000 0.003121 0.000000 0.020198
#
#
# Mechanical properties :
#
#
# Convention : Reuss Voigt Hill
#
# Bulk Modulus (GPa) = 14.19297 28.19661 21.19479
# Shear Modulus (GPa) = 24.40377 40.14648 32.27512
#
# Velocity S-wave (km/s) = 3.25093 4.16968 3.73864
# Velocity P-wave (km/s) = 4.49866 5.94918 5.27403
#
# Compressibility (1/GPa) = 0.07045740
#
# Stress axis : x y z
#
# Youngs Moduli (GPa) = 62.10215 17.04857 54.92098
#
# Poissons Ratio (x) = -0.09460 0.43320
# Poissons Ratio (y) = -0.34461 0.48967
# Poissons Ratio (z) = 0.48985 0.15200
#
# Static dielectric constant tensor:
#      x y z
#    x 1.991350 0.000000 0.092440 
#    y 0.000000 1.873530 0.000000 
#    z 0.092440 0.000000 1.987440 
# 
# From -- ./inp_files/55593.got.cif
#   From: 2010.05.17/outbox.cif.g08.bks.cpg/sg15_28_cif.got.tgz:55593.got - 2010.06.03 18:47:42.
