data_PCOD9304897
_publ_section_title
;
Structure prediction by ZEFSAII (Michael W. Deem and Ramdas Pophale) SiO2 
 PCOD9304897
Probable space group: C 2/C
;
_chemical_formula_sum "Si O2"
_cell_formula_units_Z 52
_cell_length_a 14.768886
_cell_length_b 14.114741
_cell_length_c 12.147276
_cell_angle_alpha 90.000000
_cell_angle_beta 114.971828
_cell_angle_gamma 90.000000
_cell_volume 2295.486663
_symmetry_space_group_name_H-M "C 2/C"
_symmetry_group_IT_number 15
_symmetry_cell_setting 'monoclinic'
loop_
_space_group_symop_operation_xyz
x,y,z
-x,y,1/2-z
-x,-y,-z
x,-y,1/2+z
1/2+x,1/2+y,z
1/2-x,1/2+y,1/2-z
1/2-x,1/2-y,-z
1/2+x,1/2-y,1/2+z
loop_
_atom_site_type_symbol
_atom_site_label
_atom_site_fract_x
_atom_site_fract_y
_atom_site_fract_z
Si Si1 0.353957 0.180506 0.766315
Si Si2 0.203644 0.187994 0.071771
Si Si3 0.773748 0.525667 0.575076
Si Si4 0.060829 0.912140 0.986258
Si Si5 0.047506 0.598075 0.989871
Si Si6 0.482634 0.269924 0.371920
Si Si7 0.500000 0.696989 0.250000
O O1 0.292694 0.249335 0.815274
O O2 0.302845 0.085398 0.698523
O O3 0.460019 0.149417 0.874658
O O4 0.396462 0.244598 0.689071
O O5 0.259333 0.086191 0.096121
O O6 0.250000 0.250000 0.000000
O O7 0.087150 0.190818 0.976831
O O8 0.663412 0.555968 0.482658
O O9 0.854681 0.563631 0.527554
O O10 0.088426 0.845573 0.104296
O O11 0.995953 0.863205 0.858285
O O12 0.000000 0.000000 0.000000
O O13 0.000000 0.500000 0.000000
O O14 0.053454 0.668990 0.097611
O O15 0.500000 0.268112 0.250000
#
# Coordination Sequence:
#
# PCOD9304897 Si02
#       7
#     8   8   8   8   8   8   4
#     4  11  23  48  74 102 151 192 243 312 374 438
#     4  11  25  48  67 111 149 191 245 310 380 440
#     4  12  24  46  80 109 139 200 257 299 381 463
#     4  12  26  47  73 110 146 196 250 309 379 449
#     4  11  24  48  73 108 148 191 250 309 375 447
#     4  11  25  48  72 103 156 195 239 315 375 442
#     4  12  22  50  74  94 160 190 238 326 364 434
#
# _framework density 22.653148000000002
#
# number of rings (size 3 to 8) (size 9 to 14) (size 15 to 20)
#    0.000    0.615    6.154    1.846    3.231    4.923 
#    8.308    0.000    0.000    0.000    0.000    0.000 
#    0.000    0.000    0.000    0.000    0.000    0.000 
#
# Total GULP energy -145021.853842 kJ/mol
# GULP energy per Si atom -5577.763609 kJ/mol
# Density = 2.260159 g / cm^3
# Si number density = 22.653148 Si / 1000 Ang^3
#
#
#
# Elastic Constant Matrix: (Units=GPa)
#
#
# Indices 1 2 3 4 5 6 
#
# 1 136.7985 74.5300 39.7462 0.0000 -22.0271 0.0000
# 2 74.5300 217.8992 65.5588 0.0000 -32.0450 0.0000
# 3 39.7462 65.5588 90.6884 0.0000 -25.0747 0.0000
# 4 0.0000 0.0000 0.0000 26.0449 0.0000 -7.3613
# 5 -22.0271 -32.0450 -25.0747 0.0000 41.7861 0.0000
# 6 0.0000 0.0000 0.0000 -7.3613 0.0000 49.1365
#
#
#
# Elastic Compliance Matrix: (Units=1/GPa)
#
#
# Indices 1 2 3 4 5 6 
#
# 1 0.009479 -0.002378 -0.001868 0.000000 0.002052 0.000000
# 2 -0.002378 0.006659 -0.003245 0.000000 0.001906 0.000000
# 3 -0.001868 -0.003245 0.015862 0.000000 0.006046 0.000000
# 4 0.000000 0.000000 0.000000 0.040093 0.000000 0.006006
# 5 0.002052 0.001906 0.006046 0.000000 0.030103 0.000000
# 6 0.000000 0.000000 0.000000 0.006006 0.000000 0.021251
#
#
# Mechanical properties :
#
#
# Convention : Reuss Voigt Hill
#
# Bulk Modulus (GPa) = 58.75650 89.45067 74.10359
# Shear Modulus (GPa) = 34.69765 41.09691 37.89728
#
# Velocity S-wave (km/s) = 3.91793 4.26394 4.09459
# Velocity P-wave (km/s) = 6.81621 7.98839 7.42546
#
# Compressibility (1/GPa) = 0.01701939
#
# Stress axis : x y z
#
# Youngs Moduli (GPa) = 105.49776 150.16539 63.04207
#
# Poissons Ratio (x) = 0.35717 0.11773
# Poissons Ratio (y) = 0.25092 0.20454
# Poissons Ratio (z) = 0.19702 0.48722
#
# Static dielectric constant tensor:
#      x y z
#    x 2.016260 0.000000 0.001090 
#    y 0.000000 1.939120 0.000000 
#    z 0.001090 0.000000 1.749720 
# 
# From -- ./inp_files/97110.got.cif
#   From: 2010.05.17/outbox.cif.g08.bks.cpg/sg15_49_cif.got.tgz:97110.got - 2010.06.03 18:47:42.
