data_PCOD9304649
_publ_section_title
;
Structure prediction by ZEFSAII (Michael W. Deem and Ramdas Pophale) SiO2 
 PCOD9304649
Probable space group: C 2/C
;
_chemical_formula_sum "Si O2"
_cell_formula_units_Z 36
_cell_length_a 21.397265
_cell_length_b 7.675002
_cell_length_c 17.874325
_cell_angle_alpha 90.000000
_cell_angle_beta 151.743403
_cell_angle_gamma 90.000000
_cell_volume 1389.677459
_symmetry_space_group_name_H-M "C 2/C"
_symmetry_group_IT_number 15
_symmetry_cell_setting 'monoclinic'
loop_
_space_group_symop_operation_xyz
x,y,z
-x,y,1/2-z
-x,-y,-z
x,-y,1/2+z
1/2+x,1/2+y,z
1/2-x,1/2+y,1/2-z
1/2-x,1/2-y,-z
1/2+x,1/2-y,1/2+z
loop_
_atom_site_type_symbol
_atom_site_label
_atom_site_fract_x
_atom_site_fract_y
_atom_site_fract_z
Si Si1 0.652677 0.722040 0.308582
Si Si2 0.383395 0.560759 0.982199
Si Si3 0.000000 0.575374 0.750000
Si Si4 0.009222 0.694771 0.394742
Si Si5 0.281624 0.595770 0.715846
O O1 0.749712 0.858674 0.372522
O O2 0.618626 0.791528 0.355550
O O3 0.711630 0.534384 0.347765
O O4 0.503498 0.698468 0.117056
O O5 0.353918 0.519984 0.864380
O O6 0.434862 0.383049 0.074444
O O7 0.001276 0.444526 0.681697
O O8 0.870250 0.737881 0.286648
O O9 0.129675 0.630783 0.573228
#
# Coordination Sequence:
#
# PCOD9304649 Si02
#       5
#     8   8   4   8   8
#     4  11  25  42  69  97 137 176 217 274 324 400
#     4  11  23  45  72 104 130 169 222 281 340 384
#     4  12  28  46  62  98 136 186 228 256 332 398
#     4  11  25  42  69  97 137 176 217 274 324 400
#     4  11  23  45  72 104 130 169 222 281 340 384
#
# _framework density 25.905290000000001
#
# number of rings (size 3 to 8) (size 9 to 14) (size 15 to 20)
#    0.000    0.889    0.000    8.000    0.000   10.667 
#    0.000   12.222    0.000    0.000    0.000    0.000 
#    0.000    0.000    0.000    0.000    0.000    0.000 
#
# Total GULP energy -100674.827254 kJ/mol
# GULP energy per Si atom -5593.045959 kJ/mol
# Density = 2.584633 g / cm^3
# Si number density = 25.905290 Si / 1000 Ang^3
#
#
#
# Elastic Constant Matrix: (Units=GPa)
#
#
# Indices 1 2 3 4 5 6 
#
# 1 87.3878 24.2760 21.0254 0.0000 7.6735 0.0000
# 2 24.2760 121.4181 26.5719 0.0000 -1.5336 0.0000
# 3 21.0254 26.5719 64.3268 0.0000 12.0886 0.0000
# 4 0.0000 0.0000 0.0000 51.3520 0.0000 5.6061
# 5 7.6735 -1.5336 12.0886 0.0000 44.9590 0.0000
# 6 0.0000 0.0000 0.0000 5.6061 0.0000 59.1612
#
#
#
# Elastic Compliance Matrix: (Units=1/GPa)
#
#
# Indices 1 2 3 4 5 6 
#
# 1 0.012853 -0.001898 -0.003152 0.000000 -0.001411 0.000000
# 2 -0.001898 0.009417 -0.003571 0.000000 0.001605 0.000000
# 3 -0.003152 -0.003571 0.018929 0.000000 -0.004674 0.000000
# 4 0.000000 0.000000 0.000000 0.019677 0.000000 -0.001865
# 5 -0.001411 0.001605 -0.004674 0.000000 0.023795 0.000000
# 6 0.000000 0.000000 0.000000 -0.001865 0.000000 0.017080
#
#
# Mechanical properties :
#
#
# Convention : Reuss Voigt Hill
#
# Bulk Modulus (GPa) = 41.74118 46.31992 44.03055
# Shear Modulus (GPa) = 39.37667 44.51173 41.94420
#
# Velocity S-wave (km/s) = 3.90298 4.14967 4.02821
# Velocity P-wave (km/s) = 6.03813 6.39367 6.21844
#
# Compressibility (1/GPa) = 0.02395716
#
# Stress axis : x y z
#
# Youngs Moduli (GPa) = 77.80491 106.18722 52.82785
#
# Poissons Ratio (x) = 0.20152 0.16651
# Poissons Ratio (y) = 0.14766 0.18867
# Poissons Ratio (z) = 0.24523 0.37925
#
# Static dielectric constant tensor:
#      x y z
#    x 2.001940 0.000000 -0.006230 
#    y 0.000000 2.054580 0.000000 
#    z -0.006230 0.000000 2.077660 
# 
# From -- ./inp_files/214372.got.cif
#   From: 2010.05.17/outbox.cif.g08.bks.cpg/sg15_108_cif.got.tgz:214372.got - 2010.06.03 18:47:42.
