data_PCOD9304331
_publ_section_title
;
Structure prediction by ZEFSAII (Michael W. Deem and Ramdas Pophale) SiO2 
 PCOD9304331
Probable space group: C 2/C
;
_chemical_formula_sum "Si O2"
_cell_formula_units_Z 40
_cell_length_a 18.957888
_cell_length_b 7.595101
_cell_length_c 11.348796
_cell_angle_alpha 90.000000
_cell_angle_beta 80.626017
_cell_angle_gamma 90.000000
_cell_volume 1612.258792
_symmetry_space_group_name_H-M "C 2/C"
_symmetry_group_IT_number 15
_symmetry_cell_setting 'monoclinic'
loop_
_space_group_symop_operation_xyz
x,y,z
-x,y,1/2-z
-x,-y,-z
x,-y,1/2+z
1/2+x,1/2+y,z
1/2-x,1/2+y,1/2-z
1/2-x,1/2-y,-z
1/2+x,1/2-y,1/2+z
loop_
_atom_site_type_symbol
_atom_site_label
_atom_site_fract_x
_atom_site_fract_y
_atom_site_fract_z
Si Si1 0.834415 0.180157 0.684761
Si Si2 0.215960 0.177186 0.373912
Si Si3 0.994208 0.902274 0.125489
Si Si4 0.040677 0.467218 0.615290
Si Si5 0.811349 0.523568 0.016736
O O1 0.792312 0.264543 0.803082
O O2 0.918432 0.197768 0.647830
O O3 0.800955 0.296606 0.588691
O O4 0.821784 0.970994 0.693074
O O5 0.171109 0.355178 0.402831
O O6 0.240213 0.057948 0.478065
O O7 0.000000 0.002166 0.250000
O O8 0.050772 0.744685 0.114871
O O9 0.000000 0.000000 0.000000
O O10 0.119723 0.549885 0.585014
O O11 0.000000 0.514444 0.750000
O O12 0.000000 0.500000 0.500000
#
# Coordination Sequence:
#
# PCOD9304331 Si02
#       5
#     8   8   8   8   8
#     4  12  23  45  70  99 143 183 241 292 363 437
#     4  11  24  42  69 101 137 186 232 294 361 429
#     4  11  25  47  71 103 143 187 241 304 364 432
#     4  11  23  43  70  98 136 186 236 292 360 422
#     4  11  24  44  68  98 142 183 237 297 353 433
#
# _framework density 24.809913999999999
#
# number of rings (size 3 to 8) (size 9 to 14) (size 15 to 20)
#    0.000    0.800    4.000    4.200    0.000    2.400 
#    3.600    0.000    0.000    0.000    0.000    0.000 
#    0.000    0.000    0.000    0.000    0.000    0.000 
#
# Total GULP energy -111547.279549 kJ/mol
# GULP energy per Si atom -5577.363977 kJ/mol
# Density = 2.475345 g / cm^3
# Si number density = 24.809914 Si / 1000 Ang^3
#
#
#
# Elastic Constant Matrix: (Units=GPa)
#
#
# Indices 1 2 3 4 5 6 
#
# 1 41.4439 -12.2246 22.3698 0.0000 -12.0263 0.0000
# 2 -12.2246 110.8960 37.7884 0.0000 -7.7776 0.0000
# 3 22.3698 37.7884 167.4377 0.0000 -2.8618 0.0000
# 4 0.0000 0.0000 0.0000 38.2184 0.0000 -0.8882
# 5 -12.0263 -7.7776 -2.8618 0.0000 36.4080 0.0000
# 6 0.0000 0.0000 0.0000 -0.8882 0.0000 28.5856
#
#
#
# Elastic Compliance Matrix: (Units=1/GPa)
#
#
# Indices 1 2 3 4 5 6 
#
# 1 0.032322 0.006261 -0.005533 0.000000 0.011579 0.000000
# 2 0.006261 0.011117 -0.003274 0.000000 0.004185 0.000000
# 3 -0.005533 -0.003274 0.007417 0.000000 -0.001944 0.000000
# 4 0.000000 0.000000 0.000000 0.026184 0.000000 0.000814
# 5 0.011579 0.004185 -0.001944 0.000000 0.032033 0.000000
# 6 0.000000 0.000000 0.000000 0.000814 0.000000 0.035008
#
#
# Mechanical properties :
#
#
# Convention : Reuss Voigt Hill
#
# Bulk Modulus (GPa) = 21.85146 46.18276 34.01711
# Shear Modulus (GPa) = 30.40832 38.76534 34.58683
#
# Velocity S-wave (km/s) = 3.50473 3.95713 3.73778
# Velocity P-wave (km/s) = 5.02038 6.28757 5.68936
#
# Compressibility (1/GPa) = 0.04576353
#
# Stress axis : x y z
#
# Youngs Moduli (GPa) = 30.93821 89.95471 134.82081
#
# Poissons Ratio (x) = -0.56318 0.74601
# Poissons Ratio (y) = -0.19369 0.44137
# Poissons Ratio (z) = 0.17119 0.29449
#
# Static dielectric constant tensor:
#      x y z
#    x 2.077550 0.000000 0.123670 
#    y 0.000000 1.965280 0.000000 
#    z 0.123670 0.000000 2.140910 
# 
# From -- ./inp_files/102707.got.cif
#   From: 2010.05.17/outbox.cif.g08.bks.cpg/sg15_52_cif.got.tgz:102707.got - 2010.06.03 18:47:42.
