data_PCOD9304136
_publ_section_title
;
Structure prediction by ZEFSAII (Michael W. Deem and Ramdas Pophale) SiO2 
 PCOD9304136
Probable space group: C 2/C
;
_chemical_formula_sum "Si O2"
_cell_formula_units_Z 56
_cell_length_a 15.601153
_cell_length_b 16.766031
_cell_length_c 12.034413
_cell_angle_alpha 90.000000
_cell_angle_beta 56.516746
_cell_angle_gamma 90.000000
_cell_volume 2625.442133
_symmetry_space_group_name_H-M "C 2/C"
_symmetry_group_IT_number 15
_symmetry_cell_setting 'monoclinic'
loop_
_space_group_symop_operation_xyz
x,y,z
-x,y,1/2-z
-x,-y,-z
x,-y,1/2+z
1/2+x,1/2+y,z
1/2-x,1/2+y,1/2-z
1/2-x,1/2-y,-z
1/2+x,1/2-y,1/2+z
loop_
_atom_site_type_symbol
_atom_site_label
_atom_site_fract_x
_atom_site_fract_y
_atom_site_fract_z
Si Si1 0.649961 0.330089 0.541175
Si Si2 0.806883 0.589411 0.090775
Si Si3 0.227143 0.693654 0.777441
Si Si4 0.302592 0.369403 0.629820
Si Si5 0.026502 0.952237 0.870898
Si Si6 0.507455 0.825617 0.125880
Si Si7 0.690433 0.441627 0.118307
O O1 0.732867 0.345398 0.580078
O O2 0.711128 0.319739 0.381928
O O3 0.576061 0.407628 0.596310
O O4 0.573781 0.254716 0.603932
O O5 0.775895 0.577771 0.241275
O O6 0.779038 0.508539 0.047659
O O7 0.920980 0.621182 0.002602
O O8 0.239297 0.779933 0.827613
O O9 0.269928 0.627193 0.829373
O O10 0.105747 0.686627 0.840035
O O11 0.403263 0.380016 0.634113
O O12 0.326193 0.402795 0.491016
O O13 0.093742 0.013494 0.747398
O O14 0.000000 0.000000 0.000000
O O15 0.500000 0.867970 0.250000
#
# Coordination Sequence:
#
# PCOD9304136 Si02
#       7
#     8   8   8   8   8   8   8
#     4  12  23  43  69 110 141 174 242 306 363 417
#     4  11  25  43  70 103 142 184 238 309 358 422
#     4  12  24  46  71 103 146 191 240 295 359 444
#     4  11  24  44  68 103 146 189 235 288 367 434
#     4  11  23  42  69 106 140 184 237 299 364 414
#     4  12  24  41  72 103 134 184 239 295 357 425
#     4  11  27  44  70 104 147 191 232 297 363 440
#
# _framework density 21.329740000000001
#
# number of rings (size 3 to 8) (size 9 to 14) (size 15 to 20)
#    0.000    0.571    5.714    2.571    4.000    3.429 
#    0.000    0.714    0.000    0.000    0.000    0.000 
#    0.000    0.000    0.000    0.000    0.000    0.000 
#
# Total GULP energy -156386.357516 kJ/mol
# GULP energy per Si atom -5585.227054 kJ/mol
# Density = 2.128119 g / cm^3
# Si number density = 21.329740 Si / 1000 Ang^3
#
#
#
# Elastic Constant Matrix: (Units=GPa)
#
#
# Indices 1 2 3 4 5 6 
#
# 1 92.5233 42.6136 57.1628 0.0000 -2.3094 0.0000
# 2 42.6136 107.3537 41.1043 0.0000 1.8997 0.0000
# 3 57.1628 41.1043 162.7378 0.0000 3.5182 0.0000
# 4 0.0000 0.0000 0.0000 35.3825 0.0000 0.6743
# 5 -2.3094 1.8997 3.5182 0.0000 36.2218 0.0000
# 6 0.0000 0.0000 0.0000 0.6743 0.0000 43.1892
#
#
#
# Elastic Compliance Matrix: (Units=1/GPa)
#
#
# Indices 1 2 3 4 5 6 
#
# 1 0.015662 -0.004568 -0.004383 0.000000 0.001664 0.000000
# 2 -0.004568 0.011648 -0.001321 0.000000 -0.000774 0.000000
# 3 -0.004383 -0.001321 0.008040 0.000000 -0.000991 0.000000
# 4 0.000000 0.000000 0.000000 0.028271 0.000000 -0.000441
# 5 0.001664 -0.000774 -0.000991 0.000000 0.027851 0.000000
# 6 0.000000 0.000000 0.000000 -0.000441 0.000000 0.023161
#
#
# Mechanical properties :
#
#
# Convention : Reuss Voigt Hill
#
# Bulk Modulus (GPa) = 67.54628 71.59735 69.57181
# Shear Modulus (GPa) = 35.68618 37.74099 36.71358
#
# Velocity S-wave (km/s) = 4.09476 4.21100 4.15328
# Velocity P-wave (km/s) = 7.35476 7.56856 7.46242
#
# Compressibility (1/GPa) = 0.01480466
#
# Stress axis : x y z
#
# Youngs Moduli (GPa) = 63.85022 85.85469 124.38442
#
# Poissons Ratio (x) = 0.39218 0.54524
# Poissons Ratio (y) = 0.29166 0.16428
# Poissons Ratio (z) = 0.27989 0.11339
#
# Static dielectric constant tensor:
#      x y z
#    x 1.816810 0.000000 -0.018460 
#    y 0.000000 1.799690 0.000000 
#    z -0.018460 0.000000 1.814450 
# 
# From -- ./inp_files/98684.got.cif
#   From: 2010.05.17/outbox.cif.g08.bks.cpg/sg15_50_cif.got.tgz:98684.got - 2010.06.03 18:47:42.
