data_PCOD9304577
_publ_section_title
;
Structure prediction by ZEFSAII (Michael W. Deem and Ramdas Pophale) SiO2 
 PCOD9304577
Probable space group: C 2/C
;
_chemical_formula_sum "Si O2"
_cell_formula_units_Z 48
_cell_length_a 6.837619
_cell_length_b 19.474844
_cell_length_c 21.588952
_cell_angle_alpha 90.000000
_cell_angle_beta 123.246515
_cell_angle_gamma 90.000000
_cell_volume 2404.266866
_symmetry_space_group_name_H-M "C 2/C"
_symmetry_group_IT_number 15
_symmetry_cell_setting 'monoclinic'
loop_
_space_group_symop_operation_xyz
x,y,z
-x,y,1/2-z
-x,-y,-z
x,-y,1/2+z
1/2+x,1/2+y,z
1/2-x,1/2+y,1/2-z
1/2-x,1/2-y,-z
1/2+x,1/2-y,1/2+z
loop_
_atom_site_type_symbol
_atom_site_label
_atom_site_fract_x
_atom_site_fract_y
_atom_site_fract_z
Si Si1 0.887006 0.495219 0.665265
Si Si2 0.664978 0.658517 0.440218
Si Si3 0.010451 0.548436 0.060555
Si Si4 0.995233 0.248775 0.927087
Si Si5 0.523792 0.399515 0.048440
Si Si6 0.137354 0.669646 0.333696
O O1 0.041718 0.494487 0.629234
O O2 0.656647 0.537500 0.604514
O O3 0.851242 0.413362 0.665974
O O4 0.000000 0.519378 0.750000
O O5 0.643068 0.622454 0.503699
O O6 0.409035 0.687429 0.381077
O O7 0.775825 0.600242 0.414509
O O8 0.834491 0.721330 0.453504
O O9 0.749615 0.583904 0.013621
O O10 0.000000 0.500000 0.000000
O O11 0.005723 0.297600 0.869335
O O12 0.947900 0.168973 0.905424
O O13 0.250000 0.250000 0.000000
O O14 0.000000 0.693599 0.250000
#
# Coordination Sequence:
#
# PCOD9304577 Si02
#       6
#     8   8   8   8   8   8
#     4  11  23  45  65  95 142 174 218 282 337 395
#     4  12  21  40  73  94 129 177 221 278 328 390
#     4  12  22  40  72 101 125 174 230 276 328 401
#     4  12  23  42  66 102 128 172 226 273 336 406
#     4  12  24  42  68 101 134 167 232 280 332 398
#     4  11  25  45  64  97 137 172 224 278 332 409
#
# _framework density 19.964507000000001
#
# number of rings (size 3 to 8) (size 9 to 14) (size 15 to 20)
#    0.000    0.333    8.333    2.000    0.000    0.667 
#    3.000    2.500    0.000    0.000    0.000    0.000 
#    0.000    0.000    0.000    0.000    0.000    0.000 
#
# Total GULP energy -133803.213624 kJ/mol
# GULP energy per Si atom -5575.133901 kJ/mol
# Density = 1.991907 g / cm^3
# Si number density = 19.964507 Si / 1000 Ang^3
#
#
#
# Elastic Constant Matrix: (Units=GPa)
#
#
# Indices 1 2 3 4 5 6 
#
# 1 129.3053 34.3596 55.5199 0.0000 -12.1126 0.0000
# 2 34.3596 79.9594 25.4576 0.0000 -12.4421 0.0000
# 3 55.5199 25.4576 121.6729 0.0000 -19.0386 0.0000
# 4 0.0000 0.0000 0.0000 17.0644 0.0000 2.0748
# 5 -12.1126 -12.4421 -19.0386 0.0000 21.3274 0.0000
# 6 0.0000 0.0000 0.0000 2.0748 0.0000 42.0764
#
#
#
# Elastic Compliance Matrix: (Units=1/GPa)
#
#
# Indices 1 2 3 4 5 6 
#
# 1 0.010309 -0.003085 -0.003980 0.000000 0.000502 0.000000
# 2 -0.003085 0.015061 -0.000747 0.000000 0.006367 0.000000
# 3 -0.003980 -0.000747 0.011356 0.000000 0.007440 0.000000
# 4 0.000000 0.000000 0.000000 0.058955 0.000000 -0.002907
# 5 0.000502 0.006367 0.007440 0.000000 0.057530 0.000000
# 6 0.000000 0.000000 0.000000 -0.002907 0.000000 0.023910
#
#
# Mechanical properties :
#
#
# Convention : Reuss Voigt Hill
#
# Bulk Modulus (GPa) = 47.39071 62.40133 54.89602
# Shear Modulus (GPa) = 25.02776 30.46699 27.74737
#
# Velocity S-wave (km/s) = 3.54448 3.91072 3.73209
# Velocity P-wave (km/s) = 6.36711 7.19136 6.79175
#
# Compressibility (1/GPa) = 0.02110118
#
# Stress axis : x y z
#
# Youngs Moduli (GPa) = 96.99931 66.39863 88.06288
#
# Poissons Ratio (x) = 0.20482 0.35051
# Poissons Ratio (y) = 0.29921 0.06581
# Poissons Ratio (z) = 0.38607 0.04962
#
# Static dielectric constant tensor:
#      x y z
#    x 1.728490 0.000000 -0.031890 
#    y 0.000000 1.797040 0.000000 
#    z -0.031890 0.000000 1.701980 
# 
# From -- ./inp_files/261255.got.cif
#   From: 2010.05.17/outbox.cif.g08.bks.cpg/sg15_131_cif.got.tgz:261255.got - 2010.06.03 18:47:42.
