data_PCOD9304598
_publ_section_title
;
Structure prediction by ZEFSAII (Michael W. Deem and Ramdas Pophale) SiO2 
 PCOD9304598
Probable space group: C 2/C
;
_chemical_formula_sum "Si O2"
_cell_formula_units_Z 32
_cell_length_a 22.390905
_cell_length_b 4.967505
_cell_length_c 12.952205
_cell_angle_alpha 90.000000
_cell_angle_beta 69.418446
_cell_angle_gamma 90.000000
_cell_volume 1348.682338
_symmetry_space_group_name_H-M "C 2/C"
_symmetry_group_IT_number 15
_symmetry_cell_setting 'monoclinic'
loop_
_space_group_symop_operation_xyz
x,y,z
-x,y,1/2-z
-x,-y,-z
x,-y,1/2+z
1/2+x,1/2+y,z
1/2-x,1/2+y,1/2-z
1/2-x,1/2-y,-z
1/2+x,1/2-y,1/2+z
loop_
_atom_site_type_symbol
_atom_site_label
_atom_site_fract_x
_atom_site_fract_y
_atom_site_fract_z
Si Si1 0.067629 0.021999 0.206113
Si Si2 0.994300 0.749245 0.577656
Si Si3 0.256547 0.683956 0.674959
Si Si4 0.807896 0.961181 0.456527
O O1 0.067768 0.187032 0.313010
O O2 0.000000 0.860640 0.250000
O O3 0.051621 0.235176 0.125619
O O4 0.127380 0.853370 0.132877
O O5 0.000000 0.500000 0.500000
O O6 0.000000 0.000000 0.500000
O O7 0.230722 0.431031 0.755545
O O8 0.314496 0.577902 0.568188
O O9 0.210561 0.806606 0.614671
O O10 0.750000 0.750000 0.500000
#
# Coordination Sequence:
#
# PCOD9304598 Si02
#       4
#     8   8   8   8
#     4   8  23  42  66 102 139 182 235 288 349 432
#     4   9  20  43  64 100 134 185 224 283 344 422
#     4  11  24  45  68 102 134 185 234 297 358 428
#     4  11  23  45  68 105 143 185 242 305 364 431
#
# _framework density 23.726863000000002
#
# number of rings (size 3 to 8) (size 9 to 14) (size 15 to 20)
#    1.500    0.500    2.500    0.000    0.000    8.000 
#   18.000    0.000    0.000    0.000    0.000    0.000 
#    0.000    0.000    0.000    0.000    0.000    0.000 
#
# Total GULP energy -89119.324524 kJ/mol
# GULP energy per Si atom -5569.957783 kJ/mol
# Density = 2.367286 g / cm^3
# Si number density = 23.726863 Si / 1000 Ang^3
#
#
#
# Elastic Constant Matrix: (Units=GPa)
#
#
# Indices 1 2 3 4 5 6 
#
# 1 62.2995 30.8277 62.5089 0.0000 -35.5993 0.0000
# 2 30.8277 149.8344 91.2346 0.0000 -3.5389 0.0000
# 3 62.5089 91.2346 233.1198 0.0000 -8.1038 0.0000
# 4 0.0000 0.0000 0.0000 28.9804 0.0000 5.6614
# 5 -35.5993 -3.5389 -8.1038 0.0000 56.1624 0.0000
# 6 0.0000 0.0000 0.0000 5.6614 0.0000 22.2145
#
#
#
# Elastic Compliance Matrix: (Units=1/GPa)
#
#
# Indices 1 2 3 4 5 6 
#
# 1 0.039663 -0.002135 -0.008975 0.000000 0.023711 0.000000
# 2 -0.002135 0.008877 -0.002944 0.000000 -0.001219 0.000000
# 3 -0.008975 -0.002944 0.007683 0.000000 -0.004766 0.000000
# 4 0.000000 0.000000 0.000000 0.036314 0.000000 -0.009255
# 5 0.023711 -0.001219 -0.004766 0.000000 0.032071 0.000000
# 6 0.000000 0.000000 0.000000 -0.009255 0.000000 0.047374
#
#
# Mechanical properties :
#
#
# Convention : Reuss Voigt Hill
#
# Bulk Modulus (GPa) = 35.57024 90.48846 63.02935
# Shear Modulus (GPa) = 23.87074 38.85028 31.36051
#
# Velocity S-wave (km/s) = 3.17529 4.05087 3.63950
# Velocity P-wave (km/s) = 5.33548 7.75240 6.65459
#
# Compressibility (1/GPa) = 0.02811339
#
# Stress axis : x y z
#
# Youngs Moduli (GPa) = 25.21272 112.64813 130.16166
#
# Poissons Ratio (x) = 0.24054 1.16822
# Poissons Ratio (y) = 0.05384 0.38320
# Poissons Ratio (z) = 0.22629 0.33164
#
# Static dielectric constant tensor:
#      x y z
#    x 2.037040 0.000000 -0.044900 
#    y 0.000000 1.918610 0.000000 
#    z -0.044900 0.000000 1.973890 
# 
# From -- ./inp_files/115315.got.cif
#   From: 2010.05.17/outbox.cif.g08.bks.cpg/sg15_58_cif.got.tgz:115315.got - 2010.06.03 18:47:42.
