data_PCOD9304091
_publ_section_title
;
Structure prediction by ZEFSAII (Michael W. Deem and Ramdas Pophale) SiO2 
 PCOD9304091
Probable space group: C 2/C
;
_chemical_formula_sum "Si O2"
_cell_formula_units_Z 44
_cell_length_a 13.830693
_cell_length_b 16.289094
_cell_length_c 8.720636
_cell_angle_alpha 90.000000
_cell_angle_beta 60.432537
_cell_angle_gamma 90.000000
_cell_volume 1708.819120
_symmetry_space_group_name_H-M "C 2/C"
_symmetry_group_IT_number 15
_symmetry_cell_setting 'monoclinic'
loop_
_space_group_symop_operation_xyz
x,y,z
-x,y,1/2-z
-x,-y,-z
x,-y,1/2+z
1/2+x,1/2+y,z
1/2-x,1/2+y,1/2-z
1/2-x,1/2-y,-z
1/2+x,1/2-y,1/2+z
loop_
_atom_site_type_symbol
_atom_site_label
_atom_site_fract_x
_atom_site_fract_y
_atom_site_fract_z
Si Si1 0.417191 0.465202 0.689569
Si Si2 0.288540 0.664410 0.093427
Si Si3 0.801454 0.449828 0.058282
Si Si4 0.857647 0.239022 0.569527
Si Si5 0.000000 0.225521 0.750000
Si Si6 0.818501 0.381873 0.373646
O O1 0.500000 0.430462 0.750000
O O2 0.500000 0.500000 0.500000
O O3 0.339985 0.401640 0.665891
O O4 0.331746 0.533046 0.819050
O O5 0.245048 0.733474 0.240832
O O6 0.188762 0.620186 0.078611
O O7 0.382150 0.688986 0.899650
O O8 0.848535 0.416216 0.181259
O O9 0.838610 0.538560 0.966183
O O10 0.870679 0.303532 0.419934
O O11 0.810374 0.151271 0.545941
O O12 0.959516 0.249119 0.607043
#
# Coordination Sequence:
#
# PCOD9304091 Si02
#       6
#     8   8   8   8   4   8
#     4  12  22  32  58 104 139 164 214 270 351 416
#     4  12  24  42  68  99 142 183 217 289 353 405
#     4  12  21  39  67  98 134 179 221 286 346 410
#     4  11  26  45  67  99 143 190 228 277 351 413
#     4  12  26  42  70 100 140 186 238 278 326 438
#     4  11  23  42  67 102 137 184 228 275 353 424
#
# _framework density 25.748774999999998
#
# number of rings (size 3 to 8) (size 9 to 14) (size 15 to 20)
#    0.000    0.364    7.273    1.636    2.545    0.000 
#    0.000    0.000    0.000    4.364    0.000    0.000 
#    0.000    0.000    0.000    0.000    0.000    0.000 
#
# Total GULP energy -122787.274928 kJ/mol
# GULP energy per Si atom -5581.239769 kJ/mol
# Density = 2.569017 g / cm^3
# Si number density = 25.748775 Si / 1000 Ang^3
#
#
#
# Elastic Constant Matrix: (Units=GPa)
#
#
# Indices 1 2 3 4 5 6 
#
# 1 96.0935 20.0714 23.7790 0.0000 63.5014 0.0000
# 2 20.0714 91.4536 26.3419 0.0000 34.7810 0.0000
# 3 23.7790 26.3419 81.4564 0.0000 44.2115 0.0000
# 4 0.0000 0.0000 0.0000 48.9151 0.0000 0.8091
# 5 63.5014 34.7810 44.2115 0.0000 72.3586 0.0000
# 6 0.0000 0.0000 0.0000 0.8091 0.0000 -90.9554
#
#
#
# Elastic Compliance Matrix: (Units=1/GPa)
#
#
# Indices 1 2 3 4 5 6 
#
# 1 0.028475 0.003469 0.007532 0.000000 -0.031259 0.000000
# 2 0.003469 0.013889 -0.000341 0.000000 -0.009512 0.000000
# 3 0.007532 -0.000341 0.020478 0.000000 -0.018958 0.000000
# 4 0.000000 0.000000 0.000000 0.020441 0.000000 0.000182
# 5 -0.031259 -0.009512 -0.018958 0.000000 0.057408 0.000000
# 6 0.000000 0.000000 0.000000 0.000182 0.000000 -0.010993
#
#
# Mechanical properties :
#
#
# Convention : Reuss Voigt Hill
#
# Bulk Modulus (GPa) = 11.88194 45.48758 28.68476
# Shear Modulus (GPa) = 36.64819 19.31774 27.98296
#
# Velocity S-wave (km/s) = 3.77676 2.74202 3.30019
# Velocity P-wave (km/s) = 4.86242 5.26585 5.06815
#
# Compressibility (1/GPa) = 0.08416132
#
# Stress axis : x y z
#
# Youngs Moduli (GPa) = 35.11853 71.99925 48.83330
#
# Poissons Ratio (x) = -0.24979 -0.36780
# Poissons Ratio (y) = -0.12184 0.01667
# Poissons Ratio (z) = -0.26451 0.02459
#
# Static dielectric constant tensor:
#      x y z
#    x 2.047800 0.000000 0.011400 
#    y 0.000000 2.038740 0.000000 
#    z 0.011400 0.000000 2.122680 
# 
# From -- ./inp_files/39056.got.cif
#   From: 2010.05.17/outbox.cif.g08.bks.cpg/sg15_20_cif.got.tgz:39056.got - 2010.06.03 18:47:42.
