data_PCOD9304440
_publ_section_title
;
Structure prediction by ZEFSAII (Michael W. Deem and Ramdas Pophale) SiO2 
 PCOD9304440
Probable space group: C 2/C
;
_chemical_formula_sum "Si O2"
_cell_formula_units_Z 32
_cell_length_a 5.266659
_cell_length_b 18.595964
_cell_length_c 13.367485
_cell_angle_alpha 90.000000
_cell_angle_beta 97.841787
_cell_angle_gamma 90.000000
_cell_volume 1296.949992
_symmetry_space_group_name_H-M "C 2/C"
_symmetry_group_IT_number 15
_symmetry_cell_setting 'monoclinic'
loop_
_space_group_symop_operation_xyz
x,y,z
-x,y,1/2-z
-x,-y,-z
x,-y,1/2+z
1/2+x,1/2+y,z
1/2-x,1/2+y,1/2-z
1/2-x,1/2-y,-z
1/2+x,1/2-y,1/2+z
loop_
_atom_site_type_symbol
_atom_site_label
_atom_site_fract_x
_atom_site_fract_y
_atom_site_fract_z
Si Si1 0.716580 0.577980 0.183121
Si Si2 0.491374 0.726863 0.862400
Si Si3 0.686417 0.921377 0.355269
Si Si4 0.918344 0.346813 0.505341
O O1 0.500000 0.600695 0.250000
O O2 0.660580 0.495435 0.146787
O O3 0.734669 0.624531 0.083446
O O4 0.000000 0.578423 0.250000
O O5 0.500000 0.753143 0.750000
O O6 0.339768 0.652660 0.857257
O O7 0.396250 0.791697 0.926778
O O8 0.768823 0.701629 0.916770
O O9 0.500000 0.920877 0.250000
O O10 0.540710 0.912919 0.452772
#
# Coordination Sequence:
#
# PCOD9304440 Si02
#       4
#     8   8   8   8
#     4  11  27  48  74 108 148 188 241 299 357 429
#     4  11  23  44  68 101 145 186 240 296 356 430
#     4  11  23  44  73 103 142 191 237 297 359 431
#     4  11  25  44  70 105 138 195 235 294 364 426
#
# _framework density 24.673272000000001
#
# number of rings (size 3 to 8) (size 9 to 14) (size 15 to 20)
#    0.000    1.000    2.500    3.000    7.000    1.000 
#    9.000    0.000    0.000    0.000    0.000    0.000 
#    0.000    0.000    0.000    0.000    0.000    0.000 
#
# Total GULP energy -89567.691997 kJ/mol
# GULP energy per Si atom -5597.980750 kJ/mol
# Density = 2.461711 g / cm^3
# Si number density = 24.673272 Si / 1000 Ang^3
#
#
#
# Elastic Constant Matrix: (Units=GPa)
#
#
# Indices 1 2 3 4 5 6 
#
# 1 63.8748 7.2085 39.3649 0.0000 -16.7117 0.0000
# 2 7.2085 115.5804 43.9299 0.0000 -2.7057 0.0000
# 3 39.3649 43.9299 171.7649 0.0000 -22.5564 0.0000
# 4 0.0000 0.0000 0.0000 38.1123 0.0000 -17.5294
# 5 -16.7117 -2.7057 -22.5564 0.0000 44.2723 0.0000
# 6 0.0000 0.0000 0.0000 -17.5294 0.0000 30.5472
#
#
#
# Elastic Compliance Matrix: (Units=1/GPa)
#
#
# Indices 1 2 3 4 5 6 
#
# 1 0.019384 0.000373 -0.003830 0.000000 0.005388 0.000000
# 2 0.000373 0.009612 -0.002624 0.000000 -0.000609 0.000000
# 3 -0.003830 -0.002624 0.007673 0.000000 0.002303 0.000000
# 4 0.000000 0.000000 0.000000 0.035647 0.000000 0.020456
# 5 0.005388 -0.000609 0.002303 0.000000 0.025758 0.000000
# 6 0.000000 0.000000 0.000000 0.020456 0.000000 0.044475
#
#
# Mechanical properties :
#
#
# Convention : Reuss Voigt Hill
#
# Bulk Modulus (GPa) = 40.80467 59.13631 49.97049
# Shear Modulus (GPa) = 30.69775 39.96747 35.33261
#
# Velocity S-wave (km/s) = 3.53111 4.02913 3.78831
# Velocity P-wave (km/s) = 5.76185 6.75758 6.27948
#
# Compressibility (1/GPa) = 0.02450700
#
# Stress axis : x y z
#
# Youngs Moduli (GPa) = 51.58963 104.04018 130.32406
#
# Poissons Ratio (x) = -0.03880 0.49916
# Poissons Ratio (y) = -0.01924 0.34192
# Poissons Ratio (z) = 0.19760 0.27296
#
# Static dielectric constant tensor:
#      x y z
#    x 2.039910 0.000000 -0.023480 
#    y 0.000000 1.936940 0.000000 
#    z -0.023480 0.000000 1.953140 
# 
# From -- ./inp_files/71852.got.cif
#   From: 2010.05.17/outbox.cif.g08.bks.cpg/sg15_36_cif.got.tgz:71852.got - 2010.06.03 18:47:42.
