data_PCOD9304230
_publ_section_title
;
Structure prediction by ZEFSAII (Michael W. Deem and Ramdas Pophale) SiO2 
 PCOD9304230
Probable space group: C 2/C
;
_chemical_formula_sum "Si O2"
_cell_formula_units_Z 44
_cell_length_a 23.946350
_cell_length_b 13.822944
_cell_length_c 10.604307
_cell_angle_alpha 90.000000
_cell_angle_beta 138.838215
_cell_angle_gamma 90.000000
_cell_volume 2310.318081
_symmetry_space_group_name_H-M "C 2/C"
_symmetry_group_IT_number 15
_symmetry_cell_setting 'monoclinic'
loop_
_space_group_symop_operation_xyz
x,y,z
-x,y,1/2-z
-x,-y,-z
x,-y,1/2+z
1/2+x,1/2+y,z
1/2-x,1/2+y,1/2-z
1/2-x,1/2-y,-z
1/2+x,1/2-y,1/2+z
loop_
_atom_site_type_symbol
_atom_site_label
_atom_site_fract_x
_atom_site_fract_y
_atom_site_fract_z
Si Si1 0.063680 0.717902 0.577775
Si Si2 0.500000 0.081089 0.250000
Si Si3 0.634013 0.915657 0.422178
Si Si4 0.398083 0.447784 0.577777
Si Si5 0.076947 0.750010 0.980766
Si Si6 0.665514 0.415539 0.750063
O O1 0.100825 0.649071 0.749902
O O2 0.128781 0.806514 0.673767
O O3 0.043639 0.650684 0.425885
O O4 0.972158 0.758044 0.471216
O O5 0.574327 0.009668 0.326381
O O6 0.621483 0.851699 0.528740
O O7 0.733559 0.927857 0.574008
O O8 0.500000 0.451807 0.750000
O O9 0.370486 0.343685 0.471267
O O10 0.369187 0.453196 0.673653
O O11 0.365804 0.527245 0.425861
O O12 0.000000 0.750015 0.750000
#
# Coordination Sequence:
#
# PCOD9304230 Si02
#       6
#     8   4   8   8   8   8
#     4  11  23  43  65  97 127 178 221 268 333 396
#     4  12  26  38  72  98 136 172 224 278 324 402
#     4  11  23  43  65  97 127 178 221 268 333 396
#     4  11  23  43  65  97 127 178 221 268 333 396
#     4   9  18  39  66  82 122 169 213 253 326 391
#     4  12  26  38  72  98 136 172 224 278 324 402
#
# _framework density 19.044995
#
# number of rings (size 3 to 8) (size 9 to 14) (size 15 to 20)
#    0.000    1.091    8.182    1.636    3.818    0.000 
#    0.000    0.000    0.000    4.364    0.000    0.000 
#    0.000    0.000    0.000    0.000    0.000    0.000 
#
# Total GULP energy -122660.018775 kJ/mol
# GULP energy per Si atom -5575.455399 kJ/mol
# Density = 1.900165 g / cm^3
# Si number density = 19.044995 Si / 1000 Ang^3
#
#
#
# Elastic Constant Matrix: (Units=GPa)
#
#
# Indices 1 2 3 4 5 6 
#
# 1 95.7926 66.6719 64.0179 0.0000 19.9328 0.0000
# 2 66.6719 101.9827 57.3347 0.0000 -20.0923 0.0000
# 3 64.0179 57.3347 96.4317 0.0000 0.5078 0.0000
# 4 0.0000 0.0000 0.0000 16.0203 0.0000 -20.2015
# 5 19.9328 -20.0923 0.5078 0.0000 22.6231 0.0000
# 6 0.0000 0.0000 0.0000 -20.2015 0.0000 22.7234
#
#
#
# Elastic Compliance Matrix: (Units=1/GPa)
#
#
# Indices 1 2 3 4 5 6 
#
# 1 -0.144105 0.134703 0.014280 0.000000 0.246281 0.000000
# 2 0.134703 -0.105715 -0.025454 0.000000 -0.212002 0.000000
# 3 0.014280 -0.025454 0.016211 0.000000 -0.035553 0.000000
# 4 0.000000 0.000000 0.000000 -0.515679 0.000000 -0.458448
# 5 0.246281 -0.212002 -0.035553 0.000000 -0.360279 0.000000
# 6 0.000000 0.000000 0.000000 -0.458448 0.000000 -0.363562
#
#
# Mechanical properties :
#
#
# Convention : Reuss Voigt Hill
#
# Bulk Modulus (GPa) = 74.35403 74.47288 74.41346
# Shear Modulus (GPa) = -2.91426 19.35221 8.21898
#
# Velocity S-wave (km/s) = -1.23835 3.19114 2.07965
# Velocity P-wave (km/s) = 6.08944 7.26405 6.70252
#
# Compressibility (1/GPa) = 0.01344917
#
# Stress axis : x y z
#
# Youngs Moduli (GPa) = -6.93940 -9.45941 61.68568
#
# Poissons Ratio (x) = 1.27421 -0.88089
# Poissons Ratio (y) = 0.93476 1.57016
# Poissons Ratio (z) = 0.09910 -0.24078
#
# Static dielectric constant tensor:
#      x y z
#    x 1.742540 0.000000 0.007890 
#    y 0.000000 1.743070 0.000000 
#    z 0.007890 0.000000 1.645530 
# 
# From -- ./inp_files/118107.got.cif
#   From: 2010.05.17/outbox.cif.g08.bks.cpg/sg15_60_cif.got.tgz:118107.got - 2010.06.03 18:47:42.
