data_PCOD9304728
_publ_section_title
;
Structure prediction by ZEFSAII (Michael W. Deem and Ramdas Pophale) SiO2 
 PCOD9304728
Probable space group: C 2/C
;
_chemical_formula_sum "Si O2"
_cell_formula_units_Z 56
_cell_length_a 18.092683
_cell_length_b 14.178333
_cell_length_c 20.158686
_cell_angle_alpha 90.000000
_cell_angle_beta 152.209757
_cell_angle_gamma 90.000000
_cell_volume 2410.994210
_symmetry_space_group_name_H-M "C 2/C"
_symmetry_group_IT_number 15
_symmetry_cell_setting 'monoclinic'
loop_
_space_group_symop_operation_xyz
x,y,z
-x,y,1/2-z
-x,-y,-z
x,-y,1/2+z
1/2+x,1/2+y,z
1/2-x,1/2+y,1/2-z
1/2-x,1/2-y,-z
1/2+x,1/2-y,1/2+z
loop_
_atom_site_type_symbol
_atom_site_label
_atom_site_fract_x
_atom_site_fract_y
_atom_site_fract_z
Si Si1 0.258052 0.165734 0.746631
Si Si2 0.339459 0.203023 0.664442
Si Si3 0.201763 0.609167 0.102178
Si Si4 0.555808 0.939948 0.900202
Si Si5 0.925108 0.000405 0.866747
Si Si6 0.743361 0.009057 0.420282
Si Si7 0.029673 0.713554 0.484104
O O1 0.353419 0.182955 0.755139
O O2 0.236016 0.060610 0.754350
O O3 0.076616 0.195406 0.592887
O O4 0.311211 0.230733 0.849329
O O5 0.500000 0.212536 0.750000
O O6 0.242995 0.301131 0.587718
O O7 0.258739 0.105637 0.575752
O O8 0.357873 0.587794 0.271052
O O9 0.064948 0.640073 0.044136
O O10 0.137063 0.519985 0.010455
O O11 0.556036 0.839287 0.936620
O O12 0.376697 0.966574 0.735521
O O13 0.661844 0.943668 0.918479
O O14 0.000000 0.000000 0.000000
O O15 0.075337 0.038591 0.944607
#
# Coordination Sequence:
#
# PCOD9304728 Si02
#       7
#     8   8   8   8   8   8   8
#     4  11  26  46  72 103 136 182 237 290 346 411
#     4  11  24  43  65 104 146 179 223 281 354 410
#     4  11  26  40  69  99 145 187 226 280 345 423
#     4  11  23  46  67  98 136 186 228 283 352 414
#     4  12  25  44  69 102 139 189 241 284 341 419
#     4  11  25  41  71  99 139 184 231 285 347 419
#     4  11  25  45  71  99 134 179 236 289 345 410
#
# _framework density 23.226934
#
# number of rings (size 3 to 8) (size 9 to 14) (size 15 to 20)
#    0.000    0.857    4.286    2.143    8.000    1.714 
#    0.000    0.714    0.000    0.000    0.000    0.000 
#    0.000    0.000    0.000    0.000    0.000    0.000 
#
# Total GULP energy -156345.542098 kJ/mol
# GULP energy per Si atom -5583.769361 kJ/mol
# Density = 2.317407 g / cm^3
# Si number density = 23.226934 Si / 1000 Ang^3
#
#
#
# Elastic Constant Matrix: (Units=GPa)
#
#
# Indices 1 2 3 4 5 6 
#
# 1 116.8721 44.0230 23.8368 0.0003 6.5968 -0.0001
# 2 44.0230 52.2712 3.0349 0.0013 -1.0664 0.0005
# 3 23.8368 3.0349 68.7108 0.0029 5.9709 0.0006
# 4 0.0003 0.0013 0.0029 26.4590 0.0001 5.2423
# 5 6.5968 -1.0664 5.9709 0.0001 34.2539 -0.0003
# 6 -0.0001 0.0005 0.0006 5.2423 -0.0003 41.5594
#
#
#
# Elastic Compliance Matrix: (Units=1/GPa)
#
#
# Indices 1 2 3 4 5 6 
#
# 1 0.013841 -0.011466 -0.004095 0.000001 -0.002309 0.000000
# 2 -0.011466 0.028698 0.002478 -0.000002 0.002670 0.000000
# 3 -0.004095 0.002478 0.016032 -0.000002 -0.001929 0.000000
# 4 0.000001 -0.000002 -0.000002 0.038763 0.000000 -0.004890
# 5 -0.002309 0.002670 -0.001929 0.000000 0.030058 0.000000
# 6 0.000000 0.000000 0.000000 -0.004890 0.000000 0.024679
#
#
# Mechanical properties :
#
#
# Convention : Reuss Voigt Hill
#
# Bulk Modulus (GPa) = 30.85787 42.18263 36.52025
# Shear Modulus (GPa) = 26.44967 31.58509 29.01738
#
# Velocity S-wave (km/s) = 3.37820 3.69161 3.53838
# Velocity P-wave (km/s) = 5.34140 6.03085 5.69656
#
# Compressibility (1/GPa) = 0.03240664
#
# Stress axis : x y z
#
# Youngs Moduli (GPa) = 72.25006 34.84515 62.37386
#
# Poissons Ratio (x) = 0.39954 0.25539
# Poissons Ratio (y) = 0.82843 -0.15458
# Poissons Ratio (z) = 0.29583 -0.08635
#
# Static dielectric constant tensor:
#      x y z
#    x 1.836120 0.000000 -0.052600 
#    y 0.000000 1.923740 0.000000 
#    z -0.052600 0.000000 2.067060 
# 
# From -- ./inp_files/249293.got.cif
#   From: 2010.05.17/outbox.cif.g08.bks.cpg/sg15_125_cif.got.tgz:249293.got - 2010.06.03 18:47:42.
