data_PCOD9304009
_publ_section_title
;
Structure prediction by ZEFSAII (Michael W. Deem and Ramdas Pophale) SiO2 
 PCOD9304009
Probable space group: C 2/C
;
_chemical_formula_sum "Si O2"
_cell_formula_units_Z 64
_cell_length_a 8.628487
_cell_length_b 18.850587
_cell_length_c 30.075908
_cell_angle_alpha 90.000000
_cell_angle_beta 40.636176
_cell_angle_gamma 90.000000
_cell_volume 3185.872088
_symmetry_space_group_name_H-M "C 2/C"
_symmetry_group_IT_number 15
_symmetry_cell_setting 'monoclinic'
loop_
_space_group_symop_operation_xyz
x,y,z
-x,y,1/2-z
-x,-y,-z
x,-y,1/2+z
1/2+x,1/2+y,z
1/2-x,1/2+y,1/2-z
1/2-x,1/2-y,-z
1/2+x,1/2-y,1/2+z
loop_
_atom_site_type_symbol
_atom_site_label
_atom_site_fract_x
_atom_site_fract_y
_atom_site_fract_z
Si Si1 0.429462 0.139789 0.697888
Si Si2 0.727287 0.402175 0.817339
Si Si3 0.033416 0.798776 0.691662
Si Si4 0.419647 0.191043 0.441275
Si Si5 0.660521 0.569721 0.830476
Si Si6 0.941248 0.333851 0.428084
Si Si7 0.888699 0.578278 0.524546
Si Si8 0.090444 0.817014 0.930711
O O1 0.406377 0.223813 0.710947
O O2 0.212354 0.102339 0.770547
O O3 0.660483 0.109095 0.674084
O O4 0.462945 0.131024 0.637917
O O5 0.566448 0.361138 0.816917
O O6 0.716154 0.486533 0.816229
O O7 0.629943 0.378146 0.886287
O O8 0.000000 0.379388 0.750000
O O9 0.309109 0.784691 0.620962
O O10 0.000000 0.818499 0.750000
O O11 0.250000 0.250000 0.500000
O O12 0.420768 0.121027 0.471653
O O13 0.309802 0.180811 0.416556
O O14 0.391184 0.577749 0.904296
O O15 0.655726 0.324160 0.488330
O O16 0.991081 0.378477 0.461481
O O17 0.061378 0.257078 0.410427
O O18 0.000000 0.500000 0.500000
#
# Coordination Sequence:
#
# PCOD9304009 Si02
#       8
#     8   8   8   8   8   8   8   8
#     4  11  23  44  72  98 133 186 230 286 350 428
#     4  12  25  46  69 101 141 181 234 296 351 418
#     4  12  24  43  70 103 136 180 238 286 346 420
#     4  12  24  42  70 103 140 180 231 289 350 413
#     4  11  24  47  69  95 141 186 230 279 362 428
#     4  11  23  42  67 103 134 174 229 290 343 414
#     4  12  26  44  68 100 140 181 230 294 352 419
#     4  11  23  41  70 100 136 175 230 287 348 408
#
# _framework density 20.08869
#
# number of rings (size 3 to 8) (size 9 to 14) (size 15 to 20)
#    0.000    0.500    5.000    5.250    0.000    2.500 
#    4.500    2.500    0.000    0.000    0.000    0.000 
#    0.000    0.000    0.000    0.000    0.000    0.000 
#
# Total GULP energy -179016.830799 kJ/mol
# GULP energy per Si atom -5594.275962 kJ/mol
# Density = 2.004297 g / cm^3
# Si number density = 20.088690 Si / 1000 Ang^3
#
#
#
# Elastic Constant Matrix: (Units=GPa)
#
#
# Indices 1 2 3 4 5 6 
#
# 1 51.4350 8.1706 10.1419 0.0040 12.8986 0.0020
# 2 8.1706 102.9930 19.5266 0.0004 12.7891 0.0021
# 3 10.1419 19.5266 101.6829 0.0181 8.7240 -0.0013
# 4 0.0040 0.0004 0.0181 37.6768 -0.0069 0.1844
# 5 12.8986 12.7891 8.7240 -0.0069 34.7183 0.0005
# 6 0.0020 0.0021 -0.0013 0.1844 0.0005 23.9168
#
#
#
# Elastic Compliance Matrix: (Units=1/GPa)
#
#
# Indices 1 2 3 4 5 6 
#
# 1 0.021688 -0.000519 -0.001419 -0.000003 -0.007510 -0.000002
# 2 -0.000519 0.010472 -0.001681 0.000000 -0.003242 -0.000001
# 3 -0.001419 -0.001681 0.010425 -0.000005 -0.001473 0.000001
# 4 -0.000003 0.000000 -0.000005 0.026543 0.000008 -0.000205
# 5 -0.007510 -0.003242 -0.001473 0.000008 0.033158 0.000000
# 6 -0.000002 -0.000001 0.000001 -0.000205 0.000000 0.041813
#
#
# Mechanical properties :
#
#
# Convention : Reuss Voigt Hill
#
# Bulk Modulus (GPa) = 28.29142 36.86544 32.57843
# Shear Modulus (GPa) = 30.65257 33.81385 32.23321
#
# Velocity S-wave (km/s) = 3.91047 4.10717 4.01002
# Velocity P-wave (km/s) = 5.87391 6.39398 6.13945
#
# Compressibility (1/GPa) = 0.03534640
#
# Stress axis : x y z
#
# Youngs Moduli (GPa) = 46.10945 95.49376 95.92092
#
# Poissons Ratio (x) = 0.04955 0.13613
# Poissons Ratio (y) = 0.02393 0.16125
# Poissons Ratio (z) = 0.06544 0.16053
#
# Static dielectric constant tensor:
#      x y z
#    x 1.711920 0.000000 -0.020710 
#    y 0.000000 1.681250 0.000000 
#    z -0.020710 0.000000 1.730790 
# 
# From -- ./inp_files/308763.got.cif
#   From: 2010.05.17/outbox.cif.g08.bks.cpg/sg15_155_cif.got.tgz:308763.got - 2010.06.03 18:47:42.
