data_PCOD9304995
_publ_section_title
;
Structure prediction by ZEFSAII (Michael W. Deem and Ramdas Pophale) SiO2 
 PCOD9304995
Probable space group: C 2/C
;
_chemical_formula_sum "Si O2"
_cell_formula_units_Z 48
_cell_length_a 16.200036
_cell_length_b 14.635189
_cell_length_c 14.189122
_cell_angle_alpha 90.000000
_cell_angle_beta 38.290952
_cell_angle_gamma 90.000000
_cell_volume 2084.586218
_symmetry_space_group_name_H-M "C 2/C"
_symmetry_group_IT_number 15
_symmetry_cell_setting 'monoclinic'
loop_
_space_group_symop_operation_xyz
x,y,z
-x,y,1/2-z
-x,-y,-z
x,-y,1/2+z
1/2+x,1/2+y,z
1/2-x,1/2+y,1/2-z
1/2-x,1/2-y,-z
1/2+x,1/2-y,1/2+z
loop_
_atom_site_type_symbol
_atom_site_label
_atom_site_fract_x
_atom_site_fract_y
_atom_site_fract_z
Si Si1 0.500000 0.555401 0.250000
Si Si2 0.627048 0.493246 0.953590
Si Si3 0.089376 0.657832 0.020854
Si Si4 0.878605 0.600368 0.709929
Si Si5 0.287911 0.809157 0.765602
Si Si6 0.683950 0.716296 0.156219
Si Si7 0.500000 0.037822 0.250000
O O1 0.425357 0.494986 0.393390
O O2 0.603173 0.623972 0.208950
O O3 0.720274 0.582060 0.857655
O O4 0.717493 0.405903 0.849529
O O5 0.500000 0.500000 0.000000
O O6 0.107916 0.600469 0.099438
O O7 0.939984 0.697226 0.161635
O O8 0.084468 0.594476 0.932125
O O9 0.198804 0.732725 0.897042
O O10 0.908684 0.700873 0.723434
O O11 0.942435 0.526377 0.720762
O O12 0.280968 0.798498 0.658234
O O13 0.750000 0.750000 0.000000
#
# Coordination Sequence:
#
# PCOD9304995 Si02
#       7
#     4   8   8   8   8   8   4
#     4  12  25  43  70 110 138 192 236 301 359 440
#     4  12  26  46  69 110 149 190 241 301 376 429
#     4  11  28  48  76 105 147 196 247 302 374 431
#     4  11  26  44  74 107 143 187 245 307 363 433
#     4  11  27  49  71 106 152 192 243 308 366 438
#     4  11  24  40  71 102 141 180 239 294 371 421
#     4  12  25  47  72 104 140 196 250 295 361 448
#
# _framework density 23.026153999999998
#
# number of rings (size 3 to 8) (size 9 to 14) (size 15 to 20)
#    0.000    0.667    5.000    1.000   11.667    2.667 
#    0.000    0.000    0.000    0.000    0.000    0.000 
#    0.000    0.000    0.000    0.000    0.000    0.000 
#
# Total GULP energy -134363.033818 kJ/mol
# GULP energy per Si atom -5598.459742 kJ/mol
# Density = 2.297375 g / cm^3
# Si number density = 23.026154 Si / 1000 Ang^3
#
#
#
# Elastic Constant Matrix: (Units=GPa)
#
#
# Indices 1 2 3 4 5 6 
#
# 1 60.4500 20.7519 35.9252 0.0000 4.0744 0.0000
# 2 20.7519 56.3455 35.6573 0.0000 18.0624 0.0000
# 3 35.9252 35.6573 144.0822 0.0000 22.7945 0.0000
# 4 0.0000 0.0000 0.0000 42.2229 0.0000 17.4307
# 5 4.0744 18.0624 22.7945 0.0000 53.7401 0.0000
# 6 0.0000 0.0000 0.0000 17.4307 0.0000 22.6918
#
#
#
# Elastic Compliance Matrix: (Units=1/GPa)
#
#
# Indices 1 2 3 4 5 6 
#
# 1 0.020808 -0.005740 -0.004098 0.000000 0.002090 0.000000
# 2 -0.005740 0.024084 -0.003556 0.000000 -0.006151 0.000000
# 3 -0.004098 -0.003556 0.009223 0.000000 -0.002406 0.000000
# 4 0.000000 0.000000 0.000000 0.034682 0.000000 -0.026641
# 5 0.002090 -0.006151 -0.002406 0.000000 0.021538 0.000000
# 6 0.000000 0.000000 0.000000 -0.026641 0.000000 0.064533
#
#
# Mechanical properties :
#
#
# Convention : Reuss Voigt Hill
#
# Bulk Modulus (GPa) = 36.59463 49.50517 43.04990
# Shear Modulus (GPa) = 23.72321 34.96717 29.34519
#
# Velocity S-wave (km/s) = 3.21327 3.90113 3.57379
# Velocity P-wave (km/s) = 5.44921 6.46823 5.98046
#
# Compressibility (1/GPa) = 0.02732642
#
# Stress axis : x y z
#
# Youngs Moduli (GPa) = 48.05897 41.52174 108.42414
#
# Poissons Ratio (x) = 0.23833 0.44436
# Poissons Ratio (y) = 0.27585 0.38555
# Poissons Ratio (z) = 0.19696 0.14765
#
# Static dielectric constant tensor:
#      x y z
#    x 2.180400 0.000000 0.028400 
#    y 0.000000 1.865730 0.000000 
#    z 0.028400 0.000000 1.845360 
# 
# From -- ./inp_files/162170.got.cif
#   From: 2010.05.17/outbox.cif.g08.bks.cpg/sg15_82_cif.got.tgz:162170.got - 2010.06.03 18:47:42.
