data_PCOD9304097
_publ_section_title
;
Structure prediction by ZEFSAII (Michael W. Deem and Ramdas Pophale) SiO2 
 PCOD9304097
Probable space group: C 2/C
;
_chemical_formula_sum "Si O2"
_cell_formula_units_Z 40
_cell_length_a 17.635788
_cell_length_b 25.103136
_cell_length_c 9.994085
_cell_angle_alpha 90.000000
_cell_angle_beta 150.130535
_cell_angle_gamma 90.000000
_cell_volume 2203.523133
_symmetry_space_group_name_H-M "C 2/C"
_symmetry_group_IT_number 15
_symmetry_cell_setting 'monoclinic'
loop_
_space_group_symop_operation_xyz
x,y,z
-x,y,1/2-z
-x,-y,-z
x,-y,1/2+z
1/2+x,1/2+y,z
1/2-x,1/2+y,1/2-z
1/2-x,1/2-y,-z
1/2+x,1/2-y,1/2+z
loop_
_atom_site_type_symbol
_atom_site_label
_atom_site_fract_x
_atom_site_fract_y
_atom_site_fract_z
Si Si1 0.318327 0.546279 0.959671
Si Si2 0.888278 0.654639 0.461543
Si Si3 0.895874 0.640027 0.965050
Si Si4 0.824277 0.754891 0.967329
Si Si5 0.178586 0.462629 0.539981
O O1 0.235318 0.599017 0.775973
O O2 0.265959 0.499915 0.778099
O O3 0.500000 0.551188 0.250000
O O4 0.252658 0.535232 0.007030
O O5 0.764697 0.699615 0.246816
O O6 0.820872 0.597898 0.404146
O O7 0.989518 0.646320 0.483972
O O8 0.000000 0.672584 0.750000
O O9 0.826584 0.697252 0.899855
O O10 0.000000 0.621857 0.250000
O O11 0.750000 0.750000 0.000000
O O12 0.000000 0.770413 0.250000
O O13 0.000000 0.477663 0.250000
#
# Coordination Sequence:
#
# PCOD9304097 Si02
#       5
#     8   8   8   8   8
#     4  12  26  43  66 102 132 166 220 273 327 379
#     4  11  23  44  67  99 132 168 223 268 321 386
#     4  11  23  44  68  94 132 176 215 263 327 395
#     4  11  23  42  67  96 129 172 220 261 322 386
#     4  11  24  44  69  94 131 175 218 261 327 395
#
# _framework density 18.152747000000002
#
# number of rings (size 3 to 8) (size 9 to 14) (size 15 to 20)
#    0.000    0.800    8.000    1.800    2.800    4.000 
#    0.000    0.000    0.000    0.000    0.000    0.000 
#    0.000    0.000    0.000    0.000    0.000    0.000 
#
# Total GULP energy -111768.052534 kJ/mol
# GULP energy per Si atom -5588.402627 kJ/mol
# Density = 1.811143 g / cm^3
# Si number density = 18.152747 Si / 1000 Ang^3
#
#
#
# Elastic Constant Matrix: (Units=GPa)
#
#
# Indices 1 2 3 4 5 6 
#
# 1 155.7935 46.3976 103.6811 0.0000 -7.0116 0.0000
# 2 46.3976 136.1680 123.8487 0.0000 2.0496 0.0000
# 3 103.6811 123.8487 192.5523 0.0000 7.3228 0.0000
# 4 0.0000 0.0000 0.0000 51.5067 0.0000 -9.5037
# 5 -7.0116 2.0496 7.3228 0.0000 39.5189 0.0000
# 6 0.0000 0.0000 0.0000 -9.5037 0.0000 25.8549
#
#
#
# Elastic Compliance Matrix: (Units=1/GPa)
#
#
# Indices 1 2 3 4 5 6 
#
# 1 0.011229 0.004193 -0.008873 0.000000 0.003419 0.000000
# 2 0.004193 0.019318 -0.014777 0.000000 0.002480 0.000000
# 3 -0.008873 -0.014777 0.019645 0.000000 -0.004448 0.000000
# 4 0.000000 0.000000 0.000000 0.020828 0.000000 0.007656
# 5 0.003419 0.002480 -0.004448 0.000000 0.026607 0.000000
# 6 0.000000 0.000000 0.000000 0.007656 0.000000 0.041492
#
#
# Mechanical properties :
#
#
# Convention : Reuss Voigt Hill
#
# Bulk Modulus (GPa) = 88.67654 114.70762 101.69208
# Shear Modulus (GPa) = 27.50382 37.41520 32.45951
#
# Velocity S-wave (km/s) = 3.89669 4.54489 4.23322
# Velocity P-wave (km/s) = 8.31877 9.53251 8.94625
#
# Compressibility (1/GPa) = 0.01127694
#
# Stress axis : x y z
#
# Youngs Moduli (GPa) = 89.05451 51.76411 50.90317
#
# Poissons Ratio (x) = -0.21703 0.45167
# Poissons Ratio (y) = -0.37338 0.75222
# Poissons Ratio (z) = 0.79019 0.76494
#
# Static dielectric constant tensor:
#      x y z
#    x 1.465390 0.000000 0.032900 
#    y 0.000000 1.617790 0.000000 
#    z 0.032900 0.000000 1.587470 
# 
# From -- ./inp_files/52260.got.cif
#   From: 2010.05.17/outbox.cif.g08.bks.cpg/sg15_27_cif.got.tgz:52260.got - 2010.06.03 18:47:42.
