data_PCOD9304209
_publ_section_title
;
Structure prediction by ZEFSAII (Michael W. Deem and Ramdas Pophale) SiO2 
 PCOD9304209
Probable space group: C 2/C
;
_chemical_formula_sum "Si O2"
_cell_formula_units_Z 48
_cell_length_a 24.256342
_cell_length_b 16.893425
_cell_length_c 12.388964
_cell_angle_alpha 90.000000
_cell_angle_beta 154.847304
_cell_angle_gamma 90.000000
_cell_volume 2157.743163
_symmetry_space_group_name_H-M "C 2/C"
_symmetry_group_IT_number 15
_symmetry_cell_setting 'monoclinic'
loop_
_space_group_symop_operation_xyz
x,y,z
-x,y,1/2-z
-x,-y,-z
x,-y,1/2+z
1/2+x,1/2+y,z
1/2-x,1/2+y,1/2-z
1/2-x,1/2-y,-z
1/2+x,1/2-y,1/2+z
loop_
_atom_site_type_symbol
_atom_site_label
_atom_site_fract_x
_atom_site_fract_y
_atom_site_fract_z
Si Si1 0.751761 0.391294 0.424360
Si Si2 0.006898 0.884232 0.140920
Si Si3 0.717689 0.437802 0.905783
Si Si4 0.910901 0.297555 0.188142
Si Si5 0.780452 0.864563 0.374419
Si Si6 0.494088 0.794216 0.574658
O O1 0.647136 0.380870 0.333715
O O2 0.793942 0.482613 0.511835
O O3 0.687307 0.380593 0.192497
O O4 0.870620 0.331143 0.648264
O O5 0.000000 0.915154 0.250000
O O6 0.911379 0.932099 0.893778
O O7 0.964220 0.792184 0.068094
O O8 0.800978 0.360628 0.022967
O O9 0.687724 0.430824 0.980074
O O10 0.991565 0.284988 0.440501
O O11 0.000000 0.328509 0.250000
O O12 0.848400 0.215558 0.037113
O O13 0.625290 0.850540 0.104803
#
# Coordination Sequence:
#
# PCOD9304209 Si02
#       6
#     8   8   8   8   8   8
#     4  12  28  41  72 107 138 187 234 297 361 414
#     4  12  25  44  69  97 146 183 243 288 346 421
#     4  11  26  46  66 103 144 187 229 302 355 414
#     4  11  23  42  76  98 137 191 237 283 358 433
#     4  11  23  47  72  96 143 180 235 289 356 430
#     4  11  23  45  70 106 135 181 239 295 350 414
#
# _framework density 22.245466
#
# number of rings (size 3 to 8) (size 9 to 14) (size 15 to 20)
#    0.000    0.667    3.333    4.500    4.667    4.000 
#    0.000    0.000    0.000    0.000    0.000    0.000 
#    0.000    0.000    0.000    0.000    0.000    0.000 
#
# Total GULP energy -134356.726688 kJ/mol
# GULP energy per Si atom -5598.196945 kJ/mol
# Density = 2.219483 g / cm^3
# Si number density = 22.245466 Si / 1000 Ang^3
#
#
#
# Elastic Constant Matrix: (Units=GPa)
#
#
# Indices 1 2 3 4 5 6 
#
# 1 139.0246 2.4505 45.7848 0.0000 -32.9194 0.0000
# 2 2.4505 77.6150 3.0691 0.0000 -20.8329 0.0000
# 3 45.7848 3.0691 81.5893 0.0000 -24.9964 0.0000
# 4 0.0000 0.0000 0.0000 6.5529 0.0000 -1.1256
# 5 -32.9194 -20.8329 -24.9964 0.0000 41.1876 0.0000
# 6 0.0000 0.0000 0.0000 -1.1256 0.0000 22.5606
#
#
#
# Elastic Compliance Matrix: (Units=1/GPa)
#
#
# Indices 1 2 3 4 5 6 
#
# 1 0.009900 0.001579 -0.003619 0.000000 0.006515 0.000000
# 2 0.001579 0.015473 0.001617 0.000000 0.010070 0.000000
# 3 -0.003619 0.001617 0.016695 0.000000 0.008058 0.000000
# 4 0.000000 0.000000 0.000000 0.153924 0.000000 0.007679
# 5 0.006515 0.010070 0.008058 0.000000 0.039470 0.000000
# 6 0.000000 0.000000 0.000000 0.007679 0.000000 0.044708
#
#
# Mechanical properties :
#
#
# Convention : Reuss Voigt Hill
#
# Bulk Modulus (GPa) = 24.25862 44.53754 34.39808
# Shear Modulus (GPa) = 16.96321 30.52185 23.74253
#
# Velocity S-wave (km/s) = 2.76442 3.70814 3.27050
# Velocity P-wave (km/s) = 4.59543 6.19662 5.45509
#
# Compressibility (1/GPa) = 0.04122246
#
# Stress axis : x y z
#
# Youngs Moduli (GPa) = 101.01508 64.62786 59.89838
#
# Poissons Ratio (x) = -0.10206 0.21675
# Poissons Ratio (y) = -0.15953 -0.09685
# Poissons Ratio (z) = 0.36554 -0.10449
#
# Static dielectric constant tensor:
#      x y z
#    x 1.831160 0.000000 -0.007130 
#    y 0.000000 1.830480 0.000000 
#    z -0.007130 0.000000 1.823830 
# 
# From -- ./inp_files/119498.got.cif
#   From: 2010.05.17/outbox.cif.g08.bks.cpg/sg15_60_cif.got.tgz:119498.got - 2010.06.03 18:47:42.
