data_PCOD9304408
_publ_section_title
;
Structure prediction by ZEFSAII (Michael W. Deem and Ramdas Pophale) SiO2 
 PCOD9304408
Probable space group: C 2/C
;
_chemical_formula_sum "Si O2"
_cell_formula_units_Z 44
_cell_length_a 19.348119
_cell_length_b 6.902619
_cell_length_c 18.139048
_cell_angle_alpha 90.000000
_cell_angle_beta 58.680630
_cell_angle_gamma 90.000000
_cell_volume 2069.516920
_symmetry_space_group_name_H-M "C 2/C"
_symmetry_group_IT_number 15
_symmetry_cell_setting 'monoclinic'
loop_
_space_group_symop_operation_xyz
x,y,z
-x,y,1/2-z
-x,-y,-z
x,-y,1/2+z
1/2+x,1/2+y,z
1/2-x,1/2+y,1/2-z
1/2-x,1/2-y,-z
1/2+x,1/2-y,1/2+z
loop_
_atom_site_type_symbol
_atom_site_label
_atom_site_fract_x
_atom_site_fract_y
_atom_site_fract_z
Si Si1 0.586881 0.902275 0.442119
Si Si2 0.500000 0.541717 0.750000
Si Si3 0.257428 0.450790 0.037372
Si Si4 0.626560 0.389119 0.792258
Si Si5 0.627070 0.763719 0.584025
Si Si6 0.196054 0.768504 0.341107
O O1 0.587511 0.732507 0.380967
O O2 0.611161 0.823525 0.508750
O O3 0.500000 0.000000 0.500000
O O4 0.648972 0.070525 0.383371
O O5 0.563773 0.412841 0.760428
O O6 0.549152 0.680054 0.667195
O O7 0.171873 0.556460 0.098095
O O8 0.302730 0.406664 0.088027
O O9 0.250000 0.250000 0.000000
O O10 0.308280 0.590356 0.956231
O O11 0.710776 0.282725 0.726708
O O12 0.652646 0.605820 0.802417
#
# Coordination Sequence:
#
# PCOD9304408 Si02
#       6
#     8   4   8   8   8   8
#     4  12  27  46  76 109 147 194 252 307 373 439
#     4  12  30  46  74 110 158 192 242 314 382 432
#     4  11  23  43  76 103 139 188 245 295 363 433
#     4  12  28  49  74 113 153 197 248 307 373 446
#     4  11  26  46  70 109 145 187 243 302 361 443
#     4  12  25  46  79 107 148 203 250 305 368 451
#
# _framework density 21.261002000000001
#
# number of rings (size 3 to 8) (size 9 to 14) (size 15 to 20)
#    0.000    0.364    5.455    2.182    7.636    4.364 
#    0.000    1.818    0.000    0.000    0.000    0.000 
#    0.000    0.000    0.000    0.000    0.000    0.000 
#
# Total GULP energy -123138.442536 kJ/mol
# GULP energy per Si atom -5597.201933 kJ/mol
# Density = 2.121261 g / cm^3
# Si number density = 21.261002 Si / 1000 Ang^3
#
#
#
# Elastic Constant Matrix: (Units=GPa)
#
#
# Indices 1 2 3 4 5 6 
#
# 1 135.2078 52.9715 34.1543 -0.0003 4.0774 0.0011
# 2 52.9715 120.3372 42.1457 -0.0009 -2.7519 0.0029
# 3 34.1543 42.1457 78.1294 -0.0002 -18.2345 0.0005
# 4 -0.0003 -0.0009 -0.0002 37.7230 0.0000 -3.5405
# 5 4.0774 -2.7519 -18.2345 0.0000 41.3337 -0.0002
# 6 0.0011 0.0029 0.0005 -3.5405 -0.0002 35.1452
#
#
#
# Elastic Compliance Matrix: (Units=1/GPa)
#
#
# Indices 1 2 3 4 5 6 
#
# 1 0.009473 -0.003174 -0.003006 0.000000 -0.002472 0.000000
# 2 -0.003174 0.011453 -0.005061 0.000000 -0.001157 -0.000001
# 3 -0.003006 -0.005061 0.018766 0.000000 0.008238 0.000000
# 4 0.000000 0.000000 0.000000 0.026762 0.000000 0.002696
# 5 -0.002472 -0.001157 0.008238 0.000000 0.027995 0.000000
# 6 0.000000 -0.000001 0.000000 0.002696 0.000000 0.028725
#
#
# Mechanical properties :
#
#
# Convention : Reuss Voigt Hill
#
# Bulk Modulus (GPa) = 58.10212 65.80193 61.95202
# Shear Modulus (GPa) = 33.02672 36.46725 34.74698
#
# Velocity S-wave (km/s) = 3.94559 4.14601 4.04704
# Velocity P-wave (km/s) = 6.93861 7.34411 7.14424
#
# Compressibility (1/GPa) = 0.01721108
#
# Stress axis : x y z
#
# Youngs Moduli (GPa) = 105.55917 87.31310 53.28749
#
# Poissons Ratio (x) = 0.27711 0.16019
# Poissons Ratio (y) = 0.33502 0.26968
# Poissons Ratio (z) = 0.31733 0.44187
#
# Static dielectric constant tensor:
#      x y z
#    x 1.792050 0.000000 0.010420 
#    y 0.000000 1.777700 0.000000 
#    z 0.010420 0.000000 1.769260 
# 
# From -- ./inp_files/250751.got.cif
#   From: 2010.05.17/outbox.cif.g08.bks.cpg/sg15_126_cif.got.tgz:250751.got - 2010.06.03 18:47:42.
