data_PCOD9304482
_publ_section_title
;
Structure prediction by ZEFSAII (Michael W. Deem and Ramdas Pophale) SiO2 
 PCOD9304482
Probable space group: C 2/C
;
_chemical_formula_sum "Si O2"
_cell_formula_units_Z 44
_cell_length_a 12.861327
_cell_length_b 13.889474
_cell_length_c 12.861106
_cell_angle_alpha 90.000000
_cell_angle_beta 69.181005
_cell_angle_gamma 90.000000
_cell_volume 2147.463592
_symmetry_space_group_name_H-M "C 2/C"
_symmetry_group_IT_number 15
_symmetry_cell_setting 'monoclinic'
loop_
_space_group_symop_operation_xyz
x,y,z
-x,y,1/2-z
-x,-y,-z
x,-y,1/2+z
1/2+x,1/2+y,z
1/2-x,1/2+y,1/2-z
1/2-x,1/2-y,-z
1/2+x,1/2-y,1/2+z
loop_
_atom_site_type_symbol
_atom_site_label
_atom_site_fract_x
_atom_site_fract_y
_atom_site_fract_z
Si Si1 0.500000 0.363025 0.750000
Si Si2 0.618704 0.767354 0.033511
Si Si3 0.199587 0.002755 0.739043
Si Si4 0.121429 0.486100 0.002141
Si Si5 0.602291 0.285893 0.296600
Si Si6 0.132372 0.596281 0.183844
O O1 0.446989 0.296962 0.859462
O O2 0.593786 0.432558 0.767110
O O3 0.608026 0.881420 0.059526
O O4 0.750000 0.750000 0.000000
O O5 0.583211 0.740140 0.925969
O O6 0.277788 0.979808 0.613328
O O7 0.283397 0.982264 0.803048
O O8 0.160969 0.112235 0.763912
O O9 0.143947 0.583430 0.058159
O O10 0.000000 0.500000 0.000000
O O11 0.500000 0.289804 0.250000
O O12 0.667385 0.194262 0.227108
O O13 0.000000 0.579014 0.250000
#
# Coordination Sequence:
#
# PCOD9304482 Si02
#       6
#     4   8   8   8   8   8
#     4  12  28  46  74 108 148 198 248 302 372 440
#     4  12  25  48  74 107 149 194 248 303 365 447
#     4  12  25  45  71 109 143 188 249 295 373 435
#     4  12  24  43  71 106 142 183 242 304 358 433
#     4  11  24  46  72 104 151 190 235 305 371 440
#     4  11  23  44  70 103 144 187 239 303 360 427
#
# _framework density 20.489287999999998
#
# number of rings (size 3 to 8) (size 9 to 14) (size 15 to 20)
#    0.000    0.364    6.364    2.182    1.273    5.818 
#    0.000    0.000    0.000    0.000    0.000    0.000 
#    0.000    0.000    0.000    0.000    0.000    0.000 
#
# Total GULP energy -122653.150277 kJ/mol
# GULP energy per Si atom -5575.143194 kJ/mol
# Density = 2.044265 g / cm^3
# Si number density = 20.489288 Si / 1000 Ang^3
#
#
#
# Elastic Constant Matrix: (Units=GPa)
#
#
# Indices 1 2 3 4 5 6 
#
# 1 102.8770 48.9804 33.9329 0.0000 -3.4364 0.0000
# 2 48.9804 125.8596 52.2307 0.0000 8.2575 0.0000
# 3 33.9329 52.2307 99.1718 0.0000 4.1521 0.0000
# 4 0.0000 0.0000 0.0000 33.4563 0.0000 3.4758
# 5 -3.4364 8.2575 4.1521 0.0000 30.4822 0.0000
# 6 0.0000 0.0000 0.0000 3.4758 0.0000 43.3422
#
#
#
# Elastic Compliance Matrix: (Units=1/GPa)
#
#
# Indices 1 2 3 4 5 6 
#
# 1 0.012517 -0.004134 -0.002224 0.000000 0.002834 0.000000
# 2 -0.004134 0.011660 -0.004601 0.000000 -0.002998 0.000000
# 3 -0.002224 -0.004601 0.013302 0.000000 -0.000816 0.000000
# 4 0.000000 0.000000 0.000000 0.030141 0.000000 -0.002417
# 5 0.002834 -0.002998 -0.000816 0.000000 0.034049 0.000000
# 6 0.000000 0.000000 0.000000 -0.002417 0.000000 0.023266
#
#
# Mechanical properties :
#
#
# Convention : Reuss Voigt Hill
#
# Bulk Modulus (GPa) = 64.26526 66.46627 65.36577
# Shear Modulus (GPa) = 32.88599 34.30711 33.59655
#
# Velocity S-wave (km/s) = 4.01063 4.09637 4.05373
# Velocity P-wave (km/s) = 7.27188 7.40835 7.34043
#
# Compressibility (1/GPa) = 0.01556051
#
# Stress axis : x y z
#
# Youngs Moduli (GPa) = 79.89207 85.76087 75.17683
#
# Poissons Ratio (x) = 0.35454 0.16721
# Poissons Ratio (y) = 0.33028 0.34590
# Poissons Ratio (z) = 0.17769 0.39459
#
# Static dielectric constant tensor:
#      x y z
#    x 1.723130 0.000000 0.016930 
#    y 0.000000 1.816160 0.000000 
#    z 0.016930 0.000000 1.742730 
# 
# From -- ./inp_files/86117.got.cif
#   From: 2010.05.17/outbox.cif.g08.bks.cpg/sg15_44_cif.got.tgz:86117.got - 2010.06.03 18:47:42.
