data_PCOD9304813
_publ_section_title
;
Structure prediction by ZEFSAII (Michael W. Deem and Ramdas Pophale) SiO2 
 PCOD9304813
Probable space group: C 2/C
;
_chemical_formula_sum "Si O2"
_cell_formula_units_Z 52
_cell_length_a 20.004882
_cell_length_b 6.349753
_cell_length_c 19.618556
_cell_angle_alpha 90.000000
_cell_angle_beta 122.042711
_cell_angle_gamma 90.000000
_cell_volume 2112.408384
_symmetry_space_group_name_H-M "C 2/C"
_symmetry_group_IT_number 15
_symmetry_cell_setting 'monoclinic'
loop_
_space_group_symop_operation_xyz
x,y,z
-x,y,1/2-z
-x,-y,-z
x,-y,1/2+z
1/2+x,1/2+y,z
1/2-x,1/2+y,1/2-z
1/2-x,1/2-y,-z
1/2+x,1/2-y,1/2+z
loop_
_atom_site_type_symbol
_atom_site_label
_atom_site_fract_x
_atom_site_fract_y
_atom_site_fract_z
Si Si1 0.586576 0.092749 0.741864
Si Si2 0.587101 0.755309 0.561661
Si Si3 0.243425 0.449479 0.144619
Si Si4 0.369791 0.257858 0.126462
Si Si5 0.047028 0.489910 0.923384
Si Si6 0.000000 0.028447 0.250000
Si Si7 0.159335 0.874687 0.675083
O O1 0.499823 0.026686 0.671409
O O2 0.569771 0.321161 0.763419
O O3 0.629475 0.160065 0.695445
O O4 0.626103 0.916081 0.809561
O O5 0.562664 0.789319 0.469693
O O6 0.600146 0.534832 0.606367
O O7 0.671530 0.881576 0.605614
O O8 0.514048 0.860710 0.562960
O O9 0.299685 0.416224 0.109261
O O10 0.294927 0.505859 0.239936
O O11 0.210152 0.217655 0.141500
O O12 0.453125 0.383737 0.172183
O O13 0.374329 0.133500 0.057274
#
# Coordination Sequence:
#
# PCOD9304813 Si02
#       7
#     8   8   8   8   8   4   8
#     4  12  22  40  70 100 128 175 227 280 337 392
#     4  11  26  45  66  95 132 190 219 268 351 398
#     4  12  24  40  68  98 133 173 225 286 334 399
#     4  12  24  40  68 106 133 170 231 287 338 395
#     4  11  23  47  64  93 145 168 230 282 320 426
#     4  12  20  38  68  98 126 174 218 268 348 380
#     4  12  23  41  69  95 129 172 229 276 328 411
#
# _framework density 24.616454000000001
#
# number of rings (size 3 to 8) (size 9 to 14) (size 15 to 20)
#    0.000    0.308    7.692    2.769    0.000    1.231 
#    2.769    0.769    0.000    0.000    0.000    0.000 
#    0.000    0.000    0.000    0.000    0.000    0.000 
#
# Total GULP energy -144975.345731 kJ/mol
# GULP energy per Si atom -5575.974836 kJ/mol
# Density = 2.456043 g / cm^3
# Si number density = 24.616454 Si / 1000 Ang^3
#
#
#
# Elastic Constant Matrix: (Units=GPa)
#
#
# Indices 1 2 3 4 5 6 
#
# 1 113.1137 19.5020 10.7894 0.0000 0.1984 0.0000
# 2 19.5020 69.3853 11.1950 0.0000 4.9650 0.0000
# 3 10.7894 11.1950 39.0719 0.0000 0.2632 0.0000
# 4 0.0000 0.0000 0.0000 20.1504 0.0000 1.1010
# 5 0.1984 4.9650 0.2632 0.0000 21.5491 0.0000
# 6 0.0000 0.0000 0.0000 1.1010 0.0000 50.7698
#
#
#
# Elastic Compliance Matrix: (Units=1/GPa)
#
#
# Indices 1 2 3 4 5 6 
#
# 1 0.009433 -0.002375 -0.001928 0.000000 0.000484 0.000000
# 2 -0.002375 0.015966 -0.003895 0.000000 -0.003609 0.000000
# 3 -0.001928 -0.003895 0.027238 0.000000 0.000582 0.000000
# 4 0.000000 0.000000 0.000000 0.049686 0.000000 -0.001078
# 5 0.000484 -0.003609 0.000582 0.000000 0.047226 0.000000
# 6 0.000000 0.000000 0.000000 -0.001078 0.000000 0.019720
#
#
# Mechanical properties :
#
#
# Convention : Reuss Voigt Hill
#
# Bulk Modulus (GPa) = 27.59135 33.83819 30.71477
# Shear Modulus (GPa) = 25.28511 30.49948 27.89230
#
# Velocity S-wave (km/s) = 3.20842 3.52374 3.36977
# Velocity P-wave (km/s) = 4.99581 5.50742 5.25784
#
# Compressibility (1/GPa) = 0.03624324
#
# Stress axis : x y z
#
# Youngs Moduli (GPa) = 106.00900 62.63132 36.71320
#
# Poissons Ratio (x) = 0.14875 0.07077
# Poissons Ratio (y) = 0.25177 0.14298
# Poissons Ratio (z) = 0.20435 0.24392
#
# Static dielectric constant tensor:
#      x y z
#    x 2.243540 0.000000 -0.041180 
#    y 0.000000 1.979290 0.000000 
#    z -0.041180 0.000000 1.992500 
# 
# From -- ./inp_files/278999.got.cif
#   From: 2010.05.17/outbox.cif.g08.bks.cpg/sg15_140_cif.got.tgz:278999.got - 2010.06.03 18:47:42.
