data_PCOD9304429
_publ_section_title
;
Structure prediction by ZEFSAII (Michael W. Deem and Ramdas Pophale) SiO2 
 PCOD9304429
Probable space group: C 2/C
;
_chemical_formula_sum "Si O2"
_cell_formula_units_Z 60
_cell_length_a 18.085302
_cell_length_b 18.478310
_cell_length_c 12.631782
_cell_angle_alpha 90.000000
_cell_angle_beta 42.653609
_cell_angle_gamma 90.000000
_cell_volume 2860.244894
_symmetry_space_group_name_H-M "C 2/C"
_symmetry_group_IT_number 15
_symmetry_cell_setting 'monoclinic'
loop_
_space_group_symop_operation_xyz
x,y,z
-x,y,1/2-z
-x,-y,-z
x,-y,1/2+z
1/2+x,1/2+y,z
1/2-x,1/2+y,1/2-z
1/2-x,1/2-y,-z
1/2+x,1/2-y,1/2+z
loop_
_atom_site_type_symbol
_atom_site_label
_atom_site_fract_x
_atom_site_fract_y
_atom_site_fract_z
Si Si1 0.221184 0.536936 0.196967
Si Si2 0.500000 0.362543 0.750000
Si Si3 0.596655 0.461482 0.834388
Si Si4 0.879913 0.240973 0.819087
Si Si5 0.671322 0.873587 0.311896
Si Si6 0.078237 0.654883 0.425841
Si Si7 0.816227 0.237840 0.536650
Si Si8 0.780624 0.092300 0.903943
O O1 0.321976 0.567262 0.160906
O O2 0.209046 0.449898 0.218780
O O3 0.115714 0.574591 0.357043
O O4 0.237489 0.567890 0.062770
O O5 0.555190 0.409574 0.785096
O O6 0.583119 0.311696 0.601387
O O7 0.665490 0.522620 0.703782
O O8 0.500000 0.500000 0.000000
O O9 0.892038 0.291585 0.703156
O O10 0.871339 0.155130 0.808940
O O11 0.000000 0.253265 0.750000
O O12 0.750000 0.250000 0.000000
O O13 0.549138 0.849828 0.416318
O O14 0.747485 0.808964 0.192183
O O15 0.686159 0.883044 0.422477
O O16 0.143340 0.687627 0.455873
O O17 0.750000 0.250000 0.500000
#
# Coordination Sequence:
#
# PCOD9304429 Si02
#       8
#     8   4   8   8   8   8   8   8
#     4  11  25  43  70 101 143 184 243 295 368 441
#     4  12  24  44  70 100 138 186 232 302 366 436
#     4  11  24  40  67 101 136 177 232 293 364 437
#     4  12  26  43  72 108 146 192 242 302 371 444
#     4  11  25  48  70 104 143 190 243 298 367 444
#     4  12  26  44  72 102 140 188 244 296 361 437
#     4  12  26  47  71 100 142 186 241 299 364 436
#     4  11  23  44  67 103 139 187 230 304 366 436
#
# _framework density 20.977225000000001
#
# number of rings (size 3 to 8) (size 9 to 14) (size 15 to 20)
#    0.000    0.533    2.667    6.000    2.800    1.067 
#    0.000    1.333    0.000    0.000    0.000    0.000 
#    0.000    0.000    0.000    0.000    0.000    0.000 
#
# Total GULP energy -167501.029558 kJ/mol
# GULP energy per Si atom -5583.367652 kJ/mol
# Density = 2.092948 g / cm^3
# Si number density = 20.977225 Si / 1000 Ang^3
#
#
#
# Elastic Constant Matrix: (Units=GPa)
#
#
# Indices 1 2 3 4 5 6 
#
# 1 112.2932 19.4370 23.9878 0.0000 12.2431 0.0000
# 2 19.4370 55.3069 -6.4249 0.0000 6.5452 0.0000
# 3 23.9878 -6.4249 70.3050 0.0000 -6.8916 0.0000
# 4 0.0000 0.0000 0.0000 50.8840 0.0000 -16.1519
# 5 12.2431 6.5452 -6.8916 0.0000 37.3428 0.0000
# 6 0.0000 0.0000 0.0000 -16.1519 0.0000 38.4293
#
#
#
# Elastic Compliance Matrix: (Units=1/GPa)
#
#
# Indices 1 2 3 4 5 6 
#
# 1 0.010942 -0.003923 -0.004457 0.000000 -0.003722 0.000000
# 2 -0.003923 0.020006 0.003003 0.000000 -0.001666 0.000000
# 3 -0.004457 0.003003 0.016407 0.000000 0.003963 0.000000
# 4 0.000000 0.000000 0.000000 0.022678 0.000000 0.009532
# 5 -0.003722 -0.001666 0.003963 0.000000 0.029023 0.000000
# 6 0.000000 0.000000 0.000000 0.009532 0.000000 0.030028
#
#
# Mechanical properties :
#
#
# Convention : Reuss Voigt Hill
#
# Bulk Modulus (GPa) = 27.32038 34.65607 30.98823
# Shear Modulus (GPa) = 32.88672 38.72489 35.80580
#
# Velocity S-wave (km/s) = 3.96376 4.30122 4.13593
# Velocity P-wave (km/s) = 5.83100 6.42059 6.13289
#
# Compressibility (1/GPa) = 0.03660271
#
# Stress axis : x y z
#
# Youngs Moduli (GPa) = 91.38985 49.98604 60.94850
#
# Poissons Ratio (x) = 0.19608 0.27163
# Poissons Ratio (y) = 0.35850 -0.18305
# Poissons Ratio (z) = 0.40730 -0.15012
#
# Static dielectric constant tensor:
#      x y z
#    x 1.683780 0.000000 -0.053390 
#    y 0.000000 1.758090 0.000000 
#    z -0.053390 0.000000 1.704940 
# 
# From -- ./inp_files/107633.got.cif
#   From: 2010.05.17/outbox.cif.g08.bks.cpg/sg15_54_cif.got.tgz:107633.got - 2010.06.03 18:47:42.
