data_PCOD9304368
_publ_section_title
;
Structure prediction by ZEFSAII (Michael W. Deem and Ramdas Pophale) SiO2 
 PCOD9304368
Probable space group: C 2/C
;
_chemical_formula_sum "Si O2"
_cell_formula_units_Z 52
_cell_length_a 18.471674
_cell_length_b 5.161841
_cell_length_c 22.514936
_cell_angle_alpha 90.000000
_cell_angle_beta 74.975433
_cell_angle_gamma 90.000000
_cell_volume 2073.363430
_symmetry_space_group_name_H-M "C 2/C"
_symmetry_group_IT_number 15
_symmetry_cell_setting 'monoclinic'
loop_
_space_group_symop_operation_xyz
x,y,z
-x,y,1/2-z
-x,-y,-z
x,-y,1/2+z
1/2+x,1/2+y,z
1/2-x,1/2+y,1/2-z
1/2-x,1/2-y,-z
1/2+x,1/2-y,1/2+z
loop_
_atom_site_type_symbol
_atom_site_label
_atom_site_fract_x
_atom_site_fract_y
_atom_site_fract_z
Si Si1 0.943530 0.885807 0.383709
Si Si2 0.141543 0.578758 0.733283
Si Si3 0.545014 0.861769 0.043301
Si Si4 0.790667 0.364072 0.675585
Si Si5 0.697388 0.634567 0.959805
Si Si6 0.500000 0.447745 0.750000
Si Si7 0.707581 0.253882 0.119595
O O1 0.941231 0.610161 0.417335
O O2 0.854421 0.952396 0.392673
O O3 0.984596 0.118382 0.411276
O O4 0.884361 0.216484 0.501322
O O5 0.143902 0.390821 0.790165
O O6 0.218689 0.738224 0.721647
O O7 0.154078 0.442807 0.667047
O O8 0.070920 0.764089 0.747200
O O9 0.518899 0.383189 0.188599
O O10 0.500000 0.000000 0.000000
O O11 0.803322 0.228529 0.609218
O O12 0.761801 0.638759 0.658325
O O13 0.735837 0.355184 0.941312
O O14 0.750000 0.750000 0.000000
#
# Coordination Sequence:
#
# PCOD9304368 Si02
#       7
#     8   8   8   8   8   4   8
#     4  12  27  51  76 111 157 204 264 332 397 484
#     4  11  24  46  68 114 151 202 263 330 402 474
#     4  12  29  51  76 112 161 203 263 332 396 482
#     4  11  23  43  72 107 148 198 258 335 387 474
#     4  11  25  44  75 108 142 209 259 319 399 472
#     4  12  28  46  80 110 154 212 264 324 418 478
#     4  11  23  44  77 105 153 200 268 325 395 477
#
# _framework density 25.080020000000001
#
# number of rings (size 3 to 8) (size 9 to 14) (size 15 to 20)
#    0.000    0.615    4.615    2.308    4.308    4.923 
#    0.000    0.000    0.000    0.000    0.000    0.000 
#    0.000    0.000    0.000    0.000    0.000    0.000 
#
# Total GULP energy -145226.772298 kJ/mol
# GULP energy per Si atom -5585.645088 kJ/mol
# Density = 2.502294 g / cm^3
# Si number density = 25.080020 Si / 1000 Ang^3
#
#
#
# Elastic Constant Matrix: (Units=GPa)
#
#
# Indices 1 2 3 4 5 6 
#
# 1 85.7023 26.0204 58.0184 0.0002 4.9386 0.0000
# 2 26.0204 81.8047 60.6814 -0.0012 -1.6786 -0.0002
# 3 58.0184 60.6814 182.3253 0.0003 9.2138 0.0002
# 4 0.0002 -0.0012 0.0003 23.1976 0.0000 -8.3816
# 5 4.9386 -1.6786 9.2138 0.0000 44.8627 0.0000
# 6 0.0000 -0.0002 0.0002 -8.3816 0.0000 44.2920
#
#
#
# Elastic Compliance Matrix: (Units=1/GPa)
#
#
# Indices 1 2 3 4 5 6 
#
# 1 0.015068 -0.001708 -0.004183 0.000000 -0.000864 0.000000
# 2 -0.001708 0.016560 -0.005061 0.000001 0.001847 0.000000
# 3 -0.004183 -0.005061 0.008576 0.000000 -0.001490 0.000000
# 4 0.000000 0.000001 0.000000 0.046272 0.000000 0.008756
# 5 -0.000864 0.001847 -0.001490 0.000000 0.022760 0.000000
# 6 0.000000 0.000000 0.000000 0.008756 0.000000 0.024234
#
#
# Mechanical properties :
#
#
# Convention : Reuss Voigt Hill
#
# Bulk Modulus (GPa) = 54.64609 71.03029 62.83819
# Shear Modulus (GPa) = 30.96471 36.14459 33.55465
#
# Velocity S-wave (km/s) = 3.51755 3.80039 3.66170
# Velocity P-wave (km/s) = 6.19141 6.90219 6.55644
#
# Compressibility (1/GPa) = 0.01829957
#
# Stress axis : x y z
#
# Youngs Moduli (GPa) = 66.36444 60.38742 116.61040
#
# Poissons Ratio (x) = 0.10313 0.48777
# Poissons Ratio (y) = 0.11334 0.59020
# Poissons Ratio (z) = 0.27760 0.30564
#
# Static dielectric constant tensor:
#      x y z
#    x 2.025860 0.000000 -0.008250 
#    y 0.000000 2.127160 0.000000 
#    z -0.008250 0.000000 2.117940 
# 
# From -- ./inp_files/251030.got.cif
#   From: 2010.05.17/outbox.cif.g08.bks.cpg/sg15_126_cif.got.tgz:251030.got - 2010.06.03 18:47:42.
