data_PCOD9304701
_publ_section_title
;
Structure prediction by ZEFSAII (Michael W. Deem and Ramdas Pophale) SiO2 
 PCOD9304701
Probable space group: C 2/C
;
_chemical_formula_sum "Si O2"
_cell_formula_units_Z 40
_cell_length_a 28.903863
_cell_length_b 5.087407
_cell_length_c 10.435138
_cell_angle_alpha 90.000000
_cell_angle_beta 70.568443
_cell_angle_gamma 90.000000
_cell_volume 1447.039832
_symmetry_space_group_name_H-M "C 2/C"
_symmetry_group_IT_number 15
_symmetry_cell_setting 'monoclinic'
loop_
_space_group_symop_operation_xyz
x,y,z
-x,y,1/2-z
-x,-y,-z
x,-y,1/2+z
1/2+x,1/2+y,z
1/2-x,1/2+y,1/2-z
1/2-x,1/2-y,-z
1/2+x,1/2-y,1/2+z
loop_
_atom_site_type_symbol
_atom_site_label
_atom_site_fract_x
_atom_site_fract_y
_atom_site_fract_z
Si Si1 0.789499 0.440081 0.395188
Si Si2 0.069968 0.011482 0.215283
Si Si3 0.124160 0.390446 0.999882
Si Si4 0.958087 0.714594 0.511907
Si Si5 0.327929 0.564347 0.750097
O O1 0.750000 0.250000 0.500000
O O2 0.830891 0.499630 0.462100
O O3 0.785714 0.724849 0.330486
O O4 0.810137 0.232708 0.273009
O O5 0.957761 0.068943 0.125958
O O6 0.124120 0.914588 0.203605
O O7 0.081618 0.285247 0.133184
O O8 0.045866 0.833456 0.127721
O O9 0.094841 0.568837 0.927491
O O10 0.149686 0.146648 0.905348
O O11 0.000000 0.500000 0.500000
#
# Coordination Sequence:
#
# PCOD9304701 Si02
#       5
#     8   8   8   8   8
#     4  11  25  43  74 118 163 212 276 343 420 506
#     4  11  25  52  80 117 162 219 282 347 435 513
#     4  11  24  47  77 108 163 213 276 341 426 497
#     4  12  28  53  82 119 167 222 286 364 426 521
#     4  11  23  45  76 111 160 214 269 344 414 504
#
# _framework density 27.642638000000002
#
# number of rings (size 3 to 8) (size 9 to 14) (size 15 to 20)
#    0.000    0.800    4.000    3.000    0.000    3.200 
#    7.200    1.000    0.000    0.000    0.000    0.000 
#    0.000    0.000    0.000    0.000    0.000    0.000 
#
# Total GULP energy -111985.777853 kJ/mol
# GULP energy per Si atom -5599.288893 kJ/mol
# Density = 2.757972 g / cm^3
# Si number density = 27.642638 Si / 1000 Ang^3
#
#
#
# Elastic Constant Matrix: (Units=GPa)
#
#
# Indices 1 2 3 4 5 6 
#
# 1 119.3834 42.3045 8.9841 0.0000 16.8015 0.0000
# 2 42.3045 113.1149 47.4086 0.0000 3.1180 0.0000
# 3 8.9841 47.4086 139.2695 0.0000 10.5886 0.0000
# 4 0.0000 0.0000 0.0000 56.1358 0.0000 -7.5350
# 5 16.8015 3.1180 10.5886 0.0000 42.8916 0.0000
# 6 0.0000 0.0000 0.0000 -7.5350 0.0000 40.9107
#
#
#
# Elastic Compliance Matrix: (Units=1/GPa)
#
#
# Indices 1 2 3 4 5 6 
#
# 1 0.010352 -0.004210 0.001070 0.000000 -0.004013 0.000000
# 2 -0.004210 0.012024 -0.003955 0.000000 0.001751 0.000000
# 3 0.001070 -0.003955 0.008629 0.000000 -0.002262 0.000000
# 4 0.000000 0.000000 0.000000 0.018265 0.000000 0.003364
# 5 -0.004013 0.001751 -0.002262 0.000000 0.025318 0.000000
# 6 0.000000 0.000000 0.000000 0.003364 0.000000 0.025063
#
#
# Mechanical properties :
#
#
# Convention : Reuss Voigt Hill
#
# Bulk Modulus (GPa) = 59.46045 63.24024 61.35034
# Shear Modulus (GPa) = 41.85963 46.19234 44.02598
#
# Velocity S-wave (km/s) = 3.89564 4.09229 3.99517
# Velocity P-wave (km/s) = 6.46466 6.72730 6.59728
#
# Compressibility (1/GPa) = 0.01681790
#
# Stress axis : x y z
#
# Youngs Moduli (GPa) = 96.59571 83.16548 115.88173
#
# Poissons Ratio (x) = 0.35011 -0.12403
# Poissons Ratio (y) = 0.40664 0.45828
# Poissons Ratio (z) = -0.10339 0.32890
#
# Static dielectric constant tensor:
#      x y z
#    x 2.198980 0.000000 -0.070280 
#    y 0.000000 2.268610 0.000000 
#    z -0.070280 0.000000 2.208120 
# 
# From -- ./inp_files/120762.got.cif
#   From: 2010.05.17/outbox.cif.g08.bks.cpg/sg15_61_cif.got.tgz:120762.got - 2010.06.03 18:47:42.
