data_PCOD9304749
_publ_section_title
;
Structure prediction by ZEFSAII (Michael W. Deem and Ramdas Pophale) SiO2 
 PCOD9304749
Probable space group: C 2/C
;
_chemical_formula_sum "Si O2"
_cell_formula_units_Z 40
_cell_length_a 9.772068
_cell_length_b 22.366200
_cell_length_c 9.749117
_cell_angle_alpha 90.000000
_cell_angle_beta 120.518183
_cell_angle_gamma 90.000000
_cell_volume 1835.621522
_symmetry_space_group_name_H-M "C 2/C"
_symmetry_group_IT_number 15
_symmetry_cell_setting 'monoclinic'
loop_
_space_group_symop_operation_xyz
x,y,z
-x,y,1/2-z
-x,-y,-z
x,-y,1/2+z
1/2+x,1/2+y,z
1/2-x,1/2+y,1/2-z
1/2-x,1/2-y,-z
1/2+x,1/2-y,1/2+z
loop_
_atom_site_type_symbol
_atom_site_label
_atom_site_fract_x
_atom_site_fract_y
_atom_site_fract_z
Si Si1 0.262332 0.875704 0.346233
Si Si2 0.768665 0.878237 0.842593
Si Si3 0.400916 0.816839 0.979529
Si Si4 0.618812 0.994525 0.187764
Si Si5 0.899863 0.176567 0.984619
O O1 0.240621 0.872961 0.497971
O O2 0.440357 0.852725 0.408968
O O3 0.256551 0.943106 0.286270
O O4 0.143653 0.836900 0.195020
O O5 0.657599 0.831722 0.703984
O O6 0.705732 0.943398 0.766882
O O7 0.949297 0.862478 0.895888
O O8 0.434474 0.746875 0.018287
O O9 0.256173 0.835980 0.004262
O O10 0.500000 0.978223 0.250000
O O11 0.500000 0.000000 0.000000
#
# Coordination Sequence:
#
# PCOD9304749 Si02
#       5
#     8   8   8   8   8
#     4  12  25  43  71  98 134 185 228 276 347 412
#     4  12  25  43  68 104 134 171 233 291 334 401
#     4  11  23  46  70  97 137 187 225 269 344 424
#     4  12  23  45  71  99 134 186 233 277 348 428
#     4  11  26  43  68 102 140 175 224 287 345 399
#
# _framework density 21.790987000000001
#
# number of rings (size 3 to 8) (size 9 to 14) (size 15 to 20)
#    0.000    0.400    4.000    4.800    0.000    8.800 
#    0.000    2.000    0.000    0.000    0.000    0.000 
#    0.000    0.000    0.000    0.000    0.000    0.000 
#
# Total GULP energy -111988.408381 kJ/mol
# GULP energy per Si atom -5599.420419 kJ/mol
# Density = 2.174139 g / cm^3
# Si number density = 21.790987 Si / 1000 Ang^3
#
#
#
# Elastic Constant Matrix: (Units=GPa)
#
#
# Indices 1 2 3 4 5 6 
#
# 1 88.4529 38.5841 28.0484 0.0000 -2.2654 0.0000
# 2 38.5841 55.6223 12.8784 0.0000 7.6722 0.0000
# 3 28.0484 12.8784 112.0002 0.0000 -5.1681 0.0000
# 4 0.0000 0.0000 0.0000 8.9150 0.0000 -27.8959
# 5 -2.2654 7.6722 -5.1681 0.0000 45.3853 0.0000
# 6 0.0000 0.0000 0.0000 -27.8959 0.0000 -47.0267
#
#
#
# Elastic Compliance Matrix: (Units=1/GPa)
#
#
# Indices 1 2 3 4 5 6 
#
# 1 0.017418 -0.011761 -0.002893 0.000000 0.002528 0.000000
# 2 -0.011761 0.026943 -0.000392 0.000000 -0.005186 0.000000
# 3 -0.002893 -0.000392 0.009746 0.000000 0.001032 0.000000
# 4 0.000000 0.000000 0.000000 0.039273 0.000000 -0.023297
# 5 0.002528 -0.005186 0.001032 0.000000 0.023154 0.000000
# 6 0.000000 0.000000 0.000000 -0.023297 0.000000 -0.007445
#
#
# Mechanical properties :
#
#
# Convention : Reuss Voigt Hill
#
# Bulk Modulus (GPa) = 41.64204 46.12191 43.88198
# Shear Modulus (GPa) = 33.97052 13.22569 23.59811
#
# Velocity S-wave (km/s) = 3.95261 2.46628 3.29436
# Velocity P-wave (km/s) = 6.32314 5.41494 5.88658
#
# Compressibility (1/GPa) = 0.02401419
#
# Stress axis : x y z
#
# Youngs Moduli (GPa) = 57.41181 37.11515 102.60916
#
# Poissons Ratio (x) = 0.43653 0.29684
# Poissons Ratio (y) = 0.67524 0.04022
# Poissons Ratio (z) = 0.16609 0.01455
#
# Static dielectric constant tensor:
#      x y z
#    x 1.770540 0.000000 -0.006860 
#    y 0.000000 1.884130 0.000000 
#    z -0.006860 0.000000 1.769660 
# 
# From -- ./inp_files/79540.got.cif
#   From: 2010.05.17/outbox.cif.g08.bks.cpg/sg15_40_cif.got.tgz:79540.got - 2010.06.03 18:47:42.
