data_PCOD9304545
_publ_section_title
;
Structure prediction by ZEFSAII (Michael W. Deem and Ramdas Pophale) SiO2 
 PCOD9304545
Probable space group: C 2/C
;
_chemical_formula_sum "Si O2"
_cell_formula_units_Z 48
_cell_length_a 25.714463
_cell_length_b 12.133888
_cell_length_c 19.947784
_cell_angle_alpha 90.000000
_cell_angle_beta 158.382401
_cell_angle_gamma 90.000000
_cell_volume 2292.997898
_symmetry_space_group_name_H-M "C 2/C"
_symmetry_group_IT_number 15
_symmetry_cell_setting 'monoclinic'
loop_
_space_group_symop_operation_xyz
x,y,z
-x,y,1/2-z
-x,-y,-z
x,-y,1/2+z
1/2+x,1/2+y,z
1/2-x,1/2+y,1/2-z
1/2-x,1/2-y,-z
1/2+x,1/2-y,1/2+z
loop_
_atom_site_type_symbol
_atom_site_label
_atom_site_fract_x
_atom_site_fract_y
_atom_site_fract_z
Si Si1 0.988657 0.258785 0.436577
Si Si2 0.798106 0.325595 0.333641
Si Si3 0.300194 0.935015 0.570876
Si Si4 0.144779 0.761731 0.461156
Si Si5 0.288787 0.647150 0.094588
Si Si6 0.087524 0.542021 0.965190
O O1 0.132886 0.204278 0.635585
O O2 0.030229 0.371113 0.449586
O O3 0.874404 0.290072 0.356476
O O4 0.919663 0.181215 0.297262
O O5 0.872578 0.256052 0.481725
O O6 0.822343 0.451583 0.385935
O O7 0.252011 0.859176 0.574173
O O8 0.301130 0.851667 0.508702
O O9 0.198497 0.038005 0.435410
O O10 0.454560 0.981294 0.771831
O O11 0.000000 0.787730 0.250000
O O12 0.169781 0.608823 0.005794
O O13 0.250000 0.750000 0.000000
#
# Coordination Sequence:
#
# PCOD9304545 Si02
#       6
#     8   8   8   8   8   8
#     4  12  28  48  72 110 145 194 243 299 369 437
#     4  12  26  47  75 106 149 191 239 300 369 437
#     4  11  23  45  75 106 141 193 241 302 362 420
#     4  11  23  44  73 108 144 186 248 296 356 433
#     4  12  25  47  77 104 142 190 248 297 352 436
#     4  12  24  50  73 104 149 195 238 302 368 431
#
# _framework density 20.933295000000001
#
# number of rings (size 3 to 8) (size 9 to 14) (size 15 to 20)
#    0.000    0.333    6.667    2.000    2.333    0.667 
#    9.000    0.000    0.000    0.000    0.000    0.000 
#    0.000    0.000    0.000    0.000    0.000    0.000 
#
# Total GULP energy -134221.973505 kJ/mol
# GULP energy per Si atom -5592.582229 kJ/mol
# Density = 2.088565 g / cm^3
# Si number density = 20.933295 Si / 1000 Ang^3
#
#
#
# Elastic Constant Matrix: (Units=GPa)
#
#
# Indices 1 2 3 4 5 6 
#
# 1 62.6741 38.3381 7.2174 0.0000 -1.8314 0.0000
# 2 38.3381 127.1540 37.6310 0.0000 0.8536 0.0000
# 3 7.2174 37.6310 104.7832 0.0000 -8.5782 0.0000
# 4 0.0000 0.0000 0.0000 28.5683 0.0000 11.1479
# 5 -1.8314 0.8536 -8.5782 0.0000 28.5001 0.0000
# 6 0.0000 0.0000 0.0000 11.1479 0.0000 36.3049
#
#
#
# Elastic Compliance Matrix: (Units=1/GPa)
#
#
# Indices 1 2 3 4 5 6 
#
# 1 0.019720 -0.006264 0.001036 0.000000 0.001767 0.000000
# 2 -0.006264 0.010833 -0.003607 0.000000 -0.001813 0.000000
# 3 0.001036 -0.003607 0.011054 0.000000 0.003502 0.000000
# 4 0.000000 0.000000 0.000000 0.039769 0.000000 -0.012212
# 5 0.001767 -0.001813 0.003502 0.000000 0.036309 0.000000
# 6 0.000000 0.000000 0.000000 -0.012212 0.000000 0.031294
#
#
# Mechanical properties :
#
#
# Convention : Reuss Voigt Hill
#
# Bulk Modulus (GPa) = 41.77819 51.22049 46.49934
# Shear Modulus (GPa) = 28.63210 32.76966 30.70088
#
# Velocity S-wave (km/s) = 3.70236 3.96085 3.83378
# Velocity P-wave (km/s) = 6.18690 6.74087 6.46982
#
# Compressibility (1/GPa) = 0.02393593
#
# Stress axis : x y z
#
# Youngs Moduli (GPa) = 50.71079 92.31103 90.46201
#
# Poissons Ratio (x) = 0.57825 -0.09372
# Poissons Ratio (y) = 0.31766 0.32633
# Poissons Ratio (z) = -0.05254 0.33300
#
# Static dielectric constant tensor:
#      x y z
#    x 1.777030 0.000000 0.017530 
#    y 0.000000 1.749520 0.000000 
#    z 0.017530 0.000000 1.757310 
# 
# From -- ./inp_files/257659.got.cif
#   From: 2010.05.17/outbox.cif.g08.bks.cpg/sg15_129_cif.got.tgz:257659.got - 2010.06.03 18:47:42.
