data_PCOD9304823
_publ_section_title
;
Structure prediction by ZEFSAII (Michael W. Deem and Ramdas Pophale) SiO2 
 PCOD9304823
Probable space group: C 2/C
;
_chemical_formula_sum "Si O2"
_cell_formula_units_Z 44
_cell_length_a 6.705563
_cell_length_b 25.895516
_cell_length_c 17.599663
_cell_angle_alpha 90.000000
_cell_angle_beta 136.749148
_cell_angle_gamma 90.000000
_cell_volume 2094.004480
_symmetry_space_group_name_H-M "C 2/C"
_symmetry_group_IT_number 15
_symmetry_cell_setting 'monoclinic'
loop_
_space_group_symop_operation_xyz
x,y,z
-x,y,1/2-z
-x,-y,-z
x,-y,1/2+z
1/2+x,1/2+y,z
1/2-x,1/2+y,1/2-z
1/2-x,1/2-y,-z
1/2+x,1/2-y,1/2+z
loop_
_atom_site_type_symbol
_atom_site_label
_atom_site_fract_x
_atom_site_fract_y
_atom_site_fract_z
Si Si1 0.000000 0.243002 0.250000
Si Si2 0.652824 0.384242 0.363264
Si Si3 0.291072 0.567771 0.016078
Si Si4 0.170136 0.969289 0.145188
Si Si5 0.343679 0.664644 0.342692
Si Si6 0.058714 0.200108 0.960578
O O1 0.090293 0.204848 0.206235
O O2 0.246355 0.281673 0.346631
O O3 0.500000 0.355075 0.250000
O O4 0.412046 0.427178 0.315668
O O5 0.678643 0.346072 0.441790
O O6 0.959618 0.413234 0.435548
O O7 0.420574 0.512978 0.080126
O O8 0.482983 0.610981 0.111748
O O9 0.340223 0.560273 0.938945
O O10 0.500000 0.989215 0.250000
O O11 0.438587 0.687158 0.450295
O O12 0.000000 0.654883 0.250000
O O13 0.250000 0.250000 0.000000
#
# Coordination Sequence:
#
# PCOD9304823 Si02
#       6
#     4   8   8   8   8   8
#     4  12  28  46  76 104 140 194 242 300 364 420
#     4  12  26  44  72 106 142 188 239 293 359 429
#     4  11  25  44  74  97 146 184 232 297 355 431
#     4  11  23  47  69 106 139 185 237 291 360 422
#     4  12  26  49  70 105 142 188 243 295 360 428
#     4  12  27  47  71 103 145 187 239 297 353 423
#
# _framework density 21.012371000000002
#
# number of rings (size 3 to 8) (size 9 to 14) (size 15 to 20)
#    0.000    0.364    5.455    2.727    6.364    0.000 
#    1.636    0.000    0.000    0.000    0.000    0.000 
#    0.000    0.000    0.000    0.000    0.000    0.000 
#
# Total GULP energy -122902.485956 kJ/mol
# GULP energy per Si atom -5586.476634 kJ/mol
# Density = 2.096455 g / cm^3
# Si number density = 21.012371 Si / 1000 Ang^3
#
#
#
# Elastic Constant Matrix: (Units=GPa)
#
#
# Indices 1 2 3 4 5 6 
#
# 1 68.0216 29.3019 45.1629 -0.0001 2.7252 0.0019
# 2 29.3019 60.0413 33.7274 0.0003 3.5970 -0.0006
# 3 45.1629 33.7274 129.8770 -0.0010 12.1170 0.0065
# 4 -0.0001 0.0003 -0.0010 34.0304 -0.0003 32.8338
# 5 2.7252 3.5970 12.1170 -0.0003 49.2646 0.0024
# 6 0.0019 -0.0006 0.0065 32.8338 0.0024 -71.4248
#
#
#
# Elastic Compliance Matrix: (Units=1/GPa)
#
#
# Indices 1 2 3 4 5 6 
#
# 1 0.021627 -0.007418 -0.005663 0.000000 0.000738 0.000000
# 2 -0.007418 0.022045 -0.003105 0.000000 -0.000436 -0.000001
# 3 -0.005663 -0.003105 0.010670 0.000000 -0.002084 0.000001
# 4 0.000000 0.000000 0.000000 0.020357 0.000000 0.009358
# 5 0.000738 -0.000436 -0.002084 0.000000 0.020802 0.000000
# 6 0.000000 -0.000001 0.000001 0.009358 0.000000 -0.009699
#
#
# Mechanical properties :
#
#
# Convention : Reuss Voigt Hill
#
# Bulk Modulus (GPa) = 45.51496 52.70270 49.10883
# Shear Modulus (GPa) = 39.84164 12.35721 26.09942
#
# Velocity S-wave (km/s) = 4.35915 2.42769 3.52816
# Velocity P-wave (km/s) = 6.85889 5.74408 6.32609
#
# Compressibility (1/GPa) = 0.02197080
#
# Stress axis : x y z
#
# Youngs Moduli (GPa) = 46.23854 45.36076 93.72413
#
# Poissons Ratio (x) = 0.33647 0.53077
# Poissons Ratio (y) = 0.34298 0.29100
# Poissons Ratio (z) = 0.26185 0.14084
#
# Static dielectric constant tensor:
#      x y z
#    x 1.746140 0.000000 -0.024440 
#    y 0.000000 1.536240 0.000000 
#    z -0.024440 0.000000 1.734330 
# 
# From -- ./inp_files/129955.got.cif
#   From: 2010.05.17/outbox.cif.g08.bks.cpg/sg15_65_cif.got.tgz:129955.got - 2010.06.03 18:47:42.
