data_PCOD9304179
_publ_section_title
;
Structure prediction by ZEFSAII (Michael W. Deem and Ramdas Pophale) SiO2 
 PCOD9304179
Probable space group: C 2/C
;
_chemical_formula_sum "Si O2"
_cell_formula_units_Z 48
_cell_length_a 25.345627
_cell_length_b 9.837004
_cell_length_c 13.757091
_cell_angle_alpha 90.000000
_cell_angle_beta 142.382689
_cell_angle_gamma 90.000000
_cell_volume 2093.611059
_symmetry_space_group_name_H-M "C 2/C"
_symmetry_group_IT_number 15
_symmetry_cell_setting 'monoclinic'
loop_
_space_group_symop_operation_xyz
x,y,z
-x,y,1/2-z
-x,-y,-z
x,-y,1/2+z
1/2+x,1/2+y,z
1/2-x,1/2+y,1/2-z
1/2-x,1/2-y,-z
1/2+x,1/2-y,1/2+z
loop_
_atom_site_type_symbol
_atom_site_label
_atom_site_fract_x
_atom_site_fract_y
_atom_site_fract_z
Si Si1 0.599373 0.866367 0.772074
Si Si2 0.134256 0.195635 0.255425
Si Si3 0.432885 0.246049 0.482344
Si Si4 0.755177 0.531864 0.565607
Si Si5 0.000000 0.587426 0.750000
Si Si6 0.500000 0.641434 0.750000
Si Si7 0.649391 0.518633 0.094014
O O1 0.583945 0.849305 0.634656
O O2 0.563553 0.735936 0.777358
O O3 0.698979 0.911033 0.926685
O O4 0.545271 0.990014 0.738545
O O5 0.177363 0.343122 0.329485
O O6 0.172402 0.094823 0.391784
O O7 0.161431 0.132204 0.192574
O O8 0.031483 0.203509 0.112969
O O9 0.433292 0.176388 0.589318
O O10 0.367081 0.371173 0.383964
O O11 0.726404 0.485271 0.629712
O O12 0.438809 0.554451 0.591755
#
# Coordination Sequence:
#
# PCOD9304179 Si02
#       7
#     8   8   8   8   4   4   8
#     4  11  26  44  74 103 143 179 245 294 349 417
#     4  11  25  48  68 101 145 186 239 287 358 429
#     4  12  24  47  75 101 136 198 234 290 353 434
#     4  11  27  45  69 105 144 184 230 304 356 416
#     4  11  23  42  72 102 137 183 244 286 346 429
#     4  11  25  48  72 112 131 189 240 292 342 441
#     4  12  27  43  75 102 144 185 234 286 366 427
#
# _framework density 22.926893
#
# number of rings (size 3 to 8) (size 9 to 14) (size 15 to 20)
#    0.000    0.667    3.333    3.500    7.000    2.000 
#    0.000    0.000    0.000    0.000    0.000    0.000 
#    0.000    0.000    0.000    0.000    0.000    0.000 
#
# Total GULP energy -134406.544665 kJ/mol
# GULP energy per Si atom -5600.272694 kJ/mol
# Density = 2.287471 g / cm^3
# Si number density = 22.926893 Si / 1000 Ang^3
#
#
#
# Elastic Constant Matrix: (Units=GPa)
#
#
# Indices 1 2 3 4 5 6 
#
# 1 93.8962 36.2553 14.9862 0.0000 0.2197 0.0000
# 2 36.2553 68.1394 15.1189 0.0000 -5.8213 0.0000
# 3 14.9862 15.1189 35.9997 0.0000 -14.5135 0.0000
# 4 0.0000 0.0000 0.0000 22.5717 0.0000 -18.5397
# 5 0.2197 -5.8213 -14.5135 0.0000 42.6467 0.0000
# 6 0.0000 0.0000 0.0000 -18.5397 0.0000 35.8287
#
#
#
# Elastic Compliance Matrix: (Units=1/GPa)
#
#
# Indices 1 2 3 4 5 6 
#
# 1 0.013868 -0.006714 -0.003885 0.000000 -0.002310 0.000000
# 2 -0.006714 0.019435 -0.004965 0.000000 0.000998 0.000000
# 3 -0.003885 -0.004965 0.036179 0.000000 0.011655 0.000000
# 4 0.000000 0.000000 0.000000 0.077052 0.000000 0.039871
# 5 -0.002310 0.000998 0.011655 0.000000 0.027563 0.000000
# 6 0.000000 0.000000 0.000000 0.039871 0.000000 0.048542
#
#
# Mechanical properties :
#
#
# Convention : Reuss Voigt Hill
#
# Bulk Modulus (GPa) = 26.07242 36.75066 31.41154
# Shear Modulus (GPa) = 18.75812 28.98774 23.87293
#
# Velocity S-wave (km/s) = 2.86347 3.55963 3.23036
# Velocity P-wave (km/s) = 4.72539 5.74099 5.25777
#
# Compressibility (1/GPa) = 0.03835470
#
# Stress axis : x y z
#
# Youngs Moduli (GPa) = 72.10872 51.45320 27.64044
#
# Poissons Ratio (x) = 0.34547 0.10737
# Poissons Ratio (y) = 0.48415 0.13723
# Poissons Ratio (z) = 0.28011 0.25546
#
# Static dielectric constant tensor:
#      x y z
#    x 1.835440 0.000000 0.005640 
#    y 0.000000 1.833310 0.000000 
#    z 0.005640 0.000000 1.772610 
# 
# From -- ./inp_files/176936.got.cif
#   From: 2010.05.17/outbox.cif.g08.bks.cpg/sg15_89_cif.got.tgz:176936.got - 2010.06.03 18:47:42.
