data_PCOD9304893
_publ_section_title
;
Structure prediction by ZEFSAII (Michael W. Deem and Ramdas Pophale) SiO2 
 PCOD9304893
Probable space group: C 2/C
;
_chemical_formula_sum "Si O2"
_cell_formula_units_Z 48
_cell_length_a 34.545091
_cell_length_b 9.179026
_cell_length_c 21.364046
_cell_angle_alpha 90.000000
_cell_angle_beta 18.867990
_cell_angle_gamma 90.000000
_cell_volume 2190.742997
_symmetry_space_group_name_H-M "C 2/C"
_symmetry_group_IT_number 15
_symmetry_cell_setting 'monoclinic'
loop_
_space_group_symop_operation_xyz
x,y,z
-x,y,1/2-z
-x,-y,-z
x,-y,1/2+z
1/2+x,1/2+y,z
1/2-x,1/2+y,1/2-z
1/2-x,1/2-y,-z
1/2+x,1/2-y,1/2+z
loop_
_atom_site_type_symbol
_atom_site_label
_atom_site_fract_x
_atom_site_fract_y
_atom_site_fract_z
Si Si1 0.875684 0.433916 0.213504
Si Si2 0.000000 0.270769 0.750000
Si Si3 0.723824 0.389049 0.847369
Si Si4 0.889070 0.861073 0.037408
Si Si5 0.093618 0.905458 0.817437
Si Si6 0.355782 0.003833 0.891331
Si Si7 0.000000 0.737618 0.750000
O O1 0.779760 0.516635 0.317712
O O2 0.862498 0.473915 0.306716
O O3 0.000000 0.500000 0.000000
O O4 0.980290 0.116304 0.133372
O O5 0.927161 0.367243 0.810635
O O6 0.100323 0.180902 0.559669
O O7 0.818800 0.267760 0.679801
O O8 0.692524 0.495095 0.837278
O O9 0.622334 0.758389 0.297214
O O10 0.913626 0.825618 0.927591
O O11 0.216494 0.992787 0.622463
O O12 0.000000 0.000000 0.000000
O O13 0.420459 0.138235 0.826348
#
# Coordination Sequence:
#
# PCOD9304893 Si02
#       7
#     8   4   8   8   8   8   4
#     4  12  26  50  74 111 149 197 251 309 369 440
#     4  11  29  52  74 114 148 196 246 308 382 440
#     4  12  29  48  75 107 151 196 247 308 371 446
#     4  12  28  47  75 108 149 196 250 304 374 441
#     4  12  27  47  75 113 149 197 251 305 372 438
#     4  11  26  47  79 104 150 192 245 307 369 445
#     4  11  23  48  72 108 142 194 240 300 370 442
#
# _framework density 21.910374000000001
#
# number of rings (size 3 to 8) (size 9 to 14) (size 15 to 20)
#    0.000    0.333    3.333    3.000   16.333    0.667 
#    0.000    0.000    0.000    0.000    0.000    0.000 
#    0.000    0.000    0.000    0.000    0.000    0.000 
#
# Total GULP energy -134356.794082 kJ/mol
# GULP energy per Si atom -5598.199753 kJ/mol
# Density = 2.186050 g / cm^3
# Si number density = 21.910374 Si / 1000 Ang^3
#
#
#
# Elastic Constant Matrix: (Units=GPa)
#
#
# Indices 1 2 3 4 5 6 
#
# 1 96.0789 70.9000 77.2794 0.0000 1.3458 0.0000
# 2 70.9000 122.0139 62.1246 0.0000 -14.7870 0.0000
# 3 77.2794 62.1246 176.8675 0.0000 -16.5988 0.0000
# 4 0.0000 0.0000 0.0000 43.6237 0.0000 0.2519
# 5 1.3458 -14.7870 -16.5988 0.0000 43.3656 0.0000
# 6 0.0000 0.0000 0.0000 0.2519 0.0000 26.6299
#
#
#
# Elastic Compliance Matrix: (Units=1/GPa)
#
#
# Indices 1 2 3 4 5 6 
#
# 1 0.025389 -0.011780 -0.007682 0.000000 -0.007745 0.000000
# 2 -0.011780 0.015641 0.000195 0.000000 0.005774 0.000000
# 3 -0.007682 0.000195 0.009305 0.000000 0.003866 0.000000
# 4 0.000000 0.000000 0.000000 0.022925 0.000000 -0.000217
# 5 -0.007745 0.005774 0.003866 0.000000 0.026749 0.000000
# 6 0.000000 0.000000 0.000000 -0.000217 0.000000 0.037554
#
#
# Mechanical properties :
#
#
# Convention : Reuss Voigt Hill
#
# Bulk Modulus (GPa) = 84.74412 90.61872 87.68142
# Shear Modulus (GPa) = 27.77310 35.03428 31.40369
#
# Velocity S-wave (km/s) = 3.56417 4.00306 3.78998
# Velocity P-wave (km/s) = 7.46320 7.92557 7.69786
#
# Compressibility (1/GPa) = 0.01180023
#
# Stress axis : x y z
#
# Youngs Moduli (GPa) = 39.38775 63.93293 107.46886
#
# Poissons Ratio (x) = 0.75313 0.82561
# Poissons Ratio (y) = 0.46399 -0.02094
# Poissons Ratio (z) = 0.30259 -0.01246
#
# Static dielectric constant tensor:
#      x y z
#    x 1.839750 0.000000 -0.026970 
#    y 0.000000 1.835960 0.000000 
#    z -0.026970 0.000000 1.773930 
# 
# From -- ./inp_files/259291.got.cif
#   From: 2010.05.17/outbox.cif.g08.bks.cpg/sg15_130_cif.got.tgz:259291.got - 2010.06.03 18:47:42.
