data_PCOD9304281
_publ_section_title
;
Structure prediction by ZEFSAII (Michael W. Deem and Ramdas Pophale) SiO2 
 PCOD9304281
Probable space group: C 2/C
;
_chemical_formula_sum "Si O2"
_cell_formula_units_Z 48
_cell_length_a 15.578763
_cell_length_b 13.435849
_cell_length_c 17.416009
_cell_angle_alpha 90.000000
_cell_angle_beta 147.465556
_cell_angle_gamma 90.000000
_cell_volume 1960.526842
_symmetry_space_group_name_H-M "C 2/C"
_symmetry_group_IT_number 15
_symmetry_cell_setting 'monoclinic'
loop_
_space_group_symop_operation_xyz
x,y,z
-x,y,1/2-z
-x,-y,-z
x,-y,1/2+z
1/2+x,1/2+y,z
1/2-x,1/2+y,1/2-z
1/2-x,1/2-y,-z
1/2+x,1/2-y,1/2+z
loop_
_atom_site_type_symbol
_atom_site_label
_atom_site_fract_x
_atom_site_fract_y
_atom_site_fract_z
Si Si1 0.187756 0.948698 0.564904
Si Si2 0.084296 0.365855 0.640676
Si Si3 0.809294 0.644803 0.452503
Si Si4 0.254902 0.935761 0.446795
Si Si5 0.379493 0.646129 0.806654
Si Si6 0.847833 0.655365 0.723221
O O1 0.263027 0.888067 0.691692
O O2 0.231868 0.901165 0.515880
O O3 0.996666 0.941456 0.422456
O O4 0.270603 0.056478 0.629000
O O5 0.127202 0.383288 0.585006
O O6 0.035239 0.251341 0.615711
O O7 0.940698 0.431875 0.563888
O O8 0.706115 0.551503 0.403041
O O9 0.716709 0.747451 0.368914
O O10 0.962417 0.656711 0.623278
O O11 0.165339 0.873047 0.314685
O O12 0.226021 0.653323 0.745868
#
# Coordination Sequence:
#
# PCOD9304281 Si02
#       6
#     8   8   8   8   8   8
#     4  12  26  41  67  99 135 171 215 266 329 389
#     4  11  23  43  68  95 128 175 218 268 321 384
#     4  11  25  44  71  95 127 172 223 273 321 378
#     4  12  24  44  66  96 136 174 210 269 331 388
#     4  11  25  42  67  97 132 171 219 266 320 387
#     4  11  25  45  69  97 126 172 224 273 318 380
#
# _framework density 24.483214
#
# number of rings (size 3 to 8) (size 9 to 14) (size 15 to 20)
#    0.000    0.667    3.333    4.000    9.333    4.667 
#    0.000    0.000    0.000    0.000    0.000    0.000 
#    0.000    0.000    0.000    0.000    0.000    0.000 
#
# Total GULP energy -134519.302318 kJ/mol
# GULP energy per Si atom -5604.970930 kJ/mol
# Density = 2.442749 g / cm^3
# Si number density = 24.483214 Si / 1000 Ang^3
#
#
#
# Elastic Constant Matrix: (Units=GPa)
#
#
# Indices 1 2 3 4 5 6 
#
# 1 64.8922 22.7363 11.3924 0.0000 -7.5350 -0.0002
# 2 22.7363 54.6271 16.6848 -0.0001 -14.2137 -0.0004
# 3 11.3924 16.6848 86.3120 -0.0001 -5.1209 -0.0006
# 4 0.0000 -0.0001 -0.0001 41.8806 -0.0002 -2.1182
# 5 -7.5350 -14.2137 -5.1209 -0.0002 28.9288 -0.0005
# 6 -0.0002 -0.0004 -0.0006 -2.1182 -0.0005 16.9710
#
#
#
# Elastic Compliance Matrix: (Units=1/GPa)
#
#
# Indices 1 2 3 4 5 6 
#
# 1 0.018153 -0.006960 -0.000983 0.000000 0.001135 0.000000
# 2 -0.006960 0.024747 -0.003286 0.000000 0.009765 0.000001
# 3 -0.000983 -0.003286 0.012370 0.000000 0.000319 0.000000
# 4 0.000000 0.000000 0.000000 0.024029 0.000000 0.002999
# 5 0.001135 0.009765 0.000319 0.000000 0.039717 0.000001
# 6 0.000000 0.000001 0.000000 0.002999 0.000001 0.059298
#
#
# Mechanical properties :
#
#
# Convention : Reuss Voigt Hill
#
# Bulk Modulus (GPa) = 30.47690 34.16202 32.31946
# Shear Modulus (GPa) = 23.61723 27.89062 25.75392
#
# Velocity S-wave (km/s) = 3.10922 3.37883 3.24682
# Velocity P-wave (km/s) = 5.03634 5.40421 5.22352
#
# Compressibility (1/GPa) = 0.03281174
#
# Stress axis : x y z
#
# Youngs Moduli (GPa) = 55.08699 40.40897 80.84223
#
# Poissons Ratio (x) = 0.28124 0.07949
# Poissons Ratio (y) = 0.38340 0.26563
# Poissons Ratio (z) = 0.05417 0.13278
#
# Static dielectric constant tensor:
#      x y z
#    x 1.926740 0.000000 0.007280 
#    y 0.000000 1.925610 0.000000 
#    z 0.007280 0.000000 1.889070 
# 
# From -- ./inp_files/47460.got.cif
#   From: 2010.05.17/outbox.cif.g08.bks.cpg/sg15_24_cif.got.tgz:47460.got - 2010.06.03 18:47:42.
