data_PCOD9305031
_publ_section_title
;
Structure prediction by ZEFSAII (Michael W. Deem and Ramdas Pophale) SiO2 
 PCOD9305031
Probable space group: C 2/C
;
_chemical_formula_sum "Si O2"
_cell_formula_units_Z 56
_cell_length_a 9.187222
_cell_length_b 13.991895
_cell_length_c 22.564740
_cell_angle_alpha 90.000000
_cell_angle_beta 65.293361
_cell_angle_gamma 90.000000
_cell_volume 2635.098012
_symmetry_space_group_name_H-M "C 2/C"
_symmetry_group_IT_number 15
_symmetry_cell_setting 'monoclinic'
loop_
_space_group_symop_operation_xyz
x,y,z
-x,y,1/2-z
-x,-y,-z
x,-y,1/2+z
1/2+x,1/2+y,z
1/2-x,1/2+y,1/2-z
1/2-x,1/2-y,-z
1/2+x,1/2-y,1/2+z
loop_
_atom_site_type_symbol
_atom_site_label
_atom_site_fract_x
_atom_site_fract_y
_atom_site_fract_z
Si Si1 0.153194 0.950618 0.298190
Si Si2 0.664106 0.145297 0.623602
Si Si3 0.345298 0.614062 0.914515
Si Si4 0.697905 0.822013 0.326339
Si Si5 0.106850 0.476765 0.538874
Si Si6 0.421314 0.789799 0.612781
Si Si7 0.829519 0.359284 0.755850
O O1 0.264659 0.911237 0.332351
O O2 0.188460 0.883660 0.236025
O O3 0.976555 0.947050 0.355944
O O4 0.207099 0.055167 0.270430
O O5 0.482516 0.177293 0.666043
O O6 0.780604 0.238647 0.597634
O O7 0.649305 0.067295 0.573119
O O8 0.207085 0.636362 0.890579
O O9 0.437321 0.711971 0.913121
O O10 0.272042 0.565925 0.984613
O O11 0.767224 0.715966 0.314317
O O12 0.000000 0.500000 0.500000
O O13 0.001027 0.392409 0.586498
O O14 0.351406 0.802631 0.690791
O O15 0.000000 0.396849 0.750000
#
# Coordination Sequence:
#
# PCOD9305031 Si02
#       7
#     8   8   8   8   8   8   8
#     4  11  24  41  69 102 136 175 231 284 346 429
#     4  11  25  45  69 100 138 178 236 290 344 419
#     4  11  24  46  67  96 138 183 227 280 344 424
#     4  12  21  44  67 100 141 172 216 289 356 409
#     4  12  26  47  70  95 139 186 232 291 345 405
#     4  11  25  45  70 103 133 183 234 282 353 422
#     4  12  22  40  71 101 138 177 221 286 364 420
#
# _framework density 21.251581000000002
#
# number of rings (size 3 to 8) (size 9 to 14) (size 15 to 20)
#    0.000    0.571    5.714    3.857    0.000    4.000 
#    5.143    0.000    0.000    0.000    0.000    0.000 
#    0.000    0.000    0.000    0.000    0.000    0.000 
#
# Total GULP energy -156418.579199 kJ/mol
# GULP energy per Si atom -5586.377829 kJ/mol
# Density = 2.120321 g / cm^3
# Si number density = 21.251581 Si / 1000 Ang^3
#
#
#
# Elastic Constant Matrix: (Units=GPa)
#
#
# Indices 1 2 3 4 5 6 
#
# 1 91.2900 4.5101 10.9477 0.0000 -6.9175 0.0000
# 2 4.5101 70.6116 7.7435 0.0000 -6.8932 0.0000
# 3 10.9477 7.7435 44.7643 0.0000 -9.6586 0.0000
# 4 0.0000 0.0000 0.0000 32.6941 0.0000 -14.4011
# 5 -6.9175 -6.8932 -9.6586 0.0000 32.4774 0.0000
# 6 0.0000 0.0000 0.0000 -14.4011 0.0000 23.4517
#
#
#
# Elastic Compliance Matrix: (Units=1/GPa)
#
#
# Indices 1 2 3 4 5 6 
#
# 1 0.011379 -0.000305 -0.002373 0.000000 0.001653 0.000000
# 2 -0.000305 0.014633 -0.001924 0.000000 0.002469 0.000000
# 3 -0.002373 -0.001924 0.024636 0.000000 0.006413 0.000000
# 4 0.000000 0.000000 0.000000 0.041927 0.000000 0.025747
# 5 0.001653 0.002469 0.006413 0.000000 0.033574 0.000000
# 6 0.000000 0.000000 0.000000 0.025747 0.000000 0.058451
#
#
# Mechanical properties :
#
#
# Convention : Reuss Voigt Hill
#
# Bulk Modulus (GPa) = 24.12932 28.11874 26.12403
# Shear Modulus (GPa) = 24.08236 29.95562 27.01899
#
# Velocity S-wave (km/s) = 3.36996 3.75850 3.56952
# Velocity P-wave (km/s) = 5.14985 5.66526 5.41369
#
# Compressibility (1/GPa) = 0.04144336
#
# Stress axis : x y z
#
# Youngs Moduli (GPa) = 87.88070 68.33656 40.59073
#
# Poissons Ratio (x) = 0.02085 0.09634
# Poissons Ratio (y) = 0.02682 0.07810
# Poissons Ratio (z) = 0.20858 0.13148
#
# Static dielectric constant tensor:
#      x y z
#    x 1.771920 0.000000 -0.001090 
#    y 0.000000 1.800710 0.000000 
#    z -0.001090 0.000000 1.774890 
# 
# From -- ./inp_files/264591.got.cif
#   From: 2010.05.17/outbox.cif.g08.bks.cpg/sg15_133_cif.got.tgz:264591.got - 2010.06.03 18:47:42.
