data_PCOD9305526
_publ_section_title
;
Structure prediction by ZEFSAII (Michael W. Deem and Ramdas Pophale) SiO2 
 PCOD9305526
Probable space group: C 2/C
;
_chemical_formula_sum "Si O2"
_cell_formula_units_Z 48
_cell_length_a 9.145684
_cell_length_b 21.222557
_cell_length_c 11.321765
_cell_angle_alpha 90.000000
_cell_angle_beta 93.558451
_cell_angle_gamma 90.000000
_cell_volume 2193.258941
_symmetry_space_group_name_H-M "C 2/C"
_symmetry_group_IT_number 15
_symmetry_cell_setting 'monoclinic'
loop_
_space_group_symop_operation_xyz
x,y,z
-x,y,1/2-z
-x,-y,-z
x,-y,1/2+z
1/2+x,1/2+y,z
1/2-x,1/2+y,1/2-z
1/2-x,1/2-y,-z
1/2+x,1/2-y,1/2+z
loop_
_atom_site_type_symbol
_atom_site_label
_atom_site_fract_x
_atom_site_fract_y
_atom_site_fract_z
Si Si1 0.124362 0.286980 0.561905
Si Si2 0.175880 0.873421 0.768216
Si Si3 0.528243 0.900750 0.391381
Si Si4 0.024201 0.839901 0.386365
Si Si5 0.671600 0.446541 0.999526
Si Si6 0.252908 0.582316 0.486494
O O1 0.250000 0.250000 0.500000
O O2 0.213680 0.321961 0.670506
O O3 0.012784 0.232956 0.596488
O O4 0.053230 0.336358 0.467410
O O5 0.242650 0.893729 0.646803
O O6 0.000000 0.855880 0.750000
O O7 0.183805 0.930766 0.861531
O O8 0.500000 0.892248 0.250000
O O9 0.677593 0.938553 0.420114
O O10 0.396636 0.934377 0.454890
O O11 0.922689 0.887387 0.456947
O O12 0.000000 0.855955 0.250000
O O13 0.184494 0.859931 0.433716
O O14 0.643085 0.520855 0.007848
#
# Coordination Sequence:
#
# PCOD9305526 Si02
#       6
#     8   8   8   8   8   8
#     4  11  24  48  69  99 146 184 234 291 354 409
#     4  11  24  45  72 103 137 188 235 289 350 415
#     4  11  26  47  70 104 142 190 231 292 353 413
#     4  12  26  45  71 105 140 185 235 295 344 414
#     4  11  25  48  68 103 143 185 226 295 354 407
#     4  12  27  43  74 105 136 186 241 281 357 422
#
# _framework density 21.885241000000001
#
# number of rings (size 3 to 8) (size 9 to 14) (size 15 to 20)
#    0.000    0.667    5.000    2.000    7.000    4.667 
#    0.000    0.000    0.000    0.000    0.000    0.000 
#    0.000    0.000    0.000    0.000    0.000    0.000 
#
# Total GULP energy -134000.481089 kJ/mol
# GULP energy per Si atom -5583.353379 kJ/mol
# Density = 2.183543 g / cm^3
# Si number density = 21.885241 Si / 1000 Ang^3
#
#
#
# Elastic Constant Matrix: (Units=GPa)
#
#
# Indices 1 2 3 4 5 6 
#
# 1 43.9920 6.1629 0.1412 0.0000 14.6233 0.0000
# 2 6.1629 124.8255 38.6549 0.0000 15.8094 0.0000
# 3 0.1412 38.6549 159.9711 0.0000 10.5344 0.0000
# 4 0.0000 0.0000 0.0000 -2.6904 0.0000 13.4548
# 5 14.6233 15.8094 10.5344 0.0000 35.5330 0.0000
# 6 0.0000 0.0000 0.0000 13.4548 0.0000 35.4916
#
#
#
# Elastic Compliance Matrix: (Units=1/GPa)
#
#
# Indices 1 2 3 4 5 6 
#
# 1 0.026414 -0.000135 0.000736 0.000000 -0.011028 0.000000
# 2 -0.000135 0.009056 -0.001965 0.000000 -0.003391 0.000000
# 3 0.000736 -0.001965 0.006821 0.000000 -0.001451 0.000000
# 4 0.000000 0.000000 0.000000 -0.128351 0.000000 0.048658
# 5 -0.011028 -0.003391 -0.001451 0.000000 0.034620 0.000000
# 6 0.000000 0.000000 0.000000 0.048658 0.000000 0.009730
#
#
# Mechanical properties :
#
#
# Convention : Reuss Voigt Hill
#
# Bulk Modulus (GPa) = 25.27696 46.52296 35.89996
# Shear Modulus (GPa) = -193.84082 32.58882 -80.62600
#
# Velocity S-wave (km/s) = -9.42145 3.86304 -6.07621
# Velocity P-wave (km/s) = 10.33329 6.41882 5.72606
#
# Compressibility (1/GPa) = 0.03956172
#
# Stress axis : x y z
#
# Youngs Moduli (GPa) = 37.85887 110.42686 146.61098
#
# Poissons Ratio (x) = 0.01492 -0.10784
# Poissons Ratio (y) = 0.00512 0.28806
# Poissons Ratio (z) = -0.02785 0.21696
#
# Static dielectric constant tensor:
#      x y z
#    x 1.526870 0.000000 -0.048090 
#    y 0.000000 1.790960 0.000000 
#    z -0.048090 0.000000 1.743180 
# 
# From -- ./inp_files/79354.got.cif
#   From: 2010.05.17/outbox.cif.g08.bks.cpg/sg15_40_cif.got.tgz:79354.got - 2010.06.03 18:47:42.
