data_PCOD9305569
_publ_section_title
;
Structure prediction by ZEFSAII (Michael W. Deem and Ramdas Pophale) SiO2 
 PCOD9305569
Probable space group: C 2/C
;
_chemical_formula_sum "Si O2"
_cell_formula_units_Z 48
_cell_length_a 15.690390
_cell_length_b 9.029382
_cell_length_c 26.639665
_cell_angle_alpha 90.000000
_cell_angle_beta 147.012891
_cell_angle_gamma 90.000000
_cell_volume 2054.843678
_symmetry_space_group_name_H-M "C 2/C"
_symmetry_group_IT_number 15
_symmetry_cell_setting 'monoclinic'
loop_
_space_group_symop_operation_xyz
x,y,z
-x,y,1/2-z
-x,-y,-z
x,-y,1/2+z
1/2+x,1/2+y,z
1/2-x,1/2+y,1/2-z
1/2-x,1/2-y,-z
1/2+x,1/2-y,1/2+z
loop_
_atom_site_type_symbol
_atom_site_label
_atom_site_fract_x
_atom_site_fract_y
_atom_site_fract_z
Si Si1 0.395288 0.470029 0.777583
Si Si2 0.330694 0.963942 0.163234
Si Si3 0.224891 0.222100 0.045809
Si Si4 0.301378 0.472054 0.618131
Si Si5 0.748589 0.203635 0.295137
Si Si6 0.543387 0.761861 0.513280
O O1 0.351419 0.433945 0.698927
O O2 0.580723 0.429766 0.868554
O O3 0.347370 0.643733 0.760466
O O4 0.299341 0.370526 0.768270
O O5 0.500000 0.888763 0.250000
O O6 0.296428 0.067473 0.098256
O O7 0.333243 0.077545 0.211489
O O8 0.185465 0.853144 0.089523
O O9 0.310301 0.351261 0.118842
O O10 0.047991 0.245945 0.978719
O O11 0.250000 0.250000 0.000000
O O12 0.126787 0.408475 0.532199
O O13 0.908015 0.228797 0.405966
#
# Coordination Sequence:
#
# PCOD9305569 Si02
#       6
#     8   8   8   8   8   8
#     4  11  26  45  72 102 141 192 234 301 355 433
#     4  11  25  47  70 105 147 187 237 298 352 425
#     4  11  24  45  76 103 139 191 239 292 362 423
#     4  11  25  46  68 103 145 183 239 294 359 423
#     4  11  25  47  73 105 143 185 248 289 364 427
#     4  11  26  47  71 106 146 185 238 305 349 428
#
# _framework density 23.359439999999999
#
# number of rings (size 3 to 8) (size 9 to 14) (size 15 to 20)
#    0.000    1.000    3.333    3.500    9.333    2.000 
#    0.000    0.000    0.000    0.000    0.000    0.000 
#    0.000    0.000    0.000    0.000    0.000    0.000 
#
# Total GULP energy -133992.733927 kJ/mol
# GULP energy per Si atom -5583.030580 kJ/mol
# Density = 2.330627 g / cm^3
# Si number density = 23.359440 Si / 1000 Ang^3
#
#
#
# Elastic Constant Matrix: (Units=GPa)
#
#
# Indices 1 2 3 4 5 6 
#
# 1 164.2269 57.2825 74.3218 0.0000 -4.0755 0.0000
# 2 57.2825 89.6555 28.1261 0.0000 5.9333 0.0000
# 3 74.3218 28.1261 67.1226 0.0002 24.3181 -0.0001
# 4 0.0000 0.0000 0.0002 34.5250 0.0000 -3.1225
# 5 -4.0755 5.9333 24.3181 0.0000 41.2563 0.0000
# 6 0.0000 0.0000 -0.0001 -3.1225 0.0000 22.3748
#
#
#
# Elastic Compliance Matrix: (Units=1/GPa)
#
#
# Indices 1 2 3 4 5 6 
#
# 1 0.021734 -0.006205 -0.028694 0.000000 0.019953 0.000000
# 2 -0.006205 0.014706 0.002158 0.000000 -0.004000 0.000000
# 3 -0.028694 0.002158 0.059642 0.000000 -0.038300 0.000000
# 4 0.000000 0.000000 0.000000 0.029335 0.000000 0.004094
# 5 0.019953 -0.004000 -0.038300 0.000000 0.049361 0.000000
# 6 0.000000 0.000000 0.000000 0.004094 0.000000 0.045265
#
#
# Mechanical properties :
#
#
# Convention : Reuss Voigt Hill
#
# Bulk Modulus (GPa) = 32.68118 71.16289 51.92203
# Shear Modulus (GPa) = 16.90752 30.38283 23.64518
#
# Velocity S-wave (km/s) = 2.69327 3.61039 3.18501
# Velocity P-wave (km/s) = 4.86750 6.92173 5.98343
#
# Compressibility (1/GPa) = 0.03059865
#
# Stress axis : x y z
#
# Youngs Moduli (GPa) = 46.00985 67.99804 16.76673
#
# Poissons Ratio (x) = 0.42194 0.48111
# Poissons Ratio (y) = 0.28550 -0.03618
# Poissons Ratio (z) = 1.32022 -0.14671
#
# Static dielectric constant tensor:
#      x y z
#    x 1.928170 0.000000 0.093630 
#    y 0.000000 1.966920 0.000000 
#    z 0.093630 0.000000 1.956930 
# 
# From -- ./inp_files/295463.got.cif
#   From: 2010.05.17/outbox.cif.g08.bks.cpg/sg15_148_cif.got.tgz:295463.got - 2010.06.03 18:47:42.
