data_PCOD9305102
_publ_section_title
;
Structure prediction by ZEFSAII (Michael W. Deem and Ramdas Pophale) SiO2 
 PCOD9305102
Probable space group: C 2/C
;
_chemical_formula_sum "Si O2"
_cell_formula_units_Z 32
_cell_length_a 15.736921
_cell_length_b 11.919400
_cell_length_c 10.963059
_cell_angle_alpha 90.000000
_cell_angle_beta 140.713210
_cell_angle_gamma 90.000000
_cell_volume 1302.112448
_symmetry_space_group_name_H-M "C 2/C"
_symmetry_group_IT_number 15
_symmetry_cell_setting 'monoclinic'
loop_
_space_group_symop_operation_xyz
x,y,z
-x,y,1/2-z
-x,-y,-z
x,-y,1/2+z
1/2+x,1/2+y,z
1/2-x,1/2+y,1/2-z
1/2-x,1/2-y,-z
1/2+x,1/2-y,1/2+z
loop_
_atom_site_type_symbol
_atom_site_label
_atom_site_fract_x
_atom_site_fract_y
_atom_site_fract_z
Si Si1 0.876341 0.311998 0.699951
Si Si2 0.840425 0.894353 0.728901
Si Si3 0.398354 0.261069 0.496323
Si Si4 0.196029 0.999071 0.549844
O O1 0.750000 0.250000 0.500000
O O2 0.903948 0.258085 0.859099
O O3 0.837462 0.440427 0.683941
O O4 0.000000 0.301822 0.750000
O O5 0.689760 0.843414 0.552277
O O6 0.862842 0.993634 0.654578
O O7 0.860154 0.934177 0.891701
O O8 0.947825 0.799130 0.807807
O O9 0.309258 0.371682 0.419770
#
# Coordination Sequence:
#
# PCOD9305102 Si02
#       4
#     8   8   8   8
#     4  11  24  44  69 101 141 181 227 282 341 406
#     4  11  25  45  71 100 138 181 230 282 341 408
#     4  11  24  43  68 100 136 180 228 282 340 406
#     4  11  24  42  69 101 135 180 227 278 340 406
#
# _framework density 24.57545
#
# number of rings (size 3 to 8) (size 9 to 14) (size 15 to 20)
#    0.000    1.000    0.000    6.750    0.000    6.000 
#    0.000    6.250    0.000    0.000    0.000    0.000 
#    0.000    0.000    0.000    0.000    0.000    0.000 
#
# Total GULP energy -89320.868734 kJ/mol
# GULP energy per Si atom -5582.554296 kJ/mol
# Density = 2.451951 g / cm^3
# Si number density = 24.575450 Si / 1000 Ang^3
#
#
#
# Elastic Constant Matrix: (Units=GPa)
#
#
# Indices 1 2 3 4 5 6 
#
# 1 234.4497 41.3746 65.9365 0.0000 -7.4291 0.0000
# 2 41.3746 72.5331 23.6808 0.0000 5.2147 0.0000
# 3 65.9365 23.6808 85.5902 0.0000 -4.4845 0.0000
# 4 0.0000 0.0000 0.0000 43.5716 0.0000 -9.5323
# 5 -7.4291 5.2147 -4.4845 0.0000 38.8354 0.0000
# 6 0.0000 0.0000 0.0000 -9.5323 0.0000 34.4308
#
#
#
# Elastic Compliance Matrix: (Units=1/GPa)
#
#
# Indices 1 2 3 4 5 6 
#
# 1 0.005730 -0.002101 -0.003784 0.000000 0.000941 0.000000
# 2 -0.002101 0.016178 -0.003011 0.000000 -0.002922 0.000000
# 3 -0.003784 -0.003011 0.015508 0.000000 0.001471 0.000000
# 4 0.000000 0.000000 0.000000 0.024430 0.000000 0.006764
# 5 0.000941 -0.002922 0.001471 0.000000 0.026492 0.000000
# 6 0.000000 0.000000 0.000000 0.006764 0.000000 0.030916
#
#
# Mechanical properties :
#
#
# Convention : Reuss Voigt Hill
#
# Bulk Modulus (GPa) = 50.95249 72.72853 61.84051
# Shear Modulus (GPa) = 34.82179 40.80629 37.81404
#
# Velocity S-wave (km/s) = 3.76830 4.07928 3.92687
# Velocity P-wave (km/s) = 6.30171 7.20039 6.76599
#
# Compressibility (1/GPa) = 0.01962613
#
# Stress axis : x y z
#
# Youngs Moduli (GPa) = 174.51979 61.81147 64.48078
#
# Poissons Ratio (x) = 0.12986 0.24397
# Poissons Ratio (y) = 0.36665 0.19413
# Poissons Ratio (z) = 0.66032 0.18610
#
# Static dielectric constant tensor:
#      x y z
#    x 1.897400 0.000000 -0.062570 
#    y 0.000000 1.929570 0.000000 
#    z -0.062570 0.000000 1.951230 
# 
# From -- ./inp_files/94282.got.cif
#   From: 2010.05.17/outbox.cif.g08.bks.cpg/sg15_48_cif.got.tgz:94282.got - 2010.06.03 18:47:42.
