data_PCOD9305461
_publ_section_title
;
Structure prediction by ZEFSAII (Michael W. Deem and Ramdas Pophale) SiO2 
 PCOD9305461
Probable space group: C 2/C
;
_chemical_formula_sum "Si O2"
_cell_formula_units_Z 48
_cell_length_a 26.872097
_cell_length_b 12.312361
_cell_length_c 20.779912
_cell_angle_alpha 90.000000
_cell_angle_beta 16.538855
_cell_angle_gamma 90.000000
_cell_volume 1957.137959
_symmetry_space_group_name_H-M "C 2/C"
_symmetry_group_IT_number 15
_symmetry_cell_setting 'monoclinic'
loop_
_space_group_symop_operation_xyz
x,y,z
-x,y,1/2-z
-x,-y,-z
x,-y,1/2+z
1/2+x,1/2+y,z
1/2-x,1/2+y,1/2-z
1/2-x,1/2-y,-z
1/2+x,1/2-y,1/2+z
loop_
_atom_site_type_symbol
_atom_site_label
_atom_site_fract_x
_atom_site_fract_y
_atom_site_fract_z
Si Si1 0.843574 0.521419 0.785417
Si Si2 0.696768 0.088397 0.418574
Si Si3 0.899835 0.285841 0.763540
Si Si4 0.710594 0.645544 0.707962
Si Si5 0.802957 0.824349 0.127862
Si Si6 0.681666 0.369328 0.600098
O O1 0.846777 0.392247 0.787603
O O2 0.818025 0.577490 0.748067
O O3 0.016769 0.570097 0.604030
O O4 0.694594 0.562161 0.019395
O O5 0.756860 0.210022 0.328236
O O6 0.694624 0.080919 0.498400
O O7 0.807480 0.983542 0.262685
O O8 0.912658 0.190601 0.694973
O O9 0.088172 0.319471 0.559516
O O10 0.750000 0.250000 0.000000
O O11 0.686926 0.689891 0.808793
O O12 0.992268 0.855163 0.865551
O O13 0.750000 0.250000 0.500000
#
# Coordination Sequence:
#
# PCOD9305461 Si02
#       6
#     8   8   8   8   8   8
#     4  11  25  43  72 101 140 185 226 287 344 409
#     4  11  24  45  68  97 142 180 228 276 355 400
#     4  11  26  51  74 100 137 182 240 283 348 412
#     4  11  29  46  73 100 139 186 226 290 346 414
#     4  12  26  43  67 108 140 181 230 283 347 410
#     4  12  23  41  68 105 138 176 230 278 338 407
#
# _framework density 24.525607999999998
#
# number of rings (size 3 to 8) (size 9 to 14) (size 15 to 20)
#    0.000    0.667    3.333    2.500    7.000    8.667 
#    0.000    0.000    0.000    0.000    0.000    0.000 
#    0.000    0.000    0.000    0.000    0.000    0.000 
#
# Total GULP energy -134378.356156 kJ/mol
# GULP energy per Si atom -5599.098173 kJ/mol
# Density = 2.446979 g / cm^3
# Si number density = 24.525608 Si / 1000 Ang^3
#
#
#
# Elastic Constant Matrix: (Units=GPa)
#
#
# Indices 1 2 3 4 5 6 
#
# 1 92.6519 -9.6371 6.6863 0.0001 1.9214 -0.0002
# 2 -9.6371 91.5454 10.0263 0.0008 -12.2345 -0.0009
# 3 6.6863 10.0263 86.8264 -0.0018 -6.2095 -0.0004
# 4 0.0001 0.0008 -0.0018 -1.5852 0.0013 -12.9086
# 5 1.9214 -12.2345 -6.2095 0.0013 36.4283 -0.0002
# 6 -0.0002 -0.0009 -0.0004 -12.9086 -0.0002 39.2735
#
#
#
# Elastic Compliance Matrix: (Units=1/GPa)
#
#
# Indices 1 2 3 4 5 6 
#
# 1 0.011001 0.001223 -0.001013 0.000001 -0.000342 0.000000
# 2 0.001223 0.011670 -0.001180 0.000002 0.003654 0.000001
# 3 -0.001013 -0.001180 0.011851 -0.000004 0.001677 -0.000001
# 4 0.000001 0.000002 -0.000004 -0.171584 0.000006 -0.056397
# 5 -0.000342 0.003654 0.001677 0.000006 0.028982 0.000002
# 6 0.000000 0.000001 -0.000001 -0.056397 0.000002 0.006926
#
#
# Mechanical properties :
#
#
# Convention : Reuss Voigt Hill
#
# Bulk Modulus (GPa) = 30.69205 31.68608 31.18906
# Shear Modulus (GPa) = -56.59092 32.41985 -12.08553
#
# Velocity S-wave (km/s) = -4.80877 3.63971 -2.22225
# Velocity P-wave (km/s) = 4.27679 5.53272 2.48193
#
# Compressibility (1/GPa) = 0.03258173
#
# Stress axis : x y z
#
# Youngs Moduli (GPa) = 90.90486 85.69059 84.37752
#
# Poissons Ratio (x) = -0.10482 0.08546
# Poissons Ratio (y) = -0.11120 0.09961
# Poissons Ratio (z) = 0.09207 0.10116
#
# Static dielectric constant tensor:
#      x y z
#    x 1.966180 0.000000 -0.011540 
#    y 0.000000 1.988340 0.000000 
#    z -0.011540 0.000000 2.010850 
# 
# From -- ./inp_files/257602.got.cif
#   From: 2010.05.17/outbox.cif.g08.bks.cpg/sg15_129_cif.got.tgz:257602.got - 2010.06.03 18:47:42.
