data_PCOD9305595
_publ_section_title
;
Structure prediction by ZEFSAII (Michael W. Deem and Ramdas Pophale) SiO2 
 PCOD9305595
Probable space group: C 2/C
;
_chemical_formula_sum "Si O2"
_cell_formula_units_Z 60
_cell_length_a 25.560980
_cell_length_b 21.883652
_cell_length_c 13.892263
_cell_angle_alpha 90.000000
_cell_angle_beta 159.974138
_cell_angle_gamma 90.000000
_cell_volume 2661.093862
_symmetry_space_group_name_H-M "C 2/C"
_symmetry_group_IT_number 15
_symmetry_cell_setting 'monoclinic'
loop_
_space_group_symop_operation_xyz
x,y,z
-x,y,1/2-z
-x,-y,-z
x,-y,1/2+z
1/2+x,1/2+y,z
1/2-x,1/2+y,1/2-z
1/2-x,1/2-y,-z
1/2+x,1/2-y,1/2+z
loop_
_atom_site_type_symbol
_atom_site_label
_atom_site_fract_x
_atom_site_fract_y
_atom_site_fract_z
Si Si1 0.373387 0.288822 0.337761
Si Si2 0.500000 0.438729 0.750000
Si Si3 0.608622 0.820951 0.751062
Si Si4 0.237110 0.502414 0.676109
Si Si5 0.822684 0.364971 0.967530
Si Si6 0.823630 0.737078 0.824578
Si Si7 0.314382 0.649989 0.067731
Si Si8 0.964710 0.540260 0.345319
O O1 0.392971 0.217012 0.349829
O O2 0.273996 0.294917 0.261279
O O3 0.533160 0.321172 0.624063
O O4 0.277722 0.317855 0.085947
O O5 0.399496 0.475688 0.497889
O O6 0.621383 0.398867 0.897964
O O7 0.501053 0.780045 0.635289
O O8 0.551030 0.889472 0.651041
O O9 0.222415 0.429354 0.657149
O O10 0.184296 0.521804 0.476595
O O11 0.107544 0.531362 0.520822
O O12 0.000000 0.352657 0.250000
O O13 0.721277 0.307733 0.757735
O O14 0.790393 0.372508 0.026016
O O15 0.769390 0.704059 0.633411
O O16 0.000000 0.500000 0.500000
#
# Coordination Sequence:
#
# PCOD9305595 Si02
#       8
#     8   4   8   8   8   8   8   8
#     4  11  24  46  67 115 146 190 235 316 382 450
#     4  12  26  50  76 110 148 200 254 324 380 470
#     4  11  26  44  75 108 152 188 249 300 385 458
#     4  11  28  49  73 107 150 201 260 309 382 452
#     4  12  27  48  72 108 151 195 259 318 374 461
#     4  12  25  42  77 106 146 191 238 313 376 453
#     4  12  25  46  79 109 144 195 252 308 391 450
#     4  11  26  48  77 108 147 207 257 308 373 472
#
# _framework density 22.547118999999999
#
# number of rings (size 3 to 8) (size 9 to 14) (size 15 to 20)
#    0.000    0.533    4.000    3.200   11.200    0.533 
#    4.800    0.000    0.000    0.000    0.000    0.000 
#    0.000    0.000    0.000    0.000    0.000    0.000 
#
# Total GULP energy -167936.568021 kJ/mol
# GULP energy per Si atom -5597.885601 kJ/mol
# Density = 2.249580 g / cm^3
# Si number density = 22.547119 Si / 1000 Ang^3
#
#
#
# Elastic Constant Matrix: (Units=GPa)
#
#
# Indices 1 2 3 4 5 6 
#
# 1 104.5958 5.2935 26.9728 0.0000 0.5468 0.0000
# 2 5.2935 136.0981 41.0245 0.0000 -19.2756 0.0000
# 3 26.9728 41.0245 124.4633 0.0000 -20.5597 0.0000
# 4 0.0000 0.0000 0.0000 14.9576 0.0000 -8.6214
# 5 0.5468 -19.2756 -20.5597 0.0000 28.7421 0.0000
# 6 0.0000 0.0000 0.0000 -8.6214 0.0000 32.0414
#
#
#
# Elastic Compliance Matrix: (Units=1/GPa)
#
#
# Indices 1 2 3 4 5 6 
#
# 1 0.010230 0.000099 -0.002575 0.000000 -0.001970 0.000000
# 2 0.000099 0.008591 -0.002157 0.000000 0.004217 0.000000
# 3 -0.002575 -0.002157 0.010288 0.000000 0.005962 0.000000
# 4 0.000000 0.000000 0.000000 0.079127 0.000000 0.021291
# 5 -0.001970 0.004217 0.005962 0.000000 0.041922 0.000000
# 6 0.000000 0.000000 0.000000 0.021291 0.000000 0.036938
#
#
# Mechanical properties :
#
#
# Convention : Reuss Voigt Hill
#
# Bulk Modulus (GPa) = 50.39205 56.85986 53.62596
# Shear Modulus (GPa) = 24.63331 34.60597 29.61964
#
# Velocity S-wave (km/s) = 3.30892 3.92194 3.62840
# Velocity P-wave (km/s) = 6.08250 6.76622 6.43345
#
# Compressibility (1/GPa) = 0.01984440
#
# Stress axis : x y z
#
# Youngs Moduli (GPa) = 97.75222 116.39931 97.19801
#
# Poissons Ratio (x) = -0.01156 0.25030
# Poissons Ratio (y) = -0.00971 0.20962
# Poissons Ratio (z) = 0.25172 0.25103
#
# Static dielectric constant tensor:
#      x y z
#    x 1.841710 0.000000 -0.004610 
#    y 0.000000 1.815740 0.000000 
#    z -0.004610 0.000000 1.853510 
# 
# From -- ./inp_files/179117.got.cif
#   From: 2010.05.17/outbox.cif.g08.bks.cpg/sg15_90_cif.got.tgz:179117.got - 2010.06.03 18:47:42.
