data_PCOD9305712
_publ_section_title
;
Structure prediction by ZEFSAII (Michael W. Deem and Ramdas Pophale) SiO2 
 PCOD9305712
Probable space group: C 2/C
;
_chemical_formula_sum "Si O2"
_cell_formula_units_Z 52
_cell_length_a 20.773625
_cell_length_b 20.399383
_cell_length_c 11.149192
_cell_angle_alpha 90.000000
_cell_angle_beta 30.232610
_cell_angle_gamma 90.000000
_cell_volume 2378.933708
_symmetry_space_group_name_H-M "C 2/C"
_symmetry_group_IT_number 15
_symmetry_cell_setting 'monoclinic'
loop_
_space_group_symop_operation_xyz
x,y,z
-x,y,1/2-z
-x,-y,-z
x,-y,1/2+z
1/2+x,1/2+y,z
1/2-x,1/2+y,1/2-z
1/2-x,1/2-y,-z
1/2+x,1/2-y,1/2+z
loop_
_atom_site_type_symbol
_atom_site_label
_atom_site_fract_x
_atom_site_fract_y
_atom_site_fract_z
Si Si1 0.605227 0.989491 0.675552
Si Si2 0.446420 0.889949 0.078321
Si Si3 0.000000 0.885719 0.750000
Si Si4 0.112908 0.050305 0.844919
Si Si5 0.631420 0.784975 0.845701
Si Si6 0.098324 0.822511 0.201775
Si Si7 0.215342 0.204519 0.943964
O O1 0.500000 0.012755 0.750000
O O2 0.744861 0.977684 0.398031
O O3 0.612727 0.046389 0.762635
O O4 0.544459 0.921988 0.825271
O O5 0.333252 0.842443 0.216666
O O6 0.531870 0.843531 0.025716
O O7 0.088175 0.926227 0.519486
O O8 0.096029 0.841048 0.671847
O O9 0.097698 0.110578 0.777683
O O10 0.000000 0.000000 0.000000
O O11 0.761807 0.812775 0.579902
O O12 0.576019 0.735969 0.833206
O O13 0.668145 0.746192 0.906285
O O14 0.000000 0.821834 0.250000
O O15 0.250000 0.250000 0.000000
#
# Coordination Sequence:
#
# PCOD9305712 Si02
#       7
#     8   8   4   8   8   8   8
#     4  11  26  47  76 105 146 197 251 309 374 444
#     4  11  25  47  72 108 146 190 247 309 373 442
#     4  12  26  48  68 108 152 188 254 302 378 448
#     4  12  27  49  73 106 149 202 254 311 374 462
#     4  11  24  46  75 108 149 185 253 306 379 447
#     4  11  25  45  73 109 144 191 245 308 377 451
#     4  12  26  43  75 108 152 197 238 307 380 447
#
# _framework density 21.858533000000001
#
# number of rings (size 3 to 8) (size 9 to 14) (size 15 to 20)
#    0.000    0.615    3.077    3.692    5.385    3.077 
#    0.000    0.000    0.000    0.000    0.000    0.000 
#    0.000    0.000    0.000    0.000    0.000    0.000 
#
# Total GULP energy -145539.405580 kJ/mol
# GULP energy per Si atom -5597.669445 kJ/mol
# Density = 2.180878 g / cm^3
# Si number density = 21.858533 Si / 1000 Ang^3
#
#
#
# Elastic Constant Matrix: (Units=GPa)
#
#
# Indices 1 2 3 4 5 6 
#
# 1 102.8736 24.4149 34.5086 -0.0002 -4.0644 0.0002
# 2 24.4149 84.4209 54.1238 0.0001 -9.4756 0.0000
# 3 34.5086 54.1238 162.5905 0.0001 -8.6166 -0.0001
# 4 -0.0002 0.0001 0.0001 34.6103 -0.0003 -6.1023
# 5 -4.0644 -9.4756 -8.6166 -0.0003 33.5126 0.0001
# 6 0.0002 0.0000 -0.0001 -6.1023 0.0001 35.4524
#
#
#
# Elastic Compliance Matrix: (Units=1/GPa)
#
#
# Indices 1 2 3 4 5 6 
#
# 1 0.010752 -0.002062 -0.001579 0.000000 0.000315 0.000000
# 2 -0.002062 0.015760 -0.004649 0.000000 0.003011 0.000000
# 3 -0.001579 -0.004649 0.008063 0.000000 0.000567 0.000000
# 4 0.000000 0.000000 0.000000 0.029797 0.000000 0.005129
# 5 0.000315 0.003011 0.000567 0.000000 0.030875 0.000000
# 6 0.000000 0.000000 0.000000 0.005129 0.000000 0.029090
#
#
# Mechanical properties :
#
#
# Convention : Reuss Voigt Hill
#
# Bulk Modulus (GPa) = 55.56924 63.99774 59.78349
# Shear Modulus (GPa) = 34.03299 36.50423 35.26861
#
# Velocity S-wave (km/s) = 3.95012 4.09102 4.02119
# Velocity P-wave (km/s) = 6.80309 7.18728 6.99782
#
# Compressibility (1/GPa) = 0.01799557
#
# Stress axis : x y z
#
# Youngs Moduli (GPa) = 93.00487 63.45053 124.01955
#
# Poissons Ratio (x) = 0.13083 0.19583
# Poissons Ratio (y) = 0.19177 0.57659
# Poissons Ratio (z) = 0.14685 0.29499
#
# Static dielectric constant tensor:
#      x y z
#    x 3.166940 -0.000010 -0.191290 
#    y -0.000010 1.832610 0.000000 
#    z -0.191290 0.000000 1.817980 
# 
# From -- ./inp_files/114360.got.cif
#   From: 2010.05.17/outbox.cif.g08.bks.cpg/sg15_58_cif.got.tgz:114360.got - 2010.06.03 18:47:42.
