data_PCOD9305918
_publ_section_title
;
Structure prediction by ZEFSAII (Michael W. Deem and Ramdas Pophale) SiO2 
 PCOD9305918
Probable space group: C 2/C
;
_chemical_formula_sum "Si O2"
_cell_formula_units_Z 36
_cell_length_a 14.949812
_cell_length_b 7.828550
_cell_length_c 13.502994
_cell_angle_alpha 90.000000
_cell_angle_beta 57.783293
_cell_angle_gamma 90.000000
_cell_volume 1337.016836
_symmetry_space_group_name_H-M "C 2/C"
_symmetry_group_IT_number 15
_symmetry_cell_setting 'monoclinic'
loop_
_space_group_symop_operation_xyz
x,y,z
-x,y,1/2-z
-x,-y,-z
x,-y,1/2+z
1/2+x,1/2+y,z
1/2-x,1/2+y,1/2-z
1/2-x,1/2-y,-z
1/2+x,1/2-y,1/2+z
loop_
_atom_site_type_symbol
_atom_site_label
_atom_site_fract_x
_atom_site_fract_y
_atom_site_fract_z
Si Si1 0.154137 0.732470 0.294648
Si Si2 0.000000 0.500000 0.500000
Si Si3 0.884939 0.049328 0.865783
Si Si4 0.805746 0.956777 0.610584
Si Si5 0.610528 0.848163 0.125609
O O1 0.067214 0.591897 0.369262
O O2 0.168987 0.821757 0.178106
O O3 0.131289 0.886364 0.381499
O O4 0.271642 0.651568 0.226883
O O5 0.084785 0.581756 0.531382
O O6 0.000000 0.046068 0.750000
O O7 0.852330 0.851124 0.897197
O O8 0.872917 0.126098 0.983365
O O9 0.697933 0.034042 0.627427
O O10 0.500000 0.845991 0.250000
#
# Coordination Sequence:
#
# PCOD9305918 Si02
#       5
#     8   4   8   8   8
#     4  12  28  47  79 118 158 207 265 324 402 468
#     4  12  26  48  80 116 150 214 262 320 398 468
#     4  11  27  47  72 112 157 209 261 329 387 469
#     4  12  26  48  78 114 159 208 263 320 397 475
#     4  11  24  48  76 112 158 207 263 325 394 467
#
# _framework density 26.925615000000001
#
# number of rings (size 3 to 8) (size 9 to 14) (size 15 to 20)
#    0.000    0.444    4.444    2.667    6.222    2.667 
#    0.000    0.000    0.000    0.000    0.000    0.000 
#    0.000    0.000    0.000    0.000    0.000    0.000 
#
# Total GULP energy -100205.044115 kJ/mol
# GULP energy per Si atom -5566.946895 kJ/mol
# Density = 2.686433 g / cm^3
# Si number density = 26.925615 Si / 1000 Ang^3
#
#
#
# Elastic Constant Matrix: (Units=GPa)
#
#
# Indices 1 2 3 4 5 6 
#
# 1 55.1843 16.5921 20.3728 0.0000 -3.8979 0.0000
# 2 16.5921 75.9958 36.4441 0.0000 -2.1739 0.0000
# 3 20.3728 36.4441 171.4391 0.0000 -16.4790 0.0000
# 4 0.0000 0.0000 0.0000 37.9940 0.0000 -4.2885
# 5 -3.8979 -2.1739 -16.4790 0.0000 38.9994 0.0000
# 6 0.0000 0.0000 0.0000 -4.2885 0.0000 28.4737
#
#
#
# Elastic Compliance Matrix: (Units=1/GPa)
#
#
# Indices 1 2 3 4 5 6 
#
# 1 0.019828 -0.003585 -0.001483 0.000000 0.001155 0.000000
# 2 -0.003585 0.015311 -0.002899 0.000000 -0.000730 0.000000
# 3 -0.001483 -0.002899 0.006875 0.000000 0.002595 0.000000
# 4 0.000000 0.000000 0.000000 0.026775 0.000000 0.004033
# 5 0.001155 -0.000730 0.002595 0.000000 0.026813 0.000000
# 6 0.000000 0.000000 0.000000 0.004033 0.000000 0.035727
#
#
# Mechanical properties :
#
#
# Convention : Reuss Voigt Hill
#
# Bulk Modulus (GPa) = 38.34351 49.93747 44.14049
# Shear Modulus (GPa) = 32.06039 36.37410 34.21724
#
# Velocity S-wave (km/s) = 3.45440 3.67946 3.56870
# Velocity P-wave (km/s) = 5.49381 6.05293 5.78013
#
# Compressibility (1/GPa) = 0.02608003
#
# Stress axis : x y z
#
# Youngs Moduli (GPa) = 50.43361 65.31449 145.45664
#
# Poissons Ratio (x) = 0.23413 0.21574
# Poissons Ratio (y) = 0.18079 0.42165
# Poissons Ratio (z) = 0.07480 0.18934
#
# Static dielectric constant tensor:
#      x y z
#    x 2.176310 0.000000 0.010370 
#    y 0.000000 2.268660 0.000000 
#    z 0.010370 0.000000 2.148660 
# 
# From -- ./inp_files/102619.got.cif
#   From: 2010.05.17/outbox.cif.g08.bks.cpg/sg15_52_cif.got.tgz:102619.got - 2010.06.03 18:47:42.
