data_PCOD9305452
_publ_section_title
;
Structure prediction by ZEFSAII (Michael W. Deem and Ramdas Pophale) SiO2 
 PCOD9305452
Probable space group: C 2/C
;
_chemical_formula_sum "Si O2"
_cell_formula_units_Z 60
_cell_length_a 30.049873
_cell_length_b 8.786406
_cell_length_c 10.922699
_cell_angle_alpha 90.000000
_cell_angle_beta 110.166099
_cell_angle_gamma 90.000000
_cell_volume 2707.131676
_symmetry_space_group_name_H-M "C 2/C"
_symmetry_group_IT_number 15
_symmetry_cell_setting 'monoclinic'
loop_
_space_group_symop_operation_xyz
x,y,z
-x,y,1/2-z
-x,-y,-z
x,-y,1/2+z
1/2+x,1/2+y,z
1/2-x,1/2+y,1/2-z
1/2-x,1/2-y,-z
1/2+x,1/2-y,1/2+z
loop_
_atom_site_type_symbol
_atom_site_label
_atom_site_fract_x
_atom_site_fract_y
_atom_site_fract_z
Si Si1 0.109948 0.284419 0.983190
Si Si2 0.791214 0.245027 0.140947
Si Si3 0.560935 0.631293 0.715103
Si Si4 0.500000 0.637142 0.250000
Si Si5 0.770616 0.818899 0.193865
Si Si6 0.851891 0.979935 0.826232
Si Si7 0.012010 0.321774 0.015366
Si Si8 0.693120 0.940793 0.950015
O O1 0.085302 0.245626 0.831974
O O2 0.147984 0.414918 0.993846
O O3 0.138253 0.137626 0.056954
O O4 0.067860 0.311190 0.038960
O O5 0.765583 0.239367 0.248503
O O6 0.832059 0.117609 0.190386
O O7 0.813630 0.410706 0.138178
O O8 0.750000 0.250000 0.000000
O O9 0.542895 0.481520 0.769667
O O10 0.600393 0.570680 0.658785
O O11 0.517547 0.719469 0.609734
O O12 0.498887 0.744413 0.131230
O O13 0.797692 0.702217 0.131050
O O14 0.809422 0.904624 0.311399
O O15 0.739754 0.933755 0.080837
O O16 0.000000 0.500000 0.000000
#
# Coordination Sequence:
#
# PCOD9305452 Si02
#       8
#     8   8   8   4   8   8   8   8
#     4  12  25  47  76 103 149 189 246 299 376 442
#     4  12  26  43  68 102 148 189 245 301 358 432
#     4  12  25  49  77 110 146 191 251 309 375 454
#     4  12  24  48  82 108 146 200 244 302 380 454
#     4  11  24  45  68 101 142 193 243 298 370 425
#     4  12  25  44  71 108 138 195 250 299 356 453
#     4  12  29  50  79 113 155 193 246 320 386 448
#     4  11  25  44  70 100 146 194 236 308 370 430
#
# _framework density 22.163681
#
# number of rings (size 3 to 8) (size 9 to 14) (size 15 to 20)
#    0.000    0.267    6.667    2.000    5.600    2.133 
#    2.400    0.000    0.000    0.000    0.000    0.000 
#    0.000    0.000    0.000    0.000    0.000    0.000 
#
# Total GULP energy -167774.751838 kJ/mol
# GULP energy per Si atom -5592.491728 kJ/mol
# Density = 2.211324 g / cm^3
# Si number density = 22.163681 Si / 1000 Ang^3
#
#
#
# Elastic Constant Matrix: (Units=GPa)
#
#
# Indices 1 2 3 4 5 6 
#
# 1 116.5404 36.9694 19.3385 0.0000 6.3407 0.0000
# 2 36.9694 79.8898 -1.1801 0.0000 2.0922 0.0000
# 3 19.3385 -1.1801 63.0625 0.0000 -0.4479 0.0000
# 4 0.0000 0.0000 0.0000 29.3763 0.0000 10.4415
# 5 6.3407 2.0922 -0.4479 0.0000 28.2810 0.0000
# 6 0.0000 0.0000 0.0000 10.4415 0.0000 19.5996
#
#
#
# Elastic Compliance Matrix: (Units=1/GPa)
#
#
# Indices 1 2 3 4 5 6 
#
# 1 0.010859 -0.005020 -0.003439 0.000000 -0.002118 0.000000
# 2 -0.005020 0.014866 0.001818 0.000000 0.000055 0.000000
# 3 -0.003439 0.001818 0.016952 0.000000 0.000905 0.000000
# 4 0.000000 0.000000 0.000000 0.041993 0.000000 -0.022371
# 5 -0.002118 0.000055 0.000905 0.000000 0.035845 0.000000
# 6 0.000000 0.000000 0.000000 -0.022371 0.000000 0.062939
#
#
# Mechanical properties :
#
#
# Convention : Reuss Voigt Hill
#
# Bulk Modulus (GPa) = 34.01975 41.08315 37.55145
# Shear Modulus (GPa) = 24.20895 29.07569 26.64232
#
# Velocity S-wave (km/s) = 3.30855 3.62589 3.47085
# Velocity P-wave (km/s) = 5.47522 6.00882 5.74821
#
# Compressibility (1/GPa) = 0.02939469
#
# Stress axis : x y z
#
# Youngs Moduli (GPa) = 92.08755 67.26793 58.98887
#
# Poissons Ratio (x) = 0.33772 0.20287
# Poissons Ratio (y) = 0.46233 -0.10725
# Poissons Ratio (z) = 0.31669 -0.12230
#
# Static dielectric constant tensor:
#      x y z
#    x 1.808610 0.000000 0.013860 
#    y 0.000000 1.809710 0.000000 
#    z 0.013860 0.000000 1.807930 
# 
# From -- ./inp_files/125961.got.cif
#   From: 2010.05.17/outbox.cif.g08.bks.cpg/sg15_63_cif.got.tgz:125961.got - 2010.06.03 18:47:42.
