data_PCOD9305139
_publ_section_title
;
Structure prediction by ZEFSAII (Michael W. Deem and Ramdas Pophale) SiO2 
 PCOD9305139
Probable space group: C 2/C
;
_chemical_formula_sum "Si O2"
_cell_formula_units_Z 56
_cell_length_a 13.898288
_cell_length_b 14.569483
_cell_length_c 21.619249
_cell_angle_alpha 90.000000
_cell_angle_beta 32.180539
_cell_angle_gamma 90.000000
_cell_volume 2331.514411
_symmetry_space_group_name_H-M "C 2/C"
_symmetry_group_IT_number 15
_symmetry_cell_setting 'monoclinic'
loop_
_space_group_symop_operation_xyz
x,y,z
-x,y,1/2-z
-x,-y,-z
x,-y,1/2+z
1/2+x,1/2+y,z
1/2-x,1/2+y,1/2-z
1/2-x,1/2-y,-z
1/2+x,1/2-y,1/2+z
loop_
_atom_site_type_symbol
_atom_site_label
_atom_site_fract_x
_atom_site_fract_y
_atom_site_fract_z
Si Si1 0.213218 0.406709 0.654361
Si Si2 0.938243 0.902607 0.649615
Si Si3 0.248259 0.742032 0.313798
Si Si4 0.821603 0.107546 0.753749
Si Si5 0.217445 0.605484 0.618723
Si Si6 0.794314 0.143924 0.977422
Si Si7 0.557907 0.091223 0.005185
O O1 0.305409 0.367667 0.665697
O O2 0.254056 0.514712 0.638955
O O3 0.320193 0.377931 0.535037
O O4 0.000000 0.392365 0.750000
O O5 0.923714 0.820867 0.707239
O O6 0.146010 0.913142 0.513654
O O7 0.848303 0.998550 0.722585
O O8 0.238725 0.825099 0.269157
O O9 0.225264 0.795298 0.389891
O O10 0.091764 0.666363 0.398751
O O11 0.700416 0.129245 0.878528
O O12 0.024133 0.134226 0.658585
O O13 0.000000 0.610154 0.750000
O O14 0.649482 0.078562 0.022583
O O15 0.750000 0.250000 0.000000
O O16 0.500000 0.000000 0.000000
#
# Coordination Sequence:
#
# PCOD9305139 Si02
#       7
#     8   8   8   8   8   8   8
#     4  11  24  42  73 106 144 185 245 300 361 444
#     4  12  24  48  77 107 152 198 241 314 373 435
#     4  12  25  46  75 107 145 200 244 306 382 446
#     4  12  25  47  76 106 150 193 246 309 375 453
#     4  11  25  46  71 105 143 196 262 298 360 446
#     4  12  26  44  71 108 145 189 247 305 375 441
#     4  12  27  48  71 107 152 194 240 310 387 450
#
# _framework density 24.018723000000001
#
# number of rings (size 3 to 8) (size 9 to 14) (size 15 to 20)
#    0.000    0.286    5.714    3.429    2.000    0.571 
#    2.571    0.000    0.000    0.000    0.000    0.000 
#    0.000    0.000    0.000    0.000    0.000    0.000 
#
# Total GULP energy -156096.037282 kJ/mol
# GULP energy per Si atom -5574.858474 kJ/mol
# Density = 2.396406 g / cm^3
# Si number density = 24.018723 Si / 1000 Ang^3
#
#
#
# Elastic Constant Matrix: (Units=GPa)
#
#
# Indices 1 2 3 4 5 6 
#
# 1 52.5912 23.6062 5.7356 -0.0007 12.2184 0.0000
# 2 23.6062 125.8713 13.2748 -0.0022 8.8627 0.0003
# 3 5.7356 13.2748 130.3529 -0.0053 8.5345 0.0008
# 4 -0.0007 -0.0022 -0.0053 38.9016 0.0009 9.1035
# 5 12.2184 8.8627 8.5345 0.0009 29.3373 0.0000
# 6 0.0000 0.0003 0.0008 9.1035 0.0000 27.9795
#
#
#
# Elastic Compliance Matrix: (Units=1/GPa)
#
#
# Indices 1 2 3 4 5 6 
#
# 1 0.022583 -0.003644 -0.000080 0.000000 -0.008281 0.000000
# 2 -0.003644 0.008765 -0.000671 0.000000 -0.000935 0.000000
# 3 -0.000080 -0.000671 0.007878 0.000001 -0.002056 -0.000001
# 4 0.000000 0.000000 0.000001 0.027824 -0.000002 -0.009053
# 5 -0.008281 -0.000935 -0.002056 -0.000002 0.038416 0.000001
# 6 0.000000 0.000000 -0.000001 -0.009053 0.000001 0.038686
#
#
# Mechanical properties :
#
#
# Convention : Reuss Voigt Hill
#
# Bulk Modulus (GPa) = 32.85675 43.78317 38.31996
# Shear Modulus (GPa) = 30.65856 36.99028 33.82442
#
# Velocity S-wave (km/s) = 3.57661 3.92862 3.75674
# Velocity P-wave (km/s) = 5.54667 6.23274 5.89969
#
# Compressibility (1/GPa) = 0.03043514
#
# Stress axis : x y z
#
# Youngs Moduli (GPa) = 44.28145 114.09579 126.93681
#
# Poissons Ratio (x) = 0.41573 0.01021
# Poissons Ratio (y) = 0.16135 0.08518
# Poissons Ratio (z) = 0.00356 0.07656
#
# Static dielectric constant tensor:
#      x y z
#    x 1.979830 0.000000 -0.071160 
#    y 0.000000 2.226270 0.000000 
#    z -0.071160 0.000000 1.965410 
# 
# From -- ./inp_files/274452.got.cif
#   From: 2010.05.17/outbox.cif.g08.bks.cpg/sg15_138_cif.got.tgz:274452.got - 2010.06.03 18:47:42.
