data_PCOD9305177
_publ_section_title
;
Structure prediction by ZEFSAII (Michael W. Deem and Ramdas Pophale) SiO2 
 PCOD9305177
Probable space group: C 2/C
;
_chemical_formula_sum "Si O2"
_cell_formula_units_Z 56
_cell_length_a 28.274694
_cell_length_b 9.693344
_cell_length_c 9.544537
_cell_angle_alpha 90.000000
_cell_angle_beta 120.234544
_cell_angle_gamma 90.000000
_cell_volume 2260.090118
_symmetry_space_group_name_H-M "C 2/C"
_symmetry_group_IT_number 15
_symmetry_cell_setting 'monoclinic'
loop_
_space_group_symop_operation_xyz
x,y,z
-x,y,1/2-z
-x,-y,-z
x,-y,1/2+z
1/2+x,1/2+y,z
1/2-x,1/2+y,1/2-z
1/2-x,1/2-y,-z
1/2+x,1/2-y,1/2+z
loop_
_atom_site_type_symbol
_atom_site_label
_atom_site_fract_x
_atom_site_fract_y
_atom_site_fract_z
Si Si1 0.773580 0.003161 0.400292
Si Si2 0.787763 0.754506 0.256213
Si Si3 0.396570 0.547963 0.588454
Si Si4 0.112982 0.677686 0.272086
Si Si5 0.081244 0.161741 0.168091
Si Si6 0.165048 0.390234 0.396485
Si Si7 0.986659 0.360974 0.063727
O O1 0.773123 0.911027 0.259733
O O2 0.721618 0.940630 0.406457
O O3 0.763933 0.161084 0.350451
O O4 0.835666 0.997427 0.543740
O O5 0.829369 0.733700 0.194545
O O6 0.815662 0.686365 0.434534
O O7 0.409094 0.703068 0.659593
O O8 0.402247 0.557614 0.430748
O O9 0.431160 0.429319 0.712928
O O10 0.126664 0.526554 0.356289
O O11 0.075097 0.667877 0.077517
O O12 0.128729 0.277548 0.259084
O O13 0.025952 0.244810 0.058304
O O14 0.000000 0.372564 0.250000
O O15 0.000000 0.500000 0.000000
#
# Coordination Sequence:
#
# PCOD9305177 Si02
#       7
#     8   8   8   8   8   8   8
#     4  11  25  40  71 103 154 198 251 305 385 443
#     4  11  24  43  67 105 151 194 255 307 375 452
#     4  12  29  48  76 113 156 204 244 320 381 463
#     4  11  28  45  76 106 150 193 259 312 379 453
#     4  12  28  52  79 110 156 197 262 310 393 451
#     4  11  24  43  74 107 146 203 253 312 370 461
#     4  12  29  52  86 115 148 200 255 324 384 449
#
# _framework density 24.777771000000001
#
# number of rings (size 3 to 8) (size 9 to 14) (size 15 to 20)
#    0.000    0.571    2.857    3.000   14.000    1.714 
#    0.000    0.000    0.000    0.000    0.000    0.000 
#    0.000    0.000    0.000    0.000    0.000    0.000 
#
# Total GULP energy -156738.363254 kJ/mol
# GULP energy per Si atom -5597.798688 kJ/mol
# Density = 2.472138 g / cm^3
# Si number density = 24.777771 Si / 1000 Ang^3
#
#
#
# Elastic Constant Matrix: (Units=GPa)
#
#
# Indices 1 2 3 4 5 6 
#
# 1 56.2736 33.9811 17.8884 0.0000 4.6222 0.0000
# 2 33.9811 122.3454 34.8173 0.0000 4.6677 0.0000
# 3 17.8884 34.8173 92.8856 0.0000 5.9920 0.0000
# 4 0.0000 0.0000 0.0000 54.2257 0.0000 -2.0535
# 5 4.6222 4.6677 5.9920 0.0000 28.3342 0.0000
# 6 0.0000 0.0000 0.0000 -2.0535 0.0000 19.8344
#
#
#
# Elastic Compliance Matrix: (Units=1/GPa)
#
#
# Indices 1 2 3 4 5 6 
#
# 1 0.021869 -0.005408 -0.002040 0.000000 -0.002245 0.000000
# 2 -0.005408 0.010504 -0.002881 0.000000 -0.000239 0.000000
# 3 -0.002040 -0.002881 0.012355 0.000000 -0.001806 0.000000
# 4 0.000000 0.000000 0.000000 0.018514 0.000000 0.001917
# 5 -0.002245 -0.000239 -0.001806 0.000000 0.036081 0.000000
# 6 0.000000 0.000000 0.000000 0.001917 0.000000 0.050616
#
#
# Mechanical properties :
#
#
# Convention : Reuss Voigt Hill
#
# Bulk Modulus (GPa) = 41.54223 49.43092 45.48658
# Shear Modulus (GPa) = 27.99256 32.80004 30.39630
#
# Velocity S-wave (km/s) = 3.36481 3.64231 3.50631
# Velocity P-wave (km/s) = 5.64786 6.13853 5.89830
#
# Compressibility (1/GPa) = 0.02407189
#
# Stress axis : x y z
#
# Youngs Moduli (GPa) = 45.72752 95.19731 80.93896
#
# Poissons Ratio (x) = 0.51481 0.16509
# Poissons Ratio (y) = 0.24729 0.23315
# Poissons Ratio (z) = 0.09327 0.27423
#
# Static dielectric constant tensor:
#      x y z
#    x 1.955590 0.000000 0.002590 
#    y 0.000000 1.944560 0.000000 
#    z 0.002590 0.000000 1.981720 
# 
# From -- ./inp_files/125968.got.cif
#   From: 2010.05.17/outbox.cif.g08.bks.cpg/sg15_63_cif.got.tgz:125968.got - 2010.06.03 18:47:42.
