data_PCOD9305018
_publ_section_title
;
Structure prediction by ZEFSAII (Michael W. Deem and Ramdas Pophale) SiO2 
 PCOD9305018
Probable space group: C 2/C
;
_chemical_formula_sum "Si O2"
_cell_formula_units_Z 64
_cell_length_a 31.033592
_cell_length_b 8.363716
_cell_length_c 11.090375
_cell_angle_alpha 90.000000
_cell_angle_beta 93.543334
_cell_angle_gamma 90.000000
_cell_volume 2873.072182
_symmetry_space_group_name_H-M "C 2/C"
_symmetry_group_IT_number 15
_symmetry_cell_setting 'monoclinic'
loop_
_space_group_symop_operation_xyz
x,y,z
-x,y,1/2-z
-x,-y,-z
x,-y,1/2+z
1/2+x,1/2+y,z
1/2-x,1/2+y,1/2-z
1/2-x,1/2-y,-z
1/2+x,1/2-y,1/2+z
loop_
_atom_site_type_symbol
_atom_site_label
_atom_site_fract_x
_atom_site_fract_y
_atom_site_fract_z
Si Si1 0.475774 0.668115 0.866222
Si Si2 0.811936 0.406892 0.560214
Si Si3 0.842764 0.246426 0.138497
Si Si4 0.519142 0.278088 0.622962
Si Si5 0.116626 0.241802 0.092721
Si Si6 0.241395 0.050208 0.384449
Si Si7 0.203690 0.816974 0.216181
Si Si8 0.885122 0.878774 0.429213
O O1 0.500000 0.724553 0.750000
O O2 0.480450 0.473697 0.870886
O O3 0.424326 0.686111 0.856694
O O4 0.493310 0.746566 0.993007
O O5 0.824526 0.576088 0.620947
O O6 0.851745 0.349941 0.482367
O O7 0.767925 0.436372 0.477518
O O8 0.804736 0.275128 0.660687
O O9 0.858995 0.220749 0.275865
O O10 0.806174 0.116274 0.095910
O O11 0.881099 0.220359 0.050888
O O12 0.500000 0.225668 0.750000
O O13 0.567389 0.207873 0.612446
O O14 0.110384 0.064948 0.035653
O O15 0.271725 0.201228 0.369586
O O16 0.234373 0.963130 0.255476
O O17 0.158539 0.863203 0.152784
#
# Coordination Sequence:
#
# PCOD9305018 Si02
#       8
#     8   8   8   8   8   8   8   8
#     4   9  19  35  64  99 134 163 212 276 334 398
#     4  12  26  42  63  93 133 179 225 273 325 392
#     4  12  25  44  66  94 136 176 225 270 326 398
#     4   9  18  36  64  97 131 168 210 273 340 395
#     4  11  24  42  68 100 132 171 219 277 334 391
#     4  12  25  43  65  94 131 177 223 274 330 386
#     4  12  25  41  66  94 132 173 225 271 332 392
#     4  11  24  41  67 100 131 171 218 275 335 390
#
# _framework density 22.275807
#
# number of rings (size 3 to 8) (size 9 to 14) (size 15 to 20)
#    0.000    1.000    2.500    4.500    3.500    2.000 
#    0.000    0.000    0.000    3.750    0.000    0.000 
#    0.000    0.000    0.000    0.000    0.000    0.000 
#
# Total GULP energy -178925.702160 kJ/mol
# GULP energy per Si atom -5591.428192 kJ/mol
# Density = 2.222511 g / cm^3
# Si number density = 22.275807 Si / 1000 Ang^3
#
#
#
# Elastic Constant Matrix: (Units=GPa)
#
#
# Indices 1 2 3 4 5 6 
#
# 1 88.0096 18.1051 32.6276 0.0000 -11.1878 0.0000
# 2 18.1051 34.6230 2.9092 0.0000 -3.7754 0.0000
# 3 32.6276 2.9092 90.0103 0.0000 -5.5009 0.0000
# 4 0.0000 0.0000 0.0000 33.1501 0.0000 -7.1444
# 5 -11.1878 -3.7754 -5.5009 0.0000 34.5266 0.0000
# 6 0.0000 0.0000 0.0000 -7.1444 0.0000 13.8309
#
#
#
# Elastic Compliance Matrix: (Units=1/GPa)
#
#
# Indices 1 2 3 4 5 6 
#
# 1 0.015120 -0.007121 -0.005048 0.000000 0.003317 0.000000
# 2 -0.007121 0.032636 0.001619 0.000000 0.001519 0.000000
# 3 -0.005048 0.001619 0.012924 0.000000 0.000600 0.000000
# 4 0.000000 0.000000 0.000000 0.033945 0.000000 0.017534
# 5 0.003317 0.001519 0.000600 0.000000 0.030300 0.000000
# 6 0.000000 0.000000 0.000000 0.017534 0.000000 0.081359
#
#
# Mechanical properties :
#
#
# Convention : Reuss Voigt Hill
#
# Bulk Modulus (GPa) = 25.26484 35.54742 30.40613
# Shear Modulus (GPa) = 20.78338 26.90158 23.84248
#
# Velocity S-wave (km/s) = 3.05782 3.47891 3.27514
# Velocity P-wave (km/s) = 4.88196 5.66830 5.28976
#
# Compressibility (1/GPa) = 0.03958070
#
# Stress axis : x y z
#
# Youngs Moduli (GPa) = 66.13588 30.64121 77.37502
#
# Poissons Ratio (x) = 0.21819 0.39060
# Poissons Ratio (y) = 0.47095 -0.12529
# Poissons Ratio (z) = 0.33386 -0.04962
#
# Static dielectric constant tensor:
#      x y z
#    x 1.812030 0.000000 -0.009550 
#    y 0.000000 1.824210 0.000000 
#    z -0.009550 0.000000 1.829560 
# 
# From -- ./inp_files/125927.got.cif
#   From: 2010.05.17/outbox.cif.g08.bks.cpg/sg15_63_cif.got.tgz:125927.got - 2010.06.03 18:47:42.
