data_PCOD9305279
_publ_section_title
;
Structure prediction by ZEFSAII (Michael W. Deem and Ramdas Pophale) SiO2 
 PCOD9305279
Probable space group: C 2/C
;
_chemical_formula_sum "Si O2"
_cell_formula_units_Z 36
_cell_length_a 12.584637
_cell_length_b 15.428780
_cell_length_c 10.129315
_cell_angle_alpha 90.000000
_cell_angle_beta 129.612050
_cell_angle_gamma 90.000000
_cell_volume 1515.154384
_symmetry_space_group_name_H-M "C 2/C"
_symmetry_group_IT_number 15
_symmetry_cell_setting 'monoclinic'
loop_
_space_group_symop_operation_xyz
x,y,z
-x,y,1/2-z
-x,-y,-z
x,-y,1/2+z
1/2+x,1/2+y,z
1/2-x,1/2+y,1/2-z
1/2-x,1/2-y,-z
1/2+x,1/2-y,1/2+z
loop_
_atom_site_type_symbol
_atom_site_label
_atom_site_fract_x
_atom_site_fract_y
_atom_site_fract_z
Si Si1 0.176495 0.996272 0.277909
Si Si2 0.150261 0.458470 0.331290
Si Si3 0.314345 0.237361 0.694139
Si Si4 0.500000 0.383674 0.750000
Si Si5 0.849503 0.792145 0.185458
O O1 0.268304 0.007114 0.220182
O O2 0.167807 0.895632 0.309435
O O3 0.253328 0.045044 0.461940
O O4 0.027454 0.041047 0.158951
O O5 0.129979 0.360861 0.259893
O O6 0.000000 0.494687 0.250000
O O7 0.250000 0.250000 0.500000
O O8 0.429494 0.310133 0.789438
O O9 0.197582 0.246807 0.711897
O O10 0.000000 0.773845 0.250000
O O11 0.750000 0.750000 0.000000
#
# Coordination Sequence:
#
# PCOD9305279 Si02
#       5
#     8   8   8   4   8
#     4  11  26  42  73 102 135 187 231 290 340 426
#     4  11  24  44  66 103 140 178 234 287 351 409
#     4  11  25  42  72 103 138 191 233 292 347 432
#     4  12  24  46  74 102 138 182 240 282 350 422
#     4  11  28  48  71 107 147 185 236 296 361 412
#
# _framework density 23.759955000000001
#
# number of rings (size 3 to 8) (size 9 to 14) (size 15 to 20)
#    0.000    0.889    4.444    0.667    6.222    1.778 
#    0.000    0.000    0.000    0.000    0.000    0.000 
#    0.000    0.000    0.000    0.000    0.000    0.000 
#
# Total GULP energy -100288.429840 kJ/mol
# GULP energy per Si atom -5571.579436 kJ/mol
# Density = 2.370588 g / cm^3
# Si number density = 23.759955 Si / 1000 Ang^3
#
#
#
# Elastic Constant Matrix: (Units=GPa)
#
#
# Indices 1 2 3 4 5 6 
#
# 1 246.7712 48.0682 54.5637 0.0000 -46.5301 0.0000
# 2 48.0682 105.8423 9.3288 0.0000 -18.1153 0.0000
# 3 54.5637 9.3288 84.2649 0.0000 -28.9702 0.0000
# 4 0.0000 0.0000 0.0000 18.9346 0.0000 -13.0518
# 5 -46.5301 -18.1153 -28.9702 0.0000 50.2785 0.0000
# 6 0.0000 0.0000 0.0000 -13.0518 0.0000 220.1264
#
#
#
# Elastic Compliance Matrix: (Units=1/GPa)
#
#
# Indices 1 2 3 4 5 6 
#
# 1 0.005490 -0.001756 -0.002284 0.000000 0.003132 0.000000
# 2 -0.001756 0.010632 0.000896 0.000000 0.002722 0.000000
# 3 -0.002284 0.000896 0.015752 0.000000 0.007285 0.000000
# 4 0.000000 0.000000 0.000000 0.055064 0.000000 0.003265
# 5 0.003132 0.002722 0.007285 0.000000 0.027966 0.000000
# 6 0.000000 0.000000 0.000000 0.003265 0.000000 0.004736
#
#
# Mechanical properties :
#
#
# Convention : Reuss Voigt Hill
#
# Bulk Modulus (GPa) = 39.08359 73.42222 56.25291
# Shear Modulus (GPa) = 37.18666 79.52909 58.35787
#
# Velocity S-wave (km/s) = 3.96042 5.79177 4.96133
# Velocity P-wave (km/s) = 6.11542 8.70028 7.51975
#
# Compressibility (1/GPa) = 0.02558618
#
# Stress axis : x y z
#
# Youngs Moduli (GPa) = 182.15353 94.05244 63.48580
#
# Poissons Ratio (x) = 0.16514 0.14498
# Poissons Ratio (y) = 0.31984 -0.05686
# Poissons Ratio (z) = 0.41597 -0.08424
#
# Static dielectric constant tensor:
#      x y z
#    x 2.181980 0.000000 0.279920 
#    y 0.000000 1.975900 0.000000 
#    z 0.279920 0.000000 2.137820 
# 
# From -- ./inp_files/29445.got.cif
#   From: 2010.05.17/outbox.cif.g08.bks.cpg/sg15_15_cif.got.tgz:29445.got - 2010.06.03 18:47:42.
