data_PCOD9305824
_publ_section_title
;
Structure prediction by ZEFSAII (Michael W. Deem and Ramdas Pophale) SiO2 
 PCOD9305824
Probable space group: C 2/C
;
_chemical_formula_sum "Si O2"
_cell_formula_units_Z 44
_cell_length_a 16.957688
_cell_length_b 7.980504
_cell_length_c 13.993205
_cell_angle_alpha 90.000000
_cell_angle_beta 110.866117
_cell_angle_gamma 90.000000
_cell_volume 1769.514338
_symmetry_space_group_name_H-M "C 2/C"
_symmetry_group_IT_number 15
_symmetry_cell_setting 'monoclinic'
loop_
_space_group_symop_operation_xyz
x,y,z
-x,y,1/2-z
-x,-y,-z
x,-y,1/2+z
1/2+x,1/2+y,z
1/2-x,1/2+y,1/2-z
1/2-x,1/2-y,-z
1/2+x,1/2-y,1/2+z
loop_
_atom_site_type_symbol
_atom_site_label
_atom_site_fract_x
_atom_site_fract_y
_atom_site_fract_z
Si Si1 0.855472 0.041749 0.625112
Si Si2 0.000000 0.822745 0.750000
Si Si3 0.735820 0.250435 0.714514
Si Si4 0.498048 0.252740 0.077894
Si Si5 0.438333 0.083331 0.865016
Si Si6 0.169362 0.907266 0.088062
O O1 0.791807 0.153495 0.658966
O O2 0.927268 0.154209 0.605914
O O3 0.817277 0.936973 0.519264
O O4 0.914764 0.928892 0.718514
O O5 0.994147 0.700325 0.658197
O O6 0.654353 0.138697 0.701929
O O7 0.785273 0.246825 0.837230
O O8 0.703659 0.424973 0.655657
O O9 0.569616 0.374678 0.065234
O O10 0.546867 0.107872 0.155673
O O11 0.449243 0.139846 0.978894
#
# Coordination Sequence:
#
# PCOD9305824 Si02
#       6
#     8   4   8   8   8   8
#     4  12  25  46  77 107 145 199 242 303 368 434
#     4  12  26  48  78 110 142 198 252 296 368 442
#     4  12  26  45  73 106 150 189 245 304 372 425
#     4  11  24  47  75  98 145 193 243 301 362 428
#     4  11  25  47  70 108 141 189 245 305 356 437
#     4  12  25  47  71 108 147 193 242 304 356 442
#
# _framework density 24.865579
#
# number of rings (size 3 to 8) (size 9 to 14) (size 15 to 20)
#    0.000    0.364    3.636    5.455    0.000    3.636 
#    3.273    2.727    0.000    0.000    0.000    0.000 
#    0.000    0.000    0.000    0.000    0.000    0.000 
#
# Total GULP energy -123140.157116 kJ/mol
# GULP energy per Si atom -5597.279869 kJ/mol
# Density = 2.480898 g / cm^3
# Si number density = 24.865579 Si / 1000 Ang^3
#
#
#
# Elastic Constant Matrix: (Units=GPa)
#
#
# Indices 1 2 3 4 5 6 
#
# 1 96.8532 24.7271 6.8127 0.0000 -7.0582 0.0000
# 2 24.7271 99.9555 18.2185 0.0000 -7.4765 0.0000
# 3 6.8127 18.2185 93.5582 0.0000 -1.6796 0.0000
# 4 0.0000 0.0000 0.0000 41.7433 0.0000 0.1885
# 5 -7.0582 -7.4765 -1.6796 0.0000 44.2364 0.0000
# 6 0.0000 0.0000 0.0000 0.1885 0.0000 23.1381
#
#
#
# Elastic Compliance Matrix: (Units=1/GPa)
#
#
# Indices 1 2 3 4 5 6 
#
# 1 0.011104 -0.002597 -0.000279 0.000000 0.001322 0.000000
# 2 -0.002597 0.011106 -0.001949 0.000000 0.001389 0.000000
# 3 -0.000279 -0.001949 0.011089 0.000000 0.000047 0.000000
# 4 0.000000 0.000000 0.000000 0.023957 0.000000 -0.000195
# 5 0.001322 0.001389 0.000047 0.000000 0.023053 0.000000
# 6 0.000000 0.000000 0.000000 -0.000195 0.000000 0.043220
#
#
# Mechanical properties :
#
#
# Convention : Reuss Voigt Hill
#
# Bulk Modulus (GPa) = 42.28439 43.32039 42.80239
# Shear Modulus (GPa) = 35.44532 37.86414 36.65473
#
# Velocity S-wave (km/s) = 3.77965 3.90648 3.84359
# Velocity P-wave (km/s) = 6.00747 6.14875 6.07852
#
# Compressibility (1/GPa) = 0.02364939
#
# Stress axis : x y z
#
# Youngs Moduli (GPa) = 90.05803 90.04162 90.17827
#
# Poissons Ratio (x) = 0.23385 0.02517
# Poissons Ratio (y) = 0.23389 0.17572
# Poissons Ratio (z) = 0.02513 0.17546
#
# Static dielectric constant tensor:
#      x y z
#    x 1.933510 0.000000 0.086650 
#    y 0.000000 2.105010 0.000000 
#    z 0.086650 0.000000 2.123040 
# 
# From -- ./inp_files/159460.got.cif
#   From: 2010.05.17/outbox.cif.g08.bks.cpg/sg15_80_cif.got.tgz:159460.got - 2010.06.03 18:47:42.
