data_PCOD9305701
_publ_section_title
;
Structure prediction by ZEFSAII (Michael W. Deem and Ramdas Pophale) SiO2 
 PCOD9305701
Probable space group: C 2/C
;
_chemical_formula_sum "Si O2"
_cell_formula_units_Z 32
_cell_length_a 13.676345
_cell_length_b 7.217637
_cell_length_c 23.687583
_cell_angle_alpha 90.000000
_cell_angle_beta 29.339962
_cell_angle_gamma 90.000000
_cell_volume 1145.706978
_symmetry_space_group_name_H-M "C 2/C"
_symmetry_group_IT_number 15
_symmetry_cell_setting 'monoclinic'
loop_
_space_group_symop_operation_xyz
x,y,z
-x,y,1/2-z
-x,-y,-z
x,-y,1/2+z
1/2+x,1/2+y,z
1/2-x,1/2+y,1/2-z
1/2-x,1/2-y,-z
1/2+x,1/2-y,1/2+z
loop_
_atom_site_type_symbol
_atom_site_label
_atom_site_fract_x
_atom_site_fract_y
_atom_site_fract_z
Si Si1 0.422686 0.474949 0.912398
Si Si2 0.259210 0.459206 0.380902
Si Si3 0.233741 0.470197 0.625495
Si Si4 0.814809 0.267598 0.677708
O O1 0.258260 0.469995 0.945630
O O2 0.604441 0.330006 0.810871
O O3 0.522600 0.685929 0.860410
O O4 0.310744 0.451531 0.027714
O O5 0.500000 0.483123 0.250000
O O6 0.210666 0.244146 0.400644
O O7 0.151269 0.568865 0.384828
O O8 0.305016 0.588944 0.642297
O O9 0.000000 0.483914 0.750000
#
# Coordination Sequence:
#
# PCOD9305701 Si02
#       4
#     8   8   8   8
#     4  11  25  48  71 110 144 189 245 297 371 433
#     4   9  22  45  69 105 143 188 240 293 367 436
#     4  11  24  46  75 102 146 191 238 301 363 434
#     4  11  26  45  71 108 146 186 246 299 360 440
#
# _framework density 27.930353
#
# number of rings (size 3 to 8) (size 9 to 14) (size 15 to 20)
#    0.000    1.500    0.000    3.750   10.500    5.000 
#    4.500    0.000    0.000    0.000    0.000    0.000 
#    0.000    0.000    0.000    0.000    0.000    0.000 
#
# Total GULP energy -89743.899552 kJ/mol
# GULP energy per Si atom -5608.993722 kJ/mol
# Density = 2.786678 g / cm^3
# Si number density = 27.930353 Si / 1000 Ang^3
#
#
#
# Elastic Constant Matrix: (Units=GPa)
#
#
# Indices 1 2 3 4 5 6 
#
# 1 149.5232 67.7948 71.8808 -0.0002 6.0465 0.0000
# 2 67.7948 146.4755 45.8365 0.0006 7.4962 0.0003
# 3 71.8808 45.8365 189.3124 -0.0009 17.4271 -0.0002
# 4 -0.0002 0.0006 -0.0009 -344.6292 0.0004 -139.4431
# 5 6.0465 7.4962 17.4271 0.0004 54.6752 0.0001
# 6 0.0000 0.0003 -0.0002 -139.4431 0.0001 6.8572
#
#
#
# Elastic Compliance Matrix: (Units=1/GPa)
#
#
# Indices 1 2 3 4 5 6 
#
# 1 0.009670 -0.003607 -0.002828 0.000000 0.000327 0.000000
# 2 -0.003607 0.008743 -0.000694 0.000000 -0.000579 0.000000
# 3 -0.002828 -0.000694 0.006683 0.000000 -0.001722 0.000000
# 4 0.000000 0.000000 0.000000 -0.000314 0.000000 -0.006394
# 5 0.000327 -0.000579 -0.001722 0.000000 0.018882 0.000000
# 6 0.000000 0.000000 0.000000 -0.006394 0.000000 0.015803
#
#
# Mechanical properties :
#
#
# Convention : Reuss Voigt Hill
#
# Bulk Modulus (GPa) = 92.27746 95.14838 93.71292
# Shear Modulus (GPa) = 64.65090 -36.63277 14.00907
#
# Velocity S-wave (km/s) = 4.81637 -3.62550 2.24201
# Velocity P-wave (km/s) = 8.00250 4.07610 6.35038
#
# Compressibility (1/GPa) = 0.01083688
#
# Stress axis : x y z
#
# Youngs Moduli (GPa) = 103.41313 114.37083 149.63947
#
# Poissons Ratio (x) = 0.41257 0.42322
# Poissons Ratio (y) = 0.37304 0.10386
# Poissons Ratio (z) = 0.29248 0.07938
#
# Static dielectric constant tensor:
#      x y z
#    x 2.332970 0.000000 -0.083000 
#    y 0.000000 2.134280 0.000000 
#    z -0.083000 0.000000 2.285790 
# 
# From -- ./inp_files/93561.got.cif
#   From: 2010.05.17/outbox.cif.g08.bks.cpg/sg15_47_cif.got.tgz:93561.got - 2010.06.03 18:47:42.
