data_PCOD9305797
_publ_section_title
;
Structure prediction by ZEFSAII (Michael W. Deem and Ramdas Pophale) SiO2 
 PCOD9305797
Probable space group: C 2/C
;
_chemical_formula_sum "Si O2"
_cell_formula_units_Z 44
_cell_length_a 11.308984
_cell_length_b 8.289414
_cell_length_c 20.104679
_cell_angle_alpha 90.000000
_cell_angle_beta 103.784474
_cell_angle_gamma 90.000000
_cell_volume 1830.428364
_symmetry_space_group_name_H-M "C 2/C"
_symmetry_group_IT_number 15
_symmetry_cell_setting 'monoclinic'
loop_
_space_group_symop_operation_xyz
x,y,z
-x,y,1/2-z
-x,-y,-z
x,-y,1/2+z
1/2+x,1/2+y,z
1/2-x,1/2+y,1/2-z
1/2-x,1/2-y,-z
1/2+x,1/2-y,1/2+z
loop_
_atom_site_type_symbol
_atom_site_label
_atom_site_fract_x
_atom_site_fract_y
_atom_site_fract_z
Si Si1 0.377518 0.033304 0.523646
Si Si2 0.640259 0.620829 0.661812
Si Si3 0.617481 0.786086 0.855671
Si Si4 0.121851 0.895689 0.003845
Si Si5 0.819314 0.247304 0.294861
Si Si6 0.000000 0.462474 0.250000
O O1 0.235576 0.021792 0.481579
O O2 0.395172 0.226574 0.536138
O O3 0.500000 0.000000 0.500000
O O4 0.375967 0.895326 0.578964
O O5 0.503550 0.681480 0.656756
O O6 0.664866 0.635523 0.586230
O O7 0.736427 0.722404 0.718166
O O8 0.645101 0.436375 0.686605
O O9 0.738730 0.697749 0.847350
O O10 0.597647 0.919701 0.795427
O O11 0.000000 0.000000 0.000000
O O12 0.937714 0.354496 0.297674
#
# Coordination Sequence:
#
# PCOD9305797 Si02
#       6
#     8   8   8   8   8   4
#     4  11  24  47  73 103 149 197 243 306 365 431
#     4  12  24  48  72 106 148 191 248 304 374 446
#     4  12  24  46  69 105 147 187 249 301 365 450
#     4  11  26  48  72 110 149 197 253 300 367 453
#     4  12  25  45  70 106 145 188 239 306 371 436
#     4  12  26  42  72 102 140 194 234 300 378 434
#
# _framework density 24.038087999999998
#
# number of rings (size 3 to 8) (size 9 to 14) (size 15 to 20)
#    0.000    0.364    7.273    0.000    5.091    0.727 
#    3.273    0.000    0.000    0.000    0.000    0.000 
#    0.000    0.000    0.000    0.000    0.000    0.000 
#
# Total GULP energy -122945.716681 kJ/mol
# GULP energy per Si atom -5588.441667 kJ/mol
# Density = 2.398338 g / cm^3
# Si number density = 24.038088 Si / 1000 Ang^3
#
#
#
# Elastic Constant Matrix: (Units=GPa)
#
#
# Indices 1 2 3 4 5 6 
#
# 1 179.2155 50.6161 11.6101 0.0000 -23.6668 0.0000
# 2 50.6161 70.3724 16.9743 0.0000 -1.4966 0.0000
# 3 11.6101 16.9743 73.7105 0.0000 -22.4249 0.0000
# 4 0.0000 0.0000 0.0000 41.4670 0.0000 -0.7305
# 5 -23.6668 -1.4966 -22.4249 0.0000 33.2060 0.0000
# 6 0.0000 0.0000 0.0000 -0.7305 0.0000 53.0700
#
#
#
# Elastic Compliance Matrix: (Units=1/GPa)
#
#
# Indices 1 2 3 4 5 6 
#
# 1 0.008131 -0.006256 0.002312 0.000000 0.007075 0.000000
# 2 -0.006256 0.019975 -0.005912 0.000000 -0.007551 0.000000
# 3 0.002312 -0.005912 0.018859 0.000000 0.014117 0.000000
# 4 0.000000 0.000000 0.000000 0.024121 0.000000 0.000332
# 5 0.007075 -0.007551 0.014117 0.000000 0.044351 0.000000
# 6 0.000000 0.000000 0.000000 0.000332 0.000000 0.018848
#
#
# Mechanical properties :
#
#
# Convention : Reuss Voigt Hill
#
# Bulk Modulus (GPa) = 36.69124 53.52215 45.10670
# Shear Modulus (GPa) = 30.65978 41.82180 36.24079
#
# Velocity S-wave (km/s) = 3.57524 4.17563 3.88705
# Velocity P-wave (km/s) = 5.68683 6.74995 6.24107
#
# Compressibility (1/GPa) = 0.02725446
#
# Stress axis : x y z
#
# Youngs Moduli (GPa) = 122.98329 50.06269 53.02599
#
# Poissons Ratio (x) = 0.31318 -0.12261
# Poissons Ratio (y) = 0.76935 0.31347
# Poissons Ratio (z) = -0.28437 0.29596
#
# Static dielectric constant tensor:
#      x y z
#    x 1.935420 0.000000 0.025280 
#    y 0.000000 1.900050 0.000000 
#    z 0.025280 0.000000 1.957140 
# 
# From -- ./inp_files/236181.got.cif
#   From: 2010.05.17/outbox.cif.g08.bks.cpg/sg15_119_cif.got.tgz:236181.got - 2010.06.03 18:47:42.
