data_PCOD9305384
_publ_section_title
;
Structure prediction by ZEFSAII (Michael W. Deem and Ramdas Pophale) SiO2 
 PCOD9305384
Probable space group: C 2/C
;
_chemical_formula_sum "Si O2"
_cell_formula_units_Z 36
_cell_length_a 15.705948
_cell_length_b 17.868258
_cell_length_c 8.318327
_cell_angle_alpha 90.000000
_cell_angle_beta 137.301891
_cell_angle_gamma 90.000000
_cell_volume 1583.065134
_symmetry_space_group_name_H-M "C 2/C"
_symmetry_group_IT_number 15
_symmetry_cell_setting 'monoclinic'
loop_
_space_group_symop_operation_xyz
x,y,z
-x,y,1/2-z
-x,-y,-z
x,-y,1/2+z
1/2+x,1/2+y,z
1/2-x,1/2+y,1/2-z
1/2-x,1/2-y,-z
1/2+x,1/2-y,1/2+z
loop_
_atom_site_type_symbol
_atom_site_label
_atom_site_fract_x
_atom_site_fract_y
_atom_site_fract_z
Si Si1 0.373692 0.039127 0.476500
Si Si2 0.500000 0.561758 0.750000
Si Si3 0.893463 0.335075 0.736867
Si Si4 0.787154 0.936093 0.445473
Si Si5 0.875183 0.170766 0.817361
O O1 0.395580 0.097306 0.364499
O O2 0.271158 0.070389 0.459909
O O3 0.321366 0.963281 0.326857
O O4 0.500000 0.026902 0.750000
O O5 0.383100 0.505725 0.573683
O O6 0.473227 0.615788 0.863752
O O7 0.914151 0.256703 0.859334
O O8 0.755520 0.334169 0.464097
O O9 0.000000 0.339696 0.750000
O O10 0.849434 0.862682 0.457361
#
# Coordination Sequence:
#
# PCOD9305384 Si02
#       5
#     8   4   8   8   8
#     4  12  25  43  68 101 139 175 224 277 334 399
#     4  12  22  46  70  98 132 170 228 274 334 400
#     4  11  24  46  69  96 136 182 224 271 337 405
#     4  12  25  43  70 102 133 177 224 282 333 392
#     4  11  24  44  72  97 133 179 225 275 336 403
#
# _framework density 22.740694000000001
#
# number of rings (size 3 to 8) (size 9 to 14) (size 15 to 20)
#    0.000    0.444    5.556    2.667    0.000    2.667 
#    2.000    0.000    0.000    0.000    0.000    0.000 
#    0.000    0.000    0.000    0.000    0.000    0.000 
#
# Total GULP energy -100914.837747 kJ/mol
# GULP energy per Si atom -5606.379875 kJ/mol
# Density = 2.268894 g / cm^3
# Si number density = 22.740694 Si / 1000 Ang^3
#
#
#
# Elastic Constant Matrix: (Units=GPa)
#
#
# Indices 1 2 3 4 5 6 
#
# 1 192.2648 58.1431 5.6925 0.0000 -15.4354 0.0000
# 2 58.1431 126.2932 -2.1844 0.0000 -6.9014 0.0000
# 3 5.6925 -2.1844 39.8237 0.0000 12.4689 0.0000
# 4 0.0000 0.0000 0.0000 18.8569 0.0000 -7.8081
# 5 -15.4354 -6.9014 12.4689 0.0000 36.3776 0.0000
# 6 0.0000 0.0000 0.0000 -7.8081 0.0000 43.2428
#
#
#
# Elastic Compliance Matrix: (Units=1/GPa)
#
#
# Indices 1 2 3 4 5 6 
#
# 1 0.006330 -0.002794 -0.001941 0.000000 0.002821 0.000000
# 2 -0.002794 0.009234 0.000816 0.000000 0.000287 0.000000
# 3 -0.001941 0.000816 0.028725 0.000000 -0.010515 0.000000
# 4 0.000000 0.000000 0.000000 0.057316 0.000000 0.010349
# 5 0.002821 0.000287 -0.010515 0.000000 0.032345 0.000000
# 6 0.000000 0.000000 0.000000 0.010349 0.000000 0.024994
#
#
# Mechanical properties :
#
#
# Convention : Reuss Voigt Hill
#
# Bulk Modulus (GPa) = 27.43396 53.52047 40.47721
# Shear Modulus (GPa) = 27.94345 39.47748 33.71047
#
# Velocity S-wave (km/s) = 3.50921 4.17103 3.85435
# Velocity P-wave (km/s) = 5.33942 6.83980 6.13565
#
# Compressibility (1/GPa) = 0.03645117
#
# Stress axis : x y z
#
# Youngs Moduli (GPa) = 157.97883 108.29553 34.81263
#
# Poissons Ratio (x) = 0.30253 0.06759
# Poissons Ratio (y) = 0.44133 -0.02841
# Poissons Ratio (z) = 0.30670 -0.08837
#
# Static dielectric constant tensor:
#      x y z
#    x 1.839280 0.000000 0.035530 
#    y 0.000000 1.801510 0.000000 
#    z 0.035530 0.000000 1.880990 
# 
# From -- ./inp_files/39477.got.cif
#   From: 2010.05.17/outbox.cif.g08.bks.cpg/sg15_20_cif.got.tgz:39477.got - 2010.06.03 18:47:42.
