data_PCOD9305633
_publ_section_title
;
Structure prediction by ZEFSAII (Michael W. Deem and Ramdas Pophale) SiO2 
 PCOD9305633
Probable space group: C 2/C
;
_chemical_formula_sum "Si O2"
_cell_formula_units_Z 48
_cell_length_a 8.781023
_cell_length_b 23.054390
_cell_length_c 21.061206
_cell_angle_alpha 90.000000
_cell_angle_beta 150.544938
_cell_angle_gamma 90.000000
_cell_volume 2096.612677
_symmetry_space_group_name_H-M "C 2/C"
_symmetry_group_IT_number 15
_symmetry_cell_setting 'monoclinic'
loop_
_space_group_symop_operation_xyz
x,y,z
-x,y,1/2-z
-x,-y,-z
x,-y,1/2+z
1/2+x,1/2+y,z
1/2-x,1/2+y,1/2-z
1/2-x,1/2-y,-z
1/2+x,1/2-y,1/2+z
loop_
_atom_site_type_symbol
_atom_site_label
_atom_site_fract_x
_atom_site_fract_y
_atom_site_fract_z
Si Si1 0.958846 0.824213 0.052091
Si Si2 0.474147 0.666581 0.067124
Si Si3 0.670904 0.872131 0.130407
Si Si4 0.009120 0.067593 0.858421
Si Si5 0.767552 0.715167 0.297516
Si Si6 0.867763 0.968958 0.889228
O O1 0.026952 0.890339 0.094300
O O2 0.172954 0.783657 0.172983
O O3 0.598780 0.812353 0.935513
O O4 0.014568 0.807805 0.999255
O O5 0.683020 0.696473 0.195926
O O6 0.570708 0.599338 0.093094
O O7 0.126719 0.665604 0.967949
O O8 0.723397 0.917167 0.207653
O O9 0.000000 0.838063 0.250000
O O10 0.698568 0.909730 0.076309
O O11 0.019168 0.002441 0.884721
O O12 0.500000 0.697796 0.250000
O O13 0.500000 0.978669 0.750000
O O14 0.000000 0.000000 0.000000
#
# Coordination Sequence:
#
# PCOD9305633 Si02
#       6
#     8   8   8   8   8   8
#     4  11  24  46  70  98 142 176 239 292 349 414
#     4  12  24  46  71 103 140 183 240 293 350 428
#     4   8  22  42  67  98 144 183 227 282 355 423
#     4   9  21  42  68 100 140 183 226 281 355 422
#     4  11  27  45  66 102 135 188 228 294 352 409
#     4  12  24  40  73 108 143 184 235 292 358 425
#
# _framework density 22.894071
#
# number of rings (size 3 to 8) (size 9 to 14) (size 15 to 20)
#    1.000    0.333    1.667    3.500    2.333    1.333 
#   15.000    0.000    0.000    0.000    0.000    0.000 
#    0.000    0.000    0.000    0.000    0.000    0.000 
#
# Total GULP energy -134155.125186 kJ/mol
# GULP energy per Si atom -5589.796883 kJ/mol
# Density = 2.284196 g / cm^3
# Si number density = 22.894071 Si / 1000 Ang^3
#
#
#
# Elastic Constant Matrix: (Units=GPa)
#
#
# Indices 1 2 3 4 5 6 
#
# 1 115.5661 26.4379 45.9738 0.0424 -7.1640 0.0360
# 2 26.4379 87.9795 37.7800 -0.0230 -19.7219 -0.0170
# 3 45.9738 37.7800 108.6488 0.0657 -2.8249 0.0577
# 4 0.0424 -0.0230 0.0657 23.1450 0.0272 -12.3996
# 5 -7.1640 -19.7219 -2.8249 0.0272 48.1438 0.0207
# 6 0.0360 -0.0170 0.0577 -12.3996 0.0207 26.3014
#
#
#
# Elastic Compliance Matrix: (Units=1/GPa)
#
#
# Indices 1 2 3 4 5 6 
#
# 1 0.010594 -0.001274 -0.004018 -0.000019 0.000819 -0.000016
# 2 -0.001274 0.014960 -0.004515 0.000043 0.005674 0.000037
# 3 -0.004018 -0.004515 0.012430 -0.000057 -0.001718 -0.000050
# 4 -0.000019 0.000043 -0.000057 0.057806 -0.000033 0.027253
# 5 0.000819 0.005674 -0.001718 -0.000033 0.023116 -0.000027
# 6 -0.000016 0.000037 -0.000050 0.027253 -0.000027 0.050869
#
#
# Mechanical properties :
#
#
# Convention : Reuss Voigt Hill
#
# Bulk Modulus (GPa) = 54.44329 59.17530 56.80929
# Shear Modulus (GPa) = 25.57363 32.98488 29.27926
#
# Velocity S-wave (km/s) = 3.34584 3.79985 3.58005
# Velocity P-wave (km/s) = 6.22562 6.71978 6.47741
#
# Compressibility (1/GPa) = 0.01836774
#
# Stress axis : x y z
#
# Youngs Moduli (GPa) = 94.39408 66.84464 80.45246
#
# Poissons Ratio (x) = 0.08519 0.32328
# Poissons Ratio (y) = 0.12030 0.36326
# Poissons Ratio (z) = 0.37930 0.30182
#
# Static dielectric constant tensor:
#      x y z
#    x 1.873370 0.000000 0.008220 
#    y 0.000000 1.844870 -0.000010 
#    z 0.008220 -0.000010 1.873770 
# 
# From -- ./inp_files/234805.got.cif
#   From: 2010.05.17/outbox.cif.g08.bks.cpg/sg15_118_cif.got.tgz:234805.got - 2010.06.03 18:47:42.
