data_PCOD9305240
_publ_section_title
;
Structure prediction by ZEFSAII (Michael W. Deem and Ramdas Pophale) SiO2 
 PCOD9305240
Probable space group: C 2/C
;
_chemical_formula_sum "Si O2"
_cell_formula_units_Z 48
_cell_length_a 18.984115
_cell_length_b 11.647053
_cell_length_c 14.494109
_cell_angle_alpha 90.000000
_cell_angle_beta 41.040954
_cell_angle_gamma 90.000000
_cell_volume 2104.251736
_symmetry_space_group_name_H-M "C 2/C"
_symmetry_group_IT_number 15
_symmetry_cell_setting 'monoclinic'
loop_
_space_group_symop_operation_xyz
x,y,z
-x,y,1/2-z
-x,-y,-z
x,-y,1/2+z
1/2+x,1/2+y,z
1/2-x,1/2+y,1/2-z
1/2-x,1/2-y,-z
1/2+x,1/2-y,1/2+z
loop_
_atom_site_type_symbol
_atom_site_label
_atom_site_fract_x
_atom_site_fract_y
_atom_site_fract_z
Si Si1 0.234103 0.195413 0.117612
Si Si2 0.263350 0.070458 0.584099
Si Si3 0.403966 0.591540 0.095053
Si Si4 0.720770 0.090707 0.735373
Si Si5 0.541548 0.294050 0.313387
Si Si6 0.900139 0.443246 0.781742
O O1 0.122957 0.160618 0.283480
O O2 0.278686 0.294679 0.141069
O O3 0.279819 0.067411 0.065097
O O4 0.250000 0.250000 0.000000
O O5 0.321195 0.110452 0.620153
O O6 0.141918 0.117146 0.716454
O O7 0.308860 0.105417 0.440970
O O8 0.300262 0.517624 0.168358
O O9 0.500000 0.500000 0.000000
O O10 0.444002 0.671332 0.974123
O O11 0.636121 0.051208 0.742454
O O12 0.500000 0.290411 0.250000
O O13 0.576872 0.165875 0.304889
O O14 0.000000 0.469848 0.750000
#
# Coordination Sequence:
#
# PCOD9305240 Si02
#       6
#     8   8   8   8   8   8
#     4  11  24  46  69 105 147 191 236 306 382 432
#     4  11  24  46  70 103 144 184 252 297 376 435
#     4  11  24  45  72 112 139 191 252 292 370 452
#     4  11  25  44  75 100 151 187 236 309 368 435
#     4  11  24  43  74 105 141 189 248 309 353 444
#     4  11  26  46  65 107 143 195 239 296 367 439
#
# _framework density 22.810959
#
# number of rings (size 3 to 8) (size 9 to 14) (size 15 to 20)
#    0.000    1.000    5.000    1.500    9.333    0.667 
#    3.000    0.833    0.000    0.000    0.000    0.000 
#    0.000    0.000    0.000    0.000    0.000    0.000 
#
# Total GULP energy -133795.061036 kJ/mol
# GULP energy per Si atom -5574.794210 kJ/mol
# Density = 2.275904 g / cm^3
# Si number density = 22.810959 Si / 1000 Ang^3
#
#
#
# Elastic Constant Matrix: (Units=GPa)
#
#
# Indices 1 2 3 4 5 6 
#
# 1 72.9680 33.5227 8.1750 0.0000 7.4517 0.0000
# 2 33.5227 111.7442 30.0117 0.0000 -1.8127 0.0000
# 3 8.1750 30.0117 115.4190 0.0000 14.7100 0.0000
# 4 0.0000 0.0000 0.0000 49.7088 0.0000 0.8789
# 5 7.4517 -1.8127 14.7100 0.0000 33.3928 0.0000
# 6 0.0000 0.0000 0.0000 0.8789 0.0000 23.6150
#
#
#
# Elastic Compliance Matrix: (Units=1/GPa)
#
#
# Indices 1 2 3 4 5 6 
#
# 1 0.016448 -0.005200 0.000732 0.000000 -0.004275 0.000000
# 2 -0.005200 0.011359 -0.002979 0.000000 0.003089 0.000000
# 3 0.000732 -0.002979 0.009989 0.000000 -0.004725 0.000000
# 4 0.000000 0.000000 0.000000 0.020130 0.000000 -0.000749
# 5 -0.004275 0.003089 -0.004725 0.000000 0.033150 0.000000
# 6 0.000000 0.000000 0.000000 -0.000749 0.000000 0.042374
#
#
# Mechanical properties :
#
#
# Convention : Reuss Voigt Hill
#
# Bulk Modulus (GPa) = 43.66433 49.28332 46.47383
# Shear Modulus (GPa) = 32.05539 36.57143 34.31341
#
# Velocity S-wave (km/s) = 3.75275 4.00839 3.88268
# Velocity P-wave (km/s) = 6.16124 6.56315 6.36537
#
# Compressibility (1/GPa) = 0.02290199
#
# Stress axis : x y z
#
# Youngs Moduli (GPa) = 60.79623 88.03327 100.10890
#
# Poissons Ratio (x) = 0.45781 -0.07329
# Poissons Ratio (y) = 0.31617 0.29823
# Poissons Ratio (z) = -0.04451 0.26226
#
# Static dielectric constant tensor:
#      x y z
#    x 1.891150 0.000000 0.024570 
#    y 0.000000 1.909330 0.000000 
#    z 0.024570 0.000000 1.970500 
# 
# From -- ./inp_files/167841.got.cif
#   From: 2010.05.17/outbox.cif.g08.bks.cpg/sg15_84_cif.got.tgz:167841.got - 2010.06.03 18:47:42.
