data_PCOD9305214
_publ_section_title
;
Structure prediction by ZEFSAII (Michael W. Deem and Ramdas Pophale) SiO2 
 PCOD9305214
Probable space group: C 2/C
;
_chemical_formula_sum "Si O2"
_cell_formula_units_Z 60
_cell_length_a 21.955198
_cell_length_b 15.917075
_cell_length_c 12.053773
_cell_angle_alpha 90.000000
_cell_angle_beta 136.535657
_cell_angle_gamma 90.000000
_cell_volume 2897.682810
_symmetry_space_group_name_H-M "C 2/C"
_symmetry_group_IT_number 15
_symmetry_cell_setting 'monoclinic'
loop_
_space_group_symop_operation_xyz
x,y,z
-x,y,1/2-z
-x,-y,-z
x,-y,1/2+z
1/2+x,1/2+y,z
1/2-x,1/2+y,1/2-z
1/2-x,1/2-y,-z
1/2+x,1/2-y,1/2+z
loop_
_atom_site_type_symbol
_atom_site_label
_atom_site_fract_x
_atom_site_fract_y
_atom_site_fract_z
Si Si1 0.197573 0.836446 0.452300
Si Si2 0.841272 0.093098 0.366221
Si Si3 0.836780 0.428922 0.506705
Si Si4 0.311567 0.111001 0.510444
Si Si5 0.917024 0.773143 0.565362
Si Si6 0.000000 0.681556 0.250000
Si Si7 0.015710 0.190474 0.583947
Si Si8 0.734319 0.587355 0.652462
O O1 0.250000 0.750000 0.500000
O O2 0.185670 0.848124 0.566612
O O3 0.254414 0.912852 0.478873
O O4 0.104507 0.838410 0.265139
O O5 0.780187 0.114400 0.180273
O O6 0.943582 0.116069 0.475818
O O7 0.815182 0.999834 0.376387
O O8 0.859075 0.526594 0.530352
O O9 0.916286 0.376036 0.661112
O O10 0.803623 0.397398 0.343554
O O11 0.370976 0.191203 0.558450
O O12 0.286989 0.095341 0.606237
O O13 0.956105 0.765877 0.493104
O O14 0.841656 0.843193 0.455508
O O15 0.000000 0.799506 0.750000
O O16 0.977851 0.739558 0.116561
#
# Coordination Sequence:
#
# PCOD9305214 Si02
#       8
#     8   8   8   8   8   4   8   8
#     4  12  20  42  70 100 138 171 228 290 350 407
#     4  11  24  43  71 104 133 176 227 295 346 396
#     4  11  25  44  71 101 131 176 231 286 347 398
#     4  11  26  47  67  95 139 188 229 275 337 417
#     4  12  28  43  66  98 140 193 224 271 339 421
#     4  12  26  40  74 106 130 170 226 302 338 398
#     4  12  24  42  69 108 135 171 230 293 349 401
#     4  11  25  47  69  95 137 184 229 279 340 414
#
# _framework density 20.706199999999999
#
# number of rings (size 3 to 8) (size 9 to 14) (size 15 to 20)
#    0.000    0.533    5.333    2.000    4.667    1.600 
#    0.000    1.333    0.000    0.000    0.000    0.000 
#    0.000    0.000    0.000    0.000    0.000    0.000 
#
# Total GULP energy -167632.372912 kJ/mol
# GULP energy per Si atom -5587.745764 kJ/mol
# Density = 2.065907 g / cm^3
# Si number density = 20.706200 Si / 1000 Ang^3
#
#
#
# Elastic Constant Matrix: (Units=GPa)
#
#
# Indices 1 2 3 4 5 6 
#
# 1 87.0415 10.8938 19.4073 0.0000 -16.6036 0.0000
# 2 10.8938 73.3332 0.9662 0.0000 6.3718 0.0000
# 3 19.4073 0.9662 52.1620 0.0000 -21.6524 0.0000
# 4 0.0000 0.0000 0.0000 17.9791 0.0000 -0.6040
# 5 -16.6036 6.3718 -21.6524 0.0000 28.4267 0.0000
# 6 0.0000 0.0000 0.0000 -0.6040 0.0000 21.9291
#
#
#
# Elastic Compliance Matrix: (Units=1/GPa)
#
#
# Indices 1 2 3 4 5 6 
#
# 1 0.013607 -0.002591 -0.002156 0.000000 0.006886 0.000000
# 2 -0.002591 0.014587 -0.001889 0.000000 -0.006222 0.000000
# 3 -0.002156 -0.001889 0.028752 0.000000 0.021064 0.000000
# 4 0.000000 0.000000 0.000000 0.055672 0.000000 0.001533
# 5 0.006886 -0.006222 0.021064 0.000000 0.056639 0.000000
# 6 0.000000 0.000000 0.000000 0.001533 0.000000 0.045644
#
#
# Mechanical properties :
#
#
# Convention : Reuss Voigt Hill
#
# Bulk Modulus (GPa) = 22.89713 30.56347 26.73030
# Shear Modulus (GPa) = 20.59892 25.75163 23.17528
#
# Velocity S-wave (km/s) = 3.15750 3.53039 3.34914
# Velocity P-wave (km/s) = 4.93712 5.60454 5.28138
#
# Compressibility (1/GPa) = 0.04367360
#
# Stress axis : x y z
#
# Youngs Moduli (GPa) = 73.48902 68.55504 34.78030
#
# Poissons Ratio (x) = 0.17765 0.07500
# Poissons Ratio (y) = 0.19044 0.06569
# Poissons Ratio (z) = 0.15846 0.12948
#
# Static dielectric constant tensor:
#      x y z
#    x 1.767400 0.000000 0.003730 
#    y 0.000000 1.778650 0.000000 
#    z 0.003730 0.000000 1.815700 
# 
# From -- ./inp_files/113839.got.cif
#   From: 2010.05.17/outbox.cif.g08.bks.cpg/sg15_57_cif.got.tgz:113839.got - 2010.06.03 18:47:42.
