data_PCOD9305900
_publ_section_title
;
Structure prediction by ZEFSAII (Michael W. Deem and Ramdas Pophale) SiO2 
 PCOD9305900
Probable space group: C 2/C
;
_chemical_formula_sum "Si O2"
_cell_formula_units_Z 48
_cell_length_a 8.490229
_cell_length_b 27.589016
_cell_length_c 15.096850
_cell_angle_alpha 90.000000
_cell_angle_beta 142.299912
_cell_angle_gamma 90.000000
_cell_volume 2162.511788
_symmetry_space_group_name_H-M "C 2/C"
_symmetry_group_IT_number 15
_symmetry_cell_setting 'monoclinic'
loop_
_space_group_symop_operation_xyz
x,y,z
-x,y,1/2-z
-x,-y,-z
x,-y,1/2+z
1/2+x,1/2+y,z
1/2-x,1/2+y,1/2-z
1/2-x,1/2-y,-z
1/2+x,1/2-y,1/2+z
loop_
_atom_site_type_symbol
_atom_site_label
_atom_site_fract_x
_atom_site_fract_y
_atom_site_fract_z
Si Si1 0.712742 0.706038 0.418494
Si Si2 0.343991 0.969066 0.358138
Si Si3 0.000000 0.368262 0.750000
Si Si4 0.500000 0.929032 0.250000
Si Si5 0.443033 0.609605 0.057179
Si Si6 0.688000 0.805869 0.999395
Si Si7 0.500000 0.377562 0.250000
Si Si8 0.500000 0.452348 0.750000
O O1 0.500000 0.716857 0.250000
O O2 0.750000 0.750000 0.500000
O O3 0.603381 0.663853 0.431661
O O4 0.977302 0.694008 0.484690
O O5 0.480334 0.961249 0.327371
O O6 0.232460 0.916514 0.337547
O O7 0.500000 0.000000 0.500000
O O8 0.123671 0.007921 0.239918
O O9 0.257748 0.397465 0.836362
O O10 0.072014 0.333882 0.864044
O O11 0.757164 0.899694 0.390526
O O12 0.373116 0.581878 0.119158
O O13 0.750000 0.750000 0.000000
O O14 0.921810 0.840236 0.137336
#
# Coordination Sequence:
#
# PCOD9305900 Si02
#       8
#     8   8   4   4   8   8   4   4
#     4  12  27  47  75 107 150 207 261 322 402 480
#     4  11  25  48  75 112 153 200 261 333 396 472
#     4  12  25  43  71 116 150 192 261 318 394 458
#     4  12  26  47  81 109 145 197 262 317 394 482
#     4  12  25  48  75 111 149 204 256 321 395 483
#     4  12  26  47  76 111 157 203 258 331 398 479
#     4  11  27  48  74 113 159 206 260 330 396 476
#     4  11  24  48  74  98 158 197 251 325 398 462
#
# _framework density 22.196411000000001
#
# number of rings (size 3 to 8) (size 9 to 14) (size 15 to 20)
#    0.000    0.333    4.167    3.500    5.833    1.333 
#    0.000    0.000    0.000    0.000    0.000    0.000 
#    0.000    0.000    0.000    0.000    0.000    0.000 
#
# Total GULP energy -133847.283027 kJ/mol
# GULP energy per Si atom -5576.970126 kJ/mol
# Density = 2.214589 g / cm^3
# Si number density = 22.196411 Si / 1000 Ang^3
#
#
#
# Elastic Constant Matrix: (Units=GPa)
#
#
# Indices 1 2 3 4 5 6 
#
# 1 110.6940 24.7080 33.7606 0.0000 -2.2922 0.0000
# 2 24.7080 134.2282 60.2938 0.0000 -6.5661 0.0000
# 3 33.7606 60.2938 152.8172 0.0000 -15.4161 0.0000
# 4 0.0000 0.0000 0.0000 22.7348 0.0000 -13.9734
# 5 -2.2922 -6.5661 -15.4161 0.0000 35.3389 0.0000
# 6 0.0000 0.0000 0.0000 -13.9734 0.0000 10.0032
#
#
#
# Elastic Compliance Matrix: (Units=1/GPa)
#
#
# Indices 1 2 3 4 5 6 
#
# 1 0.009802 -0.001012 -0.001800 0.000000 -0.000338 0.000000
# 2 -0.001012 0.009160 -0.003374 0.000000 0.000165 0.000000
# 3 -0.001800 -0.003374 0.008575 0.000000 0.002997 0.000000
# 4 0.000000 0.000000 0.000000 0.310995 0.000000 0.434427
# 5 -0.000338 0.000165 0.002997 0.000000 0.029614 0.000000
# 6 0.000000 0.000000 0.000000 0.434427 0.000000 0.706814
#
#
# Mechanical properties :
#
#
# Convention : Reuss Voigt Hill
#
# Bulk Modulus (GPa) = 65.94392 70.58491 68.26442
# Shear Modulus (GPa) = 4.57713 32.21385 18.39549
#
# Velocity S-wave (km/s) = 1.43756 3.81374 2.88194
# Velocity P-wave (km/s) = 5.70344 7.15975 6.47268
#
# Compressibility (1/GPa) = 0.01516440
#
# Stress axis : x y z
#
# Youngs Moduli (GPa) = 102.02122 109.17234 116.61919
#
# Poissons Ratio (x) = 0.11050 0.20993
# Poissons Ratio (y) = 0.10326 0.39345
# Poissons Ratio (z) = 0.18365 0.36832
#
# Static dielectric constant tensor:
#      x y z
#    x 1.855290 0.000000 0.178650 
#    y 0.000000 1.508180 0.000000 
#    z 0.178650 0.000000 1.941050 
# 
# From -- ./inp_files/115065.got.cif
#   From: 2010.05.17/outbox.cif.g08.bks.cpg/sg15_58_cif.got.tgz:115065.got - 2010.06.03 18:47:42.
