data_PCOD9305312
_publ_section_title
;
Structure prediction by ZEFSAII (Michael W. Deem and Ramdas Pophale) SiO2 
 PCOD9305312
Probable space group: C 2/C
;
_chemical_formula_sum "Si O2"
_cell_formula_units_Z 24
_cell_length_a 7.804123
_cell_length_b 7.789072
_cell_length_c 14.696834
_cell_angle_alpha 90.000000
_cell_angle_beta 99.383652
_cell_angle_gamma 90.000000
_cell_volume 881.420131
_symmetry_space_group_name_H-M "C 2/C"
_symmetry_group_IT_number 15
_symmetry_cell_setting 'monoclinic'
loop_
_space_group_symop_operation_xyz
x,y,z
-x,y,1/2-z
-x,-y,-z
x,-y,1/2+z
1/2+x,1/2+y,z
1/2-x,1/2+y,1/2-z
1/2-x,1/2-y,-z
1/2+x,1/2-y,1/2+z
loop_
_atom_site_type_symbol
_atom_site_label
_atom_site_fract_x
_atom_site_fract_y
_atom_site_fract_z
Si Si1 0.172713 0.066157 0.966364
Si Si2 0.743280 0.418288 0.797656
Si Si3 0.133836 0.449329 0.364091
O O1 0.315310 0.942867 0.026262
O O2 0.250000 0.250000 0.000000
O O3 0.150026 0.052778 0.856476
O O4 0.000000 0.000000 0.000000
O O5 0.737392 0.438372 0.688964
O O6 0.667069 0.237749 0.823949
O O7 0.944898 0.465305 0.837313
#
# Coordination Sequence:
#
# PCOD9305312 Si02
#       3
#     8   8   8
#     4  12  24  40  66 100 138 184 233 290 349 416
#     4  11  24  44  68  98 137 185 233 288 349 417
#     4  11  24  44  68  98 137 185 233 288 349 417
#
# _framework density 27.228784999999998
#
# number of rings (size 3 to 8) (size 9 to 14) (size 15 to 20)
#    0.000    0.667    0.000    8.000    0.000    6.667 
#    0.000    0.000    0.000    0.000    0.000    0.000 
#    0.000    0.000    0.000    0.000    0.000    0.000 
#
# Total GULP energy -67115.801905 kJ/mol
# GULP energy per Si atom -5592.983492 kJ/mol
# Density = 2.716681 g / cm^3
# Si number density = 27.228785 Si / 1000 Ang^3
#
#
#
# Elastic Constant Matrix: (Units=GPa)
#
#
# Indices 1 2 3 4 5 6 
#
# 1 173.5086 23.0645 34.4718 0.0000 -5.3816 0.0000
# 2 23.0645 169.6677 10.6707 0.0000 -14.7265 0.0000
# 3 34.4718 10.6707 122.0044 0.0000 -28.2301 0.0000
# 4 0.0000 0.0000 0.0000 48.3259 0.0000 -1.6782
# 5 -5.3816 -14.7265 -28.2301 0.0000 56.4411 0.0000
# 6 0.0000 0.0000 0.0000 -1.6782 0.0000 37.2922
#
#
#
# Elastic Compliance Matrix: (Units=1/GPa)
#
#
# Indices 1 2 3 4 5 6 
#
# 1 0.006209 -0.000775 -0.001805 0.000000 -0.000513 0.000000
# 2 -0.000775 0.006131 0.000040 0.000000 0.001546 0.000000
# 3 -0.001805 0.000040 0.009800 0.000000 0.004740 0.000000
# 4 0.000000 0.000000 0.000000 0.020725 0.000000 0.000933
# 5 -0.000513 0.001546 0.004740 0.000000 0.020443 0.000000
# 6 0.000000 0.000000 0.000000 0.000933 0.000000 0.026857
#
#
# Mechanical properties :
#
#
# Convention : Reuss Voigt Hill
#
# Bulk Modulus (GPa) = 58.61665 66.84385 62.73025
# Shear Modulus (GPa) = 49.53851 54.87674 52.20763
#
# Velocity S-wave (km/s) = 4.27000 4.49418 4.38353
# Velocity P-wave (km/s) = 6.77383 7.17862 6.97916
#
# Compressibility (1/GPa) = 0.01706000
#
# Stress axis : x y z
#
# Youngs Moduli (GPa) = 161.05159 163.10877 102.04363
#
# Poissons Ratio (x) = 0.12642 0.18422
# Poissons Ratio (y) = 0.12483 -0.00413
# Poissons Ratio (z) = 0.29075 -0.00661
#
# Static dielectric constant tensor:
#      x y z
#    x 1.799190 0.000000 0.347490 
#    y 0.000000 2.182780 0.000000 
#    z 0.347490 0.000000 1.884180 
# 
# From -- ./inp_files/131128.got.cif
#   From: 2010.05.17/outbox.cif.g08.bks.cpg/sg15_66_cif.got.tgz:131128.got - 2010.06.03 18:47:42.
