data_PCOD9305497
_publ_section_title
;
Structure prediction by ZEFSAII (Michael W. Deem and Ramdas Pophale) SiO2 
 PCOD9305497
Probable space group: C 2/C
;
_chemical_formula_sum "Si O2"
_cell_formula_units_Z 40
_cell_length_a 12.941332
_cell_length_b 24.575077
_cell_length_c 8.789896
_cell_angle_alpha 90.000000
_cell_angle_beta 142.141019
_cell_angle_gamma 90.000000
_cell_volume 1715.647126
_symmetry_space_group_name_H-M "C 2/C"
_symmetry_group_IT_number 15
_symmetry_cell_setting 'monoclinic'
loop_
_space_group_symop_operation_xyz
x,y,z
-x,y,1/2-z
-x,-y,-z
x,-y,1/2+z
1/2+x,1/2+y,z
1/2-x,1/2+y,1/2-z
1/2-x,1/2-y,-z
1/2+x,1/2-y,1/2+z
loop_
_atom_site_type_symbol
_atom_site_label
_atom_site_fract_x
_atom_site_fract_y
_atom_site_fract_z
Si Si1 0.830188 0.030418 0.856574
Si Si2 0.810497 0.436330 0.980672
Si Si3 0.654576 0.725512 0.529208
Si Si4 0.827901 0.148612 0.719787
Si Si5 0.221495 0.830947 0.678933
O O1 0.797924 0.046794 0.994952
O O2 0.833467 0.085783 0.765306
O O3 0.693299 0.987246 0.639530
O O4 0.000000 0.000000 0.000000
O O5 0.000000 0.425958 0.250000
O O6 0.749848 0.382414 0.821936
O O7 0.750000 0.750000 0.500000
O O8 0.755789 0.679740 0.737585
O O9 0.662468 0.779287 0.645303
O O10 0.500000 0.701603 0.250000
O O11 0.749819 0.155900 0.464629
O O12 0.015914 0.176545 0.945953
#
# Coordination Sequence:
#
# PCOD9305497 Si02
#       5
#     8   8   8   8   8
#     4  12  25  43  75 105 142 194 245 295 356 438
#     4  12  26  46  72 108 151 187 238 304 369 427
#     4  12  24  44  70 100 140 182 237 296 357 424
#     4  11  25  44  71 105 141 186 248 295 350 441
#     4  11  24  45  70 104 143 189 238 297 363 429
#
# _framework density 23.314819
#
# number of rings (size 3 to 8) (size 9 to 14) (size 15 to 20)
#    0.000    0.400    4.000    4.800    2.800    0.000 
#    0.000    2.000    0.000    0.000    0.000    0.000 
#    0.000    0.000    0.000    0.000    0.000    0.000 
#
# Total GULP energy -111613.253543 kJ/mol
# GULP energy per Si atom -5580.662677 kJ/mol
# Density = 2.326175 g / cm^3
# Si number density = 23.314819 Si / 1000 Ang^3
#
#
#
# Elastic Constant Matrix: (Units=GPa)
#
#
# Indices 1 2 3 4 5 6 
#
# 1 51.0000 16.8273 43.7816 0.0000 -25.1402 0.0000
# 2 16.8273 170.9892 70.0125 0.0000 -37.1448 0.0000
# 3 43.7816 70.0125 141.4924 0.0000 -42.5415 0.0000
# 4 0.0000 0.0000 0.0000 49.4791 0.0000 -16.8246
# 5 -25.1402 -37.1448 -42.5415 0.0000 48.7222 0.0000
# 6 0.0000 0.0000 0.0000 -16.8246 0.0000 32.2766
#
#
#
# Elastic Compliance Matrix: (Units=1/GPa)
#
#
# Indices 1 2 3 4 5 6 
#
# 1 0.030623 0.002419 -0.007278 0.000000 0.011291 0.000000
# 2 0.002419 0.007935 -0.003364 0.000000 0.004361 0.000000
# 3 -0.007278 -0.003364 0.012317 0.000000 0.004435 0.000000
# 4 0.000000 0.000000 0.000000 0.024565 0.000000 0.012805
# 5 0.011291 0.004361 0.004435 0.000000 0.033547 0.000000
# 6 0.000000 0.000000 0.000000 0.012805 0.000000 0.037657
#
#
# Mechanical properties :
#
#
# Convention : Reuss Voigt Hill
#
# Bulk Modulus (GPa) = 29.04412 69.41382 49.22897
# Shear Modulus (GPa) = 28.64242 41.61958 35.13100
#
# Velocity S-wave (km/s) = 3.50881 4.22964 3.88598
# Velocity P-wave (km/s) = 5.37588 7.32736 6.42613
#
# Compressibility (1/GPa) = 0.03443038
#
# Stress axis : x y z
#
# Youngs Moduli (GPa) = 32.65484 126.02675 81.18596
#
# Poissons Ratio (x) = -0.30487 0.59087
# Poissons Ratio (y) = -0.07899 0.27309
# Poissons Ratio (z) = 0.23766 0.42392
#
# Static dielectric constant tensor:
#      x y z
#    x -1.158760 0.000000 -1.057860 
#    y 0.000000 1.931460 0.000000 
#    z -1.057860 0.000000 1.422380 
# 
# From -- ./inp_files/42436.got.cif
#   From: 2010.05.17/outbox.cif.g08.bks.cpg/sg15_22_cif.got.tgz:42436.got - 2010.06.03 18:47:42.
