data_PCOD9305834
_publ_section_title
;
Structure prediction by ZEFSAII (Michael W. Deem and Ramdas Pophale) SiO2 
 PCOD9305834
Probable space group: C 2/C
;
_chemical_formula_sum "Si O2"
_cell_formula_units_Z 40
_cell_length_a 10.000547
_cell_length_b 16.643907
_cell_length_c 12.495677
_cell_angle_alpha 90.000000
_cell_angle_beta 129.783265
_cell_angle_gamma 90.000000
_cell_volume 1598.328344
_symmetry_space_group_name_H-M "C 2/C"
_symmetry_group_IT_number 15
_symmetry_cell_setting 'monoclinic'
loop_
_space_group_symop_operation_xyz
x,y,z
-x,y,1/2-z
-x,-y,-z
x,-y,1/2+z
1/2+x,1/2+y,z
1/2-x,1/2+y,1/2-z
1/2-x,1/2-y,-z
1/2+x,1/2-y,1/2+z
loop_
_atom_site_type_symbol
_atom_site_label
_atom_site_fract_x
_atom_site_fract_y
_atom_site_fract_z
Si Si1 0.044982 0.552581 0.917058
Si Si2 0.318806 0.368065 0.693834
Si Si3 0.672413 0.205913 0.696278
Si Si4 0.568187 0.290563 0.435499
Si Si5 0.317863 0.453333 0.919310
O O1 0.154113 0.499496 0.887457
O O2 0.886446 0.614548 0.808807
O O3 0.188866 0.613594 0.033471
O O4 0.000000 0.500000 0.000000
O O5 0.500000 0.405394 0.750000
O O6 0.339308 0.273300 0.719290
O O7 0.266788 0.410816 0.779867
O O8 0.552121 0.245721 0.542442
O O9 0.881993 0.210720 0.781133
O O10 0.750000 0.250000 0.500000
O O11 0.625231 0.382051 0.474079
O O12 0.500000 0.500000 0.000000
#
# Coordination Sequence:
#
# PCOD9305834 Si02
#       5
#     8   8   8   8   8
#     4  12  27  48  78 120 164 209 270 346 405 473
#     4  11  25  49  76 110 160 210 276 331 401 491
#     4  11  25  47  77 114 155 211 268 329 403 485
#     4  11  24  47  76 111 156 207 263 322 400 487
#     4  11  26  47  78 114 156 211 267 333 409 474
#
# _framework density 25.026145
#
# number of rings (size 3 to 8) (size 9 to 14) (size 15 to 20)
#    0.000    0.800    4.000    1.800    2.800    3.200 
#    0.000    0.000    0.000    0.000    0.000    0.000 
#    0.000    0.000    0.000    0.000    0.000    0.000 
#
# Total GULP energy -111602.910221 kJ/mol
# GULP energy per Si atom -5580.145511 kJ/mol
# Density = 2.496918 g / cm^3
# Si number density = 25.026145 Si / 1000 Ang^3
#
#
#
# Elastic Constant Matrix: (Units=GPa)
#
#
# Indices 1 2 3 4 5 6 
#
# 1 174.7118 80.7494 41.5259 0.0000 27.7676 0.0000
# 2 80.7494 170.4948 30.0569 0.0000 8.0700 0.0000
# 3 41.5259 30.0569 112.7871 0.0000 38.0664 0.0000
# 4 0.0000 0.0000 0.0000 31.6851 0.0000 4.2864
# 5 27.7676 8.0700 38.0664 0.0000 35.6695 0.0000
# 6 0.0000 0.0000 0.0000 4.2864 0.0000 46.9020
#
#
#
# Elastic Compliance Matrix: (Units=1/GPa)
#
#
# Indices 1 2 3 4 5 6 
#
# 1 0.008324 -0.003638 -0.000291 0.000000 -0.005347 0.000000
# 2 -0.003638 0.007752 -0.001704 0.000000 0.002897 0.000000
# 3 -0.000291 -0.001704 0.014412 0.000000 -0.014769 0.000000
# 4 0.000000 0.000000 0.000000 0.031956 0.000000 -0.002920
# 5 -0.005347 0.002897 -0.014769 0.000000 0.047303 0.000000
# 6 0.000000 0.000000 0.000000 -0.002920 0.000000 0.021588
#
#
# Mechanical properties :
#
#
# Convention : Reuss Voigt Hill
#
# Bulk Modulus (GPa) = 52.02368 84.73979 68.38174
# Shear Modulus (GPa) = 33.55548 43.22876 38.39212
#
# Velocity S-wave (km/s) = 3.66569 4.16064 3.92098
# Velocity P-wave (km/s) = 6.22489 7.55085 6.91970
#
# Compressibility (1/GPa) = 0.01922201
#
# Stress axis : x y z
#
# Youngs Moduli (GPa) = 120.13382 129.00501 69.38727
#
# Poissons Ratio (x) = 0.46933 0.02017
# Poissons Ratio (y) = 0.43706 0.11824
# Poissons Ratio (z) = 0.03492 0.21982
#
# Static dielectric constant tensor:
#      x y z
#    x 2.195150 0.000000 -0.050890 
#    y 0.000000 1.943430 0.000000 
#    z -0.050890 0.000000 2.014390 
# 
# From -- ./inp_files/143935.got.cif
#   From: 2010.05.17/outbox.cif.g08.bks.cpg/sg15_72_cif.got.tgz:143935.got - 2010.06.03 18:47:42.
