data_PCOD9305659
_publ_section_title
;
Structure prediction by ZEFSAII (Michael W. Deem and Ramdas Pophale) SiO2 
 PCOD9305659
Probable space group: C 2/C
;
_chemical_formula_sum "Si O2"
_cell_formula_units_Z 44
_cell_length_a 16.298658
_cell_length_b 11.830468
_cell_length_c 10.781163
_cell_angle_alpha 90.000000
_cell_angle_beta 97.979857
_cell_angle_gamma 90.000000
_cell_volume 2058.702492
_symmetry_space_group_name_H-M "C 2/C"
_symmetry_group_IT_number 15
_symmetry_cell_setting 'monoclinic'
loop_
_space_group_symop_operation_xyz
x,y,z
-x,y,1/2-z
-x,-y,-z
x,-y,1/2+z
1/2+x,1/2+y,z
1/2-x,1/2+y,1/2-z
1/2-x,1/2-y,-z
1/2+x,1/2-y,1/2+z
loop_
_atom_site_type_symbol
_atom_site_label
_atom_site_fract_x
_atom_site_fract_y
_atom_site_fract_z
Si Si1 0.342208 0.769450 0.568268
Si Si2 0.133240 0.829436 0.904721
Si Si3 0.089386 0.528009 0.573683
Si Si4 0.815267 0.703402 0.350531
Si Si5 0.451835 0.555698 0.607876
Si Si6 0.000000 0.326227 0.250000
O O1 0.250000 0.750000 0.500000
O O2 0.370000 0.885656 0.512924
O O3 0.338957 0.775818 0.715193
O O4 0.407533 0.669981 0.553092
O O5 0.216507 0.796422 0.849274
O O6 0.054291 0.755745 0.847709
O O7 0.116446 0.960253 0.877584
O O8 0.149400 0.799546 0.051367
O O9 0.144701 0.416766 0.602329
O O10 0.000000 0.500000 0.500000
O O11 0.066687 0.594966 0.694491
O O12 0.500000 0.572860 0.750000
O O13 0.500000 0.500000 0.500000
#
# Coordination Sequence:
#
# PCOD9305659 Si02
#       6
#     8   8   8   8   8   4
#     4  12  28  49  72 107 145 189 241 297 362 432
#     4  11  24  46  72 105 143 192 235 299 363 435
#     4  12  25  44  73 103 138 187 237 296 351 423
#     4  11  26  47  72 106 148 188 241 298 365 430
#     4  12  27  46  76 107 148 192 246 304 371 437
#     4  12  22  44  70 104 138 184 240 286 358 426
#
# _framework density 21.372685000000001
#
# number of rings (size 3 to 8) (size 9 to 14) (size 15 to 20)
#    0.000    0.364    2.727    5.455    5.091    0.000 
#    6.545    0.000    0.000    0.000    0.000    0.000 
#    0.000    0.000    0.000    0.000    0.000    0.000 
#
# Total GULP energy -123116.451556 kJ/mol
# GULP energy per Si atom -5596.202343 kJ/mol
# Density = 2.132404 g / cm^3
# Si number density = 21.372685 Si / 1000 Ang^3
#
#
#
# Elastic Constant Matrix: (Units=GPa)
#
#
# Indices 1 2 3 4 5 6 
#
# 1 103.2568 30.8192 44.0684 0.0000 12.7257 0.0000
# 2 30.8192 87.8565 19.4606 0.0000 16.6473 0.0000
# 3 44.0684 19.4606 74.2053 0.0000 -13.2527 0.0000
# 4 0.0000 0.0000 0.0000 30.9291 0.0000 -7.2124
# 5 12.7257 16.6473 -13.2527 0.0000 36.5617 0.0000
# 6 0.0000 0.0000 0.0000 -7.2124 0.0000 42.9974
#
#
#
# Elastic Compliance Matrix: (Units=1/GPa)
#
#
# Indices 1 2 3 4 5 6 
#
# 1 0.015634 -0.001575 -0.010388 0.000000 -0.008490 0.000000
# 2 -0.001575 0.014261 -0.004134 0.000000 -0.007444 0.000000
# 3 -0.010388 -0.004134 0.023214 0.000000 0.013913 0.000000
# 4 0.000000 0.000000 0.000000 0.033648 0.000000 0.005644
# 5 -0.008490 -0.007444 0.013913 0.000000 0.038738 0.000000
# 6 0.000000 0.000000 0.000000 0.005644 0.000000 0.024204
#
#
# Mechanical properties :
#
#
# Convention : Reuss Voigt Hill
#
# Bulk Modulus (GPa) = 47.81156 50.44611 49.12884
# Shear Modulus (GPa) = 26.47378 33.49566 29.98472
#
# Velocity S-wave (km/s) = 3.52330 3.96311 3.74966
# Velocity P-wave (km/s) = 6.24263 6.67802 6.46399
#
# Compressibility (1/GPa) = 0.02091545
#
# Stress axis : x y z
#
# Youngs Moduli (GPa) = 63.96124 70.12250 43.07683
#
# Poissons Ratio (x) = 0.11042 0.44749
# Poissons Ratio (y) = 0.10071 0.17809
# Poissons Ratio (z) = 0.66444 0.28990
#
# Static dielectric constant tensor:
#      x y z
#    x 1.744330 0.000000 -0.020480 
#    y 0.000000 1.814830 0.000000 
#    z -0.020480 0.000000 1.730710 
# 
# From -- ./inp_files/95082.got.cif
#   From: 2010.05.17/outbox.cif.g08.bks.cpg/sg15_48_cif.got.tgz:95082.got - 2010.06.03 18:47:42.
