data_PCOD9305973
_publ_section_title
;
Structure prediction by ZEFSAII (Michael W. Deem and Ramdas Pophale) SiO2 
 PCOD9305973
Probable space group: C 2/C
;
_chemical_formula_sum "Si O2"
_cell_formula_units_Z 32
_cell_length_a 13.024323
_cell_length_b 19.106756
_cell_length_c 5.382006
_cell_angle_alpha 90.000000
_cell_angle_beta 71.474643
_cell_angle_gamma 90.000000
_cell_volume 1269.926306
_symmetry_space_group_name_H-M "C 2/C"
_symmetry_group_IT_number 15
_symmetry_cell_setting 'monoclinic'
loop_
_space_group_symop_operation_xyz
x,y,z
-x,y,1/2-z
-x,-y,-z
x,-y,1/2+z
1/2+x,1/2+y,z
1/2-x,1/2+y,1/2-z
1/2-x,1/2-y,-z
1/2+x,1/2-y,1/2+z
loop_
_atom_site_type_symbol
_atom_site_label
_atom_site_fract_x
_atom_site_fract_y
_atom_site_fract_z
Si Si1 0.823074 0.155634 0.119510
Si Si2 0.500000 0.079120 0.750000
Si Si3 0.396291 0.802981 0.999287
Si Si4 0.500000 0.448750 0.250000
Si Si5 0.226802 0.538065 0.470688
O O1 0.873356 0.230134 0.154708
O O2 0.903205 0.106725 0.895165
O O3 0.711905 0.173991 0.060998
O O4 0.759325 0.007014 0.707231
O O5 0.432533 0.130642 0.627269
O O6 0.596480 0.039043 0.542542
O O7 0.500000 0.787737 0.750000
O O8 0.500000 0.500000 0.500000
O O9 0.283707 0.611945 0.386639
#
# Coordination Sequence:
#
# PCOD9305973 Si02
#       5
#     8   4   8   4   8
#     4  11  25  49  79 107 156 199 260 312 389 452
#     4  12  26  45  78 111 150 196 254 320 394 452
#     4  11  24  50  75 112 150 197 257 330 381 449
#     4  12  28  51  78 113 158 210 254 308 374 470
#     4  12  26  46  73 109 149 196 245 307 375 455
#
# _framework density 25.198309999999999
#
# number of rings (size 3 to 8) (size 9 to 14) (size 15 to 20)
#    0.000    0.500    3.750    3.750    0.000    4.000 
#    4.500    0.000    0.000    0.000    0.000    0.000 
#    0.000    0.000    0.000    0.000    0.000    0.000 
#
# Total GULP energy -89579.351612 kJ/mol
# GULP energy per Si atom -5598.709476 kJ/mol
# Density = 2.514096 g / cm^3
# Si number density = 25.198310 Si / 1000 Ang^3
#
#
#
# Elastic Constant Matrix: (Units=GPa)
#
#
# Indices 1 2 3 4 5 6 
#
# 1 89.2253 19.5753 8.7052 0.0000 -41.2293 0.0000
# 2 19.5753 119.1463 46.4902 0.0000 -8.5047 0.0000
# 3 8.7052 46.4902 103.9348 0.0000 -14.6285 0.0000
# 4 0.0000 0.0000 0.0000 43.0218 0.0000 12.0128
# 5 -41.2293 -8.5047 -14.6285 0.0000 49.7773 0.0000
# 6 0.0000 0.0000 0.0000 12.0128 0.0000 101.9753
#
#
#
# Elastic Compliance Matrix: (Units=1/GPa)
#
#
# Indices 1 2 3 4 5 6 
#
# 1 0.018884 -0.002697 0.001838 0.000000 0.015721 0.000000
# 2 -0.002697 0.010561 -0.004755 0.000000 -0.001827 0.000000
# 3 0.001838 -0.004755 0.012199 0.000000 0.004295 0.000000
# 4 0.000000 0.000000 0.000000 0.024035 0.000000 -0.002831
# 5 0.015721 -0.001827 0.004295 0.000000 0.034060 0.000000
# 6 0.000000 0.000000 0.000000 -0.002831 0.000000 0.010140
#
#
# Mechanical properties :
#
#
# Convention : Reuss Voigt Hill
#
# Bulk Modulus (GPa) = 32.87959 51.31641 42.09800
# Shear Modulus (GPa) = 38.09585 54.79058 46.44321
#
# Velocity S-wave (km/s) = 3.89246 4.66808 4.29780
# Velocity P-wave (km/s) = 5.76874 7.03305 6.43203
#
# Compressibility (1/GPa) = 0.03041400
#
# Stress axis : x y z
#
# Youngs Moduli (GPa) = 52.95415 94.68533 81.97382
#
# Poissons Ratio (x) = 0.25541 -0.15063
# Poissons Ratio (y) = 0.14284 0.38981
# Poissons Ratio (z) = -0.09730 0.45026
#
# Static dielectric constant tensor:
#      x y z
#    x 2.144250 0.000000 -0.112010 
#    y 0.000000 2.029190 0.000000 
#    z -0.112010 0.000000 2.081520 
# 
# From -- ./inp_files/6511.got.cif
#   From: 2010.05.17/outbox.cif.g08.bks.cpg/sg15_4_cif.got.tgz:6511.got - 2010.06.03 18:47:42.
