data_PCOD9305871
_publ_section_title
;
Structure prediction by ZEFSAII (Michael W. Deem and Ramdas Pophale) SiO2 
 PCOD9305871
Probable space group: C 2/C
;
_chemical_formula_sum "Si O2"
_cell_formula_units_Z 48
_cell_length_a 5.651164
_cell_length_b 29.574907
_cell_length_c 13.838644
_cell_angle_alpha 90.000000
_cell_angle_beta 119.070684
_cell_angle_gamma 90.000000
_cell_volume 2021.513645
_symmetry_space_group_name_H-M "C 2/C"
_symmetry_group_IT_number 15
_symmetry_cell_setting 'monoclinic'
loop_
_space_group_symop_operation_xyz
x,y,z
-x,y,1/2-z
-x,-y,-z
x,-y,1/2+z
1/2+x,1/2+y,z
1/2-x,1/2+y,1/2-z
1/2-x,1/2-y,-z
1/2+x,1/2-y,1/2+z
loop_
_atom_site_type_symbol
_atom_site_label
_atom_site_fract_x
_atom_site_fract_y
_atom_site_fract_z
Si Si1 0.420470 0.069790 0.588349
Si Si2 0.000000 0.095273 0.750000
Si Si3 0.000000 0.503501 0.750000
Si Si4 0.095313 0.658125 0.380047
Si Si5 0.858445 0.155729 0.908413
Si Si6 0.681752 0.245604 0.185674
Si Si7 0.275002 0.069781 0.352202
O O1 0.744081 0.065924 0.662602
O O2 0.373717 0.123141 0.596988
O O3 0.272040 0.054683 0.462090
O O4 0.311425 0.037707 0.651901
O O5 0.942432 0.128420 0.828992
O O6 0.868679 0.470113 0.801347
O O7 0.410871 0.657234 0.464331
O O8 0.000000 0.658652 0.250000
O O9 0.972643 0.704455 0.398381
O O10 0.981253 0.611398 0.396739
O O11 0.805710 0.206771 0.866637
O O12 0.500000 0.252026 0.250000
O O13 0.000000 0.231296 0.250000
O O14 0.000000 0.087376 0.250000
#
# Coordination Sequence:
#
# PCOD9305871 Si02
#       7
#     8   4   4   8   8   8   8
#     4  12  27  47  77 107 147 197 253 324 386 462
#     4  12  22  46  73 104 144 195 246 308 390 446
#     4  12  28  48  71 110 150 193 260 320 390 460
#     4  11  24  48  71 108 152 201 249 315 384 466
#     4  12  24  46  76 109 151 198 255 317 385 463
#     4  11  25  45  77 116 158 204 262 318 389 469
#     4  12  27  48  75 106 148 203 252 314 392 465
#
# _framework density 23.744584
#
# number of rings (size 3 to 8) (size 9 to 14) (size 15 to 20)
#    0.000    0.333    5.000    3.500    1.167    2.000 
#    0.000    5.000    0.000    0.000    0.000    0.000 
#    0.000    0.000    0.000    0.000    0.000    0.000 
#
# Total GULP energy -134096.017230 kJ/mol
# GULP energy per Si atom -5587.334051 kJ/mol
# Density = 2.369054 g / cm^3
# Si number density = 23.744584 Si / 1000 Ang^3
#
#
#
# Elastic Constant Matrix: (Units=GPa)
#
#
# Indices 1 2 3 4 5 6 
#
# 1 66.1490 20.0384 30.0662 0.0000 15.6496 0.0000
# 2 20.0384 143.7198 2.6299 0.0000 -3.6634 0.0000
# 3 30.0662 2.6299 125.4707 0.0000 -11.8484 0.0000
# 4 0.0000 0.0000 0.0000 1.3276 0.0000 6.4395
# 5 15.6496 -3.6634 -11.8484 0.0000 39.8785 0.0000
# 6 0.0000 0.0000 0.0000 6.4395 0.0000 46.0778
#
#
#
# Elastic Compliance Matrix: (Units=1/GPa)
#
#
# Indices 1 2 3 4 5 6 
#
# 1 0.021259 -0.003120 -0.006013 0.000000 -0.010416 0.000000
# 2 -0.003120 0.007433 0.000794 0.000000 0.002143 0.000000
# 3 -0.006013 0.000794 0.009902 0.000000 0.005374 0.000000
# 4 0.000000 0.000000 0.000000 2.338410 0.000000 -0.326800
# 5 -0.010416 0.002143 0.005374 0.000000 0.030957 0.000000
# 6 0.000000 0.000000 0.000000 -0.326800 0.000000 0.067374
#
#
# Mechanical properties :
#
#
# Convention : Reuss Voigt Hill
#
# Bulk Modulus (GPa) = 45.62458 48.97873 47.30165
# Shear Modulus (GPa) = 2.00055 36.29712 19.14883
#
# Velocity S-wave (km/s) = 0.91889 3.91404 2.84289
# Velocity P-wave (km/s) = 4.51467 6.41080 5.54439
#
# Compressibility (1/GPa) = 0.02191801
#
# Stress axis : x y z
#
# Youngs Moduli (GPa) = 47.03796 134.53459 100.99359
#
# Poissons Ratio (x) = 0.41970 0.60723
# Poissons Ratio (y) = 0.14674 -0.08020
# Poissons Ratio (z) = 0.28282 -0.10684
#
# Static dielectric constant tensor:
#      x y z
#    x 2.009680 0.000000 -0.026590 
#    y 0.000000 1.902120 0.000000 
#    z -0.026590 0.000000 1.952310 
# 
# From -- ./inp_files/130966.got.cif
#   From: 2010.05.17/outbox.cif.g08.bks.cpg/sg15_66_cif.got.tgz:130966.got - 2010.06.03 18:47:42.
