data_PCOD9305472
_publ_section_title
;
Structure prediction by ZEFSAII (Michael W. Deem and Ramdas Pophale) SiO2 
 PCOD9305472
Probable space group: C 2/C
;
_chemical_formula_sum "Si O2"
_cell_formula_units_Z 48
_cell_length_a 9.611090
_cell_length_b 11.352385
_cell_length_c 25.058306
_cell_angle_alpha 90.000000
_cell_angle_beta 61.420537
_cell_angle_gamma 90.000000
_cell_volume 2400.946014
_symmetry_space_group_name_H-M "C 2/C"
_symmetry_group_IT_number 15
_symmetry_cell_setting 'monoclinic'
loop_
_space_group_symop_operation_xyz
x,y,z
-x,y,1/2-z
-x,-y,-z
x,-y,1/2+z
1/2+x,1/2+y,z
1/2-x,1/2+y,1/2-z
1/2-x,1/2-y,-z
1/2+x,1/2-y,1/2+z
loop_
_atom_site_type_symbol
_atom_site_label
_atom_site_fract_x
_atom_site_fract_y
_atom_site_fract_z
Si Si1 0.906509 0.881296 0.506395
Si Si2 0.547769 0.609461 0.679555
Si Si3 0.934321 0.487334 0.952123
Si Si4 0.897255 0.289667 0.109457
Si Si5 0.601326 0.765356 0.883143
Si Si6 0.038933 0.832945 0.680467
O O1 0.737155 0.926222 0.515907
O O2 0.893526 0.806036 0.562894
O O3 0.003243 0.802763 0.446767
O O4 0.000000 0.000000 0.500000
O O5 0.500000 0.622964 0.750000
O O6 0.730507 0.643699 0.637588
O O7 0.440585 0.694342 0.662697
O O8 0.533267 0.471763 0.667888
O O9 0.958061 0.618544 0.925276
O O10 0.037135 0.398856 0.896915
O O11 0.000000 0.500000 0.000000
O O12 0.918825 0.230484 0.162810
O O13 0.787169 0.777650 0.859873
O O14 0.000000 0.820160 0.750000
#
# Coordination Sequence:
#
# PCOD9305472 Si02
#       6
#     8   8   8   8   8   8
#     4  12  26  40  66 101 132 173 221 272 335 403
#     4  11  24  45  69  93 130 179 223 275 329 386
#     4  12  24  41  66  99 136 178 213 269 341 396
#     4  12  24  44  68  97 137 173 222 275 336 396
#     4  12  23  43  67  96 134 171 222 269 331 400
#     4  11  26  45  68  98 131 175 227 276 329 392
#
# _framework density 19.99212
#
# number of rings (size 3 to 8) (size 9 to 14) (size 15 to 20)
#    0.000    0.333    5.000    4.500    2.333    1.333 
#    0.000    0.833    0.000    0.000    0.000    0.000 
#    0.000    0.000    0.000    0.000    0.000    0.000 
#
# Total GULP energy -134229.145515 kJ/mol
# GULP energy per Si atom -5592.881063 kJ/mol
# Density = 1.994662 g / cm^3
# Si number density = 19.992120 Si / 1000 Ang^3
#
#
#
# Elastic Constant Matrix: (Units=GPa)
#
#
# Indices 1 2 3 4 5 6 
#
# 1 60.6655 29.3626 2.2472 0.0000 4.4199 0.0000
# 2 29.3626 123.4171 37.0751 0.0000 18.9607 0.0000
# 3 2.2472 37.0751 58.3590 0.0000 13.2161 0.0000
# 4 0.0000 0.0000 0.0000 -342.2985 0.0000 164.3071
# 5 4.4199 18.9607 13.2161 0.0000 38.9859 0.0000
# 6 0.0000 0.0000 0.0000 164.3071 0.0000 -26.1793
#
#
#
# Elastic Compliance Matrix: (Units=1/GPa)
#
#
# Indices 1 2 3 4 5 6 
#
# 1 0.018961 -0.005249 0.002722 0.000000 -0.000520 0.000000
# 2 -0.005249 0.011788 -0.006632 0.000000 -0.002890 0.000000
# 3 0.002722 -0.006632 0.022295 0.000000 -0.004641 0.000000
# 4 0.000000 0.000000 0.000000 0.001452 0.000000 0.009110
# 5 -0.000520 -0.002890 -0.004641 0.000000 0.028688 0.000000
# 6 0.000000 0.000000 0.000000 0.009110 0.000000 0.018979
#
#
# Mechanical properties :
#
#
# Convention : Reuss Voigt Hill
#
# Bulk Modulus (GPa) = 28.79687 42.20129 35.49908
# Shear Modulus (GPa) = 37.86278 -54.31462 -8.22592
#
# Velocity S-wave (km/s) = 4.35660 -5.21795 -2.03064
# Velocity P-wave (km/s) = 6.30413 3.89203 3.50672
#
# Compressibility (1/GPa) = 0.03472600
#
# Stress axis : x y z
#
# Youngs Moduli (GPa) = 52.73848 84.83416 44.85335
#
# Poissons Ratio (x) = 0.44531 -0.12210
# Poissons Ratio (y) = 0.27683 0.29747
# Poissons Ratio (z) = -0.14357 0.56263
#
# Static dielectric constant tensor:
#      x y z
#    x 1.715680 0.000000 -0.013280 
#    y 0.000000 1.714220 0.000000 
#    z -0.013280 0.000000 1.696360 
# 
# From -- ./inp_files/263097.got.cif
#   From: 2010.05.17/outbox.cif.g08.bks.cpg/sg15_132_cif.got.tgz:263097.got - 2010.06.03 18:47:42.
