data_PCOD9305446
_publ_section_title
;
Structure prediction by ZEFSAII (Michael W. Deem and Ramdas Pophale) SiO2 
 PCOD9305446
Probable space group: C 2/C
;
_chemical_formula_sum "Si O2"
_cell_formula_units_Z 40
_cell_length_a 8.509496
_cell_length_b 8.108652
_cell_length_c 22.851861
_cell_angle_alpha 90.000000
_cell_angle_beta 86.570446
_cell_angle_gamma 90.000000
_cell_volume 1573.966921
_symmetry_space_group_name_H-M "C 2/C"
_symmetry_group_IT_number 15
_symmetry_cell_setting 'monoclinic'
loop_
_space_group_symop_operation_xyz
x,y,z
-x,y,1/2-z
-x,-y,-z
x,-y,1/2+z
1/2+x,1/2+y,z
1/2-x,1/2+y,1/2-z
1/2-x,1/2-y,-z
1/2+x,1/2-y,1/2+z
loop_
_atom_site_type_symbol
_atom_site_label
_atom_site_fract_x
_atom_site_fract_y
_atom_site_fract_z
Si Si1 0.393626 0.816210 0.693107
Si Si2 0.426299 0.331076 0.416025
Si Si3 0.924983 0.323456 0.482005
Si Si4 0.091941 0.184837 0.384678
Si Si5 0.670185 0.149034 0.770889
O O1 0.500000 0.810273 0.750000
O O2 0.484001 0.788582 0.631734
O O3 0.276014 0.672596 0.712548
O O4 0.293092 0.984288 0.693959
O O5 0.469851 0.301412 0.482170
O O6 0.246105 0.267576 0.412924
O O7 0.506953 0.508624 0.398343
O O8 0.750000 0.250000 0.500000
O O9 0.000000 0.500000 0.500000
O O10 0.954891 0.306132 0.412095
O O11 0.149769 0.202407 0.316736
O O12 0.500000 0.125253 0.750000
#
# Coordination Sequence:
#
# PCOD9305446 Si02
#       5
#     8   8   8   8   8
#     4  11  24  45  67 103 141 187 240 293 360 430
#     4  12  26  45  73 100 146 184 246 298 369 450
#     4  12  26  46  72 102 140 183 243 301 366 443
#     4  12  26  46  71 104 140 193 238 300 373 442
#     4  11  26  41  71 101 143 188 241 295 359 438
#
# _framework density 25.413495000000001
#
# number of rings (size 3 to 8) (size 9 to 14) (size 15 to 20)
#    0.000    0.400    2.000    6.000    8.400    1.600 
#    0.000    0.000    0.000    0.000    0.000    0.000 
#    0.000    0.000    0.000    0.000    0.000    0.000 
#
# Total GULP energy -111367.547418 kJ/mol
# GULP energy per Si atom -5568.377371 kJ/mol
# Density = 2.535565 g / cm^3
# Si number density = 25.413495 Si / 1000 Ang^3
#
#
#
# Elastic Constant Matrix: (Units=GPa)
#
#
# Indices 1 2 3 4 5 6 
#
# 1 121.3179 20.4400 6.0077 0.0000 -25.3065 0.0000
# 2 20.4400 162.1834 14.4532 0.0000 -19.1560 0.0000
# 3 6.0077 14.4532 86.3473 0.0000 -37.9397 0.0000
# 4 0.0000 0.0000 0.0000 75.4606 0.0000 -58.3197
# 5 -25.3065 -19.1560 -37.9397 0.0000 50.4089 0.0000
# 6 0.0000 0.0000 0.0000 -58.3197 0.0000 91.0063
#
#
#
# Elastic Compliance Matrix: (Units=1/GPa)
#
#
# Indices 1 2 3 4 5 6 
#
# 1 0.009532 -0.000666 0.002151 0.000000 0.006151 0.000000
# 2 -0.000666 0.006502 -0.000154 0.000000 0.002020 0.000000
# 3 0.002151 -0.000154 0.017789 0.000000 0.014410 0.000000
# 4 0.000000 0.000000 0.000000 0.026255 0.000000 0.016825
# 5 0.006151 0.002020 0.014410 0.000000 0.034538 0.000000
# 6 0.000000 0.000000 0.000000 0.016825 0.000000 0.021770
#
#
# Mechanical properties :
#
#
# Convention : Reuss Voigt Hill
#
# Bulk Modulus (GPa) = 27.41031 50.18336 38.79683
# Shear Modulus (GPa) = 39.71800 65.30500 52.51150
#
# Velocity S-wave (km/s) = 3.95760 5.07472 4.55057
# Velocity P-wave (km/s) = 5.62962 7.35708 6.55054
#
# Compressibility (1/GPa) = 0.03648263
#
# Stress axis : x y z
#
# Youngs Moduli (GPa) = 104.91434 153.79365 56.21544
#
# Poissons Ratio (x) = 0.10250 -0.12091
# Poissons Ratio (y) = 0.06992 0.00868
# Poissons Ratio (z) = -0.22566 0.02374
#
# Static dielectric constant tensor:
#      x y z
#    x 2.047030 0.000000 0.067570 
#    y 0.000000 2.455710 0.000000 
#    z 0.067570 0.000000 1.909430 
# 
# From -- ./inp_files/262465.got.cif
#   From: 2010.05.17/outbox.cif.g08.bks.cpg/sg15_132_cif.got.tgz:262465.got - 2010.06.03 18:47:42.
