data_PCOD9305213
_publ_section_title
;
Structure prediction by ZEFSAII (Michael W. Deem and Ramdas Pophale) SiO2 
 PCOD9305213
Probable space group: C 2/C
;
_chemical_formula_sum "Si O2"
_cell_formula_units_Z 40
_cell_length_a 30.821505
_cell_length_b 7.776484
_cell_length_c 13.688179
_cell_angle_alpha 90.000000
_cell_angle_beta 31.642553
_cell_angle_gamma 90.000000
_cell_volume 1721.179881
_symmetry_space_group_name_H-M "C 2/C"
_symmetry_group_IT_number 15
_symmetry_cell_setting 'monoclinic'
loop_
_space_group_symop_operation_xyz
x,y,z
-x,y,1/2-z
-x,-y,-z
x,-y,1/2+z
1/2+x,1/2+y,z
1/2-x,1/2+y,1/2-z
1/2-x,1/2-y,-z
1/2+x,1/2-y,1/2+z
loop_
_atom_site_type_symbol
_atom_site_label
_atom_site_fract_x
_atom_site_fract_y
_atom_site_fract_z
Si Si1 0.085785 0.287458 0.540417
Si Si2 0.952227 0.176447 0.104238
Si Si3 0.711937 0.692867 0.972376
Si Si4 0.241336 0.345721 0.724890
Si Si5 0.563219 0.812053 0.046023
O O1 0.085736 0.228849 0.427265
O O2 0.165866 0.232489 0.449740
O O3 0.079084 0.493155 0.549109
O O4 0.000000 0.219758 0.750000
O O5 0.881433 0.154307 0.320388
O O6 0.017242 0.305618 0.030345
O O7 0.000000 0.000000 0.000000
O O8 0.750000 0.750000 0.000000
O O9 0.751559 0.523449 0.847404
O O10 0.721985 0.849173 0.877619
O O11 0.157824 0.241196 0.852398
O O12 0.500000 0.737625 0.250000
#
# Coordination Sequence:
#
# PCOD9305213 Si02
#       5
#     8   8   8   8   8
#     4  11  25  47  71 104 145 198 255 310 379 456
#     4  12  26  44  71 107 149 191 250 319 384 449
#     4  12  26  49  75 112 156 200 258 322 384 462
#     4  12  24  47  77 107 151 205 249 316 384 455
#     4  11  24  43  71 102 145 194 245 308 376 458
#
# _framework density 23.239871999999998
#
# number of rings (size 3 to 8) (size 9 to 14) (size 15 to 20)
#    0.000    0.400    6.000    1.800    2.800    0.800 
#    0.000    3.000    0.000    0.000    0.000    0.000 
#    0.000    0.000    0.000    0.000    0.000    0.000 
#
# Total GULP energy -111608.259205 kJ/mol
# GULP energy per Si atom -5580.412960 kJ/mol
# Density = 2.318698 g / cm^3
# Si number density = 23.239872 Si / 1000 Ang^3
#
#
#
# Elastic Constant Matrix: (Units=GPa)
#
#
# Indices 1 2 3 4 5 6 
#
# 1 100.3986 40.2845 49.6783 0.0000 -9.5338 0.0000
# 2 40.2845 73.5269 33.7190 0.0000 -7.0819 0.0000
# 3 49.6783 33.7190 203.6358 0.0000 -18.6986 0.0000
# 4 0.0000 0.0000 0.0000 34.0020 0.0000 2.4408
# 5 -9.5338 -7.0819 -18.6986 0.0000 46.8442 0.0000
# 6 0.0000 0.0000 0.0000 2.4408 0.0000 36.7978
#
#
#
# Elastic Compliance Matrix: (Units=1/GPa)
#
#
# Indices 1 2 3 4 5 6 
#
# 1 0.013710 -0.006414 -0.002196 0.000000 0.000944 0.000000
# 2 -0.006414 0.017795 -0.001303 0.000000 0.000865 0.000000
# 3 -0.002196 -0.001303 0.005816 0.000000 0.001678 0.000000
# 4 0.000000 0.000000 0.000000 0.029551 0.000000 -0.001960
# 5 0.000944 0.000865 0.001678 0.000000 0.022340 0.000000
# 6 0.000000 0.000000 0.000000 -0.001960 0.000000 0.027306
#
#
# Mechanical properties :
#
#
# Convention : Reuss Voigt Hill
#
# Bulk Modulus (GPa) = 57.15229 69.43610 63.29420
# Shear Modulus (GPa) = 35.16824 40.45411 37.81117
#
# Velocity S-wave (km/s) = 3.89430 4.17672 4.03798
# Velocity P-wave (km/s) = 6.69825 7.29403 7.00248
#
# Compressibility (1/GPa) = 0.01749711
#
# Stress axis : x y z
#
# Youngs Moduli (GPa) = 72.93991 56.19556 171.93402
#
# Poissons Ratio (x) = 0.36041 0.37756
# Poissons Ratio (y) = 0.46780 0.22395
# Poissons Ratio (z) = 0.16017 0.07320
#
# Static dielectric constant tensor:
#      x y z
#    x 1.922070 0.000000 -0.102110 
#    y 0.000000 1.884870 0.000000 
#    z -0.102110 0.000000 2.004880 
# 
# From -- ./inp_files/150666.got.cif
#   From: 2010.05.17/outbox.cif.g08.bks.cpg/sg15_76_cif.got.tgz:150666.got - 2010.06.03 18:47:42.
