data_PCOD9305681
_publ_section_title
;
Structure prediction by ZEFSAII (Michael W. Deem and Ramdas Pophale) SiO2 
 PCOD9305681
Probable space group: C 2/C
;
_chemical_formula_sum "Si O2"
_cell_formula_units_Z 24
_cell_length_a 9.604448
_cell_length_b 11.115433
_cell_length_c 11.882623
_cell_angle_alpha 90.000000
_cell_angle_beta 120.348644
_cell_angle_gamma 90.000000
_cell_volume 1094.725539
_symmetry_space_group_name_H-M "C 2/C"
_symmetry_group_IT_number 15
_symmetry_cell_setting 'monoclinic'
loop_
_space_group_symop_operation_xyz
x,y,z
-x,y,1/2-z
-x,-y,-z
x,-y,1/2+z
1/2+x,1/2+y,z
1/2-x,1/2+y,1/2-z
1/2-x,1/2-y,-z
1/2+x,1/2-y,1/2+z
loop_
_atom_site_type_symbol
_atom_site_label
_atom_site_fract_x
_atom_site_fract_y
_atom_site_fract_z
Si Si1 0.820213 0.672503 0.132254
Si Si2 0.659209 0.562421 0.513245
Si Si3 0.673402 0.278815 0.808872
O O1 0.801176 0.533860 0.088790
O O2 0.708483 0.691282 0.195410
O O3 0.000000 0.701465 0.250000
O O4 0.750000 0.750000 0.000000
O O5 0.500000 0.500000 0.500000
O O6 0.659614 0.604050 0.383307
O O7 0.693169 0.686818 0.591796
O O8 0.500000 0.217017 0.750000
#
# Coordination Sequence:
#
# PCOD9305681 Si02
#       3
#     8   8   8
#     4  12  28  46  75 112 155 201 259 318 384 464
#     4  11  24  46  73 106 151 200 257 317 379 459
#     4  11  25  46  75 108 149 205 254 312 393 452
#
# _framework density 21.923306
#
# number of rings (size 3 to 8) (size 9 to 14) (size 15 to 20)
#    0.000    0.667    3.333    3.000    9.333    2.667 
#    0.000    0.000    0.000    0.000    0.000    0.000 
#    0.000    0.000    0.000    0.000    0.000    0.000 
#
# Total GULP energy -67063.768779 kJ/mol
# GULP energy per Si atom -5588.647398 kJ/mol
# Density = 2.187341 g / cm^3
# Si number density = 21.923306 Si / 1000 Ang^3
#
#
#
# Elastic Constant Matrix: (Units=GPa)
#
#
# Indices 1 2 3 4 5 6 
#
# 1 137.0941 47.0186 80.1026 0.0000 -9.1667 0.0000
# 2 47.0186 98.4564 72.2698 0.0000 -12.3399 0.0000
# 3 80.1026 72.2698 189.6507 0.0000 -24.0860 0.0000
# 4 0.0000 0.0000 0.0000 38.6498 0.0000 11.2083
# 5 -9.1667 -12.3399 -24.0860 0.0000 53.0863 0.0000
# 6 0.0000 0.0000 0.0000 11.2083 0.0000 34.3638
#
#
#
# Elastic Compliance Matrix: (Units=1/GPa)
#
#
# Indices 1 2 3 4 5 6 
#
# 1 0.010064 -0.002356 -0.003397 0.000000 -0.000351 0.000000
# 2 -0.002356 0.014693 -0.004480 0.000000 0.000976 0.000000
# 3 -0.003397 -0.004480 0.008710 0.000000 0.002324 0.000000
# 4 0.000000 0.000000 0.000000 0.028576 0.000000 -0.009321
# 5 -0.000351 0.000976 0.002324 0.000000 0.020058 0.000000
# 6 0.000000 0.000000 0.000000 -0.009321 0.000000 0.032140
#
#
# Mechanical properties :
#
#
# Convention : Reuss Voigt Hill
#
# Bulk Modulus (GPa) = 76.92491 91.55369 84.23930
# Shear Modulus (GPa) = 35.96050 40.27397 38.11723
#
# Velocity S-wave (km/s) = 4.05444 4.29072 4.17425
# Velocity P-wave (km/s) = 7.55528 8.14853 7.85751
#
# Compressibility (1/GPa) = 0.01299969
#
# Stress axis : x y z
#
# Youngs Moduli (GPa) = 99.36413 68.06138 114.81033
#
# Poissons Ratio (x) = 0.16038 0.39006
# Poissons Ratio (y) = 0.23414 0.51431
# Poissons Ratio (z) = 0.33758 0.30489
#
# Static dielectric constant tensor:
#      x y z
#    x 1.837160 0.000000 0.061080 
#    y 0.000000 1.830250 0.000000 
#    z 0.061080 0.000000 1.850830 
# 
# From -- ./inp_files/74628.got.cif
#   From: 2010.05.17/outbox.cif.g08.bks.cpg/sg15_38_cif.got.tgz:74628.got - 2010.06.03 18:47:42.
