data_PCOD9305721
_publ_section_title
;
Structure prediction by ZEFSAII (Michael W. Deem and Ramdas Pophale) SiO2 
 PCOD9305721
Probable space group: C 2/C
;
_chemical_formula_sum "Si O2"
_cell_formula_units_Z 36
_cell_length_a 11.780871
_cell_length_b 12.412329
_cell_length_c 9.744836
_cell_angle_alpha 90.000000
_cell_angle_beta 78.131951
_cell_angle_gamma 90.000000
_cell_volume 1394.507959
_symmetry_space_group_name_H-M "C 2/C"
_symmetry_group_IT_number 15
_symmetry_cell_setting 'monoclinic'
loop_
_space_group_symop_operation_xyz
x,y,z
-x,y,1/2-z
-x,-y,-z
x,-y,1/2+z
1/2+x,1/2+y,z
1/2-x,1/2+y,1/2-z
1/2-x,1/2-y,-z
1/2+x,1/2-y,1/2+z
loop_
_atom_site_type_symbol
_atom_site_label
_atom_site_fract_x
_atom_site_fract_y
_atom_site_fract_z
Si Si1 0.873161 0.861412 0.123615
Si Si2 0.346351 0.548534 0.345919
Si Si3 0.630268 0.222118 0.768038
Si Si4 0.881412 0.560699 0.492959
Si Si5 0.000000 0.321808 0.750000
O O1 0.737046 0.827214 0.154534
O O2 0.946112 0.756193 0.148081
O O3 0.882797 0.947518 0.244288
O O4 0.910805 0.910607 0.968421
O O5 0.350662 0.651057 0.246055
O O6 0.223128 0.515069 0.439375
O O7 0.500000 0.196165 0.750000
O O8 0.639029 0.168272 0.913555
O O9 0.000000 0.500000 0.500000
O O10 0.899634 0.601499 0.334261
#
# Coordination Sequence:
#
# PCOD9305721 Si02
#       5
#     8   8   8   8   4
#     4  11  27  45  73 110 149 200 249 310 378 450
#     4  11  26  45  76 107 153 196 250 311 382 443
#     4  11  24  46  76 108 149 192 254 308 376 443
#     4  11  26  45  79 111 149 199 257 310 374 448
#     4  12  28  48  76 108 156 194 256 310 378 454
#
# _framework density 25.815559
#
# number of rings (size 3 to 8) (size 9 to 14) (size 15 to 20)
#    0.000    0.889    0.000    4.667   15.556    2.667 
#    0.000    0.000    0.000    0.000    0.000    0.000 
#    0.000    0.000    0.000    0.000    0.000    0.000 
#
# Total GULP energy -100878.672618 kJ/mol
# GULP energy per Si atom -5604.370701 kJ/mol
# Density = 2.575680 g / cm^3
# Si number density = 25.815559 Si / 1000 Ang^3
#
#
#
# Elastic Constant Matrix: (Units=GPa)
#
#
# Indices 1 2 3 4 5 6 
#
# 1 113.0237 43.7775 22.7600 0.0000 -19.0136 0.0000
# 2 43.7775 116.9486 63.0540 0.0000 -20.9911 0.0000
# 3 22.7600 63.0540 112.4822 0.0000 -19.4509 0.0000
# 4 0.0000 0.0000 0.0000 28.0163 0.0000 5.3620
# 5 -19.0136 -20.9911 -19.4509 0.0000 27.5287 0.0000
# 6 0.0000 0.0000 0.0000 5.3620 0.0000 39.3904
#
#
#
# Elastic Compliance Matrix: (Units=1/GPa)
#
#
# Indices 1 2 3 4 5 6 
#
# 1 0.010976 -0.003506 0.000676 0.000000 0.005384 0.000000
# 2 -0.003506 0.014042 -0.006526 0.000000 0.003674 0.000000
# 3 0.000676 -0.006526 0.013251 0.000000 0.004853 0.000000
# 4 0.000000 0.000000 0.000000 0.036648 0.000000 -0.004989
# 5 0.005384 0.003674 0.004853 0.000000 0.046275 0.000000
# 6 0.000000 0.000000 0.000000 -0.004989 0.000000 0.026066
#
#
# Mechanical properties :
#
#
# Convention : Reuss Voigt Hill
#
# Bulk Modulus (GPa) = 51.13958 66.84862 58.99410
# Shear Modulus (GPa) = 28.98720 33.17794 31.08257
#
# Velocity S-wave (km/s) = 3.35454 3.58885 3.47367
# Velocity P-wave (km/s) = 5.90394 6.56689 6.24422
#
# Compressibility (1/GPa) = 0.01955432
#
# Stress axis : x y z
#
# Youngs Moduli (GPa) = 91.11150 71.21727 75.46422
#
# Poissons Ratio (x) = 0.24972 -0.05100
# Poissons Ratio (y) = 0.31948 0.49252
# Poissons Ratio (z) = -0.06158 0.46480
#
# Static dielectric constant tensor:
#      x y z
#    x 2.065800 0.000000 0.038130 
#    y 0.000000 2.004090 0.000000 
#    z 0.038130 0.000000 1.972120 
# 
# From -- ./inp_files/94372.got.cif
#   From: 2010.05.17/outbox.cif.g08.bks.cpg/sg15_48_cif.got.tgz:94372.got - 2010.06.03 18:47:42.
