data_PCOD9305476
_publ_section_title
;
Structure prediction by ZEFSAII (Michael W. Deem and Ramdas Pophale) SiO2 
 PCOD9305476
Probable space group: C 2/C
;
_chemical_formula_sum "Si O2"
_cell_formula_units_Z 48
_cell_length_a 28.570591
_cell_length_b 13.842234
_cell_length_c 12.511812
_cell_angle_alpha 90.000000
_cell_angle_beta 151.611146
_cell_angle_gamma 90.000000
_cell_volume 2352.628124
_symmetry_space_group_name_H-M "C 2/C"
_symmetry_group_IT_number 15
_symmetry_cell_setting 'monoclinic'
loop_
_space_group_symop_operation_xyz
x,y,z
-x,y,1/2-z
-x,-y,-z
x,-y,1/2+z
1/2+x,1/2+y,z
1/2-x,1/2+y,1/2-z
1/2-x,1/2-y,-z
1/2+x,1/2-y,1/2+z
loop_
_atom_site_type_symbol
_atom_site_label
_atom_site_fract_x
_atom_site_fract_y
_atom_site_fract_z
Si Si1 0.943882 0.842672 0.749235
Si Si2 0.189629 0.337592 0.512988
Si Si3 0.263362 0.547980 0.965910
Si Si4 0.710077 0.228701 0.594295
Si Si5 0.882780 0.470214 0.514358
Si Si6 0.364287 0.354707 0.243474
O O1 0.901087 0.735839 0.683351
O O2 0.850310 0.913487 0.564092
O O3 0.000000 0.847075 0.750000
O O4 0.023405 0.870606 0.998282
O O5 0.239673 0.368230 0.502956
O O6 0.262484 0.284820 0.742529
O O7 0.153641 0.436850 0.493894
O O8 0.304853 0.453727 0.108019
O O9 0.167455 0.524327 0.703475
O O10 0.656824 0.128796 0.513797
O O11 0.646499 0.294455 0.387032
O O12 0.809953 0.204931 0.728808
O O13 0.000000 0.469320 0.750000
#
# Coordination Sequence:
#
# PCOD9305476 Si02
#       6
#     8   8   8   8   8   8
#     4  12  25  45  74 102 139 187 235 283 356 417
#     4  12  25  46  72 101 146 184 228 295 348 407
#     4  12  26  46  71 106 141 180 237 297 341 417
#     4  11  24  45  69  97 147 182 228 291 348 415
#     4  12  27  44  70 106 140 186 231 289 350 417
#     4  11  24  45  71 103 136 187 235 281 354 412
#
# _framework density 20.402712999999999
#
# number of rings (size 3 to 8) (size 9 to 14) (size 15 to 20)
#    0.000    0.333    6.667    1.500    2.333    0.667 
#    0.000    0.833    0.000    0.000    0.000    0.000 
#    0.000    0.000    0.000    0.000    0.000    0.000 
#
# Total GULP energy -134317.781862 kJ/mol
# GULP energy per Si atom -5596.574244 kJ/mol
# Density = 2.035628 g / cm^3
# Si number density = 20.402713 Si / 1000 Ang^3
#
#
#
# Elastic Constant Matrix: (Units=GPa)
#
#
# Indices 1 2 3 4 5 6 
#
# 1 75.6060 25.7537 29.1096 0.0000 -2.8476 0.0000
# 2 25.7537 85.6030 44.8529 0.0000 4.8926 0.0000
# 3 29.1096 44.8529 154.2993 0.0000 -3.2612 0.0000
# 4 0.0000 0.0000 0.0000 31.8197 0.0000 -11.3855
# 5 -2.8476 4.8926 -3.2612 0.0000 20.6125 0.0000
# 6 0.0000 0.0000 0.0000 -11.3855 0.0000 36.9733
#
#
#
# Elastic Compliance Matrix: (Units=1/GPa)
#
#
# Indices 1 2 3 4 5 6 
#
# 1 0.015305 -0.003869 -0.001704 0.000000 0.002763 0.000000
# 2 -0.003869 0.015082 -0.003754 0.000000 -0.004708 0.000000
# 3 -0.001704 -0.003754 0.007934 0.000000 0.001911 0.000000
# 4 0.000000 0.000000 0.000000 0.035319 0.000000 0.010876
# 5 0.002763 -0.004708 0.001911 0.000000 0.050316 0.000000
# 6 0.000000 0.000000 0.000000 0.010876 0.000000 0.030396
#
#
# Mechanical properties :
#
#
# Convention : Reuss Voigt Hill
#
# Bulk Modulus (GPa) = 50.84904 57.21562 54.03233
# Shear Modulus (GPa) = 27.84580 32.26725 30.05653
#
# Velocity S-wave (km/s) = 3.69834 3.98114 3.84234
# Velocity P-wave (km/s) = 6.57372 7.01689 6.79891
#
# Compressibility (1/GPa) = 0.01966606
#
# Stress axis : x y z
#
# Youngs Moduli (GPa) = 65.33938 66.30504 126.04112
#
# Poissons Ratio (x) = 0.25656 0.21479
# Poissons Ratio (y) = 0.25283 0.47311
# Poissons Ratio (z) = 0.11135 0.24888
#
# Static dielectric constant tensor:
#      x y z
#    x 1.719270 0.000000 -0.015800 
#    y 0.000000 1.705880 0.000000 
#    z -0.015800 0.000000 1.714010 
# 
# From -- ./inp_files/123419.got.cif
#   From: 2010.05.17/outbox.cif.g08.bks.cpg/sg15_62_cif.got.tgz:123419.got - 2010.06.03 18:47:42.
