data_PCOD9305109
_publ_section_title
;
Structure prediction by ZEFSAII (Michael W. Deem and Ramdas Pophale) SiO2 
 PCOD9305109
Probable space group: C 2/C
;
_chemical_formula_sum "Si O2"
_cell_formula_units_Z 48
_cell_length_a 9.974879
_cell_length_b 13.567962
_cell_length_c 17.666838
_cell_angle_alpha 90.000000
_cell_angle_beta 91.239636
_cell_angle_gamma 90.000000
_cell_volume 2390.448688
_symmetry_space_group_name_H-M "C 2/C"
_symmetry_group_IT_number 15
_symmetry_cell_setting 'monoclinic'
loop_
_space_group_symop_operation_xyz
x,y,z
-x,y,1/2-z
-x,-y,-z
x,-y,1/2+z
1/2+x,1/2+y,z
1/2-x,1/2+y,1/2-z
1/2-x,1/2-y,-z
1/2+x,1/2-y,1/2+z
loop_
_atom_site_type_symbol
_atom_site_label
_atom_site_fract_x
_atom_site_fract_y
_atom_site_fract_z
Si Si1 0.567750 0.201383 0.674845
Si Si2 0.776871 0.099514 0.338511
Si Si3 0.014933 0.415193 0.936080
Si Si4 0.709019 0.993457 0.676644
Si Si5 0.465065 0.536790 0.082781
Si Si6 0.101500 0.258499 0.462619
O O1 0.500000 0.240313 0.750000
O O2 0.672501 0.287096 0.653187
O O3 0.447763 0.181825 0.612901
O O4 0.643176 0.099434 0.692000
O O5 0.655277 0.081326 0.394557
O O6 0.738976 0.067402 0.253153
O O7 0.902702 0.033220 0.364878
O O8 0.897308 0.433600 0.874738
O O9 0.000000 0.500000 0.000000
O O10 0.990463 0.309335 0.974856
O O11 0.840782 0.008619 0.626459
O O12 0.429531 0.649967 0.066576
O O13 0.500000 0.500000 0.000000
O O14 0.250000 0.250000 0.500000
#
# Coordination Sequence:
#
# PCOD9305109 Si02
#       6
#     8   8   8   8   8   8
#     4  11  25  44  71  97 139 181 224 282 346 401
#     4  11  26  45  66 100 137 179 225 281 339 407
#     4  12  24  43  70 100 134 176 234 275 340 405
#     4  12  24  46  68  97 135 182 225 276 339 412
#     4  11  25  43  69  98 138 173 226 277 341 397
#     4  11  24  42  69  98 134 177 223 283 336 402
#
# _framework density 20.079912
#
# number of rings (size 3 to 8) (size 9 to 14) (size 15 to 20)
#    0.000    0.667    3.333    5.000    2.333    1.333 
#    0.000    1.667    0.000    0.000    0.000    0.000 
#    0.000    0.000    0.000    0.000    0.000    0.000 
#
# Total GULP energy -133966.304597 kJ/mol
# GULP energy per Si atom -5581.929358 kJ/mol
# Density = 2.003421 g / cm^3
# Si number density = 20.079912 Si / 1000 Ang^3
#
#
#
# Elastic Constant Matrix: (Units=GPa)
#
#
# Indices 1 2 3 4 5 6 
#
# 1 142.3884 8.2304 59.9479 0.0000 0.5627 0.0000
# 2 8.2304 27.1344 17.2374 0.0000 2.3648 0.0000
# 3 59.9479 17.2374 109.6696 0.0000 16.7620 0.0000
# 4 0.0000 0.0000 0.0000 36.0321 0.0000 -8.9759
# 5 0.5627 2.3648 16.7620 0.0000 55.1024 0.0000
# 6 0.0000 0.0000 0.0000 -8.9759 0.0000 21.6189
#
#
#
# Elastic Compliance Matrix: (Units=1/GPa)
#
#
# Indices 1 2 3 4 5 6 
#
# 1 0.009246 0.000468 -0.005360 0.000000 0.001516 0.000000
# 2 0.000468 0.040968 -0.006739 0.000000 0.000287 0.000000
# 3 -0.005360 -0.006739 0.013691 0.000000 -0.003821 0.000000
# 4 0.000000 0.000000 0.000000 0.030955 0.000000 0.012852
# 5 0.001516 0.000287 -0.003821 0.000000 0.019283 0.000000
# 6 0.000000 0.000000 0.000000 0.012852 0.000000 0.051592
#
#
# Mechanical properties :
#
#
# Convention : Reuss Voigt Hill
#
# Bulk Modulus (GPa) = 24.60361 50.00264 37.30313
# Shear Modulus (GPa) = 24.68611 35.46911 30.07761
#
# Velocity S-wave (km/s) = 3.51007 4.20741 3.87446
# Velocity P-wave (km/s) = 5.35789 6.96843 6.21554
#
# Compressibility (1/GPa) = 0.04064444
#
# Stress axis : x y z
#
# Youngs Moduli (GPa) = 108.14932 24.40956 73.04002
#
# Poissons Ratio (x) = -0.01142 0.39146
# Poissons Ratio (y) = -0.05061 0.49220
# Poissons Ratio (z) = 0.57963 0.16449
#
# Static dielectric constant tensor:
#      x y z
#    x 1.708650 0.000000 0.042330 
#    y 0.000000 1.760190 0.000000 
#    z 0.042330 0.000000 1.703830 
# 
# From -- ./inp_files/189200.got.cif
#   From: 2010.05.17/outbox.cif.g08.bks.cpg/sg15_95_cif.got.tgz:189200.got - 2010.06.03 18:47:42.
