data_PCOD9305608
_publ_section_title
;
Structure prediction by ZEFSAII (Michael W. Deem and Ramdas Pophale) SiO2 
 PCOD9305608
Probable space group: C 2/C
;
_chemical_formula_sum "Si O2"
_cell_formula_units_Z 52
_cell_length_a 17.238119
_cell_length_b 14.490984
_cell_length_c 14.884061
_cell_angle_alpha 90.000000
_cell_angle_beta 138.320634
_cell_angle_gamma 90.000000
_cell_volume 2472.325476
_symmetry_space_group_name_H-M "C 2/C"
_symmetry_group_IT_number 15
_symmetry_cell_setting 'monoclinic'
loop_
_space_group_symop_operation_xyz
x,y,z
-x,y,1/2-z
-x,-y,-z
x,-y,1/2+z
1/2+x,1/2+y,z
1/2-x,1/2+y,1/2-z
1/2-x,1/2-y,-z
1/2+x,1/2-y,1/2+z
loop_
_atom_site_type_symbol
_atom_site_label
_atom_site_fract_x
_atom_site_fract_y
_atom_site_fract_z
Si Si1 0.273528 0.845024 0.573576
Si Si2 0.867272 0.018533 0.045045
Si Si3 0.300384 0.197662 0.307127
Si Si4 0.504541 0.915359 0.071443
Si Si5 0.500000 0.970487 0.750000
Si Si6 0.861888 0.063065 0.240755
Si Si7 0.237182 0.098078 0.722434
O O1 0.250000 0.750000 0.500000
O O2 0.160472 0.910725 0.465152
O O3 0.296788 0.829519 0.699416
O O4 0.386581 0.904417 0.640397
O O5 0.836360 0.066636 0.112476
O O6 0.000293 0.041542 0.134418
O O7 0.787736 0.050461 0.894198
O O8 0.398616 0.149186 0.452708
O O9 0.328654 0.305702 0.331470
O O10 0.181852 0.155403 0.247927
O O11 0.629073 0.870961 0.159017
O O12 0.504172 0.961594 0.168505
O O13 0.500000 0.000000 0.000000
O O14 0.796149 0.976612 0.230990
#
# Coordination Sequence:
#
# PCOD9305608 Si02
#       7
#     8   8   8   8   4   8   8
#     4  12  26  43  72 109 138 182 242 294 364 426
#     4  11  24  46  68  98 140 188 229 292 366 417
#     4  12  27  43  71 107 140 193 240 295 363 434
#     4  12  24  47  71 100 144 192 239 295 365 421
#     4  12  24  48  74 100 146 192 234 310 350 430
#     4  11  24  46  70  97 145 183 229 300 359 429
#     4  12  26  44  71 102 139 188 239 300 356 426
#
# _framework density 21.032829
#
# number of rings (size 3 to 8) (size 9 to 14) (size 15 to 20)
#    0.000    0.308    6.154    2.308    4.308    3.077 
#    0.000    0.000    0.000    0.000    0.000    0.000 
#    0.000    0.000    0.000    0.000    0.000    0.000 
#
# Total GULP energy -145307.663507 kJ/mol
# GULP energy per Si atom -5588.756289 kJ/mol
# Density = 2.098496 g / cm^3
# Si number density = 21.032829 Si / 1000 Ang^3
#
#
#
# Elastic Constant Matrix: (Units=GPa)
#
#
# Indices 1 2 3 4 5 6 
#
# 1 92.6896 4.9782 30.8969 0.0000 -9.1387 0.0000
# 2 4.9782 39.5143 -21.4234 0.0000 -2.3437 0.0000
# 3 30.8969 -21.4234 65.6717 0.0000 2.3660 0.0000
# 4 0.0000 0.0000 0.0000 34.0127 0.0000 -0.5709
# 5 -9.1387 -2.3437 2.3660 0.0000 33.2396 0.0000
# 6 0.0000 0.0000 0.0000 -0.5709 0.0000 19.9181
#
#
#
# Elastic Compliance Matrix: (Units=1/GPa)
#
#
# Indices 1 2 3 4 5 6 
#
# 1 0.014611 -0.006561 -0.009166 0.000000 0.004207 0.000000
# 2 -0.006561 0.033762 0.014116 0.000000 -0.000428 0.000000
# 3 -0.009166 0.014116 0.024262 0.000000 -0.003252 0.000000
# 4 0.000000 0.000000 0.000000 0.029415 0.000000 0.000843
# 5 0.004207 -0.000428 -0.003252 0.000000 0.031442 0.000000
# 6 0.000000 0.000000 0.000000 0.000843 0.000000 0.050230
#
#
# Mechanical properties :
#
#
# Convention : Reuss Voigt Hill
#
# Bulk Modulus (GPa) = 14.40667 25.19769 19.80218
# Shear Modulus (GPa) = 23.80031 29.66235 26.73133
#
# Velocity S-wave (km/s) = 3.36754 3.75945 3.56888
# Velocity P-wave (km/s) = 4.68881 5.55435 5.13983
#
# Compressibility (1/GPa) = 0.06941231
#
# Stress axis : x y z
#
# Youngs Moduli (GPa) = 68.44039 29.61948 41.21728
#
# Poissons Ratio (x) = 0.19433 0.37780
# Poissons Ratio (y) = 0.44902 -0.58181
# Poissons Ratio (z) = 0.62733 -0.41810
#
# Static dielectric constant tensor:
#      x y z
#    x 1.773940 0.000000 0.031100 
#    y 0.000000 1.763090 0.000000 
#    z 0.031100 0.000000 1.726450 
# 
# From -- ./inp_files/162627.got.cif
#   From: 2010.05.17/outbox.cif.g08.bks.cpg/sg15_82_cif.got.tgz:162627.got - 2010.06.03 18:47:42.
