data_PCOD9305597
_publ_section_title
;
Structure prediction by ZEFSAII (Michael W. Deem and Ramdas Pophale) SiO2 
 PCOD9305597
Probable space group: C 2/C
;
_chemical_formula_sum "Si O2"
_cell_formula_units_Z 48
_cell_length_a 18.832026
_cell_length_b 15.569284
_cell_length_c 7.569285
_cell_angle_alpha 90.000000
_cell_angle_beta 70.834278
_cell_angle_gamma 90.000000
_cell_volume 2096.312616
_symmetry_space_group_name_H-M "C 2/C"
_symmetry_group_IT_number 15
_symmetry_cell_setting 'monoclinic'
loop_
_space_group_symop_operation_xyz
x,y,z
-x,y,1/2-z
-x,-y,-z
x,-y,1/2+z
1/2+x,1/2+y,z
1/2-x,1/2+y,1/2-z
1/2-x,1/2-y,-z
1/2+x,1/2-y,1/2+z
loop_
_atom_site_type_symbol
_atom_site_label
_atom_site_fract_x
_atom_site_fract_y
_atom_site_fract_z
Si Si1 0.923321 0.928336 0.211654
Si Si2 0.290375 0.173442 0.372501
Si Si3 0.681637 0.446781 0.885471
Si Si4 0.174124 0.447429 0.324094
Si Si5 0.929340 0.585513 0.897738
Si Si6 0.552156 0.758650 0.882569
O O1 0.890330 0.012522 0.147348
O O2 0.940489 0.843173 0.081923
O O3 0.000000 0.947576 0.250000
O O4 0.855500 0.910545 0.404982
O O5 0.250000 0.250000 0.500000
O O6 0.310984 0.104193 0.507912
O O7 0.365011 0.209711 0.230422
O O8 0.232450 0.131956 0.279138
O O9 0.746125 0.520925 0.823951
O O10 0.118939 0.526320 0.427669
O O11 0.129428 0.395266 0.211524
O O12 0.000000 0.536413 0.750000
O O13 0.967140 0.669252 0.957194
O O14 0.500000 0.763874 0.750000
#
# Coordination Sequence:
#
# PCOD9305597 Si02
#       6
#     8   8   8   8   8   8
#     4  11  25  45  71  99 134 177 225 283 343 400
#     4  12  23  44  70  97 136 185 227 280 346 398
#     4  12  21  44  69 100 127 175 230 277 336 403
#     4  12  23  41  67  99 138 177 228 280 333 404
#     4  12  24  41  66 102 137 182 226 271 335 409
#     4  11  24  46  67  99 143 183 222 277 344 407
#
# _framework density 22.897349999999999
#
# number of rings (size 3 to 8) (size 9 to 14) (size 15 to 20)
#    0.000    0.333    6.667    2.000    0.000    1.333 
#    3.000    2.500    0.000    0.000    0.000    0.000 
#    0.000    0.000    0.000    0.000    0.000    0.000 
#
# Total GULP energy -133813.580811 kJ/mol
# GULP energy per Si atom -5575.565867 kJ/mol
# Density = 2.284523 g / cm^3
# Si number density = 22.897350 Si / 1000 Ang^3
#
#
#
# Elastic Constant Matrix: (Units=GPa)
#
#
# Indices 1 2 3 4 5 6 
#
# 1 118.6582 52.7822 14.5329 0.0000 -0.4781 0.0000
# 2 52.7822 101.0330 3.4331 0.0000 17.5427 0.0000
# 3 14.5329 3.4331 49.0733 0.0000 -12.3920 0.0000
# 4 0.0000 0.0000 0.0000 -28.7049 0.0000 -42.4407
# 5 -0.4781 17.5427 -12.3920 0.0000 41.5570 0.0000
# 6 0.0000 0.0000 0.0000 -42.4407 0.0000 5.7040
#
#
#
# Elastic Compliance Matrix: (Units=1/GPa)
#
#
# Indices 1 2 3 4 5 6 
#
# 1 0.011541 -0.006304 -0.002456 0.000000 0.002061 0.000000
# 2 -0.006304 0.014316 -0.000734 0.000000 -0.006335 0.000000
# 3 -0.002456 -0.000734 0.022956 0.000000 0.007127 0.000000
# 4 0.000000 0.000000 0.000000 -0.002903 0.000000 -0.021599
# 5 0.002061 -0.006335 0.007127 0.000000 0.028886 0.000000
# 6 0.000000 0.000000 0.000000 -0.021599 0.000000 0.014608
#
#
# Mechanical properties :
#
#
# Convention : Reuss Voigt Hill
#
# Bulk Modulus (GPa) = 33.52968 45.58453 39.55711
# Shear Modulus (GPa) = 42.25309 16.91230 29.58269
#
# Velocity S-wave (km/s) = 4.30039 2.72069 3.59830
# Velocity P-wave (km/s) = 6.27161 5.46086 5.88022
#
# Compressibility (1/GPa) = 0.02982432
#
# Stress axis : x y z
#
# Youngs Moduli (GPa) = 86.64974 69.85289 43.56124
#
# Poissons Ratio (x) = 0.44033 0.10700
# Poissons Ratio (y) = 0.54621 0.03199
# Poissons Ratio (z) = 0.21283 0.05130
#
# Static dielectric constant tensor:
#      x y z
#    x 1.866300 0.000000 0.017730 
#    y 0.000000 1.919560 0.000000 
#    z 0.017730 0.000000 1.991730 
# 
# From -- ./inp_files/55249.got.cif
#   From: 2010.05.17/outbox.cif.g08.bks.cpg/sg15_28_cif.got.tgz:55249.got - 2010.06.03 18:47:42.
