data_PCOD9305377
_publ_section_title
;
Structure prediction by ZEFSAII (Michael W. Deem and Ramdas Pophale) SiO2 
 PCOD9305377
Probable space group: C 2/C
;
_chemical_formula_sum "Si O2"
_cell_formula_units_Z 28
_cell_length_a 5.981855
_cell_length_b 16.975806
_cell_length_c 11.393575
_cell_angle_alpha 90.000000
_cell_angle_beta 98.867582
_cell_angle_gamma 90.000000
_cell_volume 1143.152081
_symmetry_space_group_name_H-M "C 2/C"
_symmetry_group_IT_number 15
_symmetry_cell_setting 'monoclinic'
loop_
_space_group_symop_operation_xyz
x,y,z
-x,y,1/2-z
-x,-y,-z
x,-y,1/2+z
1/2+x,1/2+y,z
1/2-x,1/2+y,1/2-z
1/2-x,1/2-y,-z
1/2+x,1/2-y,1/2+z
loop_
_atom_site_type_symbol
_atom_site_label
_atom_site_fract_x
_atom_site_fract_y
_atom_site_fract_z
Si Si1 0.939373 0.538555 0.370580
Si Si2 0.000000 0.975236 0.250000
Si Si3 0.466933 0.798153 0.564014
Si Si4 0.721755 0.838042 0.347646
O O1 0.668588 0.530798 0.337159
O O2 0.000000 0.498672 0.250000
O O3 0.000000 0.500000 0.500000
O O4 0.079291 0.619998 0.375682
O O5 0.875211 0.913303 0.328109
O O6 0.250000 0.750000 0.500000
O O7 0.622556 0.831739 0.470504
O O8 0.620586 0.738503 0.649080
O O9 0.500000 0.831083 0.250000
#
# Coordination Sequence:
#
# PCOD9305377 Si02
#       4
#     8   4   8   8
#     4  12  28  47  76 116 158 210 263 329 401 475
#     4  12  26  48  76 106 164 202 266 318 406 470
#     4  11  26  44  73 110 152 200 266 322 392 471
#     4  11  24  44  72 104 148 205 252 323 389 459
#
# _framework density 24.493679
#
# number of rings (size 3 to 8) (size 9 to 14) (size 15 to 20)
#    0.000    0.571    0.000    7.714    8.000    6.857 
#    0.000    0.000    0.000    0.000    0.000    0.000 
#    0.000    0.000    0.000    0.000    0.000    0.000 
#
# Total GULP energy -78152.224343 kJ/mol
# GULP energy per Si atom -5582.301739 kJ/mol
# Density = 2.443793 g / cm^3
# Si number density = 24.493679 Si / 1000 Ang^3
#
#
#
# Elastic Constant Matrix: (Units=GPa)
#
#
# Indices 1 2 3 4 5 6 
#
# 1 108.1317 46.1404 44.4940 0.0000 21.6383 0.0000
# 2 46.1404 157.6071 30.3199 0.0000 41.0834 0.0000
# 3 44.4940 30.3199 130.1286 0.0000 18.5160 0.0000
# 4 0.0000 0.0000 0.0000 12.0060 0.0000 17.2170
# 5 21.6383 41.0834 18.5160 0.0000 74.3811 0.0000
# 6 0.0000 0.0000 0.0000 17.2170 0.0000 39.4434
#
#
#
# Elastic Compliance Matrix: (Units=1/GPa)
#
#
# Indices 1 2 3 4 5 6 
#
# 1 0.011943 -0.002533 -0.003316 0.000000 -0.001250 0.000000
# 2 -0.002533 0.008130 -0.000512 0.000000 -0.003626 0.000000
# 3 -0.003316 -0.000512 0.009082 0.000000 -0.001013 0.000000
# 4 0.000000 0.000000 0.000000 0.222682 0.000000 -0.097201
# 5 -0.001250 -0.003626 -0.001013 0.000000 0.016063 0.000000
# 6 0.000000 0.000000 0.000000 -0.097201 0.000000 0.067781
#
#
# Mechanical properties :
#
#
# Convention : Reuss Voigt Hill
#
# Bulk Modulus (GPa) = 60.84989 70.86400 65.85695
# Shear Modulus (GPa) = 14.12905 43.49361 28.81133
#
# Velocity S-wave (km/s) = 2.40436 4.21849 3.43341
# Velocity P-wave (km/s) = 5.71008 7.26098 6.53172
#
# Compressibility (1/GPa) = 0.01643388
#
# Stress axis : x y z
#
# Youngs Moduli (GPa) = 83.72971 122.99847 110.10839
#
# Poissons Ratio (x) = 0.31152 0.36508
# Poissons Ratio (y) = 0.21206 0.05641
# Poissons Ratio (z) = 0.27762 0.06302
#
# Static dielectric constant tensor:
#      x y z
#    x 2.129690 0.000000 -0.229500 
#    y 0.000000 2.011090 0.000000 
#    z -0.229500 0.000000 2.267910 
# 
# From -- ./inp_files/71731.got.cif
#   From: 2010.05.17/outbox.cif.g08.bks.cpg/sg15_36_cif.got.tgz:71731.got - 2010.06.03 18:47:42.
