data_PCOD9305337
_publ_section_title
;
Structure prediction by ZEFSAII (Michael W. Deem and Ramdas Pophale) SiO2 
 PCOD9305337
Probable space group: C 2/C
;
_chemical_formula_sum "Si O2"
_cell_formula_units_Z 36
_cell_length_a 25.617641
_cell_length_b 7.910856
_cell_length_c 7.231951
_cell_angle_alpha 90.000000
_cell_angle_beta 106.486899
_cell_angle_gamma 90.000000
_cell_volume 1405.349866
_symmetry_space_group_name_H-M "C 2/C"
_symmetry_group_IT_number 15
_symmetry_cell_setting 'monoclinic'
loop_
_space_group_symop_operation_xyz
x,y,z
-x,y,1/2-z
-x,-y,-z
x,-y,1/2+z
1/2+x,1/2+y,z
1/2-x,1/2+y,1/2-z
1/2-x,1/2-y,-z
1/2+x,1/2-y,1/2+z
loop_
_atom_site_type_symbol
_atom_site_label
_atom_site_fract_x
_atom_site_fract_y
_atom_site_fract_z
Si Si1 0.690803 0.633960 0.124758
Si Si2 0.500000 0.312218 0.250000
Si Si3 0.925794 0.248654 0.384075
Si Si4 0.807467 0.249027 0.796082
Si Si5 0.925318 0.367881 0.979722
O O1 0.637637 0.704645 0.170961
O O2 0.748608 0.673002 0.278198
O O3 0.686242 0.433132 0.104863
O O4 0.690852 0.715926 0.922238
O O5 0.541558 0.381296 0.451019
O O6 0.543609 0.221880 0.156401
O O7 0.937923 0.433394 0.484113
O O8 0.940458 0.276037 0.185669
O O9 0.859986 0.358354 0.895758
#
# Coordination Sequence:
#
# PCOD9305337 Si02
#       5
#     8   4   8   8   8
#     4  11  24  44  70 101 138 174 220 278 341 406
#     4  12  24  44  66 100 136 182 230 284 314 408
#     4  12  24  41  70 100 137 178 227 278 334 392
#     4  11  24  44  70 101 138 174 220 278 341 406
#     4  12  24  41  70 100 137 178 227 278 334 392
#
# _framework density 25.616396000000002
#
# number of rings (size 3 to 8) (size 9 to 14) (size 15 to 20)
#    0.000    0.444    4.444    4.000    0.000    7.111 
#    0.000    1.111    0.000    0.000    0.000    0.000 
#    0.000    0.000    0.000    0.000    0.000    0.000 
#
# Total GULP energy -100794.192200 kJ/mol
# GULP energy per Si atom -5599.677344 kJ/mol
# Density = 2.555809 g / cm^3
# Si number density = 25.616396 Si / 1000 Ang^3
#
#
#
# Elastic Constant Matrix: (Units=GPa)
#
#
# Indices 1 2 3 4 5 6 
#
# 1 172.5421 18.8462 65.6026 0.0000 16.3104 0.0000
# 2 18.8462 64.5135 6.4348 0.0000 -9.8217 0.0000
# 3 65.6026 6.4348 171.7816 0.0000 -11.1970 0.0000
# 4 0.0000 0.0000 0.0000 4.5824 0.0000 -20.3851
# 5 16.3104 -9.8217 -11.1970 0.0000 56.2298 0.0000
# 6 0.0000 0.0000 0.0000 -20.3851 0.0000 31.7114
#
#
#
# Elastic Compliance Matrix: (Units=1/GPa)
#
#
# Indices 1 2 3 4 5 6 
#
# 1 0.007488 -0.002374 -0.002978 0.000000 -0.003180 0.000000
# 2 -0.002374 0.016707 0.000523 0.000000 0.003711 0.000000
# 3 -0.002978 0.000523 0.007093 0.000000 0.002368 0.000000
# 4 0.000000 0.000000 0.000000 -0.117346 0.000000 -0.075434
# 5 -0.003180 0.003711 0.002368 0.000000 0.019826 0.000000
# 6 0.000000 0.000000 0.000000 -0.075434 0.000000 -0.016957
#
#
# Mechanical properties :
#
#
# Convention : Reuss Voigt Hill
#
# Bulk Modulus (GPa) = 46.23361 65.62270 55.92815
# Shear Modulus (GPa) = -75.39307 39.70163 -17.84572
#
# Velocity S-wave (km/s) = -5.43097 3.94109 -2.64228
# Velocity P-wave (km/s) = 4.60865 6.81048 3.54563
#
# Compressibility (1/GPa) = 0.02162929
#
# Stress axis : x y z
#
# Youngs Moduli (GPa) = 133.54974 59.85478 140.97767
#
# Poissons Ratio (x) = 0.14212 0.41982
# Poissons Ratio (y) = 0.31711 -0.07371
# Poissons Ratio (z) = 0.39770 -0.03130
#
# Static dielectric constant tensor:
#      x y z
#    x 1.979740 0.000000 0.028230 
#    y 0.000000 2.024520 0.000000 
#    z 0.028230 0.000000 2.027610 
# 
# From -- ./inp_files/60130.got.cif
#   From: 2010.05.17/outbox.cif.g08.bks.cpg/sg15_31_cif.got.tgz:60130.got - 2010.06.03 18:47:42.
