data_PCOD9305566
_publ_section_title
;
Structure prediction by ZEFSAII (Michael W. Deem and Ramdas Pophale) SiO2 
 PCOD9305566
Probable space group: C 2/C
;
_chemical_formula_sum "Si O2"
_cell_formula_units_Z 24
_cell_length_a 11.082528
_cell_length_b 15.421465
_cell_length_c 5.186384
_cell_angle_alpha 90.000000
_cell_angle_beta 77.697383
_cell_angle_gamma 90.000000
_cell_volume 866.043357
_symmetry_space_group_name_H-M "C 2/C"
_symmetry_group_IT_number 15
_symmetry_cell_setting 'monoclinic'
loop_
_space_group_symop_operation_xyz
x,y,z
-x,y,1/2-z
-x,-y,-z
x,-y,1/2+z
1/2+x,1/2+y,z
1/2-x,1/2+y,1/2-z
1/2-x,1/2-y,-z
1/2+x,1/2-y,1/2+z
loop_
_atom_site_type_symbol
_atom_site_label
_atom_site_fract_x
_atom_site_fract_y
_atom_site_fract_z
Si Si1 0.415047 0.597652 0.534065
Si Si2 0.644774 0.223083 0.262316
Si Si3 0.841248 0.538857 0.960112
O O1 0.500000 0.591707 0.750000
O O2 0.354356 0.693314 0.554409
O O3 0.303260 0.530766 0.554202
O O4 0.500000 0.591400 0.250000
O O5 0.500000 0.223489 0.250000
O O6 0.654699 0.128460 0.385086
O O7 0.750000 0.250000 0.000000
O O8 0.890864 0.467457 0.143129
#
# Coordination Sequence:
#
# PCOD9305566 Si02
#       3
#     8   8   8
#     4  11  24  45  75 105 141 197 257 307 357 429
#     4  11  25  50  80 108 145 196 254 306 361 439
#     4  12  26  43  68 108 152 191 237 302 376 442
#
# _framework density 27.712240000000001
#
# number of rings (size 3 to 8) (size 9 to 14) (size 15 to 20)
#    0.000    0.667    0.000    9.000    0.000   10.667 
#    0.000    1.667    0.000    0.000    0.000    0.000 
#    0.000    0.000    0.000    0.000    0.000    0.000 
#
# Total GULP energy -67083.042412 kJ/mol
# GULP energy per Si atom -5590.253534 kJ/mol
# Density = 2.764917 g / cm^3
# Si number density = 27.712240 Si / 1000 Ang^3
#
#
#
# Elastic Constant Matrix: (Units=GPa)
#
#
# Indices 1 2 3 4 5 6 
#
# 1 133.6385 16.7662 64.4284 0.0000 -8.1447 0.0000
# 2 16.7662 143.9193 50.2395 0.0000 11.0022 0.0000
# 3 64.4284 50.2395 214.1909 0.0000 2.7005 0.0000
# 4 0.0000 0.0000 0.0000 104.1534 0.0000 10.5922
# 5 -8.1447 11.0022 2.7005 0.0000 71.9313 0.0000
# 6 0.0000 0.0000 0.0000 10.5922 0.0000 57.8950
#
#
#
# Elastic Compliance Matrix: (Units=1/GPa)
#
#
# Indices 1 2 3 4 5 6 
#
# 1 0.008844 -0.000199 -0.002628 0.000000 0.001131 0.000000
# 2 -0.000199 0.007659 -0.001722 0.000000 -0.001129 0.000000
# 3 -0.002628 -0.001722 0.005866 0.000000 -0.000254 0.000000
# 4 0.000000 0.000000 0.000000 0.009783 0.000000 -0.001790
# 5 0.001131 -0.001129 -0.000254 0.000000 0.014212 0.000000
# 6 0.000000 0.000000 0.000000 -0.001790 0.000000 0.017600
#
#
# Mechanical properties :
#
#
# Convention : Reuss Voigt Hill
#
# Bulk Modulus (GPa) = 75.35569 83.84632 79.60101
# Shear Modulus (GPa) = 64.52704 70.81691 67.67198
#
# Velocity S-wave (km/s) = 4.83065 5.06062 4.94697
# Velocity P-wave (km/s) = 7.63969 8.02921 7.83687
#
# Compressibility (1/GPa) = 0.01327040
#
# Stress axis : x y z
#
# Youngs Moduli (GPa) = 113.07622 130.56329 170.46556
#
# Poissons Ratio (x) = 0.02604 0.44792
# Poissons Ratio (y) = 0.02255 0.29359
# Poissons Ratio (z) = 0.29712 0.22486
#
# Static dielectric constant tensor:
#      x y z
#    x 2.926510 0.000000 0.039110 
#    y 0.000000 2.240780 0.000000 
#    z 0.039110 0.000000 2.245920 
# 
# From -- ./inp_files/3261.got.cif
#   From: 2010.05.17/outbox.cif.g08.bks.cpg/sg15_2_cif.got.tgz:3261.got - 2010.06.03 18:47:42.
