data_PCOD9305419
_publ_section_title
;
Structure prediction by ZEFSAII (Michael W. Deem and Ramdas Pophale) SiO2 
 PCOD9305419
Probable space group: C 2/C
;
_chemical_formula_sum "Si O2"
_cell_formula_units_Z 40
_cell_length_a 9.694812
_cell_length_b 15.282884
_cell_length_c 12.607310
_cell_angle_alpha 90.000000
_cell_angle_beta 63.822221
_cell_angle_gamma 90.000000
_cell_volume 1676.360800
_symmetry_space_group_name_H-M "C 2/C"
_symmetry_group_IT_number 15
_symmetry_cell_setting 'monoclinic'
loop_
_space_group_symop_operation_xyz
x,y,z
-x,y,1/2-z
-x,-y,-z
x,-y,1/2+z
1/2+x,1/2+y,z
1/2-x,1/2+y,1/2-z
1/2-x,1/2-y,-z
1/2+x,1/2-y,1/2+z
loop_
_atom_site_type_symbol
_atom_site_label
_atom_site_fract_x
_atom_site_fract_y
_atom_site_fract_z
Si Si1 0.822612 0.363621 0.775456
Si Si2 0.349623 0.295216 0.110752
Si Si3 0.963626 0.690573 0.872672
Si Si4 0.151105 0.527844 0.883188
Si Si5 0.595933 0.426721 0.031693
O O1 0.798845 0.277911 0.711949
O O2 0.807236 0.451387 0.711640
O O3 0.707334 0.374577 0.912421
O O4 0.000000 0.360353 0.750000
O O5 0.442479 0.245393 0.985666
O O6 0.465839 0.363138 0.121965
O O7 0.209571 0.342229 0.095739
O O8 0.000000 0.739760 0.750000
O O9 0.090180 0.615848 0.846881
O O10 0.291890 0.540242 0.914899
O O11 0.000000 0.500000 0.000000
O O12 0.500000 0.500000 0.000000
#
# Coordination Sequence:
#
# PCOD9305419 Si02
#       5
#     8   8   8   8   8
#     4  12  26  49  80 107 153 201 248 308 381 443
#     4  11  26  47  74 112 146 191 251 313 368 446
#     4  11  24  44  75 102 147 194 242 296 382 443
#     4  12  24  47  75 105 147 203 244 300 375 456
#     4  12  29  50  75 115 154 192 259 317 369 447
#
# _framework density 23.861211000000001
#
# number of rings (size 3 to 8) (size 9 to 14) (size 15 to 20)
#    0.000    0.400    4.000    3.000    5.600    5.600 
#    0.000    0.000    0.000    0.000    0.000    0.000 
#    0.000    0.000    0.000    0.000    0.000    0.000 
#
# Total GULP energy -111989.241362 kJ/mol
# GULP energy per Si atom -5599.462068 kJ/mol
# Density = 2.380690 g / cm^3
# Si number density = 23.861211 Si / 1000 Ang^3
#
#
#
# Elastic Constant Matrix: (Units=GPa)
#
#
# Indices 1 2 3 4 5 6 
#
# 1 242.3674 91.3263 11.5132 0.0000 -2.3013 0.0000
# 2 91.3263 80.1536 15.7107 0.0000 5.0259 0.0000
# 3 11.5132 15.7107 46.6845 0.0000 7.5535 0.0000
# 4 0.0000 0.0000 0.0000 -194.6275 0.0000 -70.5319
# 5 -2.3013 5.0259 7.5535 0.0000 35.4262 0.0000
# 6 0.0000 0.0000 0.0000 -70.5319 0.0000 23.9290
#
#
#
# Elastic Compliance Matrix: (Units=1/GPa)
#
#
# Indices 1 2 3 4 5 6 
#
# 1 0.007358 -0.008645 0.000848 0.000000 0.001524 0.000000
# 2 -0.008645 0.023547 -0.005345 0.000000 -0.002762 0.000000
# 3 0.000848 -0.005345 0.023696 0.000000 -0.004239 0.000000
# 4 0.000000 0.000000 0.000000 -0.002484 0.000000 -0.007323
# 5 0.001524 -0.002762 -0.004239 0.000000 0.029622 0.000000
# 6 0.000000 0.000000 0.000000 -0.007323 0.000000 0.020206
#
#
# Mechanical properties :
#
#
# Convention : Reuss Voigt Hill
#
# Bulk Modulus (GPa) = 35.31512 67.36732 51.34122
# Shear Modulus (GPa) = 36.31921 -10.34410 12.98756
#
# Velocity S-wave (km/s) = 3.90565 -2.08435 2.33555
# Velocity P-wave (km/s) = 5.93052 4.74358 5.36995
#
# Compressibility (1/GPa) = 0.02831648
#
# Stress axis : x y z
#
# Youngs Moduli (GPa) = 135.91234 42.46805 42.20136
#
# Poissons Ratio (x) = 0.36714 -0.03580
# Poissons Ratio (y) = 1.17497 0.22558
# Poissons Ratio (z) = -0.11529 0.22701
#
# Static dielectric constant tensor:
#      x y z
#    x 1.900850 0.000000 -0.046090 
#    y 0.000000 1.937410 0.000000 
#    z -0.046090 0.000000 1.756960 
# 
# From -- ./inp_files/134197.got.cif
#   From: 2010.05.17/outbox.cif.g08.bks.cpg/sg15_68_cif.got.tgz:134197.got - 2010.06.03 18:47:42.
