data_PCOD9305859
_publ_section_title
;
Structure prediction by ZEFSAII (Michael W. Deem and Ramdas Pophale) SiO2 
 PCOD9305859
Probable space group: C 2/C
;
_chemical_formula_sum "Si O2"
_cell_formula_units_Z 40
_cell_length_a 7.525264
_cell_length_b 18.956098
_cell_length_c 14.123209
_cell_angle_alpha 90.000000
_cell_angle_beta 70.922570
_cell_angle_gamma 90.000000
_cell_volume 1904.020431
_symmetry_space_group_name_H-M "C 2/C"
_symmetry_group_IT_number 15
_symmetry_cell_setting 'monoclinic'
loop_
_space_group_symop_operation_xyz
x,y,z
-x,y,1/2-z
-x,-y,-z
x,-y,1/2+z
1/2+x,1/2+y,z
1/2-x,1/2+y,1/2-z
1/2-x,1/2-y,-z
1/2+x,1/2-y,1/2+z
loop_
_atom_site_type_symbol
_atom_site_label
_atom_site_fract_x
_atom_site_fract_y
_atom_site_fract_z
Si Si1 0.000000 0.870483 0.750000
Si Si2 0.500000 0.302160 0.250000
Si Si3 0.845206 0.693625 0.415170
Si Si4 0.289054 0.942456 0.822163
Si Si5 0.266696 0.175339 0.044247
Si Si6 0.790077 0.608759 0.834462
O O1 0.162697 0.920088 0.757698
O O2 0.089631 0.831057 0.645393
O O3 0.362080 0.244469 0.321433
O O4 0.372107 0.349386 0.199094
O O5 0.750000 0.750000 0.500000
O O6 0.753757 0.617434 0.408651
O O7 0.047072 0.674094 0.424238
O O8 0.500000 0.932290 0.750000
O O9 0.256671 0.024660 0.843582
O O10 0.250000 0.250000 0.000000
O O11 0.282667 0.127609 0.947527
O O12 0.000000 0.621272 0.750000
#
# Coordination Sequence:
#
# PCOD9305859 Si02
#       6
#     4   4   8   8   8   8
#     4  12  25  46  72  99 152 184 242 296 361 444
#     4  12  23  48  70 105 144 184 246 294 367 432
#     4  12  24  45  73 102 143 188 244 303 361 432
#     4  11  24  48  69 104 146 192 237 303 369 432
#     4  12  25  44  73 109 140 195 240 303 367 431
#     4  11  27  47  73 106 148 188 249 304 365 437
#
# _framework density 21.008177
#
# number of rings (size 3 to 8) (size 9 to 14) (size 15 to 20)
#    0.000    0.400    5.000    3.000    1.400    1.600 
#    3.600    0.000    0.000    0.000    0.000    0.000 
#    0.000    0.000    0.000    0.000    0.000    0.000 
#
# Total GULP energy -111461.585688 kJ/mol
# GULP energy per Si atom -5573.079284 kJ/mol
# Density = 2.096036 g / cm^3
# Si number density = 21.008177 Si / 1000 Ang^3
#
#
#
# Elastic Constant Matrix: (Units=GPa)
#
#
# Indices 1 2 3 4 5 6 
#
# 1 99.3596 29.3334 17.4384 0.0000 22.1604 0.0000
# 2 29.3334 152.9641 66.6854 0.0000 8.7360 0.0000
# 3 17.4384 66.6854 121.0460 0.0000 -13.6631 0.0000
# 4 0.0000 0.0000 0.0000 59.2513 0.0000 10.0950
# 5 22.1604 8.7360 -13.6631 0.0000 41.7352 0.0000
# 6 0.0000 0.0000 0.0000 10.0950 0.0000 0.7848
#
#
#
# Elastic Compliance Matrix: (Units=1/GPa)
#
#
# Indices 1 2 3 4 5 6 
#
# 1 0.012276 -0.001116 -0.001935 0.000000 -0.006918 0.000000
# 2 -0.001116 0.009222 -0.005265 0.000000 -0.003062 0.000000
# 3 -0.001935 -0.005265 0.012129 0.000000 0.006100 0.000000
# 4 0.000000 0.000000 0.000000 -0.014162 0.000000 0.182183
# 5 -0.006918 -0.003062 0.006100 0.000000 0.030272 0.000000
# 6 0.000000 0.000000 0.000000 0.182183 0.000000 -1.069304
#
#
# Mechanical properties :
#
#
# Convention : Reuss Voigt Hill
#
# Bulk Modulus (GPa) = 58.83722 66.69823 62.76773
# Shear Modulus (GPa) = -5.01369 37.68174 16.33402
#
# Velocity S-wave (km/s) = -1.54652 4.23977 2.79141
# Velocity P-wave (km/s) = 4.98785 7.46895 6.35074
#
# Compressibility (1/GPa) = 0.01699604
#
# Stress axis : x y z
#
# Youngs Moduli (GPa) = 81.45694 108.44072 82.44512
#
# Poissons Ratio (x) = 0.12097 0.15953
# Poissons Ratio (y) = 0.09087 0.43409
# Poissons Ratio (z) = 0.15762 0.57096
#
# Static dielectric constant tensor:
#      x y z
#    x 1.735840 0.000000 0.063600 
#    y 0.000000 1.732990 0.000000 
#    z 0.063600 0.000000 1.289520 
# 
# From -- ./inp_files/76747.got.cif
#   From: 2010.05.17/outbox.cif.g08.bks.cpg/sg15_39_cif.got.tgz:76747.got - 2010.06.03 18:47:42.
