data_PCOD9305854
_publ_section_title
;
Structure prediction by ZEFSAII (Michael W. Deem and Ramdas Pophale) SiO2 
 PCOD9305854
Probable space group: C 2/C
;
_chemical_formula_sum "Si O2"
_cell_formula_units_Z 44
_cell_length_a 22.387102
_cell_length_b 5.754486
_cell_length_c 14.717232
_cell_angle_alpha 90.000000
_cell_angle_beta 100.052169
_cell_angle_gamma 90.000000
_cell_volume 1866.861500
_symmetry_space_group_name_H-M "C 2/C"
_symmetry_group_IT_number 15
_symmetry_cell_setting 'monoclinic'
loop_
_space_group_symop_operation_xyz
x,y,z
-x,y,1/2-z
-x,-y,-z
x,-y,1/2+z
1/2+x,1/2+y,z
1/2-x,1/2+y,1/2-z
1/2-x,1/2-y,-z
1/2+x,1/2-y,1/2+z
loop_
_atom_site_type_symbol
_atom_site_label
_atom_site_fract_x
_atom_site_fract_y
_atom_site_fract_z
Si Si1 0.500000 0.473482 0.750000
Si Si2 0.809123 0.878908 0.978435
Si Si3 0.219574 0.015827 0.221894
Si Si4 0.372158 0.323167 0.652455
Si Si5 0.478771 0.298992 0.426260
Si Si6 0.399998 0.012475 0.019497
O O1 0.444381 0.342551 0.687335
O O2 0.531066 0.617769 0.678055
O O3 0.791938 0.032066 0.887551
O O4 0.750000 0.750000 0.000000
O O5 0.856983 0.688805 0.956525
O O6 0.844244 0.007257 0.068725
O O7 0.259650 0.259500 0.235349
O O8 0.162804 0.108176 0.266098
O O9 0.365844 0.074593 0.601053
O O10 0.500000 0.500000 0.500000
O O11 0.420032 0.188443 0.456292
O O12 0.536047 0.126416 0.436827
#
# Coordination Sequence:
#
# PCOD9305854 Si02
#       6
#     4   8   8   8   8   8
#     4  12  26  46  74 108 156 196 260 322 382 474
#     4  12  26  51  76 109 157 200 256 332 393 465
#     4  12  30  52  81 117 155 208 268 326 397 478
#     4  12  28  47  75 115 155 201 261 321 396 467
#     4  11  24  48  67 108 152 196 255 317 386 463
#     4  11  25  45  77 103 151 203 250 320 402 454
#
# _framework density 23.56897
#
# number of rings (size 3 to 8) (size 9 to 14) (size 15 to 20)
#    0.000    0.364    5.455    1.091    7.636    3.636 
#    0.000    0.000    0.000    0.000    0.000    0.000 
#    0.000    0.000    0.000    0.000    0.000    0.000 
#
# Total GULP energy -122943.596679 kJ/mol
# GULP energy per Si atom -5588.345304 kJ/mol
# Density = 2.351533 g / cm^3
# Si number density = 23.568970 Si / 1000 Ang^3
#
#
#
# Elastic Constant Matrix: (Units=GPa)
#
#
# Indices 1 2 3 4 5 6 
#
# 1 92.7702 10.8916 12.6418 0.0000 2.9840 0.0000
# 2 10.8916 60.4504 12.6795 0.0000 7.2900 0.0000
# 3 12.6418 12.6795 129.8109 0.0000 -1.6740 0.0000
# 4 0.0000 0.0000 0.0000 17.9377 0.0000 -38.7153
# 5 2.9840 7.2900 -1.6740 0.0000 38.5917 0.0000
# 6 0.0000 0.0000 0.0000 -38.7153 0.0000 -34.1647
#
#
#
# Elastic Compliance Matrix: (Units=1/GPa)
#
#
# Indices 1 2 3 4 5 6 
#
# 1 0.011128 -0.001743 -0.000921 0.000000 -0.000571 0.000000
# 2 -0.001743 0.017583 -0.001590 0.000000 -0.003256 0.000000
# 3 -0.000921 -0.001590 0.007958 0.000000 0.000717 0.000000
# 4 0.000000 0.000000 0.000000 0.016179 0.000000 -0.018334
# 5 -0.000571 -0.003256 0.000717 0.000000 0.026603 0.000000
# 6 0.000000 0.000000 0.000000 -0.018334 0.000000 -0.008494
#
#
# Mechanical properties :
#
#
# Convention : Reuss Voigt Hill
#
# Bulk Modulus (GPa) = 35.50975 39.49525 37.50250
# Shear Modulus (GPa) = 56.27540 20.92751 38.60145
#
# Velocity S-wave (km/s) = 4.89170 2.98304 4.05137
# Velocity P-wave (km/s) = 6.85595 5.35335 6.15071
#
# Compressibility (1/GPa) = 0.02816128
#
# Stress axis : x y z
#
# Youngs Moduli (GPa) = 89.86504 56.87453 125.66442
#
# Poissons Ratio (x) = 0.09913 0.11571
# Poissons Ratio (y) = 0.15663 0.19976
# Poissons Ratio (z) = 0.08275 0.09041
#
# Static dielectric constant tensor:
#      x y z
#    x 1.937010 0.000000 0.093380 
#    y 0.000000 1.971880 0.000000 
#    z 0.093380 0.000000 2.007590 
# 
# From -- ./inp_files/170854.got.cif
#   From: 2010.05.17/outbox.cif.g08.bks.cpg/sg15_86_cif.got.tgz:170854.got - 2010.06.03 18:47:42.
