data_PCOD9305694
_publ_section_title
;
Structure prediction by ZEFSAII (Michael W. Deem and Ramdas Pophale) SiO2 
 PCOD9305694
Probable space group: C 2/C
;
_chemical_formula_sum "Si O2"
_cell_formula_units_Z 40
_cell_length_a 14.835680
_cell_length_b 9.664272
_cell_length_c 10.272211
_cell_angle_alpha 90.000000
_cell_angle_beta 90.000018
_cell_angle_gamma 90.000000
_cell_volume 1472.789005
_symmetry_space_group_name_H-M "C 2/C"
_symmetry_group_IT_number 15
_symmetry_cell_setting 'monoclinic'
loop_
_space_group_symop_operation_xyz
x,y,z
-x,y,1/2-z
-x,-y,-z
x,-y,1/2+z
1/2+x,1/2+y,z
1/2-x,1/2+y,1/2-z
1/2-x,1/2-y,-z
1/2+x,1/2-y,1/2+z
loop_
_atom_site_type_symbol
_atom_site_label
_atom_site_fract_x
_atom_site_fract_y
_atom_site_fract_z
Si Si1 0.819481 0.879405 0.824527
Si Si2 0.698052 0.422896 1.000000
Si Si3 0.500000 0.225800 0.250000
Si Si4 0.500000 0.225800 0.750000
Si Si5 0.319481 0.379405 0.175473
Si Si6 0.592195 0.166503 0.000000
O O1 0.920463 0.819500 0.809850
O O2 0.750000 0.750000 0.815162
O O3 0.814058 0.902460 0.000000
O O4 0.805986 0.056254 0.836291
O O5 0.606421 0.331035 0.000000
O O6 0.694014 0.443746 0.836291
O O7 0.805002 0.382089 1.000000
O O8 0.420463 0.319500 0.190150
O O9 0.542509 0.136527 0.133468
O O10 0.457490 0.136527 0.633468
#
# Coordination Sequence:
#
# PCOD9305694 Si02
#       6
#     8   8   4   4   8   8
#     4  12  25  44  72 110 154 204 261 324 385 465
#     4  11  24  46  74 106 162 202 260 324 403 454
#     4  12  25  46  79 118 149 210 265 324 383 474
#     4  12  25  46  79 118 149 210 265 324 383 474
#     4  12  25  44  72 110 154 204 261 324 385 465
#     4  11  25  46  77 118 156 203 260 334 387 468
#
# _framework density 27.159358000000001
#
# number of rings (size 3 to 8) (size 9 to 14) (size 15 to 20)
#    0.000    0.400    4.000    4.800    0.000    1.600 
#    0.000   11.000    0.000    0.000    0.000    0.000 
#    0.000    0.000    0.000    0.000    0.000    0.000 
#
# Total GULP energy -111685.301543 kJ/mol
# GULP energy per Si atom -5584.265077 kJ/mol
# Density = 2.709754 g / cm^3
# Si number density = 27.159358 Si / 1000 Ang^3
#
#
#
# Elastic Constant Matrix: (Units=GPa)
#
#
# Indices 1 2 3 4 5 6 
#
# 1 216.8472 64.9860 61.6404 0.0000 0.8842 0.0000
# 2 64.9860 115.3960 37.5286 0.0000 2.5996 0.0000
# 3 61.6404 37.5286 269.2654 0.0000 -5.8479 0.0000
# 4 0.0000 0.0000 0.0000 36.3425 0.0000 -2.7893
# 5 0.8842 2.5996 -5.8479 0.0000 73.5699 0.0000
# 6 0.0000 0.0000 0.0000 -2.7893 0.0000 6.8842
#
#
#
# Elastic Compliance Matrix: (Units=1/GPa)
#
#
# Indices 1 2 3 4 5 6 
#
# 1 0.005752 -0.002943 -0.000907 0.000000 -0.000037 0.000000
# 2 -0.002943 0.010596 -0.000812 0.000000 -0.000404 0.000000
# 3 -0.000907 -0.000812 0.004042 0.000000 0.000361 0.000000
# 4 0.000000 0.000000 0.000000 0.028399 0.000000 0.011506
# 5 -0.000037 -0.000404 0.000361 0.000000 0.013636 0.000000
# 6 0.000000 0.000000 0.000000 0.011506 0.000000 0.149922
#
#
# Mechanical properties :
#
#
# Convention : Reuss Voigt Hill
#
# Bulk Modulus (GPa) = 90.36781 103.31318 96.84050
# Shear Modulus (GPa) = 22.18669 52.51625 37.35147
#
# Velocity S-wave (km/s) = 2.86126 4.40208 3.71249
# Velocity P-wave (km/s) = 6.65291 7.99750 7.35599
#
# Compressibility (1/GPa) = 0.01106589
#
# Stress axis : x y z
#
# Youngs Moduli (GPa) = 173.86420 94.37165 247.37205
#
# Poissons Ratio (x) = 0.27775 0.22443
# Poissons Ratio (y) = 0.51171 0.20084
# Poissons Ratio (z) = 0.15774 0.07662
#
# Static dielectric constant tensor:
#      x y z
#    x 1.882050 0.000000 -0.066640 
#    y 0.000000 2.564380 0.000000 
#    z -0.066640 0.000000 2.585840 
# 
# From -- ./inp_files/94708.got.cif
#   From: 2010.05.17/outbox.cif.g08.bks.cpg/sg15_48_cif.got.tgz:94708.got - 2010.06.03 18:47:42.
