data_PCOD9305662
_publ_section_title
;
Structure prediction by ZEFSAII (Michael W. Deem and Ramdas Pophale) SiO2 
 PCOD9305662
Probable space group: C 2/C
;
_chemical_formula_sum "Si O2"
_cell_formula_units_Z 56
_cell_length_a 18.438167
_cell_length_b 14.902949
_cell_length_c 9.757778
_cell_angle_alpha 90.000000
_cell_angle_beta 59.168308
_cell_angle_gamma 90.000000
_cell_volume 2302.345467
_symmetry_space_group_name_H-M "C 2/C"
_symmetry_group_IT_number 15
_symmetry_cell_setting 'monoclinic'
loop_
_space_group_symop_operation_xyz
x,y,z
-x,y,1/2-z
-x,-y,-z
x,-y,1/2+z
1/2+x,1/2+y,z
1/2-x,1/2+y,1/2-z
1/2-x,1/2-y,-z
1/2+x,1/2-y,1/2+z
loop_
_atom_site_type_symbol
_atom_site_label
_atom_site_fract_x
_atom_site_fract_y
_atom_site_fract_z
Si Si1 0.702469 0.811432 0.695992
Si Si2 0.828219 0.635505 0.964839
Si Si3 0.697243 0.511283 0.489256
Si Si4 0.425155 0.723582 0.211337
Si Si5 0.945030 0.480135 0.920989
Si Si6 0.366304 0.194760 0.509892
Si Si7 0.411347 0.486003 0.663248
O O1 0.676092 0.833133 0.874508
O O2 0.745235 0.901667 0.592373
O O3 0.775329 0.737040 0.631415
O O4 0.630165 0.786711 0.656639
O O5 0.750982 0.572143 0.994779
O O6 0.907660 0.567922 0.886590
O O7 0.847754 0.719963 0.850395
O O8 0.618880 0.532808 0.667179
O O9 0.658459 0.487980 0.380328
O O10 0.500000 0.733407 0.250000
O O11 0.434149 0.763164 0.048983
O O12 0.408554 0.619143 0.204514
O O13 0.000000 0.433557 0.750000
O O14 0.871812 0.411271 0.032120
O O15 0.000000 0.500000 0.000000
O O16 0.500000 0.500000 0.500000
#
# Coordination Sequence:
#
# PCOD9305662 Si02
#       7
#     8   8   8   8   8   8   8
#     4  11  25  47  71 116 147 197 258 329 391 453
#     4  12  26  47  78 110 157 200 265 321 395 472
#     4  12  24  49  78 110 150 203 261 325 389 466
#     4  12  27  51  73 117 158 211 261 322 394 472
#     4  12  25  43  70 105 150 203 244 306 385 463
#     4  11  24  46  72 107 156 189 261 320 382 464
#     4  12  28  53  78 112 155 207 267 326 405 475
#
# _framework density 24.323021000000001
#
# number of rings (size 3 to 8) (size 9 to 14) (size 15 to 20)
#    0.000    0.286    4.286    4.286    4.000    2.286 
#   10.286    0.000    0.000    0.000    0.000    0.000 
#    0.000    0.000    0.000    0.000    0.000    0.000 
#
# Total GULP energy -156716.139205 kJ/mol
# GULP energy per Si atom -5597.004972 kJ/mol
# Density = 2.426766 g / cm^3
# Si number density = 24.323021 Si / 1000 Ang^3
#
#
#
# Elastic Constant Matrix: (Units=GPa)
#
#
# Indices 1 2 3 4 5 6 
#
# 1 126.8142 33.1483 46.2852 0.0000 37.5270 0.0000
# 2 33.1483 97.1328 53.2796 0.0000 -3.6386 0.0000
# 3 46.2852 53.2796 125.7050 0.0000 17.6904 0.0000
# 4 0.0000 0.0000 0.0000 37.4125 0.0000 3.4484
# 5 37.5270 -3.6386 17.6904 0.0000 56.1361 0.0000
# 6 0.0000 0.0000 0.0000 3.4484 0.0000 29.2608
#
#
#
# Elastic Compliance Matrix: (Units=1/GPa)
#
#
# Indices 1 2 3 4 5 6 
#
# 1 0.011584 -0.003202 -0.001872 0.000000 -0.007362 0.000000
# 2 -0.003202 0.014728 -0.005754 0.000000 0.004909 0.000000
# 3 -0.001872 -0.005754 0.011468 0.000000 -0.002736 0.000000
# 4 0.000000 0.000000 0.000000 0.027023 0.000000 -0.003185
# 5 -0.007362 0.004909 -0.002736 0.000000 0.023915 0.000000
# 6 0.000000 0.000000 0.000000 -0.003185 0.000000 0.034551
#
#
# Mechanical properties :
#
#
# Convention : Reuss Voigt Hill
#
# Bulk Modulus (GPa) = 62.02038 68.34201 65.18119
# Shear Modulus (GPa) = 33.26648 39.02448 36.14548
#
# Velocity S-wave (km/s) = 3.70225 4.00987 3.85913
# Velocity P-wave (km/s) = 6.62039 7.04255 6.83473
#
# Compressibility (1/GPa) = 0.01612373
#
# Stress axis : x y z
#
# Youngs Moduli (GPa) = 86.32298 67.89697 87.19654
#
# Poissons Ratio (x) = 0.21742 0.16325
# Poissons Ratio (y) = 0.27643 0.50175
# Poissons Ratio (z) = 0.16161 0.39069
#
# Static dielectric constant tensor:
#      x y z
#    x 1.959080 0.000000 -0.019580 
#    y 0.000000 1.914860 0.000000 
#    z -0.019580 0.000000 1.940530 
# 
# From -- ./inp_files/49017.got.cif
#   From: 2010.05.17/outbox.cif.g08.bks.cpg/sg15_25_cif.got.tgz:49017.got - 2010.06.03 18:47:42.
