data_PCOD9305496
_publ_section_title
;
Structure prediction by ZEFSAII (Michael W. Deem and Ramdas Pophale) SiO2 
 PCOD9305496
Probable space group: C 2/C
;
_chemical_formula_sum "Si O2"
_cell_formula_units_Z 48
_cell_length_a 5.657595
_cell_length_b 22.511110
_cell_length_c 21.307796
_cell_angle_alpha 90.000000
_cell_angle_beta 127.799390
_cell_angle_gamma 90.000000
_cell_volume 2144.288327
_symmetry_space_group_name_H-M "C 2/C"
_symmetry_group_IT_number 15
_symmetry_cell_setting 'monoclinic'
loop_
_space_group_symop_operation_xyz
x,y,z
-x,y,1/2-z
-x,-y,-z
x,-y,1/2+z
1/2+x,1/2+y,z
1/2-x,1/2+y,1/2-z
1/2-x,1/2-y,-z
1/2+x,1/2-y,1/2+z
loop_
_atom_site_type_symbol
_atom_site_label
_atom_site_fract_x
_atom_site_fract_y
_atom_site_fract_z
Si Si1 0.687322 0.049048 0.334640
Si Si2 0.013266 0.839711 0.827209
Si Si3 0.859621 0.926807 0.401233
Si Si4 0.074941 0.247654 0.084433
Si Si5 0.714279 0.625775 0.842923
Si Si6 0.638853 0.134941 0.434177
O O1 0.500000 0.016004 0.250000
O O2 0.534619 0.088194 0.363687
O O3 0.841728 0.101038 0.319614
O O4 0.865743 0.998325 0.400129
O O5 0.907065 0.779043 0.842121
O O6 0.327093 0.850341 0.914981
O O7 0.000000 0.832988 0.750000
O O8 0.523741 0.905248 0.367500
O O9 0.003629 0.910032 0.357184
O O10 0.091805 0.895717 0.486237
O O11 0.200571 0.313647 0.107584
O O12 0.257177 0.197979 0.075976
O O13 0.750000 0.250000 0.000000
O O14 0.500000 0.639178 0.750000
#
# Coordination Sequence:
#
# PCOD9305496 Si02
#       6
#     8   8   8   8   8   8
#     4  11  24  45  70 104 142 185 238 301 360 430
#     4  11  25  42  74 106 140 189 245 300 362 427
#     4  12  28  48  75 105 147 190 242 295 365 431
#     4  11  25  46  70 102 147 188 243 302 362 427
#     4  12  28  47  72 108 145 194 240 294 362 435
#     4  11  25  45  72 104 139 189 241 299 359 428
#
# _framework density 22.385048000000001
#
# number of rings (size 3 to 8) (size 9 to 14) (size 15 to 20)
#    0.000    0.667    3.333    3.000    9.333    2.667 
#    0.000    0.000    0.000    0.000    0.000    0.000 
#    0.000    0.000    0.000    0.000    0.000    0.000 
#
# Total GULP energy -133840.166360 kJ/mol
# GULP energy per Si atom -5576.673598 kJ/mol
# Density = 2.233410 g / cm^3
# Si number density = 22.385048 Si / 1000 Ang^3
#
#
#
# Elastic Constant Matrix: (Units=GPa)
#
#
# Indices 1 2 3 4 5 6 
#
# 1 65.2475 22.5823 21.3083 0.0000 2.2757 0.0000
# 2 22.5823 109.2669 2.3104 0.0000 -5.6548 0.0000
# 3 21.3083 2.3104 89.2720 0.0000 5.2923 0.0000
# 4 0.0000 0.0000 0.0000 39.0516 0.0000 7.4028
# 5 2.2757 -5.6548 5.2923 0.0000 29.2553 0.0000
# 6 0.0000 0.0000 0.0000 7.4028 0.0000 -38.3770
#
#
#
# Elastic Compliance Matrix: (Units=1/GPa)
#
#
# Indices 1 2 3 4 5 6 
#
# 1 0.018002 -0.003704 -0.004120 0.000000 -0.001371 0.000000
# 2 -0.003704 0.010017 0.000498 0.000000 0.002134 0.000000
# 3 -0.004120 0.000498 0.012279 0.000000 -0.001805 0.000000
# 4 0.000000 0.000000 0.000000 0.024704 0.000000 0.004765
# 5 -0.001371 0.002134 -0.001805 0.000000 0.035027 0.000000
# 6 0.000000 0.000000 0.000000 0.004765 0.000000 -0.025138
#
#
# Mechanical properties :
#
#
# Convention : Reuss Voigt Hill
#
# Bulk Modulus (GPa) = 38.99086 39.57648 39.28367
# Shear Modulus (GPa) = 50.97298 20.49167 35.73232
#
# Velocity S-wave (km/s) = 4.77707 3.02887 3.99965
# Velocity P-wave (km/s) = 6.91978 5.47269 6.23833
#
# Compressibility (1/GPa) = 0.02564704
#
# Stress axis : x y z
#
# Youngs Moduli (GPa) = 55.55091 99.82655 81.43909
#
# Poissons Ratio (x) = 0.36978 0.33550
# Poissons Ratio (y) = 0.20577 -0.04059
# Poissons Ratio (z) = 0.22885 -0.04975
#
# Static dielectric constant tensor:
#      x y z
#    x 1.378510 0.000000 0.250660 
#    y 0.000000 1.809220 0.000000 
#    z 0.250660 0.000000 1.813300 
# 
# From -- ./inp_files/185482.got.cif
#   From: 2010.05.17/outbox.cif.g08.bks.cpg/sg15_93_cif.got.tgz:185482.got - 2010.06.03 18:47:42.
