data_PCOD9305678
_publ_section_title
;
Structure prediction by ZEFSAII (Michael W. Deem and Ramdas Pophale) SiO2 
 PCOD9305678
Probable space group: C 2/C
;
_chemical_formula_sum "Si O2"
_cell_formula_units_Z 32
_cell_length_a 12.055835
_cell_length_b 18.647440
_cell_length_c 10.410645
_cell_angle_alpha 90.000000
_cell_angle_beta 147.268575
_cell_angle_gamma 90.000000
_cell_volume 1265.470287
_symmetry_space_group_name_H-M "C 2/C"
_symmetry_group_IT_number 15
_symmetry_cell_setting 'monoclinic'
loop_
_space_group_symop_operation_xyz
x,y,z
-x,y,1/2-z
-x,-y,-z
x,-y,1/2+z
1/2+x,1/2+y,z
1/2-x,1/2+y,1/2-z
1/2-x,1/2-y,-z
1/2+x,1/2-y,1/2+z
loop_
_atom_site_type_symbol
_atom_site_label
_atom_site_fract_x
_atom_site_fract_y
_atom_site_fract_z
Si Si1 0.638682 0.769926 0.786954
Si Si2 0.236124 0.587394 0.273101
Si Si3 0.066955 0.184795 0.450282
Si Si4 0.358346 0.943908 0.227835
O O1 0.380416 0.759870 0.559927
O O2 0.691171 0.854408 0.836973
O O3 0.628992 0.736527 0.628955
O O4 0.396404 0.628798 0.339018
O O5 0.292213 0.508918 0.380255
O O6 0.018046 0.574873 0.994413
O O7 0.247218 0.129915 0.589226
O O8 0.000000 0.220177 0.250000
O O9 0.500000 0.970125 0.250000
#
# Coordination Sequence:
#
# PCOD9305678 Si02
#       4
#     8   8   8   8
#     4  12  25  48  72 108 144 193 244 297 365 436
#     4  11  25  47  72 106 145 191 242 303 363 438
#     4  12  26  47  75 109 146 192 244 306 370 434
#     4  11  24  46  73 105 146 188 245 302 365 436
#
# _framework density 25.287040000000001
#
# number of rings (size 3 to 8) (size 9 to 14) (size 15 to 20)
#    0.000    0.500    5.000    3.000    0.000    4.000 
#    4.500    0.000    0.000    0.000    0.000    0.000 
#    0.000    0.000    0.000    0.000    0.000    0.000 
#
# Total GULP energy -89375.763344 kJ/mol
# GULP energy per Si atom -5585.985209 kJ/mol
# Density = 2.522949 g / cm^3
# Si number density = 25.287040 Si / 1000 Ang^3
#
#
#
# Elastic Constant Matrix: (Units=GPa)
#
#
# Indices 1 2 3 4 5 6 
#
# 1 145.7176 28.1038 48.4666 0.0000 -18.1044 0.0000
# 2 28.1038 112.8643 32.8587 0.0000 -20.1912 0.0000
# 3 48.4666 32.8587 105.3626 0.0000 -21.6044 0.0000
# 4 0.0000 0.0000 0.0000 24.3978 0.0000 9.1444
# 5 -18.1044 -20.1912 -21.6044 0.0000 60.7346 0.0000
# 6 0.0000 0.0000 0.0000 9.1444 0.0000 43.0384
#
#
#
# Elastic Compliance Matrix: (Units=1/GPa)
#
#
# Indices 1 2 3 4 5 6 
#
# 1 0.008264 -0.000918 -0.003314 0.000000 0.000979 0.000000
# 2 -0.000918 0.010162 -0.002276 0.000000 0.002295 0.000000
# 3 -0.003314 -0.002276 0.012262 0.000000 0.002617 0.000000
# 4 0.000000 0.000000 0.000000 0.044534 0.000000 -0.009462
# 5 0.000979 0.002295 0.002617 0.000000 0.018451 0.000000
# 6 0.000000 0.000000 0.000000 -0.009462 0.000000 0.025245
#
#
# Mechanical properties :
#
#
# Convention : Reuss Voigt Hill
#
# Bulk Modulus (GPa) = 56.58953 64.75587 60.67270
# Shear Modulus (GPa) = 36.27790 42.60186 39.43988
#
# Velocity S-wave (km/s) = 3.79178 4.10900 3.95357
# Velocity P-wave (km/s) = 6.44962 6.94088 6.69975
#
# Compressibility (1/GPa) = 0.01767111
#
# Stress axis : x y z
#
# Youngs Moduli (GPa) = 121.01294 98.40561 81.55159
#
# Poissons Ratio (x) = 0.09030 0.27028
# Poissons Ratio (y) = 0.11104 0.18565
# Poissons Ratio (z) = 0.40107 0.22402
#
# Static dielectric constant tensor:
#      x y z
#    x 2.021510 0.000000 0.041370 
#    y 0.000000 1.932070 0.000000 
#    z 0.041370 0.000000 1.995860 
# 
# From -- ./inp_files/3662.got.cif
#   From: 2010.05.17/outbox.cif.g08.bks.cpg/sg15_2_cif.got.tgz:3662.got - 2010.06.03 18:47:42.
