data_PCOD9305434
_publ_section_title
;
Structure prediction by ZEFSAII (Michael W. Deem and Ramdas Pophale) SiO2 
 PCOD9305434
Probable space group: C 2/C
;
_chemical_formula_sum "Si O2"
_cell_formula_units_Z 40
_cell_length_a 9.042547
_cell_length_b 18.652745
_cell_length_c 10.085243
_cell_angle_alpha 90.000000
_cell_angle_beta 101.075070
_cell_angle_gamma 90.000000
_cell_volume 1669.381044
_symmetry_space_group_name_H-M "C 2/C"
_symmetry_group_IT_number 15
_symmetry_cell_setting 'monoclinic'
loop_
_space_group_symop_operation_xyz
x,y,z
-x,y,1/2-z
-x,-y,-z
x,-y,1/2+z
1/2+x,1/2+y,z
1/2-x,1/2+y,1/2-z
1/2-x,1/2-y,-z
1/2+x,1/2-y,1/2+z
loop_
_atom_site_type_symbol
_atom_site_label
_atom_site_fract_x
_atom_site_fract_y
_atom_site_fract_z
Si Si1 0.242566 0.985183 0.350023
Si Si2 0.320548 0.204611 0.221144
Si Si3 0.163305 0.340813 0.236041
Si Si4 0.783160 0.128671 0.042366
Si Si5 0.622366 0.422843 0.588346
O O1 0.348353 0.918461 0.334034
O O2 0.129691 0.953625 0.441487
O O3 0.307430 0.056520 0.430603
O O4 0.168867 0.016277 0.203036
O O5 0.500000 0.204877 0.250000
O O6 0.250843 0.280821 0.168394
O O7 0.266806 0.188897 0.363033
O O8 0.246281 0.139553 0.127556
O O9 0.254996 0.353015 0.386765
O O10 0.000000 0.313630 0.250000
O O11 0.958960 0.109636 0.090699
#
# Coordination Sequence:
#
# PCOD9305434 Si02
#       5
#     8   8   8   8   8
#     4  11  24  44  77 108 142 191 240 299 358 434
#     4  11  27  47  73 105 146 193 243 303 363 434
#     4  12  28  46  72 104 149 194 245 298 368 428
#     4  11  25  47  75 103 149 191 239 301 363 436
#     4  11  25  46  78 108 151 187 247 295 366 434
#
# _framework density 23.960975000000001
#
# number of rings (size 3 to 8) (size 9 to 14) (size 15 to 20)
#    0.000    0.800    2.000    4.800    8.400    4.800 
#    0.000    0.000    0.000    0.000    0.000    0.000 
#    0.000    0.000    0.000    0.000    0.000    0.000 
#
# Total GULP energy -111989.196825 kJ/mol
# GULP energy per Si atom -5599.459841 kJ/mol
# Density = 2.390644 g / cm^3
# Si number density = 23.960975 Si / 1000 Ang^3
#
#
#
# Elastic Constant Matrix: (Units=GPa)
#
#
# Indices 1 2 3 4 5 6 
#
# 1 134.6903 50.8783 17.1100 0.0000 6.3112 0.0000
# 2 50.8783 156.1227 26.1311 0.0000 9.3266 0.0000
# 3 17.1100 26.1311 83.0283 0.0000 -6.9221 0.0000
# 4 0.0000 0.0000 0.0000 27.7183 0.0000 -8.9931
# 5 6.3112 9.3266 -6.9221 0.0000 29.3291 0.0000
# 6 0.0000 0.0000 0.0000 -8.9931 0.0000 34.8661
#
#
#
# Elastic Compliance Matrix: (Units=1/GPa)
#
#
# Indices 1 2 3 4 5 6 
#
# 1 0.008581 -0.002539 -0.001077 0.000000 -0.001293 0.000000
# 2 -0.002539 0.007730 -0.002110 0.000000 -0.002410 0.000000
# 3 -0.001077 -0.002110 0.013267 0.000000 0.004034 0.000000
# 4 0.000000 0.000000 0.000000 0.039372 0.000000 0.010155
# 5 -0.001293 -0.002410 0.004034 0.000000 0.036093 0.000000
# 6 0.000000 0.000000 0.000000 0.010155 0.000000 0.031301
#
#
# Mechanical properties :
#
#
# Convention : Reuss Voigt Hill
#
# Bulk Modulus (GPa) = 55.17413 62.45333 58.81373
# Shear Modulus (GPa) = 32.50197 37.03083 34.76640
#
# Velocity S-wave (km/s) = 3.68700 3.93550 3.81328
# Velocity P-wave (km/s) = 6.41888 6.83901 6.63227
#
# Compressibility (1/GPa) = 0.01812444
#
# Stress axis : x y z
#
# Youngs Moduli (GPa) = 116.53784 129.36938 75.37737
#
# Poissons Ratio (x) = 0.32845 0.08119
# Poissons Ratio (y) = 0.29587 0.15908
# Poissons Ratio (z) = 0.12552 0.27303
#
# Static dielectric constant tensor:
#      x y z
#    x 1.873590 0.000000 -0.012660 
#    y 0.000000 1.946560 0.000000 
#    z -0.012660 0.000000 1.912580 
# 
# From -- ./inp_files/76802.got.cif
#   From: 2010.05.17/outbox.cif.g08.bks.cpg/sg15_39_cif.got.tgz:76802.got - 2010.06.03 18:47:42.
