data_PCOD9305212
_publ_section_title
;
Structure prediction by ZEFSAII (Michael W. Deem and Ramdas Pophale) SiO2 
 PCOD9305212
Probable space group: C 2/C
;
_chemical_formula_sum "Si O2"
_cell_formula_units_Z 56
_cell_length_a 6.717603
_cell_length_b 18.149047
_cell_length_c 24.612076
_cell_angle_alpha 90.000000
_cell_angle_beta 61.213341
_cell_angle_gamma 90.000000
_cell_volume 2629.832613
_symmetry_space_group_name_H-M "C 2/C"
_symmetry_group_IT_number 15
_symmetry_cell_setting 'monoclinic'
loop_
_space_group_symop_operation_xyz
x,y,z
-x,y,1/2-z
-x,-y,-z
x,-y,1/2+z
1/2+x,1/2+y,z
1/2-x,1/2+y,1/2-z
1/2-x,1/2-y,-z
1/2+x,1/2-y,1/2+z
loop_
_atom_site_type_symbol
_atom_site_label
_atom_site_fract_x
_atom_site_fract_y
_atom_site_fract_z
Si Si1 0.794746 0.664727 0.483473
Si Si2 0.902966 0.086497 0.090538
Si Si3 0.213954 0.831197 0.635302
Si Si4 0.073181 0.064633 0.597386
Si Si5 0.724542 0.431572 0.194760
Si Si6 0.086600 0.578970 0.296254
Si Si7 0.880404 0.661858 0.825105
O O1 0.750000 0.750000 0.500000
O O2 0.620484 0.634590 0.460543
O O3 0.746000 0.617257 0.543288
O O4 0.050376 0.657383 0.428102
O O5 0.645606 0.066708 0.140523
O O6 0.018641 0.132022 0.124383
O O7 0.027214 0.008509 0.068714
O O8 0.253836 0.869060 0.688754
O O9 0.172353 0.745001 0.650871
O O10 0.845356 0.111947 0.640015
O O11 0.167979 0.038414 0.642829
O O12 0.500000 0.395972 0.250000
O O13 0.794603 0.499558 0.224209
O O14 0.927623 0.374646 0.162808
O O15 0.000000 0.608691 0.250000
O O16 0.000000 0.659987 0.750000
#
# Coordination Sequence:
#
# PCOD9305212 Si02
#       7
#     8   8   8   8   8   8   8
#     4  11  26  47  70 104 141 185 236 290 347 416
#     4  11  25  46  71 101 136 183 239 290 345 412
#     4  11  27  46  69 104 140 185 234 286 355 410
#     4  12  24  47  72 100 139 184 235 287 345 418
#     4  12  24  42  73 103 137 184 234 282 352 422
#     4  11  24  43  71 102 139 181 232 287 349 423
#     4  12  26  44  68 105 143 180 226 288 353 417
#
# _framework density 21.294129999999999
#
# number of rings (size 3 to 8) (size 9 to 14) (size 15 to 20)
#    0.000    0.571    5.714    1.714    4.000    2.286 
#    0.000    0.000    0.000    0.000    0.000    0.000 
#    0.000    0.000    0.000    0.000    0.000    0.000 
#
# Total GULP energy -156614.519827 kJ/mol
# GULP energy per Si atom -5593.375708 kJ/mol
# Density = 2.124566 g / cm^3
# Si number density = 21.294130 Si / 1000 Ang^3
#
#
#
# Elastic Constant Matrix: (Units=GPa)
#
#
# Indices 1 2 3 4 5 6 
#
# 1 95.8344 35.2507 19.5679 0.0000 0.7272 0.0000
# 2 35.2507 127.6632 17.4148 0.0000 -0.4236 0.0000
# 3 19.5679 17.4148 78.0268 0.0000 -0.3955 0.0000
# 4 0.0000 0.0000 0.0000 33.0823 0.0000 2.9050
# 5 0.7272 -0.4236 -0.3955 0.0000 33.8340 0.0000
# 6 0.0000 0.0000 0.0000 2.9050 0.0000 26.1889
#
#
#
# Elastic Compliance Matrix: (Units=1/GPa)
#
#
# Indices 1 2 3 4 5 6 
#
# 1 0.012020 -0.003000 -0.002346 0.000000 -0.000323 0.000000
# 2 -0.003000 0.008828 -0.001217 0.000000 0.000161 0.000000
# 3 -0.002346 -0.001217 0.013677 0.000000 0.000195 0.000000
# 4 0.000000 0.000000 0.000000 0.030525 0.000000 -0.003386
# 5 -0.000323 0.000161 0.000195 0.000000 0.029567 0.000000
# 6 0.000000 0.000000 0.000000 -0.003386 0.000000 0.038560
#
#
# Mechanical properties :
#
#
# Convention : Reuss Voigt Hill
#
# Bulk Modulus (GPa) = 46.73362 49.55459 48.14411
# Shear Modulus (GPa) = 32.58675 33.90711 33.24693
#
# Velocity S-wave (km/s) = 3.91617 3.99472 3.95564
# Velocity P-wave (km/s) = 6.51482 6.67825 6.59704
#
# Compressibility (1/GPa) = 0.02139787
#
# Stress axis : x y z
#
# Youngs Moduli (GPa) = 83.19697 113.27566 73.11433
#
# Poissons Ratio (x) = 0.33981 0.17156
# Poissons Ratio (y) = 0.24958 0.08899
# Poissons Ratio (z) = 0.19522 0.13788
#
# Static dielectric constant tensor:
#      x y z
#    x 1.778810 0.000000 0.015100 
#    y 0.000000 1.730890 0.000000 
#    z 0.015100 0.000000 1.794910 
# 
# From -- ./inp_files/286009.got.cif
#   From: 2010.05.17/outbox.cif.g08.bks.cpg/sg15_144_cif.got.tgz:286009.got - 2010.06.03 18:47:42.
