data_PCOD9305771
_publ_section_title
;
Structure prediction by ZEFSAII (Michael W. Deem and Ramdas Pophale) SiO2 
 PCOD9305771
Probable space group: C 2/C
;
_chemical_formula_sum "Si O2"
_cell_formula_units_Z 60
_cell_length_a 15.506742
_cell_length_b 28.584575
_cell_length_c 10.709489
_cell_angle_alpha 90.000000
_cell_angle_beta 147.794322
_cell_angle_gamma 90.000000
_cell_volume 2529.972333
_symmetry_space_group_name_H-M "C 2/C"
_symmetry_group_IT_number 15
_symmetry_cell_setting 'monoclinic'
loop_
_space_group_symop_operation_xyz
x,y,z
-x,y,1/2-z
-x,-y,-z
x,-y,1/2+z
1/2+x,1/2+y,z
1/2-x,1/2+y,1/2-z
1/2-x,1/2-y,-z
1/2+x,1/2-y,1/2+z
loop_
_atom_site_type_symbol
_atom_site_label
_atom_site_fract_x
_atom_site_fract_y
_atom_site_fract_z
Si Si1 0.914316 0.906630 0.953135
Si Si2 0.041499 0.807319 0.444350
Si Si3 0.776648 0.069245 0.547394
Si Si4 0.095516 0.521067 0.737394
Si Si5 0.660222 0.201016 0.862132
Si Si6 0.684111 0.399751 0.932493
Si Si7 0.590768 0.209518 0.152544
Si Si8 0.000000 0.363297 0.750000
O O1 0.817771 0.904947 0.965669
O O2 0.067301 0.937855 0.175190
O O3 0.987868 0.854980 0.018422
O O4 0.810881 0.917987 0.705432
O O5 0.233265 0.796670 0.694504
O O6 0.928193 0.763974 0.338246
O O7 0.000000 0.816683 0.250000
O O8 0.644347 0.100340 0.457211
O O9 0.716219 0.019857 0.425781
O O10 0.000000 0.529130 0.750000
O O11 0.000000 0.500000 0.500000
O O12 0.193496 0.569079 0.835510
O O13 0.500000 0.197901 0.750000
O O14 0.575152 0.200427 0.624305
O O15 0.750000 0.250000 0.000000
O O16 0.766868 0.154750 0.007106
O O17 0.500000 0.405695 0.750000
O O18 0.578315 0.172596 0.248203
#
# Coordination Sequence:
#
# PCOD9305771 Si02
#       8
#     8   8   8   8   8   8   8   4
#     4  11  24  47  71 103 148 184 247 296 382 427
#     4  12  23  43  64 107 142 189 237 306 364 445
#     4  11  25  44  76 104 141 191 235 310 368 443
#     4  12  29  51  78 112 153 196 253 311 385 449
#     4  12  27  50  73 106 150 202 246 301 372 446
#     4  12  30  48  78 111 150 199 254 308 372 454
#     4  12  26  39  70  99 146 184 246 297 369 432
#     4  12  24  40  70 108 134 186 240 300 370 438
#
# _framework density 23.715675000000001
#
# number of rings (size 3 to 8) (size 9 to 14) (size 15 to 20)
#    0.000    0.267    4.000    4.400    9.333    0.533 
#    0.000    0.000    0.000    0.000    0.000    0.000 
#    0.000    0.000    0.000    0.000    0.000    0.000 
#
# Total GULP energy -167718.310797 kJ/mol
# GULP energy per Si atom -5590.610360 kJ/mol
# Density = 2.366170 g / cm^3
# Si number density = 23.715675 Si / 1000 Ang^3
#
#
#
# Elastic Constant Matrix: (Units=GPa)
#
#
# Indices 1 2 3 4 5 6 
#
# 1 44.8144 9.5089 15.7693 0.0000 10.6458 0.0000
# 2 9.5089 129.1658 47.6859 0.0000 4.7707 0.0000
# 3 15.7693 47.6859 138.2265 0.0000 -6.0244 0.0000
# 4 0.0000 0.0000 0.0000 50.4614 0.0000 6.1920
# 5 10.6458 4.7707 -6.0244 0.0000 31.3741 0.0000
# 6 0.0000 0.0000 0.0000 6.1920 0.0000 17.6668
#
#
#
# Elastic Compliance Matrix: (Units=1/GPa)
#
#
# Indices 1 2 3 4 5 6 
#
# 1 0.025730 -0.000364 -0.003215 0.000000 -0.009293 0.000000
# 2 -0.000364 0.008997 -0.003143 0.000000 -0.001848 0.000000
# 3 -0.003215 -0.003143 0.008828 0.000000 0.003264 0.000000
# 4 0.000000 0.000000 0.000000 0.020708 0.000000 -0.007258
# 5 -0.009293 -0.001848 0.003264 0.000000 0.035934 0.000000
# 6 0.000000 0.000000 0.000000 -0.007258 0.000000 0.059147
#
#
# Mechanical properties :
#
#
# Convention : Reuss Voigt Hill
#
# Bulk Modulus (GPa) = 33.20974 50.90385 42.05680
# Shear Modulus (GPa) = 27.34849 35.84997 31.59923
#
# Velocity S-wave (km/s) = 3.39954 3.89222 3.65419
# Velocity P-wave (km/s) = 5.42612 6.45833 5.96460
#
# Compressibility (1/GPa) = 0.03011165
#
# Stress axis : x y z
#
# Youngs Moduli (GPa) = 38.86481 111.14347 113.27892
#
# Poissons Ratio (x) = 0.04047 0.36416
# Poissons Ratio (y) = 0.01415 0.35603
# Poissons Ratio (z) = 0.12494 0.34932
#
# Static dielectric constant tensor:
#      x y z
#    x 2.105670 0.000000 -0.069370 
#    y 0.000000 2.012930 0.000000 
#    z -0.069370 0.000000 1.971460 
# 
# From -- ./inp_files/108433.got.cif
#   From: 2010.05.17/outbox.cif.g08.bks.cpg/sg15_55_cif.got.tgz:108433.got - 2010.06.03 18:47:42.
