data_PCOD9305029
_publ_section_title
;
Structure prediction by ZEFSAII (Michael W. Deem and Ramdas Pophale) SiO2 
 PCOD9305029
Probable space group: C 2/C
;
_chemical_formula_sum "Si O2"
_cell_formula_units_Z 40
_cell_length_a 25.244264
_cell_length_b 6.420448
_cell_length_c 10.518145
_cell_angle_alpha 90.000000
_cell_angle_beta 90.564265
_cell_angle_gamma 90.000000
_cell_volume 1704.692846
_symmetry_space_group_name_H-M "C 2/C"
_symmetry_group_IT_number 15
_symmetry_cell_setting 'monoclinic'
loop_
_space_group_symop_operation_xyz
x,y,z
-x,y,1/2-z
-x,-y,-z
x,-y,1/2+z
1/2+x,1/2+y,z
1/2-x,1/2+y,1/2-z
1/2-x,1/2-y,-z
1/2+x,1/2-y,1/2+z
loop_
_atom_site_type_symbol
_atom_site_label
_atom_site_fract_x
_atom_site_fract_y
_atom_site_fract_z
Si Si1 0.831625 0.311006 0.442760
Si Si2 0.629757 0.433462 0.768565
Si Si3 0.733312 0.448886 0.914525
Si Si4 0.054125 0.696695 0.215936
Si Si5 0.914834 0.399007 0.063618
O O1 0.875913 0.214437 0.353194
O O2 0.788345 0.452195 0.371088
O O3 0.861589 0.464679 0.539493
O O4 0.799276 0.120784 0.504209
O O5 0.692339 0.419978 0.799240
O O6 0.604910 0.655334 0.738505
O O7 0.601531 0.328701 0.887963
O O8 0.750000 0.250000 0.000000
O O9 0.055707 0.514583 0.321029
O O10 0.056408 0.621477 0.070720
O O11 0.000000 0.817094 0.250000
#
# Coordination Sequence:
#
# PCOD9305029 Si02
#       5
#     8   8   8   8   8
#     4  11  25  42  67 108 145 191 239 294 366 433
#     4  12  26  44  74 105 151 191 250 300 372 442
#     4  11  24  41  68 105 149 197 240 293 357 442
#     4  12  29  50  77 108 145 196 254 317 381 444
#     4  12  25  50  77 107 150 191 250 313 376 449
#
# _framework density 23.464635999999999
#
# number of rings (size 3 to 8) (size 9 to 14) (size 15 to 20)
#    0.000    0.400    6.000    1.800    2.800    1.600 
#    0.000    0.000    0.000    0.000    0.000    0.000 
#    0.000    0.000    0.000    0.000    0.000    0.000 
#
# Total GULP energy -111807.920535 kJ/mol
# GULP energy per Si atom -5590.396027 kJ/mol
# Density = 2.341123 g / cm^3
# Si number density = 23.464636 Si / 1000 Ang^3
#
#
#
# Elastic Constant Matrix: (Units=GPa)
#
#
# Indices 1 2 3 4 5 6 
#
# 1 50.3337 0.7472 14.8076 0.0000 -7.5444 0.0000
# 2 0.7472 63.9608 34.9807 0.0000 -9.2643 0.0000
# 3 14.8076 34.9807 128.3462 0.0000 -12.3984 0.0000
# 4 0.0000 0.0000 0.0000 42.5444 0.0000 -0.2251
# 5 -7.5444 -9.2643 -12.3984 0.0000 30.7105 0.0000
# 6 0.0000 0.0000 0.0000 -0.2251 0.0000 24.0557
#
#
#
# Elastic Compliance Matrix: (Units=1/GPa)
#
#
# Indices 1 2 3 4 5 6 
#
# 1 0.021287 0.001802 -0.002486 0.000000 0.004769 0.000000
# 2 0.001802 0.018931 -0.004967 0.000000 0.004148 0.000000
# 3 -0.002486 -0.004967 0.009603 0.000000 0.001768 0.000000
# 4 0.000000 0.000000 0.000000 0.023506 0.000000 0.000220
# 5 0.004769 0.004148 0.001768 0.000000 0.035699 0.000000
# 6 0.000000 0.000000 0.000000 0.000220 0.000000 0.041572
#
#
# Mechanical properties :
#
#
# Convention : Reuss Voigt Hill
#
# Bulk Modulus (GPa) = 25.96185 38.19020 32.07602
# Shear Modulus (GPa) = 28.61408 32.26912 30.44160
#
# Velocity S-wave (km/s) = 3.49586 3.71242 3.60577
# Velocity P-wave (km/s) = 5.23287 5.88958 5.57091
#
# Compressibility (1/GPa) = 0.03851806
#
# Stress axis : x y z
#
# Youngs Moduli (GPa) = 46.97719 52.82419 104.13707
#
# Poissons Ratio (x) = -0.09518 0.25892
# Poissons Ratio (y) = -0.08465 0.51722
# Poissons Ratio (z) = 0.11680 0.26236
#
# Static dielectric constant tensor:
#      x y z
#    x 1.943380 0.000000 0.020090 
#    y 0.000000 1.906200 0.000000 
#    z 0.020090 0.000000 1.897700 
# 
# From -- ./inp_files/120731.got.cif
#   From: 2010.05.17/outbox.cif.g08.bks.cpg/sg15_61_cif.got.tgz:120731.got - 2010.06.03 18:47:42.
