data_PCOD9305119
_publ_section_title
;
Structure prediction by ZEFSAII (Michael W. Deem and Ramdas Pophale) SiO2 
 PCOD9305119
Probable space group: C 2/C
;
_chemical_formula_sum "Si O2"
_cell_formula_units_Z 52
_cell_length_a 8.315555
_cell_length_b 21.345672
_cell_length_c 17.747311
_cell_angle_alpha 90.000000
_cell_angle_beta 131.722481
_cell_angle_gamma 90.000000
_cell_volume 2351.212835
_symmetry_space_group_name_H-M "C 2/C"
_symmetry_group_IT_number 15
_symmetry_cell_setting 'monoclinic'
loop_
_space_group_symop_operation_xyz
x,y,z
-x,y,1/2-z
-x,-y,-z
x,-y,1/2+z
1/2+x,1/2+y,z
1/2-x,1/2+y,1/2-z
1/2-x,1/2-y,-z
1/2+x,1/2-y,1/2+z
loop_
_atom_site_type_symbol
_atom_site_label
_atom_site_fract_x
_atom_site_fract_y
_atom_site_fract_z
Si Si1 0.500000 0.353638 0.250000
Si Si2 0.165232 0.775256 0.895400
Si Si3 0.000000 0.316999 0.250000
Si Si4 0.753835 0.956864 0.755027
Si Si5 0.469806 0.248955 0.114097
Si Si6 0.284526 0.578336 0.094162
Si Si7 0.044392 0.581294 0.644913
Si Si8 0.000000 0.355119 0.750000
O O1 0.486679 0.310129 0.171719
O O2 0.724481 0.391180 0.311240
O O3 0.345772 0.754922 0.891320
O O4 0.139059 0.849343 0.887761
O O5 0.957965 0.736459 0.803168
O O6 0.250000 0.750000 0.000000
O O7 0.927383 0.369472 0.164802
O O8 0.711286 0.930091 0.657510
O O9 0.691922 0.903453 0.794734
O O10 0.008469 0.967046 0.846553
O O11 0.613155 0.019137 0.710863
O O12 0.472005 0.189450 0.169867
O O13 0.250000 0.250000 0.000000
O O14 0.106792 0.568293 0.974468
#
# Coordination Sequence:
#
# PCOD9305119 Si02
#       8
#     4   8   4   8   8   8   8   4
#     4  11  24  42  70 104 144 175 226 292 348 417
#     4  12  24  42  71 100 135 179 233 288 347 418
#     4  12  25  42  68 102 141 174 238 284 346 426
#     4  11  25  46  69 102 140 186 239 286 335 419
#     4  11  25  42  68 103 139 180 223 289 363 405
#     4  11  24  46  74 100 136 189 241 280 348 422
#     4  12  25  47  70 102 142 191 231 287 348 417
#     4  11  25  44  68 102 147 175 232 296 342 411
#
# _framework density 22.116246
#
# number of rings (size 3 to 8) (size 9 to 14) (size 15 to 20)
#    0.000    0.615    4.615    3.692    2.154    0.000 
#    0.000    1.538    0.000    0.000    0.000    0.000 
#    0.000    0.000    0.000    0.000    0.000    0.000 
#
# Total GULP energy -144972.435678 kJ/mol
# GULP energy per Si atom -5575.862911 kJ/mol
# Density = 2.206591 g / cm^3
# Si number density = 22.116246 Si / 1000 Ang^3
#
#
#
# Elastic Constant Matrix: (Units=GPa)
#
#
# Indices 1 2 3 4 5 6 
#
# 1 89.7927 23.3834 56.0573 0.0000 -13.8097 0.0000
# 2 23.3834 126.6563 45.2495 0.0000 -3.6027 0.0000
# 3 56.0573 45.2495 170.2664 0.0000 2.9826 0.0000
# 4 0.0000 0.0000 0.0000 29.3215 0.0000 -2.8169
# 5 -13.8097 -3.6027 2.9826 0.0000 30.7444 0.0000
# 6 0.0000 0.0000 0.0000 -2.8169 0.0000 10.5298
#
#
#
# Elastic Compliance Matrix: (Units=1/GPa)
#
#
# Indices 1 2 3 4 5 6 
#
# 1 0.015661 -0.000875 -0.005054 0.000000 0.007422 0.000000
# 2 -0.000875 0.008821 -0.002071 0.000000 0.000842 0.000000
# 3 -0.005054 -0.002071 0.008145 0.000000 -0.003303 0.000000
# 4 0.000000 0.000000 0.000000 0.035004 0.000000 0.009364
# 5 0.007422 0.000842 -0.003303 0.000000 0.036279 0.000000
# 6 0.000000 0.000000 0.000000 0.009364 0.000000 0.097473
#
#
# Mechanical properties :
#
#
# Convention : Reuss Voigt Hill
#
# Bulk Modulus (GPa) = 60.13852 70.67731 65.40792
# Shear Modulus (GPa) = 22.42903 31.58750 27.00826
#
# Velocity S-wave (km/s) = 3.18802 3.78332 3.49835
# Velocity P-wave (km/s) = 6.38767 7.14921 6.77914
#
# Compressibility (1/GPa) = 0.01662828
#
# Stress axis : x y z
#
# Youngs Moduli (GPa) = 63.85254 113.37002 122.77160
#
# Poissons Ratio (x) = 0.09917 0.62045
# Poissons Ratio (y) = 0.05585 0.25425
# Poissons Ratio (z) = 0.32269 0.23478
#
# Static dielectric constant tensor:
#      x y z
#    x 1.631470 0.000000 -0.313660 
#    y 0.000000 1.855370 0.000000 
#    z -0.313660 0.000000 1.311510 
# 
# From -- ./inp_files/192644.got.cif
#   From: 2010.05.17/outbox.cif.g08.bks.cpg/sg15_97_cif.got.tgz:192644.got - 2010.06.03 18:47:42.
