data_PCOD9305492
_publ_section_title
;
Structure prediction by ZEFSAII (Michael W. Deem and Ramdas Pophale) SiO2 
 PCOD9305492
Probable space group: C 2/C
;
_chemical_formula_sum "Si O2"
_cell_formula_units_Z 36
_cell_length_a 4.927370
_cell_length_b 19.403066
_cell_length_c 15.853118
_cell_angle_alpha 90.000000
_cell_angle_beta 81.850918
_cell_angle_gamma 90.000000
_cell_volume 1500.350370
_symmetry_space_group_name_H-M "C 2/C"
_symmetry_group_IT_number 15
_symmetry_cell_setting 'monoclinic'
loop_
_space_group_symop_operation_xyz
x,y,z
-x,y,1/2-z
-x,-y,-z
x,-y,1/2+z
1/2+x,1/2+y,z
1/2-x,1/2+y,1/2-z
1/2-x,1/2-y,-z
1/2+x,1/2-y,1/2+z
loop_
_atom_site_type_symbol
_atom_site_label
_atom_site_fract_x
_atom_site_fract_y
_atom_site_fract_z
Si Si1 0.500000 0.516974 0.250000
Si Si2 0.646380 0.896829 0.333852
Si Si3 0.337619 0.928336 0.510423
Si Si4 0.713146 0.390765 0.887998
Si Si5 0.264971 0.747133 0.191281
O O1 0.335652 0.464793 0.319377
O O2 0.318866 0.565838 0.197287
O O3 0.500000 0.898206 0.250000
O O4 0.422546 0.896936 0.417178
O O5 0.801730 0.824056 0.337725
O O6 0.488492 0.893185 0.583418
O O7 0.015323 0.923926 0.540295
O O8 0.500000 0.000000 0.500000
O O9 0.643633 0.310623 0.878112
O O10 0.500000 0.754091 0.250000
O O11 0.000000 0.718134 0.250000
#
# Coordination Sequence:
#
# PCOD9305492 Si02
#       5
#     4   8   8   8   8
#     4  12  24  44  74 104 130 196 230 284 350 426
#     4  11  26  44  73  98 143 185 235 284 356 416
#     4  12  26  45  68 106 140 179 233 298 339 409
#     4  12  27  43  73 102 141 180 235 286 349 411
#     4  11  24  45  70 104 140 185 232 287 343 419
#
# _framework density 23.994394
#
# number of rings (size 3 to 8) (size 9 to 14) (size 15 to 20)
#    0.000    0.444    4.444    3.333    3.111    1.778 
#    0.000    0.000    0.000    0.000    0.000    0.000 
#    0.000    0.000    0.000    0.000    0.000    0.000 
#
# Total GULP energy -100712.444103 kJ/mol
# GULP energy per Si atom -5595.135784 kJ/mol
# Density = 2.393978 g / cm^3
# Si number density = 23.994394 Si / 1000 Ang^3
#
#
#
# Elastic Constant Matrix: (Units=GPa)
#
#
# Indices 1 2 3 4 5 6 
#
# 1 88.6603 -1.0746 10.3265 0.0000 -5.2620 0.0000
# 2 -1.0746 116.8502 23.0001 0.0000 4.2809 0.0000
# 3 10.3265 23.0001 92.7237 0.0000 -5.8510 0.0000
# 4 0.0000 0.0000 0.0000 1000.7981 0.0000 -41.2004
# 5 -5.2620 4.2809 -5.8510 0.0000 48.8014 0.0000
# 6 0.0000 0.0000 0.0000 -41.2004 0.0000 31.3278
#
#
#
# Elastic Compliance Matrix: (Units=1/GPa)
#
#
# Indices 1 2 3 4 5 6 
#
# 1 0.011496 0.000322 -0.001293 0.000000 0.001056 0.000000
# 2 0.000322 0.009062 -0.002349 0.000000 -0.001042 0.000000
# 3 -0.001293 -0.002349 0.011603 0.000000 0.001458 0.000000
# 4 0.000000 0.000000 0.000000 0.001056 0.000000 0.001389
# 5 0.001056 -0.001042 0.001458 0.000000 0.020871 0.000000
# 6 0.000000 0.000000 0.000000 0.001389 0.000000 0.033748
#
#
# Mechanical properties :
#
#
# Convention : Reuss Voigt Hill
#
# Bulk Modulus (GPa) = 39.18637 40.30424 39.74531
# Shear Modulus (GPa) = 48.55069 233.91762 141.23416
#
# Velocity S-wave (km/s) = 4.50312 9.88434 7.68044
# Velocity P-wave (km/s) = 6.58820 12.12850 9.75974
#
# Compressibility (1/GPa) = 0.02551907
#
# Stress axis : x y z
#
# Youngs Moduli (GPa) = 86.98492 110.35695 86.18091
#
# Poissons Ratio (x) = -0.03549 0.11147
# Poissons Ratio (y) = -0.02798 0.20246
# Poissons Ratio (z) = 0.11251 0.25926
#
# Static dielectric constant tensor:
#      x y z
#    x 1.893070 0.000000 -0.002990 
#    y 0.000000 1.985320 0.000000 
#    z -0.002990 0.000000 2.011470 
# 
# From -- ./inp_files/128684.got.cif
#   From: 2010.05.17/outbox.cif.g08.bks.cpg/sg15_65_cif.got.tgz:128684.got - 2010.06.03 18:47:42.
