data_PCOD9305820
_publ_section_title
;
Structure prediction by ZEFSAII (Michael W. Deem and Ramdas Pophale) SiO2 
 PCOD9305820
Probable space group: C 2/C
;
_chemical_formula_sum "Si O2"
_cell_formula_units_Z 40
_cell_length_a 18.701032
_cell_length_b 14.519634
_cell_length_c 15.367518
_cell_angle_alpha 90.000000
_cell_angle_beta 155.970856
_cell_angle_gamma 90.000000
_cell_volume 1699.159314
_symmetry_space_group_name_H-M "C 2/C"
_symmetry_group_IT_number 15
_symmetry_cell_setting 'monoclinic'
loop_
_space_group_symop_operation_xyz
x,y,z
-x,y,1/2-z
-x,-y,-z
x,-y,1/2+z
1/2+x,1/2+y,z
1/2-x,1/2+y,1/2-z
1/2-x,1/2-y,-z
1/2+x,1/2-y,1/2+z
loop_
_atom_site_type_symbol
_atom_site_label
_atom_site_fract_x
_atom_site_fract_y
_atom_site_fract_z
Si Si1 0.669917 0.182893 0.837980
Si Si2 0.161840 0.609595 0.236603
Si Si3 0.736304 0.954039 0.174705
Si Si4 0.382615 0.292346 0.410442
Si Si5 0.702520 0.497543 0.956901
O O1 0.516832 0.237223 0.620288
O O2 0.779252 0.161258 0.874133
O O3 0.750000 0.250000 0.000000
O O4 0.658518 0.083038 0.866132
O O5 0.215716 0.537982 0.219921
O O6 0.196781 0.711911 0.238259
O O7 0.258720 0.580663 0.433184
O O8 0.952188 0.598728 0.023737
O O9 0.899257 0.883390 0.371573
O O10 0.766131 0.984572 0.109253
O O11 0.500000 0.466983 0.750000
#
# Coordination Sequence:
#
# PCOD9305820 Si02
#       5
#     8   8   8   8   8
#     4  12  25  44  72 109 148 191 253 317 374 442
#     4  11  24  47  75 105 155 205 247 310 384 449
#     4  11  25  48  76 109 153 203 253 311 382 454
#     4  12  24  46  75 108 151 196 253 311 379 451
#     4  12  27  46  75 114 150 199 261 312 378 450
#
# _framework density 23.541053000000002
#
# number of rings (size 3 to 8) (size 9 to 14) (size 15 to 20)
#    0.000    0.400    4.000    4.800    2.800    3.200 
#    0.000    0.000    0.000    0.000    0.000    0.000 
#    0.000    0.000    0.000    0.000    0.000    0.000 
#
# Total GULP energy -111585.005149 kJ/mol
# GULP energy per Si atom -5579.250257 kJ/mol
# Density = 2.348747 g / cm^3
# Si number density = 23.541053 Si / 1000 Ang^3
#
#
#
# Elastic Constant Matrix: (Units=GPa)
#
#
# Indices 1 2 3 4 5 6 
#
# 1 157.5124 59.7931 32.8927 -0.0004 -24.5789 -0.0004
# 2 59.7931 107.0287 26.9851 0.0000 -11.9991 0.0000
# 3 32.8927 26.9851 88.5461 -0.0011 -7.3609 -0.0011
# 4 -0.0004 0.0000 -0.0011 44.9117 -0.0015 -24.2030
# 5 -24.5789 -11.9991 -7.3609 -0.0015 32.3930 -0.0011
# 6 -0.0004 0.0000 -0.0011 -24.2030 -0.0011 46.7599
#
#
#
# Elastic Compliance Matrix: (Units=1/GPa)
#
#
# Indices 1 2 3 4 5 6 
#
# 1 0.009015 -0.004052 -0.001702 0.000000 0.004953 0.000000
# 2 -0.004052 0.012259 -0.002149 0.000000 0.000978 0.000000
# 3 -0.001702 -0.002149 0.012646 0.000001 0.000786 0.000001
# 4 0.000000 0.000000 0.000001 0.030879 0.000002 0.015983
# 5 0.004953 0.000978 0.000786 0.000002 0.035170 0.000002
# 6 0.000000 0.000000 0.000001 0.015983 0.000002 0.029659
#
#
# Mechanical properties :
#
#
# Convention : Reuss Voigt Hill
#
# Bulk Modulus (GPa) = 55.21009 65.82545 60.51777
# Shear Modulus (GPa) = 33.00927 40.37402 36.69164
#
# Velocity S-wave (km/s) = 3.74866 4.14581 3.95222
# Velocity P-wave (km/s) = 6.49925 7.13720 6.82568
#
# Compressibility (1/GPa) = 0.01811263
#
# Stress axis : x y z
#
# Youngs Moduli (GPa) = 110.92363 81.57573 79.07461
#
# Poissons Ratio (x) = 0.33055 0.13461
# Poissons Ratio (y) = 0.44946 0.16996
# Poissons Ratio (z) = 0.18883 0.17534
#
# Static dielectric constant tensor:
#      x y z
#    x 1.854630 0.000000 0.047430 
#    y 0.000000 2.014660 0.000000 
#    z 0.047430 0.000000 2.093890 
# 
# From -- ./inp_files/162663.got.cif
#   From: 2010.05.17/outbox.cif.g08.bks.cpg/sg15_82_cif.got.tgz:162663.got - 2010.06.03 18:47:42.
