data_PCOD9305027
_publ_section_title
;
Structure prediction by ZEFSAII (Michael W. Deem and Ramdas Pophale) SiO2 
 PCOD9305027
Probable space group: C 2/C
;
_chemical_formula_sum "Si O2"
_cell_formula_units_Z 20
_cell_length_a 4.849218
_cell_length_b 8.364161
_cell_length_c 17.499635
_cell_angle_alpha 90.000000
_cell_angle_beta 111.190305
_cell_angle_gamma 90.000000
_cell_volume 661.787181
_symmetry_space_group_name_H-M "C 2/C"
_symmetry_group_IT_number 15
_symmetry_cell_setting 'monoclinic'
loop_
_space_group_symop_operation_xyz
x,y,z
-x,y,1/2-z
-x,-y,-z
x,-y,1/2+z
1/2+x,1/2+y,z
1/2-x,1/2+y,1/2-z
1/2-x,1/2-y,-z
1/2+x,1/2-y,1/2+z
loop_
_atom_site_type_symbol
_atom_site_label
_atom_site_fract_x
_atom_site_fract_y
_atom_site_fract_z
Si Si1 0.327193 0.409165 0.085758
Si Si2 0.750000 0.750000 0.500000
Si Si3 0.705695 0.665608 0.197573
O O1 0.510942 0.318113 0.040756
O O2 0.474541 0.584917 0.112777
O O3 0.361334 0.310269 0.168276
O O4 0.977306 0.395134 0.046501
O O5 0.500000 0.692552 0.250000
O O6 0.000000 0.564108 0.250000
#
# Coordination Sequence:
#
# PCOD9305027 Si02
#       3
#     8   4   8
#     4   9  19  38  70 104 145 193 248 308 372 445
#     4   8  16  38  72 104 144 192 248 306 372 440
#     4  11  24  41  68 103 148 195 250 310 378 447
#
# _framework density 30.221198000000001
#
# number of rings (size 3 to 8) (size 9 to 14) (size 15 to 20)
#    0.000    2.400    0.000    1.200    0.000    6.400 
#    0.000    0.000    0.000  168.000    0.000    0.000 
#    0.000    0.000    0.000    0.000    0.000    0.800 
#
# Total GULP energy -55732.715624 kJ/mol
# GULP energy per Si atom -5573.271562 kJ/mol
# Density = 3.015241 g / cm^3
# Si number density = 30.221198 Si / 1000 Ang^3
#
#
#
# Elastic Constant Matrix: (Units=GPa)
#
#
# Indices 1 2 3 4 5 6 
#
# 1 369.8998 46.0454 82.0667 0.0000 -13.5287 0.0000
# 2 46.0454 107.4726 -22.3621 0.0000 -15.7827 0.0000
# 3 82.0667 -22.3621 101.1654 0.0000 -29.8787 0.0000
# 4 0.0000 0.0000 0.0000 27.8388 0.0000 -16.8956
# 5 -13.5287 -15.7827 -29.8787 0.0000 102.4487 0.0000
# 6 0.0000 0.0000 0.0000 -16.8956 0.0000 16.9398
#
#
#
# Elastic Compliance Matrix: (Units=1/GPa)
#
#
# Indices 1 2 3 4 5 6 
#
# 1 0.003902 -0.002680 -0.004079 0.000000 -0.001087 0.000000
# 2 -0.002680 0.012132 0.005803 0.000000 0.003207 0.000000
# 3 -0.004079 0.005803 0.015956 0.000000 0.005009 0.000000
# 4 0.000000 0.000000 0.000000 0.091014 0.000000 0.090776
# 5 -0.001087 0.003207 0.005009 0.000000 0.011572 0.000000
# 6 0.000000 0.000000 0.000000 0.090776 0.000000 0.149572
#
#
# Mechanical properties :
#
#
# Convention : Reuss Voigt Hill
#
# Bulk Modulus (GPa) = 33.24754 87.78198 60.51476
# Shear Modulus (GPa) = 16.88696 60.96465 38.92580
#
# Velocity S-wave (km/s) = 2.36641 4.49629 3.59281
# Velocity P-wave (km/s) = 4.30021 7.48766 6.10561
#
# Compressibility (1/GPa) = 0.03007742
#
# Stress axis : x y z
#
# Youngs Moduli (GPa) = 256.25550 82.42926 62.67197
#
# Poissons Ratio (x) = 0.22094 0.25566
# Poissons Ratio (y) = 0.68686 -0.36370
# Poissons Ratio (z) = 1.04533 -0.47836
#
# Static dielectric constant tensor:
#      x y z
#    x 1.894240 0.000000 -0.082080 
#    y 0.000000 12.842180 0.000000 
#    z -0.082080 0.000000 -0.206330 
# 
# From -- ./inp_files/225976.got.cif
#   From: 2010.05.17/outbox.cif.g08.bks.cpg/sg15_113_cif.got.tgz:225976.got - 2010.06.03 18:47:42.
