data_PCOD9305707
_publ_section_title
;
Structure prediction by ZEFSAII (Michael W. Deem and Ramdas Pophale) SiO2 
 PCOD9305707
Probable space group: C 2/C
;
_chemical_formula_sum "Si O2"
_cell_formula_units_Z 32
_cell_length_a 20.847089
_cell_length_b 7.845755
_cell_length_c 8.538950
_cell_angle_alpha 90.000000
_cell_angle_beta 66.595102
_cell_angle_gamma 90.000000
_cell_volume 1281.725863
_symmetry_space_group_name_H-M "C 2/C"
_symmetry_group_IT_number 15
_symmetry_cell_setting 'monoclinic'
loop_
_space_group_symop_operation_xyz
x,y,z
-x,y,1/2-z
-x,-y,-z
x,-y,1/2+z
1/2+x,1/2+y,z
1/2-x,1/2+y,1/2-z
1/2-x,1/2-y,-z
1/2+x,1/2-y,1/2+z
loop_
_atom_site_type_symbol
_atom_site_label
_atom_site_fract_x
_atom_site_fract_y
_atom_site_fract_z
Si Si1 0.712946 0.307635 0.693286
Si Si2 0.409011 0.153191 0.493087
Si Si3 0.960440 0.737787 0.945165
Si Si4 0.161788 0.814952 0.241283
O O1 0.750000 0.250000 0.500000
O O2 0.688942 0.497865 0.683188
O O3 0.648579 0.192329 0.816764
O O4 0.772648 0.298193 0.768391
O O5 0.430258 0.955102 0.456516
O O6 0.377544 0.226702 0.364229
O O7 0.480941 0.240201 0.477270
O O8 0.000000 0.790239 0.750000
O O9 0.893369 0.840091 0.064121
#
# Coordination Sequence:
#
# PCOD9305707 Si02
#       4
#     8   8   8   8
#     4  12  27  48  75 109 150 193 241 300 362 431
#     4  11  24  46  75 106 144 192 244 301 365 431
#     4  11  24  46  76 107 143 188 242 304 366 431
#     4  12  26  47  75 108 149 193 243 299 360 431
#
# _framework density 24.966335999999998
#
# number of rings (size 3 to 8) (size 9 to 14) (size 15 to 20)
#    0.000    0.500    0.000    9.000    0.000    5.000 
#    0.000    6.250    0.000    0.000    0.000    0.000 
#    0.000    0.000    0.000    0.000    0.000    0.000 
#
# Total GULP energy -89849.451110 kJ/mol
# GULP energy per Si atom -5615.590694 kJ/mol
# Density = 2.490951 g / cm^3
# Si number density = 24.966336 Si / 1000 Ang^3
#
#
#
# Elastic Constant Matrix: (Units=GPa)
#
#
# Indices 1 2 3 4 5 6 
#
# 1 185.2318 56.9907 44.5456 0.0000 -3.2259 0.0000
# 2 56.9907 77.1515 37.1946 0.0000 -0.0689 0.0000
# 3 44.5456 37.1946 137.0311 0.0000 -25.6558 0.0000
# 4 0.0000 0.0000 0.0000 48.3880 0.0000 -10.2180
# 5 -3.2259 -0.0689 -25.6558 0.0000 46.3397 0.0000
# 6 0.0000 0.0000 0.0000 -10.2180 0.0000 30.3200
#
#
#
# Elastic Compliance Matrix: (Units=1/GPa)
#
#
# Indices 1 2 3 4 5 6 
#
# 1 0.007108 -0.004751 -0.001037 0.000000 -0.000087 0.000000
# 2 -0.004751 0.018347 -0.003896 0.000000 -0.002461 0.000000
# 3 -0.001037 -0.003896 0.009681 0.000000 0.005282 0.000000
# 4 0.000000 0.000000 0.000000 0.022250 0.000000 0.007498
# 5 -0.000087 -0.002461 0.005282 0.000000 0.024494 0.000000
# 6 0.000000 0.000000 0.000000 0.007498 0.000000 0.035508
#
#
# Mechanical properties :
#
#
# Convention : Reuss Voigt Hill
#
# Bulk Modulus (GPa) = 63.42070 75.20847 69.31459
# Shear Modulus (GPa) = 35.20776 42.38845 38.79810
#
# Velocity S-wave (km/s) = 3.75935 4.12494 3.94638
# Velocity P-wave (km/s) = 6.65592 7.27160 6.97056
#
# Compressibility (1/GPa) = 0.01576772
#
# Stress axis : x y z
#
# Youngs Moduli (GPa) = 140.68080 54.50478 103.29087
#
# Poissons Ratio (x) = 0.25894 0.10716
# Poissons Ratio (y) = 0.66833 0.40245
# Poissons Ratio (z) = 0.14595 0.21237
#
# Static dielectric constant tensor:
#      x y z
#    x 1.953970 0.000000 0.032960 
#    y 0.000000 1.926800 0.000000 
#    z 0.032960 0.000000 1.980330 
# 
# From -- ./inp_files/37366.got.cif
#   From: 2010.05.17/outbox.cif.g08.bks.cpg/sg15_19_cif.got.tgz:37366.got - 2010.06.03 18:47:42.
