data_PCOD9305980
_publ_section_title
;
Structure prediction by ZEFSAII (Michael W. Deem and Ramdas Pophale) SiO2 
 PCOD9305980
Probable space group: C 2/C
;
_chemical_formula_sum "Si O2"
_cell_formula_units_Z 56
_cell_length_a 11.884935
_cell_length_b 8.781900
_cell_length_c 22.899349
_cell_angle_alpha 90.000000
_cell_angle_beta 99.611834
_cell_angle_gamma 90.000000
_cell_volume 2356.505310
_symmetry_space_group_name_H-M "C 2/C"
_symmetry_group_IT_number 15
_symmetry_cell_setting 'monoclinic'
loop_
_space_group_symop_operation_xyz
x,y,z
-x,y,1/2-z
-x,-y,-z
x,-y,1/2+z
1/2+x,1/2+y,z
1/2-x,1/2+y,1/2-z
1/2-x,1/2-y,-z
1/2+x,1/2-y,1/2+z
loop_
_atom_site_type_symbol
_atom_site_label
_atom_site_fract_x
_atom_site_fract_y
_atom_site_fract_z
Si Si1 0.682362 0.338819 0.428742
Si Si2 0.093891 0.882405 0.986499
Si Si3 0.874290 0.949083 0.810745
Si Si4 0.751016 0.657258 0.604558
Si Si5 0.147404 0.044149 0.323092
Si Si6 0.404470 0.800522 0.401409
Si Si7 0.952961 0.542384 0.061702
O O1 0.676532 0.498872 0.461375
O O2 0.683237 0.395571 0.362011
O O3 0.809512 0.272202 0.443341
O O4 0.583522 0.217892 0.433484
O O5 0.163497 0.802056 0.044195
O O6 0.020312 0.776568 0.937305
O O7 0.000000 0.000000 0.000000
O O8 0.820569 0.957176 0.742108
O O9 0.010095 0.968391 0.815826
O O10 0.868271 0.785433 0.840574
O O11 0.818787 0.063590 0.852619
O O12 0.806993 0.802015 0.641703
O O13 0.843417 0.544883 0.581174
O O14 0.500000 0.000000 0.500000
O O15 0.438950 0.975304 0.393472
#
# Coordination Sequence:
#
# PCOD9305980 Si02
#       7
#     8   8   8   8   8   8   8
#     4  12  26  47  72 112 152 199 249 313 382 453
#     4  12  23  44  72 104 151 194 243 309 381 449
#     4  11  24  50  78 105 150 194 259 320 378 446
#     4  12  25  47  79 109 148 207 252 309 396 461
#     4  11  27  49  81 107 149 205 259 314 381 457
#     4  12  25  47  70 108 154 197 242 320 376 453
#     4  12  26  42  71 112 153 200 251 306 381 461
#
# _framework density 23.764002000000001
#
# number of rings (size 3 to 8) (size 9 to 14) (size 15 to 20)
#    0.000    0.286    5.714    1.714    2.000    7.429 
#    0.000    1.429    6.286    0.000    0.000    0.000 
#    0.000    0.000    0.000    0.000    0.000    0.000 
#
# Total GULP energy -156449.576187 kJ/mol
# GULP energy per Si atom -5587.484864 kJ/mol
# Density = 2.370991 g / cm^3
# Si number density = 23.764002 Si / 1000 Ang^3
#
#
#
# Elastic Constant Matrix: (Units=GPa)
#
#
# Indices 1 2 3 4 5 6 
#
# 1 114.2189 47.5499 44.3971 0.0000 -24.3125 0.0000
# 2 47.5499 130.8914 68.6300 0.0000 -7.2111 0.0000
# 3 44.3971 68.6300 158.7885 0.0000 -18.9727 0.0000
# 4 0.0000 0.0000 0.0000 26.1244 0.0000 -4.6136
# 5 -24.3125 -7.2111 -18.9727 0.0000 35.2406 0.0000
# 6 0.0000 0.0000 0.0000 -4.6136 0.0000 57.3442
#
#
#
# Elastic Compliance Matrix: (Units=1/GPa)
#
#
# Indices 1 2 3 4 5 6 
#
# 1 0.012110 -0.003462 -0.001043 0.000000 0.007085 0.000000
# 2 -0.003462 0.010871 -0.004008 0.000000 -0.002322 0.000000
# 3 -0.001043 -0.004008 0.008697 0.000000 0.003143 0.000000
# 4 0.000000 0.000000 0.000000 0.038830 0.000000 0.003124
# 5 0.007085 -0.002322 0.003143 0.000000 0.034481 0.000000
# 6 0.000000 0.000000 0.000000 0.003124 0.000000 0.017690
#
#
# Mechanical properties :
#
#
# Convention : Reuss Voigt Hill
#
# Bulk Modulus (GPa) = 68.25078 80.56144 74.40611
# Shear Modulus (GPa) = 34.58067 39.96329 37.27198
#
# Velocity S-wave (km/s) = 3.81881 4.10527 3.96463
# Velocity P-wave (km/s) = 6.94456 7.51300 7.23437
#
# Compressibility (1/GPa) = 0.01465185
#
# Stress axis : x y z
#
# Youngs Moduli (GPa) = 82.57742 91.98587 114.98000
#
# Poissons Ratio (x) = 0.31846 0.11993
# Poissons Ratio (y) = 0.28588 0.46085
# Poissons Ratio (z) = 0.08614 0.36869
#
# Static dielectric constant tensor:
#      x y z
#    x 2.088240 0.000000 0.055740 
#    y 0.000000 2.013300 0.000000 
#    z 0.055740 0.000000 1.964200 
# 
# From -- ./inp_files/272854.got.cif
#   From: 2010.05.17/outbox.cif.g08.bks.cpg/sg15_137_cif.got.tgz:272854.got - 2010.06.03 18:47:42.
