data_PCOD9305599
_publ_section_title
;
Structure prediction by ZEFSAII (Michael W. Deem and Ramdas Pophale) SiO2 
 PCOD9305599
Probable space group: C 2/C
;
_chemical_formula_sum "Si O2"
_cell_formula_units_Z 44
_cell_length_a 17.499053
_cell_length_b 10.390532
_cell_length_c 13.116986
_cell_angle_alpha 90.000000
_cell_angle_beta 66.980411
_cell_angle_gamma 90.000000
_cell_volume 2195.075243
_symmetry_space_group_name_H-M "C 2/C"
_symmetry_group_IT_number 15
_symmetry_cell_setting 'monoclinic'
loop_
_space_group_symop_operation_xyz
x,y,z
-x,y,1/2-z
-x,-y,-z
x,-y,1/2+z
1/2+x,1/2+y,z
1/2-x,1/2+y,1/2-z
1/2-x,1/2-y,-z
1/2+x,1/2-y,1/2+z
loop_
_atom_site_type_symbol
_atom_site_label
_atom_site_fract_x
_atom_site_fract_y
_atom_site_fract_z
Si Si1 0.215246 0.548395 0.955681
Si Si2 0.012901 0.202739 0.852450
Si Si3 0.500000 0.744962 0.250000
Si Si4 0.446746 0.883972 0.481991
Si Si5 0.128102 0.042768 0.251625
Si Si6 0.661264 0.664916 0.451626
O O1 0.142257 0.444150 0.001719
O O2 0.286667 0.495472 0.845619
O O3 0.180005 0.683499 0.931902
O O4 0.262299 0.592202 0.034181
O O5 0.053380 0.281515 0.924784
O O6 0.000000 0.274902 0.750000
O O7 0.070340 0.081645 0.796632
O O8 0.922334 0.157173 0.937498
O O9 0.489924 0.826070 0.358748
O O10 0.579003 0.650666 0.214268
O O11 0.500000 0.000000 0.500000
O O12 0.144472 0.101981 0.353050
#
# Coordination Sequence:
#
# PCOD9305599 Si02
#       6
#     8   8   4   8   8   8
#     4  11  26  45  68 106 137 186 238 298 367 425
#     4  12  24  46  76  98 141 198 236 291 367 433
#     4  12  26  48  74 106 144 186 248 294 354 452
#     4  12  28  47  73 107 145 191 239 300 368 430
#     4  12  25  43  73 104 138 185 243 298 363 425
#     4  11  24  46  68 101 145 182 243 299 356 440
#
# _framework density 20.044871000000001
#
# number of rings (size 3 to 8) (size 9 to 14) (size 15 to 20)
#    0.000    0.364    6.364    0.545    6.364    3.636 
#    0.000    0.000    0.000    0.000    0.000    0.000 
#    0.000    0.000    0.000    0.000    0.000    0.000 
#
# Total GULP energy -123024.747806 kJ/mol
# GULP energy per Si atom -5592.033991 kJ/mol
# Density = 1.999925 g / cm^3
# Si number density = 20.044871 Si / 1000 Ang^3
#
#
#
# Elastic Constant Matrix: (Units=GPa)
#
#
# Indices 1 2 3 4 5 6 
#
# 1 76.9341 17.7711 2.2459 0.0000 -8.1778 0.0000
# 2 17.7711 57.1107 19.0823 0.0000 4.2253 0.0000
# 3 2.2459 19.0823 74.8348 0.0000 13.0397 0.0000
# 4 0.0000 0.0000 0.0000 0.5905 0.0000 -46.1920
# 5 -8.1778 4.2253 13.0397 0.0000 42.1586 0.0000
# 6 0.0000 0.0000 0.0000 -46.1920 0.0000 -122.6408
#
#
#
# Elastic Compliance Matrix: (Units=1/GPa)
#
#
# Indices 1 2 3 4 5 6 
#
# 1 0.014444 -0.004810 0.000233 0.000000 0.003212 0.000000
# 2 -0.004810 0.020750 -0.004885 0.000000 -0.001502 0.000000
# 3 0.000233 -0.004885 0.015335 0.000000 -0.004208 0.000000
# 4 0.000000 0.000000 0.000000 0.055591 0.000000 -0.020938
# 5 0.003212 -0.001502 -0.004208 0.000000 0.025795 0.000000
# 6 0.000000 0.000000 0.000000 -0.020938 0.000000 -0.000268
#
#
# Mechanical properties :
#
#
# Convention : Reuss Voigt Hill
#
# Bulk Modulus (GPa) = 31.64052 31.89757 31.76905
# Shear Modulus (GPa) = 31.03564 -4.65964 13.18800
#
# Velocity S-wave (km/s) = 3.93912 -1.52632 2.56779
# Velocity P-wave (km/s) = 6.04219 3.58349 4.96737
#
# Compressibility (1/GPa) = 0.03160504
#
# Stress axis : x y z
#
# Youngs Moduli (GPa) = 69.23386 48.19292 65.21175
#
# Poissons Ratio (x) = 0.23181 -0.01522
# Poissons Ratio (y) = 0.33302 0.31856
# Poissons Ratio (z) = -0.01616 0.23542
#
# Static dielectric constant tensor:
#      x y z
#    x 1.717960 0.000000 0.028340 
#    y 0.000000 1.700760 0.000000 
#    z 0.028340 0.000000 1.689600 
# 
# From -- ./inp_files/103633.got.cif
#   From: 2010.05.17/outbox.cif.g08.bks.cpg/sg15_52_cif.got.tgz:103633.got - 2010.06.03 18:47:42.
