data_PCOD9305732
_publ_section_title
;
Structure prediction by ZEFSAII (Michael W. Deem and Ramdas Pophale) SiO2 
 PCOD9305732
Probable space group: C 2/C
;
_chemical_formula_sum "Si O2"
_cell_formula_units_Z 28
_cell_length_a 22.665873
_cell_length_b 9.445523
_cell_length_c 10.092910
_cell_angle_alpha 90.000000
_cell_angle_beta 152.116279
_cell_angle_gamma 90.000000
_cell_volume 1010.560806
_symmetry_space_group_name_H-M "C 2/C"
_symmetry_group_IT_number 15
_symmetry_cell_setting 'monoclinic'
loop_
_space_group_symop_operation_xyz
x,y,z
-x,y,1/2-z
-x,-y,-z
x,-y,1/2+z
1/2+x,1/2+y,z
1/2-x,1/2+y,1/2-z
1/2-x,1/2-y,-z
1/2+x,1/2-y,1/2+z
loop_
_atom_site_type_symbol
_atom_site_label
_atom_site_fract_x
_atom_site_fract_y
_atom_site_fract_z
Si Si1 0.671410 0.710122 0.476040
Si Si2 0.817234 0.882354 0.997531
Si Si3 0.500000 0.903298 0.250000
Si Si4 0.406501 0.891195 0.737870
O O1 0.750000 0.750000 0.500000
O O2 0.743027 0.791271 0.738440
O O3 0.648401 0.544882 0.456945
O O4 0.535278 0.787178 0.208994
O O5 0.721049 0.894577 0.930876
O O6 0.930562 0.773513 0.254970
O O7 0.605046 0.024039 0.425368
O O8 0.500000 0.000000 0.000000
#
# Coordination Sequence:
#
# PCOD9305732 Si02
#       4
#     8   8   4   8
#     4  12  26  47  75 116 160 211 271 330 407 487
#     4  11  26  47  76 113 159 210 265 337 404 477
#     4  12  24  44  74 112 154 208 264 328 398 480
#     4  11  24  46  78 107 151 211 270 330 399 477
#
# _framework density 27.707386
#
# number of rings (size 3 to 8) (size 9 to 14) (size 15 to 20)
#    0.000    0.571    5.714    1.714    4.000    1.143 
#    0.000    2.857    0.000    0.000    0.000    0.000 
#    0.000    0.000    0.000    0.000    0.000    0.000 
#
# Total GULP energy -77961.834211 kJ/mol
# GULP energy per Si atom -5568.702444 kJ/mol
# Density = 2.764432 g / cm^3
# Si number density = 27.707386 Si / 1000 Ang^3
#
#
#
# Elastic Constant Matrix: (Units=GPa)
#
#
# Indices 1 2 3 4 5 6 
#
# 1 194.0298 78.8263 16.6366 0.0000 3.4872 0.0000
# 2 78.8263 430.1341 70.5200 0.0000 -1.3598 0.0000
# 3 16.6366 70.5200 68.5209 0.0000 -14.9813 0.0000
# 4 0.0000 0.0000 0.0000 47.3205 0.0000 10.7565
# 5 3.4872 -1.3598 -14.9813 0.0000 37.2889 0.0000
# 6 0.0000 0.0000 0.0000 10.7565 0.0000 60.6962
#
#
#
# Elastic Compliance Matrix: (Units=1/GPa)
#
#
# Indices 1 2 3 4 5 6 
#
# 1 0.005597 -0.000935 -0.000568 0.000000 -0.000786 0.000000
# 2 -0.000935 0.002999 -0.003088 0.000000 -0.001044 0.000000
# 3 -0.000568 -0.003088 0.019621 0.000000 0.007823 0.000000
# 4 0.000000 0.000000 0.000000 0.022020 0.000000 -0.003902
# 5 -0.000786 -0.001044 0.007823 0.000000 0.029996 0.000000
# 6 0.000000 0.000000 0.000000 -0.003902 0.000000 0.017167
#
#
# Mechanical properties :
#
#
# Convention : Reuss Voigt Hill
#
# Bulk Modulus (GPa) = 52.53822 113.85008 83.19415
# Shear Modulus (GPa) = 44.27678 64.17458 54.22568
#
# Velocity S-wave (km/s) = 4.00185 4.81787 4.42869
# Velocity P-wave (km/s) = 6.35264 8.49285 7.49948
#
# Compressibility (1/GPa) = 0.01903376
#
# Stress axis : x y z
#
# Youngs Moduli (GPa) = 178.68229 333.42924 50.96702
#
# Poissons Ratio (x) = 0.31172 0.02897
# Poissons Ratio (y) = 0.16705 0.15738
# Poissons Ratio (z) = 0.10157 1.02958
#
# Static dielectric constant tensor:
#      x y z
#    x 1.429510 0.000000 0.806580 
#    y 0.000000 2.135090 0.000000 
#    z 0.806580 0.000000 1.625960 
# 
# From -- ./inp_files/121749.got.cif
#   From: 2010.05.17/outbox.cif.g08.bks.cpg/sg15_61_cif.got.tgz:121749.got - 2010.06.03 18:47:42.
