data_PCOD9305454
_publ_section_title
;
Structure prediction by ZEFSAII (Michael W. Deem and Ramdas Pophale) SiO2 
 PCOD9305454
Probable space group: C 2/C
;
_chemical_formula_sum "Si O2"
_cell_formula_units_Z 32
_cell_length_a 9.904872
_cell_length_b 8.842442
_cell_length_c 19.932300
_cell_angle_alpha 90.000000
_cell_angle_beta 46.414920
_cell_angle_gamma 90.000000
_cell_volume 1264.526153
_symmetry_space_group_name_H-M "C 2/C"
_symmetry_group_IT_number 15
_symmetry_cell_setting 'monoclinic'
loop_
_space_group_symop_operation_xyz
x,y,z
-x,y,1/2-z
-x,-y,-z
x,-y,1/2+z
1/2+x,1/2+y,z
1/2-x,1/2+y,1/2-z
1/2-x,1/2-y,-z
1/2+x,1/2-y,1/2+z
loop_
_atom_site_type_symbol
_atom_site_label
_atom_site_fract_x
_atom_site_fract_y
_atom_site_fract_z
Si Si1 0.199365 0.243880 0.800072
Si Si2 0.717224 0.462221 0.419382
Si Si3 0.302420 0.716114 0.904859
Si Si4 0.054685 0.577823 0.883964
O O1 0.240365 0.167417 0.857244
O O2 0.142042 0.417283 0.831079
O O3 0.366048 0.205352 0.693539
O O4 0.014108 0.160705 0.833386
O O5 0.500000 0.500000 0.500000
O O6 0.803489 0.622114 0.366888
O O7 0.833133 0.424792 0.447066
O O8 0.142285 0.618375 0.925470
O O9 0.250000 0.750000 0.000000
#
# Coordination Sequence:
#
# PCOD9305454 Si02
#       4
#     8   8   8   8
#     4  11  24  46  70 105 140 185 243 292 363 431
#     4  11  24  45  68 103 143 180 240 297 353 429
#     4  11  24  46  67 102 144 181 235 300 354 424
#     4  11  26  43  75 101 144 191 237 296 365 426
#
# _framework density 25.305921000000001
#
# number of rings (size 3 to 8) (size 9 to 14) (size 15 to 20)
#    0.000    1.000    2.500    3.000    0.000   15.000 
#    0.000    0.000    0.000    0.000    0.000    0.000 
#    0.000    0.000    0.000    0.000    0.000    0.000 
#
# Total GULP energy -89582.909070 kJ/mol
# GULP energy per Si atom -5598.931817 kJ/mol
# Density = 2.524832 g / cm^3
# Si number density = 25.305921 Si / 1000 Ang^3
#
#
#
# Elastic Constant Matrix: (Units=GPa)
#
#
# Indices 1 2 3 4 5 6 
#
# 1 264.1535 49.2252 51.8786 0.0000 -9.6268 0.0000
# 2 49.2252 99.8976 2.4154 0.0000 13.7941 0.0000
# 3 51.8786 2.4154 65.9957 0.0000 -7.0021 0.0000
# 4 0.0000 0.0000 0.0000 36.5503 0.0000 3.7762
# 5 -9.6268 13.7941 -7.0021 0.0000 46.0600 0.0000
# 6 0.0000 0.0000 0.0000 3.7762 0.0000 52.8565
#
#
#
# Elastic Compliance Matrix: (Units=1/GPa)
#
#
# Indices 1 2 3 4 5 6 
#
# 1 0.005044 -0.002569 -0.003738 0.000000 0.001255 0.000000
# 2 -0.002569 0.011784 0.001175 0.000000 -0.003887 0.000000
# 3 -0.003738 0.001175 0.018222 0.000000 0.001637 0.000000
# 4 0.000000 0.000000 0.000000 0.027563 0.000000 -0.001969
# 5 0.001255 -0.003887 0.001637 0.000000 0.023386 0.000000
# 6 0.000000 0.000000 0.000000 -0.001969 0.000000 0.019060
#
#
# Mechanical properties :
#
#
# Convention : Reuss Voigt Hill
#
# Bulk Modulus (GPa) = 40.34266 70.78724 55.56495
# Shear Modulus (GPa) = 40.45835 48.86186 44.66010
#
# Velocity S-wave (km/s) = 4.00280 4.39891 4.20552
# Velocity P-wave (km/s) = 6.11063 7.33715 6.75180
#
# Compressibility (1/GPa) = 0.02478766
#
# Stress axis : x y z
#
# Youngs Moduli (GPa) = 198.24778 84.85909 54.88006
#
# Poissons Ratio (x) = 0.21796 0.20514
# Poissons Ratio (y) = 0.50920 -0.06450
# Poissons Ratio (z) = 0.74105 -0.09974
#
# Static dielectric constant tensor:
#      x y z
#    x 2.037120 0.000000 -0.012730 
#    y 0.000000 2.010320 0.000000 
#    z -0.012730 0.000000 2.038980 
# 
# From -- ./inp_files/262294.got.cif
#   From: 2010.05.17/outbox.cif.g08.bks.cpg/sg15_132_cif.got.tgz:262294.got - 2010.06.03 18:47:42.
