data_PCOD9305703
_publ_section_title
;
Structure prediction by ZEFSAII (Michael W. Deem and Ramdas Pophale) SiO2 
 PCOD9305703
Probable space group: C 2/C
;
_chemical_formula_sum "Si O2"
_cell_formula_units_Z 64
_cell_length_a 7.050155
_cell_length_b 20.534521
_cell_length_c 21.228158
_cell_angle_alpha 90.000000
_cell_angle_beta 106.265680
_cell_angle_gamma 90.000000
_cell_volume 2950.221879
_symmetry_space_group_name_H-M "C 2/C"
_symmetry_group_IT_number 15
_symmetry_cell_setting 'monoclinic'
loop_
_space_group_symop_operation_xyz
x,y,z
-x,y,1/2-z
-x,-y,-z
x,-y,1/2+z
1/2+x,1/2+y,z
1/2-x,1/2+y,1/2-z
1/2-x,1/2-y,-z
1/2+x,1/2-y,1/2+z
loop_
_atom_site_type_symbol
_atom_site_label
_atom_site_fract_x
_atom_site_fract_y
_atom_site_fract_z
Si Si1 0.062820 0.103554 0.532520
Si Si2 0.681953 0.322320 0.392797
Si Si3 0.015600 0.311960 0.871179
Si Si4 0.897777 0.689844 0.507080
Si Si5 0.237231 0.538904 0.833025
Si Si6 0.277601 0.942029 0.310212
Si Si7 0.173056 0.906992 0.816988
Si Si8 0.631486 0.593585 0.109996
O O1 0.265459 0.130059 0.520805
O O2 0.122769 0.061984 0.598353
O O3 0.927706 0.158764 0.552259
O O4 0.930381 0.071882 0.465823
O O5 0.550591 0.262706 0.354167
O O6 0.703958 0.384520 0.348618
O O7 0.904666 0.302392 0.432779
O O8 0.225155 0.346092 0.881881
O O9 0.850989 0.356754 0.821962
O O10 0.962278 0.315631 0.940442
O O11 0.750000 0.750000 0.500000
O O12 0.296152 0.562268 0.769007
O O13 0.255273 0.461160 0.839145
O O14 0.015629 0.561417 0.826748
O O15 0.232874 0.016628 0.326940
O O16 0.000000 0.900485 0.750000
O O17 0.068438 0.889383 0.872728
#
# Coordination Sequence:
#
# PCOD9305703 Si02
#       8
#     8   8   8   8   8   8   8   8
#     4  12  24  42  73 111 145 190 248 304 372 445
#     4  12  26  45  76 110 148 195 247 308 376 442
#     4  12  26  45  75 111 146 191 247 306 368 450
#     4  12  23  45  72 104 150 196 238 300 378 446
#     4  11  24  46  75 104 150 195 245 307 379 438
#     4  11  25  48  76 103 147 202 250 304 374 454
#     4  12  26  48  77 101 147 200 246 303 378 450
#     4  12  24  44  74 110 147 189 244 305 374 446
#
# _framework density 21.693283000000001
#
# number of rings (size 3 to 8) (size 9 to 14) (size 15 to 20)
#    0.000    0.250    7.500    2.250    0.000    0.500 
#    0.000    5.000    0.000    0.000    0.000    0.000 
#    0.000    0.000    0.000    0.000    0.000    0.000 
#
# Total GULP energy -178858.851789 kJ/mol
# GULP energy per Si atom -5589.339118 kJ/mol
# Density = 2.164391 g / cm^3
# Si number density = 21.693283 Si / 1000 Ang^3
#
#
#
# Elastic Constant Matrix: (Units=GPa)
#
#
# Indices 1 2 3 4 5 6 
#
# 1 120.8838 60.6072 30.0691 0.0000 -7.5062 0.0000
# 2 60.6072 114.7364 48.6688 0.0000 7.9900 0.0000
# 3 30.0691 48.6688 102.9029 0.0000 4.9861 0.0000
# 4 0.0000 0.0000 0.0000 19.5311 0.0000 -1.9883
# 5 -7.5062 7.9900 4.9861 0.0000 31.9824 0.0000
# 6 0.0000 0.0000 0.0000 -1.9883 0.0000 48.1568
#
#
#
# Elastic Compliance Matrix: (Units=1/GPa)
#
#
# Indices 1 2 3 4 5 6 
#
# 1 0.011877 -0.006281 -0.000716 0.000000 0.004468 0.000000
# 2 -0.006281 0.014345 -0.004740 0.000000 -0.004319 0.000000
# 3 -0.000716 -0.004740 0.012212 0.000000 -0.000888 0.000000
# 4 0.000000 0.000000 0.000000 0.051416 0.000000 0.002123
# 5 0.004468 -0.004319 -0.000888 0.000000 0.033533 0.000000
# 6 0.000000 0.000000 0.000000 0.002123 0.000000 0.020853
#
#
# Mechanical properties :
#
#
# Convention : Reuss Voigt Hill
#
# Bulk Modulus (GPa) = 66.84832 68.57924 67.71378
# Shear Modulus (GPa) = 28.95222 33.21261 31.08242
#
# Velocity S-wave (km/s) = 3.65720 3.91706 3.78936
# Velocity P-wave (km/s) = 6.97966 7.22077 7.10124
#
# Compressibility (1/GPa) = 0.01495924
#
# Stress axis : x y z
#
# Youngs Moduli (GPa) = 84.19444 69.71135 81.88671
#
# Poissons Ratio (x) = 0.43787 0.05866
# Poissons Ratio (y) = 0.52884 0.38813
# Poissons Ratio (z) = 0.06032 0.33042
#
# Static dielectric constant tensor:
#      x y z
#    x 1.794670 0.000000 -0.005410 
#    y 0.000000 1.829570 0.000000 
#    z -0.005410 0.000000 1.793140 
# 
# From -- ./inp_files/261824.got.cif
#   From: 2010.05.17/outbox.cif.g08.bks.cpg/sg15_131_cif.got.tgz:261824.got - 2010.06.03 18:47:42.
