data_PCOD9305170
_publ_section_title
;
Structure prediction by ZEFSAII (Michael W. Deem and Ramdas Pophale) SiO2 
 PCOD9305170
Probable space group: C 2/C
;
_chemical_formula_sum "Si O2"
_cell_formula_units_Z 52
_cell_length_a 20.914782
_cell_length_b 20.448691
_cell_length_c 18.076569
_cell_angle_alpha 90.000000
_cell_angle_beta 20.867169
_cell_angle_gamma 90.000000
_cell_volume 2753.797386
_symmetry_space_group_name_H-M "C 2/C"
_symmetry_group_IT_number 15
_symmetry_cell_setting 'monoclinic'
loop_
_space_group_symop_operation_xyz
x,y,z
-x,y,1/2-z
-x,-y,-z
x,-y,1/2+z
1/2+x,1/2+y,z
1/2-x,1/2+y,1/2-z
1/2-x,1/2-y,-z
1/2+x,1/2-y,1/2+z
loop_
_atom_site_type_symbol
_atom_site_label
_atom_site_fract_x
_atom_site_fract_y
_atom_site_fract_z
Si Si1 0.184202 0.950340 0.504587
Si Si2 0.386042 0.672568 0.701012
Si Si3 0.500000 0.881921 0.250000
Si Si4 0.623509 0.664473 0.964397
Si Si5 0.251538 0.717778 0.416939
Si Si6 0.486378 0.804568 0.678594
Si Si7 0.857847 0.897733 0.469981
O O1 0.345803 0.925377 0.380996
O O2 0.185847 0.904203 0.430699
O O3 0.000000 0.941236 0.750000
O O4 0.196928 0.026544 0.471758
O O5 0.387557 0.668738 0.611257
O O6 0.450033 0.742261 0.665526
O O7 0.527502 0.621473 0.581899
O O8 0.179358 0.664075 0.950351
O O9 0.411775 0.833363 0.405871
O O10 0.738832 0.724777 0.871295
O O11 0.430658 0.678137 0.209323
O O12 0.250000 0.750000 0.500000
O O13 0.500000 0.783697 0.750000
O O14 0.317975 0.853055 0.850489
O O15 0.000000 0.886267 0.250000
#
# Coordination Sequence:
#
# PCOD9305170 Si02
#       7
#     8   8   4   8   8   8   8
#     4  11  24  43  66  95 132 177 219 261 323 389
#     4  12  25  41  68  98 131 168 214 273 343 382
#     4  12  22  38  68  96 128 170 228 262 310 376
#     4  12  23  41  63  99 140 172 210 276 327 389
#     4  12  20  37  66  96 130 174 223 264 308 375
#     4  12  23  43  69  96 126 167 219 281 327 387
#     4  11  25  44  69  97 124 169 225 270 323 401
#
# _framework density 18.883016000000001
#
# number of rings (size 3 to 8) (size 9 to 14) (size 15 to 20)
#    0.000    0.308    7.692    1.846    1.077    0.615 
#    0.000    0.769    0.000    0.000    0.000    0.000 
#    0.000    0.000    0.000    0.000    0.000    0.000 
#
# Total GULP energy -145349.210208 kJ/mol
# GULP energy per Si atom -5590.354239 kJ/mol
# Density = 1.884004 g / cm^3
# Si number density = 18.883016 Si / 1000 Ang^3
#
#
#
# Elastic Constant Matrix: (Units=GPa)
#
#
# Indices 1 2 3 4 5 6 
#
# 1 170.5831 67.9928 33.2652 0.0089 2.1497 -0.0083
# 2 67.9928 135.0381 32.4448 0.0024 -12.2049 0.0068
# 3 33.2652 32.4448 79.8544 0.0139 -21.8331 0.0037
# 4 0.0089 0.0024 0.0139 21.9252 0.0001 -11.1671
# 5 2.1497 -12.2049 -21.8331 0.0001 36.8200 0.0071
# 6 -0.0083 0.0068 0.0037 -11.1671 0.0071 12.6753
#
#
#
# Elastic Compliance Matrix: (Units=1/GPa)
#
#
# Indices 1 2 3 4 5 6 
#
# 1 0.007868 -0.003607 -0.002703 0.000007 -0.003258 0.000016
# 2 -0.003607 0.009884 -0.001862 -0.000005 0.002383 -0.000013
# 3 -0.002703 -0.001862 0.017043 -0.000028 0.009646 -0.000035
# 4 0.000007 -0.000005 -0.000028 0.082735 -0.000033 0.072891
# 5 -0.003258 0.002383 0.009646 -0.000033 0.033859 -0.000054
# 6 0.000016 -0.000013 -0.000035 0.072891 -0.000054 0.143112
#
#
# Mechanical properties :
#
#
# Convention : Reuss Voigt Hill
#
# Bulk Modulus (GPa) = 54.19540 72.54234 63.36887
# Shear Modulus (GPa) = 15.77312 31.06894 23.42103
#
# Velocity S-wave (km/s) = 2.89330 4.06068 3.52564
# Velocity P-wave (km/s) = 6.31859 7.77725 7.08555
#
# Compressibility (1/GPa) = 0.01845175
#
# Stress axis : x y z
#
# Youngs Moduli (GPa) = 127.09807 101.17365 58.67616
#
# Poissons Ratio (x) = 0.36489 0.15859
# Poissons Ratio (y) = 0.45839 0.10925
# Poissons Ratio (z) = 0.34353 0.18838
#
# Static dielectric constant tensor:
#      x y z
#    x 1.642350 0.000000 -0.008970 
#    y 0.000000 1.672370 0.000010 
#    z -0.008970 0.000010 1.648890 
# 
# From -- ./inp_files/216611.got.cif
#   From: 2010.05.17/outbox.cif.g08.bks.cpg/sg15_109_cif.got.tgz:216611.got - 2010.06.03 18:47:42.
