data_PCOD9305860
_publ_section_title
;
Structure prediction by ZEFSAII (Michael W. Deem and Ramdas Pophale) SiO2 
 PCOD9305860
Probable space group: C 2/C
;
_chemical_formula_sum "Si O2"
_cell_formula_units_Z 48
_cell_length_a 11.805454
_cell_length_b 18.760036
_cell_length_c 10.913310
_cell_angle_alpha 90.000000
_cell_angle_beta 61.558384
_cell_angle_gamma 90.000000
_cell_volume 2125.256470
_symmetry_space_group_name_H-M "C 2/C"
_symmetry_group_IT_number 15
_symmetry_cell_setting 'monoclinic'
loop_
_space_group_symop_operation_xyz
x,y,z
-x,y,1/2-z
-x,-y,-z
x,-y,1/2+z
1/2+x,1/2+y,z
1/2-x,1/2+y,1/2-z
1/2-x,1/2-y,-z
1/2+x,1/2-y,1/2+z
loop_
_atom_site_type_symbol
_atom_site_label
_atom_site_fract_x
_atom_site_fract_y
_atom_site_fract_z
Si Si1 0.676352 0.851547 0.249659
Si Si2 0.462809 0.319879 0.028633
Si Si3 0.500000 0.032390 0.750000
Si Si4 0.500000 0.724152 0.250000
Si Si5 0.645614 0.928803 0.527759
Si Si6 0.433106 0.540809 0.918367
Si Si7 0.105463 0.278722 0.599724
O O1 0.825811 0.836639 0.156821
O O2 0.620089 0.914398 0.194984
O O3 0.610639 0.778304 0.238747
O O4 0.651530 0.887186 0.395439
O O5 0.555063 0.376781 0.045789
O O6 0.520899 0.241760 0.024413
O O7 0.456756 0.324532 0.885506
O O8 0.528612 0.981181 0.620379
O O9 0.780280 0.969408 0.479850
O O10 0.629135 0.860204 0.624120
O O11 0.500000 0.529536 0.750000
O O12 0.500000 0.500000 0.000000
O O13 0.250000 0.250000 0.500000
O O14 0.000000 0.247677 0.750000
#
# Coordination Sequence:
#
# PCOD9305860 Si02
#       7
#     8   8   4   4   8   8   8
#     4  11  24  48  69 105 154 195 249 321 375 459
#     4  12  24  45  72 104 150 196 245 312 384 452
#     4  11  26  46  70 104 143 200 258 310 377 450
#     4  11  26  42  72 110 145 198 254 304 395 448
#     4  12  23  45  71 104 143 193 252 307 381 449
#     4  12  27  47  74 107 149 200 251 313 381 461
#     4  12  24  43  73 108 144 189 246 313 377 456
#
# _framework density 22.585508999999998
#
# number of rings (size 3 to 8) (size 9 to 14) (size 15 to 20)
#    0.000    0.333    5.833    3.500    1.167    0.000 
#    0.000    0.000    0.000    0.000    0.000    0.000 
#    0.000    0.000    0.000    0.000    0.000    0.000 
#
# Total GULP energy -133720.721158 kJ/mol
# GULP energy per Si atom -5571.696715 kJ/mol
# Density = 2.253410 g / cm^3
# Si number density = 22.585509 Si / 1000 Ang^3
#
#
#
# Elastic Constant Matrix: (Units=GPa)
#
#
# Indices 1 2 3 4 5 6 
#
# 1 55.4248 15.4144 31.1422 0.0000 -5.2658 0.0000
# 2 15.4144 74.5619 30.6520 0.0000 -11.3344 0.0000
# 3 31.1422 30.6520 129.6804 0.0000 2.1504 0.0000
# 4 0.0000 0.0000 0.0000 29.0268 0.0000 -4.4085
# 5 -5.2658 -11.3344 2.1504 0.0000 45.1075 0.0000
# 6 0.0000 0.0000 0.0000 -4.4085 0.0000 67.7373
#
#
#
# Elastic Compliance Matrix: (Units=1/GPa)
#
#
# Indices 1 2 3 4 5 6 
#
# 1 0.021487 -0.002187 -0.004679 0.000000 0.002182 0.000000
# 2 -0.002187 0.015798 -0.003273 0.000000 0.003870 0.000000
# 3 -0.004679 -0.003273 0.009639 0.000000 -0.001828 0.000000
# 4 0.000000 0.000000 0.000000 0.034795 0.000000 0.002265
# 5 0.002182 0.003870 -0.001828 0.000000 0.023484 0.000000
# 6 0.000000 0.000000 0.000000 0.002265 0.000000 0.014910
#
#
# Mechanical properties :
#
#
# Convention : Reuss Voigt Hill
#
# Bulk Modulus (GPa) = 37.52990 46.00936 41.76963
# Shear Modulus (GPa) = 33.49575 40.53822 37.01699
#
# Velocity S-wave (km/s) = 3.85523 4.24120 4.05281
# Velocity P-wave (km/s) = 6.03904 6.66326 6.35881
#
# Compressibility (1/GPa) = 0.02664542
#
# Stress axis : x y z
#
# Youngs Moduli (GPa) = 46.53940 63.30066 103.74573
#
# Poissons Ratio (x) = 0.13842 0.48546
# Poissons Ratio (y) = 0.10177 0.33957
# Poissons Ratio (z) = 0.21777 0.20719
#
# Static dielectric constant tensor:
#      x y z
#    x 1.849930 0.000000 0.101710 
#    y 0.000000 1.902300 0.000000 
#    z 0.101710 0.000000 1.931110 
# 
# From -- ./inp_files/89439.got.cif
#   From: 2010.05.17/outbox.cif.g08.bks.cpg/sg15_45_cif.got.tgz:89439.got - 2010.06.03 18:47:42.
