data_PCOD9305248
_publ_section_title
;
Structure prediction by ZEFSAII (Michael W. Deem and Ramdas Pophale) SiO2 
 PCOD9305248
Probable space group: C 2/C
;
_chemical_formula_sum "Si O2"
_cell_formula_units_Z 48
_cell_length_a 16.266463
_cell_length_b 25.555311
_cell_length_c 9.073631
_cell_angle_alpha 90.000000
_cell_angle_beta 144.420342
_cell_angle_gamma 90.000000
_cell_volume 2194.596589
_symmetry_space_group_name_H-M "C 2/C"
_symmetry_group_IT_number 15
_symmetry_cell_setting 'monoclinic'
loop_
_space_group_symop_operation_xyz
x,y,z
-x,y,1/2-z
-x,-y,-z
x,-y,1/2+z
1/2+x,1/2+y,z
1/2-x,1/2+y,1/2-z
1/2-x,1/2-y,-z
1/2+x,1/2-y,1/2+z
loop_
_atom_site_type_symbol
_atom_site_label
_atom_site_fract_x
_atom_site_fract_y
_atom_site_fract_z
Si Si1 0.479364 0.410147 0.545412
Si Si2 0.500000 0.879444 0.750000
Si Si3 0.261635 0.037336 0.980706
Si Si4 0.000000 0.646354 0.750000
Si Si5 0.902367 0.792703 0.462407
Si Si6 0.090196 0.707312 0.611484
Si Si7 0.773652 0.434468 0.833858
O O1 0.500000 0.421364 0.750000
O O2 0.382153 0.451485 0.318256
O O3 0.406787 0.353333 0.422160
O O4 0.631937 0.409313 0.692613
O O5 0.370286 0.917644 0.593338
O O6 0.464509 0.840283 0.566550
O O7 0.315252 0.980891 0.006506
O O8 0.245343 0.041453 0.132061
O O9 0.906318 0.682614 0.719723
O O10 0.895279 0.608864 0.507408
O O11 0.743642 0.776901 0.275000
O O12 0.977617 0.754351 0.456140
O O13 0.000000 0.791232 0.750000
#
# Coordination Sequence:
#
# PCOD9305248 Si02
#       7
#     8   4   8   4   8   8   8
#     4  11  24  46  73 103 144 184 236 291 353 424
#     4  12  27  48  68 100 146 182 231 302 354 424
#     4  12  26  47  69 103 142 182 239 294 359 421
#     4  12  25  44  72 104 142 186 239 288 352 428
#     4  11  24  43  75 105 140 187 236 294 349 427
#     4  12  26  46  71 107 143 186 242 290 358 423
#     4  12  27  43  73 103 138 191 233 297 354 425
#
# _framework density 21.8719
#
# number of rings (size 3 to 8) (size 9 to 14) (size 15 to 20)
#    0.000    0.333    4.167    5.000    4.667    2.000 
#    3.000    0.000    0.000    0.000    0.000    0.000 
#    0.000    0.000    0.000    0.000    0.000    0.000 
#
# Total GULP energy -134352.544564 kJ/mol
# GULP energy per Si atom -5598.022690 kJ/mol
# Density = 2.182212 g / cm^3
# Si number density = 21.871900 Si / 1000 Ang^3
#
#
#
# Elastic Constant Matrix: (Units=GPa)
#
#
# Indices 1 2 3 4 5 6 
#
# 1 122.0858 28.2197 41.8681 0.0000 5.9239 0.0000
# 2 28.2197 58.3131 7.7895 0.0000 7.0315 0.0000
# 3 41.8681 7.7895 68.4712 0.0000 18.9410 0.0000
# 4 0.0000 0.0000 0.0000 16.4934 0.0000 14.3260
# 5 5.9239 7.0315 18.9410 0.0000 42.8283 0.0000
# 6 0.0000 0.0000 0.0000 14.3260 0.0000 36.0358
#
#
#
# Elastic Compliance Matrix: (Units=1/GPa)
#
#
# Indices 1 2 3 4 5 6 
#
# 1 0.011719 -0.004992 -0.007265 0.000000 0.002412 0.000000
# 2 -0.004992 0.019734 0.001723 0.000000 -0.003312 0.000000
# 3 -0.007265 0.001723 0.021251 0.000000 -0.008676 0.000000
# 4 0.000000 0.000000 0.000000 0.092608 0.000000 -0.036816
# 5 0.002412 -0.003312 -0.008676 0.000000 0.027396 0.000000
# 6 0.000000 0.000000 0.000000 -0.036816 0.000000 0.042387
#
#
# Mechanical properties :
#
#
# Convention : Reuss Voigt Hill
#
# Bulk Modulus (GPa) = 31.60855 44.95830 38.28342
# Shear Modulus (GPa) = 20.26686 30.47101 25.36894
#
# Velocity S-wave (km/s) = 3.04734 3.73655 3.40941
# Velocity P-wave (km/s) = 5.18312 6.26224 5.74806
#
# Compressibility (1/GPa) = 0.03163701
#
# Stress axis : x y z
#
# Youngs Moduli (GPa) = 85.32933 50.67513 47.05605
#
# Poissons Ratio (x) = 0.25295 0.34187
# Poissons Ratio (y) = 0.42594 -0.08110
# Poissons Ratio (z) = 0.61994 -0.08733
#
# Static dielectric constant tensor:
#      x y z
#    x 1.786800 0.000000 -0.013750 
#    y 0.000000 1.788790 0.000000 
#    z -0.013750 0.000000 1.810590 
# 
# From -- ./inp_files/43870.got.cif
#   From: 2010.05.17/outbox.cif.g08.bks.cpg/sg15_22_cif.got.tgz:43870.got - 2010.06.03 18:47:42.
