data_PCOD9305845
_publ_section_title
;
Structure prediction by ZEFSAII (Michael W. Deem and Ramdas Pophale) SiO2 
 PCOD9305845
Probable space group: C 2/C
;
_chemical_formula_sum "Si O2"
_cell_formula_units_Z 28
_cell_length_a 7.331604
_cell_length_b 12.696786
_cell_length_c 12.922536
_cell_angle_alpha 90.000000
_cell_angle_beta 60.281458
_cell_angle_gamma 90.000000
_cell_volume 1044.710442
_symmetry_space_group_name_H-M "C 2/C"
_symmetry_group_IT_number 15
_symmetry_cell_setting 'monoclinic'
loop_
_space_group_symop_operation_xyz
x,y,z
-x,y,1/2-z
-x,-y,-z
x,-y,1/2+z
1/2+x,1/2+y,z
1/2-x,1/2+y,1/2-z
1/2-x,1/2-y,-z
1/2+x,1/2-y,1/2+z
loop_
_atom_site_type_symbol
_atom_site_label
_atom_site_fract_x
_atom_site_fract_y
_atom_site_fract_z
Si Si1 0.948958 0.507902 0.147911
Si Si2 0.500000 0.556250 0.750000
Si Si3 0.628361 0.396635 0.002543
Si Si4 0.525618 0.240870 0.621150
O O1 0.704295 0.517998 0.193622
O O2 0.866807 0.569683 0.461850
O O3 0.000000 0.540760 0.250000
O O4 0.983612 0.383188 0.133656
O O5 0.512351 0.627016 0.643505
O O6 0.617100 0.309293 0.917130
O O7 0.500000 0.500000 0.000000
O O8 0.500000 0.270377 0.750000
O O9 0.750000 0.250000 0.500000
#
# Coordination Sequence:
#
# PCOD9305845 Si02
#       4
#     8   4   8   8
#     4  11  24  48  74 108 156 201 261 321 389 464
#     4  12  26  48  70 110 158 196 260 330 378 472
#     4  12  24  44  76 112 148 209 261 314 403 463
#     4  11  24  47  79 114 158 205 260 330 389 467
#
# _framework density 26.801686
#
# number of rings (size 3 to 8) (size 9 to 14) (size 15 to 20)
#    0.000    0.571    5.714    2.571    2.000    1.143 
#    7.714    0.000    0.000    0.000    0.000    0.000 
#    0.000    0.000    0.000    0.000    0.000    0.000 
#
# Total GULP energy -78435.991836 kJ/mol
# GULP energy per Si atom -5602.570845 kJ/mol
# Density = 2.674068 g / cm^3
# Si number density = 26.801686 Si / 1000 Ang^3
#
#
#
# Elastic Constant Matrix: (Units=GPa)
#
#
# Indices 1 2 3 4 5 6 
#
# 1 186.3631 25.5336 70.8564 0.0000 -32.9651 0.0000
# 2 25.5336 88.2445 47.8091 0.0000 -2.9732 0.0000
# 3 70.8564 47.8091 268.3852 0.0000 26.3197 0.0000
# 4 0.0000 0.0000 0.0000 28.6573 0.0000 -10.0729
# 5 -32.9651 -2.9732 26.3197 0.0000 60.1081 0.0000
# 6 0.0000 0.0000 0.0000 -10.0729 0.0000 33.6819
#
#
#
# Elastic Compliance Matrix: (Units=1/GPa)
#
#
# Indices 1 2 3 4 5 6 
#
# 1 0.007182 -0.000693 -0.002252 0.000000 0.004891 0.000000
# 2 -0.000693 0.012772 -0.002212 0.000000 0.001220 0.000000
# 3 -0.002252 -0.002212 0.005064 0.000000 -0.003562 0.000000
# 4 0.000000 0.000000 0.000000 0.038994 0.000000 0.011662
# 5 0.004891 0.001220 -0.003562 0.000000 0.020939 0.000000
# 6 0.000000 0.000000 0.000000 0.011662 0.000000 0.033177
#
#
# Mechanical properties :
#
#
# Convention : Reuss Voigt Hill
#
# Bulk Modulus (GPa) = 68.00986 92.37678 80.19332
# Shear Modulus (GPa) = 37.49682 51.07573 44.28628
#
# Velocity S-wave (km/s) = 3.74444 4.37016 4.06934
# Velocity P-wave (km/s) = 6.64265 7.74635 7.21563
#
# Compressibility (1/GPa) = 0.01470375
#
# Stress axis : x y z
#
# Youngs Moduli (GPa) = 139.23004 78.29541 197.47361
#
# Poissons Ratio (x) = 0.05427 0.44479
# Poissons Ratio (y) = 0.09651 0.43678
# Poissons Ratio (z) = 0.31360 0.17318
#
# Static dielectric constant tensor:
#      x y z
#    x 2.134520 0.000000 0.022960 
#    y 0.000000 2.039370 0.000000 
#    z 0.022960 0.000000 2.245720 
# 
# From -- ./inp_files/75502.got.cif
#   From: 2010.05.17/outbox.cif.g08.bks.cpg/sg15_38_cif.got.tgz:75502.got - 2010.06.03 18:47:42.
