data_PCOD9305778
_publ_section_title
;
Structure prediction by ZEFSAII (Michael W. Deem and Ramdas Pophale) SiO2 
 PCOD9305778
Probable space group: C 2/C
;
_chemical_formula_sum "Si O2"
_cell_formula_units_Z 44
_cell_length_a 10.424497
_cell_length_b 20.342591
_cell_length_c 13.126068
_cell_angle_alpha 90.000000
_cell_angle_beta 133.662570
_cell_angle_gamma 90.000000
_cell_volume 2013.657176
_symmetry_space_group_name_H-M "C 2/C"
_symmetry_group_IT_number 15
_symmetry_cell_setting 'monoclinic'
loop_
_space_group_symop_operation_xyz
x,y,z
-x,y,1/2-z
-x,-y,-z
x,-y,1/2+z
1/2+x,1/2+y,z
1/2-x,1/2+y,1/2-z
1/2-x,1/2-y,-z
1/2+x,1/2-y,1/2+z
loop_
_atom_site_type_symbol
_atom_site_label
_atom_site_fract_x
_atom_site_fract_y
_atom_site_fract_z
Si Si1 0.260283 0.057283 0.463779
Si Si2 0.000000 0.636347 0.750000
Si Si3 0.123931 0.109573 0.185771
Si Si4 0.923722 0.286269 0.555793
Si Si5 0.665761 0.075069 0.399308
Si Si6 0.191322 0.738563 0.726812
O O1 0.415014 0.093269 0.612548
O O2 0.250864 0.075412 0.339474
O O3 0.072925 0.082493 0.406223
O O4 0.266705 0.979188 0.485458
O O5 0.151969 0.686041 0.792382
O O6 0.192287 0.095737 0.109140
O O7 0.128304 0.187112 0.212809
O O8 0.750000 0.250000 0.500000
O O9 0.910927 0.359364 0.591743
O O10 0.914471 0.286136 0.429376
O O11 0.101319 0.248184 0.684265
O O12 0.500000 0.043594 0.250000
#
# Coordination Sequence:
#
# PCOD9305778 Si02
#       6
#     8   4   8   8   8   8
#     4  11  26  46  69 102 141 186 231 279 347 418
#     4  12  26  42  70 106 136 184 238 280 340 426
#     4  11  24  47  71  97 143 183 226 292 344 402
#     4  12  24  46  72 104 137 180 228 292 348 402
#     4  12  24  46  73 101 142 181 228 289 349 407
#     4  12  25  45  73 103 140 181 236 289 347 407
#
# _framework density 21.85079
#
# number of rings (size 3 to 8) (size 9 to 14) (size 15 to 20)
#    0.000    0.364    4.545    4.364    0.000    4.364 
#    6.545    0.000    0.000    0.000    0.000    0.000 
#    0.000    0.000    0.000    0.000    0.000    0.000 
#
# Total GULP energy -123120.753807 kJ/mol
# GULP energy per Si atom -5596.397900 kJ/mol
# Density = 2.180106 g / cm^3
# Si number density = 21.850790 Si / 1000 Ang^3
#
#
#
# Elastic Constant Matrix: (Units=GPa)
#
#
# Indices 1 2 3 4 5 6 
#
# 1 58.4114 26.8545 5.8205 0.0000 2.4207 0.0000
# 2 26.8545 120.3915 38.1978 0.0000 -10.3529 0.0000
# 3 5.8205 38.1978 93.2021 0.0000 -4.5098 0.0000
# 4 0.0000 0.0000 0.0000 36.2346 0.0000 2.2876
# 5 2.4207 -10.3529 -4.5098 0.0000 47.1780 0.0000
# 6 0.0000 0.0000 0.0000 2.2876 0.0000 -42.3749
#
#
#
# Elastic Compliance Matrix: (Units=1/GPa)
#
#
# Indices 1 2 3 4 5 6 
#
# 1 0.019284 -0.004664 0.000613 0.000000 -0.001954 0.000000
# 2 -0.004664 0.010818 -0.004035 0.000000 0.002228 0.000000
# 3 0.000613 -0.004035 0.012357 0.000000 0.000264 0.000000
# 4 0.000000 0.000000 0.000000 0.027504 0.000000 0.001485
# 5 -0.001954 0.002228 0.000264 0.000000 0.021811 0.000000
# 6 0.000000 0.000000 0.000000 0.001485 0.000000 -0.023519
#
#
# Mechanical properties :
#
#
# Convention : Reuss Voigt Hill
#
# Bulk Modulus (GPa) = 38.04045 45.97229 42.00637
# Shear Modulus (GPa) = 53.65338 21.61635 37.63486
#
# Velocity S-wave (km/s) = 4.96062 3.14868 4.15463
# Velocity P-wave (km/s) = 7.08924 5.85694 6.50235
#
# Compressibility (1/GPa) = 0.02628781
#
# Stress axis : x y z
#
# Youngs Moduli (GPa) = 51.85606 92.43638 80.92262
#
# Poissons Ratio (x) = 0.43112 -0.04957
# Poissons Ratio (y) = 0.24185 0.32650
# Poissons Ratio (z) = -0.03177 0.37295
#
# Static dielectric constant tensor:
#      x y z
#    x 1.889550 0.000000 -0.104130 
#    y 0.000000 1.773630 0.000000 
#    z -0.104130 0.000000 1.916370 
# 
# From -- ./inp_files/147281.got.cif
#   From: 2010.05.17/outbox.cif.g08.bks.cpg/sg15_74_cif.got.tgz:147281.got - 2010.06.03 18:47:42.
