data_PCOD9305196
_publ_section_title
;
Structure prediction by ZEFSAII (Michael W. Deem and Ramdas Pophale) SiO2 
 PCOD9305196
Probable space group: C 2/C
;
_chemical_formula_sum "Si O2"
_cell_formula_units_Z 32
_cell_length_a 14.532123
_cell_length_b 12.384812
_cell_length_c 9.831351
_cell_angle_alpha 90.000000
_cell_angle_beta 41.947804
_cell_angle_gamma 90.000000
_cell_volume 1182.776742
_symmetry_space_group_name_H-M "C 2/C"
_symmetry_group_IT_number 15
_symmetry_cell_setting 'monoclinic'
loop_
_space_group_symop_operation_xyz
x,y,z
-x,y,1/2-z
-x,-y,-z
x,-y,1/2+z
1/2+x,1/2+y,z
1/2-x,1/2+y,1/2-z
1/2-x,1/2-y,-z
1/2+x,1/2-y,1/2+z
loop_
_atom_site_type_symbol
_atom_site_label
_atom_site_fract_x
_atom_site_fract_y
_atom_site_fract_z
Si Si1 0.849927 0.205919 0.508250
Si Si2 0.916214 0.250283 0.060936
Si Si3 0.621720 0.963678 0.536078
Si Si4 0.191052 0.957414 0.918985
O O1 0.750000 0.250000 0.500000
O O2 0.002455 0.246984 0.105396
O O3 0.748082 0.233096 0.745689
O O4 0.861887 0.077133 0.488499
O O5 0.924118 0.131438 0.988032
O O6 0.954339 0.359710 0.943289
O O7 0.500000 0.027227 0.750000
O O8 0.728011 0.926721 0.534023
O O9 0.705676 0.025159 0.324890
#
# Coordination Sequence:
#
# PCOD9305196 Si02
#       4
#     8   8   8   8
#     4  11  24  43  69 101 143 186 234 291 354 421
#     4  11  24  45  68 102 140 186 236 291 350 421
#     4  11  24  43  71 106 144 185 235 293 353 420
#     4  11  24  43  71 103 139 189 238 289 352 422
#
# _framework density 27.054977999999998
#
# number of rings (size 3 to 8) (size 9 to 14) (size 15 to 20)
#    0.000    1.000    0.000    6.000    0.000    8.000 
#    0.000    7.500    0.000    0.000    0.000    0.000 
#    0.000    0.000    0.000    0.000    0.000    0.000 
#
# Total GULP energy -89515.478465 kJ/mol
# GULP energy per Si atom -5594.717404 kJ/mol
# Density = 2.699340 g / cm^3
# Si number density = 27.054978 Si / 1000 Ang^3
#
#
#
# Elastic Constant Matrix: (Units=GPa)
#
#
# Indices 1 2 3 4 5 6 
#
# 1 200.2057 62.4764 54.7992 0.0000 31.7873 0.0000
# 2 62.4764 190.9706 21.0478 0.0000 20.7888 0.0000
# 3 54.7992 21.0478 108.5516 0.0000 6.8197 0.0000
# 4 0.0000 0.0000 0.0000 5.2531 0.0000 8.2018
# 5 31.7873 20.7888 6.8197 0.0000 66.5230 0.0000
# 6 0.0000 0.0000 0.0000 8.2018 0.0000 18.2277
#
#
#
# Elastic Compliance Matrix: (Units=1/GPa)
#
#
# Indices 1 2 3 4 5 6 
#
# 1 0.006669 -0.001602 -0.002906 0.000000 -0.002388 0.000000
# 2 -0.001602 0.005905 -0.000270 0.000000 -0.001052 0.000000
# 3 -0.002906 -0.000270 0.010708 0.000000 0.000375 0.000000
# 4 0.000000 0.000000 0.000000 0.639985 0.000000 -0.287970
# 5 -0.002388 -0.001052 0.000375 0.000000 0.016464 0.000000
# 6 0.000000 0.000000 0.000000 -0.287970 0.000000 0.184437
#
#
# Mechanical properties :
#
#
# Convention : Reuss Voigt Hill
#
# Bulk Modulus (GPa) = 72.85434 86.26384 79.55909
# Shear Modulus (GPa) = 5.69282 42.09439 23.89360
#
# Velocity S-wave (km/s) = 1.45215 3.94875 2.97501
# Velocity P-wave (km/s) = 5.45879 7.26251 6.42427
#
# Compressibility (1/GPa) = 0.01372602
#
# Stress axis : x y z
#
# Youngs Moduli (GPa) = 149.93962 169.35652 93.38665
#
# Poissons Ratio (x) = 0.27124 0.27140
# Poissons Ratio (y) = 0.24014 0.02524
# Poissons Ratio (z) = 0.43576 0.04577
#
# Static dielectric constant tensor:
#      x y z
#    x 1.995440 0.000000 -0.042750 
#    y 0.000000 2.157420 0.000000 
#    z -0.042750 0.000000 2.509360 
# 
# From -- ./inp_files/36882.got.cif
#   From: 2010.05.17/outbox.cif.g08.bks.cpg/sg15_19_cif.got.tgz:36882.got - 2010.06.03 18:47:42.
