data_PCOD9305795
_publ_section_title
;
Structure prediction by ZEFSAII (Michael W. Deem and Ramdas Pophale) SiO2 
 PCOD9305795
Probable space group: C 2/C
;
_chemical_formula_sum "Si O2"
_cell_formula_units_Z 52
_cell_length_a 5.532957
_cell_length_b 17.565638
_cell_length_c 31.478358
_cell_angle_alpha 90.000000
_cell_angle_beta 49.732872
_cell_angle_gamma 90.000000
_cell_volume 2334.426426
_symmetry_space_group_name_H-M "C 2/C"
_symmetry_group_IT_number 15
_symmetry_cell_setting 'monoclinic'
loop_
_space_group_symop_operation_xyz
x,y,z
-x,y,1/2-z
-x,-y,-z
x,-y,1/2+z
1/2+x,1/2+y,z
1/2-x,1/2+y,1/2-z
1/2-x,1/2-y,-z
1/2+x,1/2-y,1/2+z
loop_
_atom_site_type_symbol
_atom_site_label
_atom_site_fract_x
_atom_site_fract_y
_atom_site_fract_z
Si Si1 0.414754 0.129362 0.365262
Si Si2 0.313239 0.957715 0.355702
Si Si3 0.937326 0.246974 0.709707
Si Si4 0.000000 0.609474 0.750000
Si Si5 0.677887 0.823203 0.927619
Si Si6 0.012273 0.666502 0.602788
Si Si7 0.112378 0.420121 0.467384
O O1 0.642661 0.177635 0.308101
O O2 0.529598 0.150972 0.399585
O O3 0.037937 0.145501 0.396845
O O4 0.437895 0.039448 0.355190
O O5 0.334381 0.942722 0.303492
O O6 0.505300 0.891512 0.356634
O O7 0.964502 0.939746 0.412627
O O8 0.733478 0.172413 0.743068
O O9 0.000000 0.276674 0.750000
O O10 0.188941 0.213037 0.646665
O O11 0.721700 0.731917 0.923818
O O12 0.451444 0.857440 0.989371
O O13 0.048102 0.616635 0.556289
O O14 0.000000 0.500000 0.500000
#
# Coordination Sequence:
#
# PCOD9305795 Si02
#       7
#     8   8   8   4   8   8   8
#     4  11  27  47  73 109 148 190 245 309 382 443
#     4  12  26  44  75 105 151 193 253 310 382 449
#     4  11  24  47  73 103 141 194 247 311 368 447
#     4  12  24  46  72 108 138 196 248 316 368 458
#     4  11  26  48  73 107 151 196 246 305 374 457
#     4  11  25  45  73 109 144 200 251 311 369 459
#     4  12  25  45  73 108 155 197 249 311 385 447
#
# _framework density 22.275278
#
# number of rings (size 3 to 8) (size 9 to 14) (size 15 to 20)
#    0.000    0.615    4.615    2.308    7.538    1.846 
#    0.000    1.538    0.000    0.000    0.000    0.000 
#    0.000    0.000    0.000    0.000    0.000    0.000 
#
# Total GULP energy -144945.330294 kJ/mol
# GULP energy per Si atom -5574.820396 kJ/mol
# Density = 2.222458 g / cm^3
# Si number density = 22.275278 Si / 1000 Ang^3
#
#
#
# Elastic Constant Matrix: (Units=GPa)
#
#
# Indices 1 2 3 4 5 6 
#
# 1 75.6981 27.5174 32.6504 -0.0067 13.5845 -0.0002
# 2 27.5174 155.3315 30.7120 -0.0048 4.5188 0.0017
# 3 32.6504 30.7120 127.0033 -0.0016 21.7194 0.0019
# 4 -0.0067 -0.0048 -0.0016 20.7451 -0.0020 33.9897
# 5 13.5845 4.5188 21.7194 -0.0020 39.2470 0.0003
# 6 -0.0002 0.0017 0.0019 33.9897 0.0003 21.4560
#
#
#
# Elastic Compliance Matrix: (Units=1/GPa)
#
#
# Indices 1 2 3 4 5 6 
#
# 1 0.015910 -0.002129 -0.002955 -0.000002 -0.003626 0.000004
# 2 -0.002129 0.007047 -0.001264 -0.000001 0.000625 0.000001
# 3 -0.002955 -0.001264 0.009653 0.000000 -0.004174 0.000000
# 4 -0.000002 -0.000001 0.000000 -0.030211 -0.000001 0.047860
# 5 -0.003626 0.000625 -0.004174 -0.000001 0.028973 0.000001
# 6 0.000004 0.000001 0.000000 0.047860 0.000001 -0.029210
#
#
# Mechanical properties :
#
#
# Convention : Reuss Voigt Hill
#
# Bulk Modulus (GPa) = 50.21560 59.97694 55.09627
# Shear Modulus (GPa) = 232.63687 34.09980 133.36834
#
# Velocity S-wave (km/s) = 10.23054 3.91683 7.74615
# Velocity P-wave (km/s) = 12.73358 6.88762 10.23678
#
# Compressibility (1/GPa) = 0.01991413
#
# Stress axis : x y z
#
# Youngs Moduli (GPa) = 62.85528 141.91227 103.59637
#
# Poissons Ratio (x) = 0.30208 0.30615
# Poissons Ratio (y) = 0.13380 0.13091
# Poissons Ratio (z) = 0.18575 0.17932
#
# Static dielectric constant tensor:
#      x y z
#    x 3.363030 0.000060 0.638320 
#    y 0.000060 2.003830 0.000020 
#    z 0.638320 0.000020 2.139240 
# 
# From -- ./inp_files/285968.got.cif
#   From: 2010.05.17/outbox.cif.g08.bks.cpg/sg15_143_cif.got.tgz:285968.got - 2010.06.03 18:47:42.
