data_PCOD9305274
_publ_section_title
;
Structure prediction by ZEFSAII (Michael W. Deem and Ramdas Pophale) SiO2 
 PCOD9305274
Probable space group: C 2/C
;
_chemical_formula_sum "Si O2"
_cell_formula_units_Z 40
_cell_length_a 5.169222
_cell_length_b 13.040694
_cell_length_c 26.961062
_cell_angle_alpha 90.000000
_cell_angle_beta 94.284311
_cell_angle_gamma 90.000000
_cell_volume 1812.373085
_symmetry_space_group_name_H-M "C 2/C"
_symmetry_group_IT_number 15
_symmetry_cell_setting 'monoclinic'
loop_
_space_group_symop_operation_xyz
x,y,z
-x,y,1/2-z
-x,-y,-z
x,-y,1/2+z
1/2+x,1/2+y,z
1/2-x,1/2+y,1/2-z
1/2-x,1/2-y,-z
1/2+x,1/2-y,1/2+z
loop_
_atom_site_type_symbol
_atom_site_label
_atom_site_fract_x
_atom_site_fract_y
_atom_site_fract_z
Si Si1 0.522258 0.042109 0.894160
Si Si2 0.970051 0.274366 0.043829
Si Si3 0.500000 0.303409 0.250000
Si Si4 0.207958 0.081738 0.022369
Si Si5 0.493180 0.517447 0.830570
Si Si6 0.500000 0.658774 0.250000
O O1 0.608301 0.157421 0.910795
O O2 0.230018 0.032719 0.871890
O O3 0.720843 0.006945 0.854814
O O4 0.570316 0.975190 0.944140
O O5 0.081616 0.163798 0.058029
O O6 0.750000 0.250000 0.000000
O O7 0.182931 0.346788 0.019839
O O8 0.512520 0.380924 0.203623
O O9 0.247963 0.231249 0.245376
O O10 0.000000 0.000000 0.000000
O O11 0.540069 0.418286 0.796906
#
# Coordination Sequence:
#
# PCOD9305274 Si02
#       6
#     8   8   4   8   8   4
#     4  12  25  44  69 101 143 174 233 290 330 405
#     4  11  25  42  66  94 136 191 236 275 347 393
#     4  11  24  49  76  98 142 175 214 279 356 418
#     4  11  24  44  65  93 137 191 233 285 337 398
#     4  11  27  45  68 109 135 171 227 285 338 416
#     4  11  24  49  76  96 136 181 214 269 364 418
#
# _framework density 22.070512999999998
#
# number of rings (size 3 to 8) (size 9 to 14) (size 15 to 20)
#    0.000    0.800    2.000    4.200    5.600    8.000 
#    0.000    0.000    0.000    0.000    0.000    0.000 
#    0.000    0.000    0.000    0.000    0.000    0.000 
#
# Total GULP energy -111934.940407 kJ/mol
# GULP energy per Si atom -5596.747020 kJ/mol
# Density = 2.202028 g / cm^3
# Si number density = 22.070513 Si / 1000 Ang^3
#
#
#
# Elastic Constant Matrix: (Units=GPa)
#
#
# Indices 1 2 3 4 5 6 
#
# 1 82.4469 30.7723 1.9963 0.0000 11.6891 0.0000
# 2 30.7723 151.6891 28.7654 0.0000 12.4162 0.0000
# 3 1.9963 28.7654 63.2337 0.0000 13.5807 0.0000
# 4 0.0000 0.0000 0.0000 23.9296 0.0000 -5.6503
# 5 11.6891 12.4162 13.5807 0.0000 45.6361 0.0000
# 6 0.0000 0.0000 0.0000 -5.6503 0.0000 52.9061
#
#
#
# Elastic Compliance Matrix: (Units=1/GPa)
#
#
# Indices 1 2 3 4 5 6 
#
# 1 0.013581 -0.002783 0.001519 0.000000 -0.003173 0.000000
# 2 -0.002783 0.007833 -0.003387 0.000000 -0.000410 0.000000
# 3 0.001519 -0.003387 0.018367 0.000000 -0.004933 0.000000
# 4 0.000000 0.000000 0.000000 0.042870 0.000000 0.004579
# 5 -0.003173 -0.000410 -0.004933 0.000000 0.024305 0.000000
# 6 0.000000 0.000000 0.000000 0.004579 0.000000 0.019390
#
#
# Mechanical properties :
#
#
# Convention : Reuss Voigt Hill
#
# Bulk Modulus (GPa) = 32.81124 46.71528 39.76326
# Shear Modulus (GPa) = 34.29140 40.21674 37.25407
#
# Velocity S-wave (km/s) = 3.94600 4.27335 4.11293
# Velocity P-wave (km/s) = 5.97160 6.74989 6.37264
#
# Compressibility (1/GPa) = 0.03047736
#
# Stress axis : x y z
#
# Youngs Moduli (GPa) = 73.63215 127.66487 54.44600
#
# Poissons Ratio (x) = 0.35534 -0.08270
# Poissons Ratio (y) = 0.20495 0.18443
# Poissons Ratio (z) = -0.11185 0.43244
#
# Static dielectric constant tensor:
#      x y z
#    x 1.847130 0.000000 -0.072760 
#    y 0.000000 1.851260 0.000000 
#    z -0.072760 0.000000 1.844340 
# 
# From -- ./inp_files/285268.got.cif
#   From: 2010.05.17/outbox.cif.g08.bks.cpg/sg15_143_cif.got.tgz:285268.got - 2010.06.03 18:47:42.
