data_PCOD9305189
_publ_section_title
;
Structure prediction by ZEFSAII (Michael W. Deem and Ramdas Pophale) SiO2 
 PCOD9305189
Probable space group: C 2/C
;
_chemical_formula_sum "Si O2"
_cell_formula_units_Z 40
_cell_length_a 5.027948
_cell_length_b 30.140297
_cell_length_c 11.308886
_cell_angle_alpha 90.000000
_cell_angle_beta 100.695865
_cell_angle_gamma 90.000000
_cell_volume 1684.016987
_symmetry_space_group_name_H-M "C 2/C"
_symmetry_group_IT_number 15
_symmetry_cell_setting 'monoclinic'
loop_
_space_group_symop_operation_xyz
x,y,z
-x,y,1/2-z
-x,-y,-z
x,-y,1/2+z
1/2+x,1/2+y,z
1/2-x,1/2+y,1/2-z
1/2-x,1/2-y,-z
1/2+x,1/2-y,1/2+z
loop_
_atom_site_type_symbol
_atom_site_label
_atom_site_fract_x
_atom_site_fract_y
_atom_site_fract_z
Si Si1 0.275072 0.301333 0.473311
Si Si2 0.794971 0.627933 0.329245
Si Si3 0.265908 0.660310 0.631329
Si Si4 0.636818 0.440437 0.393641
Si Si5 0.313587 0.536810 0.114133
O O1 0.250000 0.250000 0.500000
O O2 0.227032 0.334970 0.575535
O O3 0.577146 0.311868 0.455214
O O4 0.023634 0.317460 0.371381
O O5 0.500000 0.623033 0.250000
O O6 0.879988 0.578314 0.376384
O O7 0.000000 0.644253 0.250000
O O8 0.500000 0.660903 0.750000
O O9 0.235536 0.608608 0.592178
O O10 0.500000 0.439303 0.250000
O O11 0.800475 0.486757 0.402226
O O12 0.458197 0.448940 0.500039
O O13 0.500000 0.534339 0.250000
#
# Coordination Sequence:
#
# PCOD9305189 Si02
#       5
#     8   8   8   8   8
#     4  12  26  45  69 100 135 179 240 298 358 423
#     4  11  24  43  68  98 137 182 232 294 356 422
#     4  11  24  45  70 101 139 183 228 289 360 431
#     4   9  18  37  66 101 142 187 233 286 353 428
#     4   9  18  36  65 100 141 186 236 289 348 424
#
# _framework density 23.752731000000001
#
# number of rings (size 3 to 8) (size 9 to 14) (size 15 to 20)
#    0.000    1.600    2.000    2.400    2.800    2.400 
#    0.000    9.000    0.000    0.000    0.000    0.000 
#    0.000    0.000    0.000    0.000    0.000    0.000 
#
# Total GULP energy -111486.238527 kJ/mol
# GULP energy per Si atom -5574.311926 kJ/mol
# Density = 2.369867 g / cm^3
# Si number density = 23.752731 Si / 1000 Ang^3
#
#
#
# Elastic Constant Matrix: (Units=GPa)
#
#
# Indices 1 2 3 4 5 6 
#
# 1 74.1731 1.0853 15.7945 0.0000 21.3608 0.0000
# 2 1.0853 200.4496 24.2523 0.0000 24.4944 0.0000
# 3 15.7945 24.2523 102.7762 0.0000 4.0789 0.0000
# 4 0.0000 0.0000 0.0000 -46.3348 0.0000 116.4337
# 5 21.3608 24.4944 4.0789 0.0000 34.4034 0.0000
# 6 0.0000 0.0000 0.0000 116.4337 0.0000 -198.2382
#
#
#
# Elastic Compliance Matrix: (Units=1/GPa)
#
#
# Indices 1 2 3 4 5 6 
#
# 1 0.017363 0.001643 -0.002594 0.000000 -0.011643 0.000000
# 2 0.001643 0.005756 -0.001414 0.000000 -0.004950 0.000000
# 3 -0.002594 -0.001414 0.010407 0.000000 0.001383 0.000000
# 4 0.000000 0.000000 0.000000 0.045348 0.000000 0.026635
# 5 -0.011643 -0.004950 0.001383 0.000000 0.039656 0.000000
# 6 0.000000 0.000000 0.000000 0.026635 0.000000 0.010599
#
#
# Mechanical properties :
#
#
# Convention : Reuss Voigt Hill
#
# Bulk Modulus (GPa) = 34.72793 51.07366 42.90079
# Shear Modulus (GPa) = 34.85310 -19.61613 7.61848
#
# Velocity S-wave (km/s) = 3.83473 -2.87687 1.79287
# Velocity P-wave (km/s) = 5.85314 3.24248 4.73143
#
# Compressibility (1/GPa) = 0.02879527
#
# Stress axis : x y z
#
# Youngs Moduli (GPa) = 57.59319 173.73489 96.08638
#
# Poissons Ratio (x) = -0.28536 0.24924
# Poissons Ratio (y) = -0.09460 0.13588
# Poissons Ratio (z) = 0.14939 0.24569
#
# Static dielectric constant tensor:
#      x y z
#    x 2.305970 0.000000 0.288430 
#    y 0.000000 1.844920 0.000000 
#    z 0.288430 0.000000 2.160300 
# 
# From -- ./inp_files/73203.got.cif
#   From: 2010.05.17/outbox.cif.g08.bks.cpg/sg15_37_cif.got.tgz:73203.got - 2010.06.03 18:47:42.
