data_PCOD9305017
_publ_section_title
;
Structure prediction by ZEFSAII (Michael W. Deem and Ramdas Pophale) SiO2 
 PCOD9305017
Probable space group: C 2/C
;
_chemical_formula_sum "Si O2"
_cell_formula_units_Z 40
_cell_length_a 14.190288
_cell_length_b 14.706182
_cell_length_c 9.720854
_cell_angle_alpha 90.000000
_cell_angle_beta 122.176030
_cell_angle_gamma 90.000000
_cell_volume 1717.036167
_symmetry_space_group_name_H-M "C 2/C"
_symmetry_group_IT_number 15
_symmetry_cell_setting 'monoclinic'
loop_
_space_group_symop_operation_xyz
x,y,z
-x,y,1/2-z
-x,-y,-z
x,-y,1/2+z
1/2+x,1/2+y,z
1/2-x,1/2+y,1/2-z
1/2-x,1/2-y,-z
1/2+x,1/2-y,1/2+z
loop_
_atom_site_type_symbol
_atom_site_label
_atom_site_fract_x
_atom_site_fract_y
_atom_site_fract_z
Si Si1 0.723362 0.691927 0.173612
Si Si2 0.754562 0.992200 0.250698
Si Si3 0.624053 0.668925 0.796241
Si Si4 0.111854 0.525111 0.901012
Si Si5 0.376816 0.229140 0.658778
O O1 0.709241 0.596719 0.241226
O O2 0.844279 0.738822 0.259665
O O3 0.649912 0.765740 0.198448
O O4 0.691182 0.671775 0.991807
O O5 0.841381 0.916963 0.269769
O O6 0.714675 0.984746 0.375606
O O7 0.646035 0.981619 0.070520
O O8 0.500000 0.663771 0.750000
O O9 0.097864 0.633551 0.895188
O O10 0.000000 0.484590 0.750000
O O11 0.500000 0.278665 0.750000
O O12 0.250000 0.250000 0.500000
#
# Coordination Sequence:
#
# PCOD9305017 Si02
#       5
#     8   8   8   8   8
#     4  11  25  45  69 100 141 182 234 292 362 429
#     4  12  23  45  69 102 137 181 238 289 357 428
#     4  11  27  46  69 101 141 188 235 293 361 436
#     4  11  24  41  66  99 139 181 231 290 356 427
#     4  11  24  42  69 101 137 181 237 298 357 424
#
# _framework density 23.295957000000001
#
# number of rings (size 3 to 8) (size 9 to 14) (size 15 to 20)
#    0.000    0.800    6.000    0.600    2.800    2.400 
#    0.000    0.000    0.000    0.000    0.000    0.000 
#    0.000    0.000    0.000    0.000    0.000    0.000 
#
# Total GULP energy -111443.897556 kJ/mol
# GULP energy per Si atom -5572.194878 kJ/mol
# Density = 2.324293 g / cm^3
# Si number density = 23.295957 Si / 1000 Ang^3
#
#
#
# Elastic Constant Matrix: (Units=GPa)
#
#
# Indices 1 2 3 4 5 6 
#
# 1 110.2730 37.6917 10.8241 0.0000 15.9030 0.0000
# 2 37.6917 97.3315 23.7972 0.0000 12.6778 0.0000
# 3 10.8241 23.7972 46.4298 0.0000 6.8062 0.0000
# 4 0.0000 0.0000 0.0000 25.7023 0.0000 -3.6927
# 5 15.9030 12.6778 6.8062 0.0000 49.2896 0.0000
# 6 0.0000 0.0000 0.0000 -3.6927 0.0000 23.2280
#
#
#
# Elastic Compliance Matrix: (Units=1/GPa)
#
#
# Indices 1 2 3 4 5 6 
#
# 1 0.010738 -0.003789 -0.000201 0.000000 -0.002462 0.000000
# 2 -0.003789 0.013329 -0.005741 0.000000 -0.001413 0.000000
# 3 -0.000201 -0.005741 0.024803 0.000000 -0.001884 0.000000
# 4 0.000000 0.000000 0.000000 0.039816 0.000000 0.006330
# 5 -0.002462 -0.001413 -0.001884 0.000000 0.021706 0.000000
# 6 0.000000 0.000000 0.000000 0.006330 0.000000 0.044058
#
#
# Mechanical properties :
#
#
# Convention : Reuss Voigt Hill
#
# Bulk Modulus (GPa) = 34.00240 44.29559 39.14900
# Shear Modulus (GPa) = 27.21602 31.75876 29.48739
#
# Velocity S-wave (km/s) = 3.42171 3.69626 3.56163
# Velocity P-wave (km/s) = 5.49894 6.10508 5.80992
#
# Compressibility (1/GPa) = 0.02940969
#
# Stress axis : x y z
#
# Youngs Moduli (GPa) = 93.12581 75.02372 40.31699
#
# Poissons Ratio (x) = 0.28423 0.00809
# Poissons Ratio (y) = 0.35281 0.23147
# Poissons Ratio (z) = 0.01868 0.43074
#
# Static dielectric constant tensor:
#      x y z
#    x 1.893250 0.000000 0.083660 
#    y 0.000000 1.960890 0.000000 
#    z 0.083660 0.000000 2.023320 
# 
# From -- ./inp_files/96655.got.cif
#   From: 2010.05.17/outbox.cif.g08.bks.cpg/sg15_49_cif.got.tgz:96655.got - 2010.06.03 18:47:42.
