data_PCOD9305307
_publ_section_title
;
Structure prediction by ZEFSAII (Michael W. Deem and Ramdas Pophale) SiO2 
 PCOD9305307
Probable space group: C 2/C
;
_chemical_formula_sum "Si O2"
_cell_formula_units_Z 36
_cell_length_a 24.524433
_cell_length_b 6.682224
_cell_length_c 18.388423
_cell_angle_alpha 90.000000
_cell_angle_beta 145.873170
_cell_angle_gamma 90.000000
_cell_volume 1690.627830
_symmetry_space_group_name_H-M "C 2/C"
_symmetry_group_IT_number 15
_symmetry_cell_setting 'monoclinic'
loop_
_space_group_symop_operation_xyz
x,y,z
-x,y,1/2-z
-x,-y,-z
x,-y,1/2+z
1/2+x,1/2+y,z
1/2-x,1/2+y,1/2-z
1/2-x,1/2-y,-z
1/2+x,1/2-y,1/2+z
loop_
_atom_site_type_symbol
_atom_site_label
_atom_site_fract_x
_atom_site_fract_y
_atom_site_fract_z
Si Si1 0.754767 0.306701 0.619791
Si Si2 0.451546 0.505885 0.563209
Si Si3 0.696288 0.948971 0.467264
Si Si4 0.065272 0.695170 0.084854
Si Si5 0.500000 0.733719 0.250000
O O1 0.649036 0.404022 0.516783
O O2 0.802364 0.407349 0.601247
O O3 0.826764 0.345191 0.766083
O O4 0.740984 0.073571 0.583383
O O5 0.429825 0.330290 0.481695
O O6 0.511100 0.674604 0.586726
O O7 0.514824 0.410549 0.697683
O O8 0.750000 0.750000 0.500000
O O9 0.589379 0.874926 0.367555
O O10 0.000000 0.500000 0.000000
#
# Coordination Sequence:
#
# PCOD9305307 Si02
#       5
#     8   8   8   8   4
#     4  11  26  43  72 103 138 179 237 284 347 418
#     4  11  27  45  69 105 138 180 234 290 339 425
#     4  11  24  44  68 107 138 180 228 291 346 413
#     4  11  27  48  69 100 141 188 229 285 350 417
#     4  12  24  46  76 100 144 180 232 290 360 406
#
# _framework density 21.293865
#
# number of rings (size 3 to 8) (size 9 to 14) (size 15 to 20)
#    0.000    0.889    2.222    2.667   12.444    1.778 
#    0.000    0.000    0.000    0.000    0.000    0.000 
#    0.000    0.000    0.000    0.000    0.000    0.000 
#
# Total GULP energy -100715.779856 kJ/mol
# GULP energy per Si atom -5595.321103 kJ/mol
# Density = 2.124540 g / cm^3
# Si number density = 21.293865 Si / 1000 Ang^3
#
#
#
# Elastic Constant Matrix: (Units=GPa)
#
#
# Indices 1 2 3 4 5 6 
#
# 1 62.5417 18.0705 -3.9912 0.0000 -7.8417 0.0000
# 2 18.0705 124.6298 36.0336 -0.0002 -1.2832 -0.0001
# 3 -3.9912 36.0336 82.5921 -0.0001 -8.1052 0.0000
# 4 0.0000 -0.0002 -0.0001 35.8778 -0.0001 4.6480
# 5 -7.8417 -1.2832 -8.1052 -0.0001 36.0274 0.0000
# 6 0.0000 -0.0001 0.0000 4.6480 0.0000 24.5664
#
#
#
# Elastic Compliance Matrix: (Units=1/GPa)
#
#
# Indices 1 2 3 4 5 6 
#
# 1 0.017661 -0.003302 0.002720 0.000000 0.004338 0.000000
# 2 -0.003302 0.009812 -0.004578 0.000000 -0.001399 0.000000
# 3 0.002720 -0.004578 0.014601 0.000000 0.003714 0.000000
# 4 0.000000 0.000000 0.000000 0.028573 0.000000 -0.005406
# 5 0.004338 -0.001399 0.003714 0.000000 0.029487 0.000000
# 6 0.000000 0.000000 0.000000 -0.005406 0.000000 0.041729
#
#
# Mechanical properties :
#
#
# Convention : Reuss Voigt Hill
#
# Bulk Modulus (GPa) = 31.49271 41.10994 36.30132
# Shear Modulus (GPa) = 30.71891 33.93771 32.32831
#
# Velocity S-wave (km/s) = 3.80230 3.99655 3.90063
# Velocity P-wave (km/s) = 5.83938 6.37530 6.11321
#
# Compressibility (1/GPa) = 0.03175338
#
# Stress axis : x y z
#
# Youngs Moduli (GPa) = 56.62168 101.91921 68.48982
#
# Poissons Ratio (x) = 0.33659 -0.18629
# Poissons Ratio (y) = 0.18699 0.31352
# Poissons Ratio (z) = -0.15401 0.46654
#
# Static dielectric constant tensor:
#      x y z
#    x 1.755100 0.000000 -0.007580 
#    y 0.000000 1.782430 0.000000 
#    z -0.007580 0.000000 1.749780 
# 
# From -- ./inp_files/170435.got.cif
#   From: 2010.05.17/outbox.cif.g08.bks.cpg/sg15_86_cif.got.tgz:170435.got - 2010.06.03 18:47:42.
