data_PCOD9305535
_publ_section_title
;
Structure prediction by ZEFSAII (Michael W. Deem and Ramdas Pophale) SiO2 
 PCOD9305535
Probable space group: C 2/C
;
_chemical_formula_sum "Si O2"
_cell_formula_units_Z 48
_cell_length_a 25.970408
_cell_length_b 10.576735
_cell_length_c 21.274607
_cell_angle_alpha 90.000000
_cell_angle_beta 21.144135
_cell_angle_gamma 90.000000
_cell_volume 2107.931887
_symmetry_space_group_name_H-M "C 2/C"
_symmetry_group_IT_number 15
_symmetry_cell_setting 'monoclinic'
loop_
_space_group_symop_operation_xyz
x,y,z
-x,y,1/2-z
-x,-y,-z
x,-y,1/2+z
1/2+x,1/2+y,z
1/2-x,1/2+y,1/2-z
1/2-x,1/2-y,-z
1/2+x,1/2-y,1/2+z
loop_
_atom_site_type_symbol
_atom_site_label
_atom_site_fract_x
_atom_site_fract_y
_atom_site_fract_z
Si Si1 0.278761 0.346939 0.411846
Si Si2 0.427669 0.745899 0.962103
Si Si3 0.862619 0.908659 0.658856
Si Si4 0.552001 0.003478 0.511786
Si Si5 0.870191 0.722785 0.769982
Si Si6 0.150335 0.081100 0.097921
O O1 0.250000 0.250000 0.500000
O O2 0.445288 0.344619 0.204258
O O3 0.183391 0.293461 0.463669
O O4 0.253036 0.486008 0.470422
O O5 0.358765 0.680707 0.101606
O O6 0.505473 0.876065 0.892343
O O7 0.858762 0.818593 0.724468
O O8 0.722664 0.995223 0.819018
O O9 0.000000 0.000000 0.500000
O O10 0.500000 0.000000 0.500000
O O11 0.496748 0.127239 0.609606
O O12 0.890579 0.803280 0.809823
O O13 0.734342 0.634317 0.941784
O O14 0.000000 0.019503 0.250000
#
# Coordination Sequence:
#
# PCOD9305535 Si02
#       6
#     8   8   8   8   8   8
#     4  12  26  46  72 103 145 192 244 303 363 442
#     4  12  25  46  71 106 142 188 246 297 376 438
#     4  12  27  46  74 105 150 193 247 309 377 449
#     4  12  25  43  71 103 147 190 237 308 369 434
#     4  11  25  45  72 107 147 193 249 306 369 444
#     4  11  24  45  73 106 147 198 249 303 371 444
#
# _framework density 22.771132999999999
#
# number of rings (size 3 to 8) (size 9 to 14) (size 15 to 20)
#    0.000    0.333    1.667    7.500    2.333    4.000 
#    0.000    0.000    0.000    0.000    0.000    0.000 
#    0.000    0.000    0.000    0.000    0.000    0.000 
#
# Total GULP energy -134295.496463 kJ/mol
# GULP energy per Si atom -5595.645686 kJ/mol
# Density = 2.271930 g / cm^3
# Si number density = 22.771133 Si / 1000 Ang^3
#
#
#
# Elastic Constant Matrix: (Units=GPa)
#
#
# Indices 1 2 3 4 5 6 
#
# 1 122.1689 28.8885 40.2665 0.0000 13.2403 0.0000
# 2 28.8885 80.4922 5.6601 0.0002 15.5617 0.0000
# 3 40.2665 5.6601 99.3009 0.0001 9.8875 0.0000
# 4 0.0000 0.0002 0.0001 45.4760 0.0000 12.3690
# 5 13.2403 15.5617 9.8875 0.0000 36.3454 0.0000
# 6 0.0000 0.0000 0.0000 12.3690 0.0000 48.1002
#
#
#
# Elastic Compliance Matrix: (Units=1/GPa)
#
#
# Indices 1 2 3 4 5 6 
#
# 1 0.010367 -0.003185 -0.003887 0.000000 -0.001355 0.000000
# 2 -0.003185 0.014527 0.000994 0.000000 -0.005330 0.000000
# 3 -0.003887 0.000994 0.011811 0.000000 -0.002223 0.000000
# 4 0.000000 0.000000 0.000000 0.023643 0.000000 -0.006080
# 5 -0.001355 -0.005330 -0.002223 0.000000 0.030894 0.000000
# 6 0.000000 0.000000 0.000000 -0.006080 0.000000 0.022353
#
#
# Mechanical properties :
#
#
# Convention : Reuss Voigt Hill
#
# Bulk Modulus (GPa) = 40.73479 50.17690 45.45585
# Shear Modulus (GPa) = 37.33139 41.12745 39.22942
#
# Velocity S-wave (km/s) = 4.05336 4.25446 4.15513
# Velocity P-wave (km/s) = 6.31142 6.79831 6.55938
#
# Compressibility (1/GPa) = 0.02454904
#
# Stress axis : x y z
#
# Youngs Moduli (GPa) = 96.46316 68.83586 84.66460
#
# Poissons Ratio (x) = 0.21926 0.32911
# Poissons Ratio (y) = 0.30726 -0.08418
# Poissons Ratio (z) = 0.37497 -0.06844
#
# Static dielectric constant tensor:
#      x y z
#    x 1.885080 0.000000 -0.073280 
#    y 0.000000 1.832250 0.000000 
#    z -0.073280 0.000000 1.810170 
# 
# From -- ./inp_files/257590.got.cif
#   From: 2010.05.17/outbox.cif.g08.bks.cpg/sg15_129_cif.got.tgz:257590.got - 2010.06.03 18:47:42.
