data_PCOD9305191
_publ_section_title
;
Structure prediction by ZEFSAII (Michael W. Deem and Ramdas Pophale) SiO2 
 PCOD9305191
Probable space group: C 2/C
;
_chemical_formula_sum "Si O2"
_cell_formula_units_Z 40
_cell_length_a 15.015168
_cell_length_b 17.660557
_cell_length_c 21.107901
_cell_angle_alpha 90.000000
_cell_angle_beta 20.883427
_cell_angle_gamma 90.000000
_cell_volume 1995.261862
_symmetry_space_group_name_H-M "C 2/C"
_symmetry_group_IT_number 15
_symmetry_cell_setting 'monoclinic'
loop_
_space_group_symop_operation_xyz
x,y,z
-x,y,1/2-z
-x,-y,-z
x,-y,1/2+z
1/2+x,1/2+y,z
1/2-x,1/2+y,1/2-z
1/2-x,1/2-y,-z
1/2+x,1/2-y,1/2+z
loop_
_atom_site_type_symbol
_atom_site_label
_atom_site_fract_x
_atom_site_fract_y
_atom_site_fract_z
Si Si1 0.726334 0.277601 0.444161
Si Si2 0.500535 0.184232 0.015761
Si Si3 0.845778 0.915186 0.678595
Si Si4 0.725941 0.546944 0.421207
Si Si5 0.547999 0.700117 0.597296
O O1 0.750000 0.250000 0.500000
O O2 0.653681 0.209773 0.444128
O O3 0.523278 0.342292 0.568282
O O4 0.000000 0.309722 0.250000
O O5 0.793460 0.182100 0.804029
O O6 0.390568 0.108271 0.121158
O O7 0.470398 0.251730 0.086978
O O8 0.785137 0.929061 0.645222
O O9 0.009581 0.988942 0.585481
O O10 0.684721 0.623462 0.487181
O O11 0.000000 0.513633 0.250000
O O12 0.750000 0.750000 0.500000
#
# Coordination Sequence:
#
# PCOD9305191 Si02
#       5
#     8   8   8   8   8
#     4  12  22  39  66  96 132 178 227 281 337 404
#     4  12  22  41  65 104 133 170 236 281 337 406
#     4  11  24  43  68  99 135 179 227 285 350 410
#     4  11  24  45  68  97 137 183 225 280 350 415
#     4  12  23  40  72  99 135 180 227 282 340 411
#
# _framework density 20.047495000000001
#
# number of rings (size 3 to 8) (size 9 to 14) (size 15 to 20)
#    0.000    0.400    6.000    3.600    0.000    0.800 
#    0.000    0.000   13.200    0.000    0.000    0.000 
#    0.000    0.000    0.000    0.000    0.000    0.000 
#
# Total GULP energy -111762.116635 kJ/mol
# GULP energy per Si atom -5588.105832 kJ/mol
# Density = 2.000187 g / cm^3
# Si number density = 20.047495 Si / 1000 Ang^3
#
#
#
# Elastic Constant Matrix: (Units=GPa)
#
#
# Indices 1 2 3 4 5 6 
#
# 1 95.9654 39.1332 40.9638 0.0135 4.7325 -0.0185
# 2 39.1332 89.9100 28.3838 0.0421 8.0554 -0.0634
# 3 40.9638 28.3838 144.3825 0.0215 -3.5613 -0.0052
# 4 0.0135 0.0421 0.0215 48.2726 -0.0079 1.0802
# 5 4.7325 8.0554 -3.5613 -0.0079 28.6230 -0.0299
# 6 -0.0185 -0.0634 -0.0052 1.0802 -0.0299 25.4794
#
#
#
# Elastic Compliance Matrix: (Units=1/GPa)
#
#
# Indices 1 2 3 4 5 6 
#
# 1 0.013763 -0.004942 -0.002964 0.000002 -0.001253 -0.000004
# 2 -0.004942 0.014023 -0.001436 -0.000011 -0.003308 0.000028
# 3 -0.002964 -0.001436 0.008096 -0.000001 0.001902 -0.000002
# 4 0.000002 -0.000011 -0.000001 0.020735 0.000008 -0.000879
# 5 -0.001253 -0.003308 0.001902 0.000008 0.036312 0.000034
# 6 -0.000004 0.000028 -0.000002 -0.000879 0.000034 0.039285
#
#
# Mechanical properties :
#
#
# Convention : Reuss Voigt Hill
#
# Bulk Modulus (GPa) = 58.14887 60.80217 59.47552
# Shear Modulus (GPa) = 31.92202 35.26012 33.59107
#
# Velocity S-wave (km/s) = 3.99472 4.19839 4.09782
# Velocity P-wave (km/s) = 7.09546 7.34145 7.21950
#
# Compressibility (1/GPa) = 0.01719724
#
# Stress axis : x y z
#
# Youngs Moduli (GPa) = 72.65929 71.31075 123.51391
#
# Poissons Ratio (x) = 0.35243 0.36611
# Poissons Ratio (y) = 0.35910 0.17739
# Poissons Ratio (z) = 0.21537 0.10241
#
# Static dielectric constant tensor:
#      x y z
#    x 1.701550 -0.000140 0.138050 
#    y -0.000140 1.678180 0.001180 
#    z 0.138050 0.001180 3.363540 
# 
# From -- ./inp_files/38962.got.cif
#   From: 2010.05.17/outbox.cif.g08.bks.cpg/sg15_20_cif.got.tgz:38962.got - 2010.06.03 18:47:42.
