data_PCOD9305837
_publ_section_title
;
Structure prediction by ZEFSAII (Michael W. Deem and Ramdas Pophale) SiO2 
 PCOD9305837
Probable space group: C 2/C
;
_chemical_formula_sum "Si O2"
_cell_formula_units_Z 24
_cell_length_a 15.053076
_cell_length_b 6.865561
_cell_length_c 18.028890
_cell_angle_alpha 90.000000
_cell_angle_beta 149.982556
_cell_angle_gamma 90.000000
_cell_volume 932.114394
_symmetry_space_group_name_H-M "C 2/C"
_symmetry_group_IT_number 15
_symmetry_cell_setting 'monoclinic'
loop_
_space_group_symop_operation_xyz
x,y,z
-x,y,1/2-z
-x,-y,-z
x,-y,1/2+z
1/2+x,1/2+y,z
1/2-x,1/2+y,1/2-z
1/2-x,1/2-y,-z
1/2+x,1/2-y,1/2+z
loop_
_atom_site_type_symbol
_atom_site_label
_atom_site_fract_x
_atom_site_fract_y
_atom_site_fract_z
Si Si1 0.590669 0.406989 0.393012
Si Si2 0.837452 0.379434 0.794244
Si Si3 0.039315 0.239706 0.462373
O O1 0.500000 0.466253 0.250000
O O2 0.750000 0.250000 0.500000
O O3 0.435261 0.291682 0.322684
O O4 0.635448 0.595740 0.475099
O O5 0.631454 0.370907 0.625407
O O6 0.944190 0.575552 0.854478
O O7 0.850693 0.336707 0.891815
#
# Coordination Sequence:
#
# PCOD9305837 Si02
#       3
#     8   8   8
#     4  12  28  46  69 110 150 184 233 307 369 418
#     4  11  24  47  77 102 137 195 249 291 346 438
#     4  11  25  45  78 102 137 193 249 290 350 430
#
# _framework density 25.747910000000001
#
# number of rings (size 3 to 8) (size 9 to 14) (size 15 to 20)
#    0.000    0.667    3.333    3.000    9.333    2.667 
#    0.000    0.000    0.000    0.000    0.000    0.000 
#    0.000    0.000    0.000    0.000    0.000    0.000 
#
# Total GULP energy -67274.322032 kJ/mol
# GULP energy per Si atom -5606.193503 kJ/mol
# Density = 2.568931 g / cm^3
# Si number density = 25.747910 Si / 1000 Ang^3
#
#
#
# Elastic Constant Matrix: (Units=GPa)
#
#
# Indices 1 2 3 4 5 6 
#
# 1 77.7013 59.5729 21.0944 0.0000 -4.9382 0.0000
# 2 59.5729 160.5301 28.7847 0.0000 -6.3885 0.0000
# 3 21.0944 28.7847 122.2137 0.0000 -4.3373 0.0000
# 4 0.0000 0.0000 0.0000 36.1222 0.0000 9.3051
# 5 -4.9382 -6.3885 -4.3373 0.0000 35.9614 0.0000
# 6 0.0000 0.0000 0.0000 9.3051 0.0000 66.5741
#
#
#
# Elastic Compliance Matrix: (Units=1/GPa)
#
#
# Indices 1 2 3 4 5 6 
#
# 1 0.018342 -0.006473 -0.001600 0.000000 0.001176 0.000000
# 2 -0.006473 0.008823 -0.000941 0.000000 0.000565 0.000000
# 3 -0.001600 -0.000941 0.008704 0.000000 0.000663 0.000000
# 4 0.000000 0.000000 0.000000 0.028718 0.000000 -0.004014
# 5 0.001176 0.000565 0.000663 0.000000 0.028149 0.000000
# 6 0.000000 0.000000 0.000000 -0.004014 0.000000 0.015582
#
#
# Mechanical properties :
#
#
# Convention : Reuss Voigt Hill
#
# Bulk Modulus (GPa) = 56.04928 64.37212 60.21070
# Shear Modulus (GPa) = 37.79570 44.46441 41.13005
#
# Velocity S-wave (km/s) = 3.83549 4.16012 4.00110
# Velocity P-wave (km/s) = 6.43665 6.93763 6.69183
#
# Compressibility (1/GPa) = 0.01784144
#
# Stress axis : x y z
#
# Youngs Moduli (GPa) = 54.52105 113.34468 114.89560
#
# Poissons Ratio (x) = 0.73368 0.18378
# Poissons Ratio (y) = 0.35291 0.10808
# Poissons Ratio (z) = 0.08721 0.10662
#
# Static dielectric constant tensor:
#      x y z
#    x 2.009730 0.000000 -0.004630 
#    y 0.000000 2.092790 0.000000 
#    z -0.004630 0.000000 2.032190 
# 
# From -- ./inp_files/36126.got.cif
#   From: 2010.05.17/outbox.cif.g08.bks.cpg/sg15_19_cif.got.tgz:36126.got - 2010.06.03 18:47:42.
