data_PCOD9305046
_publ_section_title
;
Structure prediction by ZEFSAII (Michael W. Deem and Ramdas Pophale) SiO2 
 PCOD9305046
Probable space group: C 2/C
;
_chemical_formula_sum "Si O2"
_cell_formula_units_Z 48
_cell_length_a 21.829094
_cell_length_b 19.035641
_cell_length_c 16.136696
_cell_angle_alpha 90.000000
_cell_angle_beta 159.052817
_cell_angle_gamma 90.000000
_cell_volume 2397.190898
_symmetry_space_group_name_H-M "C 2/C"
_symmetry_group_IT_number 15
_symmetry_cell_setting 'monoclinic'
loop_
_space_group_symop_operation_xyz
x,y,z
-x,y,1/2-z
-x,-y,-z
x,-y,1/2+z
1/2+x,1/2+y,z
1/2-x,1/2+y,1/2-z
1/2-x,1/2-y,-z
1/2+x,1/2-y,1/2+z
loop_
_atom_site_type_symbol
_atom_site_label
_atom_site_fract_x
_atom_site_fract_y
_atom_site_fract_z
Si Si1 0.073935 0.119294 0.434834
Si Si2 0.395075 0.387513 0.878524
Si Si3 0.699985 0.018249 0.252150
Si Si4 0.739672 0.140451 0.597072
Si Si5 0.905829 0.630813 0.261245
Si Si6 0.676311 0.771881 0.166034
O O1 0.191072 0.185652 0.609245
O O2 0.000000 0.127027 0.250000
O O3 0.931144 0.110457 0.326180
O O4 0.192077 0.050460 0.590813
O O5 0.268215 0.445211 0.754929
O O6 0.336367 0.308858 0.827838
O O7 0.580567 0.396184 0.157932
O O8 0.711511 0.077133 0.338054
O O9 0.500000 0.000000 0.000000
O O10 0.580237 0.098878 0.438602
O O11 0.697841 0.157060 0.449649
O O12 0.733634 0.211248 0.644263
O O13 0.993918 0.686824 0.434301
#
# Coordination Sequence:
#
# PCOD9305046 Si02
#       6
#     8   8   8   8   8   8
#     4  11  26  46  65  97 131 175 235 280 325 404
#     4  11  24  41  71  93 131 181 220 281 341 390
#     4  12  24  43  66  95 136 178 223 272 345 397
#     4   8  19  39  59  99 131 164 212 269 329 401
#     4   9  19  38  63  96 134 167 207 274 328 405
#     4   9  20  41  67  92 133 168 221 277 333 389
#
# _framework density 20.023437000000001
#
# number of rings (size 3 to 8) (size 9 to 14) (size 15 to 20)
#    1.000    1.000    1.667    0.500    7.000    1.333 
#    6.000    0.000    0.000    0.000    0.000    0.000 
#    0.000    0.000    0.000    0.000    0.000    0.000 
#
# Total GULP energy -133774.603466 kJ/mol
# GULP energy per Si atom -5573.941811 kJ/mol
# Density = 1.997786 g / cm^3
# Si number density = 20.023437 Si / 1000 Ang^3
#
#
#
# Elastic Constant Matrix: (Units=GPa)
#
#
# Indices 1 2 3 4 5 6 
#
# 1 124.2510 37.5753 77.1758 0.0000 -17.0150 0.0000
# 2 37.5753 76.7649 42.3911 0.0000 -4.8426 0.0000
# 3 77.1758 42.3911 80.1523 0.0000 -15.9170 0.0000
# 4 0.0000 0.0000 0.0000 9.5856 0.0000 22.5103
# 5 -17.0150 -4.8426 -15.9170 0.0000 39.3856 0.0000
# 6 0.0000 0.0000 0.0000 22.5103 0.0000 26.1959
#
#
#
# Elastic Compliance Matrix: (Units=1/GPa)
#
#
# Indices 1 2 3 4 5 6 
#
# 1 0.020126 0.001146 -0.019821 0.000000 0.000825 0.000000
# 2 0.001146 0.018587 -0.011287 0.000000 -0.001781 0.000000
# 3 -0.019821 -0.011287 0.038657 0.000000 0.005672 0.000000
# 4 0.000000 0.000000 0.000000 -0.102484 0.000000 0.088065
# 5 0.000825 -0.001781 0.005672 0.000000 0.027820 0.000000
# 6 0.000000 0.000000 0.000000 0.088065 0.000000 -0.037501
#
#
# Mechanical properties :
#
#
# Convention : Reuss Voigt Hill
#
# Bulk Modulus (GPa) = 57.32167 66.16141 61.74154
# Shear Modulus (GPa) = 161.58631 23.30184 92.44407
#
# Velocity S-wave (km/s) = 8.99298 3.41505 6.80207
# Velocity P-wave (km/s) = 11.68423 6.97594 9.62250
#
# Compressibility (1/GPa) = 0.01744541
#
# Stress axis : x y z
#
# Youngs Moduli (GPa) = 49.68732 53.80245 25.86852
#
# Poissons Ratio (x) = -0.06167 0.51273
# Poissons Ratio (y) = -0.05695 0.29199
# Poissons Ratio (z) = 0.98484 0.60729
#
# Static dielectric constant tensor:
#      x y z
#    x 1.734880 0.000000 0.032000 
#    y 0.000000 1.720470 0.000000 
#    z 0.032000 0.000000 1.732810 
# 
# From -- ./inp_files/219989.got.cif
#   From: 2010.05.17/outbox.cif.g08.bks.cpg/sg15_110_cif.got.tgz:219989.got - 2010.06.03 18:47:42.
