data_PCOD9305766
_publ_section_title
;
Structure prediction by ZEFSAII (Michael W. Deem and Ramdas Pophale) SiO2 
 PCOD9305766
Probable space group: C 2/C
;
_chemical_formula_sum "Si O2"
_cell_formula_units_Z 56
_cell_length_a 28.579780
_cell_length_b 10.981268
_cell_length_c 9.573419
_cell_angle_alpha 90.000000
_cell_angle_beta 55.891066
_cell_angle_gamma 90.000000
_cell_volume 2487.680285
_symmetry_space_group_name_H-M "C 2/C"
_symmetry_group_IT_number 15
_symmetry_cell_setting 'monoclinic'
loop_
_space_group_symop_operation_xyz
x,y,z
-x,y,1/2-z
-x,-y,-z
x,-y,1/2+z
1/2+x,1/2+y,z
1/2-x,1/2+y,1/2-z
1/2-x,1/2-y,-z
1/2+x,1/2-y,1/2+z
loop_
_atom_site_type_symbol
_atom_site_label
_atom_site_fract_x
_atom_site_fract_y
_atom_site_fract_z
Si Si1 0.635279 0.979961 0.067830
Si Si2 0.559279 0.043398 0.963628
Si Si3 0.941385 0.180550 0.915502
Si Si4 0.339792 0.654013 0.864293
Si Si5 0.704367 0.209181 0.831051
Si Si6 0.361878 0.386039 0.767172
Si Si7 0.327634 0.267768 0.084717
O O1 0.609326 0.973465 0.265717
O O2 0.675989 0.867562 0.969239
O O3 0.580233 0.966916 0.061200
O O4 0.667500 0.100559 0.960179
O O5 0.554150 0.182103 0.029147
O O6 0.500000 0.000000 0.000000
O O7 0.894518 0.169628 0.871762
O O8 0.000000 0.144704 0.750000
O O9 0.918701 0.101310 0.082439
O O10 0.332632 0.516164 0.826064
O O11 0.345768 0.731738 0.714516
O O12 0.289769 0.696232 0.049954
O O13 0.673593 0.284157 0.759215
O O14 0.766121 0.170139 0.679951
O O15 0.369354 0.338722 0.911512
#
# Coordination Sequence:
#
# PCOD9305766 Si02
#       7
#     8   8   8   8   8   8   8
#     4  12  24  44  72 106 145 180 244 289 356 434
#     4  12  25  44  73 104 138 190 222 300 367 416
#     4  11  24  48  70  99 140 177 230 295 364 414
#     4  11  25  45  70  98 141 186 236 289 345 421
#     4  11  25  46  68 102 147 190 223 300 351 408
#     4  11  24  47  70  97 139 188 240 287 340 423
#     4  12  25  42  70 107 138 187 244 282 356 422
#
# _framework density 22.510932
#
# number of rings (size 3 to 8) (size 9 to 14) (size 15 to 20)
#    0.000    0.571    4.286    4.714    6.000    0.571 
#    0.000    0.714    0.000    0.000    0.000    0.000 
#    0.000    0.000    0.000    0.000    0.000    0.000 
#
# Total GULP energy -156512.407690 kJ/mol
# GULP energy per Si atom -5589.728846 kJ/mol
# Density = 2.245970 g / cm^3
# Si number density = 22.510932 Si / 1000 Ang^3
#
#
#
# Elastic Constant Matrix: (Units=GPa)
#
#
# Indices 1 2 3 4 5 6 
#
# 1 59.1153 -6.5925 25.1845 0.0000 0.9739 0.0000
# 2 -6.5925 85.2229 22.1934 0.0000 -0.8458 0.0000
# 3 25.1845 22.1934 152.3861 0.0000 10.8993 0.0000
# 4 0.0000 0.0000 0.0000 31.8604 0.0000 0.7163
# 5 0.9739 -0.8458 10.8993 0.0000 34.3959 0.0000
# 6 0.0000 0.0000 0.0000 0.7163 0.0000 20.6952
#
#
#
# Elastic Compliance Matrix: (Units=1/GPa)
#
#
# Indices 1 2 3 4 5 6 
#
# 1 0.018646 0.002352 -0.003469 0.000000 0.000629 0.000000
# 2 0.002352 0.012519 -0.002281 0.000000 0.000964 0.000000
# 3 -0.003469 -0.002281 0.007638 0.000000 -0.002378 0.000000
# 4 0.000000 0.000000 0.000000 0.031411 0.000000 -0.001087
# 5 0.000629 0.000964 -0.002378 0.000000 0.029833 0.000000
# 6 0.000000 0.000000 0.000000 -0.001087 0.000000 0.048358
#
#
# Mechanical properties :
#
#
# Convention : Reuss Voigt Hill
#
# Bulk Modulus (GPa) = 31.24302 42.03280 36.63791
# Shear Modulus (GPa) = 30.14400 34.45291 32.29846
#
# Velocity S-wave (km/s) = 3.66332 3.91640 3.79197
# Velocity P-wave (km/s) = 5.63936 6.25809 5.95676
#
# Compressibility (1/GPa) = 0.03200714
#
# Stress axis : x y z
#
# Youngs Moduli (GPa) = 53.63095 79.87574 130.92588
#
# Poissons Ratio (x) = -0.18787 0.45420
# Poissons Ratio (y) = -0.12614 0.29864
# Poissons Ratio (z) = 0.18605 0.18220
#
# Static dielectric constant tensor:
#      x y z
#    x 1.832330 0.000000 -0.012310 
#    y 0.000000 1.870630 0.000000 
#    z -0.012310 0.000000 1.841590 
# 
# From -- ./inp_files/69308.got.cif
#   From: 2010.05.17/outbox.cif.g08.bks.cpg/sg15_35_cif.got.tgz:69308.got - 2010.06.03 18:47:42.
