data_PCOD9305340
_publ_section_title
;
Structure prediction by ZEFSAII (Michael W. Deem and Ramdas Pophale) SiO2 
 PCOD9305340
Probable space group: C 2/C
;
_chemical_formula_sum "Si O2"
_cell_formula_units_Z 40
_cell_length_a 6.714069
_cell_length_b 21.174423
_cell_length_c 14.425888
_cell_angle_alpha 90.000000
_cell_angle_beta 117.126867
_cell_angle_gamma 90.000000
_cell_volume 1825.280043
_symmetry_space_group_name_H-M "C 2/C"
_symmetry_group_IT_number 15
_symmetry_cell_setting 'monoclinic'
loop_
_space_group_symop_operation_xyz
x,y,z
-x,y,1/2-z
-x,-y,-z
x,-y,1/2+z
1/2+x,1/2+y,z
1/2-x,1/2+y,1/2-z
1/2-x,1/2-y,-z
1/2+x,1/2-y,1/2+z
loop_
_atom_site_type_symbol
_atom_site_label
_atom_site_fract_x
_atom_site_fract_y
_atom_site_fract_z
Si Si1 0.000000 0.004600 0.750000
Si Si2 0.787596 0.646887 0.496561
Si Si3 0.165665 0.913206 0.641038
Si Si4 0.326928 0.057486 0.969488
Si Si5 0.759312 0.264476 0.150457
Si Si6 0.500000 0.799055 0.750000
O O1 0.177374 0.960544 0.730778
O O2 0.127175 0.044714 0.855163
O O3 0.598225 0.597965 0.426746
O O4 0.740482 0.670592 0.590334
O O5 0.750938 0.707027 0.423781
O O6 0.031761 0.618810 0.531450
O O7 0.252303 0.937132 0.560495
O O8 0.293955 0.847474 0.689060
O O9 0.500000 0.000000 0.000000
O O10 0.564872 0.246845 0.180305
O O11 0.000000 0.263703 0.250000
#
# Coordination Sequence:
#
# PCOD9305340 Si02
#       6
#     4   8   8   8   8   4
#     4  12  26  44  75 106 142 191 240 292 366 424
#     4  11  25  45  71 101 140 183 234 299 347 418
#     4  12  24  46  72 101 142 188 238 290 360 433
#     4  12  26  47  71 104 142 188 237 296 353 422
#     4  11  24  44  70 102 139 183 239 290 354 418
#     4  12  22  40  77 102 136 193 240 284 360 438
#
# _framework density 21.914446999999999
#
# number of rings (size 3 to 8) (size 9 to 14) (size 15 to 20)
#    0.000    0.400    6.000    3.000    0.000    4.000 
#    0.000    0.000    0.000    0.000    0.000    0.000 
#    0.000    0.000    0.000    0.000    0.000    0.000 
#
# Total GULP energy -111892.824618 kJ/mol
# GULP energy per Si atom -5594.641231 kJ/mol
# Density = 2.186457 g / cm^3
# Si number density = 21.914447 Si / 1000 Ang^3
#
#
#
# Elastic Constant Matrix: (Units=GPa)
#
#
# Indices 1 2 3 4 5 6 
#
# 1 84.9953 -0.8640 34.4075 0.0000 -23.3212 0.0000
# 2 -0.8640 25.5811 29.6321 0.0000 -3.5963 0.0000
# 3 34.4075 29.6321 98.9905 0.0000 -17.4084 0.0000
# 4 0.0000 0.0000 0.0000 23.2660 0.0000 -10.8148
# 5 -23.3212 -3.5963 -17.4084 0.0000 43.2463 0.0000
# 6 0.0000 0.0000 0.0000 -10.8148 0.0000 25.5425
#
#
#
# Elastic Compliance Matrix: (Units=1/GPa)
#
#
# Indices 1 2 3 4 5 6 
#
# 1 0.016941 0.010655 -0.007873 0.000000 0.006853 0.000000
# 2 0.010655 0.066776 -0.023359 0.000000 0.001896 0.000000
# 3 -0.007873 -0.023359 0.020170 0.000000 0.001931 0.000000
# 4 0.000000 0.000000 0.000000 0.053513 0.000000 0.022658
# 5 0.006853 0.001896 0.001931 0.000000 0.027754 0.000000
# 6 0.000000 0.000000 0.000000 0.022658 0.000000 0.048744
#
#
# Mechanical properties :
#
#
# Convention : Reuss Voigt Hill
#
# Bulk Modulus (GPa) = 15.94035 37.32423 26.63229
# Shear Modulus (GPa) = 16.89401 28.17038 22.53219
#
# Velocity S-wave (km/s) = 2.77953 3.58924 3.21002
# Velocity P-wave (km/s) = 4.19414 5.85197 5.09099
#
# Compressibility (1/GPa) = 0.06273389
#
# Stress axis : x y z
#
# Youngs Moduli (GPa) = 59.02854 14.97546 49.57747
#
# Poissons Ratio (x) = -0.15957 0.39032
# Poissons Ratio (y) = -0.62896 1.15808
# Poissons Ratio (z) = 0.46472 0.34981
#
# Static dielectric constant tensor:
#      x y z
#    x 1.798900 0.000000 -0.017870 
#    y 0.000000 1.799040 0.000000 
#    z -0.017870 0.000000 1.819320 
# 
# From -- ./inp_files/129132.got.cif
#   From: 2010.05.17/outbox.cif.g08.bks.cpg/sg15_65_cif.got.tgz:129132.got - 2010.06.03 18:47:42.
