data_PCOD9305759
_publ_section_title
;
Structure prediction by ZEFSAII (Michael W. Deem and Ramdas Pophale) SiO2 
 PCOD9305759
Probable space group: C 2/C
;
_chemical_formula_sum "Si O2"
_cell_formula_units_Z 36
_cell_length_a 16.119899
_cell_length_b 19.433488
_cell_length_c 12.865086
_cell_angle_alpha 90.000000
_cell_angle_beta 155.179494
_cell_angle_gamma 90.000000
_cell_volume 1691.781809
_symmetry_space_group_name_H-M "C 2/C"
_symmetry_group_IT_number 15
_symmetry_cell_setting 'monoclinic'
loop_
_space_group_symop_operation_xyz
x,y,z
-x,y,1/2-z
-x,-y,-z
x,-y,1/2+z
1/2+x,1/2+y,z
1/2-x,1/2+y,1/2-z
1/2-x,1/2-y,-z
1/2+x,1/2-y,1/2+z
loop_
_atom_site_type_symbol
_atom_site_label
_atom_site_fract_x
_atom_site_fract_y
_atom_site_fract_z
Si Si1 0.324993 0.843724 0.765639
Si Si2 0.998828 0.549337 0.628621
Si Si3 0.500000 0.158722 0.250000
Si Si4 0.384311 0.310671 0.309742
Si Si5 0.690257 0.544647 0.683553
O O1 0.402342 0.871249 0.743229
O O2 0.410501 0.766593 0.881297
O O3 0.089193 0.835504 0.492797
O O4 0.398102 0.892487 0.941267
O O5 0.855442 0.484351 0.450002
O O6 0.000000 0.568659 0.750000
O O7 0.212123 0.533899 0.819031
O O8 0.694394 0.195275 0.518881
O O9 0.339879 0.373809 0.336908
O O10 0.500000 0.500000 0.500000
#
# Coordination Sequence:
#
# PCOD9305759 Si02
#       5
#     8   8   4   8   8
#     4  12  24  44  66 102 141 175 235 283 348 414
#     4  11  26  48  71 103 139 186 230 285 339 420
#     4  12  24  40  68 102 138 176 230 290 352 410
#     4  12  24  41  70 104 134 184 226 293 354 406
#     4  11  24  47  69  98 139 178 234 279 348 412
#
# _framework density 21.279339
#
# number of rings (size 3 to 8) (size 9 to 14) (size 15 to 20)
#    0.000    0.444    6.667    1.333    1.556    0.889 
#    4.000    4.444    0.000    0.000    0.000    0.000 
#    0.000    0.000    0.000    0.000    0.000    0.000 
#
# Total GULP energy -100389.470686 kJ/mol
# GULP energy per Si atom -5577.192816 kJ/mol
# Density = 2.123091 g / cm^3
# Si number density = 21.279339 Si / 1000 Ang^3
#
#
#
# Elastic Constant Matrix: (Units=GPa)
#
#
# Indices 1 2 3 4 5 6 
#
# 1 157.6420 24.2718 76.3312 0.0000 11.2053 0.0000
# 2 24.2718 114.0256 31.3785 0.0000 0.6178 0.0000
# 3 76.3312 31.3785 80.7248 0.0000 23.6725 0.0000
# 4 0.0000 0.0000 0.0000 35.6828 0.0000 7.5528
# 5 11.2053 0.6178 23.6725 0.0000 51.0694 0.0000
# 6 0.0000 0.0000 0.0000 7.5528 0.0000 23.3389
#
#
#
# Elastic Compliance Matrix: (Units=1/GPa)
#
#
# Indices 1 2 3 4 5 6 
#
# 1 0.012186 0.000921 -0.012839 0.000000 0.003266 0.000000
# 2 0.000921 0.010054 -0.005421 0.000000 0.002189 0.000000
# 3 -0.012839 -0.005421 0.029847 0.000000 -0.010953 0.000000
# 4 0.000000 0.000000 0.000000 0.030086 0.000000 -0.009736
# 5 0.003266 0.002189 -0.010953 0.000000 0.023915 0.000000
# 6 0.000000 0.000000 0.000000 -0.009736 0.000000 0.045998
#
#
# Mechanical properties :
#
#
# Convention : Reuss Voigt Hill
#
# Bulk Modulus (GPa) = 57.43990 68.48394 62.96192
# Shear Modulus (GPa) = 25.96516 36.71227 31.33871
#
# Velocity S-wave (km/s) = 3.49693 4.15812 3.84178
# Velocity P-wave (km/s) = 6.58457 7.43683 7.02364
#
# Compressibility (1/GPa) = 0.01740950
#
# Stress axis : x y z
#
# Youngs Moduli (GPa) = 82.06068 99.46466 33.50424
#
# Poissons Ratio (x) = -0.09165 0.43016
# Poissons Ratio (y) = -0.07561 0.18164
# Poissons Ratio (z) = 1.05357 0.53922
#
# Static dielectric constant tensor:
#      x y z
#    x 1.799850 0.000000 0.050760 
#    y 0.000000 1.839050 0.000000 
#    z 0.050760 0.000000 1.774960 
# 
# From -- ./inp_files/99926.got.cif
#   From: 2010.05.17/outbox.cif.g08.bks.cpg/sg15_50_cif.got.tgz:99926.got - 2010.06.03 18:47:42.
