data_PCOD9305976
_publ_section_title
;
Structure prediction by ZEFSAII (Michael W. Deem and Ramdas Pophale) SiO2 
 PCOD9305976
Probable space group: C 2/C
;
_chemical_formula_sum "Si O2"
_cell_formula_units_Z 32
_cell_length_a 7.004394
_cell_length_b 22.188876
_cell_length_c 11.657800
_cell_angle_alpha 90.000000
_cell_angle_beta 42.762183
_cell_angle_gamma 90.000000
_cell_volume 1230.168661
_symmetry_space_group_name_H-M "C 2/C"
_symmetry_group_IT_number 15
_symmetry_cell_setting 'monoclinic'
loop_
_space_group_symop_operation_xyz
x,y,z
-x,y,1/2-z
-x,-y,-z
x,-y,1/2+z
1/2+x,1/2+y,z
1/2-x,1/2+y,1/2-z
1/2-x,1/2-y,-z
1/2+x,1/2-y,1/2+z
loop_
_atom_site_type_symbol
_atom_site_label
_atom_site_fract_x
_atom_site_fract_y
_atom_site_fract_z
Si Si1 0.969042 0.354680 0.899323
Si Si2 0.615900 0.940921 0.010966
Si Si3 0.174695 0.759049 0.431764
Si Si4 0.385351 0.601633 0.604827
O O1 0.000000 0.349943 0.750000
O O2 0.992178 0.288718 0.943948
O O3 0.684240 0.393921 0.033926
O O4 0.181946 0.393343 0.881879
O O5 0.355942 0.917230 0.201974
O O6 0.859014 0.939429 0.001573
O O7 0.500000 0.000000 0.000000
O O8 0.162556 0.828258 0.405940
O O9 0.033651 0.756595 0.627857
#
# Coordination Sequence:
#
# PCOD9305976 Si02
#       4
#     8   8   8   8
#     4  12  27  43  73 117 150 201 259 317 396 474
#     4  11  26  49  76 107 152 208 265 323 388 458
#     4  12  22  44  75 111 158 202 250 320 395 473
#     4  11  24  50  76 109 154 206 259 321 392 462
#
# _framework density 26.012695000000001
#
# number of rings (size 3 to 8) (size 9 to 14) (size 15 to 20)
#    0.000    0.500    5.000    3.000    3.500    3.000 
#    4.500    0.000    0.000    0.000    0.000    0.000 
#    0.000    0.000    0.000    0.000    0.000    0.000 
#
# Total GULP energy -89282.144285 kJ/mol
# GULP energy per Si atom -5580.134018 kJ/mol
# Density = 2.595349 g / cm^3
# Si number density = 26.012695 Si / 1000 Ang^3
#
#
#
# Elastic Constant Matrix: (Units=GPa)
#
#
# Indices 1 2 3 4 5 6 
#
# 1 182.9389 64.3378 58.1218 0.0000 28.5626 0.0000
# 2 64.3378 167.0834 23.4666 0.0000 37.9322 0.0000
# 3 58.1218 23.4666 57.4613 0.0000 29.1017 0.0000
# 4 0.0000 0.0000 0.0000 -91.7715 0.0000 57.1891
# 5 28.5626 37.9322 29.1017 0.0000 67.5948 0.0000
# 6 0.0000 0.0000 0.0000 57.1891 0.0000 60.9910
#
#
#
# Elastic Compliance Matrix: (Units=1/GPa)
#
#
# Indices 1 2 3 4 5 6 
#
# 1 0.008889 -0.002521 -0.008665 0.000000 0.001389 0.000000
# 2 -0.002521 0.007628 0.001360 0.000000 -0.003801 0.000000
# 3 -0.008665 0.001360 0.030877 0.000000 -0.010395 0.000000
# 4 0.000000 0.000000 0.000000 -0.006878 0.000000 0.006449
# 5 0.001389 -0.003801 -0.010395 0.000000 0.020815 0.000000
# 6 0.000000 0.000000 0.000000 0.006449 0.000000 0.010349
#
#
# Mechanical properties :
#
#
# Convention : Reuss Voigt Hill
#
# Bulk Modulus (GPa) = 36.04774 77.70400 56.87587
# Shear Modulus (GPa) = 49.71131 24.80002 37.25566
#
# Velocity S-wave (km/s) = 4.37629 3.09104 3.78856
# Velocity P-wave (km/s) = 6.27883 6.53267 6.40701
#
# Compressibility (1/GPa) = 0.02774099
#
# Stress axis : x y z
#
# Youngs Moduli (GPa) = 112.49632 131.10084 32.38619
#
# Poissons Ratio (x) = 0.33054 0.28064
# Poissons Ratio (y) = 0.28364 -0.04405
# Poissons Ratio (z) = 0.97482 -0.17830
#
# Static dielectric constant tensor:
#      x y z
#    x 2.107930 0.000000 0.009040 
#    y 0.000000 1.948870 0.000000 
#    z 0.009040 0.000000 2.369300 
# 
# From -- ./inp_files/78880.got.cif
#   From: 2010.05.17/outbox.cif.g08.bks.cpg/sg15_40_cif.got.tgz:78880.got - 2010.06.03 18:47:42.
