data_PCOD9305807
_publ_section_title
;
Structure prediction by ZEFSAII (Michael W. Deem and Ramdas Pophale) SiO2 
 PCOD9305807
Probable space group: C 2/C
;
_chemical_formula_sum "Si O2"
_cell_formula_units_Z 40
_cell_length_a 11.944462
_cell_length_b 7.016289
_cell_length_c 35.889895
_cell_angle_alpha 90.000000
_cell_angle_beta 152.672182
_cell_angle_gamma 90.000000
_cell_volume 1380.815045
_symmetry_space_group_name_H-M "C 2/C"
_symmetry_group_IT_number 15
_symmetry_cell_setting 'monoclinic'
loop_
_space_group_symop_operation_xyz
x,y,z
-x,y,1/2-z
-x,-y,-z
x,-y,1/2+z
1/2+x,1/2+y,z
1/2-x,1/2+y,1/2-z
1/2-x,1/2-y,-z
1/2+x,1/2-y,1/2+z
loop_
_atom_site_type_symbol
_atom_site_label
_atom_site_fract_x
_atom_site_fract_y
_atom_site_fract_z
Si Si1 0.188754 0.075093 0.586403
Si Si2 0.759615 0.444746 0.333528
Si Si3 0.671751 0.510082 0.889678
Si Si4 0.747092 0.019073 0.003319
Si Si5 0.645335 0.945614 0.757500
O O1 0.280160 0.287022 0.604886
O O2 0.475941 0.959726 0.589657
O O3 0.000000 0.000000 0.500000
O O4 0.010356 0.057219 0.569261
O O5 0.500000 0.547627 0.250000
O O6 0.755367 0.390765 0.376337
O O7 0.737039 0.258002 0.301083
O O8 0.063055 0.542593 0.335214
O O9 0.792107 0.544486 0.965526
O O10 0.385146 0.541455 0.812076
O O11 0.750000 0.250000 0.000000
O O12 0.500000 0.031074 0.750000
#
# Coordination Sequence:
#
# PCOD9305807 Si02
#       5
#     8   8   8   8   8
#     4  12  26  44  82 120 154 208 267 324 395 477
#     4  11  26  47  74 110 154 207 258 320 392 470
#     4  12  27  46  77 115 151 208 267 313 399 470
#     4  12  22  50  74 111 158 203 254 321 395 463
#     4  11  24  47  74 106 158 204 247 328 392 457
#
# _framework density 28.968398000000001
#
# number of rings (size 3 to 8) (size 9 to 14) (size 15 to 20)
#    0.000    0.400    6.000    1.800    8.400    1.600 
#    0.000    0.000    0.000    0.000    0.000    0.000 
#    0.000    0.000    0.000    0.000    0.000    0.000 
#
# Total GULP energy -112122.559200 kJ/mol
# GULP energy per Si atom -5606.127960 kJ/mol
# Density = 2.890246 g / cm^3
# Si number density = 28.968398 Si / 1000 Ang^3
#
#
#
# Elastic Constant Matrix: (Units=GPa)
#
#
# Indices 1 2 3 4 5 6 
#
# 1 174.0676 17.0309 67.3873 0.0001 6.0763 -0.0001
# 2 17.0309 126.2125 25.5396 0.0006 5.0619 0.0001
# 3 67.3873 25.5396 278.1026 0.0017 32.9601 -0.0001
# 4 0.0001 0.0006 0.0017 23.3099 0.0000 -6.9248
# 5 6.0763 5.0619 32.9601 0.0000 84.6747 0.0001
# 6 -0.0001 0.0001 -0.0001 -6.9248 0.0001 40.6808
#
#
#
# Elastic Compliance Matrix: (Units=1/GPa)
#
#
# Indices 1 2 3 4 5 6 
#
# 1 0.006380 -0.000561 -0.001514 0.000000 0.000165 0.000000
# 2 -0.000561 0.008126 -0.000584 0.000000 -0.000218 0.000000
# 3 -0.001514 -0.000584 0.004193 0.000000 -0.001488 0.000000
# 4 0.000000 0.000000 0.000000 0.045185 0.000000 0.007691
# 5 0.000165 -0.000218 -0.001488 0.000000 0.012390 0.000000
# 6 0.000000 0.000000 0.000000 0.007691 0.000000 0.025891
#
#
# Mechanical properties :
#
#
# Convention : Reuss Voigt Hill
#
# Bulk Modulus (GPa) = 74.74097 88.69982 81.72039
# Shear Modulus (GPa) = 44.66505 60.96142 52.81324
#
# Velocity S-wave (km/s) = 3.93091 4.59236 4.27445
# Velocity P-wave (km/s) = 6.81613 7.66849 7.25484
#
# Compressibility (1/GPa) = 0.01337954
#
# Stress axis : x y z
#
# Youngs Moduli (GPa) = 156.73586 123.06371 238.50773
#
# Poissons Ratio (x) = 0.06906 0.36110
# Poissons Ratio (y) = 0.08796 0.13939
# Poissons Ratio (z) = 0.23730 0.07192
#
# Static dielectric constant tensor:
#      x y z
#    x 2.371650 0.000000 -0.016500 
#    y 0.000000 2.240840 0.000000 
#    z -0.016500 0.000000 2.273690 
# 
# From -- ./inp_files/306561.got.cif
#   From: 2010.05.17/outbox.cif.g08.bks.cpg/sg15_154_cif.got.tgz:306561.got - 2010.06.03 18:47:42.
