data_PCOD9305113
_publ_section_title
;
Structure prediction by ZEFSAII (Michael W. Deem and Ramdas Pophale) SiO2 
 PCOD9305113
Probable space group: C 2/C
;
_chemical_formula_sum "Si O2"
_cell_formula_units_Z 48
_cell_length_a 8.622082
_cell_length_b 14.947127
_cell_length_c 18.159848
_cell_angle_alpha 90.000000
_cell_angle_beta 86.861373
_cell_angle_gamma 90.000000
_cell_volume 2336.846282
_symmetry_space_group_name_H-M "C 2/C"
_symmetry_group_IT_number 15
_symmetry_cell_setting 'monoclinic'
loop_
_space_group_symop_operation_xyz
x,y,z
-x,y,1/2-z
-x,-y,-z
x,-y,1/2+z
1/2+x,1/2+y,z
1/2-x,1/2+y,1/2-z
1/2-x,1/2-y,-z
1/2+x,1/2-y,1/2+z
loop_
_atom_site_type_symbol
_atom_site_label
_atom_site_fract_x
_atom_site_fract_y
_atom_site_fract_z
Si Si1 0.268835 0.574828 0.084222
Si Si2 0.926543 0.250000 0.131856
Si Si3 0.231165 0.574828 0.915778
Si Si4 0.753887 0.750000 0.794014
Si Si5 0.947069 0.573338 0.172936
Si Si6 0.947069 0.073338 0.672936
O O1 0.377258 0.661807 0.089109
O O2 0.344928 0.496346 0.130113
O O3 0.100840 0.595757 0.122879
O O4 0.250000 0.548429 0.000000
O O5 0.877258 0.338193 0.089109
O O6 0.829661 0.250000 0.210975
O O7 0.105700 0.250000 0.151085
O O8 0.155072 0.496346 0.869887
O O9 0.399160 0.595757 0.877121
O O10 0.650183 0.837930 0.806918
O O11 0.650183 0.662070 0.806918
O O12 0.000000 0.532638 0.250000
O O13 0.000000 0.032638 0.750000
#
# Coordination Sequence:
#
# PCOD9305113 Si02
#       6
#     8   8   8   8   8   8
#     4  12  26  44  67  99 136 172 213 271 331 387
#     4  11  24  43  68  97 133 169 222 267 329 381
#     4  12  26  44  67  99 136 172 213 271 331 387
#     4  11  24  42  70 100 125 172 224 276 311 385
#     4  12  24  44  69  99 130 173 223 265 323 387
#     4  12  24  44  69  99 130 173 223 265 323 387
#
# _framework density 20.540503000000001
#
# number of rings (size 3 to 8) (size 9 to 14) (size 15 to 20)
#    0.000    0.333    3.333    6.000    4.667    0.000 
#    0.000    2.500    0.000    0.000    0.000    0.000 
#    0.000    0.000    0.000    0.000    0.000    0.000 
#
# Total GULP energy -134478.053795 kJ/mol
# GULP energy per Si atom -5603.252241 kJ/mol
# Density = 2.049375 g / cm^3
# Si number density = 20.540503 Si / 1000 Ang^3
#
#
#
# Elastic Constant Matrix: (Units=GPa)
#
#
# Indices 1 2 3 4 5 6 
#
# 1 113.6914 21.5388 48.7122 0.0000 19.0317 0.0000
# 2 21.5388 108.7684 40.6902 0.0000 39.6602 0.0000
# 3 48.7122 40.6902 148.7022 0.0000 25.9566 0.0000
# 4 0.0000 0.0000 0.0000 71.7753 0.0000 7.7804
# 5 19.0317 39.6602 25.9566 0.0000 31.3892 0.0000
# 6 0.0000 0.0000 0.0000 7.7804 0.0000 13.5955
#
#
#
# Elastic Compliance Matrix: (Units=1/GPa)
#
#
# Indices 1 2 3 4 5 6 
#
# 1 0.010724 0.000839 -0.002831 0.000000 -0.005221 0.000000
# 2 0.000839 0.017257 -0.001288 0.000000 -0.021248 0.000000
# 3 -0.002831 -0.001288 0.008673 0.000000 -0.003828 0.000000
# 4 0.000000 0.000000 0.000000 0.014854 0.000000 -0.008501
# 5 -0.005221 -0.021248 -0.003828 0.000000 0.065036 0.000000
# 6 0.000000 0.000000 0.000000 -0.008501 0.000000 0.078419
#
#
# Mechanical properties :
#
#
# Convention : Reuss Voigt Hill
#
# Bulk Modulus (GPa) = 33.22915 65.89383 49.56149
# Shear Modulus (GPa) = 23.63466 40.70006 32.16736
#
# Velocity S-wave (km/s) = 3.39578 4.45618 3.96162
# Velocity P-wave (km/s) = 5.62029 7.65678 6.71617
#
# Compressibility (1/GPa) = 0.03009406
#
# Stress axis : x y z
#
# Youngs Moduli (GPa) = 93.25031 57.94669 115.30113
#
# Poissons Ratio (x) = -0.04864 0.32644
# Poissons Ratio (y) = -0.07828 0.14853
# Poissons Ratio (z) = 0.26401 0.07465
#
# Static dielectric constant tensor:
#      x y z
#    x 1.716260 0.000000 0.008140 
#    y 0.000000 1.691600 0.000000 
#    z 0.008140 0.000000 1.711120 
# 
# From -- ./inp_files/189225.got.cif
#   From: 2010.05.17/outbox.cif.g08.bks.cpg/sg15_95_cif.got.tgz:189225.got - 2010.06.03 18:47:42.
