data_PCOD9305753
_publ_section_title
;
Structure prediction by ZEFSAII (Michael W. Deem and Ramdas Pophale) SiO2 
 PCOD9305753
Probable space group: C 2/C
;
_chemical_formula_sum "Si O2"
_cell_formula_units_Z 48
_cell_length_a 14.646055
_cell_length_b 11.309204
_cell_length_c 25.253409
_cell_angle_alpha 90.000000
_cell_angle_beta 147.937428
_cell_angle_gamma 90.000000
_cell_volume 2220.447538
_symmetry_space_group_name_H-M "C 2/C"
_symmetry_group_IT_number 15
_symmetry_cell_setting 'monoclinic'
loop_
_space_group_symop_operation_xyz
x,y,z
-x,y,1/2-z
-x,-y,-z
x,-y,1/2+z
1/2+x,1/2+y,z
1/2-x,1/2+y,1/2-z
1/2-x,1/2-y,-z
1/2+x,1/2-y,1/2+z
loop_
_atom_site_type_symbol
_atom_site_label
_atom_site_fract_x
_atom_site_fract_y
_atom_site_fract_z
Si Si1 0.680661 0.252915 0.269875
Si Si2 0.500000 0.127261 0.750000
Si Si3 0.307080 0.547851 0.406086
Si Si4 0.513541 0.757717 0.371926
Si Si5 0.000000 0.955547 0.250000
Si Si6 0.150588 0.632572 0.436752
Si Si7 0.235017 0.923241 0.943208
O O1 0.777696 0.171643 0.361008
O O2 0.584653 0.365504 0.248707
O O3 0.536808 0.169042 0.173870
O O4 0.820546 0.282877 0.294547
O O5 0.458028 0.196754 0.674633
O O6 0.334513 0.046979 0.682767
O O7 0.500000 0.500000 0.500000
O O8 0.249331 0.571659 0.437344
O O9 0.632029 0.820101 0.475027
O O10 0.569054 0.620152 0.396078
O O11 0.850380 0.040359 0.154021
O O12 0.250000 0.750000 0.500000
O O13 0.164088 0.540087 0.490219
#
# Coordination Sequence:
#
# PCOD9305753 Si02
#       7
#     8   4   8   8   4   8   8
#     4  12  24  45  70 109 139 187 237 304 353 433
#     4  12  24  50  68 106 144 193 245 302 348 452
#     4  12  24  42  74 102 141 187 239 296 362 421
#     4  11  27  45  72 100 150 186 242 288 369 426
#     4  12  24  46  74 100 152 179 241 302 362 422
#     4  12  22  44  72 100 142 180 236 297 352 425
#     4  11  24  47  69 103 142 192 232 300 349 439
#
# _framework density 21.617263999999999
#
# number of rings (size 3 to 8) (size 9 to 14) (size 15 to 20)
#    0.000    0.333    6.667    1.500    4.667    3.333 
#    0.000    0.000    0.000    0.000    0.000    0.000 
#    0.000    0.000    0.000    0.000    0.000    0.000 
#
# Total GULP energy -133971.395786 kJ/mol
# GULP energy per Si atom -5582.141491 kJ/mol
# Density = 2.156806 g / cm^3
# Si number density = 21.617264 Si / 1000 Ang^3
#
#
#
# Elastic Constant Matrix: (Units=GPa)
#
#
# Indices 1 2 3 4 5 6 
#
# 1 62.2598 1.3957 32.5791 0.0000 11.9078 0.0000
# 2 1.3957 76.0668 35.1839 0.0000 -3.3367 0.0000
# 3 32.5791 35.1839 138.7534 0.0000 1.3542 0.0000
# 4 0.0000 0.0000 0.0000 35.5258 0.0000 -6.2010
# 5 11.9078 -3.3367 1.3542 0.0000 41.3857 0.0000
# 6 0.0000 0.0000 0.0000 -6.2010 0.0000 15.8653
#
#
#
# Elastic Compliance Matrix: (Units=1/GPa)
#
#
# Indices 1 2 3 4 5 6 
#
# 1 0.019664 0.001717 -0.005000 0.000000 -0.005356 0.000000
# 2 0.001717 0.015116 -0.004245 0.000000 0.000864 0.000000
# 3 -0.005000 -0.004245 0.009450 0.000000 0.000787 0.000000
# 4 0.000000 0.000000 0.000000 0.030210 0.000000 0.011808
# 5 -0.005356 0.000864 0.000787 0.000000 0.025748 0.000000
# 6 0.000000 0.000000 0.000000 0.011808 0.000000 0.067646
#
#
# Mechanical properties :
#
#
# Convention : Reuss Voigt Hill
#
# Bulk Modulus (GPa) = 34.27672 46.15528 40.21600
# Shear Modulus (GPa) = 25.95876 32.41678 29.18777
#
# Velocity S-wave (km/s) = 3.46907 3.87664 3.67850
# Velocity P-wave (km/s) = 5.65124 6.43702 6.05689
#
# Compressibility (1/GPa) = 0.02917432
#
# Stress axis : x y z
#
# Youngs Moduli (GPa) = 50.85410 66.15505 105.82348
#
# Poissons Ratio (x) = -0.11359 0.52914
# Poissons Ratio (y) = -0.08732 0.44918
# Poissons Ratio (z) = 0.25428 0.28080
#
# Static dielectric constant tensor:
#      x y z
#    x 1.792510 0.000000 -0.035880 
#    y 0.000000 1.777060 0.000000 
#    z -0.035880 0.000000 1.825390 
# 
# From -- ./inp_files/152490.got.cif
#   From: 2010.05.17/outbox.cif.g08.bks.cpg/sg15_77_cif.got.tgz:152490.got - 2010.06.03 18:47:42.
