data_PCOD9305677
_publ_section_title
;
Structure prediction by ZEFSAII (Michael W. Deem and Ramdas Pophale) SiO2 
 PCOD9305677
Probable space group: C 2/C
;
_chemical_formula_sum "Si O2"
_cell_formula_units_Z 56
_cell_length_a 7.528878
_cell_length_b 11.599203
_cell_length_c 30.682422
_cell_angle_alpha 90.000000
_cell_angle_beta 116.387796
_cell_angle_gamma 90.000000
_cell_volume 2400.281797
_symmetry_space_group_name_H-M "C 2/C"
_symmetry_group_IT_number 15
_symmetry_cell_setting 'monoclinic'
loop_
_space_group_symop_operation_xyz
x,y,z
-x,y,1/2-z
-x,-y,-z
x,-y,1/2+z
1/2+x,1/2+y,z
1/2-x,1/2+y,1/2-z
1/2-x,1/2-y,-z
1/2+x,1/2-y,1/2+z
loop_
_atom_site_type_symbol
_atom_site_label
_atom_site_fract_x
_atom_site_fract_y
_atom_site_fract_z
Si Si1 0.318646 0.380831 0.996871
Si Si2 0.827956 0.502924 0.196998
Si Si3 0.129407 0.353773 0.883952
Si Si4 0.921920 0.013385 0.197556
Si Si5 0.761006 0.379413 0.020892
Si Si6 0.406602 0.159542 0.874518
Si Si7 0.290689 0.249378 0.665555
O O1 0.242299 0.395762 0.938988
O O2 0.245748 0.503518 0.009705
O O3 0.250000 0.250000 0.000000
O O4 0.555491 0.383648 0.025375
O O5 0.885478 0.548833 0.155302
O O6 0.607781 0.540309 0.186658
O O7 0.797044 0.365594 0.194320
O O8 0.000000 0.536035 0.250000
O O9 0.265675 0.258392 0.876872
O O10 0.925919 0.288720 0.874865
O O11 0.842657 0.139789 0.199751
O O12 0.000000 0.954544 0.250000
O O13 0.745489 0.938135 0.158519
O O14 0.956383 0.383921 0.071350
O O15 0.750000 0.250000 0.000000
O O16 0.554930 0.216805 0.855602
#
# Coordination Sequence:
#
# PCOD9305677 Si02
#       7
#     8   8   8   8   8   8   8
#     4  11  25  47  74 110 146 197 249 312 380 450
#     4  12  26  46  73 108 147 195 248 308 368 450
#     4  12  25  48  75 107 151 196 249 306 375 446
#     4  12  26  46  72 107 146 193 248 305 372 446
#     4  11  24  46  73 105 145 189 243 312 371 445
#     4  12  25  48  74 107 147 194 247 304 371 447
#     4  12  24  46  72 103 147 197 241 306 370 433
#
# _framework density 23.330594000000001
#
# number of rings (size 3 to 8) (size 9 to 14) (size 15 to 20)
#    0.000    0.286    4.286    5.571    0.000    2.286 
#    2.571    0.000    0.000    0.000    0.000    0.000 
#    0.000    0.000    0.000    0.000    0.000    0.000 
#
# Total GULP energy -156389.818532 kJ/mol
# GULP energy per Si atom -5585.350662 kJ/mol
# Density = 2.327749 g / cm^3
# Si number density = 23.330594 Si / 1000 Ang^3
#
#
#
# Elastic Constant Matrix: (Units=GPa)
#
#
# Indices 1 2 3 4 5 6 
#
# 1 109.8221 38.6784 25.3249 0.0000 28.8705 0.0000
# 2 38.6784 176.4579 45.9581 0.0000 17.8827 0.0000
# 3 25.3249 45.9581 109.8453 0.0000 29.8463 0.0000
# 4 0.0000 0.0000 0.0000 15.1398 0.0000 5.6175
# 5 28.8705 17.8827 29.8463 0.0000 38.7167 0.0000
# 6 0.0000 0.0000 0.0000 5.6175 0.0000 29.4542
#
#
#
# Elastic Compliance Matrix: (Units=1/GPa)
#
#
# Indices 1 2 3 4 5 6 
#
# 1 0.011843 -0.001834 0.000261 0.000000 -0.008185 0.000000
# 2 -0.001834 0.006683 -0.002411 0.000000 0.000140 0.000000
# 3 0.000261 -0.002411 0.012400 0.000000 -0.008640 0.000000
# 4 0.000000 0.000000 0.000000 0.071081 0.000000 -0.013557
# 5 -0.008185 0.000140 -0.008640 0.000000 0.038528 0.000000
# 6 0.000000 0.000000 0.000000 -0.013557 0.000000 0.036537
#
#
# Mechanical properties :
#
#
# Convention : Reuss Voigt Hill
#
# Bulk Modulus (GPa) = 43.55940 68.44979 56.00459
# Shear Modulus (GPa) = 25.94793 35.73973 30.84383
#
# Velocity S-wave (km/s) = 3.33856 3.91817 3.63992
# Velocity P-wave (km/s) = 5.79417 7.06203 6.45928
#
# Compressibility (1/GPa) = 0.02295716
#
# Stress axis : x y z
#
# Youngs Moduli (GPa) = 84.43598 149.63382 80.64568
#
# Poissons Ratio (x) = 0.27450 -0.02106
# Poissons Ratio (y) = 0.15489 0.19445
# Poissons Ratio (z) = -0.02205 0.36079
#
# Static dielectric constant tensor:
#      x y z
#    x 1.943700 0.000000 0.018130 
#    y 0.000000 1.961780 0.000000 
#    z 0.018130 0.000000 1.901620 
# 
# From -- ./inp_files/307543.got.cif
#   From: 2010.05.17/outbox.cif.g08.bks.cpg/sg15_154_cif.got.tgz:307543.got - 2010.06.03 18:47:42.
