data_PCOD9305477
_publ_section_title
;
Structure prediction by ZEFSAII (Michael W. Deem and Ramdas Pophale) SiO2 
 PCOD9305477
Probable space group: C 2/C
;
_chemical_formula_sum "Si O2"
_cell_formula_units_Z 44
_cell_length_a 8.727896
_cell_length_b 15.471991
_cell_length_c 16.809964
_cell_angle_alpha 90.000000
_cell_angle_beta 121.958919
_cell_angle_gamma 90.000000
_cell_volume 1925.916508
_symmetry_space_group_name_H-M "C 2/C"
_symmetry_group_IT_number 15
_symmetry_cell_setting 'monoclinic'
loop_
_space_group_symop_operation_xyz
x,y,z
-x,y,1/2-z
-x,-y,-z
x,-y,1/2+z
1/2+x,1/2+y,z
1/2-x,1/2+y,1/2-z
1/2-x,1/2-y,-z
1/2+x,1/2-y,1/2+z
loop_
_atom_site_type_symbol
_atom_site_label
_atom_site_fract_x
_atom_site_fract_y
_atom_site_fract_z
Si Si1 0.508421 0.104242 0.845364
Si Si2 0.694315 0.994159 0.096610
Si Si3 0.648602 0.283554 0.643395
Si Si4 0.000000 0.883340 0.750000
Si Si5 0.422783 0.336502 0.144848
Si Si6 0.578848 0.403923 0.033792
O O1 0.500000 0.116142 0.750000
O O2 0.370971 0.029262 0.832112
O O3 0.444046 0.191278 0.869460
O O4 0.711251 0.087051 0.928193
O O5 0.777681 0.908188 0.080089
O O6 0.857900 0.062096 0.155534
O O7 0.500000 0.000000 0.000000
O O8 0.629748 0.328468 0.725341
O O9 0.831691 0.254919 0.645344
O O10 0.533198 0.343190 0.554819
O O11 0.500000 0.368447 0.250000
O O12 0.567105 0.351426 0.115047
O O13 0.500000 0.500000 0.000000
#
# Coordination Sequence:
#
# PCOD9305477 Si02
#       6
#     8   8   8   4   8   8
#     4  11  24  45  69  98 137 189 237 290 375 439
#     4  11  24  45  73 103 140 190 241 306 366 428
#     4  11  25  44  70 102 140 195 240 295 362 444
#     4  12  24  46  74 108 148 192 258 304 362 436
#     4  11  24  47  71 102 149 192 234 300 372 433
#     4  12  25  44  73 108 140 184 240 304 365 431
#
# _framework density 22.846264999999999
#
# number of rings (size 3 to 8) (size 9 to 14) (size 15 to 20)
#    0.000    0.727    1.818    6.545    2.545    1.455 
#    6.545    0.000    0.000    0.000    0.000    0.000 
#    0.000    0.000    0.000    0.000    0.000    0.000 
#
# Total GULP energy -122605.688067 kJ/mol
# GULP energy per Si atom -5572.985821 kJ/mol
# Density = 2.279427 g / cm^3
# Si number density = 22.846265 Si / 1000 Ang^3
#
#
#
# Elastic Constant Matrix: (Units=GPa)
#
#
# Indices 1 2 3 4 5 6 
#
# 1 99.3648 30.5353 8.6085 0.0000 -3.7278 0.0000
# 2 30.5353 78.0251 23.2086 0.0000 5.5215 0.0000
# 3 8.6085 23.2086 76.4137 0.0000 4.4644 0.0000
# 4 0.0000 0.0000 0.0000 17.9308 0.0000 11.9759
# 5 -3.7278 5.5215 4.4644 0.0000 53.5663 0.0000
# 6 0.0000 0.0000 0.0000 11.9759 0.0000 33.9941
#
#
#
# Elastic Compliance Matrix: (Units=1/GPa)
#
#
# Indices 1 2 3 4 5 6 
#
# 1 0.011526 -0.004609 0.000027 0.000000 0.001275 0.000000
# 2 -0.004609 0.015997 -0.004245 0.000000 -0.001616 0.000000
# 3 0.000027 -0.004245 0.014417 0.000000 -0.000762 0.000000
# 4 0.000000 0.000000 0.000000 0.072930 0.000000 -0.025693
# 5 0.001275 -0.001616 -0.000762 0.000000 0.018987 0.000000
# 6 0.000000 0.000000 0.000000 -0.025693 0.000000 0.038468
#
#
# Mechanical properties :
#
#
# Convention : Reuss Voigt Hill
#
# Bulk Modulus (GPa) = 41.17553 42.05650 41.61602
# Shear Modulus (GPa) = 25.24290 33.86164 29.55227
#
# Velocity S-wave (km/s) = 3.32761 3.85405 3.60047
# Velocity P-wave (km/s) = 5.72940 6.18493 5.96152
#
# Compressibility (1/GPa) = 0.02428627
#
# Stress axis : x y z
#
# Youngs Moduli (GPa) = 86.76226 62.51122 69.36019
#
# Poissons Ratio (x) = 0.28811 -0.00186
# Poissons Ratio (y) = 0.39987 0.29444
# Poissons Ratio (z) = -0.00233 0.26537
#
# Static dielectric constant tensor:
#      x y z
#    x 2.004830 0.000000 -0.005570 
#    y 0.000000 0.400600 0.000000 
#    z -0.005570 0.000000 1.893110 
# 
# From -- ./inp_files/189332.got.cif
#   From: 2010.05.17/outbox.cif.g08.bks.cpg/sg15_95_cif.got.tgz:189332.got - 2010.06.03 18:47:42.
