data_PCOD9305990
_publ_section_title
;
Structure prediction by ZEFSAII (Michael W. Deem and Ramdas Pophale) SiO2 
 PCOD9305990
Probable space group: C 2/C
;
_chemical_formula_sum "Si O2"
_cell_formula_units_Z 32
_cell_length_a 5.058529
_cell_length_b 13.840515
_cell_length_c 15.693927
_cell_angle_alpha 90.000000
_cell_angle_beta 85.770287
_cell_angle_gamma 90.000000
_cell_volume 1095.780703
_symmetry_space_group_name_H-M "C 2/C"
_symmetry_group_IT_number 15
_symmetry_cell_setting 'monoclinic'
loop_
_space_group_symop_operation_xyz
x,y,z
-x,y,1/2-z
-x,-y,-z
x,-y,1/2+z
1/2+x,1/2+y,z
1/2-x,1/2+y,1/2-z
1/2-x,1/2-y,-z
1/2+x,1/2-y,1/2+z
loop_
_atom_site_type_symbol
_atom_site_label
_atom_site_fract_x
_atom_site_fract_y
_atom_site_fract_z
Si Si1 0.306134 0.928490 0.555382
Si Si2 0.112094 0.093161 0.886612
Si Si3 0.208591 0.271398 0.602161
Si Si4 0.500000 0.000408 0.750000
Si Si5 0.000000 0.139272 0.250000
O O1 0.942477 0.801089 0.663471
O O2 0.069453 0.997779 0.594779
O O3 0.500000 0.000000 0.500000
O O4 0.503743 0.860401 0.602658
O O5 0.372580 0.066831 0.826844
O O6 0.932558 0.177855 0.853626
O O7 0.187183 0.130051 0.978790
O O8 0.250000 0.250000 0.500000
O O9 0.251195 0.931481 0.737353
#
# Coordination Sequence:
#
# PCOD9305990 Si02
#       5
#     8   8   8   4   4
#     4  11  24  52 100 138 186 255 321 398 495 598
#     4  11  28  55  99 141 190 255 331 398 502 583
#     4  12  28  59 103 143 194 254 334 410 492 593
#     4  12  32  62  94 138 206 262 317 422 493 594
#     4  12  34  62  94 142 200 258 325 406 507 592
#
# _framework density 29.202922000000001
#
# number of rings (size 3 to 8) (size 9 to 14) (size 15 to 20)
#    0.000    0.500    2.500    2.250   10.500    2.000 
#    9.000    2.500    0.000    0.000    0.000    0.000 
#    0.000    0.000    0.000    0.000    0.000    0.000 
#
# Total GULP energy -89683.373882 kJ/mol
# GULP energy per Si atom -5605.210868 kJ/mol
# Density = 2.913645 g / cm^3
# Si number density = 29.202922 Si / 1000 Ang^3
#
#
#
# Elastic Constant Matrix: (Units=GPa)
#
#
# Indices 1 2 3 4 5 6 
#
# 1 246.4187 79.6854 88.1535 0.0000 7.4572 0.0000
# 2 79.6854 151.9591 67.4549 0.0000 -15.0186 0.0000
# 3 88.1535 67.4549 225.2909 0.0000 -9.1488 0.0000
# 4 0.0000 0.0000 0.0000 32.8660 0.0000 -12.4589
# 5 7.4572 -15.0186 -9.1488 0.0000 86.3418 0.0000
# 6 0.0000 0.0000 0.0000 -12.4589 0.0000 82.0314
#
#
#
# Elastic Compliance Matrix: (Units=1/GPa)
#
#
# Indices 1 2 3 4 5 6 
#
# 1 0.005338 -0.002253 -0.001455 0.000000 -0.001007 0.000000
# 2 -0.002253 0.008642 -0.001644 0.000000 0.001524 0.000000
# 3 -0.001455 -0.001644 0.005518 0.000000 0.000424 0.000000
# 4 0.000000 0.000000 0.000000 0.032285 0.000000 0.004903
# 5 -0.001007 0.001524 0.000424 0.000000 0.011979 0.000000
# 6 0.000000 0.000000 0.000000 0.004903 0.000000 0.012935
#
#
# Mechanical properties :
#
#
# Convention : Reuss Voigt Hill
#
# Bulk Modulus (GPa) = 113.71725 121.58404 117.65064
# Shear Modulus (GPa) = 55.35129 66.13950 60.74540
#
# Velocity S-wave (km/s) = 4.35835 4.76418 4.56577
# Velocity P-wave (km/s) = 8.02196 8.48456 8.25650
#
# Compressibility (1/GPa) = 0.00879374
#
# Stress axis : x y z
#
# Youngs Moduli (GPa) = 187.35249 115.70753 181.23872
#
# Poissons Ratio (x) = 0.26064 0.26369
# Poissons Ratio (y) = 0.42203 0.29803
# Poissons Ratio (z) = 0.27259 0.19027
#
# Static dielectric constant tensor:
#      x y z
#    x 2.359680 0.000000 0.160780 
#    y 0.000000 2.251340 0.000000 
#    z 0.160780 0.000000 2.631240 
# 
# From -- ./inp_files/260055.got.cif
#   From: 2010.05.17/outbox.cif.g08.bks.cpg/sg15_131_cif.got.tgz:260055.got - 2010.06.03 18:47:42.
