data_PCOD9305007
_publ_section_title
;
Structure prediction by ZEFSAII (Michael W. Deem and Ramdas Pophale) SiO2 
 PCOD9305007
Probable space group: C 2/C
;
_chemical_formula_sum "Si O2"
_cell_formula_units_Z 64
_cell_length_a 20.082710
_cell_length_b 17.671742
_cell_length_c 21.435320
_cell_angle_alpha 90.000000
_cell_angle_beta 23.474830
_cell_angle_gamma 90.000000
_cell_volume 3030.346519
_symmetry_space_group_name_H-M "C 2/C"
_symmetry_group_IT_number 15
_symmetry_cell_setting 'monoclinic'
loop_
_space_group_symop_operation_xyz
x,y,z
-x,y,1/2-z
-x,-y,-z
x,-y,1/2+z
1/2+x,1/2+y,z
1/2-x,1/2+y,1/2-z
1/2-x,1/2-y,-z
1/2+x,1/2-y,1/2+z
loop_
_atom_site_type_symbol
_atom_site_label
_atom_site_fract_x
_atom_site_fract_y
_atom_site_fract_z
Si Si1 0.912334 0.918467 0.570308
Si Si2 0.573111 0.666162 0.567666
Si Si3 0.804354 0.584539 0.930930
Si Si4 0.821583 0.668508 0.569385
Si Si5 0.419712 0.667670 0.467903
Si Si6 0.240568 0.667103 0.403136
Si Si7 0.829027 0.589915 0.435287
Si Si8 0.568652 0.915694 0.943024
O O1 0.891105 0.894246 0.517418
O O2 0.734305 0.915221 0.757799
O O3 0.026463 0.857689 0.509342
O O4 0.000000 0.000000 0.500000
O O5 0.375830 0.666187 0.749202
O O6 0.627195 0.748100 0.496510
O O7 0.683374 0.642541 0.532290
O O8 0.777874 0.497411 0.971968
O O9 0.000000 0.596120 0.750000
O O10 0.704885 0.606520 0.954548
O O11 0.748004 0.638454 0.036016
O O12 0.860227 0.611344 0.479729
O O13 0.930767 0.641437 0.534068
O O14 0.582681 0.667335 0.283853
O O15 0.335733 0.749415 0.536574
O O16 0.122631 0.610272 0.465445
O O17 0.000000 0.602271 0.250000
O O18 0.500000 0.000000 0.000000
#
# Coordination Sequence:
#
# PCOD9305007 Si02
#       8
#     8   8   8   8   8   8   8   8
#     4  11  24  42  65  94 126 164 208 257 312 371
#     4  12  25  42  65  93 127 166 208 258 312 371
#     4  11  24  41  64  91 123 161 202 251 306 365
#     4  12  25  42  65  93 127 166 208 258 312 371
#     4  11  24  41  63  90 123 161 204 252 304 362
#     4  11  24  41  63  90 123 161 204 252 304 362
#     4  11  24  43  66  93 125 163 208 257 310 373
#     4  11  24  42  65  94 126 164 208 257 312 371
#
# _framework density 21.119696999999999
#
# number of rings (size 3 to 8) (size 9 to 14) (size 15 to 20)
#    0.000    0.750    0.000    7.500    0.000   12.000 
#    0.000    0.000    0.000    0.000    0.000    0.000 
#    0.000    0.000    0.000    0.000    0.000    0.000 
#
# Total GULP energy -179256.255044 kJ/mol
# GULP energy per Si atom -5601.757970 kJ/mol
# Density = 2.107163 g / cm^3
# Si number density = 21.119697 Si / 1000 Ang^3
#
#
#
# Elastic Constant Matrix: (Units=GPa)
#
#
# Indices 1 2 3 4 5 6 
#
# 1 48.8440 -21.6312 -6.7085 0.0062 -11.4035 0.0018
# 2 -21.6312 79.0494 8.0097 -0.0359 -9.9541 0.0100
# 3 -6.7085 8.0097 69.8737 0.0039 -14.5200 -0.0020
# 4 0.0062 -0.0359 0.0039 14.0742 0.0025 -1.8078
# 5 -11.4035 -9.9541 -14.5200 0.0025 35.0990 -0.0004
# 6 0.0018 0.0100 -0.0020 -1.8078 -0.0004 42.2055
#
#
#
# Elastic Compliance Matrix: (Units=1/GPa)
#
#
# Indices 1 2 3 4 5 6 
#
# 1 0.028242 0.008983 0.004505 0.000006 0.013587 -0.000003
# 2 0.008983 0.016017 0.000631 0.000035 0.007722 -0.000003
# 3 0.004505 0.000631 0.016425 -0.000006 0.008438 0.000000
# 4 0.000006 0.000035 -0.000006 0.071445 0.000004 0.003060
# 5 0.013587 0.007722 0.008438 0.000004 0.038586 -0.000001
# 6 -0.000003 -0.000003 0.000000 0.003060 -0.000001 0.023825
#
#
# Mechanical properties :
#
#
# Convention : Reuss Voigt Hill
#
# Bulk Modulus (GPa) = 11.24577 17.45633 14.35105
# Shear Modulus (GPa) = 25.51769 32.81555 29.16662
#
# Velocity S-wave (km/s) = 3.47975 3.94609 3.72023
# Velocity P-wave (km/s) = 4.63478 5.38939 5.02627
#
# Compressibility (1/GPa) = 0.08892234
#
# Stress axis : x y z
#
# Youngs Moduli (GPa) = 35.40779 62.43449 60.88239
#
# Poissons Ratio (x) = -0.56083 -0.27429
# Poissons Ratio (y) = -0.31806 -0.03842
# Poissons Ratio (z) = -0.15952 -0.03940
#
# Static dielectric constant tensor:
#      x y z
#    x 1.710180 0.000170 -0.006260 
#    y 0.000170 1.597810 0.000460 
#    z -0.006260 0.000460 1.739000 
# 
# From -- ./inp_files/280480.got.cif
#   From: 2010.05.17/outbox.cif.g08.bks.cpg/sg15_141_cif.got.tgz:280480.got - 2010.06.03 18:47:42.
