data_PCOD9305656
_publ_section_title
;
Structure prediction by ZEFSAII (Michael W. Deem and Ramdas Pophale) SiO2 
 PCOD9305656
Probable space group: C 2/C
;
_chemical_formula_sum "Si O2"
_cell_formula_units_Z 48
_cell_length_a 8.502977
_cell_length_b 15.029970
_cell_length_c 17.438014
_cell_angle_alpha 90.000000
_cell_angle_beta 89.307682
_cell_angle_gamma 90.000000
_cell_volume 2228.406594
_symmetry_space_group_name_H-M "C 2/C"
_symmetry_group_IT_number 15
_symmetry_cell_setting 'monoclinic'
loop_
_space_group_symop_operation_xyz
x,y,z
-x,y,1/2-z
-x,-y,-z
x,-y,1/2+z
1/2+x,1/2+y,z
1/2-x,1/2+y,1/2-z
1/2-x,1/2-y,-z
1/2+x,1/2-y,1/2+z
loop_
_atom_site_type_symbol
_atom_site_label
_atom_site_fract_x
_atom_site_fract_y
_atom_site_fract_z
Si Si1 0.260920 0.954616 0.700132
Si Si2 0.730797 0.375674 0.440536
Si Si3 0.117610 0.190234 0.104409
Si Si4 0.254654 0.280584 0.587423
Si Si5 0.431522 0.371087 0.332012
Si Si6 0.896337 0.541033 0.369313
O O1 0.191727 0.858995 0.676983
O O2 0.422093 0.970587 0.652836
O O3 0.302136 0.962383 0.789291
O O4 0.140044 0.031382 0.678552
O O5 0.829493 0.291862 0.408006
O O6 0.685922 0.360440 0.529147
O O7 0.569543 0.375803 0.393458
O O8 0.827452 0.465157 0.424409
O O9 0.929469 0.186902 0.106511
O O10 0.250000 0.250000 0.500000
O O11 0.198811 0.198626 0.639544
O O12 0.133607 0.361489 0.597314
O O13 0.500000 0.340916 0.250000
#
# Coordination Sequence:
#
# PCOD9305656 Si02
#       6
#     8   8   8   8   8   8
#     4  11  26  45  72 102 138 186 231 290 350 414
#     4  11  24  46  72 103 140 181 233 288 343 418
#     4  11  26  45  72 103 141 184 232 285 352 409
#     4  12  27  45  71 104 141 186 231 286 348 414
#     4  12  25  46  73 103 139 184 233 286 350 409
#     4  11  26  46  71 103 141 181 239 284 350 414
#
# _framework density 21.540054999999999
#
# number of rings (size 3 to 8) (size 9 to 14) (size 15 to 20)
#    0.000    0.667    3.333    3.000    9.333    2.000 
#    0.000    0.000    0.000    0.000    0.000    0.000 
#    0.000    0.000    0.000    0.000    0.000    0.000 
#
# Total GULP energy -134498.743396 kJ/mol
# GULP energy per Si atom -5604.114308 kJ/mol
# Density = 2.149103 g / cm^3
# Si number density = 21.540055 Si / 1000 Ang^3
#
#
#
# Elastic Constant Matrix: (Units=GPa)
#
#
# Indices 1 2 3 4 5 6 
#
# 1 60.5669 -9.8082 5.7949 0.0000 -6.7962 0.0000
# 2 -9.8082 51.8964 8.2830 0.0000 -15.7283 0.0000
# 3 5.7949 8.2830 28.9814 0.0000 -2.3095 0.0000
# 4 0.0000 0.0000 0.0000 26.1098 0.0000 -8.2520
# 5 -6.7962 -15.7283 -2.3095 0.0000 33.7061 0.0000
# 6 0.0000 0.0000 0.0000 -8.2520 0.0000 42.1597
#
#
#
# Elastic Compliance Matrix: (Units=1/GPa)
#
#
# Indices 1 2 3 4 5 6 
#
# 1 0.018719 0.006266 -0.005027 0.000000 0.006354 0.000000
# 2 0.006266 0.025486 -0.007530 0.000000 0.012640 0.000000
# 3 -0.005027 -0.007530 0.037506 0.000000 -0.001957 0.000000
# 4 0.000000 0.000000 0.000000 0.040825 0.000000 0.007991
# 5 0.006354 0.012640 -0.001957 0.000000 0.036713 0.000000
# 6 0.000000 0.000000 0.000000 0.007991 0.000000 0.025283
#
#
# Mechanical properties :
#
#
# Convention : Reuss Voigt Hill
#
# Bulk Modulus (GPa) = 14.46566 16.66489 15.56527
# Shear Modulus (GPa) = 22.71084 29.54012 26.12548
#
# Velocity S-wave (km/s) = 3.25060 3.70726 3.48642
# Velocity P-wave (km/s) = 4.56277 5.10672 4.84239
#
# Compressibility (1/GPa) = 0.06912925
#
# Stress axis : x y z
#
# Youngs Moduli (GPa) = 53.42059 39.23719 26.66224
#
# Poissons Ratio (x) = -0.24586 0.13404
# Poissons Ratio (y) = -0.33473 0.20076
# Poissons Ratio (z) = 0.26857 0.29544
#
# Static dielectric constant tensor:
#      x y z
#    x 1.745370 0.000000 0.001100 
#    y 0.000000 1.731790 0.000000 
#    z 0.001100 0.000000 1.755600 
# 
# From -- ./inp_files/189230.got.cif
#   From: 2010.05.17/outbox.cif.g08.bks.cpg/sg15_95_cif.got.tgz:189230.got - 2010.06.03 18:47:42.
