data_PCOD9305032
_publ_section_title
;
Structure prediction by ZEFSAII (Michael W. Deem and Ramdas Pophale) SiO2 
 PCOD9305032
Probable space group: C 2/C
;
_chemical_formula_sum "Si O2"
_cell_formula_units_Z 60
_cell_length_a 19.042969
_cell_length_b 25.696497
_cell_length_c 5.238536
_cell_angle_alpha 90.000000
_cell_angle_beta 95.402203
_cell_angle_gamma 90.000000
_cell_volume 2552.026818
_symmetry_space_group_name_H-M "C 2/C"
_symmetry_group_IT_number 15
_symmetry_cell_setting 'monoclinic'
loop_
_space_group_symop_operation_xyz
x,y,z
-x,y,1/2-z
-x,-y,-z
x,-y,1/2+z
1/2+x,1/2+y,z
1/2-x,1/2+y,1/2-z
1/2-x,1/2-y,-z
1/2+x,1/2-y,1/2+z
loop_
_atom_site_type_symbol
_atom_site_label
_atom_site_fract_x
_atom_site_fract_y
_atom_site_fract_z
Si Si1 0.727763 0.903144 0.876540
Si Si2 0.080536 0.863029 0.262256
Si Si3 0.545132 0.814501 0.528239
Si Si4 0.000000 0.534615 0.750000
Si Si5 0.858453 0.599067 0.629113
Si Si6 0.130473 0.966792 0.507660
Si Si7 0.699181 0.704424 0.086470
Si Si8 0.923053 0.791113 0.598415
O O1 0.686483 0.925688 0.617444
O O2 0.755890 0.845659 0.808494
O O3 0.683680 0.895592 0.121877
O O4 0.791324 0.942058 0.967380
O O5 0.084051 0.918088 0.396295
O O6 0.141703 0.825110 0.386663
O O7 0.000000 0.843655 0.250000
O O8 0.093748 0.851952 0.968181
O O9 0.500000 0.836144 0.750000
O O10 0.613241 0.847855 0.486678
O O11 0.566857 0.755562 0.601022
O O12 0.500000 0.814492 0.250000
O O13 0.929513 0.568356 0.716774
O O14 0.000000 0.500000 0.500000
O O15 0.119348 0.989491 0.786233
O O16 0.645133 0.728019 0.272026
O O17 0.750000 0.750000 0.000000
O O18 0.000000 0.792877 0.750000
#
# Coordination Sequence:
#
# PCOD9305032 Si02
#       8
#     8   8   8   4   8   8   8   8
#     4  11  27  44  74 105 146 196 245 301 375 444
#     4  11  25  45  75 109 147 193 251 312 378 442
#     4  11  24  41  69 103 145 189 240 296 362 435
#     4  12  28  46  74 108 140 186 250 314 374 428
#     4  12  25  47  71 105 146 192 245 309 367 450
#     4  11  27  48  75 106 146 190 252 312 379 449
#     4  11  26  45  70 109 154 201 245 301 366 458
#     4  11  24  42  75 107 149 198 246 305 373 441
#
# _framework density 23.510726999999999
#
# number of rings (size 3 to 8) (size 9 to 14) (size 15 to 20)
#    0.000    0.800    2.000    3.600   12.133    4.267 
#    0.000    0.000    0.000    0.000    0.000    0.000 
#    0.000    0.000    0.000    0.000    0.000    0.000 
#
# Total GULP energy -167402.774207 kJ/mol
# GULP energy per Si atom -5580.092474 kJ/mol
# Density = 2.345722 g / cm^3
# Si number density = 23.510727 Si / 1000 Ang^3
#
#
#
# Elastic Constant Matrix: (Units=GPa)
#
#
# Indices 1 2 3 4 5 6 
#
# 1 113.0120 10.5252 40.4754 0.0000 12.6722 0.0000
# 2 10.5252 72.0943 13.6781 0.0000 23.3030 0.0000
# 3 40.4754 13.6781 95.2466 0.0000 -2.9126 0.0000
# 4 0.0000 0.0000 0.0000 33.4136 0.0000 1.1012
# 5 12.6722 23.3030 -2.9126 0.0000 40.6346 0.0000
# 6 0.0000 0.0000 0.0000 1.1012 0.0000 12.2682
#
#
#
# Elastic Compliance Matrix: (Units=1/GPa)
#
#
# Indices 1 2 3 4 5 6 
#
# 1 0.011009 0.000670 -0.004902 0.000000 -0.004169 0.000000
# 2 0.000670 0.017818 -0.003170 0.000000 -0.010654 0.000000
# 3 -0.004902 -0.003170 0.013169 0.000000 0.004290 0.000000
# 4 0.000000 0.000000 0.000000 0.030017 0.000000 -0.002694
# 5 -0.004169 -0.010654 0.004290 0.000000 0.032327 0.000000
# 6 0.000000 0.000000 0.000000 -0.002694 0.000000 0.081753
#
#
# Mechanical properties :
#
#
# Convention : Reuss Voigt Hill
#
# Bulk Modulus (GPa) = 36.77365 45.52338 41.14851
# Shear Modulus (GPa) = 23.81397 31.64156 27.72776
#
# Velocity S-wave (km/s) = 3.18606 3.67254 3.43792
# Velocity P-wave (km/s) = 5.40461 6.11459 5.77053
#
# Compressibility (1/GPa) = 0.02719338
#
# Stress axis : x y z
#
# Youngs Moduli (GPa) = 90.83116 56.12291 75.93785
#
# Poissons Ratio (x) = -0.03762 0.37227
# Poissons Ratio (y) = -0.06089 0.24069
# Poissons Ratio (z) = 0.44528 0.17788
#
# Static dielectric constant tensor:
#      x y z
#    x 1.975980 0.000000 0.075620 
#    y 0.000000 1.938050 0.000000 
#    z 0.075620 0.000000 2.116460 
# 
# From -- ./inp_files/11544.got.cif
#   From: 2010.05.17/outbox.cif.g08.bks.cpg/sg15_6_cif.got.tgz:11544.got - 2010.06.03 18:47:42.
