data_PCOD9305131
_publ_section_title
;
Structure prediction by ZEFSAII (Michael W. Deem and Ramdas Pophale) SiO2 
 PCOD9305131
Probable space group: C 2/C
;
_chemical_formula_sum "Si O2"
_cell_formula_units_Z 44
_cell_length_a 16.542942
_cell_length_b 18.990646
_cell_length_c 9.118318
_cell_angle_alpha 90.000000
_cell_angle_beta 46.979917
_cell_angle_gamma 90.000000
_cell_volume 2094.366487
_symmetry_space_group_name_H-M "C 2/C"
_symmetry_group_IT_number 15
_symmetry_cell_setting 'monoclinic'
loop_
_space_group_symop_operation_xyz
x,y,z
-x,y,1/2-z
-x,-y,-z
x,-y,1/2+z
1/2+x,1/2+y,z
1/2-x,1/2+y,1/2-z
1/2-x,1/2-y,-z
1/2+x,1/2-y,1/2+z
loop_
_atom_site_type_symbol
_atom_site_label
_atom_site_fract_x
_atom_site_fract_y
_atom_site_fract_z
Si Si1 0.870751 0.931636 0.886504
Si Si2 0.297213 0.431010 0.632334
Si Si3 0.539173 0.070734 0.368567
Si Si4 0.860150 0.772032 0.936574
Si Si5 0.480480 0.224526 0.021845
Si Si6 0.000000 0.838002 0.250000
O O1 0.827461 0.929482 0.770222
O O2 0.859096 0.854438 0.969458
O O3 0.000000 0.949585 0.750000
O O4 0.809041 0.989740 0.057194
O O5 0.169864 0.415850 0.741748
O O6 0.393257 0.384392 0.432160
O O7 0.500000 0.060279 0.250000
O O8 0.484758 0.145942 0.481255
O O9 0.500000 0.000000 0.500000
O O10 0.945577 0.756696 0.699251
O O11 0.750000 0.750000 0.000000
O O12 0.866665 0.724924 0.073764
O O13 0.473331 0.282966 0.154013
#
# Coordination Sequence:
#
# PCOD9305131 Si02
#       6
#     8   8   8   8   8   4
#     4  12  23  44  67 108 138 180 228 287 364 406
#     4  12  27  43  72 103 144 185 231 294 347 423
#     4  12  29  51  69 100 141 191 238 282 352 422
#     4  11  24  42  71  98 138 183 232 283 347 414
#     4  11  25  45  69 101 137 178 233 288 344 420
#     4  12  24  46  70 106 142 172 236 300 356 416
#
# _framework density 21.00874
#
# number of rings (size 3 to 8) (size 9 to 14) (size 15 to 20)
#    0.000    0.364    5.455    2.727    7.636    2.182 
#    0.000    0.000    0.000    0.000    0.000    0.000 
#    0.000    0.000    0.000    0.000    0.000    0.000 
#
# Total GULP energy -122596.089220 kJ/mol
# GULP energy per Si atom -5572.549510 kJ/mol
# Density = 2.096092 g / cm^3
# Si number density = 21.008740 Si / 1000 Ang^3
#
#
#
# Elastic Constant Matrix: (Units=GPa)
#
#
# Indices 1 2 3 4 5 6 
#
# 1 148.3124 21.6080 42.3306 0.0000 28.5133 0.0000
# 2 21.6080 171.8355 44.8883 0.0000 21.7314 0.0000
# 3 42.3306 44.8883 44.9229 0.0000 25.0791 0.0000
# 4 0.0000 0.0000 0.0000 31.6330 0.0000 18.2313
# 5 28.5133 21.7314 25.0791 0.0000 42.6970 0.0000
# 6 0.0000 0.0000 0.0000 18.2313 0.0000 23.1257
#
#
#
# Elastic Compliance Matrix: (Units=1/GPa)
#
#
# Indices 1 2 3 4 5 6 
#
# 1 0.009579 0.001523 -0.009737 0.000000 -0.001453 0.000000
# 2 0.001523 0.008141 -0.009952 0.000000 0.000685 0.000000
# 3 -0.009737 -0.009952 0.051960 0.000000 -0.018953 0.000000
# 4 0.000000 0.000000 0.000000 0.057937 0.000000 -0.045675
# 5 -0.001453 0.000685 -0.018953 0.000000 0.035175 0.000000
# 6 0.000000 0.000000 0.000000 -0.045675 0.000000 0.079250
#
#
# Mechanical properties :
#
#
# Convention : Reuss Voigt Hill
#
# Bulk Modulus (GPa) = 29.98672 64.74717 47.36694
# Shear Modulus (GPa) = 17.27175 36.57408 26.92292
#
# Velocity S-wave (km/s) = 2.87038 4.17693 3.58370
# Velocity P-wave (km/s) = 5.02890 7.35856 6.30231
#
# Compressibility (1/GPa) = 0.03334810
#
# Stress axis : x y z
#
# Youngs Moduli (GPa) = 104.39530 122.83190 19.24540
#
# Poissons Ratio (x) = -0.18703 0.18739
# Poissons Ratio (y) = -0.15896 0.19154
# Poissons Ratio (z) = 1.01646 1.22246
#
# Static dielectric constant tensor:
#      x y z
#    x 1.878070 0.000000 0.007130 
#    y 0.000000 1.618710 0.000000 
#    z 0.007130 0.000000 1.608240 
# 
# From -- ./inp_files/48896.got.cif
#   From: 2010.05.17/outbox.cif.g08.bks.cpg/sg15_25_cif.got.tgz:48896.got - 2010.06.03 18:47:42.
