data_PCOD9305849
_publ_section_title
;
Structure prediction by ZEFSAII (Michael W. Deem and Ramdas Pophale) SiO2 
 PCOD9305849
Probable space group: C 2/C
;
_chemical_formula_sum "Si O2"
_cell_formula_units_Z 32
_cell_length_a 6.368487
_cell_length_b 16.775646
_cell_length_c 12.370547
_cell_angle_alpha 90.000000
_cell_angle_beta 72.466445
_cell_angle_gamma 90.000000
_cell_volume 1260.212111
_symmetry_space_group_name_H-M "C 2/C"
_symmetry_group_IT_number 15
_symmetry_cell_setting 'monoclinic'
loop_
_space_group_symop_operation_xyz
x,y,z
-x,y,1/2-z
-x,-y,-z
x,-y,1/2+z
1/2+x,1/2+y,z
1/2-x,1/2+y,1/2-z
1/2-x,1/2-y,-z
1/2+x,1/2-y,1/2+z
loop_
_atom_site_type_symbol
_atom_site_label
_atom_site_fract_x
_atom_site_fract_y
_atom_site_fract_z
Si Si1 0.911636 0.327908 0.096346
Si Si2 0.764552 0.816774 0.878100
Si Si3 0.000000 0.241375 0.750000
Si Si4 0.500000 0.031592 0.750000
Si Si5 0.544825 0.526120 0.366620
O O1 0.650040 0.308762 0.141696
O O2 0.090901 0.260538 0.108422
O O3 0.943303 0.406590 0.162649
O O4 0.022646 0.337762 0.963603
O O5 0.692672 0.792558 0.770736
O O6 0.912222 0.892476 0.876789
O O7 0.694547 0.976564 0.679672
O O8 0.500000 0.487333 0.250000
O O9 0.500000 0.500000 0.500000
#
# Coordination Sequence:
#
# PCOD9305849 Si02
#       5
#     8   8   4   4   8
#     4  11  24  47  81 116 154 206 269 336 400 474
#     4  11  25  49  78 116 157 207 270 332 399 482
#     4  12  22  43  82 117 152 196 268 338 403 466
#     4  12  26  53  80 117 168 212 266 334 405 480
#     4  12  29  53  80 114 167 216 267 331 406 481
#
# _framework density 25.39255
#
# number of rings (size 3 to 8) (size 9 to 14) (size 15 to 20)
#    0.000    0.500    5.000    2.250    1.750    5.000 
#    9.000    0.000    0.000    0.000    0.000    0.000 
#    0.000    0.000    0.000    0.000    0.000    0.000 
#
# Total GULP energy -89077.277808 kJ/mol
# GULP energy per Si atom -5567.329863 kJ/mol
# Density = 2.533476 g / cm^3
# Si number density = 25.392550 Si / 1000 Ang^3
#
#
#
# Elastic Constant Matrix: (Units=GPa)
#
#
# Indices 1 2 3 4 5 6 
#
# 1 115.5945 45.6712 40.1763 0.0000 -39.4510 0.0000
# 2 45.6712 60.2602 -9.4647 0.0000 -17.2804 0.0000
# 3 40.1763 -9.4647 131.5647 0.0000 -42.0469 0.0000
# 4 0.0000 0.0000 0.0000 32.7111 0.0000 -13.0997
# 5 -39.4510 -17.2804 -42.0469 0.0000 71.2171 0.0000
# 6 0.0000 0.0000 0.0000 -13.0997 0.0000 57.7991
#
#
#
# Elastic Compliance Matrix: (Units=1/GPa)
#
#
# Indices 1 2 3 4 5 6 
#
# 1 0.016193 -0.012107 -0.004792 0.000000 0.003203 0.000000
# 2 -0.012107 0.028120 0.007096 0.000000 0.004306 0.000000
# 3 -0.004792 0.007096 0.011434 0.000000 0.005818 0.000000
# 4 0.000000 0.000000 0.000000 0.033622 0.000000 0.007620
# 5 0.003203 0.004306 0.005818 0.000000 0.020296 0.000000
# 6 0.000000 0.000000 0.000000 0.007620 0.000000 0.019028
#
#
# Mechanical properties :
#
#
# Convention : Reuss Voigt Hill
#
# Bulk Modulus (GPa) = 27.66904 51.13165 39.40035
# Shear Modulus (GPa) = 31.18249 47.74789 39.46519
#
# Velocity S-wave (km/s) = 3.50811 4.34105 3.94662
# Velocity P-wave (km/s) = 5.22774 6.73101 6.02643
#
# Compressibility (1/GPa) = 0.03614147
#
# Stress axis : x y z
#
# Youngs Moduli (GPa) = 61.75445 35.56205 87.45782
#
# Poissons Ratio (x) = 0.43055 0.41911
# Poissons Ratio (y) = 0.74765 -0.62062
# Poissons Ratio (z) = 0.29594 -0.25236
#
# Static dielectric constant tensor:
#      x y z
#    x 2.025200 0.000000 0.070020 
#    y 0.000000 2.047090 0.000000 
#    z 0.070020 0.000000 2.273740 
# 
# From -- ./inp_files/128311.got.cif
#   From: 2010.05.17/outbox.cif.g08.bks.cpg/sg15_65_cif.got.tgz:128311.got - 2010.06.03 18:47:42.
