data_PCOD9305464
_publ_section_title
;
Structure prediction by ZEFSAII (Michael W. Deem and Ramdas Pophale) SiO2 
 PCOD9305464
Probable space group: C 2/C
;
_chemical_formula_sum "Si O2"
_cell_formula_units_Z 36
_cell_length_a 8.357762
_cell_length_b 11.299590
_cell_length_c 18.635928
_cell_angle_alpha 90.000000
_cell_angle_beta 112.591800
_cell_angle_gamma 90.000000
_cell_volume 1624.913245
_symmetry_space_group_name_H-M "C 2/C"
_symmetry_group_IT_number 15
_symmetry_cell_setting 'monoclinic'
loop_
_space_group_symop_operation_xyz
x,y,z
-x,y,1/2-z
-x,-y,-z
x,-y,1/2+z
1/2+x,1/2+y,z
1/2-x,1/2+y,1/2-z
1/2-x,1/2-y,-z
1/2+x,1/2-y,1/2+z
loop_
_atom_site_type_symbol
_atom_site_label
_atom_site_fract_x
_atom_site_fract_y
_atom_site_fract_z
Si Si1 0.289034 0.292613 0.345125
Si Si2 0.500000 0.217031 0.250000
Si Si3 0.845549 0.130632 0.537850
Si Si4 0.759749 0.461059 0.626878
Si Si5 0.913988 0.052193 0.158918
O O1 0.361275 0.283185 0.276338
O O2 0.455447 0.326949 0.422229
O O3 0.176240 0.410319 0.336361
O O4 0.199189 0.170482 0.351628
O O5 0.602584 0.135793 0.324487
O O6 0.750000 0.250000 0.500000
O O7 0.786434 0.043063 0.464650
O O8 0.814020 0.059541 0.606678
O O9 0.578427 0.429748 0.634990
O O10 0.000000 0.025460 0.250000
#
# Coordination Sequence:
#
# PCOD9305464 Si02
#       5
#     8   4   8   8   8
#     4  11  25  44  70  99 135 182 223 283 338 401
#     4  12  24  42  70 102 132 180 230 274 346 404
#     4  11  25  45  69 102 140 180 225 284 339 403
#     4  11  26  44  68 103 138 175 230 280 338 406
#     4  11  24  45  69 100 137 179 228 282 336 400
#
# _framework density 22.155028999999999
#
# number of rings (size 3 to 8) (size 9 to 14) (size 15 to 20)
#    0.000    0.889    4.444    2.667    7.778    4.444 
#    4.000    0.000    0.000    0.000    0.000    0.000 
#    0.000    0.000    0.000    0.000    0.000    0.000 
#
# Total GULP energy -100506.493960 kJ/mol
# GULP energy per Si atom -5583.694109 kJ/mol
# Density = 2.210460 g / cm^3
# Si number density = 22.155029 Si / 1000 Ang^3
#
#
#
# Elastic Constant Matrix: (Units=GPa)
#
#
# Indices 1 2 3 4 5 6 
#
# 1 26.4194 39.2238 14.9420 0.0000 -3.0897 0.0000
# 2 39.2238 182.8497 66.1950 0.0000 -10.7366 0.0000
# 3 14.9420 66.1950 166.6732 0.0000 1.6327 0.0000
# 4 0.0000 0.0000 0.0000 28.1403 0.0000 -6.8624
# 5 -3.0897 -10.7366 1.6327 0.0000 26.5969 0.0000
# 6 0.0000 0.0000 0.0000 -6.8624 0.0000 34.6969
#
#
#
# Elastic Compliance Matrix: (Units=1/GPa)
#
#
# Indices 1 2 3 4 5 6 
#
# 1 0.055631 -0.011701 -0.000357 0.000000 0.001761 0.000000
# 2 -0.011701 0.009054 -0.002571 0.000000 0.002453 0.000000
# 3 -0.000357 -0.002571 0.007068 0.000000 -0.001513 0.000000
# 4 0.000000 0.000000 0.000000 0.037337 0.000000 0.007385
# 5 0.001761 0.002453 -0.001513 0.000000 0.038886 0.000000
# 6 0.000000 0.000000 0.000000 0.007385 0.000000 0.030282
#
#
# Mechanical properties :
#
#
# Convention : Reuss Voigt Hill
#
# Bulk Modulus (GPa) = 23.53265 68.51819 46.02542
# Shear Modulus (GPa) = 22.55506 34.92558 28.74032
#
# Velocity S-wave (km/s) = 3.19416 3.97472 3.60563
# Velocity P-wave (km/s) = 4.92427 7.21515 6.17684
#
# Compressibility (1/GPa) = 0.04249414
#
# Stress axis : x y z
#
# Youngs Moduli (GPa) = 17.97563 110.45228 141.49013
#
# Poissons Ratio (x) = 1.29238 0.05057
# Poissons Ratio (y) = 0.21033 0.36374
# Poissons Ratio (z) = 0.00643 0.28395
#
# Static dielectric constant tensor:
#      x y z
#    x 1.815220 0.000000 -0.004860 
#    y 0.000000 1.925640 0.000000 
#    z -0.004860 0.000000 1.832450 
# 
# From -- ./inp_files/187601.got.cif
#   From: 2010.05.17/outbox.cif.g08.bks.cpg/sg15_94_cif.got.tgz:187601.got - 2010.06.03 18:47:42.
