data_PCOD9305556
_publ_section_title
;
Structure prediction by ZEFSAII (Michael W. Deem and Ramdas Pophale) SiO2 
 PCOD9305556
Probable space group: C 2/C
;
_chemical_formula_sum "Si O2"
_cell_formula_units_Z 32
_cell_length_a 25.386658
_cell_length_b 9.061155
_cell_length_c 12.159555
_cell_angle_alpha 90.000000
_cell_angle_beta 154.087742
_cell_angle_gamma 90.000000
_cell_volume 1222.313133
_symmetry_space_group_name_H-M "C 2/C"
_symmetry_group_IT_number 15
_symmetry_cell_setting 'monoclinic'
loop_
_space_group_symop_operation_xyz
x,y,z
-x,y,1/2-z
-x,-y,-z
x,-y,1/2+z
1/2+x,1/2+y,z
1/2-x,1/2+y,1/2-z
1/2-x,1/2-y,-z
1/2+x,1/2-y,1/2+z
loop_
_atom_site_type_symbol
_atom_site_label
_atom_site_fract_x
_atom_site_fract_y
_atom_site_fract_z
Si Si1 0.805671 0.609707 0.343953
Si Si2 0.609889 0.663892 0.134130
Si Si3 0.042620 0.608137 0.675520
Si Si4 0.163932 0.115630 0.875158
O O1 0.702369 0.702698 0.211187
O O2 0.876832 0.467474 0.078769
O O3 0.922844 0.679164 0.504502
O O4 0.732481 0.538066 0.106295
O O5 0.617207 0.767800 0.253850
O O6 0.640341 0.499485 0.233235
O O7 0.468912 0.667977 0.837119
O O8 0.000000 0.500000 0.500000
O O9 0.250000 0.250000 0.000000
#
# Coordination Sequence:
#
# PCOD9305556 Si02
#       4
#     8   8   8   8
#     4  11  24  45  74 107 144 206 254 314 405 461
#     4  11  25  46  73 108 151 197 260 322 391 476
#     4  11  25  48  70 109 155 200 261 325 386 476
#     4  11  24  46  73 107 155 193 257 332 388 477
#
# _framework density 26.179872
#
# number of rings (size 3 to 8) (size 9 to 14) (size 15 to 20)
#    0.000    1.000    2.500    3.000    0.000    4.000 
#    9.000    0.000    0.000    0.000    0.000    0.000 
#    0.000    0.000    0.000    0.000    0.000    0.000 
#
# Total GULP energy -89401.921326 kJ/mol
# GULP energy per Si atom -5587.620083 kJ/mol
# Density = 2.612029 g / cm^3
# Si number density = 26.179872 Si / 1000 Ang^3
#
#
#
# Elastic Constant Matrix: (Units=GPa)
#
#
# Indices 1 2 3 4 5 6 
#
# 1 152.0444 39.9215 93.5550 0.0000 45.9043 0.0000
# 2 39.9215 102.6991 39.7897 0.0000 3.2227 0.0000
# 3 93.5550 39.7897 228.7659 0.0000 3.7935 0.0000
# 4 0.0000 0.0000 0.0000 36.4454 0.0000 1.4556
# 5 45.9043 3.2227 3.7935 0.0000 99.7097 0.0000
# 6 0.0000 0.0000 0.0000 1.4556 0.0000 8.6824
#
#
#
# Elastic Compliance Matrix: (Units=1/GPa)
#
#
# Indices 1 2 3 4 5 6 
#
# 1 0.011268 -0.002650 -0.004065 0.000000 -0.004947 0.000000
# 2 -0.002650 0.011071 -0.000857 0.000000 0.000895 0.000000
# 3 -0.004065 -0.000857 0.006155 0.000000 0.001665 0.000000
# 4 0.000000 0.000000 0.000000 0.027623 0.000000 -0.004631
# 5 -0.004947 0.000895 0.001665 0.000000 0.012214 0.000000
# 6 0.000000 0.000000 0.000000 -0.004631 0.000000 0.115952
#
#
# Mechanical properties :
#
#
# Convention : Reuss Voigt Hill
#
# Bulk Modulus (GPa) = 74.90314 92.22686 83.56500
# Shear Modulus (GPa) = 24.52465 49.65040 37.08752
#
# Velocity S-wave (km/s) = 3.06400 4.35962 3.76791
# Velocity P-wave (km/s) = 6.41798 7.78758 7.13572
#
# Compressibility (1/GPa) = 0.01335057
#
# Stress axis : x y z
#
# Youngs Moduli (GPa) = 88.74974 90.32522 162.46651
#
# Poissons Ratio (x) = 0.23934 0.66043
# Poissons Ratio (y) = 0.23517 0.13920
# Poissons Ratio (z) = 0.36077 0.07739
#
# Static dielectric constant tensor:
#      x y z
#    x 2.103700 0.000000 0.005530 
#    y 0.000000 2.078950 0.000000 
#    z 0.005530 0.000000 2.081000 
# 
# From -- ./inp_files/111912.got.cif
#   From: 2010.05.17/outbox.cif.g08.bks.cpg/sg15_56_cif.got.tgz:111912.got - 2010.06.03 18:47:42.
