data_PCOD9305724
_publ_section_title
;
Structure prediction by ZEFSAII (Michael W. Deem and Ramdas Pophale) SiO2 
 PCOD9305724
Probable space group: C 2/C
;
_chemical_formula_sum "Si O2"
_cell_formula_units_Z 40
_cell_length_a 17.136768
_cell_length_b 5.335480
_cell_length_c 17.702281
_cell_angle_alpha 90.000000
_cell_angle_beta 94.321608
_cell_angle_gamma 90.000000
_cell_volume 1613.968643
_symmetry_space_group_name_H-M "C 2/C"
_symmetry_group_IT_number 15
_symmetry_cell_setting 'monoclinic'
loop_
_space_group_symop_operation_xyz
x,y,z
-x,y,1/2-z
-x,-y,-z
x,-y,1/2+z
1/2+x,1/2+y,z
1/2-x,1/2+y,1/2-z
1/2-x,1/2-y,-z
1/2+x,1/2-y,1/2+z
loop_
_atom_site_type_symbol
_atom_site_label
_atom_site_fract_x
_atom_site_fract_y
_atom_site_fract_z
Si Si1 0.544725 0.508676 0.372316
Si Si2 0.307316 0.033146 0.838717
Si Si3 0.465662 0.997066 0.913670
Si Si4 0.658687 0.835442 0.813845
Si Si5 0.310320 0.241418 0.572709
O O1 0.500025 0.772168 0.366320
O O2 0.598105 0.396629 0.308872
O O3 0.616739 0.570960 0.435770
O O4 0.486653 0.281842 0.386638
O O5 0.352284 0.979026 0.764708
O O6 0.244295 0.827784 0.861135
O O7 0.372998 0.045911 0.907160
O O8 0.250022 0.263783 0.822282
O O9 0.500000 0.000000 0.000000
O O10 0.650230 0.989328 0.891445
O O11 0.250000 0.250000 0.500000
#
# Coordination Sequence:
#
# PCOD9305724 Si02
#       5
#     8   8   8   8   8
#     4  11  26  48  69 105 148 188 242 293 372 435
#     4  11  26  43  77 105 146 190 248 301 363 442
#     4  12  27  48  74 109 148 191 241 306 374 435
#     4  11  24  48  71 107 144 196 249 299 368 438
#     4  11  24  46  77 106 146 192 247 305 361 438
#
# _framework density 24.783626000000002
#
# number of rings (size 3 to 8) (size 9 to 14) (size 15 to 20)
#    0.000    0.800    4.000    1.800    5.600    2.400 
#    3.600    0.000    0.000    0.000    0.000    0.000 
#    0.000    0.000    0.000    0.000    0.000    0.000 
#
# Total GULP energy -111621.725297 kJ/mol
# GULP energy per Si atom -5581.086265 kJ/mol
# Density = 2.472722 g / cm^3
# Si number density = 24.783626 Si / 1000 Ang^3
#
#
#
# Elastic Constant Matrix: (Units=GPa)
#
#
# Indices 1 2 3 4 5 6 
#
# 1 101.3413 26.5185 -6.3669 0.0000 2.5377 0.0000
# 2 26.5185 127.0736 20.8975 0.0000 -4.2181 0.0000
# 3 -6.3669 20.8975 71.6383 0.0000 4.2533 0.0000
# 4 0.0000 0.0000 0.0000 21.9072 0.0000 -8.5633
# 5 2.5377 -4.2181 4.2533 0.0000 32.0490 0.0000
# 6 0.0000 0.0000 0.0000 -8.5633 0.0000 45.9530
#
#
#
# Elastic Compliance Matrix: (Units=1/GPa)
#
#
# Indices 1 2 3 4 5 6 
#
# 1 0.010688 -0.002571 0.001784 0.000000 -0.001422 0.000000
# 2 -0.002571 0.008949 -0.002944 0.000000 0.001772 0.000000
# 3 0.001784 -0.002944 0.015127 0.000000 -0.002536 0.000000
# 4 0.000000 0.000000 0.000000 0.049233 0.000000 0.009175
# 5 -0.001422 0.001772 -0.002536 0.000000 0.031885 0.000000
# 6 0.000000 0.000000 0.000000 0.009175 0.000000 0.023471
#
#
# Mechanical properties :
#
#
# Convention : Reuss Voigt Hill
#
# Bulk Modulus (GPa) = 36.62707 42.46125 39.54416
# Shear Modulus (GPa) = 32.06860 37.24881 34.65871
#
# Velocity S-wave (km/s) = 3.60104 3.88101 3.74364
# Velocity P-wave (km/s) = 5.66576 6.10352 5.88871
#
# Compressibility (1/GPa) = 0.02730221
#
# Stress axis : x y z
#
# Youngs Moduli (GPa) = 93.56167 111.74421 66.10683
#
# Poissons Ratio (x) = 0.28730 -0.11796
# Poissons Ratio (y) = 0.24056 0.19463
# Poissons Ratio (z) = -0.16694 0.32900
#
# Static dielectric constant tensor:
#      x y z
#    x 1.975030 0.000000 -0.052530 
#    y 0.000000 2.065170 0.000000 
#    z -0.052530 0.000000 2.012560 
# 
# From -- ./inp_files/208061.got.cif
#   From: 2010.05.17/outbox.cif.g08.bks.cpg/sg15_105_cif.got.tgz:208061.got - 2010.06.03 18:47:42.
