data_PCOD9305076
_publ_section_title
;
Structure prediction by ZEFSAII (Michael W. Deem and Ramdas Pophale) SiO2 
 PCOD9305076
Probable space group: C 2/C
;
_chemical_formula_sum "Si O2"
_cell_formula_units_Z 40
_cell_length_a 8.415775
_cell_length_b 21.080456
_cell_length_c 16.575081
_cell_angle_alpha 90.000000
_cell_angle_beta 147.354241
_cell_angle_gamma 90.000000
_cell_volume 1586.264801
_symmetry_space_group_name_H-M "C 2/C"
_symmetry_group_IT_number 15
_symmetry_cell_setting 'monoclinic'
loop_
_space_group_symop_operation_xyz
x,y,z
-x,y,1/2-z
-x,-y,-z
x,-y,1/2+z
1/2+x,1/2+y,z
1/2-x,1/2+y,1/2-z
1/2-x,1/2-y,-z
1/2+x,1/2-y,1/2+z
loop_
_atom_site_type_symbol
_atom_site_label
_atom_site_fract_x
_atom_site_fract_y
_atom_site_fract_z
Si Si1 0.303855 0.811475 0.829599
Si Si2 0.265362 0.059181 0.217640
Si Si3 0.213380 0.389677 0.416442
Si Si4 0.965100 0.237694 0.434939
Si Si5 0.664214 0.950443 0.130769
O O1 0.297709 0.884590 0.798095
O O2 0.546576 0.784615 0.994489
O O3 0.000000 0.801996 0.750000
O O4 0.290454 0.771733 0.740283
O O5 0.500000 0.072310 0.250000
O O6 0.315675 0.992760 0.280697
O O7 0.945119 0.056906 0.040376
O O8 0.436783 0.331988 0.492550
O O9 0.000000 0.393924 0.250000
O O10 0.018300 0.389182 0.415952
O O11 0.250000 0.250000 0.500000
O O12 0.000000 0.935897 0.250000
O O13 0.500000 0.000000 0.000000
#
# Coordination Sequence:
#
# PCOD9305076 Si02
#       5
#     8   8   8   8   8
#     4   9  18  36  65  93 128 174 228 275 336 402
#     4  11  25  43  65  97 138 182 222 277 344 409
#     4  11  24  42  66  97 135 176 221 277 343 403
#     4   9  18  35  64  95 127 173 222 276 335 396
#     4  12  26  44  69  99 134 177 229 281 342 413
#
# _framework density 25.216472
#
# number of rings (size 3 to 8) (size 9 to 14) (size 15 to 20)
#    0.000    1.600    2.000    3.000    8.400    1.600 
#    0.000    4.000    0.000   14.400    0.000    5.600 
#    0.000    0.000    0.000    0.000    0.000    0.000 
#
# Total GULP energy -111695.891889 kJ/mol
# GULP energy per Si atom -5584.794594 kJ/mol
# Density = 2.515908 g / cm^3
# Si number density = 25.216472 Si / 1000 Ang^3
#
#
#
# Elastic Constant Matrix: (Units=GPa)
#
#
# Indices 1 2 3 4 5 6 
#
# 1 111.7944 17.3631 53.2425 -0.0047 -6.6309 -0.0031
# 2 17.3631 53.6732 37.0886 -0.0051 -27.8669 -0.0051
# 3 53.2425 37.0886 122.5243 -0.0575 -15.7189 -0.0342
# 4 -0.0047 -0.0051 -0.0575 28.4221 -0.0019 -6.8326
# 5 -6.6309 -27.8669 -15.7189 -0.0019 51.7436 0.0019
# 6 -0.0031 -0.0051 -0.0342 -6.8326 0.0019 25.2549
#
#
#
# Elastic Compliance Matrix: (Units=1/GPa)
#
#
# Indices 1 2 3 4 5 6 
#
# 1 0.011287 -0.000477 -0.004794 -0.000010 -0.000267 -0.000008
# 2 -0.000477 0.031558 -0.007464 -0.000010 0.014667 -0.000008
# 3 -0.004794 -0.007464 0.012393 0.000028 -0.000869 0.000022
# 4 -0.000010 -0.000010 0.000028 0.037631 0.000003 0.010181
# 5 -0.000267 0.014667 -0.000869 0.000003 0.026927 0.000001
# 6 -0.000008 -0.000008 0.000022 0.010181 0.000001 0.042351
#
#
# Mechanical properties :
#
#
# Convention : Reuss Voigt Hill
#
# Bulk Modulus (GPa) = 33.59360 55.93115 44.76237
# Shear Modulus (GPa) = 25.31132 33.10397 29.20764
#
# Velocity S-wave (km/s) = 3.17166 3.62718 3.40704
# Velocity P-wave (km/s) = 5.17335 6.30638 5.76775
#
# Compressibility (1/GPa) = 0.02976758
#
# Stress axis : x y z
#
# Youngs Moduli (GPa) = 88.60066 31.68727 80.69119
#
# Poissons Ratio (x) = 0.01511 0.38687
# Poissons Ratio (y) = 0.04224 0.60228
# Poissons Ratio (z) = 0.42479 0.23651
#
# Static dielectric constant tensor:
#      x y z
#    x 2.007540 -0.000010 0.048810 
#    y -0.000010 2.183920 -0.000020 
#    z 0.048810 -0.000020 2.081120 
# 
# From -- ./inp_files/193453.got.cif
#   From: 2010.05.17/outbox.cif.g08.bks.cpg/sg15_97_cif.got.tgz:193453.got - 2010.06.03 18:47:42.
