data_PCOD9305683
_publ_section_title
;
Structure prediction by ZEFSAII (Michael W. Deem and Ramdas Pophale) SiO2 
 PCOD9305683
Probable space group: C 2/C
;
_chemical_formula_sum "Si O2"
_cell_formula_units_Z 44
_cell_length_a 20.052889
_cell_length_b 7.676777
_cell_length_c 11.230521
_cell_angle_alpha 90.000000
_cell_angle_beta 84.634532
_cell_angle_gamma 90.000000
_cell_volume 1721.268964
_symmetry_space_group_name_H-M "C 2/C"
_symmetry_group_IT_number 15
_symmetry_cell_setting 'monoclinic'
loop_
_space_group_symop_operation_xyz
x,y,z
-x,y,1/2-z
-x,-y,-z
x,-y,1/2+z
1/2+x,1/2+y,z
1/2-x,1/2+y,1/2-z
1/2-x,1/2-y,-z
1/2+x,1/2-y,1/2+z
loop_
_atom_site_type_symbol
_atom_site_label
_atom_site_fract_x
_atom_site_fract_y
_atom_site_fract_z
Si Si1 0.897271 0.067928 0.897321
Si Si2 0.271548 0.288365 0.334409
Si Si3 0.702269 0.149734 0.419001
Si Si4 0.000000 0.720307 0.250000
Si Si5 0.569204 0.990433 0.416921
Si Si6 0.868214 0.885788 0.650459
O O1 0.838029 0.214412 0.902880
O O2 0.966950 0.159033 0.855761
O O3 0.882872 0.948300 0.783362
O O4 0.892285 0.998423 0.032815
O O5 0.299938 0.268693 0.197479
O O6 0.237518 0.470679 0.372553
O O7 0.211146 0.151801 0.351840
O O8 0.750000 0.250000 0.500000
O O9 0.629485 0.089467 0.474027
O O10 0.944199 0.598485 0.201290
O O11 0.500000 0.000000 0.500000
O O12 0.592230 0.796629 0.377417
#
# Coordination Sequence:
#
# PCOD9305683 Si02
#       6
#     8   8   8   4   8   8
#     4  12  26  48  74 114 155 197 265 313 400 459
#     4  11  24  46  73 111 151 199 256 322 397 460
#     4  11  26  46  80 114 154 206 265 332 398 475
#     4  12  26  48  78 106 156 208 258 326 384 494
#     4  11  25  52  77 112 157 211 268 320 410 474
#     4  11  27  49  78 111 155 209 251 335 384 487
#
# _framework density 25.562536000000001
#
# number of rings (size 3 to 8) (size 9 to 14) (size 15 to 20)
#    0.000    0.727    5.455    0.545    2.545    7.273 
#    6.545    0.000    0.000    0.000    0.000    0.000 
#    0.000    0.000    0.000    0.000    0.000    0.000 
#
# Total GULP energy -123155.172463 kJ/mol
# GULP energy per Si atom -5597.962385 kJ/mol
# Density = 2.550435 g / cm^3
# Si number density = 25.562536 Si / 1000 Ang^3
#
#
#
# Elastic Constant Matrix: (Units=GPa)
#
#
# Indices 1 2 3 4 5 6 
#
# 1 145.1299 43.0372 46.5393 0.0000 -21.2352 0.0000
# 2 43.0372 111.9037 50.1061 0.0000 -3.4922 0.0000
# 3 46.5393 50.1061 171.0839 0.0000 -16.8783 0.0000
# 4 0.0000 0.0000 0.0000 41.1117 0.0000 8.8449
# 5 -21.2352 -3.4922 -16.8783 0.0000 47.4747 0.0000
# 6 0.0000 0.0000 0.0000 8.8449 0.0000 42.7975
#
#
#
# Elastic Compliance Matrix: (Units=1/GPa)
#
#
# Indices 1 2 3 4 5 6 
#
# 1 0.008532 -0.002628 -0.001237 0.000000 0.003183 0.000000
# 2 -0.002628 0.011099 -0.002665 0.000000 -0.001306 0.000000
# 3 -0.001237 -0.002665 0.007139 0.000000 0.001788 0.000000
# 4 0.000000 0.000000 0.000000 0.025456 0.000000 -0.005261
# 5 0.003183 -0.001306 0.001788 0.000000 0.023027 0.000000
# 6 0.000000 0.000000 0.000000 -0.005261 0.000000 0.024453
#
#
# Mechanical properties :
#
#
# Convention : Reuss Voigt Hill
#
# Bulk Modulus (GPa) = 72.93924 78.60922 75.77423
# Shear Modulus (GPa) = 42.61241 45.50575 44.05908
#
# Velocity S-wave (km/s) = 4.08730 4.22379 4.15611
# Velocity P-wave (km/s) = 7.13234 7.38956 7.26209
#
# Compressibility (1/GPa) = 0.01371004
#
# Stress axis : x y z
#
# Youngs Moduli (GPa) = 117.20244 90.09514 140.08518
#
# Poissons Ratio (x) = 0.23678 0.17332
# Poissons Ratio (y) = 0.30802 0.37328
# Poissons Ratio (z) = 0.14501 0.24008
#
# Static dielectric constant tensor:
#      x y z
#    x 2.030990 0.000000 -0.018820 
#    y 0.000000 2.053370 0.000000 
#    z -0.018820 0.000000 2.054230 
# 
# From -- ./inp_files/110030.got.cif
#   From: 2010.05.17/outbox.cif.g08.bks.cpg/sg15_56_cif.got.tgz:110030.got - 2010.06.03 18:47:42.
