data_PCOD9305171
_publ_section_title
;
Structure prediction by ZEFSAII (Michael W. Deem and Ramdas Pophale) SiO2 
 PCOD9305171
Probable space group: C 2/C
;
_chemical_formula_sum "Si O2"
_cell_formula_units_Z 32
_cell_length_a 17.662545
_cell_length_b 9.330259
_cell_length_c 21.240834
_cell_angle_alpha 90.000000
_cell_angle_beta 156.800358
_cell_angle_gamma 90.000000
_cell_volume 1378.936922
_symmetry_space_group_name_H-M "C 2/C"
_symmetry_group_IT_number 15
_symmetry_cell_setting 'monoclinic'
loop_
_space_group_symop_operation_xyz
x,y,z
-x,y,1/2-z
-x,-y,-z
x,-y,1/2+z
1/2+x,1/2+y,z
1/2-x,1/2+y,1/2-z
1/2-x,1/2-y,-z
1/2+x,1/2-y,1/2+z
loop_
_atom_site_type_symbol
_atom_site_label
_atom_site_fract_x
_atom_site_fract_y
_atom_site_fract_z
Si Si1 0.305585 0.660539 0.895022
Si Si2 0.702458 0.341186 0.379770
Si Si3 0.963771 0.111303 0.879929
Si Si4 0.361112 0.868847 0.043921
O O1 0.351326 0.662691 0.856105
O O2 0.350823 0.807168 0.965202
O O3 0.082135 0.621936 0.733198
O O4 0.440150 0.540187 0.029565
O O5 0.500000 0.282555 0.250000
O O6 0.867545 0.224098 0.505024
O O7 0.668080 0.392905 0.282067
O O8 0.759818 0.477618 0.466029
O O9 0.250000 0.750000 0.000000
#
# Coordination Sequence:
#
# PCOD9305171 Si02
#       4
#     8   8   8   8
#     4  11  24  43  66  97 134 171 220 271 328 390
#     4  12  25  43  67  96 131 172 221 270 328 393
#     4  11  25  43  67  98 131 172 218 273 328 390
#     4  12  25  43  68  96 132 175 219 272 330 393
#
# _framework density 23.206282999999999
#
# number of rings (size 3 to 8) (size 9 to 14) (size 15 to 20)
#    0.000    0.500    0.000    9.000    0.000   10.000 
#    0.000    0.000    0.000    0.000    0.000    0.000 
#    0.000    0.000    0.000    0.000    0.000    0.000 
#
# Total GULP energy -89749.992039 kJ/mol
# GULP energy per Si atom -5609.374502 kJ/mol
# Density = 2.315346 g / cm^3
# Si number density = 23.206283 Si / 1000 Ang^3
#
#
#
# Elastic Constant Matrix: (Units=GPa)
#
#
# Indices 1 2 3 4 5 6 
#
# 1 93.4986 17.0098 2.0977 0.0011 -2.5336 0.0002
# 2 17.0098 79.9214 10.7470 0.0030 11.1116 -0.0002
# 3 2.0977 10.7470 78.8312 0.0052 0.2865 0.0002
# 4 0.0011 0.0030 0.0052 34.4990 0.0005 -2.4254
# 5 -2.5336 11.1116 0.2865 0.0005 47.8466 -0.0002
# 6 0.0002 -0.0002 0.0002 -2.4254 -0.0002 33.8832
#
#
#
# Elastic Compliance Matrix: (Units=1/GPa)
#
#
# Indices 1 2 3 4 5 6 
#
# 1 0.011191 -0.002553 0.000046 0.000000 0.001185 0.000000
# 2 -0.002553 0.013759 -0.001796 -0.000001 -0.003320 0.000000
# 3 0.000046 -0.001796 0.012928 -0.000002 0.000342 0.000000
# 4 0.000000 -0.000001 -0.000002 0.029133 0.000000 0.002085
# 5 0.001185 -0.003320 0.000342 0.000000 0.021732 0.000000
# 6 0.000000 0.000000 0.000000 0.002085 0.000000 0.029662
#
#
# Mechanical properties :
#
#
# Convention : Reuss Voigt Hill
#
# Bulk Modulus (GPa) = 34.16223 34.66225 34.41224
# Shear Modulus (GPa) = 36.55863 38.07221 37.31542
#
# Velocity S-wave (km/s) = 3.97341 4.05483 4.01432
# Velocity P-wave (km/s) = 5.98362 6.07381 6.02888
#
# Compressibility (1/GPa) = 0.02927209
#
# Stress axis : x y z
#
# Youngs Moduli (GPa) = 89.35884 72.68184 77.35348
#
# Poissons Ratio (x) = 0.18554 -0.00355
# Poissons Ratio (y) = 0.22811 0.13890
# Poissons Ratio (z) = -0.00410 0.13051
#
# Static dielectric constant tensor:
#      x y z
#    x 1.899620 0.000000 -0.009630 
#    y 0.000000 1.817770 0.000000 
#    z -0.009630 0.000000 1.831700 
# 
# From -- ./inp_files/53493.got.cif
#   From: 2010.05.17/outbox.cif.g08.bks.cpg/sg15_27_cif.got.tgz:53493.got - 2010.06.03 18:47:42.
