data_PCOD9305284
_publ_section_title
;
Structure prediction by ZEFSAII (Michael W. Deem and Ramdas Pophale) SiO2 
 PCOD9305284
Probable space group: C 2/C
;
_chemical_formula_sum "Si O2"
_cell_formula_units_Z 28
_cell_length_a 20.383445
_cell_length_b 9.496488
_cell_length_c 9.614151
_cell_angle_alpha 90.000000
_cell_angle_beta 38.346315
_cell_angle_gamma 90.000000
_cell_volume 1154.602729
_symmetry_space_group_name_H-M "C 2/C"
_symmetry_group_IT_number 15
_symmetry_cell_setting 'monoclinic'
loop_
_space_group_symop_operation_xyz
x,y,z
-x,y,1/2-z
-x,-y,-z
x,-y,1/2+z
1/2+x,1/2+y,z
1/2-x,1/2+y,1/2-z
1/2-x,1/2-y,-z
1/2+x,1/2-y,1/2+z
loop_
_atom_site_type_symbol
_atom_site_label
_atom_site_fract_x
_atom_site_fract_y
_atom_site_fract_z
Si Si1 0.500000 0.283111 0.750000
Si Si2 0.353402 0.596761 0.724543
Si Si3 0.383526 0.830458 0.912223
Si Si4 0.137089 0.782651 0.748306
O O1 0.593466 0.365807 0.511913
O O2 0.555690 0.201529 0.783707
O O3 0.383376 0.719617 0.784342
O O4 0.391574 0.446871 0.716337
O O5 0.225375 0.583658 0.927040
O O6 0.500000 0.894249 0.750000
O O7 0.364026 0.748852 0.088391
O O8 0.250000 0.750000 0.500000
#
# Coordination Sequence:
#
# PCOD9305284 Si02
#       4
#     4   8   8   8
#     4  12  22  42  70 100 128 172 220 272 318 386
#     4  11  25  42  68 101 131 174 219 269 329 388
#     4  11  24  44  66  96 137 172 217 272 327 389
#     4  12  25  43  66 100 134 171 222 268 326 391
#
# _framework density 24.250765000000001
#
# number of rings (size 3 to 8) (size 9 to 14) (size 15 to 20)
#    0.000    0.571    5.714    2.571    4.000    0.000 
#    2.571    1.429    0.000    0.000    0.000    0.000 
#    0.000    0.000    0.000    0.000    0.000    0.000 
#
# Total GULP energy -78197.575972 kJ/mol
# GULP energy per Si atom -5585.541141 kJ/mol
# Density = 2.419557 g / cm^3
# Si number density = 24.250765 Si / 1000 Ang^3
#
#
#
# Elastic Constant Matrix: (Units=GPa)
#
#
# Indices 1 2 3 4 5 6 
#
# 1 161.6305 10.1960 42.8850 0.0000 -4.9449 0.0000
# 2 10.1960 41.1598 20.0390 0.0000 2.3392 0.0000
# 3 42.8850 20.0390 168.3482 0.0000 15.7911 0.0000
# 4 0.0000 0.0000 0.0000 14.1444 0.0000 -0.8327
# 5 -4.9449 2.3392 15.7911 0.0000 70.3719 0.0000
# 6 0.0000 0.0000 0.0000 -0.8327 0.0000 19.8295
#
#
#
# Elastic Compliance Matrix: (Units=1/GPa)
#
#
# Indices 1 2 3 4 5 6 
#
# 1 0.006718 -0.000893 -0.001688 0.000000 0.000880 0.000000
# 2 -0.000893 0.025911 -0.002830 0.000000 -0.000289 0.000000
# 3 -0.001688 -0.002830 0.006853 0.000000 -0.001562 0.000000
# 4 0.000000 0.000000 0.000000 0.070875 0.000000 0.002976
# 5 0.000880 -0.000289 -0.001562 0.000000 0.014632 0.000000
# 6 0.000000 0.000000 0.000000 0.002976 0.000000 0.050555
#
#
# Mechanical properties :
#
#
# Convention : Reuss Voigt Hill
#
# Bulk Modulus (GPa) = 34.88921 57.48649 46.18785
# Shear Modulus (GPa) = 25.52091 40.73707 33.12899
#
# Velocity S-wave (km/s) = 3.24755 4.10301 3.70009
# Velocity P-wave (km/s) = 5.33669 6.79726 6.11077
#
# Compressibility (1/GPa) = 0.02866216
#
# Stress axis : x y z
#
# Youngs Moduli (GPa) = 148.85435 38.59404 145.91347
#
# Poissons Ratio (x) = 0.03445 0.24626
# Poissons Ratio (y) = 0.13286 0.41290
# Poissons Ratio (z) = 0.25122 0.10921
#
# Static dielectric constant tensor:
#      x y z
#    x 1.946720 0.000000 -0.082260 
#    y 0.000000 1.874960 0.000000 
#    z -0.082260 0.000000 1.933650 
# 
# From -- ./inp_files/27403.got.cif
#   From: 2010.05.17/outbox.cif.g08.bks.cpg/sg15_14_cif.got.tgz:27403.got - 2010.06.03 18:47:42.
