data_PCOD9305127
_publ_section_title
;
Structure prediction by ZEFSAII (Michael W. Deem and Ramdas Pophale) SiO2 
 PCOD9305127
Probable space group: C 2/C
;
_chemical_formula_sum "Si O2"
_cell_formula_units_Z 56
_cell_length_a 29.974095
_cell_length_b 12.545862
_cell_length_c 14.251384
_cell_angle_alpha 90.000000
_cell_angle_beta 28.891223
_cell_angle_gamma 90.000000
_cell_volume 2589.310033
_symmetry_space_group_name_H-M "C 2/C"
_symmetry_group_IT_number 15
_symmetry_cell_setting 'monoclinic'
loop_
_space_group_symop_operation_xyz
x,y,z
-x,y,1/2-z
-x,-y,-z
x,-y,1/2+z
1/2+x,1/2+y,z
1/2-x,1/2+y,1/2-z
1/2-x,1/2-y,-z
1/2+x,1/2-y,1/2+z
loop_
_atom_site_type_symbol
_atom_site_label
_atom_site_fract_x
_atom_site_fract_y
_atom_site_fract_z
Si Si1 0.233373 0.355256 0.591333
Si Si2 0.658240 0.617924 0.928605
Si Si3 0.875501 0.986731 0.814435
Si Si4 0.340813 0.752772 0.049356
Si Si5 0.500000 0.107400 0.250000
Si Si6 0.000000 0.288360 0.250000
Si Si7 0.928930 0.916483 0.520491
Si Si8 0.040113 0.555510 0.518735
O O1 0.250000 0.250000 0.500000
O O2 0.287418 0.448616 0.439171
O O3 0.292725 0.336708 0.575617
O O4 0.132122 0.386420 0.811706
O O5 0.758264 0.665182 0.722138
O O6 0.621524 0.520486 0.931959
O O7 0.657249 0.578505 0.036697
O O8 0.584107 0.713502 0.063973
O O9 0.911576 0.915072 0.663361
O O10 0.961536 0.060660 0.689531
O O11 0.390150 0.689414 0.043082
O O12 0.421313 0.818630 0.849874
O O13 0.448949 0.037621 0.423273
O O14 0.981619 0.361071 0.191095
O O15 0.000000 0.500000 0.500000
#
# Coordination Sequence:
#
# PCOD9305127 Si02
#       8
#     8   8   8   8   4   4   8   8
#     4  12  24  42  70 104 135 190 241 286 357 437
#     4  12  23  44  72  99 142 182 238 295 352 430
#     4  11  24  42  70  98 138 180 234 297 353 415
#     4  12  25  42  72  99 141 184 239 288 360 422
#     4  11  26  45  68 104 140 191 230 303 354 420
#     4  11  24  43  72 102 134 193 232 291 364 418
#     4  11  25  43  68 103 140 181 237 303 351 423
#     4  11  26  47  68 102 147 184 238 294 362 426
#
# _framework density 21.627382999999998
#
# number of rings (size 3 to 8) (size 9 to 14) (size 15 to 20)
#    0.000    0.571    4.286    3.429    0.000    2.857 
#    0.000    0.000    0.000    0.000    0.000    0.000 
#    0.000    0.000    0.000    0.000    0.000    0.000 
#
# Total GULP energy -156371.875114 kJ/mol
# GULP energy per Si atom -5584.709826 kJ/mol
# Density = 2.157816 g / cm^3
# Si number density = 21.627383 Si / 1000 Ang^3
#
#
#
# Elastic Constant Matrix: (Units=GPa)
#
#
# Indices 1 2 3 4 5 6 
#
# 1 73.6712 18.7890 24.2283 0.0000 9.4827 0.0000
# 2 18.7890 69.7080 33.3738 0.0000 0.8231 0.0000
# 3 24.2283 33.3738 134.9612 0.0000 -4.1059 0.0000
# 4 0.0000 0.0000 0.0000 41.3506 0.0000 -5.0842
# 5 9.4827 0.8231 -4.1059 0.0000 24.0839 0.0000
# 6 0.0000 0.0000 0.0000 -5.0842 0.0000 32.7274
#
#
#
# Elastic Compliance Matrix: (Units=1/GPa)
#
#
# Indices 1 2 3 4 5 6 
#
# 1 0.015972 -0.003130 -0.002293 0.000000 -0.006573 0.000000
# 2 -0.003130 0.016923 -0.003622 0.000000 0.000036 0.000000
# 3 -0.002293 -0.003622 0.008794 0.000000 0.002526 0.000000
# 4 0.000000 0.000000 0.000000 0.024654 0.000000 0.003830
# 5 -0.006573 0.000036 0.002526 0.000000 0.044539 0.000000
# 6 0.000000 0.000000 0.000000 0.003830 0.000000 0.031150
#
#
# Mechanical properties :
#
#
# Convention : Reuss Voigt Hill
#
# Bulk Modulus (GPa) = 42.37445 47.90252 45.13848
# Shear Modulus (GPa) = 29.76403 33.09568 31.42986
#
# Velocity S-wave (km/s) = 3.71377 3.91611 3.81628
# Velocity P-wave (km/s) = 6.16644 6.53031 6.35098
#
# Compressibility (1/GPa) = 0.02359913
#
# Stress axis : x y z
#
# Youngs Moduli (GPa) = 62.60864 59.09249 113.71770
#
# Poissons Ratio (x) = 0.18493 0.26080
# Poissons Ratio (y) = 0.19593 0.41186
# Poissons Ratio (z) = 0.14359 0.21402
#
# Static dielectric constant tensor:
#      x y z
#    x 1.756880 0.000000 0.008520 
#    y 0.000000 1.842650 0.000000 
#    z 0.008520 0.000000 1.762260 
# 
# From -- ./inp_files/181961.got.cif
#   From: 2010.05.17/outbox.cif.g08.bks.cpg/sg15_91_cif.got.tgz:181961.got - 2010.06.03 18:47:42.
