data_PCOD9305520
_publ_section_title
;
Structure prediction by ZEFSAII (Michael W. Deem and Ramdas Pophale) SiO2 
 PCOD9305520
Probable space group: C 2/C
;
_chemical_formula_sum "Si O2"
_cell_formula_units_Z 48
_cell_length_a 8.748611
_cell_length_b 27.755177
_cell_length_c 14.012007
_cell_angle_alpha 90.000000
_cell_angle_beta 45.835834
_cell_angle_gamma 90.000000
_cell_volume 2440.688925
_symmetry_space_group_name_H-M "C 2/C"
_symmetry_group_IT_number 15
_symmetry_cell_setting 'monoclinic'
loop_
_space_group_symop_operation_xyz
x,y,z
-x,y,1/2-z
-x,-y,-z
x,-y,1/2+z
1/2+x,1/2+y,z
1/2-x,1/2+y,1/2-z
1/2-x,1/2-y,-z
1/2+x,1/2-y,1/2+z
loop_
_atom_site_type_symbol
_atom_site_label
_atom_site_fract_x
_atom_site_fract_y
_atom_site_fract_z
Si Si1 0.329202 0.388263 0.908813
Si Si2 0.087902 0.025701 0.370080
Si Si3 0.375686 0.879448 0.009880
Si Si4 0.000000 0.586662 0.250000
Si Si5 0.000000 0.948736 0.250000
Si Si6 0.739836 0.270961 0.110528
Si Si7 0.446236 0.716483 0.387101
O O1 0.500000 0.385684 0.750000
O O2 0.404804 0.435244 0.929361
O O3 0.372336 0.337925 0.943304
O O4 0.094194 0.393297 0.968725
O O5 0.307432 0.053610 0.294708
O O6 0.000000 0.000000 0.500000
O O7 0.104299 0.985475 0.280808
O O8 0.417375 0.883218 0.877609
O O9 0.331790 0.824970 0.062642
O O10 0.181326 0.914764 0.123721
O O11 0.500000 0.274670 0.250000
O O12 0.862574 0.236369 0.131377
O O13 0.750000 0.250000 0.000000
O O14 0.500000 0.719517 0.250000
O O15 0.250000 0.750000 0.500000
#
# Coordination Sequence:
#
# PCOD9305520 Si02
#       7
#     8   8   8   4   4   8   8
#     4  11  24  45  71  97 138 184 239 282 353 424
#     4  12  26  44  69 106 135 190 236 296 358 421
#     4  12  26  47  70 105 143 190 233 299 356 427
#     4  12  26  44  73 100 140 185 250 284 360 434
#     4  12  26  48  71 100 156 177 238 304 358 422
#     4  12  28  45  71 108 146 186 235 297 365 424
#     4  11  24  46  71 100 136 182 233 284 346 431
#
# _framework density 19.666578999999999
#
# number of rings (size 3 to 8) (size 9 to 14) (size 15 to 20)
#    0.000    0.333    6.667    1.000    8.167    1.333 
#    3.000    0.000    0.000    0.000    0.000    0.000 
#    0.000    0.000    0.000    0.000    0.000    0.000 
#
# Total GULP energy -134117.625497 kJ/mol
# GULP energy per Si atom -5588.234396 kJ/mol
# Density = 1.962182 g / cm^3
# Si number density = 19.666579 Si / 1000 Ang^3
#
#
#
# Elastic Constant Matrix: (Units=GPa)
#
#
# Indices 1 2 3 4 5 6 
#
# 1 132.5113 54.1466 47.7268 0.0000 -8.0229 0.0000
# 2 54.1466 125.2678 36.5768 0.0000 7.1397 0.0000
# 3 47.7268 36.5768 111.7209 0.0000 -0.8936 0.0000
# 4 0.0000 0.0000 0.0000 32.1105 0.0000 6.2653
# 5 -8.0229 7.1397 -0.8936 0.0000 42.8993 0.0000
# 6 0.0000 0.0000 0.0000 6.2653 0.0000 42.5732
#
#
#
# Elastic Compliance Matrix: (Units=1/GPa)
#
#
# Indices 1 2 3 4 5 6 
#
# 1 0.010353 -0.003683 -0.003197 0.000000 0.002483 0.000000
# 2 -0.003683 0.010238 -0.001798 0.000000 -0.002430 0.000000
# 3 -0.003197 -0.001798 0.010905 0.000000 -0.000072 0.000000
# 4 0.000000 0.000000 0.000000 0.032063 0.000000 -0.004719
# 5 0.002483 -0.002430 -0.000072 0.000000 0.024178 0.000000
# 6 0.000000 0.000000 0.000000 -0.004719 0.000000 0.024183
#
#
# Mechanical properties :
#
#
# Convention : Reuss Voigt Hill
#
# Bulk Modulus (GPa) = 70.72218 71.82227 71.27222
# Shear Modulus (GPa) = 37.31595 38.91991 38.11793
#
# Velocity S-wave (km/s) = 4.36068 4.45341 4.40729
# Velocity P-wave (km/s) = 7.83535 7.93996 7.88783
#
# Compressibility (1/GPa) = 0.01413984
#
# Stress axis : x y z
#
# Youngs Moduli (GPa) = 96.58655 97.67100 91.70260
#
# Poissons Ratio (x) = 0.35974 0.29320
# Poissons Ratio (y) = 0.35575 0.16488
# Poissons Ratio (z) = 0.30881 0.17561
#
# Static dielectric constant tensor:
#      x y z
#    x 1.861580 0.000000 -0.004200 
#    y 0.000000 1.189340 0.000000 
#    z -0.004200 0.000000 1.654460 
# 
# From -- ./inp_files/79174.got.cif
#   From: 2010.05.17/outbox.cif.g08.bks.cpg/sg15_40_cif.got.tgz:79174.got - 2010.06.03 18:47:42.
