data_PCOD9305812
_publ_section_title
;
Structure prediction by ZEFSAII (Michael W. Deem and Ramdas Pophale) SiO2 
 PCOD9305812
Probable space group: C 2/C
;
_chemical_formula_sum "Si O2"
_cell_formula_units_Z 40
_cell_length_a 21.273081
_cell_length_b 8.003064
_cell_length_c 29.321460
_cell_angle_alpha 90.000000
_cell_angle_beta 160.483206
_cell_angle_gamma 90.000000
_cell_volume 1667.734211
_symmetry_space_group_name_H-M "C 2/C"
_symmetry_group_IT_number 15
_symmetry_cell_setting 'monoclinic'
loop_
_space_group_symop_operation_xyz
x,y,z
-x,y,1/2-z
-x,-y,-z
x,-y,1/2+z
1/2+x,1/2+y,z
1/2-x,1/2+y,1/2-z
1/2-x,1/2-y,-z
1/2+x,1/2-y,1/2+z
loop_
_atom_site_type_symbol
_atom_site_label
_atom_site_fract_x
_atom_site_fract_y
_atom_site_fract_z
Si Si1 0.580666 0.784871 0.918471
Si Si2 0.654196 0.107289 0.728811
Si Si3 0.220290 0.670928 0.610584
Si Si4 0.945141 0.818190 0.921530
Si Si5 0.165940 0.791227 0.827584
O O1 0.400227 0.722352 0.765115
O O2 0.514166 0.973612 0.884030
O O3 0.750000 0.750000 0.000000
O O4 0.662334 0.732153 0.024420
O O5 0.673594 0.211976 0.696189
O O6 0.609646 0.233767 0.738767
O O7 0.839196 0.990396 0.859364
O O8 0.050655 0.705197 0.529923
O O9 0.268645 0.482253 0.630203
O O10 0.149785 0.823436 0.038669
O O11 0.000000 0.768585 0.750000
#
# Coordination Sequence:
#
# PCOD9305812 Si02
#       5
#     8   8   8   8   8
#     4  11  24  47  74 113 155 196 256 305 391 451
#     4  11  26  46  73 110 144 203 251 321 374 460
#     4  11  25  46  80 110 153 205 248 320 372 466
#     4  11  25  48  76 106 150 197 265 303 388 451
#     4  12  26  47  73 110 157 196 252 322 389 445
#
# _framework density 23.984636999999999
#
# number of rings (size 3 to 8) (size 9 to 14) (size 15 to 20)
#    0.000    0.800    2.000    4.200    5.600    4.000 
#   14.400    0.000    0.000    0.000    0.000    0.000 
#    0.000    0.000    0.000    0.000    0.000    0.000 
#
# Total GULP energy -111653.265609 kJ/mol
# GULP energy per Si atom -5582.663280 kJ/mol
# Density = 2.393005 g / cm^3
# Si number density = 23.984637 Si / 1000 Ang^3
#
#
#
# Elastic Constant Matrix: (Units=GPa)
#
#
# Indices 1 2 3 4 5 6 
#
# 1 212.9163 52.6144 85.5679 0.0071 -2.1281 0.0023
# 2 52.6144 84.5254 40.0162 0.0046 -0.2392 -0.0057
# 3 85.5679 40.0162 134.5359 0.0158 0.0898 0.0059
# 4 0.0071 0.0046 0.0158 13.1819 -0.0023 -9.9345
# 5 -2.1281 -0.2392 0.0898 -0.0023 57.0370 -0.0007
# 6 0.0023 -0.0057 0.0059 -9.9345 -0.0007 21.7290
#
#
#
# Elastic Compliance Matrix: (Units=1/GPa)
#
#
# Indices 1 2 3 4 5 6 
#
# 1 0.006745 -0.002522 -0.003540 0.000002 0.000247 0.000000
# 2 -0.002522 0.014713 -0.002772 0.000005 -0.000028 0.000007
# 3 -0.003540 -0.002772 0.010509 -0.000019 -0.000160 -0.000012
# 4 0.000002 0.000005 -0.000019 0.115742 0.000005 0.052917
# 5 0.000247 -0.000028 -0.000160 0.000005 0.017542 0.000003
# 6 0.000000 0.000007 -0.000012 0.052917 0.000003 0.070215
#
#
# Mechanical properties :
#
#
# Convention : Reuss Voigt Hill
#
# Bulk Modulus (GPa) = 69.93580 87.59719 78.76649
# Shear Modulus (GPa) = 19.38736 35.30820 27.34778
#
# Velocity S-wave (km/s) = 2.84619 3.84098 3.38038
# Velocity P-wave (km/s) = 6.32637 7.50149 6.93885
#
# Compressibility (1/GPa) = 0.01429883
#
# Stress axis : x y z
#
# Youngs Moduli (GPa) = 148.25695 67.96749 95.15501
#
# Poissons Ratio (x) = 0.17141 0.33685
# Poissons Ratio (y) = 0.37390 0.26378
# Poissons Ratio (z) = 0.52484 0.18842
#
# Static dielectric constant tensor:
#      x y z
#    x 1.954730 0.000000 -0.066720 
#    y 0.000000 1.911940 -0.000010 
#    z -0.066720 -0.000010 2.110770 
# 
# From -- ./inp_files/317629.got.cif
#   From: 2010.05.17/outbox.cif.g08.bks.cpg/sg15_159_cif.got.tgz:317629.got - 2010.06.03 18:47:42.
