data_PCOD9305960
_publ_section_title
;
Structure prediction by ZEFSAII (Michael W. Deem and Ramdas Pophale) SiO2 
 PCOD9305960
Probable space group: C 2/C
;
_chemical_formula_sum "Si O2"
_cell_formula_units_Z 40
_cell_length_a 4.938066
_cell_length_b 18.855490
_cell_length_c 14.835238
_cell_angle_alpha 90.000000
_cell_angle_beta 95.068799
_cell_angle_gamma 90.000000
_cell_volume 1375.902049
_symmetry_space_group_name_H-M "C 2/C"
_symmetry_group_IT_number 15
_symmetry_cell_setting 'monoclinic'
loop_
_space_group_symop_operation_xyz
x,y,z
-x,y,1/2-z
-x,-y,-z
x,-y,1/2+z
1/2+x,1/2+y,z
1/2-x,1/2+y,1/2-z
1/2-x,1/2-y,-z
1/2+x,1/2-y,1/2+z
loop_
_atom_site_type_symbol
_atom_site_label
_atom_site_fract_x
_atom_site_fract_y
_atom_site_fract_z
Si Si1 0.457344 0.478599 0.349787
Si Si2 0.462039 0.690924 0.541366
Si Si3 0.960980 0.288025 0.347992
Si Si4 0.779078 0.574651 0.478228
Si Si5 0.805133 0.368557 0.657145
O O1 0.500000 0.449080 0.250000
O O2 0.708235 0.501681 0.424338
O O3 0.248897 0.440398 0.414185
O O4 0.344305 0.557385 0.328680
O O5 0.250000 0.750000 0.500000
O O6 0.269554 0.662155 0.614199
O O7 0.748853 0.784318 0.409609
O O8 0.536324 0.632870 0.469927
O O9 0.836040 0.209060 0.336899
O O10 0.000000 0.315633 0.250000
O O11 0.007396 0.614782 0.426890
O O12 0.000000 0.364082 0.750000
#
# Coordination Sequence:
#
# PCOD9305960 Si02
#       5
#     8   8   8   8   8
#     4  11  24  49  80 114 160 211 277 346 418 496
#     4  12  29  50  79 117 168 215 271 340 421 496
#     4  12  29  49  79 119 165 214 277 341 415 496
#     4  11  28  48  78 119 158 217 274 342 417 502
#     4  12  25  46  83 118 162 215 281 342 412 494
#
# _framework density 29.071835
#
# number of rings (size 3 to 8) (size 9 to 14) (size 15 to 20)
#    0.000    0.400    2.000    4.800   14.000    1.600 
#    0.000    1.000    0.000    0.000    0.000    0.000 
#    0.000    0.000    0.000    0.000    0.000    0.000 
#
# Total GULP energy -111799.432724 kJ/mol
# GULP energy per Si atom -5589.971636 kJ/mol
# Density = 2.900567 g / cm^3
# Si number density = 29.071835 Si / 1000 Ang^3
#
#
#
# Elastic Constant Matrix: (Units=GPa)
#
#
# Indices 1 2 3 4 5 6 
#
# 1 170.7179 23.4003 54.8801 0.0000 -52.0211 0.0000
# 2 23.4003 98.5264 23.9655 0.0000 -10.7810 0.0000
# 3 54.8801 23.9655 232.5472 0.0000 -48.4046 0.0000
# 4 0.0000 0.0000 0.0000 41.9995 0.0000 -1.6117
# 5 -52.0211 -10.7810 -48.4046 0.0000 63.0327 0.0000
# 6 0.0000 0.0000 0.0000 -1.6117 0.0000 32.3317
#
#
#
# Elastic Compliance Matrix: (Units=1/GPa)
#
#
# Indices 1 2 3 4 5 6 
#
# 1 0.008014 -0.001117 -0.000523 0.000000 0.006021 0.000000
# 2 -0.001117 0.010635 -0.000769 0.000000 0.000307 0.000000
# 3 -0.000523 -0.000769 0.005220 0.000000 0.003446 0.000000
# 4 0.000000 0.000000 0.000000 0.023855 0.000000 0.001189
# 5 0.006021 0.000307 0.003446 0.000000 0.023533 0.000000
# 6 0.000000 0.000000 0.000000 0.001189 0.000000 0.030989
#
#
# Mechanical properties :
#
#
# Convention : Reuss Voigt Hill
#
# Bulk Modulus (GPa) = 52.48805 78.47593 65.48199
# Shear Modulus (GPa) = 44.08654 54.10914 49.09784
#
# Velocity S-wave (km/s) = 3.89841 4.31887 4.11401
# Velocity P-wave (km/s) = 6.19333 7.20573 6.71863
#
# Compressibility (1/GPa) = 0.01905196
#
# Stress axis : x y z
#
# Youngs Moduli (GPa) = 124.78877 94.02541 191.57117
#
# Poissons Ratio (x) = 0.10505 0.10014
# Poissons Ratio (y) = 0.13942 0.14723
# Poissons Ratio (z) = 0.06523 0.07226
#
# Static dielectric constant tensor:
#      x y z
#    x 2.598880 0.000000 0.186350 
#    y 0.000000 2.250310 0.000000 
#    z 0.186350 0.000000 2.707960 
# 
# From -- ./inp_files/129038.got.cif
#   From: 2010.05.17/outbox.cif.g08.bks.cpg/sg15_65_cif.got.tgz:129038.got - 2010.06.03 18:47:42.
