data_PCOD9305931
_publ_section_title
;
Structure prediction by ZEFSAII (Michael W. Deem and Ramdas Pophale) SiO2 
 PCOD9305931
Probable space group: C 2/C
;
_chemical_formula_sum "Si O2"
_cell_formula_units_Z 36
_cell_length_a 27.179452
_cell_length_b 6.722223
_cell_length_c 28.145146
_cell_angle_alpha 90.000000
_cell_angle_beta 160.244312
_cell_angle_gamma 90.000000
_cell_volume 1738.148430
_symmetry_space_group_name_H-M "C 2/C"
_symmetry_group_IT_number 15
_symmetry_cell_setting 'monoclinic'
loop_
_space_group_symop_operation_xyz
x,y,z
-x,y,1/2-z
-x,-y,-z
x,-y,1/2+z
1/2+x,1/2+y,z
1/2-x,1/2+y,1/2-z
1/2-x,1/2-y,-z
1/2+x,1/2-y,1/2+z
loop_
_atom_site_type_symbol
_atom_site_label
_atom_site_fract_x
_atom_site_fract_y
_atom_site_fract_z
Si Si1 0.400698 0.694056 0.912242
Si Si2 0.134436 0.861717 0.428722
Si Si3 0.882083 0.456451 0.714846
Si Si4 0.080155 0.455129 0.141356
Si Si5 0.000000 0.780693 0.750000
O O1 0.231800 0.639273 0.761236
O O2 0.431333 0.831801 0.894576
O O3 0.500000 0.500000 0.000000
O O4 0.449763 0.820777 0.002817
O O5 0.250000 0.750000 0.500000
O O6 0.217313 0.890358 0.553930
O O7 0.992019 0.725410 0.303862
O O8 0.095547 0.070615 0.368968
O O9 0.911001 0.524852 0.794415
O O10 0.914742 0.635144 0.708003
#
# Coordination Sequence:
#
# PCOD9305931 Si02
#       5
#     8   8   8   8   4
#     4  11  24  49  68 100 140 176 227 292 339 406
#     4  12  24  48  66  97 146 179 224 286 334 396
#     4  12  28  42  71 105 134 185 226 280 339 412
#     4  11  27  44  74 101 137 181 230 283 349 404
#     4  12  24  44  70  98 140 178 228 272 338 406
#
# _framework density 20.711694000000001
#
# number of rings (size 3 to 8) (size 9 to 14) (size 15 to 20)
#    0.000    0.444    6.667    0.667    6.222    0.000 
#    0.000    0.000    0.000    0.000    0.000    0.000 
#    0.000    0.000    0.000    0.000    0.000    0.000 
#
# Total GULP energy -100731.082827 kJ/mol
# GULP energy per Si atom -5596.171268 kJ/mol
# Density = 2.066455 g / cm^3
# Si number density = 20.711694 Si / 1000 Ang^3
#
#
#
# Elastic Constant Matrix: (Units=GPa)
#
#
# Indices 1 2 3 4 5 6 
#
# 1 56.7480 23.1013 8.0573 0.0006 -29.1047 0.0004
# 2 23.1013 127.6230 44.4576 0.0025 -3.8665 0.0019
# 3 8.0573 44.4576 114.7133 0.0004 -16.8834 0.0006
# 4 0.0006 0.0025 0.0004 50.9727 -0.0004 -5.5918
# 5 -29.1047 -3.8665 -16.8834 -0.0004 31.1474 -0.0002
# 6 0.0004 0.0019 0.0006 -5.5918 -0.0002 8.1201
#
#
#
# Elastic Compliance Matrix: (Units=1/GPa)
#
#
# Indices 1 2 3 4 5 6 
#
# 1 0.041057 -0.008419 0.006381 0.000000 0.040778 0.000001
# 2 -0.008419 0.010806 -0.004952 -0.000001 -0.009210 -0.000003
# 3 0.006381 -0.004952 0.011927 0.000000 0.011813 0.000000
# 4 0.000000 -0.000001 0.000000 0.021222 0.000001 0.014614
# 5 0.040778 -0.009210 0.011813 0.000001 0.075469 0.000002
# 6 0.000001 -0.000003 0.000000 0.014614 0.000002 0.133216
#
#
# Mechanical properties :
#
#
# Convention : Reuss Voigt Hill
#
# Bulk Modulus (GPa) = 20.07660 50.03517 35.05589
# Shear Modulus (GPa) = 15.41880 32.94589 24.18235
#
# Velocity S-wave (km/s) = 2.73142 3.99267 3.42068
# Velocity P-wave (km/s) = 4.43418 6.74282 5.70647
#
# Compressibility (1/GPa) = 0.04980923
#
# Stress axis : x y z
#
# Youngs Moduli (GPa) = 24.35619 92.54540 83.84420
#
# Poissons Ratio (x) = 0.77916 -0.53499
# Poissons Ratio (y) = 0.20506 0.41518
# Poissons Ratio (z) = -0.15541 0.45827
#
# Static dielectric constant tensor:
#      x y z
#    x 1.704970 0.000000 -0.018560 
#    y 0.000000 1.727790 0.000000 
#    z -0.018560 0.000000 1.751500 
# 
# From -- ./inp_files/319880.got.cif
#   From: 2010.05.17/outbox.cif.g08.bks.cpg/sg15_160_cif.got.tgz:319880.got - 2010.06.03 18:47:42.
