data_PCOD9305294
_publ_section_title
;
Structure prediction by ZEFSAII (Michael W. Deem and Ramdas Pophale) SiO2 
 PCOD9305294
Probable space group: C 2/C
;
_chemical_formula_sum "Si O2"
_cell_formula_units_Z 44
_cell_length_a 15.159437
_cell_length_b 8.420372
_cell_length_c 18.201223
_cell_angle_alpha 90.000000
_cell_angle_beta 124.115190
_cell_angle_gamma 90.000000
_cell_volume 1923.529834
_symmetry_space_group_name_H-M "C 2/C"
_symmetry_group_IT_number 15
_symmetry_cell_setting 'monoclinic'
loop_
_space_group_symop_operation_xyz
x,y,z
-x,y,1/2-z
-x,-y,-z
x,-y,1/2+z
1/2+x,1/2+y,z
1/2-x,1/2+y,1/2-z
1/2-x,1/2-y,-z
1/2+x,1/2-y,1/2+z
loop_
_atom_site_type_symbol
_atom_site_label
_atom_site_fract_x
_atom_site_fract_y
_atom_site_fract_z
Si Si1 0.934255 0.607489 0.027941
Si Si2 0.628652 0.146134 0.222718
Si Si3 0.180064 0.994281 0.753553
Si Si4 0.662515 0.056403 0.888235
Si Si5 0.000000 0.202280 0.250000
Si Si6 0.378681 0.553529 0.441394
O O1 0.849261 0.509459 0.035236
O O2 0.014352 0.660631 0.131336
O O3 0.879856 0.765917 0.970807
O O4 0.000000 0.500000 0.000000
O O5 0.699656 0.068071 0.190634
O O6 0.672974 0.319311 0.261161
O O7 0.632095 0.047343 0.300248
O O8 0.092271 0.904807 0.759005
O O9 0.150820 0.951695 0.656933
O O10 0.791190 0.063874 0.937469
O O11 0.571243 0.191513 0.838902
O O12 0.500000 0.500000 0.500000
#
# Coordination Sequence:
#
# PCOD9305294 Si02
#       6
#     8   8   8   8   4   8
#     4  12  25  44  69 103 141 184 226 286 356 404
#     4  11  24  45  74  95 141 185 235 281 346 416
#     4  11  25  43  69 103 132 186 233 287 343 418
#     4  11  25  46  71  98 139 187 233 283 343 421
#     4  12  24  42  70 100 134 174 244 284 338 412
#     4  11  24  44  67  97 142 177 231 287 349 409
#
# _framework density 22.874613
#
# number of rings (size 3 to 8) (size 9 to 14) (size 15 to 20)
#    0.000    0.727    3.636    3.818    7.636    0.000 
#    3.273    1.818    0.000    0.000    0.000    0.000 
#    0.000    0.000    0.000    0.000    0.000    0.000 
#
# Total GULP energy -122785.965976 kJ/mol
# GULP energy per Si atom -5581.180272 kJ/mol
# Density = 2.282255 g / cm^3
# Si number density = 22.874613 Si / 1000 Ang^3
#
#
#
# Elastic Constant Matrix: (Units=GPa)
#
#
# Indices 1 2 3 4 5 6 
#
# 1 83.3587 -1.5434 18.1382 0.0000 -5.1561 0.0000
# 2 -1.5434 64.7290 -12.1667 0.0000 -5.4410 0.0000
# 3 18.1382 -12.1667 46.1969 0.0000 11.7039 0.0000
# 4 0.0000 0.0000 0.0000 -42.9686 0.0000 44.7681
# 5 -5.1561 -5.4410 11.7039 0.0000 46.0221 0.0000
# 6 0.0000 0.0000 0.0000 44.7681 0.0000 5.2109
#
#
#
# Elastic Compliance Matrix: (Units=1/GPa)
#
#
# Indices 1 2 3 4 5 6 
#
# 1 0.013530 -0.000595 -0.006237 0.000000 0.003032 0.000000
# 2 -0.000595 0.016314 0.004338 0.000000 0.000759 0.000000
# 3 -0.006237 0.004338 0.027026 0.000000 -0.007059 0.000000
# 4 0.000000 0.000000 0.000000 -0.002339 0.000000 0.020093
# 5 0.003032 0.000759 -0.007059 0.000000 0.023953 0.000000
# 6 0.000000 0.000000 0.000000 0.020093 0.000000 0.019285
#
#
# Mechanical properties :
#
#
# Convention : Reuss Voigt Hill
#
# Bulk Modulus (GPa) = 19.27452 22.57121 20.92286
# Shear Modulus (GPa) = 41.64879 14.30998 27.97939
#
# Velocity S-wave (km/s) = 4.27165 2.50388 3.50117
# Velocity P-wave (km/s) = 5.72483 4.27177 5.05083
#
# Compressibility (1/GPa) = 0.05188198
#
# Stress axis : x y z
#
# Youngs Moduli (GPa) = 73.90997 61.29712 37.00132
#
# Poissons Ratio (x) = 0.03646 0.23078
# Poissons Ratio (y) = 0.04397 -0.16051
# Poissons Ratio (z) = 0.46097 -0.26590
#
# Static dielectric constant tensor:
#      x y z
#    x 2.598610 0.000000 0.571920 
#    y 0.000000 1.865220 0.000000 
#    z 0.571920 0.000000 2.118760 
# 
# From -- ./inp_files/202939.got.cif
#   From: 2010.05.17/outbox.cif.g08.bks.cpg/sg15_102_cif.got.tgz:202939.got - 2010.06.03 18:47:42.
