data_PCOD9305232
_publ_section_title
;
Structure prediction by ZEFSAII (Michael W. Deem and Ramdas Pophale) SiO2 
 PCOD9305232
Probable space group: C 2/C
;
_chemical_formula_sum "Si O2"
_cell_formula_units_Z 48
_cell_length_a 13.627211
_cell_length_b 11.461356
_cell_length_c 15.874508
_cell_angle_alpha 90.000000
_cell_angle_beta 59.291956
_cell_angle_gamma 90.000000
_cell_volume 2131.723590
_symmetry_space_group_name_H-M "C 2/C"
_symmetry_group_IT_number 15
_symmetry_cell_setting 'monoclinic'
loop_
_space_group_symop_operation_xyz
x,y,z
-x,y,1/2-z
-x,-y,-z
x,-y,1/2+z
1/2+x,1/2+y,z
1/2-x,1/2+y,1/2-z
1/2-x,1/2-y,-z
1/2+x,1/2-y,1/2+z
loop_
_atom_site_type_symbol
_atom_site_label
_atom_site_fract_x
_atom_site_fract_y
_atom_site_fract_z
Si Si1 0.338427 0.301253 0.680472
Si Si2 0.288506 0.759424 0.606596
Si Si3 0.317499 0.744773 0.881678
Si Si4 0.066939 0.341820 0.104066
Si Si5 0.408033 0.474733 0.111107
Si Si6 0.000000 0.445349 0.750000
Si Si7 0.500000 0.437442 0.250000
O O1 0.264759 0.327962 0.793904
O O2 0.273163 0.209530 0.650735
O O3 0.463439 0.251452 0.645871
O O4 0.327404 0.416393 0.628979
O O5 0.176012 0.704789 0.610335
O O6 0.372456 0.837688 0.513714
O O7 0.357835 0.651203 0.615453
O O8 0.395681 0.855546 0.816695
O O9 0.408630 0.640989 0.839623
O O10 0.250000 0.750000 0.000000
O O11 0.013941 0.460307 0.166379
O O12 0.443668 0.497458 0.192903
O O13 0.500000 0.500000 0.000000
#
# Coordination Sequence:
#
# PCOD9305232 Si02
#       7
#     8   8   8   8   8   4   4
#     4  12  24  43  72 103 142 188 242 302 351 443
#     4  11  24  45  67 106 141 186 234 307 363 431
#     4  11  26  46  71 100 149 193 237 293 369 442
#     4  11  24  43  73 103 144 180 244 302 370 424
#     4  12  25  44  73 103 144 193 241 296 370 435
#     4  11  24  47  72 104 146 193 236 305 364 436
#     4  11  26  45  68 104 144 189 248 295 356 448
#
# _framework density 22.516991000000001
#
# number of rings (size 3 to 8) (size 9 to 14) (size 15 to 20)
#    0.000    0.667    5.000    2.000    2.333    1.333 
#    0.000    1.667    0.000    0.000    0.000    0.000 
#    0.000    0.000    0.000    0.000    0.000    0.000 
#
# Total GULP energy -133621.983934 kJ/mol
# GULP energy per Si atom -5567.582664 kJ/mol
# Density = 2.246574 g / cm^3
# Si number density = 22.516991 Si / 1000 Ang^3
#
#
#
# Elastic Constant Matrix: (Units=GPa)
#
#
# Indices 1 2 3 4 5 6 
#
# 1 80.5567 31.7317 54.0500 0.0000 -8.0215 0.0000
# 2 31.7317 73.9194 34.7381 0.0000 -22.2143 0.0000
# 3 54.0500 34.7381 213.1197 0.0000 -36.5352 0.0000
# 4 0.0000 0.0000 0.0000 36.6533 0.0000 -5.3564
# 5 -8.0215 -22.2143 -36.5352 0.0000 31.4570 0.0000
# 6 0.0000 0.0000 0.0000 -5.3564 0.0000 4.6960
#
#
#
# Elastic Compliance Matrix: (Units=1/GPa)
#
#
# Indices 1 2 3 4 5 6 
#
# 1 0.017531 -0.007200 -0.004217 0.000000 -0.005513 0.000000
# 2 -0.007200 0.020269 0.000826 0.000000 0.013437 0.000000
# 3 -0.004217 0.000826 0.006921 0.000000 0.007546 0.000000
# 4 0.000000 0.000000 0.000000 0.032740 0.000000 0.037344
# 5 -0.005513 0.013437 0.007546 0.000000 0.048636 0.000000
# 6 0.000000 0.000000 0.000000 0.037344 0.000000 0.255545
#
#
# Mechanical properties :
#
#
# Convention : Reuss Voigt Hill
#
# Bulk Modulus (GPa) = 42.48692 67.62614 55.05653
# Shear Modulus (GPa) = 12.17521 31.03299 21.60410
#
# Velocity S-wave (km/s) = 2.32784 3.71644 3.10087
# Velocity P-wave (km/s) = 5.11223 6.96524 6.10940
#
# Compressibility (1/GPa) = 0.02353666
#
# Stress axis : x y z
#
# Youngs Moduli (GPa) = 57.04332 49.33647 144.49282
#
# Poissons Ratio (x) = 0.35523 0.60938
# Poissons Ratio (y) = 0.41072 -0.11930
# Poissons Ratio (z) = 0.24057 -0.04074
#
# Static dielectric constant tensor:
#      x y z
#    x 1.849670 0.000000 0.066680 
#    y 0.000000 1.855320 0.000000 
#    z 0.066680 0.000000 1.749710 
# 
# From -- ./inp_files/152493.got.cif
#   From: 2010.05.17/outbox.cif.g08.bks.cpg/sg15_77_cif.got.tgz:152493.got - 2010.06.03 18:47:42.
