data_PCOD9305023
_publ_section_title
;
Structure prediction by ZEFSAII (Michael W. Deem and Ramdas Pophale) SiO2 
 PCOD9305023
Probable space group: C 2/C
;
_chemical_formula_sum "Si O2"
_cell_formula_units_Z 36
_cell_length_a 24.310781
_cell_length_b 6.215562
_cell_length_c 17.189226
_cell_angle_alpha 90.000000
_cell_angle_beta 44.994608
_cell_angle_gamma 90.000000
_cell_volume 1836.452768
_symmetry_space_group_name_H-M "C 2/C"
_symmetry_group_IT_number 15
_symmetry_cell_setting 'monoclinic'
loop_
_space_group_symop_operation_xyz
x,y,z
-x,y,1/2-z
-x,-y,-z
x,-y,1/2+z
1/2+x,1/2+y,z
1/2-x,1/2+y,1/2-z
1/2-x,1/2-y,-z
1/2+x,1/2-y,1/2+z
loop_
_atom_site_type_symbol
_atom_site_label
_atom_site_fract_x
_atom_site_fract_y
_atom_site_fract_z
Si Si1 0.967197 0.704975 0.487135
Si Si2 0.000000 0.375038 0.250000
Si Si3 0.204328 0.044998 0.078461
Si Si4 0.635985 0.179381 0.052697
Si Si5 0.561264 0.570635 0.324693
O O1 0.895415 0.661528 0.502781
O O2 0.941893 0.851711 0.583903
O O3 0.000000 0.500000 0.500000
O O4 0.026772 0.829276 0.368948
O O5 0.075886 0.527732 0.161399
O O6 0.012678 0.222304 0.313200
O O7 0.148146 0.088471 0.206397
O O8 0.145757 0.920702 0.077430
O O9 0.250000 0.250000 0.000000
O O10 0.275773 0.898295 0.032364
#
# Coordination Sequence:
#
# PCOD9305023 Si02
#       5
#     8   4   8   8   8
#     4  11  24  44  66  98 135 174 227 283 344 414
#     4  12  20  42  72  96 134 180 240 286 328 428
#     4  11  24  44  66  98 135 174 227 283 344 414
#     4  11  24  41  67  97 132 176 225 281 344 408
#     4  11  24  41  67  97 132 176 225 281 344 408
#
# _framework density 19.603009
#
# number of rings (size 3 to 8) (size 9 to 14) (size 15 to 20)
#    0.000    0.889    4.444    2.667    0.000    0.000 
#    8.000    0.000    0.000    0.000    0.000    0.000 
#    0.000    0.000    0.000    0.000    0.000    0.000 
#
# Total GULP energy -100321.139802 kJ/mol
# GULP energy per Si atom -5573.396656 kJ/mol
# Density = 1.955839 g / cm^3
# Si number density = 19.603009 Si / 1000 Ang^3
#
#
#
# Elastic Constant Matrix: (Units=GPa)
#
#
# Indices 1 2 3 4 5 6 
#
# 1 140.7392 48.5332 44.4539 -0.0083 9.2754 0.0068
# 2 48.5332 94.5102 48.5136 0.0087 -0.0150 -0.0080
# 3 44.4539 48.5136 140.5628 0.0080 -9.2577 -0.0055
# 4 -0.0083 0.0087 0.0080 43.0247 -0.0041 -0.0093
# 5 9.2754 -0.0150 -9.2577 -0.0041 40.3682 -0.0169
# 6 0.0068 -0.0080 -0.0055 -0.0093 -0.0169 43.0679
#
#
#
# Elastic Compliance Matrix: (Units=1/GPa)
#
#
# Indices 1 2 3 4 5 6 
#
# 1 0.009129 -0.003794 -0.001742 0.000003 -0.002498 -0.000003
# 2 -0.003794 0.014478 -0.003797 -0.000003 0.000006 0.000003
# 3 -0.001742 -0.003797 0.009140 -0.000001 0.002495 0.000002
# 4 0.000003 -0.000003 -0.000001 0.023242 0.000002 0.000005
# 5 -0.002498 0.000006 0.002495 0.000002 0.025918 0.000011
# 6 -0.000003 0.000003 0.000002 0.000005 0.000011 0.023219
#
#
# Mechanical properties :
#
#
# Convention : Reuss Voigt Hill
#
# Bulk Modulus (GPa) = 71.01669 73.20150 72.10909
# Shear Modulus (GPa) = 38.91495 40.91291 39.91393
#
# Velocity S-wave (km/s) = 4.46034 4.57341 4.51723
# Velocity P-wave (km/s) = 7.92668 8.08153 8.00448
#
# Compressibility (1/GPa) = 0.01408120
#
# Stress axis : x y z
#
# Youngs Moduli (GPa) = 109.54631 69.07032 109.41043
#
# Poissons Ratio (x) = 0.26204 0.19060
# Poissons Ratio (y) = 0.41561 0.41539
# Poissons Ratio (z) = 0.19084 0.26224
#
# Static dielectric constant tensor:
#      x y z
#    x 1.708470 0.000000 -0.000090 
#    y 0.000000 1.873870 0.000030 
#    z -0.000090 0.000030 1.707630 
# 
# From -- ./inp_files/217649.got.cif
#   From: 2010.05.17/outbox.cif.g08.bks.cpg/sg15_109_cif.got.tgz:217649.got - 2010.06.03 18:47:42.
