data_PCOD9305606
_publ_section_title
;
Structure prediction by ZEFSAII (Michael W. Deem and Ramdas Pophale) SiO2 
 PCOD9305606
Probable space group: C 2/C
;
_chemical_formula_sum "Si O2"
_cell_formula_units_Z 40
_cell_length_a 16.308370
_cell_length_b 9.518471
_cell_length_c 12.551459
_cell_angle_alpha 90.000000
_cell_angle_beta 111.971944
_cell_angle_gamma 90.000000
_cell_volume 1806.856571
_symmetry_space_group_name_H-M "C 2/C"
_symmetry_group_IT_number 15
_symmetry_cell_setting 'monoclinic'
loop_
_space_group_symop_operation_xyz
x,y,z
-x,y,1/2-z
-x,-y,-z
x,-y,1/2+z
1/2+x,1/2+y,z
1/2-x,1/2+y,1/2-z
1/2-x,1/2-y,-z
1/2+x,1/2-y,1/2+z
loop_
_atom_site_type_symbol
_atom_site_label
_atom_site_fract_x
_atom_site_fract_y
_atom_site_fract_z
Si Si1 0.647321 0.205419 0.807117
Si Si2 0.225434 0.549114 0.475344
Si Si3 0.185557 0.741199 0.253592
Si Si4 0.092705 0.510096 0.601406
Si Si5 0.101320 0.014336 0.820072
O O1 0.726217 0.260952 0.771324
O O2 0.587714 0.111724 0.700595
O O3 0.601596 0.346097 0.823977
O O4 0.691906 0.101446 0.914135
O O5 0.200862 0.664847 0.374914
O O6 0.168178 0.564445 0.555927
O O7 0.330773 0.550250 0.549640
O O8 0.118303 0.642577 0.157650
O O9 0.151828 0.899948 0.251229
O O10 0.000000 0.500000 0.500000
O O11 0.000000 0.060239 0.750000
#
# Coordination Sequence:
#
# PCOD9305606 Si02
#       5
#     8   8   8   8   8
#     4  11  24  46  68  97 137 176 226 274 337 404
#     4  11  24  46  71  91 137 188 221 269 339 408
#     4  11  24  46  68  97 137 176 226 274 337 404
#     4  11  26  42  72  96 129 183 232 267 326 411
#     4  12  26  41  69 105 135 172 222 288 339 382
#
# _framework density 22.137895
#
# number of rings (size 3 to 8) (size 9 to 14) (size 15 to 20)
#    0.000    0.800    4.000    2.400    5.600    1.600 
#    0.000    3.000    0.000    0.000    0.000    0.000 
#    0.000    0.000    0.000    0.000    0.000    0.000 
#
# Total GULP energy -111699.854420 kJ/mol
# GULP energy per Si atom -5584.992721 kJ/mol
# Density = 2.208751 g / cm^3
# Si number density = 22.137895 Si / 1000 Ang^3
#
#
#
# Elastic Constant Matrix: (Units=GPa)
#
#
# Indices 1 2 3 4 5 6 
#
# 1 62.7478 -8.4665 35.2253 0.0000 27.6560 0.0000
# 2 -8.4665 85.1092 13.9649 0.0000 7.9883 0.0000
# 3 35.2253 13.9649 128.2570 0.0000 38.3614 0.0000
# 4 0.0000 0.0000 0.0000 15.2407 0.0000 -5.4148
# 5 27.6560 7.9883 38.3614 0.0000 50.8069 0.0000
# 6 0.0000 0.0000 0.0000 -5.4148 0.0000 24.6357
#
#
#
# Elastic Compliance Matrix: (Units=1/GPa)
#
#
# Indices 1 2 3 4 5 6 
#
# 1 0.023106 0.003876 -0.003648 0.000000 -0.010433 0.000000
# 2 0.003876 0.012667 -0.001572 0.000000 -0.002915 0.000000
# 3 -0.003648 -0.001572 0.010724 0.000000 -0.005864 0.000000
# 4 0.000000 0.000000 0.000000 0.071172 0.000000 0.015643
# 5 -0.010433 -0.002915 -0.005864 0.000000 0.030247 0.000000
# 6 0.000000 0.000000 0.000000 0.015643 0.000000 0.044030
#
#
# Mechanical properties :
#
#
# Convention : Reuss Voigt Hill
#
# Bulk Modulus (GPa) = 22.82611 39.72905 31.27758
# Shear Modulus (GPa) = 23.89660 33.82933 28.86296
#
# Velocity S-wave (km/s) = 3.28905 3.91336 3.61471
# Velocity P-wave (km/s) = 4.97565 6.19712 5.61967
#
# Compressibility (1/GPa) = 0.04380948
#
# Stress axis : x y z
#
# Youngs Moduli (GPa) = 43.27938 78.94704 93.25055
#
# Poissons Ratio (x) = -0.30602 0.34014
# Poissons Ratio (y) = -0.16776 0.14659
# Poissons Ratio (z) = 0.15786 0.12411
#
# Static dielectric constant tensor:
#      x y z
#    x 1.784510 0.000000 0.000790 
#    y 0.000000 1.842860 0.000000 
#    z 0.000790 0.000000 1.840480 
# 
# From -- ./inp_files/159487.got.cif
#   From: 2010.05.17/outbox.cif.g08.bks.cpg/sg15_80_cif.got.tgz:159487.got - 2010.06.03 18:47:42.
