data_PCOD9305869
_publ_section_title
;
Structure prediction by ZEFSAII (Michael W. Deem and Ramdas Pophale) SiO2 
 PCOD9305869
Probable space group: C 2/C
;
_chemical_formula_sum "Si O2"
_cell_formula_units_Z 44
_cell_length_a 11.145346
_cell_length_b 8.712803
_cell_length_c 22.285239
_cell_angle_alpha 90.000000
_cell_angle_beta 69.271024
_cell_angle_gamma 90.000000
_cell_volume 2023.967329
_symmetry_space_group_name_H-M "C 2/C"
_symmetry_group_IT_number 15
_symmetry_cell_setting 'monoclinic'
loop_
_space_group_symop_operation_xyz
x,y,z
-x,y,1/2-z
-x,-y,-z
x,-y,1/2+z
1/2+x,1/2+y,z
1/2-x,1/2+y,1/2-z
1/2-x,1/2-y,-z
1/2+x,1/2-y,1/2+z
loop_
_atom_site_type_symbol
_atom_site_label
_atom_site_fract_x
_atom_site_fract_y
_atom_site_fract_z
Si Si1 0.000000 0.251460 0.250000
Si Si2 0.348921 0.193256 0.533468
Si Si3 0.213282 0.307936 0.674413
Si Si4 0.500770 0.997607 0.351697
Si Si5 0.628890 0.142754 0.506436
Si Si6 0.277323 0.469892 0.782847
O O1 0.030845 0.359916 0.300241
O O2 0.116188 0.143367 0.211154
O O3 0.250000 0.250000 0.500000
O O4 0.310014 0.270545 0.603038
O O5 0.502550 0.218642 0.497714
O O6 0.331200 0.009031 0.537178
O O7 0.264383 0.427466 0.714725
O O8 0.088765 0.381240 0.665953
O O9 0.186964 0.145878 0.711317
O O10 0.640642 0.066416 0.337096
O O11 0.428604 0.928796 0.421574
O O12 0.750000 0.250000 0.500000
#
# Coordination Sequence:
#
# PCOD9305869 Si02
#       6
#     4   8   8   8   8   8
#     4  12  26  40  70 102 138 188 240 308 372 442
#     4  11  24  48  71 105 149 193 246 301 366 442
#     4  12  24  47  72 103 145 195 241 306 371 441
#     4  12  24  47  68 103 151 185 246 306 365 444
#     4  11  26  46  73 108 149 201 245 308 365 437
#     4  12  25  45  69 105 143 189 242 306 373 435
#
# _framework density 21.739481999999999
#
# number of rings (size 3 to 8) (size 9 to 14) (size 15 to 20)
#    0.000    0.364    7.273    0.000    5.091    0.727 
#    0.000    0.000    0.000    0.000    0.000    0.000 
#    0.000    0.000    0.000    0.000    0.000    0.000 
#
# Total GULP energy -123036.096314 kJ/mol
# GULP energy per Si atom -5592.549832 kJ/mol
# Density = 2.169000 g / cm^3
# Si number density = 21.739482 Si / 1000 Ang^3
#
#
#
# Elastic Constant Matrix: (Units=GPa)
#
#
# Indices 1 2 3 4 5 6 
#
# 1 162.1515 73.3341 21.7495 0.0000 -19.4479 0.0000
# 2 73.3341 97.8930 32.9818 0.0000 -11.2723 0.0000
# 3 21.7495 32.9818 101.6025 0.0000 5.0587 0.0000
# 4 0.0000 0.0000 0.0000 45.6848 0.0000 4.7331
# 5 -19.4479 -11.2723 5.0587 0.0000 32.7320 0.0000
# 6 0.0000 0.0000 0.0000 4.7331 0.0000 40.1908
#
#
#
# Elastic Compliance Matrix: (Units=1/GPa)
#
#
# Indices 1 2 3 4 5 6 
#
# 1 0.009675 -0.006852 -0.000016 0.000000 0.003391 0.000000
# 2 -0.006852 0.017040 -0.004186 0.000000 0.002444 0.000000
# 3 -0.000016 -0.004186 0.011364 0.000000 -0.003207 0.000000
# 4 0.000000 0.000000 0.000000 0.022159 0.000000 -0.002610
# 5 0.003391 0.002444 -0.003207 0.000000 0.033903 0.000000
# 6 0.000000 0.000000 0.000000 -0.002610 0.000000 0.025189
#
#
# Mechanical properties :
#
#
# Convention : Reuss Voigt Hill
#
# Bulk Modulus (GPa) = 62.61249 68.64197 65.62723
# Shear Modulus (GPa) = 34.06878 39.29362 36.68120
#
# Velocity S-wave (km/s) = 3.96300 4.25606 4.11214
# Velocity P-wave (km/s) = 7.05722 7.46963 7.26635
#
# Compressibility (1/GPa) = 0.01597126
#
# Stress axis : x y z
#
# Youngs Moduli (GPa) = 103.36302 58.68545 87.99490
#
# Poissons Ratio (x) = 0.40210 0.00138
# Poissons Ratio (y) = 0.70822 0.36838
# Poissons Ratio (z) = 0.00162 0.24568
#
# Static dielectric constant tensor:
#      x y z
#    x 1.829390 0.000000 0.020460 
#    y 0.000000 1.763070 0.000000 
#    z 0.020460 0.000000 1.823190 
# 
# From -- ./inp_files/267577.got.cif
#   From: 2010.05.17/outbox.cif.g08.bks.cpg/sg15_134_cif.got.tgz:267577.got - 2010.06.03 18:47:42.
