data_PCOD9305132
_publ_section_title
;
Structure prediction by ZEFSAII (Michael W. Deem and Ramdas Pophale) SiO2 
 PCOD9305132
Probable space group: C 2/C
;
_chemical_formula_sum "Si O2"
_cell_formula_units_Z 48
_cell_length_a 14.675448
_cell_length_b 15.296747
_cell_length_c 10.614354
_cell_angle_alpha 90.000000
_cell_angle_beta 110.934773
_cell_angle_gamma 90.000000
_cell_volume 2225.487818
_symmetry_space_group_name_H-M "C 2/C"
_symmetry_group_IT_number 15
_symmetry_cell_setting 'monoclinic'
loop_
_space_group_symop_operation_xyz
x,y,z
-x,y,1/2-z
-x,-y,-z
x,-y,1/2+z
1/2+x,1/2+y,z
1/2-x,1/2+y,1/2-z
1/2-x,1/2-y,-z
1/2+x,1/2-y,1/2+z
loop_
_atom_site_type_symbol
_atom_site_label
_atom_site_fract_x
_atom_site_fract_y
_atom_site_fract_z
Si Si1 0.920232 0.097298 0.324642
Si Si2 0.953983 0.624886 0.407811
Si Si3 0.525265 0.677043 0.624438
Si Si4 0.578652 0.943353 0.191053
Si Si5 0.301731 0.426103 0.358736
Si Si6 0.743554 0.339900 0.920109
O O1 0.836021 0.161960 0.230333
O O2 0.000000 0.086695 0.250000
O O3 0.971268 0.134327 0.476956
O O4 0.862280 0.009235 0.337529
O O5 0.988810 0.719308 0.382067
O O6 0.925499 0.548386 0.298083
O O7 0.852644 0.637666 0.432669
O O8 0.038967 0.585779 0.536747
O O9 0.500000 0.640806 0.750000
O O10 0.638622 0.656986 0.659846
O O11 0.500000 0.904720 0.250000
O O12 0.690438 0.920197 0.262109
O O13 0.295807 0.416762 0.506828
O O14 0.750000 0.250000 0.000000
#
# Coordination Sequence:
#
# PCOD9305132 Si02
#       6
#     8   8   8   8   8   8
#     4  12  26  47  75 106 143 194 240 295 364 429
#     4  11  24  45  67 101 141 184 238 293 361 432
#     4  12  28  47  72 104 149 189 241 302 362 425
#     4  11  24  42  71  99 137 185 235 296 360 433
#     4  12  25  43  73 104 143 182 241 297 353 427
#     4  12  24  45  74 108 142 186 248 297 352 441
#
# _framework density 21.568304999999999
#
# number of rings (size 3 to 8) (size 9 to 14) (size 15 to 20)
#    0.000    0.333    6.667    1.500    4.667    0.667 
#    0.000    1.667    0.000    0.000    0.000    0.000 
#    0.000    0.000    0.000    0.000    0.000    0.000 
#
# Total GULP energy -134030.026024 kJ/mol
# GULP energy per Si atom -5584.584418 kJ/mol
# Density = 2.151921 g / cm^3
# Si number density = 21.568305 Si / 1000 Ang^3
#
#
#
# Elastic Constant Matrix: (Units=GPa)
#
#
# Indices 1 2 3 4 5 6 
#
# 1 129.4372 26.0511 69.9508 0.0000 14.6721 0.0000
# 2 26.0511 83.2279 30.5729 0.0000 10.5463 0.0000
# 3 69.9508 30.5729 127.1687 0.0000 14.0484 0.0000
# 4 0.0000 0.0000 0.0000 27.7809 0.0000 -4.4331
# 5 14.6721 10.5463 14.0484 0.0000 48.4399 0.0000
# 6 0.0000 0.0000 0.0000 -4.4331 0.0000 22.3470
#
#
#
# Elastic Compliance Matrix: (Units=1/GPa)
#
#
# Indices 1 2 3 4 5 6 
#
# 1 0.011231 -0.001227 -0.005720 0.000000 -0.001476 0.000000
# 2 -0.001227 0.013506 -0.002364 0.000000 -0.001883 0.000000
# 3 -0.005720 -0.002364 0.011705 0.000000 -0.001147 0.000000
# 4 0.000000 0.000000 0.000000 0.037173 0.000000 0.007374
# 5 -0.001476 -0.001883 -0.001147 0.000000 0.021834 0.000000
# 6 0.000000 0.000000 0.000000 0.007374 0.000000 0.046211
#
#
# Mechanical properties :
#
#
# Convention : Reuss Voigt Hill
#
# Bulk Modulus (GPa) = 56.11564 65.88703 61.00134
# Shear Modulus (GPa) = 30.08015 33.93085 32.00550
#
# Velocity S-wave (km/s) = 3.73855 3.97064 3.85634
# Velocity P-wave (km/s) = 6.68654 7.18580 6.94066
#
# Compressibility (1/GPa) = 0.01782034
#
# Stress axis : x y z
#
# Youngs Moduli (GPa) = 89.03815 74.03907 85.43458
#
# Poissons Ratio (x) = 0.09087 0.48866
# Poissons Ratio (y) = 0.10928 0.20196
# Poissons Ratio (z) = 0.50927 0.17502
#
# Static dielectric constant tensor:
#      x y z
#    x 1.834410 0.000000 -0.065890 
#    y 0.000000 1.816420 0.000000 
#    z -0.065890 0.000000 1.833430 
# 
# From -- ./inp_files/96538.got.cif
#   From: 2010.05.17/outbox.cif.g08.bks.cpg/sg15_49_cif.got.tgz:96538.got - 2010.06.03 18:47:42.
