data_PCOD9305362
_publ_section_title
;
Structure prediction by ZEFSAII (Michael W. Deem and Ramdas Pophale) SiO2 
 PCOD9305362
Probable space group: C 2/C
;
_chemical_formula_sum "Si O2"
_cell_formula_units_Z 48
_cell_length_a 17.661977
_cell_length_b 7.955400
_cell_length_c 26.022237
_cell_angle_alpha 90.000000
_cell_angle_beta 28.873792
_cell_angle_gamma 90.000000
_cell_volume 1765.577859
_symmetry_space_group_name_H-M "C 2/C"
_symmetry_group_IT_number 15
_symmetry_cell_setting 'monoclinic'
loop_
_space_group_symop_operation_xyz
x,y,z
-x,y,1/2-z
-x,-y,-z
x,-y,1/2+z
1/2+x,1/2+y,z
1/2-x,1/2+y,1/2-z
1/2-x,1/2-y,-z
1/2+x,1/2-y,1/2+z
loop_
_atom_site_type_symbol
_atom_site_label
_atom_site_fract_x
_atom_site_fract_y
_atom_site_fract_z
Si Si1 0.586561 0.255011 0.508665
Si Si2 0.964756 0.778711 0.079075
Si Si3 0.063035 0.653759 0.262830
Si Si4 0.155331 0.010748 0.644429
Si Si5 0.285342 0.410072 0.720337
Si Si6 0.775486 0.938122 0.514369
O O1 0.545012 0.312198 0.475481
O O2 0.679925 0.082196 0.446661
O O3 0.423550 0.269827 0.637031
O O4 0.700806 0.384621 0.470529
O O5 0.852302 0.620789 0.157290
O O6 0.878254 0.916516 0.166941
O O7 0.138982 0.807864 0.997076
O O8 0.199752 0.586983 0.216325
O O9 0.000000 0.559010 0.250000
O O10 0.124524 0.832878 0.202612
O O11 0.901425 0.624887 0.390082
O O12 0.150214 0.042166 0.586184
O O13 0.000000 0.900920 0.750000
#
# Coordination Sequence:
#
# PCOD9305362 Si02
#       6
#     8   8   8   8   8   8
#     4  11  26  47  73 107 154 193 245 313 385 438
#     4  11  25  46  75 105 151 196 252 308 374 452
#     4  11  24  44  71 106 143 193 246 297 374 441
#     4  11  27  44  75 113 147 192 255 312 369 457
#     4  11  26  43  72 108 145 194 247 303 376 444
#     4  11  25  49  73 107 152 198 248 311 374 449
#
# _framework density 27.186565999999999
#
# number of rings (size 3 to 8) (size 9 to 14) (size 15 to 20)
#    0.000    1.000    0.000    6.500    9.333   10.000 
#    0.000    0.000    0.000    0.000    0.000    0.000 
#    0.000    0.000    0.000    0.000    0.000    0.000 
#
# Total GULP energy -134036.022143 kJ/mol
# GULP energy per Si atom -5584.834256 kJ/mol
# Density = 2.712469 g / cm^3
# Si number density = 27.186566 Si / 1000 Ang^3
#
#
#
# Elastic Constant Matrix: (Units=GPa)
#
#
# Indices 1 2 3 4 5 6 
#
# 1 117.1076 18.1841 30.4664 -0.0003 -3.8965 0.0044
# 2 18.1841 45.1830 35.8991 -0.0001 -4.6617 0.0031
# 3 30.4664 35.8991 167.6133 0.0016 -16.4247 -0.0009
# 4 -0.0003 -0.0001 0.0016 46.1494 -0.0004 -11.3887
# 5 -3.8965 -4.6617 -16.4247 -0.0004 70.5760 -0.0006
# 6 0.0044 0.0031 -0.0009 -11.3887 -0.0006 29.3140
#
#
#
# Elastic Compliance Matrix: (Units=1/GPa)
#
#
# Indices 1 2 3 4 5 6 
#
# 1 0.009264 -0.002879 -0.001060 0.000000 0.000075 -0.000001
# 2 -0.002879 0.027579 -0.005342 0.000000 0.000419 -0.000003
# 3 -0.001060 -0.005342 0.007432 0.000000 0.001318 0.000001
# 4 0.000000 0.000000 0.000000 0.023967 0.000000 0.009311
# 5 0.000075 0.000419 0.001318 0.000000 0.014508 0.000000
# 6 -0.000001 -0.000003 0.000001 0.009311 0.000000 0.037731
#
#
# Mechanical properties :
#
#
# Convention : Reuss Voigt Hill
#
# Bulk Modulus (GPa) = 38.89059 55.44479 47.16769
# Shear Modulus (GPa) = 33.87222 45.56483 39.71852
#
# Velocity S-wave (km/s) = 3.53359 4.09835 3.82640
# Velocity P-wave (km/s) = 5.56637 6.54475 6.07528
#
# Compressibility (1/GPa) = 0.02571316
#
# Stress axis : x y z
#
# Youngs Moduli (GPa) = 107.94005 36.25992 134.54946
#
# Poissons Ratio (x) = 0.10437 0.14264
# Poissons Ratio (y) = 0.31071 0.71882
# Poissons Ratio (z) = 0.11443 0.19372
#
# Static dielectric constant tensor:
#      x y z
#    x 2.062410 0.000000 -0.057050 
#    y 0.000000 2.293380 0.000000 
#    z -0.057050 0.000000 2.302330 
# 
# From -- ./inp_files/300463.got.cif
#   From: 2010.05.17/outbox.cif.g08.bks.cpg/sg15_151_cif.got.tgz:300463.got - 2010.06.03 18:47:42.
