data_PCOD9305522
_publ_section_title
;
Structure prediction by ZEFSAII (Michael W. Deem and Ramdas Pophale) SiO2 
 PCOD9305522
Probable space group: C 2/C
;
_chemical_formula_sum "Si O2"
_cell_formula_units_Z 52
_cell_length_a 6.056956
_cell_length_b 13.860390
_cell_length_c 30.420653
_cell_angle_alpha 90.000000
_cell_angle_beta 73.497475
_cell_angle_gamma 90.000000
_cell_volume 2448.666818
_symmetry_space_group_name_H-M "C 2/C"
_symmetry_group_IT_number 15
_symmetry_cell_setting 'monoclinic'
loop_
_space_group_symop_operation_xyz
x,y,z
-x,y,1/2-z
-x,-y,-z
x,-y,1/2+z
1/2+x,1/2+y,z
1/2-x,1/2+y,1/2-z
1/2-x,1/2-y,-z
1/2+x,1/2-y,1/2+z
loop_
_atom_site_type_symbol
_atom_site_label
_atom_site_fract_x
_atom_site_fract_y
_atom_site_fract_z
Si Si1 0.225242 0.659207 0.595725
Si Si2 0.742170 0.763593 0.358605
Si Si3 0.634650 0.215281 0.051387
Si Si4 0.212053 0.501013 0.024805
Si Si5 0.877249 0.907707 0.179056
Si Si6 0.000000 0.277042 0.250000
Si Si7 0.730788 0.114988 0.210211
O O1 0.378129 0.743771 0.566352
O O2 0.163997 0.587734 0.559860
O O3 0.341089 0.597122 0.628287
O O4 0.022041 0.713129 0.632161
O O5 0.767881 0.761212 0.409656
O O6 0.824068 0.662503 0.333915
O O7 0.887999 0.848632 0.328037
O O8 0.666810 0.101770 0.051370
O O9 0.750000 0.250000 0.000000
O O10 0.500000 0.500000 0.000000
O O11 0.000000 0.500000 0.000000
O O12 0.680273 0.846010 0.214769
O O13 0.872798 0.016874 0.196242
O O14 0.138362 0.202436 0.273153
O O15 0.500000 0.092835 0.250000
#
# Coordination Sequence:
#
# PCOD9305522 Si02
#       7
#     8   8   8   8   8   4   8
#     4  11  25  45  72 100 145 188 236 312 369 439
#     4  11  25  44  70 105 142 182 243 301 361 450
#     4  11  24  45  72 100 142 191 242 298 373 437
#     4  12  27  45  71 107 146 194 256 305 373 452
#     4  11  25  45  70 103 139 182 240 293 369 449
#     4  12  24  44  68 104 132 182 238 292 364 448
#     4  12  25  43  72  98 140 186 231 295 370 440
#
# _framework density 21.236045000000001
#
# number of rings (size 3 to 8) (size 9 to 14) (size 15 to 20)
#    0.000    0.615    5.385    1.846    4.308    4.923 
#    0.000    0.000    0.000    0.000    0.000    0.000 
#    0.000    0.000    0.000    0.000    0.000    0.000 
#
# Total GULP energy -145013.275440 kJ/mol
# GULP energy per Si atom -5577.433671 kJ/mol
# Density = 2.118771 g / cm^3
# Si number density = 21.236045 Si / 1000 Ang^3
#
#
#
# Elastic Constant Matrix: (Units=GPa)
#
#
# Indices 1 2 3 4 5 6 
#
# 1 64.0931 25.7280 38.2884 0.0000 -17.2390 0.0000
# 2 25.7280 142.9793 43.1178 0.0000 -18.2229 0.0000
# 3 38.2884 43.1178 110.8362 0.0000 -21.1225 0.0000
# 4 0.0000 0.0000 0.0000 34.7712 0.0000 1.0133
# 5 -17.2390 -18.2229 -21.1225 0.0000 35.3299 0.0000
# 6 0.0000 0.0000 0.0000 1.0133 0.0000 24.5379
#
#
#
# Elastic Compliance Matrix: (Units=1/GPa)
#
#
# Indices 1 2 3 4 5 6 
#
# 1 0.021172 -0.001318 -0.005600 0.000000 0.006303 0.000000
# 2 -0.001318 0.008212 -0.002319 0.000000 0.002206 0.000000
# 3 -0.005600 -0.002319 0.012539 0.000000 0.003568 0.000000
# 4 0.000000 0.000000 0.000000 0.028794 0.000000 -0.001189
# 5 0.006303 0.002206 0.003568 0.000000 0.034651 0.000000
# 6 0.000000 0.000000 0.000000 -0.001189 0.000000 0.040802
#
#
# Mechanical properties :
#
#
# Convention : Reuss Voigt Hill
#
# Bulk Modulus (GPa) = 42.64512 59.13077 50.88794
# Shear Modulus (GPa) = 28.99227 32.97943 30.98585
#
# Velocity S-wave (km/s) = 3.69892 3.94508 3.82398
# Velocity P-wave (km/s) = 6.19417 6.97542 6.59637
#
# Compressibility (1/GPa) = 0.02344934
#
# Stress axis : x y z
#
# Youngs Moduli (GPa) = 47.23232 121.77905 79.75151
#
# Poissons Ratio (x) = 0.16046 0.44661
# Poissons Ratio (y) = 0.06223 0.18494
# Poissons Ratio (z) = 0.26450 0.28239
#
# Static dielectric constant tensor:
#      x y z
#    x 1.894430 0.000000 0.062820 
#    y 0.000000 1.757490 0.000000 
#    z 0.062820 0.000000 1.794440 
# 
# From -- ./inp_files/305352.got.cif
#   From: 2010.05.17/outbox.cif.g08.bks.cpg/sg15_153_cif.got.tgz:305352.got - 2010.06.03 18:47:42.
