data_PCOD9305313
_publ_section_title
;
Structure prediction by ZEFSAII (Michael W. Deem and Ramdas Pophale) SiO2 
 PCOD9305313
Probable space group: C 2/C
;
_chemical_formula_sum "Si O2"
_cell_formula_units_Z 40
_cell_length_a 30.200346
_cell_length_b 4.720238
_cell_length_c 9.691395
_cell_angle_alpha 90.000000
_cell_angle_beta 80.682284
_cell_angle_gamma 90.000000
_cell_volume 1363.307300
_symmetry_space_group_name_H-M "C 2/C"
_symmetry_group_IT_number 15
_symmetry_cell_setting 'monoclinic'
loop_
_space_group_symop_operation_xyz
x,y,z
-x,y,1/2-z
-x,-y,-z
x,-y,1/2+z
1/2+x,1/2+y,z
1/2-x,1/2+y,1/2-z
1/2-x,1/2-y,-z
1/2+x,1/2-y,1/2+z
loop_
_atom_site_type_symbol
_atom_site_label
_atom_site_fract_x
_atom_site_fract_y
_atom_site_fract_z
Si Si1 0.642415 0.567252 0.647134
Si Si2 0.547037 0.362655 0.682119
Si Si3 0.280106 0.739774 0.226578
Si Si4 0.146166 0.443581 0.978631
Si Si5 0.548917 0.912153 0.912070
O O1 0.591366 0.512306 0.719502
O O2 0.684049 0.440728 0.705725
O O3 0.645694 0.900884 0.626964
O O4 0.646548 0.390953 0.501984
O O5 0.500000 0.501420 0.750000
O O6 0.546837 0.057208 0.760147
O O7 0.550478 0.366684 0.514584
O O8 0.248633 0.487431 0.182956
O O9 0.309704 0.929020 0.109436
O O10 0.098423 0.523228 0.936301
O O11 0.500000 0.000000 0.000000
#
# Coordination Sequence:
#
# PCOD9305313 Si02
#       5
#     8   8   8   8   8
#     4  11  24  44  68  98 140 182 229 296 351 422
#     4   9  18  38  66 102 139 183 230 282 350 422
#     4  12  26  44  70 101 135 185 239 298 355 419
#     4  11  24  44  68  99 139 182 230 294 353 421
#     4   9  18  38  68 102 139 183 230 282 347 420
#
# _framework density 29.340416999999999
#
# number of rings (size 3 to 8) (size 9 to 14) (size 15 to 20)
#    0.000    1.600    2.000    2.400    0.000    4.800 
#    3.600   17.000    0.000    0.000    0.000    0.000 
#    0.000    0.000    0.000    0.000    0.000    0.000 
#
# Total GULP energy -111601.989839 kJ/mol
# GULP energy per Si atom -5580.099492 kJ/mol
# Density = 2.927364 g / cm^3
# Si number density = 29.340417 Si / 1000 Ang^3
#
#
#
# Elastic Constant Matrix: (Units=GPa)
#
#
# Indices 1 2 3 4 5 6 
#
# 1 203.9392 37.2562 38.1971 0.0000 -16.5880 0.0000
# 2 37.2562 137.3221 29.1182 0.0000 -7.9737 0.0000
# 3 38.1971 29.1182 98.0504 0.0000 -9.7123 0.0000
# 4 0.0000 0.0000 0.0000 42.9389 0.0000 -0.4333
# 5 -16.5880 -7.9737 -9.7123 0.0000 52.9634 0.0000
# 6 0.0000 0.0000 0.0000 -0.4333 0.0000 37.7786
#
#
#
# Elastic Compliance Matrix: (Units=1/GPa)
#
#
# Indices 1 2 3 4 5 6 
#
# 1 0.005520 -0.001062 -0.001711 0.000000 0.001255 0.000000
# 2 -0.001062 0.008006 -0.001912 0.000000 0.000522 0.000000
# 3 -0.001711 -0.001912 0.011562 0.000000 0.001296 0.000000
# 4 0.000000 0.000000 0.000000 0.023292 0.000000 0.000267
# 5 0.001255 0.000522 0.001296 0.000000 0.019590 0.000000
# 6 0.000000 0.000000 0.000000 0.000267 0.000000 0.026473
#
#
# Mechanical properties :
#
#
# Convention : Reuss Voigt Hill
#
# Bulk Modulus (GPa) = 63.62156 72.05051 67.83603
# Shear Modulus (GPa) = 45.84991 49.05220 47.45105
#
# Velocity S-wave (km/s) = 3.95737 4.09324 4.02588
# Velocity P-wave (km/s) = 6.52779 6.85197 6.69185
#
# Compressibility (1/GPa) = 0.01571794
#
# Stress axis : x y z
#
# Youngs Moduli (GPa) = 181.16181 124.90574 86.49379
#
# Poissons Ratio (x) = 0.13265 0.14796
# Poissons Ratio (y) = 0.19239 0.16539
# Poissons Ratio (z) = 0.30991 0.23884
#
# Static dielectric constant tensor:
#      x y z
#    x 2.222980 0.000000 0.013620 
#    y 0.000000 2.399270 0.000000 
#    z 0.013620 0.000000 2.575320 
# 
# From -- ./inp_files/120756.got.cif
#   From: 2010.05.17/outbox.cif.g08.bks.cpg/sg15_61_cif.got.tgz:120756.got - 2010.06.03 18:47:42.
