data_PCOD9305167
_publ_section_title
;
Structure prediction by ZEFSAII (Michael W. Deem and Ramdas Pophale) SiO2 
 PCOD9305167
Probable space group: C 2/C
;
_chemical_formula_sum "Si O2"
_cell_formula_units_Z 44
_cell_length_a 11.499519
_cell_length_b 19.087870
_cell_length_c 9.971178
_cell_angle_alpha 90.000000
_cell_angle_beta 78.967115
_cell_angle_gamma 90.000000
_cell_volume 2148.234382
_symmetry_space_group_name_H-M "C 2/C"
_symmetry_group_IT_number 15
_symmetry_cell_setting 'monoclinic'
loop_
_space_group_symop_operation_xyz
x,y,z
-x,y,1/2-z
-x,-y,-z
x,-y,1/2+z
1/2+x,1/2+y,z
1/2-x,1/2+y,1/2-z
1/2-x,1/2-y,-z
1/2+x,1/2-y,1/2+z
loop_
_atom_site_type_symbol
_atom_site_label
_atom_site_fract_x
_atom_site_fract_y
_atom_site_fract_z
Si Si1 0.224782 0.335978 0.862714
Si Si2 0.084009 0.480859 0.857765
Si Si3 0.378452 0.634206 0.083468
Si Si4 0.500000 0.523097 0.250000
Si Si5 0.293359 0.415960 0.339681
Si Si6 0.882970 0.188357 0.590106
O O1 0.159366 0.410222 0.865413
O O2 0.313965 0.326020 0.718098
O O3 0.136747 0.270434 0.882250
O O4 0.301644 0.333491 0.981378
O O5 0.176266 0.544587 0.816717
O O6 0.000000 0.470900 0.750000
O O7 0.000000 0.500000 0.000000
O O8 0.443386 0.570024 0.145338
O O9 0.282675 0.612403 0.993176
O O10 0.482251 0.673240 0.980662
O O11 0.396438 0.474064 0.327192
O O12 0.339316 0.357669 0.225556
#
# Coordination Sequence:
#
# PCOD9305167 Si02
#       6
#     8   8   8   4   8   8
#     4  11  25  43  67  93 141 183 227 270 342 412
#     4  12  26  44  66  96 139 184 223 274 336 412
#     4  12  22  42  70 102 132 172 224 290 338 392
#     4  12  22  38  76 102 132 162 224 294 336 390
#     4  12  25  41  71 105 130 171 235 284 338 395
#     4  11  24  43  66 102 134 180 226 284 341 399
#
# _framework density 20.481936000000001
#
# number of rings (size 3 to 8) (size 9 to 14) (size 15 to 20)
#    0.000    0.364    5.455    2.727    2.545    3.636 
#    0.000    1.818    0.000    0.000    0.000    0.000 
#    0.000    0.000    0.000    0.000    0.000    0.000 
#
# Total GULP energy -123103.349771 kJ/mol
# GULP energy per Si atom -5595.606808 kJ/mol
# Density = 2.043532 g / cm^3
# Si number density = 20.481936 Si / 1000 Ang^3
#
#
#
# Elastic Constant Matrix: (Units=GPa)
#
#
# Indices 1 2 3 4 5 6 
#
# 1 54.8675 21.1367 10.3048 0.0000 2.7520 0.0000
# 2 21.1367 74.4693 34.8973 0.0000 6.5010 0.0000
# 3 10.3048 34.8973 114.4290 0.0000 5.4246 0.0000
# 4 0.0000 0.0000 0.0000 16.3570 0.0000 1.3202
# 5 2.7520 6.5010 5.4246 0.0000 33.4509 0.0000
# 6 0.0000 0.0000 0.0000 1.3202 0.0000 18.6135
#
#
#
# Elastic Compliance Matrix: (Units=1/GPa)
#
#
# Indices 1 2 3 4 5 6 
#
# 1 0.020474 -0.005730 -0.000070 0.000000 -0.000560 0.000000
# 2 -0.005730 0.017447 -0.004702 0.000000 -0.002157 0.000000
# 3 -0.000070 -0.004702 0.010214 0.000000 -0.000737 0.000000
# 4 0.000000 0.000000 0.000000 0.061488 0.000000 -0.004361
# 5 -0.000560 -0.002157 -0.000737 0.000000 0.030479 0.000000
# 6 0.000000 0.000000 0.000000 -0.004361 0.000000 0.054034
#
#
# Mechanical properties :
#
#
# Convention : Reuss Voigt Hill
#
# Bulk Modulus (GPa) = 36.85801 41.82705 39.34253
# Shear Modulus (GPa) = 22.30315 25.51274 23.90794
#
# Velocity S-wave (km/s) = 3.30346 3.53316 3.42024
# Velocity P-wave (km/s) = 5.70832 6.09181 5.90318
#
# Compressibility (1/GPa) = 0.02713114
#
# Stress axis : x y z
#
# Youngs Moduli (GPa) = 48.84206 57.31807 97.90135
#
# Poissons Ratio (x) = 0.32841 0.00684
# Poissons Ratio (y) = 0.27985 0.46037
# Poissons Ratio (z) = 0.00341 0.26953
#
# Static dielectric constant tensor:
#      x y z
#    x 1.706740 0.000000 0.000830 
#    y 0.000000 1.718440 0.000000 
#    z 0.000830 0.000000 1.703300 
# 
# From -- ./inp_files/30723.got.cif
#   From: 2010.05.17/outbox.cif.g08.bks.cpg/sg15_16_cif.got.tgz:30723.got - 2010.06.03 18:47:42.
