data_PCOD9305097
_publ_section_title
;
Structure prediction by ZEFSAII (Michael W. Deem and Ramdas Pophale) SiO2 
 PCOD9305097
Probable space group: C 2/C
;
_chemical_formula_sum "Si O2"
_cell_formula_units_Z 28
_cell_length_a 6.194336
_cell_length_b 16.458944
_cell_length_c 12.983339
_cell_angle_alpha 90.000000
_cell_angle_beta 57.794724
_cell_angle_gamma 90.000000
_cell_volume 1120.024314
_symmetry_space_group_name_H-M "C 2/C"
_symmetry_group_IT_number 15
_symmetry_cell_setting 'monoclinic'
loop_
_space_group_symop_operation_xyz
x,y,z
-x,y,1/2-z
-x,-y,-z
x,-y,1/2+z
1/2+x,1/2+y,z
1/2-x,1/2+y,1/2-z
1/2-x,1/2-y,-z
1/2+x,1/2-y,1/2+z
loop_
_atom_site_type_symbol
_atom_site_label
_atom_site_fract_x
_atom_site_fract_y
_atom_site_fract_z
Si Si1 0.000000 0.828735 0.250000
Si Si2 0.335419 0.893308 0.614017
Si Si3 0.934050 0.214545 0.160292
Si Si4 0.119240 0.049243 0.563264
O O1 0.234671 0.771613 0.155172
O O2 0.941194 0.888697 0.170119
O O3 0.230645 0.860552 0.749200
O O4 0.636969 0.899189 0.536202
O O5 0.201690 0.829958 0.565815
O O6 0.231853 0.981933 0.612615
O O7 0.000000 0.261695 0.250000
O O8 0.000000 0.000000 0.500000
#
# Coordination Sequence:
#
# PCOD9305097 Si02
#       4
#     4   8   8   8
#     4  12  24  40  68 104 130 182 232 280 348 400
#     4   8  21  45  61  93 135 178 223 278 335 402
#     4   8  21  41  64  95 135 175 220 281 337 397
#     4  11  24  42  68  98 134 182 231 278 335 413
#
# _framework density 24.999459999999999
#
# number of rings (size 3 to 8) (size 9 to 14) (size 15 to 20)
#    1.714    0.571    0.000    1.714    4.000    6.857 
#    0.000    2.857    0.000    0.000    0.000    0.000 
#    0.000    0.000    0.000    0.000    0.000    0.000 
#
# Total GULP energy -77965.251373 kJ/mol
# GULP energy per Si atom -5568.946527 kJ/mol
# Density = 2.494256 g / cm^3
# Si number density = 24.999460 Si / 1000 Ang^3
#
#
#
# Elastic Constant Matrix: (Units=GPa)
#
#
# Indices 1 2 3 4 5 6 
#
# 1 95.2046 61.3499 49.6349 0.0000 -25.2958 0.0000
# 2 61.3499 121.5253 46.3888 0.0000 -4.3232 0.0000
# 3 49.6349 46.3888 58.9346 0.0000 -9.2173 0.0000
# 4 0.0000 0.0000 0.0000 30.1666 0.0000 2.1895
# 5 -25.2958 -4.3232 -9.2173 0.0000 34.4710 0.0000
# 6 0.0000 0.0000 0.0000 2.1895 0.0000 50.1296
#
#
#
# Elastic Compliance Matrix: (Units=1/GPa)
#
#
# Indices 1 2 3 4 5 6 
#
# 1 0.026745 -0.007522 -0.014279 0.000000 0.014865 0.000000
# 2 -0.007522 0.013915 -0.005435 0.000000 -0.005228 0.000000
# 3 -0.014279 -0.005435 0.032902 0.000000 -0.002362 0.000000
# 4 0.000000 0.000000 0.000000 0.033255 0.000000 -0.001452
# 5 0.014865 -0.005228 -0.002362 0.000000 0.038631 0.000000
# 6 0.000000 0.000000 0.000000 -0.001452 0.000000 0.020012
#
#
# Mechanical properties :
#
#
# Convention : Reuss Voigt Hill
#
# Bulk Modulus (GPa) = 52.38450 65.60128 58.99289
# Shear Modulus (GPa) = 22.09502 30.83948 26.46725
#
# Velocity S-wave (km/s) = 2.97614 3.51608 3.25732
# Velocity P-wave (km/s) = 5.72797 6.54078 6.14782
#
# Compressibility (1/GPa) = 0.01908961
#
# Stress axis : x y z
#
# Youngs Moduli (GPa) = 37.39027 71.86500 30.39298
#
# Poissons Ratio (x) = 0.54060 0.43398
# Poissons Ratio (y) = 0.28126 0.16519
# Poissons Ratio (z) = 0.53389 0.39060
#
# Static dielectric constant tensor:
#      x y z
#    x 2.059500 0.000000 0.004100 
#    y 0.000000 1.958000 0.000000 
#    z 0.004100 0.000000 2.098730 
# 
# From -- ./inp_files/183669.got.cif
#   From: 2010.05.17/outbox.cif.g08.bks.cpg/sg15_92_cif.got.tgz:183669.got - 2010.06.03 18:47:42.
