data_PCOD9305559
_publ_section_title
;
Structure prediction by ZEFSAII (Michael W. Deem and Ramdas Pophale) SiO2 
 PCOD9305559
Probable space group: C 2/C
;
_chemical_formula_sum "Si O2"
_cell_formula_units_Z 40
_cell_length_a 5.004852
_cell_length_b 12.949349
_cell_length_c 31.800191
_cell_angle_alpha 90.000000
_cell_angle_beta 66.595836
_cell_angle_gamma 90.000000
_cell_volume 1891.393212
_symmetry_space_group_name_H-M "C 2/C"
_symmetry_group_IT_number 15
_symmetry_cell_setting 'monoclinic'
loop_
_space_group_symop_operation_xyz
x,y,z
-x,y,1/2-z
-x,-y,-z
x,-y,1/2+z
1/2+x,1/2+y,z
1/2-x,1/2+y,1/2-z
1/2-x,1/2-y,-z
1/2+x,1/2-y,1/2+z
loop_
_atom_site_type_symbol
_atom_site_label
_atom_site_fract_x
_atom_site_fract_y
_atom_site_fract_z
Si Si1 0.501850 0.698972 0.544753
Si Si2 0.764890 0.631131 0.324135
Si Si3 0.391134 0.120975 0.114276
Si Si4 0.000000 0.190720 0.750000
Si Si5 0.500000 0.957717 0.250000
Si Si6 0.513745 0.060682 0.954975
O O1 0.750000 0.750000 0.500000
O O2 0.365957 0.787430 0.581970
O O3 0.681618 0.620822 0.562891
O O4 0.257437 0.638267 0.533777
O O5 0.422803 0.608486 0.344909
O O6 0.839582 0.732902 0.292646
O O7 0.874881 0.645586 0.364636
O O8 0.933072 0.534514 0.292865
O O9 0.487943 0.020154 0.082750
O O10 0.229748 0.116587 0.758097
O O11 0.500000 0.000000 0.000000
#
# Coordination Sequence:
#
# PCOD9305559 Si02
#       6
#     8   8   8   4   4   8
#     4  12  26  43  68  95 132 183 232 278 336 390
#     4  11  26  44  66 106 132 172 220 276 337 398
#     4  12  26  43  68  98 142 170 228 282 325 402
#     4  11  24  45  74  96 136 173 214 271 340 412
#     4  11  24  45  74  96 136 173 214 271 340 412
#     4  12  26  43  68  95 132 183 232 278 336 390
#
# _framework density 21.148433000000001
#
# number of rings (size 3 to 8) (size 9 to 14) (size 15 to 20)
#    0.000    0.400    2.000    6.000    2.800   12.800 
#    0.000    0.000    0.000    0.000    0.000    0.000 
#    0.000    0.000    0.000    0.000    0.000    0.000 
#
# Total GULP energy -112013.827702 kJ/mol
# GULP energy per Si atom -5600.691385 kJ/mol
# Density = 2.110030 g / cm^3
# Si number density = 21.148433 Si / 1000 Ang^3
#
#
#
# Elastic Constant Matrix: (Units=GPa)
#
#
# Indices 1 2 3 4 5 6 
#
# 1 104.0551 23.9521 -2.6520 -0.0002 6.4180 0.0003
# 2 23.9521 111.0501 32.5973 -0.0001 1.8171 0.0001
# 3 -2.6520 32.5973 60.8287 -0.0001 1.3552 0.0001
# 4 -0.0002 -0.0001 -0.0001 28.0007 0.0001 -1.4604
# 5 6.4180 1.8171 1.3552 0.0001 36.3040 -0.0001
# 6 0.0003 0.0001 0.0001 -1.4604 -0.0001 49.7478
#
#
#
# Elastic Compliance Matrix: (Units=1/GPa)
#
#
# Indices 1 2 3 4 5 6 
#
# 1 0.010416 -0.002803 0.001996 0.000000 -0.001776 0.000000
# 2 -0.002803 0.011444 -0.006258 0.000000 0.000156 0.000000
# 3 0.001996 -0.006258 0.019898 0.000000 -0.000782 0.000000
# 4 0.000000 0.000000 0.000000 0.035768 0.000000 0.001050
# 5 -0.001776 0.000156 -0.000782 0.000000 0.027880 0.000000
# 6 0.000000 0.000000 0.000000 0.001050 0.000000 0.020132
#
#
# Mechanical properties :
#
#
# Convention : Reuss Voigt Hill
#
# Bulk Modulus (GPa) = 36.19753 42.63651 39.41702
# Shear Modulus (GPa) = 33.58423 37.61293 35.59858
#
# Velocity S-wave (km/s) = 3.98933 4.22183 4.10722
# Velocity P-wave (km/s) = 6.19457 6.63095 6.41647
#
# Compressibility (1/GPa) = 0.02762620
#
# Stress axis : x y z
#
# Youngs Moduli (GPa) = 96.00618 87.38095 50.25661
#
# Poissons Ratio (x) = 0.24497 -0.10031
# Poissons Ratio (y) = 0.26915 0.31453
# Poissons Ratio (z) = -0.19163 0.54687
#
# Static dielectric constant tensor:
#      x y z
#    x 1.680060 0.000000 -0.042410 
#    y 0.000000 1.762940 0.000000 
#    z -0.042410 0.000000 1.622530 
# 
# From -- ./inp_files/304834.got.cif
#   From: 2010.05.17/outbox.cif.g08.bks.cpg/sg15_153_cif.got.tgz:304834.got - 2010.06.03 18:47:42.
