data_PCOD9305870
_publ_section_title
;
Structure prediction by ZEFSAII (Michael W. Deem and Ramdas Pophale) SiO2 
 PCOD9305870
Probable space group: C 2/C
;
_chemical_formula_sum "Si O2"
_cell_formula_units_Z 48
_cell_length_a 22.310071
_cell_length_b 5.404658
_cell_length_c 16.926676
_cell_angle_alpha 90.000000
_cell_angle_beta 85.262824
_cell_angle_gamma 90.000000
_cell_volume 2034.017882
_symmetry_space_group_name_H-M "C 2/C"
_symmetry_group_IT_number 15
_symmetry_cell_setting 'monoclinic'
loop_
_space_group_symop_operation_xyz
x,y,z
-x,y,1/2-z
-x,-y,-z
x,-y,1/2+z
1/2+x,1/2+y,z
1/2-x,1/2+y,1/2-z
1/2-x,1/2-y,-z
1/2+x,1/2-y,1/2+z
loop_
_atom_site_type_symbol
_atom_site_label
_atom_site_fract_x
_atom_site_fract_y
_atom_site_fract_z
Si Si1 0.963584 0.028349 0.828411
Si Si2 0.740064 0.401068 0.082678
Si Si3 0.858345 0.655448 0.672115
Si Si4 0.916000 0.165571 0.611738
Si Si5 0.133248 0.758601 0.555706
Si Si6 0.860242 0.388120 0.828851
O O1 0.922770 0.254901 0.801953
O O2 0.000000 0.919296 0.750000
O O3 0.014140 0.104277 0.885381
O O4 0.914605 0.861923 0.876080
O O5 0.803604 0.417019 0.119832
O O6 0.700282 0.638815 0.062528
O O7 0.697699 0.282474 0.155429
O O8 0.750000 0.250000 0.000000
O O9 0.906689 0.444612 0.644001
O O10 0.845271 0.594335 0.765221
O O11 0.879595 0.938144 0.657495
O O12 0.891113 0.170237 0.526061
O O13 0.133266 0.474156 0.580475
#
# Coordination Sequence:
#
# PCOD9305870 Si02
#       6
#     8   8   8   8   8   8
#     4  11  24  48  71 107 146 190 243 306 361 437
#     4  11  25  48  72 106 152 191 249 305 366 438
#     4  12  28  47  76 110 148 198 247 301 373 438
#     4  12  27  48  78 109 147 196 247 304 370 437
#     4  11  26  45  76 106 146 196 246 303 371 434
#     4  11  27  44  75 108 145 200 244 304 370 437
#
# _framework density 23.598613
#
# number of rings (size 3 to 8) (size 9 to 14) (size 15 to 20)
#    0.000    0.667    3.333    2.500   11.667    2.667 
#    0.000    0.000    0.000    0.000    0.000    0.000 
#    0.000    0.000    0.000    0.000    0.000    0.000 
#
# Total GULP energy -134074.744832 kJ/mol
# GULP energy per Si atom -5586.447701 kJ/mol
# Density = 2.354490 g / cm^3
# Si number density = 23.598613 Si / 1000 Ang^3
#
#
#
# Elastic Constant Matrix: (Units=GPa)
#
#
# Indices 1 2 3 4 5 6 
#
# 1 120.6492 -5.7262 20.1399 0.0000 7.2676 0.0000
# 2 -5.7262 30.9233 17.3911 0.0000 -10.8289 0.0000
# 3 20.1399 17.3911 111.5260 0.0000 6.8357 0.0000
# 4 0.0000 0.0000 0.0000 37.3391 0.0000 0.2402
# 5 7.2676 -10.8289 6.8357 0.0000 47.2159 0.0000
# 6 0.0000 0.0000 0.0000 0.2402 0.0000 20.3666
#
#
#
# Elastic Compliance Matrix: (Units=1/GPa)
#
#
# Indices 1 2 3 4 5 6 
#
# 1 0.008764 0.002552 -0.001951 0.000000 -0.000481 0.000000
# 2 0.002552 0.040444 -0.007378 0.000000 0.009951 0.000000
# 3 -0.001951 -0.007378 0.010649 0.000000 -0.002933 0.000000
# 4 0.000000 0.000000 0.000000 0.026784 0.000000 -0.000316
# 5 -0.000481 0.009951 -0.002933 0.000000 0.023960 0.000000
# 6 0.000000 0.000000 0.000000 -0.000316 0.000000 0.049104
#
#
# Mechanical properties :
#
#
# Convention : Reuss Voigt Hill
#
# Bulk Modulus (GPa) = 21.59650 36.30090 28.94870
# Shear Modulus (GPa) = 26.49794 36.40390 31.45092
#
# Velocity S-wave (km/s) = 3.35455 3.93189 3.65464
# Velocity P-wave (km/s) = 4.91685 6.00242 5.48655
#
# Compressibility (1/GPa) = 0.04630380
#
# Stress axis : x y z
#
# Youngs Moduli (GPa) = 114.09948 24.72532 93.90480
#
# Poissons Ratio (x) = -0.06309 0.18322
# Poissons Ratio (y) = -0.29114 0.69278
# Poissons Ratio (z) = 0.22262 0.18241
#
# Static dielectric constant tensor:
#      x y z
#    x 1.852880 0.000000 -0.035570 
#    y 0.000000 1.975210 0.000000 
#    z -0.035570 0.000000 1.925970 
# 
# From -- ./inp_files/217487.got.cif
#   From: 2010.05.17/outbox.cif.g08.bks.cpg/sg15_109_cif.got.tgz:217487.got - 2010.06.03 18:47:42.
