data_PCOD9305134
_publ_section_title
;
Structure prediction by ZEFSAII (Michael W. Deem and Ramdas Pophale) SiO2 
 PCOD9305134
Probable space group: C 2/C
;
_chemical_formula_sum "Si O2"
_cell_formula_units_Z 48
_cell_length_a 15.480942
_cell_length_b 14.865553
_cell_length_c 9.874860
_cell_angle_alpha 90.000000
_cell_angle_beta 116.061563
_cell_angle_gamma 90.000000
_cell_volume 2041.463792
_symmetry_space_group_name_H-M "C 2/C"
_symmetry_group_IT_number 15
_symmetry_cell_setting 'monoclinic'
loop_
_space_group_symop_operation_xyz
x,y,z
-x,y,1/2-z
-x,-y,-z
x,-y,1/2+z
1/2+x,1/2+y,z
1/2-x,1/2+y,1/2-z
1/2-x,1/2-y,-z
1/2+x,1/2-y,1/2+z
loop_
_atom_site_type_symbol
_atom_site_label
_atom_site_fract_x
_atom_site_fract_y
_atom_site_fract_z
Si Si1 0.658738 0.989855 0.579881
Si Si2 0.731902 0.650265 0.860554
Si Si3 0.156061 0.167363 0.088911
Si Si4 0.487676 0.872649 0.891036
Si Si5 0.289764 0.349537 0.563158
Si Si6 0.941660 0.812706 0.449218
O O1 0.609590 0.929010 0.659396
O O2 0.705970 0.924359 0.500284
O O3 0.737531 0.058693 0.689557
O O4 0.574170 0.056794 0.471003
O O5 0.813034 0.727022 0.904967
O O6 0.634887 0.685919 0.725582
O O7 0.714858 0.626394 0.005160
O O8 0.181831 0.145086 0.259774
O O9 0.044459 0.144390 0.990298
O O10 0.500000 0.833022 0.750000
O O11 0.472899 0.792101 0.988285
O O12 0.250000 0.250000 0.500000
O O13 0.383866 0.356138 0.533976
#
# Coordination Sequence:
#
# PCOD9305134 Si02
#       6
#     8   8   8   8   8   8
#     4  11  26  44  66 112 141 189 241 308 360 425
#     4  11  24  42  75 100 143 186 245 295 363 429
#     4  11  24  45  69 101 138 192 240 294 360 440
#     4  11  24  42  72 105 145 180 252 311 352 424
#     4  12  25  44  69 101 152 189 230 295 376 431
#     4  12  24  47  72 105 138 194 241 295 366 437
#
# _framework density 23.512540999999999
#
# number of rings (size 3 to 8) (size 9 to 14) (size 15 to 20)
#    0.000    0.667    5.000    2.000    7.000    0.000 
#    0.000    5.000    0.000    0.000    0.000    0.000 
#    0.000    0.000    0.000    0.000    0.000    0.000 
#
# Total GULP energy -134079.505746 kJ/mol
# GULP energy per Si atom -5586.646073 kJ/mol
# Density = 2.345903 g / cm^3
# Si number density = 23.512541 Si / 1000 Ang^3
#
#
#
# Elastic Constant Matrix: (Units=GPa)
#
#
# Indices 1 2 3 4 5 6 
#
# 1 161.5982 49.3303 54.5686 0.0000 -1.9151 0.0000
# 2 49.3303 76.7170 -1.8189 0.0000 6.6767 0.0000
# 3 54.5686 -1.8189 77.2202 0.0000 -3.5250 0.0000
# 4 0.0000 0.0000 0.0000 17.0838 0.0000 9.7630
# 5 -1.9151 6.6767 -3.5250 0.0000 46.9457 0.0000
# 6 0.0000 0.0000 0.0000 9.7630 0.0000 51.0522
#
#
#
# Elastic Compliance Matrix: (Units=1/GPa)
#
#
# Indices 1 2 3 4 5 6 
#
# 1 0.011196 -0.007470 -0.008046 0.000000 0.000915 0.000000
# 2 -0.007470 0.018186 0.005594 0.000000 -0.002471 0.000000
# 3 -0.008046 0.005594 0.018781 0.000000 0.000286 0.000000
# 4 0.000000 0.000000 0.000000 0.065717 0.000000 -0.012567
# 5 0.000915 -0.002471 0.000286 0.000000 0.021711 0.000000
# 6 0.000000 0.000000 0.000000 -0.012567 0.000000 0.021991
#
#
# Mechanical properties :
#
#
# Convention : Reuss Voigt Hill
#
# Bulk Modulus (GPa) = 35.31161 57.74394 46.52777
# Shear Modulus (GPa) = 26.75715 37.24672 32.00194
#
# Velocity S-wave (km/s) = 3.37708 3.98442 3.69325
# Velocity P-wave (km/s) = 5.50064 6.76606 6.16590
#
# Compressibility (1/GPa) = 0.02831930
#
# Stress axis : x y z
#
# Youngs Moduli (GPa) = 89.31459 54.98771 53.24591
#
# Poissons Ratio (x) = 0.41075 0.42843
# Poissons Ratio (y) = 0.66717 -0.29787
# Poissons Ratio (z) = 0.71865 -0.30761
#
# Static dielectric constant tensor:
#      x y z
#    x 1.920610 0.000000 0.053660 
#    y 0.000000 1.935280 0.000000 
#    z 0.053660 0.000000 1.881890 
# 
# From -- ./inp_files/97171.got.cif
#   From: 2010.05.17/outbox.cif.g08.bks.cpg/sg15_49_cif.got.tgz:97171.got - 2010.06.03 18:47:42.
