data_PCOD9305988
_publ_section_title
;
Structure prediction by ZEFSAII (Michael W. Deem and Ramdas Pophale) SiO2 
 PCOD9305988
Probable space group: C 2/C
;
_chemical_formula_sum "Si O2"
_cell_formula_units_Z 40
_cell_length_a 11.889760
_cell_length_b 12.675860
_cell_length_c 17.256516
_cell_angle_alpha 90.000000
_cell_angle_beta 145.571370
_cell_angle_gamma 90.000000
_cell_volume 1470.427080
_symmetry_space_group_name_H-M "C 2/C"
_symmetry_group_IT_number 15
_symmetry_cell_setting 'monoclinic'
loop_
_space_group_symop_operation_xyz
x,y,z
-x,y,1/2-z
-x,-y,-z
x,-y,1/2+z
1/2+x,1/2+y,z
1/2-x,1/2+y,1/2-z
1/2-x,1/2-y,-z
1/2+x,1/2-y,1/2+z
loop_
_atom_site_type_symbol
_atom_site_label
_atom_site_fract_x
_atom_site_fract_y
_atom_site_fract_z
Si Si1 0.981030 0.586026 0.555679
Si Si2 0.781061 0.688698 0.696620
Si Si3 0.269042 0.282409 0.118017
Si Si4 0.591993 0.369817 0.923556
Si Si5 0.883378 0.109399 0.535065
O O1 0.091157 0.586821 0.701649
O O2 0.111385 0.675676 0.588478
O O3 0.000000 0.500000 0.500000
O O4 0.755368 0.610891 0.449011
O O5 0.709045 0.672749 0.566842
O O6 0.578516 0.682775 0.632436
O O7 0.919106 0.791392 0.794279
O O8 0.500000 0.309305 0.250000
O O9 0.245316 0.155600 0.108575
O O10 0.236865 0.351722 0.020519
O O11 0.540587 0.491210 0.915632
#
# Coordination Sequence:
#
# PCOD9305988 Si02
#       5
#     8   8   8   8   8
#     4  12  26  51  85 120 169 230 285 353 432 508
#     4  12  28  52  86 125 181 223 289 361 427 519
#     4  11  24  51  80 122 161 220 288 354 418 508
#     4  12  29  57  83 132 174 229 289 357 435 516
#     4  11  26  51  84 120 168 222 288 351 429 505
#
# _framework density 27.202981000000001
#
# number of rings (size 3 to 8) (size 9 to 14) (size 15 to 20)
#    0.000    0.400    4.000    3.000    0.000    6.400 
#    0.000    4.000    0.000    0.000    0.000    0.000 
#    0.000    0.000    0.000    0.000    0.000    0.000 
#
# Total GULP energy -111420.580179 kJ/mol
# GULP energy per Si atom -5571.029009 kJ/mol
# Density = 2.714107 g / cm^3
# Si number density = 27.202981 Si / 1000 Ang^3
#
#
#
# Elastic Constant Matrix: (Units=GPa)
#
#
# Indices 1 2 3 4 5 6 
#
# 1 208.8645 67.9642 59.8014 0.0000 27.2087 0.0000
# 2 67.9642 164.4681 80.8970 0.0003 -5.2387 0.0000
# 3 59.8014 80.8970 110.5484 0.0020 -9.9367 0.0004
# 4 0.0000 0.0003 0.0020 34.8415 0.0002 3.0353
# 5 27.2087 -5.2387 -9.9367 0.0002 51.6980 -0.0001
# 6 0.0000 0.0000 0.0004 3.0353 -0.0001 39.9866
#
#
#
# Elastic Compliance Matrix: (Units=1/GPa)
#
#
# Indices 1 2 3 4 5 6 
#
# 1 0.006639 -0.001445 -0.002911 0.000000 -0.004200 0.000000
# 2 -0.001445 0.009821 -0.006357 0.000000 0.000534 0.000000
# 3 -0.002911 -0.006357 0.015622 -0.000001 0.003891 0.000000
# 4 0.000000 0.000000 -0.000001 0.028892 0.000000 -0.002193
# 5 -0.004200 0.000534 0.003891 0.000000 0.022355 0.000000
# 6 0.000000 0.000000 0.000000 -0.002193 0.000000 0.025175
#
#
# Mechanical properties :
#
#
# Convention : Reuss Voigt Hill
#
# Bulk Modulus (GPa) = 93.85083 100.13405 96.99244
# Shear Modulus (GPa) = 37.45753 43.65310 40.55532
#
# Velocity S-wave (km/s) = 3.71477 4.01024 3.86533
# Velocity P-wave (km/s) = 7.27836 7.63757 7.46013
#
# Compressibility (1/GPa) = 0.01065521
#
# Stress axis : x y z
#
# Youngs Moduli (GPa) = 150.63182 101.81837 64.01034
#
# Poissons Ratio (x) = 0.14715 0.18634
# Poissons Ratio (y) = 0.21770 0.40693
# Poissons Ratio (z) = 0.43851 0.64729
#
# Static dielectric constant tensor:
#      x y z
#    x 2.223710 0.000000 -0.234970 
#    y 0.000000 2.368510 0.000000 
#    z -0.234970 0.000000 2.497860 
# 
# From -- ./inp_files/238195.got.cif
#   From: 2010.05.17/outbox.cif.g08.bks.cpg/sg15_120_cif.got.tgz:238195.got - 2010.06.03 18:47:42.
