data_PCOD9305368
_publ_section_title
;
Structure prediction by ZEFSAII (Michael W. Deem and Ramdas Pophale) SiO2 
 PCOD9305368
Probable space group: C 2/C
;
_chemical_formula_sum "Si O2"
_cell_formula_units_Z 64
_cell_length_a 20.358823
_cell_length_b 24.279769
_cell_length_c 11.840964
_cell_angle_alpha 90.000000
_cell_angle_beta 32.415348
_cell_angle_gamma 90.000000
_cell_volume 3137.559475
_symmetry_space_group_name_H-M "C 2/C"
_symmetry_group_IT_number 15
_symmetry_cell_setting 'monoclinic'
loop_
_space_group_symop_operation_xyz
x,y,z
-x,y,1/2-z
-x,-y,-z
x,-y,1/2+z
1/2+x,1/2+y,z
1/2-x,1/2+y,1/2-z
1/2-x,1/2-y,-z
1/2+x,1/2-y,1/2+z
loop_
_atom_site_type_symbol
_atom_site_label
_atom_site_fract_x
_atom_site_fract_y
_atom_site_fract_z
Si Si1 0.473537 0.303181 0.661556
Si Si2 0.773109 0.336280 0.791051
Si Si3 0.862941 0.062247 0.901243
Si Si4 0.532957 0.187859 0.912726
Si Si5 0.173237 0.121870 0.773132
Si Si6 0.363251 0.218965 0.502544
Si Si7 0.148723 0.060571 0.041355
Si Si8 0.233828 0.355565 0.964382
O O1 0.500000 0.320670 0.750000
O O2 0.516106 0.241305 0.582211
O O3 0.549138 0.342174 0.468385
O O4 0.329340 0.306829 0.853583
O O5 0.784469 0.350713 0.641768
O O6 0.910637 0.338415 0.639266
O O7 0.697663 0.385251 0.953930
O O8 0.707469 0.277273 0.909169
O O9 0.850409 0.075603 0.786483
O O10 0.000000 0.061300 0.750000
O O11 0.809250 0.002713 0.011632
O O12 0.610481 0.151871 0.714014
O O13 0.616131 0.208924 0.894112
O O14 0.278504 0.166778 0.589710
O O15 0.196280 0.092858 0.861108
O O16 0.500000 0.221244 0.250000
O O17 0.195199 0.092039 0.085968
O O18 0.000000 0.060197 0.250000
#
# Coordination Sequence:
#
# PCOD9305368 Si02
#       8
#     8   8   8   8   8   8   8   8
#     4  12  20  36  65 100 132 172 215 270 331 393
#     4  12  26  42  65 101 139 172 221 274 333 395
#     4  11  28  43  68 100 133 175 222 275 330 387
#     4  12  25  40  64 101 135 177 221 269 334 395
#     4  12  23  45  69  98 134 175 219 266 334 403
#     4  12  26  42  68  95 139 181 214 266 333 410
#     4  11  24  44  72 100 127 172 228 280 326 383
#     4  12  22  41  66  98 134 172 220 274 330 382
#
# _framework density 20.398019000000001
#
# number of rings (size 3 to 8) (size 9 to 14) (size 15 to 20)
#    0.000    0.250    6.250    3.375    3.500    2.000 
#    0.000    0.625    0.000    0.000    0.000    0.000 
#    0.000    0.000    0.000    0.000    0.000    0.000 
#
# Total GULP energy -178813.760233 kJ/mol
# GULP energy per Si atom -5587.930007 kJ/mol
# Density = 2.035159 g / cm^3
# Si number density = 20.398019 Si / 1000 Ang^3
#
#
#
# Elastic Constant Matrix: (Units=GPa)
#
#
# Indices 1 2 3 4 5 6 
#
# 1 54.5816 18.8271 5.4246 0.0002 6.0641 -0.0003
# 2 18.8271 123.6117 30.6925 0.0006 -5.0666 -0.0002
# 3 5.4246 30.6925 87.3751 0.0021 -8.2765 -0.0003
# 4 0.0002 0.0006 0.0021 27.3821 -0.0004 1.6601
# 5 6.0641 -5.0666 -8.2765 -0.0004 29.1436 0.0001
# 6 -0.0003 -0.0002 -0.0003 1.6601 0.0001 9.3437
#
#
#
# Elastic Compliance Matrix: (Units=1/GPa)
#
#
# Indices 1 2 3 4 5 6 
#
# 1 0.019990 -0.003091 -0.000617 0.000000 -0.004872 0.000001
# 2 -0.003091 0.009354 -0.002958 0.000000 0.001429 0.000000
# 3 -0.000617 -0.002958 0.012831 -0.000001 0.003258 0.000000
# 4 0.000000 0.000000 -0.000001 0.036918 0.000000 -0.006559
# 5 -0.004872 0.001429 0.003258 0.000000 0.036500 -0.000001
# 6 0.000001 0.000000 0.000000 -0.006559 -0.000001 0.108189
#
#
# Mechanical properties :
#
#
# Convention : Reuss Voigt Hill
#
# Bulk Modulus (GPa) = 34.67150 41.71744 38.19447
# Shear Modulus (GPa) = 20.26515 27.21550 23.74032
#
# Velocity S-wave (km/s) = 3.15538 3.65666 3.41523
# Velocity P-wave (km/s) = 5.50542 6.19067 5.85807
#
# Compressibility (1/GPa) = 0.02884213
#
# Stress axis : x y z
#
# Youngs Moduli (GPa) = 50.02493 106.90811 77.93617
#
# Poissons Ratio (x) = 0.33048 0.04806
# Poissons Ratio (y) = 0.15464 0.23057
# Poissons Ratio (z) = 0.03085 0.31628
#
# Static dielectric constant tensor:
#      x y z
#    x 1.767110 0.000000 0.000210 
#    y 0.000000 1.728410 0.000000 
#    z 0.000210 0.000000 1.739360 
# 
# From -- ./inp_files/114991.got.cif
#   From: 2010.05.17/outbox.cif.g08.bks.cpg/sg15_58_cif.got.tgz:114991.got - 2010.06.03 18:47:42.
