data_PCOD9305267
_publ_section_title
;
Structure prediction by ZEFSAII (Michael W. Deem and Ramdas Pophale) SiO2 
 PCOD9305267
Probable space group: C 2/C
;
_chemical_formula_sum "Si O2"
_cell_formula_units_Z 28
_cell_length_a 9.332203
_cell_length_b 31.500646
_cell_length_c 5.258836
_cell_angle_alpha 90.000000
_cell_angle_beta 56.721039
_cell_angle_gamma 90.000000
_cell_volume 1292.421484
_symmetry_space_group_name_H-M "C 2/C"
_symmetry_group_IT_number 15
_symmetry_cell_setting 'monoclinic'
loop_
_space_group_symop_operation_xyz
x,y,z
-x,y,1/2-z
-x,-y,-z
x,-y,1/2+z
1/2+x,1/2+y,z
1/2-x,1/2+y,1/2-z
1/2-x,1/2-y,-z
1/2+x,1/2-y,1/2+z
loop_
_atom_site_type_symbol
_atom_site_label
_atom_site_fract_x
_atom_site_fract_y
_atom_site_fract_z
Si Si1 0.500000 0.701636 0.750000
Si Si2 0.807560 0.481358 0.650018
Si Si3 0.500000 0.760200 0.250000
Si Si4 0.000000 0.404195 0.250000
Si Si5 0.348263 0.171439 0.590582
O O1 0.497974 0.731033 0.501300
O O2 0.671102 0.674066 0.613871
O O3 0.724189 0.507411 0.499939
O O4 0.000000 0.500000 0.500000
O O5 0.855399 0.433493 0.525796
O O6 0.648894 0.794395 0.179584
O O7 0.098901 0.373877 0.349426
O O8 0.500000 0.183926 0.250000
#
# Coordination Sequence:
#
# PCOD9305267 Si02
#       5
#     4   8   4   4   8
#     4  12  26  42  60  81 118 148 196 239 284 344
#     4   8  15  28  49  78 108 146 182 224 265 324
#     4  11  24  44  60  82 110 154 198 240 278 344
#     4   9  20  32  52  87 120 140 192 231 276 346
#     4  11  25  38  61  88 113 152 189 239 294 329
#
# _framework density 21.664757999999999
#
# number of rings (size 3 to 8) (size 9 to 14) (size 15 to 20)
#    0.000    2.286    1.429    1.714   16.000    0.000 
#    0.000    0.000    0.000    0.000    0.000   18.000 
#    0.000    0.000    0.000    0.000    0.000    0.000 
#
# Total GULP energy -78016.881704 kJ/mol
# GULP energy per Si atom -5572.634407 kJ/mol
# Density = 2.161545 g / cm^3
# Si number density = 21.664758 Si / 1000 Ang^3
#
#
#
# Elastic Constant Matrix: (Units=GPa)
#
#
# Indices 1 2 3 4 5 6 
#
# 1 157.9653 56.3685 58.1759 0.0000 11.6488 0.0000
# 2 56.3685 128.6448 47.0386 0.0000 19.8989 0.0000
# 3 58.1759 47.0386 105.9543 0.0000 44.4290 0.0000
# 4 0.0000 0.0000 0.0000 93.4774 0.0000 33.4837
# 5 11.6488 19.8989 44.4290 0.0000 44.0719 0.0000
# 6 0.0000 0.0000 0.0000 33.4837 0.0000 8.9314
#
#
#
# Elastic Compliance Matrix: (Units=1/GPa)
#
#
# Indices 1 2 3 4 5 6 
#
# 1 0.009015 -0.002562 -0.005713 0.000000 0.004534 0.000000
# 2 -0.002562 0.010008 -0.002469 0.000000 -0.001352 0.000000
# 3 -0.005713 -0.002469 0.021775 0.000000 -0.019327 0.000000
# 4 0.000000 0.000000 0.000000 -0.031198 0.000000 0.116962
# 5 0.004534 -0.001352 -0.019327 0.000000 0.041586 0.000000
# 6 0.000000 0.000000 0.000000 0.116962 0.000000 -0.326525
#
#
# Mechanical properties :
#
#
# Convention : Reuss Voigt Hill
#
# Bulk Modulus (GPa) = 51.79002 79.52559 65.65780
# Shear Modulus (GPa) = -20.20903 44.69490 12.24293
#
# Velocity S-wave (km/s) = -3.05750 4.54698 2.37978
# Velocity P-wave (km/s) = 3.39008 8.02208 6.15818
#
# Compressibility (1/GPa) = 0.01930874
#
# Stress axis : x y z
#
# Youngs Moduli (GPa) = 110.93223 99.91942 45.92372
#
# Poissons Ratio (x) = 0.25601 0.26237
# Poissons Ratio (y) = 0.28423 0.11340
# Poissons Ratio (z) = 0.63377 0.24673
#
# Static dielectric constant tensor:
#      x y z
#    x 1.794660 0.000000 0.045780 
#    y 0.000000 1.825520 0.000000 
#    z 0.045780 0.000000 1.934900 
# 
# From -- ./inp_files/2334.got.cif
#   From: 2010.05.17/outbox.cif.g08.bks.cpg/sg15_2_cif.got.tgz:2334.got - 2010.06.03 18:47:42.
