data_PCOD9305835
_publ_section_title
;
Structure prediction by ZEFSAII (Michael W. Deem and Ramdas Pophale) SiO2 
 PCOD9305835
Probable space group: C 2/C
;
_chemical_formula_sum "Si O2"
_cell_formula_units_Z 28
_cell_length_a 9.408661
_cell_length_b 6.938432
_cell_length_c 23.181384
_cell_angle_alpha 90.000000
_cell_angle_beta 53.790912
_cell_angle_gamma 90.000000
_cell_volume 1221.041062
_symmetry_space_group_name_H-M "C 2/C"
_symmetry_group_IT_number 15
_symmetry_cell_setting 'monoclinic'
loop_
_space_group_symop_operation_xyz
x,y,z
-x,y,1/2-z
-x,-y,-z
x,-y,1/2+z
1/2+x,1/2+y,z
1/2-x,1/2+y,1/2-z
1/2-x,1/2-y,-z
1/2+x,1/2-y,1/2+z
loop_
_atom_site_type_symbol
_atom_site_label
_atom_site_fract_x
_atom_site_fract_y
_atom_site_fract_z
Si Si1 0.043963 0.739392 0.040439
Si Si2 0.000000 0.737277 0.250000
Si Si3 0.369807 0.490454 0.674157
Si Si4 0.450230 0.200329 0.937699
O O1 0.998352 0.522206 0.070475
O O2 0.250000 0.750000 0.000000
O O3 0.924630 0.875232 0.107481
O O4 0.035668 0.782060 0.975032
O O5 0.828848 0.592152 0.288128
O O6 0.940404 0.886435 0.212357
O O7 0.489036 0.299665 0.635379
O O8 0.250000 0.250000 0.000000
#
# Coordination Sequence:
#
# PCOD9305835 Si02
#       4
#     8   4   8   8
#     4  11  24  47  76 119 150 193 254 337 412 457
#     4  12  34  54  80 110 168 230 266 316 384 484
#     4  12  29  55  75 116 158 214 270 323 389 486
#     4  11  25  43  81 116 151 192 254 340 408 461
#
# _framework density 22.931253999999999
#
# number of rings (size 3 to 8) (size 9 to 14) (size 15 to 20)
#    0.000    0.571    2.857    2.571   12.000    1.143 
#    0.000    0.000    0.000    0.000    0.000    0.000 
#    0.000    0.000    0.000    0.000    0.000    0.000 
#
# Total GULP energy -77985.269889 kJ/mol
# GULP energy per Si atom -5570.376421 kJ/mol
# Density = 2.287906 g / cm^3
# Si number density = 22.931254 Si / 1000 Ang^3
#
#
#
# Elastic Constant Matrix: (Units=GPa)
#
#
# Indices 1 2 3 4 5 6 
#
# 1 190.4220 38.3732 75.7049 0.0000 -3.7723 0.0000
# 2 38.3732 167.9440 92.0774 0.0000 13.2340 0.0000
# 3 75.7049 92.0774 104.8369 0.0000 -2.9595 0.0000
# 4 0.0000 0.0000 0.0000 59.2959 0.0000 0.1120
# 5 -3.7723 13.2340 -2.9595 0.0000 36.8890 0.0000
# 6 0.0000 0.0000 0.0000 0.1120 0.0000 41.1949
#
#
#
# Elastic Compliance Matrix: (Units=1/GPa)
#
#
# Indices 1 2 3 4 5 6 
#
# 1 0.007917 0.002704 -0.008115 0.000000 -0.000812 0.000000
# 2 0.002704 0.013383 -0.013866 0.000000 -0.005637 0.000000
# 3 -0.008115 -0.013866 0.027756 0.000000 0.006371 0.000000
# 4 0.000000 0.000000 0.000000 0.016865 0.000000 -0.000046
# 5 -0.000812 -0.005637 0.006371 0.000000 0.029559 0.000000
# 6 0.000000 0.000000 0.000000 -0.000046 0.000000 0.024275
#
#
# Mechanical properties :
#
#
# Convention : Reuss Voigt Hill
#
# Bulk Modulus (GPa) = 95.20958 97.27932 96.24445
# Shear Modulus (GPa) = 30.90085 44.61245 37.75665
#
# Velocity S-wave (km/s) = 3.67487 4.41555 4.06213
# Velocity P-wave (km/s) = 7.72114 8.27710 8.00395
#
# Compressibility (1/GPa) = 0.01050314
#
# Stress axis : x y z
#
# Youngs Moduli (GPa) = 126.31754 74.72262 36.02776
#
# Poissons Ratio (x) = -0.20205 0.29235
# Poissons Ratio (y) = -0.34156 0.49955
# Poissons Ratio (z) = 1.02501 1.03609
#
# Static dielectric constant tensor:
#      x y z
#    x 1.819630 0.000000 -0.011360 
#    y 0.000000 1.055680 0.000000 
#    z -0.011360 0.000000 1.837320 
# 
# From -- ./inp_files/229045.got.cif
#   From: 2010.05.17/outbox.cif.g08.bks.cpg/sg15_115_cif.got.tgz:229045.got - 2010.06.03 18:47:42.
