data_PCOD9305674
_publ_section_title
;
Structure prediction by ZEFSAII (Michael W. Deem and Ramdas Pophale) SiO2 
 PCOD9305674
Probable space group: C 2/C
;
_chemical_formula_sum "Si O2"
_cell_formula_units_Z 36
_cell_length_a 7.406163
_cell_length_b 14.686509
_cell_length_c 15.973083
_cell_angle_alpha 90.000000
_cell_angle_beta 48.508758
_cell_angle_gamma 90.000000
_cell_volume 1301.413944
_symmetry_space_group_name_H-M "C 2/C"
_symmetry_group_IT_number 15
_symmetry_cell_setting 'monoclinic'
loop_
_space_group_symop_operation_xyz
x,y,z
-x,y,1/2-z
-x,-y,-z
x,-y,1/2+z
1/2+x,1/2+y,z
1/2-x,1/2+y,1/2-z
1/2-x,1/2-y,-z
1/2+x,1/2-y,1/2+z
loop_
_atom_site_type_symbol
_atom_site_label
_atom_site_fract_x
_atom_site_fract_y
_atom_site_fract_z
Si Si1 0.079235 0.885866 0.819616
Si Si2 0.500000 0.116307 0.250000
Si Si3 0.306898 0.580769 0.730899
Si Si4 0.118058 0.650137 0.539671
Si Si5 0.248319 0.358061 0.499557
O O1 0.280332 0.814049 0.782323
O O2 0.000000 0.870345 0.750000
O O3 0.254105 0.974698 0.771298
O O4 0.855026 0.907942 0.946140
O O5 0.349844 0.099735 0.385277
O O6 0.500000 0.577228 0.750000
O O7 0.476426 0.616184 0.605641
O O8 0.055361 0.628048 0.829959
O O9 0.250000 0.750000 0.500000
O O10 0.943272 0.624402 0.515864
O O11 0.250000 0.250000 0.500000
#
# Coordination Sequence:
#
# PCOD9305674 Si02
#       5
#     8   4   8   8   8
#     4  11  24  46  73 103 145 190 243 294 363 437
#     4  12  26  44  72 106 144 190 234 302 362 424
#     4   9  24  44  73 103 143 193 240 302 364 423
#     4  11  24  46  76 105 145 195 246 298 368 430
#     4  11  25  44  71 105 150 183 242 302 363 429
#
# _framework density 27.662223999999998
#
# number of rings (size 3 to 8) (size 9 to 14) (size 15 to 20)
#    0.000    1.333    2.222    1.333   10.889    3.556 
#    4.000    0.000    0.000    0.000    0.000    0.000 
#    0.000    0.000    0.000    0.000    0.000    0.000 
#
# Total GULP energy -100463.362131 kJ/mol
# GULP energy per Si atom -5581.297896 kJ/mol
# Density = 2.759926 g / cm^3
# Si number density = 27.662224 Si / 1000 Ang^3
#
#
#
# Elastic Constant Matrix: (Units=GPa)
#
#
# Indices 1 2 3 4 5 6 
#
# 1 135.5798 -5.6950 113.7656 -0.0002 -4.9985 0.0000
# 2 -5.6950 81.3159 69.2837 -0.0001 -18.7088 0.0000
# 3 113.7656 69.2837 343.0844 -0.0005 -48.6407 0.0003
# 4 -0.0002 -0.0001 -0.0005 37.3994 0.0004 -8.9650
# 5 -4.9985 -18.7088 -48.6407 0.0004 70.7549 -0.0002
# 6 0.0000 0.0000 0.0003 -8.9650 -0.0002 17.1084
#
#
#
# Elastic Compliance Matrix: (Units=1/GPa)
#
#
# Indices 1 2 3 4 5 6 
#
# 1 0.011794 0.004840 -0.005084 0.000000 -0.001382 0.000000
# 2 0.004840 0.017118 -0.004844 0.000000 0.001538 0.000000
# 3 -0.005084 -0.004844 0.005924 0.000000 0.002432 0.000000
# 4 0.000000 0.000000 0.000000 0.030580 0.000000 0.016024
# 5 -0.001382 0.001538 0.002432 0.000000 0.016115 0.000000
# 6 0.000000 0.000000 0.000000 0.016024 0.000000 0.066847
#
#
# Mechanical properties :
#
#
# Convention : Reuss Voigt Hill
#
# Bulk Modulus (GPa) = 40.55197 101.63209 71.09203
# Shear Modulus (GPa) = 29.98089 50.56092 40.27090
#
# Velocity S-wave (km/s) = 3.29571 4.27991 3.81965
# Velocity P-wave (km/s) = 5.40128 7.82583 6.72375
#
# Compressibility (1/GPa) = 0.02465971
#
# Stress axis : x y z
#
# Youngs Moduli (GPa) = 84.78612 58.41958 168.81427
#
# Poissons Ratio (x) = -0.28275 0.85831
# Poissons Ratio (y) = -0.41037 0.81767
# Poissons Ratio (z) = 0.43108 0.28296
#
# Static dielectric constant tensor:
#      x y z
#    x 2.487950 0.000000 0.016170 
#    y 0.000000 2.406330 0.000000 
#    z 0.016170 0.000000 2.172700 
# 
# From -- ./inp_files/190149.got.cif
#   From: 2010.05.17/outbox.cif.g08.bks.cpg/sg15_96_cif.got.tgz:190149.got - 2010.06.03 18:47:42.
