data_PCOD9305415
_publ_section_title
;
Structure prediction by ZEFSAII (Michael W. Deem and Ramdas Pophale) SiO2 
 PCOD9305415
Probable space group: C 2/C
;
_chemical_formula_sum "Si O2"
_cell_formula_units_Z 44
_cell_length_a 13.308935
_cell_length_b 6.252202
_cell_length_c 26.971627
_cell_angle_alpha 90.000000
_cell_angle_beta 61.576277
_cell_angle_gamma 90.000000
_cell_volume 1973.764700
_symmetry_space_group_name_H-M "C 2/C"
_symmetry_group_IT_number 15
_symmetry_cell_setting 'monoclinic'
loop_
_space_group_symop_operation_xyz
x,y,z
-x,y,1/2-z
-x,-y,-z
x,-y,1/2+z
1/2+x,1/2+y,z
1/2-x,1/2+y,1/2-z
1/2-x,1/2-y,-z
1/2+x,1/2-y,1/2+z
loop_
_atom_site_type_symbol
_atom_site_label
_atom_site_fract_x
_atom_site_fract_y
_atom_site_fract_z
Si Si1 0.500000 0.244478 0.250000
Si Si2 0.741744 0.105806 0.164701
Si Si3 0.477959 0.490392 0.654614
Si Si4 0.180107 0.682866 0.592553
Si Si5 0.939385 0.666147 0.445250
Si Si6 0.336416 0.933586 0.065717
O O1 0.618104 0.115930 0.218516
O O2 0.508489 0.384233 0.297557
O O3 0.847646 0.076578 0.176179
O O4 0.764229 0.313341 0.124703
O O5 0.740441 0.911212 0.126715
O O6 0.559353 0.286372 0.635329
O O7 0.521957 0.640668 0.598950
O O8 0.146090 0.489650 0.564509
O O9 0.262485 0.877558 0.557775
O O10 0.879805 0.722348 0.511627
O O11 0.051765 0.532624 0.434639
#
# Coordination Sequence:
#
# PCOD9305415 Si02
#       6
#     4   8   8   8   8   8
#     4  12  28  50  70 102 134 192 240 300 352 398
#     4  12  27  47  73 106 141 183 241 291 350 420
#     4  12  27  47  73 106 141 183 241 291 350 420
#     4  12  23  45  74 104 142 185 231 286 348 420
#     4  11  24  44  74 111 147 184 229 285 355 427
#     4  11  24  44  74 111 147 184 229 285 355 427
#
# _framework density 22.292425000000001
#
# number of rings (size 3 to 8) (size 9 to 14) (size 15 to 20)
#    0.000    0.364    7.273    0.545    0.000   10.182 
#    0.000    0.000    0.000    0.000    0.000    0.000 
#    0.000    0.000    0.000    0.000    0.000    0.000 
#
# Total GULP energy -123117.453221 kJ/mol
# GULP energy per Si atom -5596.247874 kJ/mol
# Density = 2.224169 g / cm^3
# Si number density = 22.292425 Si / 1000 Ang^3
#
#
#
# Elastic Constant Matrix: (Units=GPa)
#
#
# Indices 1 2 3 4 5 6 
#
# 1 135.8930 6.3707 10.7279 -0.0001 -9.2037 0.0000
# 2 6.3707 30.1807 -10.6754 -0.0001 -7.1686 0.0001
# 3 10.7279 -10.6754 41.9243 0.0000 -13.3077 0.0001
# 4 -0.0001 -0.0001 0.0000 -1.7071 0.0000 -10.9623
# 5 -9.2037 -7.1686 -13.3077 0.0000 29.6050 0.0000
# 6 0.0000 0.0001 0.0001 -10.9623 0.0000 45.4349
#
#
#
# Elastic Compliance Matrix: (Units=1/GPa)
#
#
# Indices 1 2 3 4 5 6 
#
# 1 0.007699 -0.002233 -0.002275 0.000000 0.000830 0.000000
# 2 -0.002233 0.043992 0.017420 -0.000001 0.017788 0.000000
# 3 -0.002275 0.017420 0.034975 0.000000 0.019232 0.000000
# 4 0.000000 -0.000001 0.000000 -0.229775 0.000000 -0.055439
# 5 0.000830 0.017788 0.019232 0.000000 0.046989 0.000000
# 6 0.000000 0.000000 0.000000 -0.055439 0.000000 0.008633
#
#
# Mechanical properties :
#
#
# Convention : Reuss Voigt Hill
#
# Bulk Modulus (GPa) = 8.88972 24.53828 16.71400
# Shear Modulus (GPa) = -65.95119 28.10488 -18.92315
#
# Velocity S-wave (km/s) = -5.44507 3.55454 -2.91668
# Velocity P-wave (km/s) = 5.96115 5.27993 1.95674
#
# Compressibility (1/GPa) = 0.11248950
#
# Stress axis : x y z
#
# Youngs Moduli (GPa) = 129.88295 22.73148 28.59182
#
# Poissons Ratio (x) = 0.05075 0.06505
# Poissons Ratio (y) = 0.29000 -0.49806
# Poissons Ratio (z) = 0.29550 -0.39597
#
# Static dielectric constant tensor:
#      x y z
#    x 1.798660 0.000000 -0.007360 
#    y 0.000000 1.812510 0.000000 
#    z -0.007360 0.000000 1.808460 
# 
# From -- ./inp_files/260413.got.cif
#   From: 2010.05.17/outbox.cif.g08.bks.cpg/sg15_131_cif.got.tgz:260413.got - 2010.06.03 18:47:42.
