data_PCOD9305586
_publ_section_title
;
Structure prediction by ZEFSAII (Michael W. Deem and Ramdas Pophale) SiO2 
 PCOD9305586
Probable space group: C 2/C
;
_chemical_formula_sum "Si O2"
_cell_formula_units_Z 36
_cell_length_a 23.511002
_cell_length_b 6.628927
_cell_length_c 20.359270
_cell_angle_alpha 90.000000
_cell_angle_beta 33.021910
_cell_angle_gamma 90.000000
_cell_volume 1729.183040
_symmetry_space_group_name_H-M "C 2/C"
_symmetry_group_IT_number 15
_symmetry_cell_setting 'monoclinic'
loop_
_space_group_symop_operation_xyz
x,y,z
-x,y,1/2-z
-x,-y,-z
x,-y,1/2+z
1/2+x,1/2+y,z
1/2-x,1/2+y,1/2-z
1/2-x,1/2-y,-z
1/2+x,1/2-y,1/2+z
loop_
_atom_site_type_symbol
_atom_site_label
_atom_site_fract_x
_atom_site_fract_y
_atom_site_fract_z
Si Si1 0.000000 0.961005 0.750000
Si Si2 0.691965 0.368166 0.997163
Si Si3 0.841795 0.719417 0.812932
Si Si4 0.398425 0.958085 0.640394
Si Si5 0.766503 0.897253 0.304774
O O1 0.919484 0.821934 0.788664
O O2 0.927809 0.095735 0.867421
O O3 0.750000 0.250000 0.000000
O O4 0.751224 0.581669 0.931541
O O5 0.707474 0.246727 0.914346
O O6 0.904384 0.572275 0.703616
O O7 0.793861 0.899488 0.816399
O O8 0.368524 0.726468 0.683209
O O9 0.500000 0.000000 0.500000
O O10 0.302711 0.050163 0.691108
#
# Coordination Sequence:
#
# PCOD9305586 Si02
#       5
#     4   8   8   8   8
#     4  12  26  44  72  98 138 184 226 280 346 410
#     4  11  26  45  68 101 137 179 229 283 340 407
#     4  11  26  46  66 102 137 180 227 285 339 403
#     4  11  26  42  71  98 134 184 224 282 343 410
#     4  11  24  46  65 100 141 171 232 287 335 402
#
# _framework density 20.81908
#
# number of rings (size 3 to 8) (size 9 to 14) (size 15 to 20)
#    0.000    0.889    4.444    0.667    6.222    1.778 
#    0.000    0.000    0.000    0.000    0.000    0.000 
#    0.000    0.000    0.000    0.000    0.000    0.000 
#
# Total GULP energy -100716.953278 kJ/mol
# GULP energy per Si atom -5595.386293 kJ/mol
# Density = 2.077169 g / cm^3
# Si number density = 20.819080 Si / 1000 Ang^3
#
#
#
# Elastic Constant Matrix: (Units=GPa)
#
#
# Indices 1 2 3 4 5 6 
#
# 1 39.9122 5.6368 -17.8372 0.0184 13.0948 -0.0121
# 2 5.6368 110.4206 38.0133 0.0401 -3.2593 -0.0318
# 3 -17.8372 38.0133 140.0376 0.0277 -2.8574 -0.0225
# 4 0.0184 0.0401 0.0277 24.7679 -0.0172 15.3598
# 5 13.0948 -3.2593 -2.8574 -0.0172 22.7354 0.0103
# 6 -0.0121 -0.0318 -0.0225 15.3598 0.0103 43.2378
#
#
#
# Elastic Compliance Matrix: (Units=1/GPa)
#
#
# Indices 1 2 3 4 5 6 
#
# 1 0.034387 -0.004090 0.005087 -0.000060 -0.019753 0.000035
# 2 -0.004090 0.010503 -0.003302 -0.000013 0.003446 0.000009
# 3 0.005087 -0.003302 0.008638 -0.000016 -0.002318 0.000010
# 4 -0.000060 -0.000013 -0.000016 0.051783 0.000078 -0.018395
# 5 -0.019753 0.003446 -0.002318 0.000078 0.055564 -0.000045
# 6 0.000035 0.000009 0.000010 -0.018395 -0.000045 0.029663
#
#
# Mechanical properties :
#
#
# Convention : Reuss Voigt Hill
#
# Bulk Modulus (GPa) = 20.44182 37.99959 29.22070
# Shear Modulus (GPa) = 23.64597 35.78538 29.71567
#
# Velocity S-wave (km/s) = 3.37380 4.15043 3.78210
# Velocity P-wave (km/s) = 5.00168 6.42339 5.75659
#
# Compressibility (1/GPa) = 0.04891933
#
# Stress axis : x y z
#
# Youngs Moduli (GPa) = 29.08101 95.20686 115.76909
#
# Poissons Ratio (x) = 0.38937 -0.58893
# Poissons Ratio (y) = 0.11893 0.38224
# Poissons Ratio (z) = -0.14794 0.31435
#
# Static dielectric constant tensor:
#      x y z
#    x 1.732210 0.000000 0.022320 
#    y 0.000000 1.741250 0.000000 
#    z 0.022320 0.000000 1.742210 
# 
# From -- ./inp_files/120653.got.cif
#   From: 2010.05.17/outbox.cif.g08.bks.cpg/sg15_61_cif.got.tgz:120653.got - 2010.06.03 18:47:42.
