data_PCOD9305801
_publ_section_title
;
Structure prediction by ZEFSAII (Michael W. Deem and Ramdas Pophale) SiO2 
 PCOD9305801
Probable space group: C 2/C
;
_chemical_formula_sum "Si O2"
_cell_formula_units_Z 36
_cell_length_a 17.251878
_cell_length_b 8.730982
_cell_length_c 9.826312
_cell_angle_alpha 90.000000
_cell_angle_beta 68.993734
_cell_angle_gamma 90.000000
_cell_volume 1381.731071
_symmetry_space_group_name_H-M "C 2/C"
_symmetry_group_IT_number 15
_symmetry_cell_setting 'monoclinic'
loop_
_space_group_symop_operation_xyz
x,y,z
-x,y,1/2-z
-x,-y,-z
x,-y,1/2+z
1/2+x,1/2+y,z
1/2-x,1/2+y,1/2-z
1/2-x,1/2-y,-z
1/2+x,1/2-y,1/2+z
loop_
_atom_site_type_symbol
_atom_site_label
_atom_site_fract_x
_atom_site_fract_y
_atom_site_fract_z
Si Si1 0.140441 0.664461 0.037566
Si Si2 0.192492 0.491963 0.256633
Si Si3 0.500000 0.297043 0.750000
Si Si4 0.040075 0.702697 0.436524
Si Si5 0.131737 0.043512 0.731597
O O1 0.178632 0.525911 0.105358
O O2 0.156477 0.825472 0.105001
O O3 0.040951 0.651921 0.094814
O O4 0.170880 0.656725 0.862469
O O5 0.123880 0.608478 0.360422
O O6 0.287945 0.510625 0.236949
O O7 0.510356 0.199137 0.609216
O O8 0.581391 0.403494 0.701751
O O9 0.066142 0.871983 0.372215
#
# Coordination Sequence:
#
# PCOD9305801 Si02
#       5
#     8   8   4   8   8
#     4  11  25  50  74 109 148 197 241 302 373 437
#     4  11  26  44  78 107 152 182 250 310 360 429
#     4  12  26  44  78 102 156 198 244 298 370 450
#     4  11  26  47  74 109 146 198 249 293 377 435
#     4  11  24  47  73 109 147 193 249 305 362 439
#
# _framework density 26.054276999999999
#
# number of rings (size 3 to 8) (size 9 to 14) (size 15 to 20)
#    0.000    0.889    2.222    4.000    6.222    4.444 
#    0.000    0.000    0.000    0.000    0.000    0.000 
#    0.000    0.000    0.000    0.000    0.000    0.000 
#
# Total GULP energy -100766.918989 kJ/mol
# GULP energy per Si atom -5598.162166 kJ/mol
# Density = 2.599498 g / cm^3
# Si number density = 26.054277 Si / 1000 Ang^3
#
#
#
# Elastic Constant Matrix: (Units=GPa)
#
#
# Indices 1 2 3 4 5 6 
#
# 1 226.6315 58.1914 23.8402 0.0000 36.9516 0.0000
# 2 58.1914 79.6737 30.6304 0.0000 17.2297 0.0000
# 3 23.8402 30.6304 104.0150 0.0000 9.8770 0.0000
# 4 0.0000 0.0000 0.0000 41.8227 0.0000 -2.2080
# 5 36.9516 17.2297 9.8770 0.0000 35.7931 0.0000
# 6 0.0000 0.0000 0.0000 -2.2080 0.0000 36.2707
#
#
#
# Elastic Compliance Matrix: (Units=1/GPa)
#
#
# Indices 1 2 3 4 5 6 
#
# 1 0.006039 -0.003442 0.000066 0.000000 -0.004595 0.000000
# 2 -0.003442 0.017401 -0.003982 0.000000 -0.003724 0.000000
# 3 0.000066 -0.003982 0.010881 0.000000 -0.001154 0.000000
# 4 0.000000 0.000000 0.000000 0.023988 0.000000 0.001460
# 5 -0.004595 -0.003724 -0.001154 0.000000 0.034794 0.000000
# 6 0.000000 0.000000 0.000000 0.001460 0.000000 0.027659
#
#
# Mechanical properties :
#
#
# Convention : Reuss Voigt Hill
#
# Bulk Modulus (GPa) = 51.00689 70.62713 60.81701
# Shear Modulus (GPa) = 35.20826 42.62119 38.91473
#
# Velocity S-wave (km/s) = 3.68005 4.04897 3.86891
# Velocity P-wave (km/s) = 6.13813 7.00181 6.58415
#
# Compressibility (1/GPa) = 0.01960519
#
# Stress axis : x y z
#
# Youngs Moduli (GPa) = 165.60265 57.46696 91.90312
#
# Poissons Ratio (x) = 0.19780 -0.00606
# Poissons Ratio (y) = 0.57000 0.36594
# Poissons Ratio (z) = -0.01092 0.22882
#
# Static dielectric constant tensor:
#      x y z
#    x 2.052810 0.000000 0.036020 
#    y 0.000000 2.131190 0.000000 
#    z 0.036020 0.000000 2.093240 
# 
# From -- ./inp_files/45864.got.cif
#   From: 2010.05.17/outbox.cif.g08.bks.cpg/sg15_23_cif.got.tgz:45864.got - 2010.06.03 18:47:42.
