data_PCOD9305410
_publ_section_title
;
Structure prediction by ZEFSAII (Michael W. Deem and Ramdas Pophale) SiO2 
 PCOD9305410
Probable space group: C 2/C
;
_chemical_formula_sum "Si O2"
_cell_formula_units_Z 36
_cell_length_a 8.213502
_cell_length_b 14.287000
_cell_length_c 18.681573
_cell_angle_alpha 90.000000
_cell_angle_beta 40.170523
_cell_angle_gamma 90.000000
_cell_volume 1414.119455
_symmetry_space_group_name_H-M "C 2/C"
_symmetry_group_IT_number 15
_symmetry_cell_setting 'monoclinic'
loop_
_space_group_symop_operation_xyz
x,y,z
-x,y,1/2-z
-x,-y,-z
x,-y,1/2+z
1/2+x,1/2+y,z
1/2-x,1/2+y,1/2-z
1/2-x,1/2-y,-z
1/2+x,1/2-y,1/2+z
loop_
_atom_site_type_symbol
_atom_site_label
_atom_site_fract_x
_atom_site_fract_y
_atom_site_fract_z
Si Si1 0.832283 0.757337 0.868782
Si Si2 0.500000 0.385436 0.250000
Si Si3 0.632006 0.955614 0.886945
Si Si4 0.220606 0.463915 0.624284
Si Si5 0.854025 0.766663 0.597212
O O1 0.785590 0.867405 0.866918
O O2 0.000000 0.719035 0.750000
O O3 0.979532 0.730592 0.891727
O O4 0.550430 0.719434 0.967747
O O5 0.707266 0.460943 0.203898
O O6 0.357246 0.310285 0.348284
O O7 0.424189 0.930419 0.898583
O O8 0.500000 0.000000 0.000000
O O9 0.500000 0.500000 0.500000
O O10 0.275067 0.368538 0.648926
O O11 0.000000 0.511214 0.750000
#
# Coordination Sequence:
#
# PCOD9305410 Si02
#       5
#     8   4   8   8   8
#     4  11  24  44  74 103 144 193 245 301 365 439
#     4  12  26  44  78 104 152 190 248 306 372 440
#     4  12  26  46  75 108 149 198 248 302 378 443
#     4  12  29  49  77 111 152 197 248 309 373 443
#     4  11  26  48  70 108 150 186 246 307 364 438
#
# _framework density 25.457539000000001
#
# number of rings (size 3 to 8) (size 9 to 14) (size 15 to 20)
#    0.000    0.444    4.444    2.667    6.222    3.556 
#    0.000    0.000    0.000    0.000    0.000    0.000 
#    0.000    0.000    0.000    0.000    0.000    0.000 
#
# Total GULP energy -100287.426728 kJ/mol
# GULP energy per Si atom -5571.523707 kJ/mol
# Density = 2.539960 g / cm^3
# Si number density = 25.457539 Si / 1000 Ang^3
#
#
#
# Elastic Constant Matrix: (Units=GPa)
#
#
# Indices 1 2 3 4 5 6 
#
# 1 60.5660 -7.3828 10.4057 0.0018 2.8506 -0.0017
# 2 -7.3828 135.6424 26.0862 -0.0006 -28.6695 -0.0005
# 3 10.4057 26.0862 192.1081 0.0006 -25.4002 -0.0042
# 4 0.0018 -0.0006 0.0006 21.8971 -0.0021 0.6710
# 5 2.8506 -28.6695 -25.4002 -0.0021 31.6823 0.0031
# 6 -0.0017 -0.0005 -0.0042 0.6710 0.0031 8.2117
#
#
#
# Elastic Compliance Matrix: (Units=1/GPa)
#
#
# Indices 1 2 3 4 5 6 
#
# 1 0.016909 0.000776 -0.001263 -0.000002 -0.001832 0.000004
# 2 0.000776 0.009156 -0.000223 0.000001 0.008037 -0.000003
# 3 -0.001263 -0.000223 0.005920 0.000000 0.004658 0.000001
# 4 -0.000002 0.000001 0.000000 0.045783 0.000005 -0.003741
# 5 -0.001832 0.008037 0.004658 0.000005 0.042736 -0.000014
# 6 0.000004 -0.000003 0.000001 -0.003741 -0.000014 0.122083
#
#
# Mechanical properties :
#
#
# Convention : Reuss Voigt Hill
#
# Bulk Modulus (GPa) = 32.71746 49.61497 41.16621
# Shear Modulus (GPa) = 19.66991 36.30536 27.98764
#
# Velocity S-wave (km/s) = 2.78268 3.78049 3.31929
# Velocity P-wave (km/s) = 4.81707 6.21190 5.55841
#
# Compressibility (1/GPa) = 0.03056472
#
# Stress axis : x y z
#
# Youngs Moduli (GPa) = 59.14075 109.21669 168.91896
#
# Poissons Ratio (x) = -0.08476 0.21343
# Poissons Ratio (y) = -0.04590 0.03762
# Poissons Ratio (z) = 0.07472 0.02432
#
# Static dielectric constant tensor:
#      x y z
#    x 1.526990 -0.000010 0.115620 
#    y -0.000010 2.001890 0.000010 
#    z 0.115620 0.000010 2.076550 
# 
# From -- ./inp_files/231516.got.cif
#   From: 2010.05.17/outbox.cif.g08.bks.cpg/sg15_116_cif.got.tgz:231516.got - 2010.06.03 18:47:42.
