data_PCOD9305962
_publ_section_title
;
Structure prediction by ZEFSAII (Michael W. Deem and Ramdas Pophale) SiO2 
 PCOD9305962
Probable space group: C 2/C
;
_chemical_formula_sum "Si O2"
_cell_formula_units_Z 20
_cell_length_a 6.800933
_cell_length_b 13.577620
_cell_length_c 7.653536
_cell_angle_alpha 90.000000
_cell_angle_beta 69.192911
_cell_angle_gamma 90.000000
_cell_volume 660.639433
_symmetry_space_group_name_H-M "C 2/C"
_symmetry_group_IT_number 15
_symmetry_cell_setting 'monoclinic'
loop_
_space_group_symop_operation_xyz
x,y,z
-x,y,1/2-z
-x,-y,-z
x,-y,1/2+z
1/2+x,1/2+y,z
1/2-x,1/2+y,1/2-z
1/2-x,1/2-y,-z
1/2+x,1/2-y,1/2+z
loop_
_atom_site_type_symbol
_atom_site_label
_atom_site_fract_x
_atom_site_fract_y
_atom_site_fract_z
Si Si1 0.750000 0.250000 0.500000
Si Si2 0.844414 0.931207 0.656670
Si Si3 0.500000 0.918419 0.250000
Si Si4 0.000000 0.277290 0.750000
O O1 0.601968 0.153193 0.575788
O O2 0.607198 0.281956 0.371892
O O3 0.675102 0.010348 0.780353
O O4 0.000000 0.877376 0.750000
O O5 0.695194 0.847066 0.629908
O O6 0.000000 0.000000 0.500000
#
# Coordination Sequence:
#
# PCOD9305962 Si02
#       4
#     4   8   4   4
#     4  12  28  50  76 116 168 198 260 336 394 472
#     4  11  24  49  81 111 153 213 270 326 384 480
#     4  11  28  46  78 121 156 208 266 325 406 468
#     4  11  28  50  78 119 156 212 266 325 404 472
#
# _framework density 30.273702
#
# number of rings (size 3 to 8) (size 9 to 14) (size 15 to 20)
#    0.000    0.800    0.000    4.800   11.200    8.000 
#    0.000    0.000    0.000    0.000    0.000    0.000 
#    0.000    0.000    0.000    0.000    0.000    0.000 
#
# Total GULP energy -55747.149174 kJ/mol
# GULP energy per Si atom -5574.714917 kJ/mol
# Density = 3.020480 g / cm^3
# Si number density = 30.273702 Si / 1000 Ang^3
#
#
#
# Elastic Constant Matrix: (Units=GPa)
#
#
# Indices 1 2 3 4 5 6 
#
# 1 322.4993 72.1806 81.6930 0.0000 41.3329 0.0000
# 2 72.1806 151.0999 35.0869 0.0000 -4.8262 0.0000
# 3 81.6930 35.0869 76.3137 0.0000 7.5333 0.0000
# 4 0.0000 0.0000 0.0000 50.0324 0.0000 10.0151
# 5 41.3329 -4.8262 7.5333 0.0000 86.9315 0.0000
# 6 0.0000 0.0000 0.0000 10.0151 0.0000 87.2542
#
#
#
# Elastic Compliance Matrix: (Units=1/GPa)
#
#
# Indices 1 2 3 4 5 6 
#
# 1 0.004727 -0.001332 -0.004255 0.000000 -0.001953 0.000000
# 2 -0.001332 0.007829 -0.002298 0.000000 0.001267 0.000000
# 3 -0.004255 -0.002298 0.018688 0.000000 0.000276 0.000000
# 4 0.000000 0.000000 0.000000 0.020457 0.000000 -0.002348
# 5 -0.001953 0.001267 0.000276 0.000000 0.012478 0.000000
# 6 0.000000 0.000000 0.000000 -0.002348 0.000000 0.011730
#
#
# Mechanical properties :
#
#
# Convention : Reuss Voigt Hill
#
# Bulk Modulus (GPa) = 64.62942 103.09267 83.86105
# Shear Modulus (GPa) = 51.63247 68.90710 60.26979
#
# Velocity S-wave (km/s) = 4.13428 4.77606 4.46671
# Velocity P-wave (km/s) = 6.64713 8.03379 7.37313
#
# Compressibility (1/GPa) = 0.01547283
#
# Stress axis : x y z
#
# Youngs Moduli (GPa) = 211.54526 127.73340 53.51021
#
# Poissons Ratio (x) = 0.17020 0.22768
# Poissons Ratio (y) = 0.28188 0.12297
# Poissons Ratio (z) = 0.90011 0.29355
#
# Static dielectric constant tensor:
#      x y z
#    x 2.131140 0.000000 0.075120 
#    y 0.000000 2.418450 0.000000 
#    z 0.075120 0.000000 1.960090 
# 
# From -- ./inp_files/18992.got.cif
#   From: 2010.05.17/outbox.cif.g08.bks.cpg/sg15_10_cif.got.tgz:18992.got - 2010.06.03 18:47:42.
