data_PCOD9305964
_publ_section_title
;
Structure prediction by ZEFSAII (Michael W. Deem and Ramdas Pophale) SiO2 
 PCOD9305964
Probable space group: C 2/C
;
_chemical_formula_sum "Si O2"
_cell_formula_units_Z 40
_cell_length_a 10.802378
_cell_length_b 21.059770
_cell_length_c 10.805713
_cell_angle_alpha 90.000000
_cell_angle_beta 140.830367
_cell_angle_gamma 90.000000
_cell_volume 1552.677493
_symmetry_space_group_name_H-M "C 2/C"
_symmetry_group_IT_number 15
_symmetry_cell_setting 'monoclinic'
loop_
_space_group_symop_operation_xyz
x,y,z
-x,y,1/2-z
-x,-y,-z
x,-y,1/2+z
1/2+x,1/2+y,z
1/2-x,1/2+y,1/2-z
1/2-x,1/2-y,-z
1/2+x,1/2-y,1/2+z
loop_
_atom_site_type_symbol
_atom_site_label
_atom_site_fract_x
_atom_site_fract_y
_atom_site_fract_z
Si Si1 0.294654 0.068109 0.025224
Si Si2 0.658761 0.699229 0.032619
Si Si3 0.734764 0.072826 0.963635
Si Si4 0.243498 0.648360 0.741208
Si Si5 0.694270 0.802577 0.568949
O O1 0.500000 0.060068 0.250000
O O2 0.231482 0.127443 0.410858
O O3 0.202840 0.998330 0.958093
O O4 0.316243 0.096597 0.906281
O O5 0.922609 0.804985 0.347926
O O6 0.731879 0.702489 0.231661
O O7 0.750000 0.750000 0.000000
O O8 0.701544 0.627931 0.020745
O O9 0.500000 0.072313 0.750000
O O10 0.824681 0.104707 0.913083
O O11 0.043029 0.686961 0.614786
O O12 0.750000 0.750000 0.500000
#
# Coordination Sequence:
#
# PCOD9305964 Si02
#       5
#     8   8   8   8   8
#     4  11  24  49  84 119 163 221 274 345 424 500
#     4  12  30  52  82 124 169 224 285 345 419 503
#     4   9  24  48  83 118 163 217 276 341 422 500
#     4  11  26  53  83 120 172 216 281 354 420 500
#     4  11  27  55  83 121 172 226 282 344 423 501
#
# _framework density 25.761951
#
# number of rings (size 3 to 8) (size 9 to 14) (size 15 to 20)
#    0.000    1.200    2.000    0.600    5.600    8.800 
#   10.800    0.000    0.000    0.000    0.000    0.000 
#    0.000    0.000    0.000    0.000    0.000    0.000 
#
# Total GULP energy -111616.695367 kJ/mol
# GULP energy per Si atom -5580.834768 kJ/mol
# Density = 2.570332 g / cm^3
# Si number density = 25.761951 Si / 1000 Ang^3
#
#
#
# Elastic Constant Matrix: (Units=GPa)
#
#
# Indices 1 2 3 4 5 6 
#
# 1 150.4312 93.9251 76.7311 0.0000 -0.3139 0.0000
# 2 93.9251 302.5190 93.6081 0.0000 -30.9140 0.0000
# 3 76.7311 93.6081 166.7858 0.0000 -25.7987 0.0000
# 4 0.0000 0.0000 0.0000 12.6428 0.0000 15.1490
# 5 -0.3139 -30.9140 -25.7987 0.0000 51.9861 0.0000
# 6 0.0000 0.0000 0.0000 15.1490 0.0000 8.8620
#
#
#
# Elastic Compliance Matrix: (Units=1/GPa)
#
#
# Indices 1 2 3 4 5 6 
#
# 1 0.009995 -0.002242 -0.003831 0.000000 -0.003174 0.000000
# 2 -0.002242 0.004595 -0.001221 0.000000 0.002113 0.000000
# 3 -0.003831 -0.001221 0.009020 0.000000 0.003727 0.000000
# 4 0.000000 0.000000 0.000000 -0.075453 0.000000 0.128981
# 5 -0.003174 0.002113 0.003727 0.000000 0.022323 0.000000
# 6 0.000000 0.000000 0.000000 0.128981 0.000000 -0.107644
#
#
# Mechanical properties :
#
#
# Convention : Reuss Voigt Hill
#
# Bulk Modulus (GPa) = 110.83203 127.58494 119.20849
# Shear Modulus (GPa) = -41.81711 38.39630 -1.71041
#
# Velocity S-wave (km/s) = -4.03328 3.86479 -0.81570
# Velocity P-wave (km/s) = 4.62873 8.33952 6.74436
#
# Compressibility (1/GPa) = 0.00902266
#
# Stress axis : x y z
#
# Youngs Moduli (GPa) = 100.05145 217.60837 110.86808
#
# Poissons Ratio (x) = 0.48792 0.42471
# Poissons Ratio (y) = 0.22433 0.13534
# Poissons Ratio (z) = 0.38327 0.26564
#
# Static dielectric constant tensor:
#      x y z
#    x 2.203450 0.000000 -0.110960 
#    y 0.000000 2.122490 0.000000 
#    z -0.110960 0.000000 2.153760 
# 
# From -- ./inp_files/41851.got.cif
#   From: 2010.05.17/outbox.cif.g08.bks.cpg/sg15_21_cif.got.tgz:41851.got - 2010.06.03 18:47:42.
