data_PCOD9305051
_publ_section_title
;
Structure prediction by ZEFSAII (Michael W. Deem and Ramdas Pophale) SiO2 
 PCOD9305051
Probable space group: C 2/C
;
_chemical_formula_sum "Si O2"
_cell_formula_units_Z 36
_cell_length_a 16.354886
_cell_length_b 14.371118
_cell_length_c 8.651086
_cell_angle_alpha 90.000000
_cell_angle_beta 131.455986
_cell_angle_gamma 90.000000
_cell_volume 1523.911626
_symmetry_space_group_name_H-M "C 2/C"
_symmetry_group_IT_number 15
_symmetry_cell_setting 'monoclinic'
loop_
_space_group_symop_operation_xyz
x,y,z
-x,y,1/2-z
-x,-y,-z
x,-y,1/2+z
1/2+x,1/2+y,z
1/2-x,1/2+y,1/2-z
1/2-x,1/2-y,-z
1/2+x,1/2-y,1/2+z
loop_
_atom_site_type_symbol
_atom_site_label
_atom_site_fract_x
_atom_site_fract_y
_atom_site_fract_z
Si Si1 0.127083 0.902457 0.625276
Si Si2 0.435099 0.921451 0.823455
Si Si3 0.176988 0.740917 0.148286
Si Si4 0.000000 0.838827 0.750000
Si Si5 0.201224 0.081606 0.891678
O O1 0.218138 0.821470 0.757674
O O2 0.116359 0.908118 0.426684
O O3 0.027035 0.886823 0.618403
O O4 0.174525 0.000218 0.741066
O O5 0.500000 0.899842 0.750000
O O6 0.413171 0.828545 0.892151
O O7 0.314119 0.948599 0.615672
O O8 0.500000 0.000000 0.000000
O O9 0.210606 0.821517 0.311308
O O10 0.111915 0.785134 0.925392
#
# Coordination Sequence:
#
# PCOD9305051 Si02
#       5
#     8   8   8   4   8
#     4  11  25  47  70 102 145 187 247 296 369 431
#     4  11  24  41  72 106 141 189 241 294 365 432
#     4  11  27  45  71 108 148 188 244 310 365 430
#     4  12  28  42  74 102 142 200 248 300 356 454
#     4  11  25  47  73 103 152 188 234 316 363 430
#
# _framework density 23.623417
#
# number of rings (size 3 to 8) (size 9 to 14) (size 15 to 20)
#    0.000    0.889    0.000    7.333   10.889    3.556 
#    0.000    0.000    0.000    0.000    0.000    0.000 
#    0.000    0.000    0.000    0.000    0.000    0.000 
#
# Total GULP energy -100660.244003 kJ/mol
# GULP energy per Si atom -5592.235778 kJ/mol
# Density = 2.356965 g / cm^3
# Si number density = 23.623417 Si / 1000 Ang^3
#
#
#
# Elastic Constant Matrix: (Units=GPa)
#
#
# Indices 1 2 3 4 5 6 
#
# 1 179.7739 56.7771 40.0024 0.0000 -24.4658 0.0000
# 2 56.7771 155.3213 60.3658 0.0000 -9.5439 0.0000
# 3 40.0024 60.3658 110.4680 0.0000 13.5456 0.0000
# 4 0.0000 0.0000 0.0000 2518.7246 0.0000 -296.0693
# 5 -24.4658 -9.5439 13.5456 0.0000 48.1825 0.0000
# 6 0.0000 0.0000 0.0000 -296.0693 0.0000 60.1369
#
#
#
# Elastic Compliance Matrix: (Units=1/GPa)
#
#
# Indices 1 2 3 4 5 6 
#
# 1 0.007057 -0.001471 -0.002232 0.000000 0.003920 0.000000
# 2 -0.001471 0.008915 -0.004623 0.000000 0.002319 0.000000
# 3 -0.002232 -0.004623 0.013090 0.000000 -0.005729 0.000000
# 4 0.000000 0.000000 0.000000 0.000942 0.000000 0.004640
# 5 0.003920 0.002319 -0.005729 0.000000 0.024815 0.000000
# 6 0.000000 0.000000 0.000000 0.004640 0.000000 0.039472
#
#
# Mechanical properties :
#
#
# Convention : Reuss Voigt Hill
#
# Bulk Modulus (GPa) = 80.58925 84.42821 82.50873
# Shear Modulus (GPa) = 43.44757 544.63666 294.04211
#
# Velocity S-wave (km/s) = 4.29321 15.20033 11.16874
# Velocity P-wave (km/s) = 7.66575 18.54409 14.18885
#
# Compressibility (1/GPa) = 0.01240860
#
# Stress axis : x y z
#
# Youngs Moduli (GPa) = 141.69578 112.16430 76.39605
#
# Poissons Ratio (x) = 0.16504 0.17053
# Poissons Ratio (y) = 0.20849 0.35321
# Poissons Ratio (z) = 0.31629 0.51858
#
# Static dielectric constant tensor:
#      x y z
#    x 1.972750 0.000000 0.080700 
#    y 0.000000 1.889650 0.000000 
#    z 0.080700 0.000000 2.072310 
# 
# From -- ./inp_files/47333.got.cif
#   From: 2010.05.17/outbox.cif.g08.bks.cpg/sg15_24_cif.got.tgz:47333.got - 2010.06.03 18:47:42.
