data_PCOD9305392
_publ_section_title
;
Structure prediction by ZEFSAII (Michael W. Deem and Ramdas Pophale) SiO2 
 PCOD9305392
Probable space group: C 2/C
;
_chemical_formula_sum "Si O2"
_cell_formula_units_Z 48
_cell_length_a 21.925020
_cell_length_b 10.990327
_cell_length_c 12.891830
_cell_angle_alpha 90.000000
_cell_angle_beta 34.993273
_cell_angle_gamma 90.000000
_cell_volume 1781.491087
_symmetry_space_group_name_H-M "C 2/C"
_symmetry_group_IT_number 15
_symmetry_cell_setting 'monoclinic'
loop_
_space_group_symop_operation_xyz
x,y,z
-x,y,1/2-z
-x,-y,-z
x,-y,1/2+z
1/2+x,1/2+y,z
1/2-x,1/2+y,1/2-z
1/2-x,1/2-y,-z
1/2+x,1/2-y,1/2+z
loop_
_atom_site_type_symbol
_atom_site_label
_atom_site_fract_x
_atom_site_fract_y
_atom_site_fract_z
Si Si1 0.261805 0.651534 0.389625
Si Si2 0.998276 0.681194 0.058954
Si Si3 0.879500 0.988245 0.953747
Si Si4 0.684197 0.749876 0.416027
Si Si5 0.374151 0.585560 0.700201
Si Si6 0.859613 0.543117 0.795204
O O1 0.250000 0.750000 0.500000
O O2 0.257670 0.552049 0.593844
O O3 0.271391 0.701073 0.259239
O O4 0.155843 0.574690 0.562477
O O5 0.968078 0.822884 0.098663
O O6 0.902002 0.590762 0.212334
O O7 0.086227 0.664734 0.023819
O O8 0.057930 0.637339 0.871524
O O9 0.000000 0.954709 0.750000
O O10 0.883995 0.947626 0.066697
O O11 0.863493 0.133166 0.960260
O O12 0.771672 0.827576 0.352396
O O13 0.353139 0.452828 0.779433
#
# Coordination Sequence:
#
# PCOD9305392 Si02
#       6
#     8   8   8   8   8   8
#     4  11  24  44  73 103 147 187 247 302 369 446
#     4  11  24  44  74  99 148 190 249 302 380 427
#     4  11  25  42  70 103 150 185 250 303 373 440
#     4  11  24  47  69 105 146 187 246 304 363 452
#     4  11  25  44  73 106 147 197 243 309 379 444
#     4  11  24  45  70 103 145 195 242 309 369 447
#
# _framework density 26.943721
#
# number of rings (size 3 to 8) (size 9 to 14) (size 15 to 20)
#    0.000    1.000    5.000    0.000    4.667    4.667 
#    0.000    1.667    0.000    0.000    0.000    0.000 
#    0.000    0.000    0.000    0.000    0.000    0.000 
#
# Total GULP energy -134104.363820 kJ/mol
# GULP energy per Si atom -5587.681826 kJ/mol
# Density = 2.688240 g / cm^3
# Si number density = 26.943721 Si / 1000 Ang^3
#
#
#
# Elastic Constant Matrix: (Units=GPa)
#
#
# Indices 1 2 3 4 5 6 
#
# 1 71.6272 35.8152 42.1385 0.0000 -25.3460 0.0000
# 2 35.8152 153.0127 51.3402 0.0000 -3.8558 0.0000
# 3 42.1385 51.3402 168.3760 0.0000 -3.7707 0.0000
# 4 0.0000 0.0000 0.0000 25.9161 0.0000 -5.5372
# 5 -25.3460 -3.8558 -3.7707 0.0000 35.8117 0.0000
# 6 0.0000 0.0000 0.0000 -5.5372 0.0000 40.4665
#
#
#
# Elastic Compliance Matrix: (Units=1/GPa)
#
#
# Indices 1 2 3 4 5 6 
#
# 1 0.024294 -0.003741 -0.004574 0.000000 0.016310 0.000000
# 2 -0.003741 0.007867 -0.001506 0.000000 -0.001959 0.000000
# 3 -0.004574 -0.001506 0.007485 0.000000 -0.002611 0.000000
# 4 0.000000 0.000000 0.000000 0.039748 0.000000 0.005439
# 5 0.016310 -0.001959 -0.002611 0.000000 0.038981 0.000000
# 6 0.000000 0.000000 0.000000 0.005439 0.000000 0.025456
#
#
# Mechanical properties :
#
#
# Convention : Reuss Voigt Hill
#
# Bulk Modulus (GPa) = 49.99197 72.40040 61.19619
# Shear Modulus (GPa) = 29.38729 38.02030 33.70380
#
# Velocity S-wave (km/s) = 3.30614 3.76054 3.54064
# Velocity P-wave (km/s) = 5.75922 6.76645 6.28305
#
# Compressibility (1/GPa) = 0.02000321
#
# Stress axis : x y z
#
# Youngs Moduli (GPa) = 41.16252 127.11194 133.60624
#
# Poissons Ratio (x) = 0.47549 0.61112
# Poissons Ratio (y) = 0.15398 0.20128
# Poissons Ratio (z) = 0.18828 0.19149
#
# Static dielectric constant tensor:
#      x y z
#    x 2.185960 0.000000 0.070270 
#    y 0.000000 2.233190 0.000000 
#    z 0.070270 0.000000 2.143390 
# 
# From -- ./inp_files/177755.got.cif
#   From: 2010.05.17/outbox.cif.g08.bks.cpg/sg15_89_cif.got.tgz:177755.got - 2010.06.03 18:47:42.
