data_PCOD9305830
_publ_section_title
;
Structure prediction by ZEFSAII (Michael W. Deem and Ramdas Pophale) SiO2 
 PCOD9305830
Probable space group: C 2/C
;
_chemical_formula_sum "Si O2"
_cell_formula_units_Z 32
_cell_length_a 25.158140
_cell_length_b 5.269939
_cell_length_c 24.301711
_cell_angle_alpha 90.000000
_cell_angle_beta 157.548318
_cell_angle_gamma 90.000000
_cell_volume 1230.482334
_symmetry_space_group_name_H-M "C 2/C"
_symmetry_group_IT_number 15
_symmetry_cell_setting 'monoclinic'
loop_
_space_group_symop_operation_xyz
x,y,z
-x,y,1/2-z
-x,-y,-z
x,-y,1/2+z
1/2+x,1/2+y,z
1/2-x,1/2+y,1/2-z
1/2-x,1/2-y,-z
1/2+x,1/2-y,1/2+z
loop_
_atom_site_type_symbol
_atom_site_label
_atom_site_fract_x
_atom_site_fract_y
_atom_site_fract_z
Si Si1 0.761833 0.734431 0.604739
Si Si2 0.846504 0.269484 0.841039
Si Si3 0.006290 0.951774 0.914625
Si Si4 0.134570 0.550304 0.398807
O O1 0.876347 0.835314 0.756601
O O2 0.653368 0.522925 0.522989
O O3 0.847291 0.659099 0.631867
O O4 0.651901 0.939305 0.475765
O O5 0.763296 0.532545 0.761742
O O6 0.943996 0.206966 0.881983
O O7 0.944502 0.229315 0.987977
O O8 0.250000 0.750000 0.500000
O O9 0.000000 0.694262 0.250000
#
# Coordination Sequence:
#
# PCOD9305830 Si02
#       4
#     8   8   8   8
#     4  11  24  50  70 104 148 194 248 311 386 456
#     4  11  26  51  76 111 154 203 260 317 372 451
#     4  11  24  47  76 106 146 205 246 316 378 452
#     4  11  26  44  73 105 145 187 248 312 382 465
#
# _framework density 26.006062
#
# number of rings (size 3 to 8) (size 9 to 14) (size 15 to 20)
#    0.000    1.000    5.000    0.000    3.500    6.000 
#    9.000    0.000    0.000    0.000    0.000    0.000 
#    0.000    0.000    0.000    0.000    0.000    0.000 
#
# Total GULP energy -89491.202283 kJ/mol
# GULP energy per Si atom -5593.200143 kJ/mol
# Density = 2.594687 g / cm^3
# Si number density = 26.006062 Si / 1000 Ang^3
#
#
#
# Elastic Constant Matrix: (Units=GPa)
#
#
# Indices 1 2 3 4 5 6 
#
# 1 95.8426 9.6082 39.6613 -0.0084 -1.0632 -0.0025
# 2 9.6082 85.8607 35.5015 -0.0397 -7.0357 -0.0144
# 3 39.6613 35.5015 241.7963 -0.0262 -16.3261 -0.0098
# 4 -0.0084 -0.0397 -0.0262 33.2599 -0.0022 15.0072
# 5 -1.0632 -7.0357 -16.3261 -0.0022 51.1172 0.0000
# 6 -0.0025 -0.0144 -0.0098 15.0072 0.0000 22.8474
#
#
#
# Elastic Compliance Matrix: (Units=1/GPa)
#
#
# Indices 1 2 3 4 5 6 
#
# 1 0.011224 -0.000551 -0.001788 0.000001 -0.000413 -0.000001
# 2 -0.000551 0.012493 -0.001665 0.000015 0.001176 -0.000003
# 3 -0.001788 -0.001665 0.004758 0.000001 0.001253 0.000000
# 4 0.000001 0.000015 0.000001 0.042731 0.000004 -0.028067
# 5 -0.000413 0.001176 0.001253 0.000004 0.020117 -0.000002
# 6 -0.000001 -0.000003 0.000000 -0.028067 -0.000002 0.062204
#
#
# Mechanical properties :
#
#
# Convention : Reuss Voigt Hill
#
# Bulk Modulus (GPa) = 48.85461 65.89350 57.37406
# Shear Modulus (GPa) = 29.69891 44.02681 36.86286
#
# Velocity S-wave (km/s) = 3.38301 4.11900 3.76902
# Velocity P-wave (km/s) = 5.83835 6.92924 6.40705
#
# Compressibility (1/GPa) = 0.02046890
#
# Stress axis : x y z
#
# Youngs Moduli (GPa) = 89.09187 80.04456 210.17037
#
# Poissons Ratio (x) = 0.04407 0.37582
# Poissons Ratio (y) = 0.04905 0.34984
# Poissons Ratio (z) = 0.15931 0.13324
#
# Static dielectric constant tensor:
#      x y z
#    x 2.302930 0.000000 -0.012480 
#    y 0.000000 2.072950 0.000000 
#    z -0.012480 0.000000 2.188920 
# 
# From -- ./inp_files/303982.got.cif
#   From: 2010.05.17/outbox.cif.g08.bks.cpg/sg15_152_cif.got.tgz:303982.got - 2010.06.03 18:47:42.
