data_PCOD9305668
_publ_section_title
;
Structure prediction by ZEFSAII (Michael W. Deem and Ramdas Pophale) SiO2 
 PCOD9305668
Probable space group: C 2/C
;
_chemical_formula_sum "Si O2"
_cell_formula_units_Z 56
_cell_length_a 18.594914
_cell_length_b 8.560230
_cell_length_c 25.933209
_cell_angle_alpha 90.000000
_cell_angle_beta 145.967850
_cell_angle_gamma 90.000000
_cell_volume 2310.247931
_symmetry_space_group_name_H-M "C 2/C"
_symmetry_group_IT_number 15
_symmetry_cell_setting 'monoclinic'
loop_
_space_group_symop_operation_xyz
x,y,z
-x,y,1/2-z
-x,-y,-z
x,-y,1/2+z
1/2+x,1/2+y,z
1/2-x,1/2+y,1/2-z
1/2-x,1/2-y,-z
1/2+x,1/2-y,1/2+z
loop_
_atom_site_type_symbol
_atom_site_label
_atom_site_fract_x
_atom_site_fract_y
_atom_site_fract_z
Si Si1 0.288883 0.569459 0.640687
Si Si2 0.713647 0.907898 0.261654
Si Si3 0.775420 0.894738 0.476939
Si Si4 0.856599 0.727022 0.426262
Si Si5 0.529740 0.576987 0.849584
Si Si6 0.516951 0.076696 0.321662
Si Si7 0.350965 0.281325 0.875285
O O1 0.171114 0.450414 0.573870
O O2 0.401094 0.513013 0.746522
O O3 0.357731 0.574048 0.626780
O O4 0.239529 0.737157 0.630152
O O5 0.794639 0.767446 0.334966
O O6 0.673107 0.855232 0.180835
O O7 0.585237 0.953375 0.216945
O O8 0.805612 0.057711 0.323111
O O9 0.750000 0.750000 0.500000
O O10 0.778384 0.830101 0.421137
O O11 0.911717 0.975185 0.570324
O O12 0.659580 0.013855 0.415022
O O13 0.003674 0.774974 0.519286
O O14 0.502322 0.759008 0.842850
O O15 0.500000 0.102412 0.250000
#
# Coordination Sequence:
#
# PCOD9305668 Si02
#       7
#     8   8   8   8   8   8   8
#     4  11  24  46  73 101 139 186 236 292 355 416
#     4  12  27  48  75 102 143 197 238 295 358 424
#     4  12  26  42  70 111 142 182 233 296 362 426
#     4  12  27  45  71 108 146 185 237 296 355 433
#     4  11  24  46  74 102 142 183 236 296 357 420
#     4  12  23  47  72 104 141 183 237 297 355 423
#     4  12  27  50  71 104 145 192 244 289 357 430
#
# _framework density 24.239823999999999
#
# number of rings (size 3 to 8) (size 9 to 14) (size 15 to 20)
#    0.000    0.286    5.714    3.000    6.000    0.000 
#    0.000    0.000    0.000    0.000    0.000    0.000 
#    0.000    0.000    0.000    0.000    0.000    0.000 
#
# Total GULP energy -156981.683879 kJ/mol
# GULP energy per Si atom -5606.488710 kJ/mol
# Density = 2.418465 g / cm^3
# Si number density = 24.239824 Si / 1000 Ang^3
#
#
#
# Elastic Constant Matrix: (Units=GPa)
#
#
# Indices 1 2 3 4 5 6 
#
# 1 63.3437 -9.6713 6.4566 0.0000 10.5765 0.0000
# 2 -9.6713 56.0743 -7.4042 0.0000 -0.0744 0.0000
# 3 6.4566 -7.4042 89.1842 0.0000 10.0760 0.0000
# 4 0.0000 0.0000 0.0000 45.5397 0.0000 3.4730
# 5 10.5765 -0.0744 10.0760 0.0000 34.9205 0.0000
# 6 0.0000 0.0000 0.0000 3.4730 0.0000 25.1495
#
#
#
# Elastic Compliance Matrix: (Units=1/GPa)
#
#
# Indices 1 2 3 4 5 6 
#
# 1 0.017115 0.002889 -0.000428 0.000000 -0.005054 0.000000
# 2 0.002889 0.018524 0.001471 0.000000 -0.001260 0.000000
# 3 -0.000428 0.001471 0.011733 0.000000 -0.003253 0.000000
# 4 0.000000 0.000000 0.000000 0.022193 0.000000 -0.003065
# 5 -0.005054 -0.001260 -0.003253 0.000000 0.031103 0.000000
# 6 0.000000 0.000000 0.000000 -0.003065 0.000000 0.040185
#
#
# Mechanical properties :
#
#
# Convention : Reuss Voigt Hill
#
# Bulk Modulus (GPa) = 18.10401 20.81824 19.46112
# Shear Modulus (GPa) = 33.02439 35.73667 34.38053
#
# Velocity S-wave (km/s) = 3.69508 3.84382 3.77018
# Velocity P-wave (km/s) = 5.06850 5.32044 5.19600
#
# Compressibility (1/GPa) = 0.05523639
#
# Stress axis : x y z
#
# Youngs Moduli (GPa) = 58.42662 53.98313 85.22687
#
# Poissons Ratio (x) = -0.15594 0.03650
# Poissons Ratio (y) = -0.16878 -0.12538
# Poissons Ratio (z) = 0.02502 -0.07942
#
# Static dielectric constant tensor:
#      x y z
#    x 1.918950 0.000000 -0.007520 
#    y 0.000000 1.931470 0.000000 
#    z -0.007520 0.000000 1.881020 
# 
# From -- ./inp_files/317568.got.cif
#   From: 2010.05.17/outbox.cif.g08.bks.cpg/sg15_159_cif.got.tgz:317568.got - 2010.06.03 18:47:42.
