data_PCOD9305346
_publ_section_title
;
Structure prediction by ZEFSAII (Michael W. Deem and Ramdas Pophale) SiO2 
 PCOD9305346
Probable space group: C 2/C
;
_chemical_formula_sum "Si O2"
_cell_formula_units_Z 48
_cell_length_a 22.214909
_cell_length_b 13.253635
_cell_length_c 18.194097
_cell_angle_alpha 90.000000
_cell_angle_beta 23.970097
_cell_angle_gamma 90.000000
_cell_volume 2176.275656
_symmetry_space_group_name_H-M "C 2/C"
_symmetry_group_IT_number 15
_symmetry_cell_setting 'monoclinic'
loop_
_space_group_symop_operation_xyz
x,y,z
-x,y,1/2-z
-x,-y,-z
x,-y,1/2+z
1/2+x,1/2+y,z
1/2-x,1/2+y,1/2-z
1/2-x,1/2-y,-z
1/2+x,1/2-y,1/2+z
loop_
_atom_site_type_symbol
_atom_site_label
_atom_site_fract_x
_atom_site_fract_y
_atom_site_fract_z
Si Si1 0.676021 0.512603 0.882892
Si Si2 0.450469 0.159022 0.586527
Si Si3 0.584507 0.925486 0.082769
Si Si4 0.360013 0.663060 0.958646
Si Si5 0.376914 0.617811 0.202734
Si Si6 0.026388 0.351572 0.836320
O O1 0.829825 0.570475 0.717175
O O2 0.663400 0.457570 0.818785
O O3 0.650927 0.428335 0.971846
O O4 0.544722 0.593212 0.036159
O O5 0.543244 0.138502 0.556439
O O6 0.372451 0.267115 0.681680
O O7 0.538693 0.155692 0.411259
O O8 0.500000 0.892292 0.250000
O O9 0.534621 0.040080 0.120773
O O10 0.759780 0.910330 0.896182
O O11 0.500000 0.641324 0.750000
O O12 0.409153 0.766789 0.943025
O O13 0.189667 0.669013 0.120198
#
# Coordination Sequence:
#
# PCOD9305346 Si02
#       6
#     8   8   8   8   8   8
#     4  11  24  44  70 106 141 184 234 289 345 416
#     4  12  24  47  74 103 140 185 240 284 345 416
#     4  12  27  45  68 102 144 186 231 290 349 411
#     4  12  27  44  71 105 144 181 227 292 361 416
#     4  11  25  42  73 103 139 185 237 287 339 418
#     4  12  26  45  75 104 140 182 234 290 353 423
#
# _framework density 22.056031000000001
#
# number of rings (size 3 to 8) (size 9 to 14) (size 15 to 20)
#    0.000    0.333    5.000    3.500    7.000    0.667 
#    0.000    1.667    0.000    0.000    0.000    0.000 
#    0.000    0.000    0.000    0.000    0.000    0.000 
#
# Total GULP energy -134365.242743 kJ/mol
# GULP energy per Si atom -5598.551781 kJ/mol
# Density = 2.200583 g / cm^3
# Si number density = 22.056031 Si / 1000 Ang^3
#
#
#
# Elastic Constant Matrix: (Units=GPa)
#
#
# Indices 1 2 3 4 5 6 
#
# 1 37.3169 -3.6661 17.6319 -0.0001 6.3452 0.0000
# 2 -3.6661 64.8503 49.0953 -0.0001 -5.9814 0.0000
# 3 17.6319 49.0953 149.3699 -0.0001 14.1231 0.0000
# 4 -0.0001 -0.0001 -0.0001 36.5598 0.0001 -2.3594
# 5 6.3452 -5.9814 14.1231 0.0001 37.0156 0.0000
# 6 0.0000 0.0000 0.0000 -2.3594 0.0000 19.7266
#
#
#
# Elastic Compliance Matrix: (Units=1/GPa)
#
#
# Indices 1 2 3 4 5 6 
#
# 1 0.030127 0.005336 -0.005087 0.000000 -0.002361 0.000000
# 2 0.005336 0.022899 -0.008735 0.000000 0.006118 0.000000
# 3 -0.005087 -0.008735 0.010600 0.000000 -0.004584 0.000000
# 4 0.000000 0.000000 0.000000 0.027565 0.000000 0.003297
# 5 -0.002361 0.006118 -0.004584 0.000000 0.030158 0.000000
# 6 0.000000 0.000000 0.000000 0.003297 0.000000 0.051087
#
#
# Mechanical properties :
#
#
# Convention : Reuss Voigt Hill
#
# Bulk Modulus (GPa) = 21.43410 41.96213 31.69811
# Shear Modulus (GPa) = 24.39523 31.22547 27.81035
#
# Velocity S-wave (km/s) = 3.32935 3.76671 3.55476
# Velocity P-wave (km/s) = 4.95162 6.16311 5.59028
#
# Compressibility (1/GPa) = 0.04665463
#
# Stress axis : x y z
#
# Youngs Moduli (GPa) = 33.19300 43.67019 94.34255
#
# Poissons Ratio (x) = -0.23305 0.47992
# Poissons Ratio (y) = -0.17713 0.82407
# Poissons Ratio (z) = 0.16885 0.38145
#
# Static dielectric constant tensor:
#      x y z
#    x 1.846290 0.000000 -0.019520 
#    y 0.000000 1.762680 0.000000 
#    z -0.019520 0.000000 1.818150 
# 
# From -- ./inp_files/257580.got.cif
#   From: 2010.05.17/outbox.cif.g08.bks.cpg/sg15_129_cif.got.tgz:257580.got - 2010.06.03 18:47:42.
