data_PCOD9305697
_publ_section_title
;
Structure prediction by ZEFSAII (Michael W. Deem and Ramdas Pophale) SiO2 
 PCOD9305697
Probable space group: C 2/C
;
_chemical_formula_sum "Si O2"
_cell_formula_units_Z 40
_cell_length_a 11.088338
_cell_length_b 11.446430
_cell_length_c 20.288597
_cell_angle_alpha 90.000000
_cell_angle_beta 39.394080
_cell_angle_gamma 90.000000
_cell_volume 1634.267973
_symmetry_space_group_name_H-M "C 2/C"
_symmetry_group_IT_number 15
_symmetry_cell_setting 'monoclinic'
loop_
_space_group_symop_operation_xyz
x,y,z
-x,y,1/2-z
-x,-y,-z
x,-y,1/2+z
1/2+x,1/2+y,z
1/2-x,1/2+y,1/2-z
1/2-x,1/2-y,-z
1/2+x,1/2-y,1/2+z
loop_
_atom_site_type_symbol
_atom_site_label
_atom_site_fract_x
_atom_site_fract_y
_atom_site_fract_z
Si Si1 0.361696 0.116836 0.925605
Si Si2 0.632819 0.083595 0.297387
Si Si3 0.801545 0.962074 0.863974
Si Si4 0.165532 0.231548 0.607711
Si Si5 0.042295 0.165906 0.412926
O O1 0.493913 0.228626 0.882513
O O2 0.483284 0.015595 0.842274
O O3 0.163627 0.134035 0.971593
O O4 0.282609 0.088002 0.032750
O O5 0.539237 0.204835 0.312081
O O6 0.839892 0.069904 0.177660
O O7 0.655653 0.066623 0.366423
O O8 0.835602 0.098509 0.866823
O O9 0.000000 0.915409 0.750000
O O10 0.250000 0.250000 0.500000
O O11 0.315686 0.295645 0.590779
#
# Coordination Sequence:
#
# PCOD9305697 Si02
#       5
#     8   8   8   8   8
#     4  11  24  46  74 107 154 197 247 326 389 451
#     4  12  24  44  77 109 148 202 251 317 388 460
#     4  12  23  47  77 108 148 201 255 317 389 458
#     4  12  25  45  75 109 151 201 257 318 382 464
#     4  11  25  45  73 109 151 194 261 316 381 473
#
# _framework density 24.475788000000001
#
# number of rings (size 3 to 8) (size 9 to 14) (size 15 to 20)
#    0.000    0.400    6.000    3.600    0.000    0.800 
#    0.000    0.000   17.600    0.000    0.000    0.000 
#    0.000    0.000    0.000    0.000    0.000    0.000 
#
# Total GULP energy -111896.734717 kJ/mol
# GULP energy per Si atom -5594.836736 kJ/mol
# Density = 2.442008 g / cm^3
# Si number density = 24.475788 Si / 1000 Ang^3
#
#
#
# Elastic Constant Matrix: (Units=GPa)
#
#
# Indices 1 2 3 4 5 6 
#
# 1 122.5767 35.2310 38.5475 0.0000 -6.3084 0.0000
# 2 35.2310 92.7358 22.7141 0.0000 -6.8198 0.0000
# 3 38.5475 22.7141 112.0339 0.0000 -16.7261 0.0000
# 4 0.0000 0.0000 0.0000 31.9101 0.0000 -3.5196
# 5 -6.3084 -6.8198 -16.7261 0.0000 41.8053 0.0000
# 6 0.0000 0.0000 0.0000 -3.5196 0.0000 30.7872
#
#
#
# Elastic Compliance Matrix: (Units=1/GPa)
#
#
# Indices 1 2 3 4 5 6 
#
# 1 0.009923 -0.003092 -0.002807 0.000000 -0.000130 0.000000
# 2 -0.003092 0.012349 -0.001286 0.000000 0.001034 0.000000
# 3 -0.002807 -0.001286 0.010697 0.000000 0.003646 0.000000
# 4 0.000000 0.000000 0.000000 0.031738 0.000000 0.003628
# 5 -0.000130 0.001034 0.003646 0.000000 0.025528 0.000000
# 6 0.000000 0.000000 0.000000 0.003628 0.000000 0.032896
#
#
# Mechanical properties :
#
#
# Convention : Reuss Voigt Hill
#
# Bulk Modulus (GPa) = 53.76316 57.81461 55.78888
# Shear Modulus (GPa) = 34.79503 36.29077 35.54290
#
# Velocity S-wave (km/s) = 3.77452 3.85479 3.81486
# Velocity P-wave (km/s) = 6.40387 6.59431 6.49979
#
# Compressibility (1/GPa) = 0.01860010
#
# Stress axis : x y z
#
# Youngs Moduli (GPa) = 100.77838 80.97940 93.48781
#
# Poissons Ratio (x) = 0.25038 0.26239
# Poissons Ratio (y) = 0.31159 0.12018
# Poissons Ratio (z) = 0.28285 0.10410
#
# Static dielectric constant tensor:
#      x y z
#    x 2.032420 0.000000 -0.012950 
#    y 0.000000 1.997170 0.000000 
#    z -0.012950 0.000000 2.017870 
# 
# From -- ./inp_files/237357.got.cif
#   From: 2010.05.17/outbox.cif.g08.bks.cpg/sg15_119_cif.got.tgz:237357.got - 2010.06.03 18:47:42.
