data_PCOD9305667
_publ_section_title
;
Structure prediction by ZEFSAII (Michael W. Deem and Ramdas Pophale) SiO2 
 PCOD9305667
Probable space group: C 2/C
;
_chemical_formula_sum "Si O2"
_cell_formula_units_Z 40
_cell_length_a 11.397408
_cell_length_b 9.815642
_cell_length_c 23.621672
_cell_angle_alpha 90.000000
_cell_angle_beta 35.951727
_cell_angle_gamma 90.000000
_cell_volume 1551.493844
_symmetry_space_group_name_H-M "C 2/C"
_symmetry_group_IT_number 15
_symmetry_cell_setting 'monoclinic'
loop_
_space_group_symop_operation_xyz
x,y,z
-x,y,1/2-z
-x,-y,-z
x,-y,1/2+z
1/2+x,1/2+y,z
1/2-x,1/2+y,1/2-z
1/2-x,1/2-y,-z
1/2+x,1/2-y,1/2+z
loop_
_atom_site_type_symbol
_atom_site_label
_atom_site_fract_x
_atom_site_fract_y
_atom_site_fract_z
Si Si1 0.550003 0.496454 0.854133
Si Si2 0.193792 0.394939 0.050216
Si Si3 0.585257 0.294518 0.427278
Si Si4 0.298505 0.997956 0.654757
Si Si5 0.729577 0.202016 0.145373
O O1 0.619134 0.641537 0.852166
O O2 0.608690 0.465765 0.767908
O O3 0.648607 0.379619 0.854465
O O4 0.319431 0.491827 0.959646
O O5 0.271112 0.373061 0.084066
O O6 0.971687 0.451645 0.131019
O O7 0.250000 0.250000 0.000000
O O8 0.632803 0.134671 0.406031
O O9 0.359926 0.325958 0.537780
O O10 0.251581 0.135534 0.640298
O O11 0.500000 0.168926 0.250000
#
# Coordination Sequence:
#
# PCOD9305667 Si02
#       5
#     8   8   8   8   8
#     4  11  26  46  68 106 138 189 239 292 371 430
#     4  11  24  46  72  99 146 186 239 298 358 436
#     4  11  26  47  71 101 147 190 238 305 362 430
#     4  12  26  46  72 106 141 193 244 294 367 436
#     4  11  25  45  69 103 142 187 239 296 360 430
#
# _framework density 25.781601999999999
#
# number of rings (size 3 to 8) (size 9 to 14) (size 15 to 20)
#    0.000    0.800    4.000    4.200    8.400    0.800 
#    0.000    0.000    0.000    0.000    0.000    0.000 
#    0.000    0.000    0.000    0.000    0.000    0.000 
#
# Total GULP energy -111892.978305 kJ/mol
# GULP energy per Si atom -5594.648915 kJ/mol
# Density = 2.572292 g / cm^3
# Si number density = 25.781602 Si / 1000 Ang^3
#
#
#
# Elastic Constant Matrix: (Units=GPa)
#
#
# Indices 1 2 3 4 5 6 
#
# 1 43.6522 12.3898 40.2063 0.0000 -3.1451 0.0000
# 2 12.3898 103.0146 -7.1344 0.0000 6.6311 0.0000
# 3 40.2063 -7.1344 116.9737 -0.0002 4.7824 0.0001
# 4 0.0000 0.0000 -0.0002 33.4478 0.0001 4.2346
# 5 -3.1451 6.6311 4.7824 0.0001 42.5733 0.0000
# 6 0.0000 0.0000 0.0001 4.2346 0.0000 33.4356
#
#
#
# Elastic Compliance Matrix: (Units=1/GPa)
#
#
# Indices 1 2 3 4 5 6 
#
# 1 0.037195 -0.005729 -0.013344 0.000000 0.005139 0.000000
# 2 -0.005729 0.010739 0.002722 0.000000 -0.002402 0.000000
# 3 -0.013344 0.002722 0.013421 0.000000 -0.002917 0.000000
# 4 0.000000 0.000000 0.000000 0.030385 0.000000 -0.003848
# 5 0.005139 -0.002402 -0.002917 0.000000 0.024570 0.000000
# 6 0.000000 0.000000 0.000000 -0.003848 0.000000 0.030396
#
#
# Mechanical properties :
#
#
# Convention : Reuss Voigt Hill
#
# Bulk Modulus (GPa) = 34.89847 39.39600 37.14723
# Shear Modulus (GPa) = 26.46073 36.43661 31.44867
#
# Velocity S-wave (km/s) = 3.20713 3.76344 3.49637
# Velocity P-wave (km/s) = 5.22301 5.84795 5.54429
#
# Compressibility (1/GPa) = 0.02865455
#
# Stress axis : x y z
#
# Youngs Moduli (GPa) = 26.88501 93.11437 74.51029
#
# Poissons Ratio (x) = 0.53341 0.99429
# Poissons Ratio (y) = 0.15401 -0.20283
# Poissons Ratio (z) = 0.35876 -0.25348
#
# Static dielectric constant tensor:
#      x y z
#    x 2.090730 0.000000 -0.042640 
#    y 0.000000 2.082180 0.000000 
#    z -0.042640 0.000000 1.987480 
# 
# From -- ./inp_files/150588.got.cif
#   From: 2010.05.17/outbox.cif.g08.bks.cpg/sg15_76_cif.got.tgz:150588.got - 2010.06.03 18:47:42.
