data_PCOD9305306
_publ_section_title
;
Structure prediction by ZEFSAII (Michael W. Deem and Ramdas Pophale) SiO2 
 PCOD9305306
Probable space group: C 2/C
;
_chemical_formula_sum "Si O2"
_cell_formula_units_Z 60
_cell_length_a 25.086888
_cell_length_b 19.857684
_cell_length_c 13.880568
_cell_angle_alpha 90.000000
_cell_angle_beta 22.938969
_cell_angle_gamma 90.000000
_cell_volume 2695.064638
_symmetry_space_group_name_H-M "C 2/C"
_symmetry_group_IT_number 15
_symmetry_cell_setting 'monoclinic'
loop_
_space_group_symop_operation_xyz
x,y,z
-x,y,1/2-z
-x,-y,-z
x,-y,1/2+z
1/2+x,1/2+y,z
1/2-x,1/2+y,1/2-z
1/2-x,1/2-y,-z
1/2+x,1/2-y,1/2+z
loop_
_atom_site_type_symbol
_atom_site_label
_atom_site_fract_x
_atom_site_fract_y
_atom_site_fract_z
Si Si1 0.337502 0.500965 0.752965
Si Si2 0.647937 0.967797 0.242150
Si Si3 0.649564 0.707130 0.545563
Si Si4 0.738616 0.927534 0.735459
Si Si5 0.956937 0.206431 0.209758
Si Si6 0.642599 0.829298 0.194484
Si Si7 0.500000 0.881417 0.250000
Si Si8 0.681196 0.656349 0.711255
O O1 0.500000 0.500000 0.500000
O O2 0.326176 0.456993 0.675797
O O3 0.276274 0.577571 0.856052
O O4 0.236440 0.464857 0.997129
O O5 0.615615 0.889523 0.312451
O O6 0.500000 0.000000 0.500000
O O7 0.743298 0.014708 0.148097
O O8 0.724785 0.646864 0.361820
O O9 0.643669 0.678108 0.664594
O O10 0.720628 0.781012 0.421402
O O11 0.500000 0.713225 0.750000
O O12 0.584854 0.923594 0.032466
O O13 0.797322 0.189958 0.463347
O O14 0.967643 0.269577 0.117188
O O15 0.000000 0.215364 0.250000
O O16 0.056189 0.153965 0.995030
O O17 0.612631 0.843797 0.129645
#
# Coordination Sequence:
#
# PCOD9305306 Si02
#       8
#     8   8   8   8   8   8   4   8
#     4  12  26  47  73 107 148 190 248 309 371 445
#     4  12  25  44  72 106 139 184 245 301 370 430
#     4  11  26  47  75 103 144 203 239 298 376 444
#     4  12  25  45  74 104 145 193 246 299 377 436
#     4  11  26  44  71 102 147 190 242 301 375 436
#     4  11  24  44  68 106 140 189 241 304 360 444
#     4  12  22  44  72 104 138 188 244 294 360 442
#     4  11  26  48  69 110 147 186 249 306 360 454
#
# _framework density 22.262916000000001
#
# number of rings (size 3 to 8) (size 9 to 14) (size 15 to 20)
#    0.000    0.533    4.667    2.400    3.733    1.067 
#    3.600    0.000    0.000    0.000    0.000    0.000 
#    0.000    0.000    0.000    0.000    0.000    0.000 
#
# Total GULP energy -167110.600720 kJ/mol
# GULP energy per Si atom -5570.353357 kJ/mol
# Density = 2.221224 g / cm^3
# Si number density = 22.262916 Si / 1000 Ang^3
#
#
#
# Elastic Constant Matrix: (Units=GPa)
#
#
# Indices 1 2 3 4 5 6 
#
# 1 115.1147 39.0708 47.2378 -0.0017 -22.2951 0.0010
# 2 39.0708 96.3944 10.8330 -0.0023 -6.5443 0.0015
# 3 47.2378 10.8330 80.4475 -0.0002 -12.6250 0.0013
# 4 -0.0017 -0.0023 -0.0002 1.9216 0.0003 -10.1347
# 5 -22.2951 -6.5443 -12.6250 0.0003 28.1909 -0.0003
# 6 0.0010 0.0015 0.0013 -10.1347 -0.0003 29.3186
#
#
#
# Elastic Compliance Matrix: (Units=1/GPa)
#
#
# Indices 1 2 3 4 5 6 
#
# 1 0.014413 -0.004592 -0.006694 -0.000007 0.007335 -0.000002
# 2 -0.004592 0.012097 0.001009 -0.000009 -0.000371 -0.000004
# 3 -0.006694 0.001009 0.016597 0.000007 0.002374 0.000002
# 4 -0.000007 -0.000009 0.000007 -0.632248 -0.000001 -0.218552
# 5 0.007335 -0.000371 0.002374 -0.000001 0.042250 0.000000
# 6 -0.000002 -0.000004 0.000002 -0.218552 0.000000 -0.041439
#
#
# Mechanical properties :
#
#
# Convention : Reuss Voigt Hill
#
# Bulk Modulus (GPa) = 44.33750 54.02664 49.18207
# Shear Modulus (GPa) = -8.92442 24.87391 7.97474
#
# Velocity S-wave (km/s) = -2.00433 3.34620 1.89469
# Velocity P-wave (km/s) = 3.82128 6.26495 5.18902
#
# Compressibility (1/GPa) = 0.02255427
#
# Stress axis : x y z
#
# Youngs Moduli (GPa) = 69.38306 82.66839 60.25015
#
# Poissons Ratio (x) = 0.37958 0.40329
# Poissons Ratio (y) = 0.31858 -0.06079
# Poissons Ratio (z) = 0.46442 -0.08341
#
# Static dielectric constant tensor:
#      x y z
#    x 1.764850 -0.000020 0.084440 
#    y -0.000020 1.251920 -0.000030 
#    z 0.084440 -0.000030 1.727800 
# 
# From -- ./inp_files/179079.got.cif
#   From: 2010.05.17/outbox.cif.g08.bks.cpg/sg15_90_cif.got.tgz:179079.got - 2010.06.03 18:47:42.
