data_PCOD9305336
_publ_section_title
;
Structure prediction by ZEFSAII (Michael W. Deem and Ramdas Pophale) SiO2 
 PCOD9305336
Probable space group: C 2/C
;
_chemical_formula_sum "Si O2"
_cell_formula_units_Z 48
_cell_length_a 20.849813
_cell_length_b 12.019461
_cell_length_c 9.257679
_cell_angle_alpha 90.000000
_cell_angle_beta 119.926027
_cell_angle_gamma 90.000000
_cell_volume 2010.680878
_symmetry_space_group_name_H-M "C 2/C"
_symmetry_group_IT_number 15
_symmetry_cell_setting 'monoclinic'
loop_
_space_group_symop_operation_xyz
x,y,z
-x,y,1/2-z
-x,-y,-z
x,-y,1/2+z
1/2+x,1/2+y,z
1/2-x,1/2+y,1/2-z
1/2-x,1/2-y,-z
1/2+x,1/2-y,1/2+z
loop_
_atom_site_type_symbol
_atom_site_label
_atom_site_fract_x
_atom_site_fract_y
_atom_site_fract_z
Si Si1 0.899296 0.626988 0.416915
Si Si2 0.299081 0.505794 0.169736
Si Si3 0.551459 0.252092 0.531787
Si Si4 0.633137 0.310977 0.915684
Si Si5 0.100834 0.959744 0.452339
Si Si6 0.861840 0.422255 0.553235
O O1 0.851795 0.720896 0.446093
O O2 0.907312 0.525402 0.537218
O O3 0.865843 0.583697 0.230054
O O4 0.976659 0.684708 0.467053
O O5 0.298295 0.616484 0.067732
O O6 0.330726 0.542678 0.358203
O O7 0.363272 0.433588 0.162906
O O8 0.222216 0.444567 0.088120
O O9 0.591896 0.259637 0.731762
O O10 0.542879 0.374496 0.452225
O O11 0.604350 0.187264 0.479995
O O12 0.580404 0.410333 0.917653
#
# Coordination Sequence:
#
# PCOD9305336 Si02
#       6
#     8   8   8   8   8   8
#     4  12  26  45  69  99 137 186 227 278 335 406
#     4   9  21  44  68 102 133 177 224 283 343 394
#     4  11  24  44  70 101 137 183 224 278 339 409
#     4   9  23  45  71 100 133 176 228 287 345 390
#     4   9  21  44  70 104 134 172 228 282 348 396
#     4  12  26  44  70  99 142 181 228 278 332 415
#
# _framework density 23.872509000000001
#
# number of rings (size 3 to 8) (size 9 to 14) (size 15 to 20)
#    1.000    0.667    0.000    3.500    2.333    3.333 
#    6.000    1.667    0.000    0.000    0.000    0.000 
#    0.000    0.000    0.000    0.000    0.000    0.000 
#
# Total GULP energy -134206.986541 kJ/mol
# GULP energy per Si atom -5591.957773 kJ/mol
# Density = 2.381817 g / cm^3
# Si number density = 23.872509 Si / 1000 Ang^3
#
#
#
# Elastic Constant Matrix: (Units=GPa)
#
#
# Indices 1 2 3 4 5 6 
#
# 1 71.0128 14.3088 25.7046 0.0000 -0.9664 0.0000
# 2 14.3088 90.0775 25.3208 0.0000 -21.2589 0.0000
# 3 25.7046 25.3208 75.4406 0.0000 -20.0365 0.0000
# 4 0.0000 0.0000 0.0000 11.4972 0.0000 53.3063
# 5 -0.9664 -21.2589 -20.0365 0.0000 30.7132 0.0000
# 6 0.0000 0.0000 0.0000 53.3063 0.0000 -173.7507
#
#
#
# Elastic Compliance Matrix: (Units=1/GPa)
#
#
# Indices 1 2 3 4 5 6 
#
# 1 0.016726 -0.002063 -0.006345 0.000000 -0.005041 0.000000
# 2 -0.002063 0.013904 -0.001724 0.000000 0.008435 0.000000
# 3 -0.006345 -0.001724 0.018901 0.000000 0.010938 0.000000
# 4 0.000000 0.000000 0.000000 0.035905 0.000000 0.011016
# 5 -0.005041 0.008435 0.010938 0.000000 0.045375 0.000000
# 6 0.000000 0.000000 0.000000 0.011016 0.000000 -0.002376
#
#
# Mechanical properties :
#
#
# Convention : Reuss Voigt Hill
#
# Bulk Modulus (GPa) = 34.16796 40.79991 37.48393
# Shear Modulus (GPa) = 31.55467 -14.89496 8.32985
#
# Velocity S-wave (km/s) = 3.63960 -2.50058 1.87000
# Velocity P-wave (km/s) = 5.65738 2.96490 4.51645
#
# Compressibility (1/GPa) = 0.02926718
#
# Stress axis : x y z
#
# Youngs Moduli (GPa) = 59.78748 71.91918 52.90703
#
# Poissons Ratio (x) = 0.14837 0.33572
# Poissons Ratio (y) = 0.12334 0.09120
# Poissons Ratio (z) = 0.37938 0.12397
#
# Static dielectric constant tensor:
#      x y z
#    x 1.926630 0.000000 -0.013990 
#    y 0.000000 1.955920 0.000000 
#    z -0.013990 0.000000 1.859860 
# 
# From -- ./inp_files/111231.got.cif
#   From: 2010.05.17/outbox.cif.g08.bks.cpg/sg15_56_cif.got.tgz:111231.got - 2010.06.03 18:47:42.
