data_PCOD9305881
_publ_section_title
;
Structure prediction by ZEFSAII (Michael W. Deem and Ramdas Pophale) SiO2 
 PCOD9305881
Probable space group: C 2/C
;
_chemical_formula_sum "Si O2"
_cell_formula_units_Z 44
_cell_length_a 17.019031
_cell_length_b 6.508695
_cell_length_c 18.255453
_cell_angle_alpha 90.000000
_cell_angle_beta 96.645365
_cell_angle_gamma 90.000000
_cell_volume 2008.601069
_symmetry_space_group_name_H-M "C 2/C"
_symmetry_group_IT_number 15
_symmetry_cell_setting 'monoclinic'
loop_
_space_group_symop_operation_xyz
x,y,z
-x,y,1/2-z
-x,-y,-z
x,-y,1/2+z
1/2+x,1/2+y,z
1/2-x,1/2+y,1/2-z
1/2-x,1/2-y,-z
1/2+x,1/2-y,1/2+z
loop_
_atom_site_type_symbol
_atom_site_label
_atom_site_fract_x
_atom_site_fract_y
_atom_site_fract_z
Si Si1 0.761262 0.758975 0.881367
Si Si2 0.915645 0.219804 0.309693
Si Si3 0.500000 0.914083 0.750000
Si Si4 0.047306 0.860954 0.946770
Si Si5 0.107910 0.910149 0.325014
Si Si6 0.312147 0.935771 0.010091
O O1 0.835209 0.831091 0.842614
O O2 0.696512 0.661943 0.820838
O O3 0.713332 0.931840 0.921485
O O4 0.797650 0.590460 0.941144
O O5 0.932610 0.445505 0.279258
O O6 0.984140 0.195412 0.377437
O O7 0.084221 0.073512 0.260964
O O8 0.456061 0.770477 0.687046
O O9 0.100157 0.667739 0.979337
O O10 0.107883 0.002449 0.907282
O O11 0.000000 0.000000 0.000000
O O12 0.250000 0.750000 0.000000
#
# Coordination Sequence:
#
# PCOD9305881 Si02
#       6
#     8   8   4   8   8   8
#     4  11  28  43  75 108 140 199 235 297 376 423
#     4  12  27  48  69 109 141 192 246 294 364 431
#     4  12  24  46  74  98 144 194 238 300 364 434
#     4  12  25  47  76 103 149 189 238 305 362 428
#     4  12  26  48  68 106 149 184 246 301 355 444
#     4  11  24  48  72 107 153 181 244 300 355 446
#
# _framework density 21.905791000000001
#
# number of rings (size 3 to 8) (size 9 to 14) (size 15 to 20)
#    0.000    0.364    5.455    2.182    7.636    2.182 
#    0.000    0.000    0.000    0.000    0.000    0.000 
#    0.000    0.000    0.000    0.000    0.000    0.000 
#
# Total GULP energy -122932.513500 kJ/mol
# GULP energy per Si atom -5587.841523 kJ/mol
# Density = 2.185593 g / cm^3
# Si number density = 21.905791 Si / 1000 Ang^3
#
#
#
# Elastic Constant Matrix: (Units=GPa)
#
#
# Indices 1 2 3 4 5 6 
#
# 1 128.4861 35.4543 38.7826 0.0000 9.8704 0.0000
# 2 35.4543 109.5474 50.8371 0.0000 4.4945 0.0000
# 3 38.7826 50.8371 92.6211 0.0000 0.5703 0.0000
# 4 0.0000 0.0000 0.0000 10.0600 0.0000 16.7747
# 5 9.8704 4.4945 0.5703 0.0000 40.0131 0.0000
# 6 0.0000 0.0000 0.0000 16.7747 0.0000 34.1977
#
#
#
# Elastic Compliance Matrix: (Units=1/GPa)
#
#
# Indices 1 2 3 4 5 6 
#
# 1 0.009277 -0.001503 -0.003046 0.000000 -0.002076 0.000000
# 2 -0.001503 0.012558 -0.006257 0.000000 -0.000951 0.000000
# 3 -0.003046 -0.006257 0.015499 0.000000 0.001233 0.000000
# 4 0.000000 0.000000 0.000000 0.545973 0.000000 -0.267812
# 5 -0.002076 -0.000951 0.001233 0.000000 0.025593 0.000000
# 6 0.000000 0.000000 0.000000 -0.267812 0.000000 0.160610
#
#
# Mechanical properties :
#
#
# Convention : Reuss Voigt Hill
#
# Bulk Modulus (GPa) = 63.61531 64.53363 64.07447
# Shear Modulus (GPa) = 6.27854 30.55954 18.41904
#
# Velocity S-wave (km/s) = 1.69481 3.73908 2.90285
# Velocity P-wave (km/s) = 5.73875 6.94007 6.36780
#
# Compressibility (1/GPa) = 0.01571949
#
# Stress axis : x y z
#
# Youngs Moduli (GPa) = 107.79535 79.63167 64.51985
#
# Poissons Ratio (x) = 0.11972 0.19656
# Poissons Ratio (y) = 0.16207 0.40372
# Poissons Ratio (z) = 0.32839 0.49827
#
# Static dielectric constant tensor:
#      x y z
#    x 1.827870 0.000000 0.038060 
#    y 0.000000 1.850720 0.000000 
#    z 0.038060 0.000000 1.798890 
# 
# From -- ./inp_files/246513.got.cif
#   From: 2010.05.17/outbox.cif.g08.bks.cpg/sg15_124_cif.got.tgz:246513.got - 2010.06.03 18:47:42.
