data_PCOD9305749
_publ_section_title
;
Structure prediction by ZEFSAII (Michael W. Deem and Ramdas Pophale) SiO2 
 PCOD9305749
Probable space group: C 2/C
;
_chemical_formula_sum "Si O2"
_cell_formula_units_Z 52
_cell_length_a 16.751454
_cell_length_b 15.864847
_cell_length_c 13.829226
_cell_angle_alpha 90.000000
_cell_angle_beta 133.066902
_cell_angle_gamma 90.000000
_cell_volume 2684.975301
_symmetry_space_group_name_H-M "C 2/C"
_symmetry_group_IT_number 15
_symmetry_cell_setting 'monoclinic'
loop_
_space_group_symop_operation_xyz
x,y,z
-x,y,1/2-z
-x,-y,-z
x,-y,1/2+z
1/2+x,1/2+y,z
1/2-x,1/2+y,1/2-z
1/2-x,1/2-y,-z
1/2+x,1/2-y,1/2+z
loop_
_atom_site_type_symbol
_atom_site_label
_atom_site_fract_x
_atom_site_fract_y
_atom_site_fract_z
Si Si1 0.000000 0.664623 0.250000
Si Si2 0.695195 0.970077 0.908908
Si Si3 0.534811 0.694979 0.617880
Si Si4 0.339542 0.593669 0.354886
Si Si5 0.108360 0.970762 0.277238
Si Si6 0.213406 0.730618 0.126933
Si Si7 0.375307 0.158351 0.646717
O O1 0.107380 0.605325 0.345010
O O2 0.004974 0.725781 0.160733
O O3 0.767710 0.955831 0.873503
O O4 0.632876 0.058331 0.850042
O O5 0.782002 0.977235 0.068439
O O6 0.432175 0.645299 0.488604
O O7 0.596360 0.625818 0.734018
O O8 0.612747 0.725005 0.596247
O O9 0.386194 0.530781 0.311976
O O10 0.263924 0.661303 0.238867
O O11 0.000000 0.992204 0.250000
O O12 0.305731 0.797474 0.173046
O O13 0.176003 0.685956 0.997544
O O14 0.500000 0.187140 0.750000
#
# Coordination Sequence:
#
# PCOD9305749 Si02
#       7
#     4   8   8   8   8   8   8
#     4  12  26  46  74  98 142 188 226 288 354 422
#     4  12  25  47  68 102 143 180 234 287 350 419
#     4  12  25  44  69 105 134 182 231 290 349 414
#     4  12  25  44  69 103 139 178 236 287 349 417
#     4  12  26  44  72 100 138 184 231 290 348 409
#     4  11  25  43  70 100 136 180 236 283 353 411
#     4  11  24  47  68  99 137 185 230 293 343 415
#
# _framework density 19.367031000000001
#
# number of rings (size 3 to 8) (size 9 to 14) (size 15 to 20)
#    0.000    0.308    6.154    2.308    4.308    1.846 
#    2.769    2.308    0.000    0.000    0.000    0.000 
#    0.000    0.000    0.000    0.000    0.000    0.000 
#
# Total GULP energy -145457.788199 kJ/mol
# GULP energy per Si atom -5594.530315 kJ/mol
# Density = 1.932295 g / cm^3
# Si number density = 19.367031 Si / 1000 Ang^3
#
#
#
# Elastic Constant Matrix: (Units=GPa)
#
#
# Indices 1 2 3 4 5 6 
#
# 1 147.1090 50.3851 24.3189 0.0000 2.3781 0.0000
# 2 50.3851 99.1116 24.9584 0.0000 2.5384 0.0000
# 3 24.3189 24.9584 64.6855 0.0000 0.5386 0.0000
# 4 0.0000 0.0000 0.0000 15.7631 0.0000 22.8088
# 5 2.3781 2.5384 0.5386 0.0000 26.7614 0.0000
# 6 0.0000 0.0000 0.0000 22.8088 0.0000 14.1148
#
#
#
# Elastic Compliance Matrix: (Units=1/GPa)
#
#
# Indices 1 2 3 4 5 6 
#
# 1 0.008394 -0.003837 -0.001672 0.000000 -0.000348 0.000000
# 2 -0.003837 0.012955 -0.003549 0.000000 -0.000816 0.000000
# 3 -0.001672 -0.003549 0.017456 0.000000 0.000134 0.000000
# 4 0.000000 0.000000 0.000000 -0.047405 0.000000 0.076604
# 5 -0.000348 -0.000816 0.000134 0.000000 0.037473 0.000000
# 6 0.000000 0.000000 0.000000 0.076604 0.000000 -0.052941
#
#
# Mechanical properties :
#
#
# Convention : Reuss Voigt Hill
#
# Bulk Modulus (GPa) = 48.33705 56.69234 52.51469
# Shear Modulus (GPa) = 5289.12743 25.41077 2657.26910
#
# Velocity S-wave (km/s) = 52.31562 3.62617 37.08149
# Velocity P-wave (km/s) = 60.61555 6.84604 43.13417
#
# Compressibility (1/GPa) = 0.02068806
#
# Stress axis : x y z
#
# Youngs Moduli (GPa) = 119.13256 77.19022 57.28542
#
# Poissons Ratio (x) = 0.29619 0.09580
# Poissons Ratio (y) = 0.45713 0.20332
# Poissons Ratio (z) = 0.19923 0.27396
#
# Static dielectric constant tensor:
#      x y z
#    x 1.664900 0.000000 -0.002390 
#    y 0.000000 1.654740 0.000000 
#    z -0.002390 0.000000 1.668000 
# 
# From -- ./inp_files/162498.got.cif
#   From: 2010.05.17/outbox.cif.g08.bks.cpg/sg15_82_cif.got.tgz:162498.got - 2010.06.03 18:47:42.
