data_PCOD9305995
_publ_section_title
;
Structure prediction by ZEFSAII (Michael W. Deem and Ramdas Pophale) SiO2 
 PCOD9305995
Probable space group: C 2/C
;
_chemical_formula_sum "Si O2"
_cell_formula_units_Z 64
_cell_length_a 16.267664
_cell_length_b 10.890027
_cell_length_c 18.491211
_cell_angle_alpha 90.000000
_cell_angle_beta 126.942738
_cell_angle_gamma 90.000000
_cell_volume 2618.151976
_symmetry_space_group_name_H-M "C 2/C"
_symmetry_group_IT_number 15
_symmetry_cell_setting 'monoclinic'
loop_
_space_group_symop_operation_xyz
x,y,z
-x,y,1/2-z
-x,-y,-z
x,-y,1/2+z
1/2+x,1/2+y,z
1/2-x,1/2+y,1/2-z
1/2-x,1/2-y,-z
1/2+x,1/2-y,1/2+z
loop_
_atom_site_type_symbol
_atom_site_label
_atom_site_fract_x
_atom_site_fract_y
_atom_site_fract_z
Si Si1 0.425458 0.279884 0.510668
Si Si2 0.384127 0.989126 0.968389
Si Si3 0.292859 0.152938 0.651926
Si Si4 0.705739 0.909720 0.935247
Si Si5 0.121492 0.836780 0.317789
Si Si6 0.398890 0.394531 0.649524
Si Si7 0.102377 0.086065 0.064069
Si Si8 0.240709 0.043196 0.759167
O O1 0.387110 0.144426 0.506477
O O2 0.331859 0.336551 0.414687
O O3 0.425772 0.357595 0.583514
O O4 0.540787 0.285930 0.541257
O O5 0.309844 0.984596 0.858798
O O6 0.500000 0.000000 0.000000
O O7 0.341965 0.079600 0.008966
O O8 0.333695 0.282280 0.646712
O O9 0.317014 0.115893 0.746239
O O10 0.327798 0.038134 0.621459
O O11 0.823756 0.906967 0.966380
O O12 0.835730 0.716733 0.120946
O O13 0.143580 0.967846 0.368355
O O14 0.000000 0.822488 0.250000
O O15 0.167432 0.861088 0.262404
O O16 0.500000 0.399078 0.750000
O O17 0.172089 0.048518 0.171686
O O18 0.000000 0.000000 0.000000
#
# Coordination Sequence:
#
# PCOD9305995 Si02
#       8
#     8   8   8   8   8   8   8   8
#     4  12  25  50  84 114 163 213 282 346 410 495
#     4  12  31  54  80 126 172 220 280 349 420 500
#     4  11  25  48  84 111 162 212 278 343 419 492
#     4  11  27  51  80 119 169 223 269 348 429 496
#     4  11  27  48  79 120 170 217 281 340 418 502
#     4  11  25  46  83 117 156 216 287 345 411 499
#     4  11  24  52  86 123 161 220 283 349 423 500
#     4  11  27  50  78 120 166 217 278 344 421 500
#
# _framework density 24.444724000000001
#
# number of rings (size 3 to 8) (size 9 to 14) (size 15 to 20)
#    0.000    0.750    3.750    2.625    5.250    9.000 
#    2.250    0.000    0.000    0.000    0.000    0.000 
#    0.000    0.000    0.000    0.000    0.000    0.000 
#
# Total GULP energy -178782.349055 kJ/mol
# GULP energy per Si atom -5586.948408 kJ/mol
# Density = 2.438909 g / cm^3
# Si number density = 24.444724 Si / 1000 Ang^3
#
#
#
# Elastic Constant Matrix: (Units=GPa)
#
#
# Indices 1 2 3 4 5 6 
#
# 1 168.4979 68.5856 77.6130 0.0000 -13.6111 0.0000
# 2 68.5856 165.2011 52.1887 0.0000 -2.7812 0.0000
# 3 77.6130 52.1887 123.3882 0.0000 -11.9717 0.0000
# 4 0.0000 0.0000 0.0000 39.6454 0.0000 4.5655
# 5 -13.6111 -2.7812 -11.9717 0.0000 49.8800 0.0000
# 6 0.0000 0.0000 0.0000 4.5655 0.0000 41.2654
#
#
#
# Elastic Compliance Matrix: (Units=1/GPa)
#
#
# Indices 1 2 3 4 5 6 
#
# 1 0.009104 -0.002294 -0.004636 0.000000 0.001244 0.000000
# 2 -0.002294 0.007570 -0.001821 0.000000 -0.000641 0.000000
# 3 -0.004636 -0.001821 0.011936 0.000000 0.001498 0.000000
# 4 0.000000 0.000000 0.000000 0.025549 0.000000 -0.002827
# 5 0.001244 -0.000641 0.001498 0.000000 0.020711 0.000000
# 6 0.000000 0.000000 0.000000 -0.002827 0.000000 0.024546
#
#
# Mechanical properties :
#
#
# Convention : Reuss Voigt Hill
#
# Bulk Modulus (GPa) = 90.02027 94.87353 92.44690
# Shear Modulus (GPa) = 41.45172 43.40484 42.42828
#
# Velocity S-wave (km/s) = 4.12239 4.21840 4.17067
# Velocity P-wave (km/s) = 7.71783 7.91342 7.81623
#
# Compressibility (1/GPa) = 0.01110861
#
# Stress axis : x y z
#
# Youngs Moduli (GPa) = 109.83595 132.09603 83.78043
#
# Poissons Ratio (x) = 0.30309 0.38838
# Poissons Ratio (y) = 0.25201 0.15256
# Poissons Ratio (z) = 0.50917 0.24053
#
# Static dielectric constant tensor:
#      x y z
#    x 1.949850 0.000000 -0.004370 
#    y 0.000000 2.046050 0.000000 
#    z -0.004370 0.000000 1.978770 
# 
# From -- ./inp_files/205461.got.cif
#   From: 2010.05.17/outbox.cif.g08.bks.cpg/sg15_103_cif.got.tgz:205461.got - 2010.06.03 18:47:42.
