data_PCOD9305300
_publ_section_title
;
Structure prediction by ZEFSAII (Michael W. Deem and Ramdas Pophale) SiO2 
 PCOD9305300
Probable space group: C 2/C
;
_chemical_formula_sum "Si O2"
_cell_formula_units_Z 48
_cell_length_a 15.263879
_cell_length_b 8.661332
_cell_length_c 28.335369
_cell_angle_alpha 90.000000
_cell_angle_beta 31.975766
_cell_angle_gamma 90.000000
_cell_volume 1983.782598
_symmetry_space_group_name_H-M "C 2/C"
_symmetry_group_IT_number 15
_symmetry_cell_setting 'monoclinic'
loop_
_space_group_symop_operation_xyz
x,y,z
-x,y,1/2-z
-x,-y,-z
x,-y,1/2+z
1/2+x,1/2+y,z
1/2-x,1/2+y,1/2-z
1/2-x,1/2-y,-z
1/2+x,1/2-y,1/2+z
loop_
_atom_site_type_symbol
_atom_site_label
_atom_site_fract_x
_atom_site_fract_y
_atom_site_fract_z
Si Si1 0.972466 0.673898 0.941409
Si Si2 0.227564 0.986121 0.153339
Si Si3 0.952079 0.144844 0.847759
Si Si4 0.263990 0.821316 0.372382
Si Si5 0.966091 0.500126 0.854402
Si Si6 0.648845 0.513785 0.338592
O O1 0.089604 0.552276 0.914148
O O2 0.893899 0.586843 0.932831
O O3 0.089205 0.810984 0.868539
O O4 0.854603 0.754929 0.032697
O O5 0.106199 0.884557 0.241568
O O6 0.193134 0.939076 0.114864
O O7 0.186710 0.166396 0.178510
O O8 0.015155 0.073893 0.867711
O O9 0.912518 0.323557 0.873114
O O10 0.407608 0.908230 0.335069
O O11 0.169684 0.936741 0.380404
O O12 0.165876 0.498300 0.767377
#
# Coordination Sequence:
#
# PCOD9305300 Si02
#       6
#     8   8   8   8   8   8
#     4  12  25  48  70 104 146 182 228 286 357 415
#     4  11  24  44  68 101 139 176 237 282 349 403
#     4  11  25  42  71 103 132 181 237 295 328 408
#     4  12  28  43  72 105 145 184 223 292 354 416
#     4  12  24  45  71 103 137 185 237 284 343 411
#     4  12  24  44  71 103 137 183 239 283 343 411
#
# _framework density 24.196199
#
# number of rings (size 3 to 8) (size 9 to 14) (size 15 to 20)
#    0.000    0.333    3.333    5.000    9.333    0.000 
#    0.000    2.500    0.000    0.000    0.000    0.000 
#    0.000    0.000    0.000    0.000    0.000    0.000 
#
# Total GULP energy -134529.560027 kJ/mol
# GULP energy per Si atom -5605.398334 kJ/mol
# Density = 2.414113 g / cm^3
# Si number density = 24.196199 Si / 1000 Ang^3
#
#
#
# Elastic Constant Matrix: (Units=GPa)
#
#
# Indices 1 2 3 4 5 6 
#
# 1 150.5962 40.4021 -2.8603 0.0000 11.4257 0.0007
# 2 40.4021 139.4741 -17.4802 0.0000 2.6908 0.0014
# 3 -2.8603 -17.4802 49.5113 0.0000 16.9207 -0.0001
# 4 0.0000 0.0000 0.0000 32.7787 0.0000 5.8395
# 5 11.4257 2.6908 16.9207 0.0000 32.1025 0.0001
# 6 0.0007 0.0014 -0.0001 5.8395 0.0001 48.3885
#
#
#
# Elastic Compliance Matrix: (Units=1/GPa)
#
#
# Indices 1 2 3 4 5 6 
#
# 1 0.007406 -0.002005 0.000687 0.000000 -0.002830 0.000000
# 2 -0.002005 0.008208 0.003383 0.000000 -0.001758 0.000000
# 3 0.000687 0.003383 0.026360 0.000000 -0.014422 0.000000
# 4 0.000000 0.000000 0.000000 0.031178 0.000000 -0.003763
# 5 -0.002830 -0.001758 -0.014422 0.000000 0.039906 0.000000
# 6 0.000000 0.000000 0.000000 -0.003763 0.000000 0.021120
#
#
# Mechanical properties :
#
#
# Convention : Reuss Voigt Hill
#
# Bulk Modulus (GPa) = 21.68927 42.18943 31.93935
# Shear Modulus (GPa) = 34.38404 43.95527 39.16966
#
# Velocity S-wave (km/s) = 3.77377 4.26681 4.02784
# Velocity P-wave (km/s) = 5.28884 6.46130 5.90425
#
# Compressibility (1/GPa) = 0.04610574
#
# Stress axis : x y z
#
# Youngs Moduli (GPa) = 135.02885 121.82736 37.93583
#
# Poissons Ratio (x) = 0.24421 -0.02607
# Poissons Ratio (y) = 0.27067 -0.12833
# Poissons Ratio (z) = -0.09281 -0.41213
#
# Static dielectric constant tensor:
#      x y z
#    x 1.877230 0.000000 0.009350 
#    y 0.000000 1.871860 0.000000 
#    z 0.009350 0.000000 1.994010 
# 
# From -- ./inp_files/295377.got.cif
#   From: 2010.05.17/outbox.cif.g08.bks.cpg/sg15_148_cif.got.tgz:295377.got - 2010.06.03 18:47:42.
