data_PCOD9305243
_publ_section_title
;
Structure prediction by ZEFSAII (Michael W. Deem and Ramdas Pophale) SiO2 
 PCOD9305243
Probable space group: C 2/C
;
_chemical_formula_sum "Si O2"
_cell_formula_units_Z 44
_cell_length_a 10.046728
_cell_length_b 21.943049
_cell_length_c 14.167766
_cell_angle_alpha 90.000000
_cell_angle_beta 140.469782
_cell_angle_gamma 90.000000
_cell_volume 1987.976411
_symmetry_space_group_name_H-M "C 2/C"
_symmetry_group_IT_number 15
_symmetry_cell_setting 'monoclinic'
loop_
_space_group_symop_operation_xyz
x,y,z
-x,y,1/2-z
-x,-y,-z
x,-y,1/2+z
1/2+x,1/2+y,z
1/2-x,1/2+y,1/2-z
1/2-x,1/2-y,-z
1/2+x,1/2-y,1/2+z
loop_
_atom_site_type_symbol
_atom_site_label
_atom_site_fract_x
_atom_site_fract_y
_atom_site_fract_z
Si Si1 0.205601 0.169052 0.204608
Si Si2 0.526228 0.569461 0.986346
Si Si3 0.500000 0.852822 0.250000
Si Si4 0.907700 0.561078 0.845350
Si Si5 0.559833 0.075433 0.413044
Si Si6 0.832242 0.244288 0.938187
O O1 0.425127 0.133876 0.307345
O O2 0.258737 0.198379 0.335501
O O3 0.056242 0.111978 0.095104
O O4 0.076431 0.222662 0.077116
O O5 0.318984 0.581067 0.813575
O O6 0.500000 0.500000 0.000000
O O7 0.724184 0.576830 0.025350
O O8 0.436446 0.896572 0.129206
O O9 0.312962 0.809691 0.180058
O O10 0.950065 0.490869 0.839147
O O11 0.919565 0.574033 0.962383
O O12 0.750000 0.250000 0.000000
#
# Coordination Sequence:
#
# PCOD9305243 Si02
#       6
#     8   8   4   8   8   8
#     4  12  26  45  75 106 152 199 257 313 387 448
#     4  12  24  47  72 107 152 201 255 319 387 461
#     4  12  22  42  76 106 148 190 248 324 374 456
#     4  11  24  43  74 108 148 197 251 317 393 452
#     4  11  26  45  69 111 153 195 254 317 387 464
#     4  12  25  46  72 109 149 198 259 310 370 457
#
# _framework density 22.13306
#
# number of rings (size 3 to 8) (size 9 to 14) (size 15 to 20)
#    0.000    0.364    5.455    3.273    0.000    0.000 
#    3.273    3.636    0.000    0.000    0.000    0.000 
#    0.000    0.000    0.000    0.000    0.000    0.000 
#
# Total GULP energy -122538.301594 kJ/mol
# GULP energy per Si atom -5569.922800 kJ/mol
# Density = 2.208268 g / cm^3
# Si number density = 22.133060 Si / 1000 Ang^3
#
#
#
# Elastic Constant Matrix: (Units=GPa)
#
#
# Indices 1 2 3 4 5 6 
#
# 1 107.9670 55.5521 46.3193 0.0000 11.2493 0.0000
# 2 55.5521 125.6348 68.9790 0.0000 -14.0417 0.0000
# 3 46.3193 68.9790 125.1665 0.0000 0.6067 0.0000
# 4 0.0000 0.0000 0.0000 58.7114 0.0000 0.5705
# 5 11.2493 -14.0417 0.6067 0.0000 45.9406 0.0000
# 6 0.0000 0.0000 0.0000 0.5705 0.0000 37.5815
#
#
#
# Elastic Compliance Matrix: (Units=1/GPa)
#
#
# Indices 1 2 3 4 5 6 
#
# 1 0.013387 -0.005391 -0.001959 0.000000 -0.004900 0.000000
# 2 -0.005391 0.014202 -0.005859 0.000000 0.005738 0.000000
# 3 -0.001959 -0.005859 0.011950 0.000000 -0.001469 0.000000
# 4 0.000000 0.000000 0.000000 0.017035 0.000000 -0.000259
# 5 -0.004900 0.005738 -0.001469 0.000000 0.024740 0.000000
# 6 0.000000 0.000000 0.000000 -0.000259 0.000000 0.026613
#
#
# Mechanical properties :
#
#
# Convention : Reuss Voigt Hill
#
# Bulk Modulus (GPa) = 76.22014 77.82989 77.02501
# Shear Modulus (GPa) = 36.04366 40.97457 38.50912
#
# Velocity S-wave (km/s) = 4.03984 4.30732 4.17573
# Velocity P-wave (km/s) = 7.50150 7.74456 7.62400
#
# Compressibility (1/GPa) = 0.01311989
#
# Stress axis : x y z
#
# Youngs Moduli (GPa) = 74.69837 70.41329 83.67854
#
# Poissons Ratio (x) = 0.37963 0.16394
# Poissons Ratio (y) = 0.40273 0.49029
# Poissons Ratio (z) = 0.14634 0.41257
#
# Static dielectric constant tensor:
#      x y z
#    x 1.806130 0.000000 0.028870 
#    y 0.000000 1.861720 0.000000 
#    z 0.028870 0.000000 1.882740 
# 
# From -- ./inp_files/155860.got.cif
#   From: 2010.05.17/outbox.cif.g08.bks.cpg/sg15_78_cif.got.tgz:155860.got - 2010.06.03 18:47:42.
