data_PCOD9305256
_publ_section_title
;
Structure prediction by ZEFSAII (Michael W. Deem and Ramdas Pophale) SiO2 
 PCOD9305256
Probable space group: C 2/C
;
_chemical_formula_sum "Si O2"
_cell_formula_units_Z 48
_cell_length_a 31.573247
_cell_length_b 14.003423
_cell_length_c 13.959565
_cell_angle_alpha 90.000000
_cell_angle_beta 17.843730
_cell_angle_gamma 90.000000
_cell_volume 1891.233526
_symmetry_space_group_name_H-M "C 2/C"
_symmetry_group_IT_number 15
_symmetry_cell_setting 'monoclinic'
loop_
_space_group_symop_operation_xyz
x,y,z
-x,y,1/2-z
-x,-y,-z
x,-y,1/2+z
1/2+x,1/2+y,z
1/2-x,1/2+y,1/2-z
1/2-x,1/2-y,-z
1/2+x,1/2-y,1/2+z
loop_
_atom_site_type_symbol
_atom_site_label
_atom_site_fract_x
_atom_site_fract_y
_atom_site_fract_z
Si Si1 0.500000 0.017442 0.250000
Si Si2 0.035740 0.968375 0.529870
Si Si3 0.351440 0.340706 0.681413
Si Si4 0.297435 0.852478 0.687249
Si Si5 0.574585 0.140080 0.901569
Si Si6 0.000000 0.818130 0.750000
Si Si7 0.786980 0.361169 0.919521
O O1 0.445384 0.079963 0.457370
O O2 0.385494 0.942079 0.457940
O O3 0.185885 0.918390 0.206187
O O4 0.949832 0.888901 0.772929
O O5 0.051905 0.069592 0.543083
O O6 0.000000 0.000000 0.500000
O O7 0.278695 0.129725 0.969559
O O8 0.427707 0.252074 0.565550
O O9 0.204017 0.814475 0.803468
O O10 0.385475 0.758856 0.526126
O O11 0.249797 0.892257 0.891680
O O12 0.555164 0.878548 0.889337
O O13 0.750000 0.250000 0.000000
#
# Coordination Sequence:
#
# PCOD9305256 Si02
#       7
#     4   8   8   8   8   4   8
#     4  11  24  43  76 104 146 189 250 297 364 438
#     4  12  28  47  75 107 150 196 242 303 366 443
#     4  11  27  46  75 107 148 190 244 305 364 433
#     4  11  25  45  75 106 142 192 241 305 364 439
#     4  11  26  47  73 109 146 190 245 306 363 440
#     4  11  26  47  72 106 152 183 242 299 374 430
#     4  12  25  47  74 105 148 192 244 299 375 439
#
# _framework density 25.38026
#
# number of rings (size 3 to 8) (size 9 to 14) (size 15 to 20)
#    0.000    0.667    1.667    5.000    9.333    4.000 
#    0.000    0.000    0.000    0.000    0.000    0.000 
#    0.000    0.000    0.000    0.000    0.000    0.000 
#
# Total GULP energy -134283.690266 kJ/mol
# GULP energy per Si atom -5595.153761 kJ/mol
# Density = 2.532249 g / cm^3
# Si number density = 25.380260 Si / 1000 Ang^3
#
#
#
# Elastic Constant Matrix: (Units=GPa)
#
#
# Indices 1 2 3 4 5 6 
#
# 1 95.7471 7.3744 39.1901 0.0000 19.4565 0.0000
# 2 7.3744 144.5608 43.9327 0.0001 14.3147 0.0000
# 3 39.1901 43.9327 93.0610 0.0001 23.0581 0.0000
# 4 0.0000 0.0001 0.0001 35.8425 0.0000 16.0324
# 5 19.4565 14.3147 23.0581 0.0000 38.2689 0.0000
# 6 0.0000 0.0000 0.0000 16.0324 0.0000 39.4242
#
#
#
# Elastic Compliance Matrix: (Units=1/GPa)
#
#
# Indices 1 2 3 4 5 6 
#
# 1 0.013310 0.001310 -0.005202 0.000000 -0.004123 0.000000
# 2 0.001310 0.008229 -0.004125 0.000000 -0.001259 0.000000
# 3 -0.005202 -0.004125 0.016276 0.000000 -0.005619 0.000000
# 4 0.000000 0.000000 0.000000 0.034103 0.000000 -0.013869
# 5 -0.004123 -0.001259 -0.005619 0.000000 0.032083 0.000000
# 6 0.000000 0.000000 0.000000 -0.013869 0.000000 0.031005
#
#
# Mechanical properties :
#
#
# Convention : Reuss Voigt Hill
#
# Bulk Modulus (GPa) = 45.90990 57.15148 51.53069
# Shear Modulus (GPa) = 31.58551 38.89857 35.24204
#
# Velocity S-wave (km/s) = 3.53156 3.91913 3.73038
# Velocity P-wave (km/s) = 5.89553 6.56098 6.23714
#
# Compressibility (1/GPa) = 0.02178179
#
# Stress axis : x y z
#
# Youngs Moduli (GPa) = 75.12917 121.52449 61.44086
#
# Poissons Ratio (x) = -0.15923 0.31964
# Poissons Ratio (y) = -0.09844 0.25341
# Poissons Ratio (z) = 0.39085 0.50123
#
# Static dielectric constant tensor:
#      x y z
#    x 2.129140 0.000000 0.057130 
#    y 0.000000 1.939710 0.000000 
#    z 0.057130 0.000000 2.142010 
# 
# From -- ./inp_files/126838.got.cif
#   From: 2010.05.17/outbox.cif.g08.bks.cpg/sg15_64_cif.got.tgz:126838.got - 2010.06.03 18:47:42.
