data_PCOD9305318
_publ_section_title
;
Structure prediction by ZEFSAII (Michael W. Deem and Ramdas Pophale) SiO2 
 PCOD9305318
Probable space group: C 2/C
;
_chemical_formula_sum "Si O2"
_cell_formula_units_Z 52
_cell_length_a 11.385094
_cell_length_b 22.322686
_cell_length_c 9.947465
_cell_angle_alpha 90.000000
_cell_angle_beta 62.621153
_cell_angle_gamma 90.000000
_cell_volume 2244.921869
_symmetry_space_group_name_H-M "C 2/C"
_symmetry_group_IT_number 15
_symmetry_cell_setting 'monoclinic'
loop_
_space_group_symop_operation_xyz
x,y,z
-x,y,1/2-z
-x,-y,-z
x,-y,1/2+z
1/2+x,1/2+y,z
1/2-x,1/2+y,1/2-z
1/2-x,1/2-y,-z
1/2+x,1/2-y,1/2+z
loop_
_atom_site_type_symbol
_atom_site_label
_atom_site_fract_x
_atom_site_fract_y
_atom_site_fract_z
Si Si1 0.107892 0.434236 0.981294
Si Si2 0.000000 0.295227 0.750000
Si Si3 0.268575 0.007035 0.346930
Si Si4 0.393359 0.287047 0.081252
Si Si5 0.384711 0.814716 0.399200
Si Si6 0.665322 0.108825 0.992001
Si Si7 0.904398 0.908367 0.179058
O O1 0.819437 0.530499 0.176526
O O2 0.136614 0.466535 0.107800
O O3 0.158061 0.365821 0.972908
O O4 0.957347 0.426262 0.012087
O O5 0.912765 0.251457 0.704651
O O6 0.905311 0.336979 0.891818
O O7 0.143661 0.964615 0.382575
O O8 0.259770 0.066737 0.440401
O O9 0.241701 0.295767 0.118308
O O10 0.457602 0.352297 0.065323
O O11 0.447740 0.243107 0.937190
O O12 0.500000 0.843181 0.250000
O O13 0.772959 0.119504 0.820321
O O14 0.000000 0.925866 0.250000
#
# Coordination Sequence:
#
# PCOD9305318 Si02
#       7
#     8   4   8   8   8   8   8
#     4  12  24  42  74 113 143 183 246 314 381 430
#     4  12  24  44  76 112 138 188 254 308 372 432
#     4  12  25  44  72 107 147 188 243 307 370 440
#     4  11  24  44  69 101 147 187 246 301 356 449
#     4  11  24  44  71 105 144 194 240 306 378 436
#     4  12  25  43  75 110 144 184 246 317 375 432
#     4  12  28  46  68 101 148 207 240 294 370 452
#
# _framework density 23.16339
#
# number of rings (size 3 to 8) (size 9 to 14) (size 15 to 20)
#    0.000    0.308    6.923    1.385    2.154    2.462 
#    0.000    0.000    0.000    1.846    0.000    0.000 
#    0.000    0.000    0.000    0.000    0.000    0.000 
#
# Total GULP energy -145362.204509 kJ/mol
# GULP energy per Si atom -5590.854020 kJ/mol
# Density = 2.311067 g / cm^3
# Si number density = 23.163390 Si / 1000 Ang^3
#
#
#
# Elastic Constant Matrix: (Units=GPa)
#
#
# Indices 1 2 3 4 5 6 
#
# 1 103.0636 53.9732 21.1944 0.0000 42.0643 0.0000
# 2 53.9732 144.7217 36.3759 0.0000 27.4119 0.0000
# 3 21.1944 36.3759 58.6589 0.0000 19.6652 0.0000
# 4 0.0000 0.0000 0.0000 39.1344 0.0000 23.0417
# 5 42.0643 27.4119 19.6652 0.0000 38.9629 0.0000
# 6 0.0000 0.0000 0.0000 23.0417 0.0000 50.1213
#
#
#
# Elastic Compliance Matrix: (Units=1/GPa)
#
#
# Indices 1 2 3 4 5 6 
#
# 1 0.019056 -0.004042 0.001884 0.000000 -0.018680 0.000000
# 2 -0.004042 0.009552 -0.004421 0.000000 -0.000125 0.000000
# 3 0.001884 -0.004421 0.022566 0.000000 -0.010313 0.000000
# 4 0.000000 0.000000 0.000000 0.035036 0.000000 -0.016107
# 5 -0.018680 -0.000125 -0.010313 0.000000 0.051125 0.000000
# 6 0.000000 0.000000 0.000000 -0.016107 0.000000 0.027356
#
#
# Mechanical properties :
#
#
# Convention : Reuss Voigt Hill
#
# Bulk Modulus (GPa) = 26.30519 58.83680 42.57099
# Shear Modulus (GPa) = 26.24347 38.63711 32.44029
#
# Velocity S-wave (km/s) = 3.36962 4.08858 3.74638
# Velocity P-wave (km/s) = 5.14977 6.90974 6.09363
#
# Compressibility (1/GPa) = 0.03801532
#
# Stress axis : x y z
#
# Youngs Moduli (GPa) = 52.47610 104.68710 44.31440
#
# Poissons Ratio (x) = 0.42317 -0.08348
# Poissons Ratio (y) = 0.21212 0.19592
# Poissons Ratio (z) = -0.09885 0.46284
#
# Static dielectric constant tensor:
#      x y z
#    x 1.848730 0.000000 0.001840 
#    y 0.000000 1.892120 0.000000 
#    z 0.001840 0.000000 1.902310 
# 
# From -- ./inp_files/88828.got.cif
#   From: 2010.05.17/outbox.cif.g08.bks.cpg/sg15_45_cif.got.tgz:88828.got - 2010.06.03 18:47:42.
