data_PCOD9305772
_publ_section_title
;
Structure prediction by ZEFSAII (Michael W. Deem and Ramdas Pophale) SiO2 
 PCOD9305772
Probable space group: C 2/C
;
_chemical_formula_sum "Si O2"
_cell_formula_units_Z 36
_cell_length_a 7.886694
_cell_length_b 23.097938
_cell_length_c 8.266004
_cell_angle_alpha 90.000000
_cell_angle_beta 88.896036
_cell_angle_gamma 90.000000
_cell_volume 1505.508433
_symmetry_space_group_name_H-M "C 2/C"
_symmetry_group_IT_number 15
_symmetry_cell_setting 'monoclinic'
loop_
_space_group_symop_operation_xyz
x,y,z
-x,y,1/2-z
-x,-y,-z
x,-y,1/2+z
1/2+x,1/2+y,z
1/2-x,1/2+y,1/2-z
1/2-x,1/2-y,-z
1/2+x,1/2-y,1/2+z
loop_
_atom_site_type_symbol
_atom_site_label
_atom_site_fract_x
_atom_site_fract_y
_atom_site_fract_z
Si Si1 0.608809 0.845393 0.514577
Si Si2 0.138233 0.948590 0.492840
Si Si3 0.275739 0.666707 0.355319
Si Si4 0.000000 0.265166 0.250000
Si Si5 0.823069 0.458580 0.164988
O O1 0.406516 0.841187 0.554095
O O2 0.717943 0.829801 0.668865
O O3 0.623386 0.805226 0.355816
O O4 0.667073 0.909835 0.470254
O O5 0.113155 0.887858 0.583426
O O6 0.189250 0.941404 0.305858
O O7 0.288588 0.979261 0.589998
O O8 0.000000 0.000000 0.500000
O O9 0.390238 0.723755 0.369697
O O10 0.000000 0.458746 0.250000
#
# Coordination Sequence:
#
# PCOD9305772 Si02
#       5
#     8   8   8   4   8
#     4  11  24  47  71 104 137 192 244 290 346 435
#     4  12  27  45  68 109 146 188 232 303 366 424
#     4  11  26  44  72 104 143 185 240 295 361 421
#     4  12  24  46  72 104 144 184 236 302 362 412
#     4  12  24  44  73  98 140 186 246 286 353 433
#
# _framework density 23.912189000000001
#
# number of rings (size 3 to 8) (size 9 to 14) (size 15 to 20)
#    0.000    0.444    3.333    4.000    9.333    0.000 
#    0.000    0.000    0.000    0.000    0.000    0.000 
#    0.000    0.000    0.000    0.000    0.000    0.000 
#
# Total GULP energy -100721.103314 kJ/mol
# GULP energy per Si atom -5595.616851 kJ/mol
# Density = 2.385776 g / cm^3
# Si number density = 23.912189 Si / 1000 Ang^3
#
#
#
# Elastic Constant Matrix: (Units=GPa)
#
#
# Indices 1 2 3 4 5 6 
#
# 1 64.7473 -6.6882 -1.2515 0.0000 -9.6830 0.0000
# 2 -6.6882 102.7770 18.1198 0.0000 2.7143 0.0000
# 3 -1.2515 18.1198 75.5295 0.0000 -4.3074 0.0000
# 4 0.0000 0.0000 0.0000 48.5259 0.0000 -5.1669
# 5 -9.6830 2.7143 -4.3074 0.0000 34.9604 0.0000
# 6 0.0000 0.0000 0.0000 -5.1669 0.0000 22.8437
#
#
#
# Elastic Compliance Matrix: (Units=1/GPa)
#
#
# Indices 1 2 3 4 5 6 
#
# 1 0.016209 0.000882 0.000311 0.000000 0.004459 0.000000
# 2 0.000882 0.010249 -0.002493 0.000000 -0.000859 0.000000
# 3 0.000311 -0.002493 0.013957 0.000000 0.001999 0.000000
# 4 0.000000 0.000000 0.000000 0.021116 0.000000 0.004776
# 5 0.004459 -0.000859 0.001999 0.000000 0.030152 0.000000
# 6 0.000000 0.000000 0.000000 0.004776 0.000000 0.044856
#
#
# Mechanical properties :
#
#
# Convention : Reuss Voigt Hill
#
# Bulk Modulus (GPa) = 26.44410 29.26822 27.85616
# Shear Modulus (GPa) = 32.95018 36.79090 34.87054
#
# Velocity S-wave (km/s) = 3.71612 3.92673 3.82288
# Velocity P-wave (km/s) = 5.43099 5.72935 5.58216
#
# Compressibility (1/GPa) = 0.03781562
#
# Stress axis : x y z
#
# Youngs Moduli (GPa) = 61.69539 97.56631 71.64774
#
# Poissons Ratio (x) = -0.08607 -0.02230
# Poissons Ratio (y) = -0.05442 0.17863
# Poissons Ratio (z) = -0.01920 0.24325
#
# Static dielectric constant tensor:
#      x y z
#    x 1.992510 0.000000 -0.049210 
#    y 0.000000 1.913380 0.000000 
#    z -0.049210 0.000000 1.926430 
# 
# From -- ./inp_files/23095.got.cif
#   From: 2010.05.17/outbox.cif.g08.bks.cpg/sg15_12_cif.got.tgz:23095.got - 2010.06.03 18:47:42.
