data_PCOD9305395
_publ_section_title
;
Structure prediction by ZEFSAII (Michael W. Deem and Ramdas Pophale) SiO2 
 PCOD9305395
Probable space group: C 2/C
;
_chemical_formula_sum "Si O2"
_cell_formula_units_Z 40
_cell_length_a 10.356084
_cell_length_b 18.119878
_cell_length_c 12.219864
_cell_angle_alpha 90.000000
_cell_angle_beta 125.296298
_cell_angle_gamma 90.000000
_cell_volume 1871.545777
_symmetry_space_group_name_H-M "C 2/C"
_symmetry_group_IT_number 15
_symmetry_cell_setting 'monoclinic'
loop_
_space_group_symop_operation_xyz
x,y,z
-x,y,1/2-z
-x,-y,-z
x,-y,1/2+z
1/2+x,1/2+y,z
1/2-x,1/2+y,1/2-z
1/2-x,1/2-y,-z
1/2+x,1/2-y,1/2+z
loop_
_atom_site_type_symbol
_atom_site_label
_atom_site_fract_x
_atom_site_fract_y
_atom_site_fract_z
Si Si1 0.315006 0.360725 0.197751
Si Si2 0.820465 0.172604 0.068367
Si Si3 0.324883 0.536267 0.907895
Si Si4 0.813237 0.203969 0.292912
Si Si5 0.162203 0.388584 0.892504
O O1 0.500000 0.353356 0.250000
O O2 0.306613 0.427637 0.279707
O O3 0.256544 0.285894 0.229396
O O4 0.302432 0.123914 0.962215
O O5 0.747841 0.160574 0.154418
O O6 0.004042 0.194106 0.144369
O O7 0.750000 0.250000 0.000000
O O8 0.799551 0.101711 0.982668
O O9 0.204446 0.471464 0.878583
O O10 0.500000 0.500000 0.000000
O O11 0.786400 0.164775 0.394022
O O12 0.000000 0.368213 0.750000
#
# Coordination Sequence:
#
# PCOD9305395 Si02
#       5
#     8   8   8   8   8
#     4  12  25  46  78 104 146 195 246 301 378 455
#     4  11  24  44  73 105 143 195 247 304 365 442
#     4  12  25  48  73 107 148 201 247 302 382 449
#     4  11  25  44  71 108 148 190 248 309 370 444
#     4  12  29  45  73 109 149 192 247 313 373 444
#
# _framework density 21.372706999999998
#
# number of rings (size 3 to 8) (size 9 to 14) (size 15 to 20)
#    0.000    0.400    6.000    1.200    5.600    2.400 
#    0.000    0.000    0.000    0.000    0.000    0.000 
#    0.000    0.000    0.000    0.000    0.000    0.000 
#
# Total GULP energy -111563.040642 kJ/mol
# GULP energy per Si atom -5578.152032 kJ/mol
# Density = 2.132406 g / cm^3
# Si number density = 21.372707 Si / 1000 Ang^3
#
#
#
# Elastic Constant Matrix: (Units=GPa)
#
#
# Indices 1 2 3 4 5 6 
#
# 1 49.9026 13.1294 38.2691 0.0000 -21.4515 0.0000
# 2 13.1294 89.8309 23.6952 0.0000 -15.5221 0.0000
# 3 38.2691 23.6952 124.6765 0.0000 -30.5664 0.0000
# 4 0.0000 0.0000 0.0000 49.8267 0.0000 -5.8912
# 5 -21.4515 -15.5221 -30.5664 0.0000 38.5575 0.0000
# 6 0.0000 0.0000 0.0000 -5.8912 0.0000 43.6830
#
#
#
# Elastic Compliance Matrix: (Units=1/GPa)
#
#
# Indices 1 2 3 4 5 6 
#
# 1 0.029928 -0.000757 -0.006250 0.000000 0.011391 0.000000
# 2 -0.000757 0.012171 -0.001220 0.000000 0.003511 0.000000
# 3 -0.006250 -0.001220 0.011417 0.000000 0.005083 0.000000
# 4 0.000000 0.000000 0.000000 0.020395 0.000000 0.002750
# 5 0.011391 0.003511 0.005083 0.000000 0.037716 0.000000
# 6 0.000000 0.000000 0.000000 0.002750 0.000000 0.023263
#
#
# Mechanical properties :
#
#
# Convention : Reuss Voigt Hill
#
# Bulk Modulus (GPa) = 26.98160 46.06635 36.52398
# Shear Modulus (GPa) = 30.54425 39.03453 34.78939
#
# Velocity S-wave (km/s) = 3.78448 4.27824 4.03891
# Velocity P-wave (km/s) = 5.63454 6.78271 6.23511
#
# Compressibility (1/GPa) = 0.03706230
#
# Stress axis : x y z
#
# Youngs Moduli (GPa) = 33.41400 82.16096 87.58867
#
# Poissons Ratio (x) = 0.06222 0.54739
# Poissons Ratio (y) = 0.02531 0.10684
# Poissons Ratio (z) = 0.20882 0.10022
#
# Static dielectric constant tensor:
#      x y z
#    x 1.822330 0.000000 -0.104500 
#    y 0.000000 1.762300 0.000000 
#    z -0.104500 0.000000 2.196810 
# 
# From -- ./inp_files/143941.got.cif
#   From: 2010.05.17/outbox.cif.g08.bks.cpg/sg15_72_cif.got.tgz:143941.got - 2010.06.03 18:47:42.
