data_PCOD9305458
_publ_section_title
;
Structure prediction by ZEFSAII (Michael W. Deem and Ramdas Pophale) SiO2 
 PCOD9305458
Probable space group: C 2/C
;
_chemical_formula_sum "Si O2"
_cell_formula_units_Z 56
_cell_length_a 14.310291
_cell_length_b 7.478164
_cell_length_c 24.334282
_cell_angle_alpha 90.000000
_cell_angle_beta 109.763538
_cell_angle_gamma 90.000000
_cell_volume 2450.732903
_symmetry_space_group_name_H-M "C 2/C"
_symmetry_group_IT_number 15
_symmetry_cell_setting 'monoclinic'
loop_
_space_group_symop_operation_xyz
x,y,z
-x,y,1/2-z
-x,-y,-z
x,-y,1/2+z
1/2+x,1/2+y,z
1/2-x,1/2+y,1/2-z
1/2-x,1/2-y,-z
1/2+x,1/2-y,1/2+z
loop_
_atom_site_type_symbol
_atom_site_label
_atom_site_fract_x
_atom_site_fract_y
_atom_site_fract_z
Si Si1 0.290622 0.486390 0.356659
Si Si2 0.621189 0.217593 0.705182
Si Si3 0.787576 0.908409 0.573545
Si Si4 0.407221 0.062719 0.636828
Si Si5 0.250601 0.403206 0.685469
Si Si6 0.388071 0.439684 0.989187
Si Si7 0.598421 0.961801 0.986114
O O1 0.352387 0.638771 0.337512
O O2 0.171234 0.524742 0.336287
O O3 0.307160 0.285423 0.336253
O O4 0.325067 0.483989 0.426592
O O5 0.511529 0.134897 0.680072
O O6 0.650143 0.330628 0.765111
O O7 0.694496 0.047588 0.711476
O O8 0.846066 0.733819 0.603566
O O9 0.766173 0.992810 0.629062
O O10 0.857130 0.003062 0.543672
O O11 0.682774 0.897416 0.520709
O O12 0.421839 0.954429 0.582986
O O13 0.367478 0.229263 0.985460
O O14 0.500000 0.500000 0.000000
O O15 0.500000 0.000000 0.000000
#
# Coordination Sequence:
#
# PCOD9305458 Si02
#       7
#     8   8   8   8   8   8   8
#     4  11  25  47  72 106 149 197 241 317 372 450
#     4  12  25  53  72 110 141 201 260 310 382 453
#     4  11  24  45  68 106 146 187 239 307 370 451
#     4  11  26  43  76 103 147 191 244 311 376 454
#     4  11  26  45  81  96 150 195 251 320 372 452
#     4  12  26  42  71 108 153 192 244 300 382 459
#     4  12  24  41  69 109 145 198 239 302 382 454
#
# _framework density 22.850307000000001
#
# number of rings (size 3 to 8) (size 9 to 14) (size 15 to 20)
#    0.000    0.571    2.857    5.143   10.000    2.286 
#    0.000    0.000    6.286    0.000    0.000    0.000 
#    0.000    0.000    0.000    0.000    0.000    0.000 
#
# Total GULP energy -156492.876009 kJ/mol
# GULP energy per Si atom -5589.031286 kJ/mol
# Density = 2.279830 g / cm^3
# Si number density = 22.850307 Si / 1000 Ang^3
#
#
#
# Elastic Constant Matrix: (Units=GPa)
#
#
# Indices 1 2 3 4 5 6 
#
# 1 130.5986 6.7396 35.8481 0.0000 8.3845 0.0000
# 2 6.7396 77.2178 16.0060 0.0000 4.1458 0.0000
# 3 35.8481 16.0060 123.8067 0.0000 0.4018 0.0000
# 4 0.0000 0.0000 0.0000 42.2928 0.0000 -6.8711
# 5 8.3845 4.1458 0.4018 0.0000 46.2070 0.0000
# 6 0.0000 0.0000 0.0000 -6.8711 0.0000 29.0332
#
#
#
# Elastic Compliance Matrix: (Units=1/GPa)
#
#
# Indices 1 2 3 4 5 6 
#
# 1 0.008424 -0.000155 -0.002414 0.000000 -0.001494 0.000000
# 2 -0.000155 0.013374 -0.001681 0.000000 -0.001157 0.000000
# 3 -0.002414 -0.001681 0.008992 0.000000 0.000511 0.000000
# 4 0.000000 0.000000 0.000000 0.024590 0.000000 0.005820
# 5 -0.001494 -0.001157 0.000511 0.000000 0.022012 0.000000
# 6 0.000000 0.000000 0.000000 0.005820 0.000000 0.035821
#
#
# Mechanical properties :
#
#
# Convention : Reuss Voigt Hill
#
# Bulk Modulus (GPa) = 44.86114 49.86783 47.36448
# Shear Modulus (GPa) = 38.71720 41.70858 40.21289
#
# Velocity S-wave (km/s) = 4.12076 4.27698 4.19960
# Velocity P-wave (km/s) = 6.50508 6.80156 6.65497
#
# Compressibility (1/GPa) = 0.02229101
#
# Stress axis : x y z
#
# Youngs Moduli (GPa) = 118.71407 74.76992 111.21312
#
# Poissons Ratio (x) = 0.01156 0.26849
# Poissons Ratio (y) = 0.01835 0.18690
# Poissons Ratio (z) = 0.28660 0.12565
#
# Static dielectric constant tensor:
#      x y z
#    x 1.888460 0.000000 -0.062680 
#    y 0.000000 1.890220 0.000000 
#    z -0.062680 0.000000 1.930480 
# 
# From -- ./inp_files/272838.got.cif
#   From: 2010.05.17/outbox.cif.g08.bks.cpg/sg15_137_cif.got.tgz:272838.got - 2010.06.03 18:47:42.
