data_PCOD9305411
_publ_section_title
;
Structure prediction by ZEFSAII (Michael W. Deem and Ramdas Pophale) SiO2 
 PCOD9305411
Probable space group: C 2/C
;
_chemical_formula_sum "Si O2"
_cell_formula_units_Z 40
_cell_length_a 26.867949
_cell_length_b 10.496541
_cell_length_c 13.763231
_cell_angle_alpha 90.000000
_cell_angle_beta 151.428120
_cell_angle_gamma 90.000000
_cell_volume 1856.376217
_symmetry_space_group_name_H-M "C 2/C"
_symmetry_group_IT_number 15
_symmetry_cell_setting 'monoclinic'
loop_
_space_group_symop_operation_xyz
x,y,z
-x,y,1/2-z
-x,-y,-z
x,-y,1/2+z
1/2+x,1/2+y,z
1/2-x,1/2+y,1/2-z
1/2-x,1/2-y,-z
1/2+x,1/2-y,1/2+z
loop_
_atom_site_type_symbol
_atom_site_label
_atom_site_fract_x
_atom_site_fract_y
_atom_site_fract_z
Si Si1 0.454035 0.631195 0.959726
Si Si2 0.898665 0.185680 0.647710
Si Si3 0.807554 0.940414 0.387792
Si Si4 0.851242 0.276275 0.110237
Si Si5 0.376590 0.040629 0.053938
O O1 0.542672 0.721022 0.160231
O O2 0.500000 0.500000 0.000000
O O3 0.416287 0.691031 0.793460
O O4 0.372513 0.580399 0.900085
O O5 0.842659 0.318735 0.529379
O O6 0.000000 0.187779 0.750000
O O7 0.845919 0.054537 0.523126
O O8 0.827897 0.807623 0.475536
O O9 0.689926 0.975410 0.157831
O O10 0.855225 0.424508 0.089824
O O11 0.750000 0.250000 0.000000
O O12 0.500000 0.039515 0.250000
#
# Coordination Sequence:
#
# PCOD9305411 Si02
#       5
#     8   8   8   8   8
#     4  12  23  44  77 105 138 186 248 288 356 432
#     4  11  24  44  74 105 141 185 237 299 354 429
#     4  12  24  47  75 102 140 193 245 290 356 447
#     4  12  27  47  73 105 143 194 238 297 356 432
#     4  11  27  46  69 106 148 182 228 305 372 415
#
# _framework density 21.547356000000001
#
# number of rings (size 3 to 8) (size 9 to 14) (size 15 to 20)
#    0.000    0.400    4.000    4.200    5.600    1.600 
#    3.600    0.000    0.000    0.000    0.000    0.000 
#    0.000    0.000    0.000    0.000    0.000    0.000 
#
# Total GULP energy -111679.408662 kJ/mol
# GULP energy per Si atom -5583.970433 kJ/mol
# Density = 2.149831 g / cm^3
# Si number density = 21.547356 Si / 1000 Ang^3
#
#
#
# Elastic Constant Matrix: (Units=GPa)
#
#
# Indices 1 2 3 4 5 6 
#
# 1 96.0121 -0.7210 25.4818 0.0000 -10.4166 0.0000
# 2 -0.7210 73.4926 -13.8032 0.0000 -1.9381 0.0000
# 3 25.4818 -13.8032 113.1705 0.0000 -3.9460 0.0000
# 4 0.0000 0.0000 0.0000 -8.5811 0.0000 8.2171
# 5 -10.4166 -1.9381 -3.9460 0.0000 30.2718 0.0000
# 6 0.0000 0.0000 0.0000 8.2171 0.0000 -16.0098
#
#
#
# Elastic Compliance Matrix: (Units=1/GPa)
#
#
# Indices 1 2 3 4 5 6 
#
# 1 0.011465 -0.000260 -0.002487 0.000000 0.003604 0.000000
# 2 -0.000260 0.013969 0.001799 0.000000 0.001039 0.000000
# 3 -0.002487 0.001799 0.009634 0.000000 0.000515 0.000000
# 4 0.000000 0.000000 0.000000 -0.229165 0.000000 -0.117619
# 5 0.003604 0.001039 0.000515 0.000000 0.034408 0.000000
# 6 0.000000 0.000000 0.000000 -0.117619 0.000000 -0.122830
#
#
# Mechanical properties :
#
#
# Convention : Reuss Voigt Hill
#
# Bulk Modulus (GPa) = 30.14712 33.84336 31.99524
# Shear Modulus (GPa) = -18.54837 19.25068 0.35115
#
# Velocity S-wave (km/s) = -2.93715 2.99224 0.40413
# Velocity P-wave (km/s) = 1.58713 5.26105 3.88572
#
# Compressibility (1/GPa) = 0.03317066
#
# Stress axis : x y z
#
# Youngs Moduli (GPa) = 87.22510 71.58461 103.80317
#
# Poissons Ratio (x) = 0.01859 0.25820
# Poissons Ratio (y) = 0.02265 -0.18669
# Poissons Ratio (z) = 0.21696 -0.12875
#
# Static dielectric constant tensor:
#      x y z
#    x 1.859680 0.000000 -0.246300 
#    y 0.000000 1.686750 0.000000 
#    z -0.246300 0.000000 2.259690 
# 
# From -- ./inp_files/122848.got.cif
#   From: 2010.05.17/outbox.cif.g08.bks.cpg/sg15_62_cif.got.tgz:122848.got - 2010.06.03 18:47:42.
