data_PCOD9305176
_publ_section_title
;
Structure prediction by ZEFSAII (Michael W. Deem and Ramdas Pophale) SiO2 
 PCOD9305176
Probable space group: C 2/C
;
_chemical_formula_sum "Si O2"
_cell_formula_units_Z 32
_cell_length_a 8.046561
_cell_length_b 12.313491
_cell_length_c 13.681314
_cell_angle_alpha 90.000000
_cell_angle_beta 97.111472
_cell_angle_gamma 90.000000
_cell_volume 1345.133675
_symmetry_space_group_name_H-M "C 2/C"
_symmetry_group_IT_number 15
_symmetry_cell_setting 'monoclinic'
loop_
_space_group_symop_operation_xyz
x,y,z
-x,y,1/2-z
-x,-y,-z
x,-y,1/2+z
1/2+x,1/2+y,z
1/2-x,1/2+y,1/2-z
1/2-x,1/2-y,-z
1/2+x,1/2-y,1/2+z
loop_
_atom_site_type_symbol
_atom_site_label
_atom_site_fract_x
_atom_site_fract_y
_atom_site_fract_z
Si Si1 0.395972 0.301870 0.139516
Si Si2 0.731567 0.020997 0.170599
Si Si3 0.160580 0.438072 0.885293
Si Si4 0.159307 0.866054 0.994720
O O1 0.500000 0.282844 0.250000
O O2 0.263738 0.394995 0.153070
O O3 0.240933 0.538933 0.286096
O O4 0.511861 0.349448 0.061522
O O5 0.459467 0.050364 0.369175
O O6 0.684079 0.810242 0.902608
O O7 0.860509 0.096014 0.119025
O O8 0.233588 0.531041 0.959235
O O9 0.250000 0.750000 0.000000
#
# Coordination Sequence:
#
# PCOD9305176 Si02
#       4
#     8   8   8   8
#     4  12  23  45  68  97 141 177 220 280 329 391
#     4  11  24  43  67 101 131 178 224 274 331 393
#     4  11  24  46  68  97 138 175 224 272 336 396
#     4  12  24  45  73  97 136 177 224 274 335 398
#
# _framework density 23.789458
#
# number of rings (size 3 to 8) (size 9 to 14) (size 15 to 20)
#    0.000    0.500    7.500    1.500    0.000    1.000 
#    4.500    0.000    0.000    0.000    0.000    0.000 
#    0.000    0.000    0.000    0.000    0.000    0.000 
#
# Total GULP energy -89555.599073 kJ/mol
# GULP energy per Si atom -5597.224942 kJ/mol
# Density = 2.373531 g / cm^3
# Si number density = 23.789458 Si / 1000 Ang^3
#
#
#
# Elastic Constant Matrix: (Units=GPa)
#
#
# Indices 1 2 3 4 5 6 
#
# 1 50.3287 45.6378 43.1248 0.0000 -15.8481 0.0000
# 2 45.6378 221.8070 41.3403 0.0000 -5.8471 0.0000
# 3 43.1248 41.3403 149.0210 0.0000 -33.7902 0.0000
# 4 0.0000 0.0000 0.0000 47.5962 0.0000 -9.8528
# 5 -15.8481 -5.8471 -33.7902 0.0000 33.3195 0.0000
# 6 0.0000 0.0000 0.0000 -9.8528 0.0000 47.7651
#
#
#
# Elastic Compliance Matrix: (Units=1/GPa)
#
#
# Indices 1 2 3 4 5 6 
#
# 1 0.032533 -0.005350 -0.006019 0.000000 0.008431 0.000000
# 2 -0.005350 0.005645 -0.000481 0.000000 -0.002041 0.000000
# 3 -0.006019 -0.000481 0.010282 0.000000 0.007480 0.000000
# 4 0.000000 0.000000 0.000000 0.021947 0.000000 0.004527
# 5 0.008431 -0.002041 0.007480 0.000000 0.041250 0.000000
# 6 0.000000 0.000000 0.000000 0.004527 0.000000 0.021870
#
#
# Mechanical properties :
#
#
# Convention : Reuss Voigt Hill
#
# Bulk Modulus (GPa) = 40.38627 75.70694 58.04660
# Shear Modulus (GPa) = 30.21557 45.13977 37.67767
#
# Velocity S-wave (km/s) = 3.56775 4.36072 3.98401
# Velocity P-wave (km/s) = 5.82968 7.56620 6.75398
#
# Compressibility (1/GPa) = 0.02476089
#
# Stress axis : x y z
#
# Youngs Moduli (GPa) = 30.73841 177.15001 97.26164
#
# Poissons Ratio (x) = 0.94770 0.58538
# Poissons Ratio (y) = 0.16444 0.04676
# Poissons Ratio (z) = 0.18500 0.08516
#
# Static dielectric constant tensor:
#      x y z
#    x 1.956200 0.000000 0.054060 
#    y 0.000000 1.835550 0.000000 
#    z 0.054060 0.000000 1.964780 
# 
# From -- ./inp_files/61351.got.cif
#   From: 2010.05.17/outbox.cif.g08.bks.cpg/sg15_31_cif.got.tgz:61351.got - 2010.06.03 18:47:42.
