data_PCOD9305359
_publ_section_title
;
Structure prediction by ZEFSAII (Michael W. Deem and Ramdas Pophale) SiO2 
 PCOD9305359
Probable space group: C 2/C
;
_chemical_formula_sum "Si O2"
_cell_formula_units_Z 36
_cell_length_a 7.205417
_cell_length_b 23.219785
_cell_length_c 8.989851
_cell_angle_alpha 90.000000
_cell_angle_beta 114.476029
_cell_angle_gamma 90.000000
_cell_volume 1368.911823
_symmetry_space_group_name_H-M "C 2/C"
_symmetry_group_IT_number 15
_symmetry_cell_setting 'monoclinic'
loop_
_space_group_symop_operation_xyz
x,y,z
-x,y,1/2-z
-x,-y,-z
x,-y,1/2+z
1/2+x,1/2+y,z
1/2-x,1/2+y,1/2-z
1/2-x,1/2-y,-z
1/2+x,1/2-y,1/2+z
loop_
_atom_site_type_symbol
_atom_site_label
_atom_site_fract_x
_atom_site_fract_y
_atom_site_fract_z
Si Si1 0.846892 0.472221 0.830570
Si Si2 0.571294 0.343886 0.079284
Si Si3 0.500000 0.166433 0.750000
Si Si4 0.500000 0.438089 0.250000
Si Si5 0.027463 0.720887 0.421881
Si Si6 0.000000 0.119846 0.250000
O O1 0.671083 0.519887 0.740869
O O2 0.703109 0.418833 0.829138
O O3 0.000000 0.456649 0.750000
O O4 0.000000 0.500000 0.000000
O O5 0.422604 0.390759 0.104444
O O6 0.608030 0.278715 0.141921
O O7 0.793832 0.369915 0.178397
O O8 0.495701 0.339925 0.889151
O O9 0.490952 0.194230 0.575607
O O10 0.250000 0.750000 0.500000
O O11 0.000000 0.689599 0.250000
#
# Coordination Sequence:
#
# PCOD9305359 Si02
#       6
#     8   8   4   4   8   4
#     4  11  24  46  73 101 146 190 234 296 379 444
#     4  12  25  46  69 106 144 184 250 305 360 445
#     4  12  27  46  75 104 148 208 243 308 381 442
#     4  11  24  44  71 104 144 182 241 302 360 441
#     4  12  25  48  72 105 148 200 249 307 375 437
#     4  11  27  44  70 112 144 186 244 310 359 451
#
# _framework density 26.298259999999999
#
# number of rings (size 3 to 8) (size 9 to 14) (size 15 to 20)
#    0.000    0.444    3.333    4.000    7.778    3.556 
#    4.000    0.000    0.000    0.000    0.000    0.000 
#    0.000    0.000    0.000    0.000    0.000    0.000 
#
# Total GULP energy -100357.630429 kJ/mol
# GULP energy per Si atom -5575.423913 kJ/mol
# Density = 2.623840 g / cm^3
# Si number density = 26.298260 Si / 1000 Ang^3
#
#
#
# Elastic Constant Matrix: (Units=GPa)
#
#
# Indices 1 2 3 4 5 6 
#
# 1 139.5422 18.3276 28.4793 0.0000 -7.0798 0.0000
# 2 18.3276 86.4797 21.7707 0.0000 -18.3448 0.0000
# 3 28.4793 21.7707 162.4195 0.0000 -26.9192 0.0000
# 4 0.0000 0.0000 0.0000 40.4353 0.0000 -3.4549
# 5 -7.0798 -18.3448 -26.9192 0.0000 48.7867 0.0000
# 6 0.0000 0.0000 0.0000 -3.4549 0.0000 28.0044
#
#
#
# Elastic Compliance Matrix: (Units=1/GPa)
#
#
# Indices 1 2 3 4 5 6 
#
# 1 0.007574 -0.001322 -0.001157 0.000000 -0.000036 0.000000
# 2 -0.001322 0.012943 -0.000802 0.000000 0.004233 0.000000
# 3 -0.001157 -0.000802 0.007033 0.000000 0.003411 0.000000
# 4 0.000000 0.000000 0.000000 0.024994 0.000000 0.003084
# 5 -0.000036 0.004233 0.003411 0.000000 0.023966 0.000000
# 6 0.000000 0.000000 0.000000 0.003084 0.000000 0.036089
#
#
# Mechanical properties :
#
#
# Convention : Reuss Voigt Hill
#
# Bulk Modulus (GPa) = 47.64273 58.39963 53.02118
# Shear Modulus (GPa) = 39.63343 44.76953 42.20148
#
# Velocity S-wave (km/s) = 3.88632 4.13046 4.01025
# Velocity P-wave (km/s) = 6.18818 6.70839 6.45353
#
# Compressibility (1/GPa) = 0.02098956
#
# Stress axis : x y z
#
# Youngs Moduli (GPa) = 132.02796 77.26071 142.19591
#
# Poissons Ratio (x) = 0.10211 0.16451
# Poissons Ratio (y) = 0.17449 0.11399
# Poissons Ratio (z) = 0.15275 0.06193
#
# Static dielectric constant tensor:
#      x y z
#    x 2.529350 0.000000 -0.023460 
#    y 0.000000 2.106860 0.000000 
#    z -0.023460 0.000000 2.292820 
# 
# From -- ./inp_files/24712.got.cif
#   From: 2010.05.17/outbox.cif.g08.bks.cpg/sg15_13_cif.got.tgz:24712.got - 2010.06.03 18:47:42.
