data_PCOD9305791
_publ_section_title
;
Structure prediction by ZEFSAII (Michael W. Deem and Ramdas Pophale) SiO2 
 PCOD9305791
Probable space group: C 2/C
;
_chemical_formula_sum "Si O2"
_cell_formula_units_Z 40
_cell_length_a 8.125820
_cell_length_b 17.370333
_cell_length_c 12.170699
_cell_angle_alpha 90.000000
_cell_angle_beta 104.273295
_cell_angle_gamma 90.000000
_cell_volume 1664.842820
_symmetry_space_group_name_H-M "C 2/C"
_symmetry_group_IT_number 15
_symmetry_cell_setting 'monoclinic'
loop_
_space_group_symop_operation_xyz
x,y,z
-x,y,1/2-z
-x,-y,-z
x,-y,1/2+z
1/2+x,1/2+y,z
1/2-x,1/2+y,1/2-z
1/2-x,1/2-y,-z
1/2+x,1/2-y,1/2+z
loop_
_atom_site_type_symbol
_atom_site_label
_atom_site_fract_x
_atom_site_fract_y
_atom_site_fract_z
Si Si1 0.249898 0.343896 0.005722
Si Si2 0.138171 0.112569 0.533469
Si Si3 0.806477 0.693912 0.761668
Si Si4 0.158022 0.527349 0.339655
Si Si5 0.800919 0.857591 0.699280
O O1 0.434879 0.375454 0.997897
O O2 0.213910 0.352714 0.129400
O O3 0.250000 0.250000 0.000000
O O4 0.122402 0.398683 0.914186
O O5 0.194520 0.159213 0.648095
O O6 0.221351 0.144346 0.435141
O O7 0.220029 0.029362 0.572727
O O8 0.741104 0.782310 0.755305
O O9 0.000000 0.695355 0.750000
O O10 0.242766 0.565515 0.247465
O O11 0.000000 0.487682 0.250000
O O12 0.000000 0.857502 0.750000
#
# Coordination Sequence:
#
# PCOD9305791 Si02
#       5
#     8   8   8   8   8
#     4  12  25  48  77 112 150 202 264 316 381 460
#     4  12  27  47  76 109 157 206 249 323 394 455
#     4  11  25  45  73 114 149 202 259 319 385 458
#     4  12  29  47  75 115 156 203 255 322 388 463
#     4  11  24  47  72 106 156 198 257 314 387 454
#
# _framework density 24.026292000000002
#
# number of rings (size 3 to 8) (size 9 to 14) (size 15 to 20)
#    0.000    0.400    4.000    3.600    8.400    0.800 
#    0.000    0.000    0.000    0.000    0.000    0.000 
#    0.000    0.000    0.000    0.000    0.000    0.000 
#
# Total GULP energy -111687.046849 kJ/mol
# GULP energy per Si atom -5584.352342 kJ/mol
# Density = 2.397161 g / cm^3
# Si number density = 24.026292 Si / 1000 Ang^3
#
#
#
# Elastic Constant Matrix: (Units=GPa)
#
#
# Indices 1 2 3 4 5 6 
#
# 1 42.1668 21.3408 22.2821 0.0000 -1.7159 0.0000
# 2 21.3408 112.6462 10.9328 0.0000 7.4729 0.0000
# 3 22.2821 10.9328 140.4791 0.0000 -13.8776 0.0000
# 4 0.0000 0.0000 0.0000 44.4439 0.0000 0.4469
# 5 -1.7159 7.4729 -13.8776 0.0000 41.6420 0.0000
# 6 0.0000 0.0000 0.0000 0.4469 0.0000 29.7716
#
#
#
# Elastic Compliance Matrix: (Units=1/GPa)
#
#
# Indices 1 2 3 4 5 6 
#
# 1 0.028435 -0.005043 -0.004046 0.000000 0.000728 0.000000
# 2 -0.005043 0.009987 -0.000181 0.000000 -0.002060 0.000000
# 3 -0.004046 -0.000181 0.008025 0.000000 0.002540 0.000000
# 4 0.000000 0.000000 0.000000 0.022504 0.000000 -0.000338
# 5 0.000728 -0.002060 0.002540 0.000000 0.025261 0.000000
# 6 0.000000 0.000000 0.000000 -0.000338 0.000000 0.033594
#
#
# Mechanical properties :
#
#
# Convention : Reuss Voigt Hill
#
# Bulk Modulus (GPa) = 35.83155 44.93373 40.38264
# Shear Modulus (GPa) = 32.12396 39.22060 35.67228
#
# Velocity S-wave (km/s) = 3.66051 4.04468 3.85738
# Velocity P-wave (km/s) = 5.72815 6.36829 6.05668
#
# Compressibility (1/GPa) = 0.02790836
#
# Stress axis : x y z
#
# Youngs Moduli (GPa) = 35.16794 100.13102 124.60668
#
# Poissons Ratio (x) = 0.50493 0.50414
# Poissons Ratio (y) = 0.17734 0.02254
# Poissons Ratio (z) = 0.14228 0.01812
#
# Static dielectric constant tensor:
#      x y z
#    x 2.171800 0.000000 0.037010 
#    y 0.000000 2.119660 0.000000 
#    z 0.037010 0.000000 1.919310 
# 
# From -- ./inp_files/76913.got.cif
#   From: 2010.05.17/outbox.cif.g08.bks.cpg/sg15_39_cif.got.tgz:76913.got - 2010.06.03 18:47:42.
