data_PCOD9305451
_publ_section_title
;
Structure prediction by ZEFSAII (Michael W. Deem and Ramdas Pophale) SiO2 
 PCOD9305451
Probable space group: C 2/C
;
_chemical_formula_sum "Si O2"
_cell_formula_units_Z 48
_cell_length_a 27.060973
_cell_length_b 5.303040
_cell_length_c 14.554325
_cell_angle_alpha 90.000000
_cell_angle_beta 61.049475
_cell_angle_gamma 90.000000
_cell_volume 1827.625884
_symmetry_space_group_name_H-M "C 2/C"
_symmetry_group_IT_number 15
_symmetry_cell_setting 'monoclinic'
loop_
_space_group_symop_operation_xyz
x,y,z
-x,y,1/2-z
-x,-y,-z
x,-y,1/2+z
1/2+x,1/2+y,z
1/2-x,1/2+y,1/2-z
1/2-x,1/2-y,-z
1/2+x,1/2-y,1/2+z
loop_
_atom_site_type_symbol
_atom_site_label
_atom_site_fract_x
_atom_site_fract_y
_atom_site_fract_z
Si Si1 0.177417 0.392477 0.855982
Si Si2 0.996573 0.099750 0.901534
Si Si3 0.336643 0.881559 0.950830
Si Si4 0.274509 0.134594 0.853090
Si Si5 0.626928 0.450488 0.247555
Si Si6 0.047164 0.609070 0.632183
O O1 0.211693 0.235968 0.900578
O O2 0.222113 0.447468 0.736112
O O3 0.133655 0.235955 0.832270
O O4 0.163322 0.626974 0.937395
O O5 0.972012 0.383084 0.919484
O O6 0.058747 0.042309 0.802904
O O7 0.954588 0.896971 0.895708
O O8 0.000000 0.000000 0.000000
O O9 0.284326 0.999070 0.940965
O O10 0.391262 0.056490 0.885916
O O11 0.351633 0.652610 0.869909
O O12 0.328668 0.317079 0.780673
O O13 0.000000 0.570812 0.750000
#
# Coordination Sequence:
#
# PCOD9305451 Si02
#       6
#     8   8   8   8   8   8
#     4  11  24  46  70 102 139 182 238 299 368 434
#     4  12  27  45  74 106 146 194 243 298 366 434
#     4  11  26  43  72 103 139 189 239 295 369 434
#     4  11  24  45  68 100 140 180 237 301 360 438
#     4  11  25  45  69 102 141 185 236 300 356 437
#     4  12  25  47  71 106 148 188 240 298 361 431
#
# _framework density 26.263579
#
# number of rings (size 3 to 8) (size 9 to 14) (size 15 to 20)
#    0.000    0.667    3.333    3.500    7.000    2.000 
#    0.000    0.000    0.000    0.000    0.000    0.000 
#    0.000    0.000    0.000    0.000    0.000    0.000 
#
# Total GULP energy -133847.426020 kJ/mol
# GULP energy per Si atom -5576.976084 kJ/mol
# Density = 2.620380 g / cm^3
# Si number density = 26.263579 Si / 1000 Ang^3
#
#
#
# Elastic Constant Matrix: (Units=GPa)
#
#
# Indices 1 2 3 4 5 6 
#
# 1 103.3959 35.5730 11.3838 0.0002 14.2207 0.0001
# 2 35.5730 52.8858 17.2703 -0.0025 12.2817 0.0074
# 3 11.3838 17.2703 100.0900 -0.0004 40.0154 0.0001
# 4 0.0002 -0.0025 -0.0004 10.1595 0.0000 3.9578
# 5 14.2207 12.2817 40.0154 0.0000 51.9788 -0.0001
# 6 0.0001 0.0074 0.0001 3.9578 -0.0001 35.8260
#
#
#
# Elastic Compliance Matrix: (Units=1/GPa)
#
#
# Indices 1 2 3 4 5 6 
#
# 1 0.012750 -0.008351 0.000862 -0.000003 -0.002178 0.000002
# 2 -0.008351 0.025836 -0.002862 0.000009 -0.001617 -0.000006
# 3 0.000862 -0.002862 0.014751 0.000000 -0.010915 0.000001
# 4 -0.000003 0.000009 0.000000 0.102857 -0.000001 -0.011363
# 5 -0.002178 -0.001617 -0.010915 -0.000001 0.028620 0.000001
# 6 0.000002 -0.000006 0.000001 -0.011363 0.000001 0.029168
#
#
# Mechanical properties :
#
#
# Convention : Reuss Voigt Hill
#
# Bulk Modulus (GPa) = 30.64333 42.75845 36.70089
# Shear Modulus (GPa) = 20.36151 32.40248 26.38200
#
# Velocity S-wave (km/s) = 2.78740 3.51628 3.17284
# Velocity P-wave (km/s) = 4.69600 5.72726 5.23707
#
# Compressibility (1/GPa) = 0.03263353
#
# Stress axis : x y z
#
# Youngs Moduli (GPa) = 78.43422 38.70547 67.79378
#
# Poissons Ratio (x) = 0.32325 -0.05842
# Poissons Ratio (y) = 0.65504 0.19401
# Poissons Ratio (z) = -0.06759 0.11077
#
# Static dielectric constant tensor:
#      x y z
#    x 2.146760 0.000000 -0.055520 
#    y 0.000000 2.304580 0.000010 
#    z -0.055520 0.000010 2.130920 
# 
# From -- ./inp_files/179982.got.cif
#   From: 2010.05.17/outbox.cif.g08.bks.cpg/sg15_90_cif.got.tgz:179982.got - 2010.06.03 18:47:42.
