data_PCOD9305788
_publ_section_title
;
Structure prediction by ZEFSAII (Michael W. Deem and Ramdas Pophale) SiO2 
 PCOD9305788
Probable space group: C 2/C
;
_chemical_formula_sum "Si O2"
_cell_formula_units_Z 40
_cell_length_a 10.199201
_cell_length_b 9.907142
_cell_length_c 18.560663
_cell_angle_alpha 90.000000
_cell_angle_beta 95.933281
_cell_angle_gamma 90.000000
_cell_volume 1865.413987
_symmetry_space_group_name_H-M "C 2/C"
_symmetry_group_IT_number 15
_symmetry_cell_setting 'monoclinic'
loop_
_space_group_symop_operation_xyz
x,y,z
-x,y,1/2-z
-x,-y,-z
x,-y,1/2+z
1/2+x,1/2+y,z
1/2-x,1/2+y,1/2-z
1/2-x,1/2-y,-z
1/2+x,1/2-y,1/2+z
loop_
_atom_site_type_symbol
_atom_site_label
_atom_site_fract_x
_atom_site_fract_y
_atom_site_fract_z
Si Si1 0.337151 0.536723 0.409650
Si Si2 0.912463 0.847835 0.066810
Si Si3 0.846828 0.202116 0.261915
Si Si4 0.212425 0.464858 0.172017
Si Si5 0.950522 0.469686 0.577612
O O1 0.451552 0.426263 0.411472
O O2 0.370556 0.627095 0.481826
O O3 0.337282 0.629556 0.339218
O O4 0.193792 0.471556 0.414505
O O5 0.801627 0.912536 0.111374
O O6 0.931388 0.690950 0.083516
O O7 0.784473 0.350025 0.266562
O O8 0.000000 0.210427 0.250000
O O9 0.769458 0.105623 0.203047
O O10 0.062459 0.479578 0.137765
O O11 0.000000 0.500000 0.500000
#
# Coordination Sequence:
#
# PCOD9305788 Si02
#       5
#     8   8   8   8   8
#     4  11  24  47  72 104 144 186 232 300 350 425
#     4  11  24  48  75 102 144 190 236 294 361 420
#     4  12  28  46  71 104 147 187 239 293 362 430
#     4  12  28  47  73 105 142 193 238 294 363 427
#     4  12  25  44  76 109 140 183 245 300 354 420
#
# _framework density 21.442959999999999
#
# number of rings (size 3 to 8) (size 9 to 14) (size 15 to 20)
#    0.000    0.400    6.000    1.800    5.600    0.800 
#    0.000    0.000    0.000    0.000    0.000    0.000 
#    0.000    0.000    0.000    0.000    0.000    0.000 
#
# Total GULP energy -112068.384405 kJ/mol
# GULP energy per Si atom -5603.419220 kJ/mol
# Density = 2.139415 g / cm^3
# Si number density = 21.442960 Si / 1000 Ang^3
#
#
#
# Elastic Constant Matrix: (Units=GPa)
#
#
# Indices 1 2 3 4 5 6 
#
# 1 152.4195 17.8388 10.1162 0.0000 -10.6271 0.0000
# 2 17.8388 67.8591 5.8308 0.0000 12.0359 0.0000
# 3 10.1162 5.8308 51.4460 0.0000 -9.3233 0.0000
# 4 0.0000 0.0000 0.0000 30.8836 0.0000 -5.4344
# 5 -10.6271 12.0359 -9.3233 0.0000 28.9515 0.0000
# 6 0.0000 0.0000 0.0000 -5.4344 0.0000 33.5430
#
#
#
# Elastic Compliance Matrix: (Units=1/GPa)
#
#
# Indices 1 2 3 4 5 6 
#
# 1 0.007122 -0.002446 -0.000494 0.000000 0.003472 0.000000
# 2 -0.002446 0.017257 -0.003120 0.000000 -0.009077 0.000000
# 3 -0.000494 -0.003120 0.021336 0.000000 0.007987 0.000000
# 4 0.000000 0.000000 0.000000 0.033330 0.000000 0.005400
# 5 0.003472 -0.009077 0.007987 0.000000 0.042160 0.000000
# 6 0.000000 0.000000 0.000000 0.005400 0.000000 0.030687
#
#
# Mechanical properties :
#
#
# Convention : Reuss Voigt Hill
#
# Bulk Modulus (GPa) = 29.76543 37.69958 33.73251
# Shear Modulus (GPa) = 28.53713 34.53821 31.53767
#
# Velocity S-wave (km/s) = 3.65202 4.01771 3.83922
# Velocity P-wave (km/s) = 5.62978 6.25637 5.95132
#
# Compressibility (1/GPa) = 0.03359602
#
# Stress axis : x y z
#
# Youngs Moduli (GPa) = 140.41180 57.94657 46.86915
#
# Poissons Ratio (x) = 0.14171 0.02316
# Poissons Ratio (y) = 0.34338 0.14623
# Poissons Ratio (z) = 0.06938 0.18079
#
# Static dielectric constant tensor:
#      x y z
#    x 1.758240 0.000000 0.003490 
#    y 0.000000 1.762420 0.000000 
#    z 0.003490 0.000000 1.761760 
# 
# From -- ./inp_files/187911.got.cif
#   From: 2010.05.17/outbox.cif.g08.bks.cpg/sg15_94_cif.got.tgz:187911.got - 2010.06.03 18:47:42.
