data_PCOD9305154
_publ_section_title
;
Structure prediction by ZEFSAII (Michael W. Deem and Ramdas Pophale) SiO2 
 PCOD9305154
Probable space group: C 2/C
;
_chemical_formula_sum "Si O2"
_cell_formula_units_Z 48
_cell_length_a 10.132477
_cell_length_b 9.185687
_cell_length_c 26.282740
_cell_angle_alpha 90.000000
_cell_angle_beta 89.787846
_cell_angle_gamma 90.000000
_cell_volume 2446.216725
_symmetry_space_group_name_H-M "C 2/C"
_symmetry_group_IT_number 15
_symmetry_cell_setting 'monoclinic'
loop_
_space_group_symop_operation_xyz
x,y,z
-x,y,1/2-z
-x,-y,-z
x,-y,1/2+z
1/2+x,1/2+y,z
1/2-x,1/2+y,1/2-z
1/2-x,1/2-y,-z
1/2+x,1/2-y,1/2+z
loop_
_atom_site_type_symbol
_atom_site_label
_atom_site_fract_x
_atom_site_fract_y
_atom_site_fract_z
Si Si1 0.268657 0.795554 0.686549
Si Si2 0.728832 0.546941 0.292853
Si Si3 0.056903 0.287065 0.638566
Si Si4 0.103986 0.391674 0.523741
Si Si5 0.397955 0.410545 0.534108
Si Si6 0.526357 0.445283 0.643372
O O1 0.255292 0.626792 0.702241
O O2 0.253347 0.895547 0.736297
O O3 0.411523 0.817891 0.661114
O O4 0.150981 0.840866 0.649209
O O5 0.832527 0.628359 0.329433
O O6 0.579667 0.578577 0.311599
O O7 0.066144 0.334686 0.579885
O O8 0.074669 0.112823 0.643412
O O9 0.248055 0.464758 0.528360
O O10 0.107974 0.253783 0.486185
O O11 0.000000 0.500000 0.500000
O O12 0.500000 0.500000 0.500000
O O13 0.447072 0.419402 0.591568
#
# Coordination Sequence:
#
# PCOD9305154 Si02
#       6
#     8   8   8   8   8   8
#     4  11  26  41  70  94 125 174 210 266 326 378
#     4  11  24  46  63  97 131 165 220 266 318 383
#     4  11  24  43  64  96 133 165 212 269 316 381
#     4  11  26  42  66  98 131 168 216 267 316 386
#     4  11  24  44  66  95 130 172 212 262 322 382
#     4  11  24  43  67  94 131 169 215 265 321 381
#
# _framework density 19.622136999999999
#
# number of rings (size 3 to 8) (size 9 to 14) (size 15 to 20)
#    0.000    1.000    3.333    2.000    4.667    7.333 
#    0.000    0.000    0.000    0.000    0.000    0.000 
#    0.000    0.000    0.000    0.000    0.000    0.000 
#
# Total GULP energy -134245.492065 kJ/mol
# GULP energy per Si atom -5593.562169 kJ/mol
# Density = 1.957748 g / cm^3
# Si number density = 19.622137 Si / 1000 Ang^3
#
#
#
# Elastic Constant Matrix: (Units=GPa)
#
#
# Indices 1 2 3 4 5 6 
#
# 1 109.3522 52.7743 23.6378 0.0000 6.9927 0.0000
# 2 52.7743 55.2261 4.0492 0.0000 -0.6835 0.0000
# 3 23.6378 4.0492 47.8372 0.0000 -6.6592 0.0000
# 4 0.0000 0.0000 0.0000 33.0390 0.0000 3.7319
# 5 6.9927 -0.6835 -6.6592 0.0000 36.0536 0.0000
# 6 0.0000 0.0000 0.0000 3.7319 0.0000 34.8437
#
#
#
# Elastic Compliance Matrix: (Units=1/GPa)
#
#
# Indices 1 2 3 4 5 6 
#
# 1 0.020997 -0.019439 -0.009595 0.000000 -0.006213 0.000000
# 2 -0.019439 0.036216 0.007349 0.000000 0.005814 0.000000
# 3 -0.009595 0.007349 0.025970 0.000000 0.006797 0.000000
# 4 0.000000 0.000000 0.000000 0.030638 0.000000 -0.003281
# 5 -0.006213 0.005814 0.006797 0.000000 0.030307 0.000000
# 6 0.000000 0.000000 0.000000 -0.003281 0.000000 0.029051
#
#
# Mechanical properties :
#
#
# Convention : Reuss Voigt Hill
#
# Bulk Modulus (GPa) = 25.11684 41.48202 33.29943
# Shear Modulus (GPa) = 21.75620 29.58421 25.67021
#
# Velocity S-wave (km/s) = 3.33341 3.88712 3.62087
# Velocity P-wave (km/s) = 5.25772 6.42904 5.87265
#
# Compressibility (1/GPa) = 0.03981393
#
# Stress axis : x y z
#
# Youngs Moduli (GPa) = 47.62496 27.61203 38.50667
#
# Poissons Ratio (x) = 0.53674 0.36947
# Poissons Ratio (y) = 0.92576 -0.28299
# Poissons Ratio (z) = 0.45696 -0.20292
#
# Static dielectric constant tensor:
#      x y z
#    x 1.676330 0.000000 -0.008130 
#    y 0.000000 1.652970 0.000000 
#    z -0.008130 0.000000 1.668340 
# 
# From -- ./inp_files/306690.got.cif
#   From: 2010.05.17/outbox.cif.g08.bks.cpg/sg15_154_cif.got.tgz:306690.got - 2010.06.03 18:47:42.
