data_PCOD9305329
_publ_section_title
;
Structure prediction by ZEFSAII (Michael W. Deem and Ramdas Pophale) SiO2 
 PCOD9305329
Probable space group: C 2/C
;
_chemical_formula_sum "Si O2"
_cell_formula_units_Z 40
_cell_length_a 8.551658
_cell_length_b 24.899132
_cell_length_c 16.622572
_cell_angle_alpha 90.000000
_cell_angle_beta 146.116988
_cell_angle_gamma 90.000000
_cell_volume 1973.226041
_symmetry_space_group_name_H-M "C 2/C"
_symmetry_group_IT_number 15
_symmetry_cell_setting 'monoclinic'
loop_
_space_group_symop_operation_xyz
x,y,z
-x,y,1/2-z
-x,-y,-z
x,-y,1/2+z
1/2+x,1/2+y,z
1/2-x,1/2+y,1/2-z
1/2-x,1/2-y,-z
1/2+x,1/2-y,1/2+z
loop_
_atom_site_type_symbol
_atom_site_label
_atom_site_fract_x
_atom_site_fract_y
_atom_site_fract_z
Si Si1 0.704216 0.296135 0.912699
Si Si2 0.222884 0.897984 0.025091
Si Si3 0.308734 0.288419 0.099291
Si Si4 0.608606 0.606389 0.661899
Si Si5 0.687488 0.501638 0.402702
O O1 0.500000 0.282068 0.750000
O O2 0.750000 0.250000 0.000000
O O3 0.615834 0.350358 0.921419
O O4 0.010875 0.305520 0.007144
O O5 0.562184 0.895069 0.175401
O O6 0.098946 0.892075 0.061132
O O7 0.162348 0.956408 0.963965
O O8 0.500000 0.261574 0.250000
O O9 0.477654 0.340068 0.142022
O O10 0.250000 0.250000 0.000000
O O11 0.438880 0.555567 0.624208
O O12 0.500000 0.522781 0.250000
O O13 0.000000 0.500000 0.500000
#
# Coordination Sequence:
#
# PCOD9305329 Si02
#       5
#     8   8   8   8   8
#     4  12  26  44  69 103 137 178 227 279 338 401
#     4  11  24  44  69  98 138 175 226 279 337 404
#     4  12  24  44  70  99 134 176 228 274 334 403
#     4  11  24  44  69  99 135 181 220 279 345 395
#     4  12  23  43  69  99 134 175 227 276 336 404
#
# _framework density 20.271374000000002
#
# number of rings (size 3 to 8) (size 9 to 14) (size 15 to 20)
#    0.000    0.400    4.000    5.400    2.800    0.000 
#    0.000    2.000    0.000    0.000    0.000    0.000 
#    0.000    0.000    0.000    0.000    0.000    0.000 
#
# Total GULP energy -111895.694507 kJ/mol
# GULP energy per Si atom -5594.784725 kJ/mol
# Density = 2.022524 g / cm^3
# Si number density = 20.271374 Si / 1000 Ang^3
#
#
#
# Elastic Constant Matrix: (Units=GPa)
#
#
# Indices 1 2 3 4 5 6 
#
# 1 115.3987 26.6521 44.3448 0.0010 -11.9251 0.0004
# 2 26.6521 95.9821 16.8879 0.0019 -23.1083 0.0008
# 3 44.3448 16.8879 125.3430 -0.0016 -22.9390 -0.0007
# 4 0.0010 0.0019 -0.0016 30.7499 0.0002 -11.0015
# 5 -11.9251 -23.1083 -22.9390 0.0002 44.0564 0.0001
# 6 0.0004 0.0008 -0.0007 -11.0015 0.0001 18.3032
#
#
#
# Elastic Compliance Matrix: (Units=1/GPa)
#
#
# Indices 1 2 3 4 5 6 
#
# 1 0.010511 -0.002358 -0.003434 -0.000001 -0.000179 -0.000001
# 2 -0.002358 0.012483 0.000258 -0.000001 0.006044 -0.000001
# 3 -0.003434 0.000258 0.009962 0.000001 0.004393 0.000001
# 4 -0.000001 -0.000001 0.000001 0.041430 0.000000 0.024902
# 5 -0.000179 0.006044 0.004393 0.000000 0.028107 0.000000
# 6 -0.000001 -0.000001 0.000001 0.024902 0.000000 0.069603
#
#
# Mechanical properties :
#
#
# Convention : Reuss Voigt Hill
#
# Bulk Modulus (GPa) = 45.68367 56.94372 51.31369
# Shear Modulus (GPa) = 26.25233 35.21116 30.73174
#
# Velocity S-wave (km/s) = 3.60258 4.17224 3.89783
# Velocity P-wave (km/s) = 6.31583 7.16672 6.75469
#
# Compressibility (1/GPa) = 0.02188966
#
# Stress axis : x y z
#
# Youngs Moduli (GPa) = 95.13698 80.10938 100.37999
#
# Poissons Ratio (x) = 0.18888 0.34470
# Poissons Ratio (y) = 0.22431 -0.02593
# Poissons Ratio (z) = 0.32669 -0.02070
#
# Static dielectric constant tensor:
#      x y z
#    x 1.679420 0.000000 -0.013650 
#    y 0.000000 1.693150 0.000000 
#    z -0.013650 0.000000 1.703380 
# 
# From -- ./inp_files/23446.got.cif
#   From: 2010.05.17/outbox.cif.g08.bks.cpg/sg15_12_cif.got.tgz:23446.got - 2010.06.03 18:47:42.
