data_PCOD9305098
_publ_section_title
;
Structure prediction by ZEFSAII (Michael W. Deem and Ramdas Pophale) SiO2 
 PCOD9305098
Probable space group: C 2/C
;
_chemical_formula_sum "Si O2"
_cell_formula_units_Z 36
_cell_length_a 6.424409
_cell_length_b 21.291948
_cell_length_c 12.600341
_cell_angle_alpha 90.000000
_cell_angle_beta 100.390706
_cell_angle_gamma 90.000000
_cell_volume 1695.312343
_symmetry_space_group_name_H-M "C 2/C"
_symmetry_group_IT_number 15
_symmetry_cell_setting 'monoclinic'
loop_
_space_group_symop_operation_xyz
x,y,z
-x,y,1/2-z
-x,-y,-z
x,-y,1/2+z
1/2+x,1/2+y,z
1/2-x,1/2+y,1/2-z
1/2-x,1/2-y,-z
1/2+x,1/2-y,1/2+z
loop_
_atom_site_type_symbol
_atom_site_label
_atom_site_fract_x
_atom_site_fract_y
_atom_site_fract_z
Si Si1 0.000000 0.401313 0.250000
Si Si2 0.037938 0.790995 0.958143
Si Si3 0.006937 0.922662 0.629137
Si Si4 0.809592 0.805910 0.155024
Si Si5 0.693579 0.992270 0.441068
O O1 0.168612 0.360009 0.197707
O O2 0.134678 0.444286 0.342179
O O3 0.069095 0.851197 0.887090
O O4 0.861300 0.747193 0.888634
O O5 0.250000 0.750000 0.000000
O O6 0.934088 0.819008 0.056569
O O7 0.000000 0.943663 0.750000
O O8 0.861326 0.961894 0.536660
O O9 0.236353 0.941665 0.604350
O O10 0.000000 0.785933 0.250000
O O11 0.500000 0.000000 0.500000
#
# Coordination Sequence:
#
# PCOD9305098 Si02
#       5
#     4   8   8   8   8
#     4  12  24  44  72 100 140 188 242 290 360 430
#     4  11  25  44  66 100 141 182 236 293 355 419
#     4  11  25  42  67  99 138 177 231 292 346 417
#     4  11  24  42  68  99 134 186 233 291 346 424
#     4  11  24  45  68 100 137 183 233 289 356 417
#
# _framework density 21.235026999999999
#
# number of rings (size 3 to 8) (size 9 to 14) (size 15 to 20)
#    0.000    0.889    0.000    6.667    4.667    6.222 
#    2.000    0.000    0.000    0.000    0.000    0.000 
#    0.000    0.000    0.000    0.000    0.000    0.000 
#
# Total GULP energy -100515.332303 kJ/mol
# GULP energy per Si atom -5584.185128 kJ/mol
# Density = 2.118669 g / cm^3
# Si number density = 21.235027 Si / 1000 Ang^3
#
#
#
# Elastic Constant Matrix: (Units=GPa)
#
#
# Indices 1 2 3 4 5 6 
#
# 1 110.2603 40.2393 34.2470 0.0000 0.4473 0.0000
# 2 40.2393 78.5403 45.7865 0.0000 -3.4361 0.0000
# 3 34.2470 45.7865 146.4018 0.0000 14.4549 0.0000
# 4 0.0000 0.0000 0.0000 63.4748 0.0000 7.2007
# 5 0.4473 -3.4361 14.4549 0.0000 43.5495 0.0000
# 6 0.0000 0.0000 0.0000 7.2007 0.0000 33.7247
#
#
#
# Elastic Compliance Matrix: (Units=1/GPa)
#
#
# Indices 1 2 3 4 5 6 
#
# 1 0.011279 -0.005211 -0.000989 0.000000 -0.000199 0.000000
# 2 -0.005211 0.018352 -0.004827 0.000000 0.003104 0.000000
# 3 -0.000989 -0.004827 0.008900 0.000000 -0.003325 0.000000
# 4 0.000000 0.000000 0.000000 0.016145 0.000000 -0.003447
# 5 -0.000199 0.003104 -0.003325 0.000000 0.024313 0.000000
# 6 0.000000 0.000000 0.000000 -0.003447 0.000000 0.030388
#
#
# Mechanical properties :
#
#
# Convention : Reuss Voigt Hill
#
# Bulk Modulus (GPa) = 60.69123 63.97200 62.33161
# Shear Modulus (GPa) = 36.51691 42.47844 39.49767
#
# Velocity S-wave (km/s) = 4.15137 4.47743 4.31748
# Velocity P-wave (km/s) = 7.18479 7.54460 7.36689
#
# Compressibility (1/GPa) = 0.01647685
#
# Stress axis : x y z
#
# Youngs Moduli (GPa) = 88.65899 54.49075 112.36240
#
# Poissons Ratio (x) = 0.28394 0.11115
# Poissons Ratio (y) = 0.46198 0.54236
# Poissons Ratio (z) = 0.08770 0.26302
#
# Static dielectric constant tensor:
#      x y z
#    x 1.865840 0.000000 -0.023390 
#    y 0.000000 1.717940 0.000000 
#    z -0.023390 0.000000 1.772550 
# 
# From -- ./inp_files/72468.got.cif
#   From: 2010.05.17/outbox.cif.g08.bks.cpg/sg15_37_cif.got.tgz:72468.got - 2010.06.03 18:47:42.
