data_PCOD9305848
_publ_section_title
;
Structure prediction by ZEFSAII (Michael W. Deem and Ramdas Pophale) SiO2 
 PCOD9305848
Probable space group: C 2/C
;
_chemical_formula_sum "Si O2"
_cell_formula_units_Z 40
_cell_length_a 13.077202
_cell_length_b 15.991668
_cell_length_c 7.535861
_cell_angle_alpha 90.000000
_cell_angle_beta 86.755662
_cell_angle_gamma 90.000000
_cell_volume 1573.420703
_symmetry_space_group_name_H-M "C 2/C"
_symmetry_group_IT_number 15
_symmetry_cell_setting 'monoclinic'
loop_
_space_group_symop_operation_xyz
x,y,z
-x,y,1/2-z
-x,-y,-z
x,-y,1/2+z
1/2+x,1/2+y,z
1/2-x,1/2+y,1/2-z
1/2-x,1/2-y,-z
1/2+x,1/2-y,1/2+z
loop_
_atom_site_type_symbol
_atom_site_label
_atom_site_fract_x
_atom_site_fract_y
_atom_site_fract_z
Si Si1 0.207939 0.429137 0.494438
Si Si2 0.951269 0.086615 0.945800
Si Si3 0.903165 0.586209 0.145684
Si Si4 0.409259 0.267570 0.998906
Si Si5 0.731202 0.221622 0.797721
O O1 0.330567 0.428588 0.470496
O O2 0.152876 0.517338 0.467751
O O3 0.177009 0.394121 0.689342
O O4 0.176319 0.367352 0.339164
O O5 0.000000 0.097325 0.750000
O O6 0.994996 0.170828 0.031477
O O7 0.000000 0.000000 0.000000
O O8 0.935139 0.670834 0.041339
O O9 0.000000 0.554234 0.250000
O O10 0.335325 0.291520 0.173670
O O11 0.660139 0.272182 0.669715
O O12 0.750000 0.250000 0.000000
#
# Coordination Sequence:
#
# PCOD9305848 Si02
#       5
#     8   8   8   8   8
#     4  12  26  48  79 119 165 218 274 348 419 489
#     4  12  27  48  75 120 172 216 274 338 418 506
#     4  12  27  50  82 117 164 213 285 353 414 504
#     4  11  26  49  80 114 166 217 276 342 405 501
#     4  11  24  47  81 113 162 221 276 334 415 489
#
# _framework density 25.422315999999999
#
# number of rings (size 3 to 8) (size 9 to 14) (size 15 to 20)
#    0.000    0.400    4.000    3.600    5.600    1.600 
#    0.000    2.000    0.000    0.000    0.000    0.000 
#    0.000    0.000    0.000    0.000    0.000    0.000 
#
# Total GULP energy -111942.689216 kJ/mol
# GULP energy per Si atom -5597.134461 kJ/mol
# Density = 2.536445 g / cm^3
# Si number density = 25.422316 Si / 1000 Ang^3
#
#
#
# Elastic Constant Matrix: (Units=GPa)
#
#
# Indices 1 2 3 4 5 6 
#
# 1 180.6755 70.8767 67.8215 0.0000 2.7313 0.0000
# 2 70.8767 164.9897 43.7778 0.0000 13.5440 0.0000
# 3 67.8215 43.7778 151.1248 0.0000 4.0057 0.0000
# 4 0.0000 0.0000 0.0000 43.3660 0.0000 10.7733
# 5 2.7313 13.5440 4.0057 0.0000 41.6394 0.0000
# 6 0.0000 0.0000 0.0000 10.7733 0.0000 46.7159
#
#
#
# Elastic Compliance Matrix: (Units=1/GPa)
#
#
# Indices 1 2 3 4 5 6 
#
# 1 0.007533 -0.002583 -0.002648 0.000000 0.000601 0.000000
# 2 -0.002583 0.007614 -0.000988 0.000000 -0.002212 0.000000
# 3 -0.002648 -0.000988 0.008099 0.000000 -0.000284 0.000000
# 4 0.000000 0.000000 0.000000 0.024461 0.000000 -0.005641
# 5 0.000601 -0.002212 -0.000284 0.000000 0.024723 0.000000
# 6 0.000000 0.000000 0.000000 -0.005641 0.000000 0.022707
#
#
# Mechanical properties :
#
#
# Convention : Reuss Voigt Hill
#
# Bulk Modulus (GPa) = 92.52077 95.74910 94.13494
# Shear Modulus (GPa) = 44.97275 47.29854 46.13565
#
# Velocity S-wave (km/s) = 4.21054 4.31805 4.26463
# Velocity P-wave (km/s) = 7.75311 7.91239 7.83315
#
# Compressibility (1/GPa) = 0.01080838
#
# Stress axis : x y z
#
# Youngs Moduli (GPa) = 132.74937 131.33375 123.46688
#
# Poissons Ratio (x) = 0.33919 0.32699
# Poissons Ratio (y) = 0.34284 0.12199
# Poissons Ratio (z) = 0.35158 0.12976
#
# Static dielectric constant tensor:
#      x y z
#    x 2.412950 0.000000 -0.972520 
#    y 0.000000 2.052360 0.000000 
#    z -0.972520 0.000000 4.258210 
# 
# From -- ./inp_files/29113.got.cif
#   From: 2010.05.17/outbox.cif.g08.bks.cpg/sg15_15_cif.got.tgz:29113.got - 2010.06.03 18:47:42.
