data_PCOD9305967
_publ_section_title
;
Structure prediction by ZEFSAII (Michael W. Deem and Ramdas Pophale) SiO2 
 PCOD9305967
Probable space group: C 2/C
;
_chemical_formula_sum "Si O2"
_cell_formula_units_Z 44
_cell_length_a 12.168024
_cell_length_b 21.245107
_cell_length_c 8.336427
_cell_angle_alpha 90.000000
_cell_angle_beta 112.503993
_cell_angle_gamma 90.000000
_cell_volume 1990.956356
_symmetry_space_group_name_H-M "C 2/C"
_symmetry_group_IT_number 15
_symmetry_cell_setting 'monoclinic'
loop_
_space_group_symop_operation_xyz
x,y,z
-x,y,1/2-z
-x,-y,-z
x,-y,1/2+z
1/2+x,1/2+y,z
1/2-x,1/2+y,1/2-z
1/2-x,1/2-y,-z
1/2+x,1/2-y,1/2+z
loop_
_atom_site_type_symbol
_atom_site_label
_atom_site_fract_x
_atom_site_fract_y
_atom_site_fract_z
Si Si1 0.227142 0.908701 0.856404
Si Si2 0.868551 0.975614 0.381579
Si Si3 0.493435 0.071601 0.555332
Si Si4 0.637168 0.309200 0.590668
Si Si5 0.607017 0.821008 0.938472
Si Si6 0.000000 0.884720 0.250000
O O1 0.151837 0.847671 0.763283
O O2 0.204159 0.963671 0.713344
O O3 0.186499 0.937878 0.002158
O O4 0.367120 0.897669 0.938768
O O5 0.891929 0.928850 0.246754
O O6 0.000000 0.000000 0.500000
O O7 0.500000 0.072631 0.750000
O O8 0.591360 0.113277 0.520895
O O9 0.500000 0.000000 0.500000
O O10 0.605354 0.235823 0.566936
O O11 0.767111 0.316622 0.581145
O O12 0.542564 0.343579 0.423012
O O13 0.500000 0.812914 0.750000
#
# Coordination Sequence:
#
# PCOD9305967 Si02
#       6
#     8   8   8   8   8   4
#     4  12  24  43  68 102 141 186 233 295 355 417
#     4  12  23  39  64 103 142 178 238 289 351 420
#     4  12  28  46  72 105 139 188 237 299 358 422
#     4  11  25  44  74 101 138 192 232 290 356 435
#     4  11  24  50  71 103 141 184 241 290 359 429
#     4  12  24  40  68 100 140 190 232 292 352 420
#
# _framework density 22.099931999999999
#
# number of rings (size 3 to 8) (size 9 to 14) (size 15 to 20)
#    0.000    0.364    6.364    1.636    7.636    0.000 
#    3.273    0.909    0.000    0.000    0.000    0.000 
#    0.000    0.000    0.000    0.000    0.000    0.000 
#
# Total GULP energy -123181.910039 kJ/mol
# GULP energy per Si atom -5599.177729 kJ/mol
# Density = 2.204963 g / cm^3
# Si number density = 22.099932 Si / 1000 Ang^3
#
#
#
# Elastic Constant Matrix: (Units=GPa)
#
#
# Indices 1 2 3 4 5 6 
#
# 1 56.8167 5.8003 6.9879 0.0000 2.1828 0.0000
# 2 5.8003 134.2109 28.6767 0.0000 -12.7511 0.0000
# 3 6.9879 28.6767 82.7747 0.0000 1.5073 0.0000
# 4 0.0000 0.0000 0.0000 9.1923 0.0000 2.2243
# 5 2.1828 -12.7511 1.5073 0.0000 38.6014 0.0000
# 6 0.0000 0.0000 0.0000 2.2243 0.0000 28.9684
#
#
#
# Elastic Compliance Matrix: (Units=1/GPa)
#
#
# Indices 1 2 3 4 5 6 
#
# 1 0.017864 -0.000610 -0.001276 0.000000 -0.001162 0.000000
# 2 -0.000610 0.008374 -0.002903 0.000000 0.002914 0.000000
# 3 -0.001276 -0.002903 0.013220 0.000000 -0.001403 0.000000
# 4 0.000000 0.000000 0.000000 0.110846 0.000000 -0.008511
# 5 -0.001162 0.002914 -0.001403 0.000000 0.026989 0.000000
# 6 0.000000 0.000000 0.000000 -0.008511 0.000000 0.035174
#
#
# Mechanical properties :
#
#
# Convention : Reuss Voigt Hill
#
# Bulk Modulus (GPa) = 33.46516 39.63689 36.55102
# Shear Modulus (GPa) = 21.55131 30.84160 26.19645
#
# Velocity S-wave (km/s) = 3.12617 3.73976 3.44665
# Velocity P-wave (km/s) = 5.31094 6.05161 5.69333
#
# Compressibility (1/GPa) = 0.02988182
#
# Stress axis : x y z
#
# Youngs Moduli (GPa) = 55.97772 119.41119 75.64353
#
# Poissons Ratio (x) = 0.07282 0.09650
# Poissons Ratio (y) = 0.03414 0.21958
# Poissons Ratio (z) = 0.07141 0.34663
#
# Static dielectric constant tensor:
#      x y z
#    x 1.810690 0.000000 -0.001270 
#    y 0.000000 1.820070 0.000000 
#    z -0.001270 0.000000 1.819720 
# 
# From -- ./inp_files/31046.got.cif
#   From: 2010.05.17/outbox.cif.g08.bks.cpg/sg15_16_cif.got.tgz:31046.got - 2010.06.03 18:47:42.
