data_PCOD9305714
_publ_section_title
;
Structure prediction by ZEFSAII (Michael W. Deem and Ramdas Pophale) SiO2 
 PCOD9305714
Probable space group: C 2/C
;
_chemical_formula_sum "Si O2"
_cell_formula_units_Z 28
_cell_length_a 12.871741
_cell_length_b 7.251515
_cell_length_c 12.041486
_cell_angle_alpha 90.000000
_cell_angle_beta 112.876747
_cell_angle_gamma 90.000000
_cell_volume 1035.541687
_symmetry_space_group_name_H-M "C 2/C"
_symmetry_group_IT_number 15
_symmetry_cell_setting 'monoclinic'
loop_
_space_group_symop_operation_xyz
x,y,z
-x,y,1/2-z
-x,-y,-z
x,-y,1/2+z
1/2+x,1/2+y,z
1/2-x,1/2+y,1/2-z
1/2-x,1/2-y,-z
1/2+x,1/2-y,1/2+z
loop_
_atom_site_type_symbol
_atom_site_label
_atom_site_fract_x
_atom_site_fract_y
_atom_site_fract_z
Si Si1 0.000000 0.500000 0.500000
Si Si2 0.330896 0.334263 0.873334
Si Si3 0.786801 0.750818 0.388468
Si Si4 0.084157 0.316247 0.871854
O O1 0.123766 0.409276 0.597455
O O2 0.045075 0.480191 0.385931
O O3 0.315352 0.277103 0.740646
O O4 0.343973 0.552061 0.888489
O O5 0.208411 0.292102 0.877793
O O6 0.420897 0.237765 0.995160
O O7 0.750000 0.750000 0.500000
O O8 0.000000 0.225644 0.750000
#
# Coordination Sequence:
#
# PCOD9305714 Si02
#       4
#     4   8   8   8
#     4  12  24  44  74 110 142 202 260 308 394 474
#     4  11  26  47  76 110 156 205 259 325 406 462
#     4  12  26  47  79 112 155 208 258 332 395 478
#     4  11  24  46  75 110 154 199 259 327 387 481
#
# _framework density 27.038986999999999
#
# number of rings (size 3 to 8) (size 9 to 14) (size 15 to 20)
#    0.000    0.571    5.714    1.714    4.000    1.143 
#    0.000    4.286    0.000    0.000    0.000    0.000 
#    0.000    0.000    0.000    0.000    0.000    0.000 
#
# Total GULP energy -77988.362637 kJ/mol
# GULP energy per Si atom -5570.597331 kJ/mol
# Density = 2.697744 g / cm^3
# Si number density = 27.038987 Si / 1000 Ang^3
#
#
#
# Elastic Constant Matrix: (Units=GPa)
#
#
# Indices 1 2 3 4 5 6 
#
# 1 115.8085 -5.1685 71.4590 0.0000 5.4679 0.0000
# 2 -5.1685 107.6143 68.5109 0.0000 11.0845 0.0000
# 3 71.4590 68.5109 268.4227 0.0000 -13.2217 0.0000
# 4 0.0000 0.0000 0.0000 44.3578 0.0000 -2.1407
# 5 5.4679 11.0845 -13.2217 0.0000 56.2053 0.0000
# 6 0.0000 0.0000 0.0000 -2.1407 0.0000 26.9223
#
#
#
# Elastic Compliance Matrix: (Units=1/GPa)
#
#
# Indices 1 2 3 4 5 6 
#
# 1 0.011408 0.003401 -0.004040 0.000000 -0.002731 0.000000
# 2 0.003401 0.012593 -0.004308 0.000000 -0.003828 0.000000
# 3 -0.004040 -0.004308 0.006032 0.000000 0.002661 0.000000
# 4 0.000000 0.000000 0.000000 0.022631 0.000000 0.001799
# 5 -0.002731 -0.003828 0.002661 0.000000 0.019439 0.000000
# 6 0.000000 0.000000 0.000000 0.001799 0.000000 0.037287
#
#
# Mechanical properties :
#
#
# Convention : Reuss Voigt Hill
#
# Bulk Modulus (GPa) = 49.65456 84.60536 67.12996
# Shear Modulus (GPa) = 39.68396 49.30000 44.49198
#
# Velocity S-wave (km/s) = 3.83516 4.27464 4.06085
# Velocity P-wave (km/s) = 6.16564 7.46468 6.84604
#
# Compressibility (1/GPa) = 0.02013914
#
# Stress axis : x y z
#
# Youngs Moduli (GPa) = 87.65528 79.41106 165.79449
#
# Poissons Ratio (x) = -0.27008 0.66976
# Poissons Ratio (y) = -0.29812 0.71425
# Poissons Ratio (z) = 0.35410 0.34211
#
# Static dielectric constant tensor:
#      x y z
#    x 2.387370 0.000000 -0.044950 
#    y 0.000000 2.656200 0.000000 
#    z -0.044950 0.000000 2.227760 
# 
# From -- ./inp_files/93125.got.cif
#   From: 2010.05.17/outbox.cif.g08.bks.cpg/sg15_47_cif.got.tgz:93125.got - 2010.06.03 18:47:42.
