data_PCOD9305744
_publ_section_title
;
Structure prediction by ZEFSAII (Michael W. Deem and Ramdas Pophale) SiO2 
 PCOD9305744
Probable space group: C 2/C
;
_chemical_formula_sum "Si O2"
_cell_formula_units_Z 52
_cell_length_a 16.140330
_cell_length_b 12.473984
_cell_length_c 15.033482
_cell_angle_alpha 90.000000
_cell_angle_beta 58.494773
_cell_angle_gamma 90.000000
_cell_volume 2580.588036
_symmetry_space_group_name_H-M "C 2/C"
_symmetry_group_IT_number 15
_symmetry_cell_setting 'monoclinic'
loop_
_space_group_symop_operation_xyz
x,y,z
-x,y,1/2-z
-x,-y,-z
x,-y,1/2+z
1/2+x,1/2+y,z
1/2-x,1/2+y,1/2-z
1/2-x,1/2-y,-z
1/2+x,1/2-y,1/2+z
loop_
_atom_site_type_symbol
_atom_site_label
_atom_site_fract_x
_atom_site_fract_y
_atom_site_fract_z
Si Si1 0.491323 0.838267 0.525368
Si Si2 0.649516 0.975819 0.358839
Si Si3 0.250753 0.558184 0.135762
Si Si4 0.404384 0.217085 0.357955
Si Si5 0.688900 0.558604 0.585996
Si Si6 0.000000 0.934656 0.750000
Si Si7 0.465465 0.388933 0.567357
O O1 0.393755 0.906263 0.593763
O O2 0.553255 0.845665 0.581571
O O3 0.484674 0.712711 0.508032
O O4 0.557178 0.897016 0.414293
O O5 0.705248 0.980331 0.234504
O O6 0.725070 0.941663 0.391927
O O7 0.167275 0.643963 0.159110
O O8 0.348853 0.611461 0.119165
O O9 0.279804 0.506142 0.024874
O O10 0.500000 0.250613 0.250000
O O11 0.344898 0.321596 0.419531
O O12 0.597025 0.503574 0.682395
O O13 0.987837 0.880710 0.659936
O O14 0.500000 0.500000 0.500000
#
# Coordination Sequence:
#
# PCOD9305744 Si02
#       7
#     8   8   8   8   8   4   8
#     4  11  24  47  66 100 137 182 219 288 343 412
#     4  11  25  43  69  97 143 172 221 279 354 407
#     4  12  23  39  68 102 131 171 228 288 343 400
#     4  12  22  39  72 103 129 174 241 294 341 391
#     4  12  23  42  67 101 129 176 231 287 327 405
#     4  12  24  42  64  92 136 176 218 264 354 402
#     4  12  25  45  68  99 137 178 232 288 338 408
#
# _framework density 20.150445000000001
#
# number of rings (size 3 to 8) (size 9 to 14) (size 15 to 20)
#    0.000    0.308    8.462    1.385    0.000    0.000 
#    5.538    0.769    0.000    0.000    0.000    0.000 
#    0.000    0.000    0.000    0.000    0.000    0.000 
#
# Total GULP energy -145227.188246 kJ/mol
# GULP energy per Si atom -5585.661086 kJ/mol
# Density = 2.010458 g / cm^3
# Si number density = 20.150445 Si / 1000 Ang^3
#
#
#
# Elastic Constant Matrix: (Units=GPa)
#
#
# Indices 1 2 3 4 5 6 
#
# 1 78.4379 -6.9452 10.9539 0.0000 -3.3062 0.0000
# 2 -6.9452 49.6478 7.1046 0.0000 -12.9940 0.0000
# 3 10.9539 7.1046 120.0570 0.0000 -7.3036 0.0000
# 4 0.0000 0.0000 0.0000 26.9959 0.0000 -0.2277
# 5 -3.3062 -12.9940 -7.3036 0.0000 35.9787 0.0000
# 6 0.0000 0.0000 0.0000 -0.2277 0.0000 27.7277
#
#
#
# Elastic Compliance Matrix: (Units=1/GPa)
#
#
# Indices 1 2 3 4 5 6 
#
# 1 0.013224 0.002518 -0.001242 0.000000 0.001872 0.000000
# 2 0.002518 0.022807 -0.001078 0.000000 0.008250 0.000000
# 3 -0.001242 -0.001078 0.008582 0.000000 0.001239 0.000000
# 4 0.000000 0.000000 0.000000 0.037045 0.000000 0.000304
# 5 0.001872 0.008250 0.001239 0.000000 0.031197 0.000000
# 6 0.000000 0.000000 0.000000 0.000304 0.000000 0.036067
#
#
# Mechanical properties :
#
#
# Convention : Reuss Voigt Hill
#
# Bulk Modulus (GPa) = 22.21713 30.04104 26.12909
# Shear Modulus (GPa) = 30.57550 33.94244 32.25897
#
# Velocity S-wave (km/s) = 3.89956 4.10866 4.00547
# Velocity P-wave (km/s) = 5.59687 6.11955 5.86403
#
# Compressibility (1/GPa) = 0.04501032
#
# Stress axis : x y z
#
# Youngs Moduli (GPa) = 75.61905 43.84547 116.52583
#
# Poissons Ratio (x) = -0.11039 0.14468
# Poissons Ratio (y) = -0.19038 0.12556
# Poissons Ratio (z) = 0.09389 0.04724
#
# Static dielectric constant tensor:
#      x y z
#    x 1.708960 0.000000 0.000420 
#    y 0.000000 1.715940 0.000000 
#    z 0.000420 0.000000 1.744270 
# 
# From -- ./inp_files/160791.got.cif
#   From: 2010.05.17/outbox.cif.g08.bks.cpg/sg15_81_cif.got.tgz:160791.got - 2010.06.03 18:47:42.
