data_PCOD9305911
_publ_section_title
;
Structure prediction by ZEFSAII (Michael W. Deem and Ramdas Pophale) SiO2 
 PCOD9305911
Probable space group: C 2/C
;
_chemical_formula_sum "Si O2"
_cell_formula_units_Z 36
_cell_length_a 8.310643
_cell_length_b 13.042242
_cell_length_c 16.952307
_cell_angle_alpha 90.000000
_cell_angle_beta 50.873003
_cell_angle_gamma 90.000000
_cell_volume 1425.400809
_symmetry_space_group_name_H-M "C 2/C"
_symmetry_group_IT_number 15
_symmetry_cell_setting 'monoclinic'
loop_
_space_group_symop_operation_xyz
x,y,z
-x,y,1/2-z
-x,-y,-z
x,-y,1/2+z
1/2+x,1/2+y,z
1/2-x,1/2+y,1/2-z
1/2-x,1/2-y,-z
1/2+x,1/2-y,1/2+z
loop_
_atom_site_type_symbol
_atom_site_label
_atom_site_fract_x
_atom_site_fract_y
_atom_site_fract_z
Si Si1 0.053972 0.298683 0.881597
Si Si2 0.000000 0.088484 0.250000
Si Si3 0.818951 0.271339 0.104838
Si Si4 0.944969 0.947624 0.600425
Si Si5 0.793501 0.383579 0.275097
O O1 0.278003 0.352961 0.802808
O O2 0.109329 0.178623 0.872807
O O3 0.884135 0.289444 0.864679
O O4 0.931220 0.328763 0.998096
O O5 0.947012 0.028670 0.347944
O O6 0.785032 0.349695 0.186925
O O7 0.957750 0.175036 0.090405
O O8 0.000000 0.000000 0.500000
O O9 0.727340 0.000007 0.691622
O O10 0.000000 0.342354 0.250000
#
# Coordination Sequence:
#
# PCOD9305911 Si02
#       5
#     8   4   8   8   8
#     4  11  24  48  75 106 146 206 242 312 375 448
#     4  12  28  46  76 110 152 198 254 300 376 454
#     4  11  26  48  74 105 156 192 254 310 380 440
#     4  12  28  47  73 111 150 196 252 313 370 445
#     4  12  26  43  74 107 145 201 246 305 374 444
#
# _framework density 25.256053999999999
#
# number of rings (size 3 to 8) (size 9 to 14) (size 15 to 20)
#    0.000    0.444    5.556    0.667    9.333    1.778 
#    0.000    2.222    0.000    0.000    0.000    0.000 
#    0.000    0.000    0.000    0.000    0.000    0.000 
#
# Total GULP energy -100248.438575 kJ/mol
# GULP energy per Si atom -5569.357699 kJ/mol
# Density = 2.519857 g / cm^3
# Si number density = 25.256054 Si / 1000 Ang^3
#
#
#
# Elastic Constant Matrix: (Units=GPa)
#
#
# Indices 1 2 3 4 5 6 
#
# 1 114.9357 9.4685 70.5250 0.0000 20.4170 0.0000
# 2 9.4685 55.5229 42.3775 0.0000 7.8117 0.0000
# 3 70.5250 42.3775 192.1031 0.0001 42.1556 0.0000
# 4 0.0000 0.0000 0.0001 34.2316 0.0000 0.6624
# 5 20.4170 7.8117 42.1556 0.0000 42.1839 0.0000
# 6 0.0000 0.0000 0.0000 0.6624 0.0000 34.4141
#
#
#
# Elastic Compliance Matrix: (Units=1/GPa)
#
#
# Indices 1 2 3 4 5 6 
#
# 1 0.011421 0.001453 -0.004152 0.000000 -0.001648 0.000000
# 2 0.001453 0.021873 -0.005528 0.000000 0.000770 0.000000
# 3 -0.004152 -0.005528 0.009329 0.000000 -0.006290 0.000000
# 4 0.000000 0.000000 0.000000 0.029224 0.000000 -0.000562
# 5 -0.001648 0.000770 -0.006290 0.000000 0.030647 0.000000
# 6 0.000000 0.000000 0.000000 -0.000562 0.000000 0.029069
#
#
# Mechanical properties :
#
#
# Convention : Reuss Voigt Hill
#
# Bulk Modulus (GPa) = 38.21019 67.47820 52.84420
# Shear Modulus (GPa) = 31.90007 38.17863 35.03935
#
# Velocity S-wave (km/s) = 3.55782 3.89223 3.72877
# Velocity P-wave (km/s) = 5.66034 6.85382 6.28547
#
# Compressibility (1/GPa) = 0.02617103
#
# Stress axis : x y z
#
# Youngs Moduli (GPa) = 87.55702 45.71767 107.18720
#
# Poissons Ratio (x) = -0.06643 0.44503
# Poissons Ratio (y) = -0.12722 0.59249
# Poissons Ratio (z) = 0.36352 0.25271
#
# Static dielectric constant tensor:
#      x y z
#    x 2.274050 0.000000 0.020030 
#    y 0.000000 2.109370 0.000000 
#    z 0.020030 0.000000 1.983360 
# 
# From -- ./inp_files/188670.got.cif
#   From: 2010.05.17/outbox.cif.g08.bks.cpg/sg15_95_cif.got.tgz:188670.got - 2010.06.03 18:47:42.
