data_PCOD9305937
_publ_section_title
;
Structure prediction by ZEFSAII (Michael W. Deem and Ramdas Pophale) SiO2 
 PCOD9305937
Probable space group: C 2/C
;
_chemical_formula_sum "Si O2"
_cell_formula_units_Z 40
_cell_length_a 28.167447
_cell_length_b 7.358500
_cell_length_c 13.867844
_cell_angle_alpha 90.000000
_cell_angle_beta 34.665374
_cell_angle_gamma 90.000000
_cell_volume 1634.903052
_symmetry_space_group_name_H-M "C 2/C"
_symmetry_group_IT_number 15
_symmetry_cell_setting 'monoclinic'
loop_
_space_group_symop_operation_xyz
x,y,z
-x,y,1/2-z
-x,-y,-z
x,-y,1/2+z
1/2+x,1/2+y,z
1/2-x,1/2+y,1/2-z
1/2-x,1/2-y,-z
1/2+x,1/2-y,1/2+z
loop_
_atom_site_type_symbol
_atom_site_label
_atom_site_fract_x
_atom_site_fract_y
_atom_site_fract_z
Si Si1 0.913650 0.158724 0.342233
Si Si2 0.232129 0.228636 0.215625
Si Si3 0.275143 0.148696 0.556472
Si Si4 0.567343 0.164825 0.895897
Si Si5 0.448018 0.246158 0.250349
O O1 0.826901 0.214180 0.535678
O O2 0.917395 0.238212 0.229454
O O3 0.000000 0.212461 0.250000
O O4 0.913421 0.940935 0.337859
O O5 0.225036 0.235517 0.343625
O O6 0.157904 0.355874 0.296444
O O7 0.225787 0.033192 0.171150
O O8 0.250000 0.250000 0.500000
O O9 0.371209 0.110403 0.367175
O O10 0.512506 0.289095 0.058520
O O11 0.500000 0.000000 0.000000
O O12 0.500000 0.163487 0.250000
#
# Coordination Sequence:
#
# PCOD9305937 Si02
#       5
#     8   8   8   8   8
#     4  11  27  46  77 114 155 208 268 330 405 483
#     4  12  28  50  79 117 162 213 273 332 409 488
#     4  12  28  49  84 116 166 212 274 338 409 481
#     4  12  27  47  78 109 160 208 274 330 404 481
#     4  11  24  49  72 108 156 202 262 331 398 477
#
# _framework density 24.466282
#
# number of rings (size 3 to 8) (size 9 to 14) (size 15 to 20)
#    0.000    0.400    2.000    4.800    8.400    4.800 
#    0.000    0.000    0.000    0.000    0.000    0.000 
#    0.000    0.000    0.000    0.000    0.000    0.000 
#
# Total GULP energy -111777.272475 kJ/mol
# GULP energy per Si atom -5588.863624 kJ/mol
# Density = 2.441060 g / cm^3
# Si number density = 24.466282 Si / 1000 Ang^3
#
#
#
# Elastic Constant Matrix: (Units=GPa)
#
#
# Indices 1 2 3 4 5 6 
#
# 1 183.3228 36.8101 81.1151 0.0001 -12.1515 0.0000
# 2 36.8101 84.4388 20.7542 0.0006 -16.5355 0.0000
# 3 81.1151 20.7542 206.9614 0.0002 -9.5139 0.0000
# 4 0.0001 0.0006 0.0002 44.4160 0.0001 -7.5669
# 5 -12.1515 -16.5355 -9.5139 0.0001 42.5790 0.0000
# 6 0.0000 0.0000 0.0000 -7.5669 0.0000 30.0995
#
#
#
# Elastic Compliance Matrix: (Units=1/GPa)
#
#
# Indices 1 2 3 4 5 6 
#
# 1 0.007076 -0.002361 -0.002512 0.000000 0.000541 0.000000
# 2 -0.002361 0.013843 -0.000249 0.000000 0.004646 0.000000
# 3 -0.002512 -0.000249 0.005864 0.000000 0.000497 0.000000
# 4 0.000000 0.000000 0.000000 0.023522 0.000000 0.005913
# 5 0.000541 0.004646 0.000497 0.000000 0.025556 0.000000
# 6 0.000000 0.000000 0.000000 0.005913 0.000000 0.034710
#
#
# Mechanical properties :
#
#
# Convention : Reuss Voigt Hill
#
# Bulk Modulus (GPa) = 60.46241 83.56465 72.01353
# Shear Modulus (GPa) = 39.57928 45.82181 42.70054
#
# Velocity S-wave (km/s) = 4.02644 4.33234 4.18219
# Velocity P-wave (km/s) = 6.81047 7.69771 7.26764
#
# Compressibility (1/GPa) = 0.01653920
#
# Stress axis : x y z
#
# Youngs Moduli (GPa) = 141.31723 72.23609 170.53010
#
# Poissons Ratio (x) = 0.17058 0.42833
# Poissons Ratio (y) = 0.33372 0.04248
# Poissons Ratio (z) = 0.35495 0.01799
#
# Static dielectric constant tensor:
#      x y z
#    x 1.966310 0.000000 0.020980 
#    y 0.000000 2.022090 0.000000 
#    z 0.020980 0.000000 1.944460 
# 
# From -- ./inp_files/176051.got.cif
#   From: 2010.05.17/outbox.cif.g08.bks.cpg/sg15_89_cif.got.tgz:176051.got - 2010.06.03 18:47:42.
