data_PCOD9305093
_publ_section_title
;
Structure prediction by ZEFSAII (Michael W. Deem and Ramdas Pophale) SiO2 
 PCOD9305093
Probable space group: C 2/C
;
_chemical_formula_sum "Si O2"
_cell_formula_units_Z 60
_cell_length_a 11.034691
_cell_length_b 18.604436
_cell_length_c 23.302531
_cell_angle_alpha 90.000000
_cell_angle_beta 34.837896
_cell_angle_gamma 90.000000
_cell_volume 2732.819696
_symmetry_space_group_name_H-M "C 2/C"
_symmetry_group_IT_number 15
_symmetry_cell_setting 'monoclinic'
loop_
_space_group_symop_operation_xyz
x,y,z
-x,y,1/2-z
-x,-y,-z
x,-y,1/2+z
1/2+x,1/2+y,z
1/2-x,1/2+y,1/2-z
1/2-x,1/2-y,-z
1/2+x,1/2-y,1/2+z
loop_
_atom_site_type_symbol
_atom_site_label
_atom_site_fract_x
_atom_site_fract_y
_atom_site_fract_z
Si Si1 0.500000 0.180886 0.750000
Si Si2 0.034899 0.814991 0.877498
Si Si3 0.219686 0.672298 0.983707
Si Si4 0.081653 0.423011 0.325773
Si Si5 0.819122 0.973663 0.649472
Si Si6 0.158439 0.727844 0.442089
Si Si7 0.265054 0.964070 0.946814
Si Si8 0.131482 0.194020 0.753825
O O1 0.481280 0.130921 0.701350
O O2 0.708518 0.228375 0.657392
O O3 0.115726 0.894695 0.855904
O O4 0.221947 0.760879 0.784495
O O5 0.838671 0.811693 0.909657
O O6 0.953352 0.782619 0.969890
O O7 0.450787 0.661859 0.865334
O O8 0.250000 0.750000 0.000000
O O9 0.172954 0.610078 0.047510
O O10 0.023928 0.680334 0.015900
O O11 0.216056 0.484605 0.242300
O O12 0.209746 0.372556 0.319136
O O13 0.883224 0.466417 0.426969
O O14 0.695833 0.964905 0.636846
O O15 0.018424 0.022597 0.553750
O O16 0.000000 0.218979 0.750000
#
# Coordination Sequence:
#
# PCOD9305093 Si02
#       8
#     4   8   8   8   8   8   8   8
#     4  12  22  44  72 100 138 180 226 288 344 416
#     4  11  25  44  71 100 138 180 240 277 342 427
#     4  12  26  45  70 106 141 180 233 294 348 410
#     4  12  24  45  70 100 138 183 229 284 355 413
#     4  11  24  42  68 102 135 178 227 292 344 411
#     4  11  25  43  71 102 137 182 229 287 346 410
#     4  11  25  42  69 103 139 174 233 289 350 410
#     4  12  26  48  71  99 142 189 233 288 352 415
#
# _framework density 21.955345000000001
#
# number of rings (size 3 to 8) (size 9 to 14) (size 15 to 20)
#    0.000    0.533    5.333    2.400    5.600    0.000 
#    2.400    1.333    0.000    0.000    0.000    0.000 
#    0.000    0.000    0.000    0.000    0.000    0.000 
#
# Total GULP energy -167793.053501 kJ/mol
# GULP energy per Si atom -5593.101783 kJ/mol
# Density = 2.190537 g / cm^3
# Si number density = 21.955345 Si / 1000 Ang^3
#
#
#
# Elastic Constant Matrix: (Units=GPa)
#
#
# Indices 1 2 3 4 5 6 
#
# 1 106.9307 56.4542 23.8769 -0.0063 -23.5130 -0.0033
# 2 56.4542 124.2542 12.0345 0.0109 -11.8243 0.0014
# 3 23.8769 12.0345 62.7429 0.0077 -6.8503 -0.0069
# 4 -0.0063 0.0109 0.0077 33.3589 -0.0020 0.5749
# 5 -23.5130 -11.8243 -6.8503 -0.0020 28.9323 0.0008
# 6 -0.0033 0.0014 -0.0069 0.5749 0.0008 32.6811
#
#
#
# Elastic Compliance Matrix: (Units=1/GPa)
#
#
# Indices 1 2 3 4 5 6 
#
# 1 0.015180 -0.005669 -0.003691 0.000006 0.009146 0.000001
# 2 -0.005669 0.010590 0.000098 -0.000005 -0.000256 -0.000001
# 3 -0.003691 0.000098 0.017452 -0.000005 0.001173 0.000003
# 4 0.000006 -0.000005 -0.000005 0.029986 0.000004 -0.000528
# 5 0.009146 -0.000256 0.001173 0.000004 0.042169 0.000000
# 6 0.000001 -0.000001 0.000003 -0.000528 0.000000 0.030608
#
#
# Mechanical properties :
#
#
# Convention : Reuss Voigt Hill
#
# Bulk Modulus (GPa) = 40.48876 53.18433 46.83654
# Shear Modulus (GPa) = 28.94496 32.43194 30.68845
#
# Velocity S-wave (km/s) = 3.63486 3.84758 3.74273
# Velocity P-wave (km/s) = 6.00813 6.63437 6.32900
#
# Compressibility (1/GPa) = 0.02469821
#
# Stress axis : x y z
#
# Youngs Moduli (GPa) = 65.87545 94.42948 57.30068
#
# Poissons Ratio (x) = 0.53534 0.21149
# Poissons Ratio (y) = 0.37346 -0.00563
# Poissons Ratio (z) = 0.24314 -0.00928
#
# Static dielectric constant tensor:
#      x y z
#    x 1.836780 0.000050 -0.012400 
#    y 0.000050 1.753430 0.000030 
#    z -0.012400 0.000030 1.874320 
# 
# From -- ./inp_files/293548.got.cif
#   From: 2010.05.17/outbox.cif.g08.bks.cpg/sg15_147_cif.got.tgz:293548.got - 2010.06.03 18:47:42.
