data_PCOD9305035
_publ_section_title
;
Structure prediction by ZEFSAII (Michael W. Deem and Ramdas Pophale) SiO2 
 PCOD9305035
Probable space group: C 2/C
;
_chemical_formula_sum "Si O2"
_cell_formula_units_Z 32
_cell_length_a 5.198818
_cell_length_b 12.921906
_cell_length_c 21.839470
_cell_angle_alpha 90.000000
_cell_angle_beta 60.987487
_cell_angle_gamma 90.000000
_cell_volume 1283.039293
_symmetry_space_group_name_H-M "C 2/C"
_symmetry_group_IT_number 15
_symmetry_cell_setting 'monoclinic'
loop_
_space_group_symop_operation_xyz
x,y,z
-x,y,1/2-z
-x,-y,-z
x,-y,1/2+z
1/2+x,1/2+y,z
1/2-x,1/2+y,1/2-z
1/2-x,1/2-y,-z
1/2+x,1/2-y,1/2+z
loop_
_atom_site_type_symbol
_atom_site_label
_atom_site_fract_x
_atom_site_fract_y
_atom_site_fract_z
Si Si1 0.101053 0.182567 0.068645
Si Si2 0.252360 0.795607 0.321773
Si Si3 0.608391 0.493194 0.136881
Si Si4 0.957202 0.597095 0.329862
O O1 0.128294 0.248855 0.128339
O O2 0.764033 0.150758 0.094141
O O3 0.228604 0.067642 0.068822
O O4 0.250000 0.250000 0.000000
O O5 0.500000 0.844765 0.250000
O O6 0.148153 0.697135 0.293988
O O7 0.990428 0.877136 0.363801
O O8 0.840948 0.509455 0.163576
O O9 0.291422 0.550239 0.185773
#
# Coordination Sequence:
#
# PCOD9305035 Si02
#       4
#     8   8   8   8
#     4   9  22  45  67  97 136 177 226 283 339 406
#     4  11  24  41  69  98 134 179 230 279 344 408
#     4   9  22  40  64  98 132 174 218 279 335 403
#     4   9  22  43  63  97 134 174 222 279 336 402
#
# _framework density 24.940777000000001
#
# number of rings (size 3 to 8) (size 9 to 14) (size 15 to 20)
#    1.500    1.000    0.000    0.000    3.500   10.000 
#    0.000    2.500    0.000    0.000    0.000    0.000 
#    0.000    0.000    0.000    0.000    0.000    0.000 
#
# Total GULP energy -89172.915608 kJ/mol
# GULP energy per Si atom -5573.307226 kJ/mol
# Density = 2.488401 g / cm^3
# Si number density = 24.940777 Si / 1000 Ang^3
#
#
#
# Elastic Constant Matrix: (Units=GPa)
#
#
# Indices 1 2 3 4 5 6 
#
# 1 152.9174 32.0641 23.0821 -0.0001 0.0204 0.0001
# 2 32.0641 129.7655 7.9278 0.0000 1.0311 0.0000
# 3 23.0821 7.9278 65.1025 -0.0001 8.2226 0.0001
# 4 -0.0001 0.0000 -0.0001 24.4632 0.0001 -12.3098
# 5 0.0204 1.0311 8.2226 0.0001 18.3226 -0.0001
# 6 0.0001 0.0000 0.0001 -12.3098 -0.0001 52.7160
#
#
#
# Elastic Compliance Matrix: (Units=1/GPa)
#
#
# Indices 1 2 3 4 5 6 
#
# 1 0.007267 -0.001651 -0.002530 0.000000 0.001220 0.000000
# 2 -0.001651 0.008139 -0.000369 0.000000 -0.000291 0.000000
# 3 -0.002530 -0.000369 0.017279 0.000000 -0.007730 0.000000
# 4 0.000000 0.000000 0.000000 0.046321 0.000000 0.010816
# 5 0.001220 -0.000291 -0.007730 0.000000 0.058061 0.000000
# 6 0.000000 0.000000 0.000000 0.010816 0.000000 0.021495
#
#
# Mechanical properties :
#
#
# Convention : Reuss Voigt Hill
#
# Bulk Modulus (GPa) = 42.39875 52.65927 47.52901
# Shear Modulus (GPa) = 28.48623 38.08112 33.28368
#
# Velocity S-wave (km/s) = 3.38324 3.91175 3.65706
# Velocity P-wave (km/s) = 5.68317 6.44685 6.07702
#
# Compressibility (1/GPa) = 0.02358560
#
# Stress axis : x y z
#
# Youngs Moduli (GPa) = 137.60236 122.86548 57.87502
#
# Poissons Ratio (x) = 0.20283 0.14641
# Poissons Ratio (y) = 0.22716 0.02136
# Poissons Ratio (z) = 0.34809 0.04535
#
# Static dielectric constant tensor:
#      x y z
#    x 2.068340 0.000000 -0.044850 
#    y 0.000000 2.017560 0.000000 
#    z -0.044850 0.000000 2.128740 
# 
# From -- ./inp_files/226405.got.cif
#   From: 2010.05.17/outbox.cif.g08.bks.cpg/sg15_114_cif.got.tgz:226405.got - 2010.06.03 18:47:42.
