data_PCOD9305658
_publ_section_title
;
Structure prediction by ZEFSAII (Michael W. Deem and Ramdas Pophale) SiO2 
 PCOD9305658
Probable space group: C 2/C
;
_chemical_formula_sum "Si O2"
_cell_formula_units_Z 32
_cell_length_a 9.571384
_cell_length_b 10.820903
_cell_length_c 19.594088
_cell_angle_alpha 90.000000
_cell_angle_beta 141.662947
_cell_angle_gamma 90.000000
_cell_volume 1258.796619
_symmetry_space_group_name_H-M "C 2/C"
_symmetry_group_IT_number 15
_symmetry_cell_setting 'monoclinic'
loop_
_space_group_symop_operation_xyz
x,y,z
-x,y,1/2-z
-x,-y,-z
x,-y,1/2+z
1/2+x,1/2+y,z
1/2-x,1/2+y,1/2-z
1/2-x,1/2-y,-z
1/2+x,1/2-y,1/2+z
loop_
_atom_site_type_symbol
_atom_site_label
_atom_site_fract_x
_atom_site_fract_y
_atom_site_fract_z
Si Si1 0.144978 0.780946 0.371699
Si Si2 0.782271 0.329287 0.823971
Si Si3 0.832683 0.944089 0.586774
Si Si4 0.396999 0.635693 0.969629
O O1 0.383891 0.724587 0.442894
O O2 0.000000 0.810332 0.250000
O O3 0.997190 0.684978 0.358570
O O4 0.151577 0.909493 0.414799
O O5 0.572663 0.380881 0.700199
O O6 0.808277 0.419886 0.898484
O O7 0.758286 0.196484 0.854092
O O8 0.762726 0.880037 0.489328
O O9 0.500000 0.500000 0.000000
#
# Coordination Sequence:
#
# PCOD9305658 Si02
#       4
#     8   8   8   8
#     4  12  24  48  72 101 146 187 229 294 351 409
#     4  11  24  46  72 105 139 186 235 289 347 417
#     4  11  25  48  69 105 144 181 240 285 351 416
#     4  12  26  47  73 107 142 184 237 287 353 419
#
# _framework density 25.421105000000001
#
# number of rings (size 3 to 8) (size 9 to 14) (size 15 to 20)
#    0.000    0.500    7.500    1.500    0.000    1.000 
#   18.000    0.000    0.000    0.000    0.000    0.000 
#    0.000    0.000    0.000    0.000    0.000    0.000 
#
# Total GULP energy -89514.731188 kJ/mol
# GULP energy per Si atom -5594.670699 kJ/mol
# Density = 2.536325 g / cm^3
# Si number density = 25.421105 Si / 1000 Ang^3
#
#
#
# Elastic Constant Matrix: (Units=GPa)
#
#
# Indices 1 2 3 4 5 6 
#
# 1 93.1672 -23.7946 -7.6205 0.0000 1.0380 0.0000
# 2 -23.7946 116.7630 30.9575 0.0000 15.3583 0.0000
# 3 -7.6205 30.9575 92.6494 -0.0001 2.8213 0.0000
# 4 0.0000 0.0000 -0.0001 42.4866 0.0000 -0.2260
# 5 1.0380 15.3583 2.8213 0.0000 35.9871 0.0000
# 6 0.0000 0.0000 0.0000 -0.2260 0.0000 45.2190
#
#
#
# Elastic Compliance Matrix: (Units=1/GPa)
#
#
# Indices 1 2 3 4 5 6 
#
# 1 0.011391 0.002463 0.000156 0.000000 -0.001392 0.000000
# 2 0.002463 0.010470 -0.003165 0.000000 -0.004291 0.000000
# 3 0.000156 -0.003165 0.011851 0.000000 0.000417 0.000000
# 4 0.000000 0.000000 0.000000 0.023537 0.000000 0.000118
# 5 -0.001392 -0.004291 0.000417 0.000000 0.029627 0.000000
# 6 0.000000 0.000000 0.000000 0.000118 0.000000 0.022115
#
#
# Mechanical properties :
#
#
# Convention : Reuss Voigt Hill
#
# Bulk Modulus (GPa) = 30.65609 33.51824 32.08717
# Shear Modulus (GPa) = 41.33736 44.94101 43.13919
#
# Velocity S-wave (km/s) = 4.03687 4.20916 4.12391
# Velocity P-wave (km/s) = 5.81498 6.06931 5.94350
#
# Compressibility (1/GPa) = 0.03261994
#
# Stress axis : x y z
#
# Youngs Moduli (GPa) = 87.79086 95.51229 84.38028
#
# Poissons Ratio (x) = -0.23524 -0.01319
# Poissons Ratio (y) = -0.21622 0.26707
# Poissons Ratio (z) = -0.01373 0.30231
#
# Static dielectric constant tensor:
#      x y z
#    x 2.038640 0.000000 0.011340 
#    y 0.000000 2.002680 0.000000 
#    z 0.011340 0.000000 2.021510 
# 
# From -- ./inp_files/263406.got.cif
#   From: 2010.05.17/outbox.cif.g08.bks.cpg/sg15_132_cif.got.tgz:263406.got - 2010.06.03 18:47:42.
