data_PCOD9305665
_publ_section_title
;
Structure prediction by ZEFSAII (Michael W. Deem and Ramdas Pophale) SiO2 
 PCOD9305665
Probable space group: C 2/C
;
_chemical_formula_sum "Si O2"
_cell_formula_units_Z 40
_cell_length_a 9.727491
_cell_length_b 10.552044
_cell_length_c 16.990543
_cell_angle_alpha 90.000000
_cell_angle_beta 98.659581
_cell_angle_gamma 90.000000
_cell_volume 1724.111896
_symmetry_space_group_name_H-M "C 2/C"
_symmetry_group_IT_number 15
_symmetry_cell_setting 'monoclinic'
loop_
_space_group_symop_operation_xyz
x,y,z
-x,y,1/2-z
-x,-y,-z
x,-y,1/2+z
1/2+x,1/2+y,z
1/2-x,1/2+y,1/2-z
1/2-x,1/2-y,-z
1/2+x,1/2-y,1/2+z
loop_
_atom_site_type_symbol
_atom_site_label
_atom_site_fract_x
_atom_site_fract_y
_atom_site_fract_z
Si Si1 0.838144 0.607689 0.726911
Si Si2 0.281001 0.478684 0.929686
Si Si3 0.977831 0.359368 0.533393
Si Si4 0.209092 0.346401 0.686013
Si Si5 0.560598 0.364429 0.923534
O O1 0.804463 0.571534 0.633811
O O2 0.811027 0.478343 0.771854
O O3 0.736005 0.722679 0.741781
O O4 0.000000 0.639893 0.750000
O O5 0.179501 0.366646 0.948448
O O6 0.415998 0.433645 0.893912
O O7 0.343437 0.551176 0.010171
O O8 0.000000 0.500000 0.500000
O O9 0.079945 0.332431 0.615285
O O10 0.015167 0.258194 0.469801
O O11 0.347790 0.346871 0.645098
#
# Coordination Sequence:
#
# PCOD9305665 Si02
#       5
#     8   8   8   8   8
#     4  12  28  50  72 109 154 202 250 303 381 456
#     4  11  24  46  72 112 144 186 247 310 369 439
#     4  12  22  43  76 108 140 188 249 307 368 434
#     4  12  27  48  75 106 150 201 248 307 374 451
#     4  11  25  45  75 109 144 188 250 311 368 433
#
# _framework density 23.200348000000002
#
# number of rings (size 3 to 8) (size 9 to 14) (size 15 to 20)
#    0.000    0.400    6.000    2.400    2.800    0.000 
#   10.800    0.000    0.000    0.000    0.000    0.000 
#    0.000    0.000    0.000    0.000    0.000    0.000 
#
# Total GULP energy -112016.721407 kJ/mol
# GULP energy per Si atom -5600.836070 kJ/mol
# Density = 2.314754 g / cm^3
# Si number density = 23.200348 Si / 1000 Ang^3
#
#
#
# Elastic Constant Matrix: (Units=GPa)
#
#
# Indices 1 2 3 4 5 6 
#
# 1 134.5670 31.1803 30.6029 0.0000 19.9805 0.0000
# 2 31.1803 100.1944 9.4807 0.0000 21.5335 0.0000
# 3 30.6029 9.4807 39.9643 0.0000 20.8654 0.0000
# 4 0.0000 0.0000 0.0000 29.8608 0.0000 3.4841
# 5 19.9805 21.5335 20.8654 0.0000 40.1866 0.0000
# 6 0.0000 0.0000 0.0000 3.4841 0.0000 44.2164
#
#
#
# Elastic Compliance Matrix: (Units=1/GPa)
#
#
# Indices 1 2 3 4 5 6 
#
# 1 0.009498 -0.002322 -0.006731 0.000000 0.000017 0.000000
# 2 -0.002322 0.011860 0.002305 0.000000 -0.006397 0.000000
# 3 -0.006731 0.002305 0.039136 0.000000 -0.018209 0.000000
# 4 0.000000 0.000000 0.000000 0.033799 0.000000 -0.002663
# 5 0.000017 -0.006397 -0.018209 0.000000 0.037757 0.000000
# 6 0.000000 0.000000 0.000000 -0.002663 0.000000 0.022826
#
#
# Mechanical properties :
#
#
# Convention : Reuss Voigt Hill
#
# Bulk Modulus (GPa) = 21.27788 46.36151 33.81969
# Shear Modulus (GPa) = 27.16814 36.41690 31.79252
#
# Velocity S-wave (km/s) = 3.42573 3.96620 3.70584
# Velocity P-wave (km/s) = 4.98385 6.40319 5.73758
#
# Compressibility (1/GPa) = 0.04699717
#
# Stress axis : x y z
#
# Youngs Moduli (GPa) = 105.29071 84.31656 25.55168
#
# Poissons Ratio (x) = 0.19581 0.17198
# Poissons Ratio (y) = 0.24452 -0.05889
# Poissons Ratio (z) = 0.70868 -0.19432
#
# Static dielectric constant tensor:
#      x y z
#    x 1.853800 0.000000 -0.016960 
#    y 0.000000 1.957950 0.000000 
#    z -0.016960 0.000000 1.851520 
# 
# From -- ./inp_files/187806.got.cif
#   From: 2010.05.17/outbox.cif.g08.bks.cpg/sg15_94_cif.got.tgz:187806.got - 2010.06.03 18:47:42.
