data_PCOD9305070
_publ_section_title
;
Structure prediction by ZEFSAII (Michael W. Deem and Ramdas Pophale) SiO2 
 PCOD9305070
Probable space group: C 2/C
;
_chemical_formula_sum "Si O2"
_cell_formula_units_Z 32
_cell_length_a 5.019374
_cell_length_b 13.428779
_cell_length_c 18.020661
_cell_angle_alpha 90.000000
_cell_angle_beta 71.313201
_cell_angle_gamma 90.000000
_cell_volume 1150.633617
_symmetry_space_group_name_H-M "C 2/C"
_symmetry_group_IT_number 15
_symmetry_cell_setting 'monoclinic'
loop_
_space_group_symop_operation_xyz
x,y,z
-x,y,1/2-z
-x,-y,-z
x,-y,1/2+z
1/2+x,1/2+y,z
1/2-x,1/2+y,1/2-z
1/2-x,1/2-y,-z
1/2+x,1/2-y,1/2+z
loop_
_atom_site_type_symbol
_atom_site_label
_atom_site_fract_x
_atom_site_fract_y
_atom_site_fract_z
Si Si1 0.517443 0.393192 0.907675
Si Si2 0.790354 0.113904 0.586230
Si Si3 0.324756 0.308678 0.319225
Si Si4 0.900589 0.366648 0.688053
O O1 0.684238 0.494286 0.910124
O O2 0.309721 0.398562 0.856027
O O3 0.789967 0.322872 0.866591
O O4 0.343243 0.363060 0.994566
O O5 0.498373 0.156369 0.639598
O O6 0.043956 0.156305 0.610878
O O7 0.500000 0.388832 0.250000
O O8 0.702357 0.234996 0.262945
O O9 0.000000 0.431489 0.750000
#
# Coordination Sequence:
#
# PCOD9305070 Si02
#       4
#     8   8   8   8
#     4  11  24  42  65  95 131 171 218 272 331 398
#     4  11  24  42  65  95 131 171 218 272 331 398
#     4  11  24  42  65  95 131 171 219 274 331 396
#     4  11  24  42  65  95 131 171 219 274 331 396
#
# _framework density 27.810763000000001
#
# number of rings (size 3 to 8) (size 9 to 14) (size 15 to 20)
#    0.000    1.000    0.000    6.000    0.000   18.000 
#    0.000    0.000    0.000    0.000    0.000    0.000 
#    0.000    0.000    0.000    0.000    0.000    0.000 
#
# Total GULP energy -89093.212117 kJ/mol
# GULP energy per Si atom -5568.325757 kJ/mol
# Density = 2.774746 g / cm^3
# Si number density = 27.810763 Si / 1000 Ang^3
#
#
#
# Elastic Constant Matrix: (Units=GPa)
#
#
# Indices 1 2 3 4 5 6 
#
# 1 250.9895 31.4063 90.6847 0.0000 2.5925 0.0000
# 2 31.4063 113.2039 42.5496 0.0000 7.2083 0.0000
# 3 90.6847 42.5496 238.0128 0.0000 1.9196 0.0000
# 4 0.0000 0.0000 0.0000 12.8492 0.0000 21.2727
# 5 2.5925 7.2083 1.9196 0.0000 44.8393 0.0000
# 6 0.0000 0.0000 0.0000 21.2727 0.0000 23.2313
#
#
#
# Elastic Compliance Matrix: (Units=1/GPa)
#
#
# Indices 1 2 3 4 5 6 
#
# 1 0.004668 -0.000666 -0.001659 0.000000 -0.000092 0.000000
# 2 -0.000666 0.009660 -0.001462 0.000000 -0.001452 0.000000
# 3 -0.001659 -0.001462 0.005094 0.000000 0.000113 0.000000
# 4 0.000000 0.000000 0.000000 -0.150831 0.000000 0.138114
# 5 -0.000092 -0.001452 0.000113 0.000000 0.022536 0.000000
# 6 0.000000 0.000000 0.000000 0.138114 0.000000 -0.083424
#
#
# Mechanical properties :
#
#
# Convention : Reuss Voigt Hill
#
# Bulk Modulus (GPa) = 84.39021 103.49861 93.94441
# Shear Modulus (GPa) = -27.65858 45.35500 8.84821
#
# Velocity S-wave (km/s) = -3.15703 4.04275 1.78563
# Velocity P-wave (km/s) = 4.13777 7.68686 6.17289
#
# Compressibility (1/GPa) = 0.01184972
#
# Stress axis : x y z
#
# Youngs Moduli (GPa) = 214.23437 103.51847 196.31637
#
# Poissons Ratio (x) = 0.06891 0.32563
# Poissons Ratio (y) = 0.14261 0.28694
# Poissons Ratio (z) = 0.35535 0.15130
#
# Static dielectric constant tensor:
#      x y z
#    x 2.994660 0.000000 -0.550900 
#    y 0.000000 2.976540 0.000000 
#    z -0.550900 0.000000 2.616870 
# 
# From -- ./inp_files/184577.got.cif
#   From: 2010.05.17/outbox.cif.g08.bks.cpg/sg15_93_cif.got.tgz:184577.got - 2010.06.03 18:47:42.
