data_PCOD9305289
_publ_section_title
;
Structure prediction by ZEFSAII (Michael W. Deem and Ramdas Pophale) SiO2 
 PCOD9305289
Probable space group: C 2/C
;
_chemical_formula_sum "Si O2"
_cell_formula_units_Z 64
_cell_length_a 23.966842
_cell_length_b 5.811904
_cell_length_c 22.329744
_cell_angle_alpha 90.000000
_cell_angle_beta 80.206310
_cell_angle_gamma 90.000000
_cell_volume 3065.048047
_symmetry_space_group_name_H-M "C 2/C"
_symmetry_group_IT_number 15
_symmetry_cell_setting 'monoclinic'
loop_
_space_group_symop_operation_xyz
x,y,z
-x,y,1/2-z
-x,-y,-z
x,-y,1/2+z
1/2+x,1/2+y,z
1/2-x,1/2+y,1/2-z
1/2-x,1/2-y,-z
1/2+x,1/2-y,1/2+z
loop_
_atom_site_type_symbol
_atom_site_label
_atom_site_fract_x
_atom_site_fract_y
_atom_site_fract_z
Si Si1 0.314177 0.180904 0.056316
Si Si2 0.069163 0.750444 0.229665
Si Si3 0.913848 0.751896 0.837693
Si Si4 0.375613 0.801033 0.964921
Si Si5 0.403388 0.700567 0.644292
Si Si6 0.993267 0.519045 0.904034
Si Si7 0.448532 0.621235 0.042222
Si Si8 0.310151 0.423795 0.931958
O O1 0.352969 0.229532 0.107683
O O2 0.250991 0.106113 0.086238
O O3 0.303375 0.363504 0.004073
O O4 0.345859 0.982066 0.013178
O O5 0.085322 0.493112 0.199886
O O6 0.106130 0.791870 0.283432
O O7 0.000000 0.742545 0.250000
O O8 0.080837 0.994320 0.193126
O O9 0.970372 0.725740 0.867458
O O10 0.858131 0.769897 0.890446
O O11 0.333302 0.684797 0.926410
O O12 0.434587 0.890299 0.927408
O O13 0.398291 0.602061 0.004755
O O14 0.425750 0.467781 0.609403
O O15 0.459571 0.858180 0.631707
O O16 0.028131 0.626245 0.951930
O O17 0.500000 0.500000 0.000000
#
# Coordination Sequence:
#
# PCOD9305289 Si02
#       8
#     8   8   8   8   8   8   8   8
#     4  11  24  44  67 101 139 183 236 291 360 432
#     4  12  27  46  72 102 142 188 240 294 360 423
#     4  12  26  47  70 103 137 192 239 295 353 427
#     4  12  21  38  64 104 141 184 224 287 366 440
#     4  12  25  43  65 102 141 186 234 294 357 431
#     4  12  23  37  66  97 141 176 224 286 366 425
#     4  12  22  34  59 100 142 180 218 277 367 437
#     4  11  25  44  69  97 139 185 238 293 355 428
#
# _framework density 20.880586000000001
#
# number of rings (size 3 to 8) (size 9 to 14) (size 15 to 20)
#    0.000    0.250    6.250    4.125    1.750    0.000 
#    0.000    1.250    0.000    0.000    0.000    0.000 
#    0.000    0.000    0.000    0.000    0.000    0.000 
#
# Total GULP energy -178161.186513 kJ/mol
# GULP energy per Si atom -5567.537079 kJ/mol
# Density = 2.083306 g / cm^3
# Si number density = 20.880586 Si / 1000 Ang^3
#
#
#
# Elastic Constant Matrix: (Units=GPa)
#
#
# Indices 1 2 3 4 5 6 
#
# 1 161.1164 30.8983 36.8368 0.0000 11.7613 0.0000
# 2 30.8983 56.4783 26.7242 0.0000 9.0828 0.0000
# 3 36.8368 26.7242 69.3886 0.0000 16.1949 0.0000
# 4 0.0000 0.0000 0.0000 27.5721 0.0000 -8.4190
# 5 11.7613 9.0828 16.1949 0.0000 17.2092 0.0000
# 6 0.0000 0.0000 0.0000 -8.4190 0.0000 4.2795
#
#
#
# Elastic Compliance Matrix: (Units=1/GPa)
#
#
# Indices 1 2 3 4 5 6 
#
# 1 0.007398 -0.002603 -0.002647 0.000000 -0.001191 0.000000
# 2 -0.002603 0.022854 -0.006433 0.000000 -0.004229 0.000000
# 3 -0.002647 -0.006433 0.021887 0.000000 -0.015393 0.000000
# 4 0.000000 0.000000 0.000000 0.090832 0.000000 0.178693
# 5 -0.001191 -0.004229 -0.015393 0.000000 0.075640 0.000000
# 6 0.000000 0.000000 0.000000 0.178693 0.000000 0.585214
#
#
# Mechanical properties :
#
#
# Convention : Reuss Voigt Hill
#
# Bulk Modulus (GPa) = 34.75479 52.87800 43.81640
# Shear Modulus (GPa) = 5.97527 22.64710 14.31119
#
# Velocity S-wave (km/s) = 1.69347 3.29690 2.62082
# Velocity P-wave (km/s) = 4.52819 6.31441 5.49437
#
# Compressibility (1/GPa) = 0.02877301
#
# Stress axis : x y z
#
# Youngs Moduli (GPa) = 135.17050 43.75563 45.68957
#
# Poissons Ratio (x) = 0.11391 0.12093
# Poissons Ratio (y) = 0.35190 0.29392
# Poissons Ratio (z) = 0.35776 0.28148
#
# Static dielectric constant tensor:
#      x y z
#    x 1.736080 0.000000 0.034080 
#    y 0.000000 1.463040 0.000000 
#    z 0.034080 0.000000 1.813470 
# 
# From -- ./inp_files/281194.got.cif
#   From: 2010.05.17/outbox.cif.g08.bks.cpg/sg15_141_cif.got.tgz:281194.got - 2010.06.03 18:47:42.
