data_PCOD9305449
_publ_section_title
;
Structure prediction by ZEFSAII (Michael W. Deem and Ramdas Pophale) SiO2 
 PCOD9305449
Probable space group: C 2/C
;
_chemical_formula_sum "Si O2"
_cell_formula_units_Z 60
_cell_length_a 20.859231
_cell_length_b 19.109785
_cell_length_c 11.610446
_cell_angle_alpha 90.000000
_cell_angle_beta 35.494466
_cell_angle_gamma 90.000000
_cell_volume 2687.189046
_symmetry_space_group_name_H-M "C 2/C"
_symmetry_group_IT_number 15
_symmetry_cell_setting 'monoclinic'
loop_
_space_group_symop_operation_xyz
x,y,z
-x,y,1/2-z
-x,-y,-z
x,-y,1/2+z
1/2+x,1/2+y,z
1/2-x,1/2+y,1/2-z
1/2-x,1/2-y,-z
1/2+x,1/2-y,1/2+z
loop_
_atom_site_type_symbol
_atom_site_label
_atom_site_fract_x
_atom_site_fract_y
_atom_site_fract_z
Si Si1 0.055242 0.613891 0.921685
Si Si2 0.182129 0.875957 0.286518
Si Si3 0.000000 0.434750 0.250000
Si Si4 0.991134 0.824107 0.140275
Si Si5 0.307654 0.003891 0.152604
Si Si6 0.258909 0.660907 0.204876
Si Si7 0.245279 0.779576 0.378901
Si Si8 0.862881 0.321918 0.845316
O O1 0.123607 0.544452 0.858371
O O2 0.135235 0.681214 0.809361
O O3 0.012991 0.605328 0.852438
O O4 0.954184 0.624931 0.158900
O O5 0.080372 0.858978 0.353844
O O6 0.205214 0.957444 0.264145
O O7 0.172604 0.841600 0.426645
O O8 0.294023 0.845197 0.058462
O O9 0.891161 0.481159 0.426151
O O10 0.931775 0.749833 0.251935
O O11 0.000000 0.863665 0.250000
O O12 0.119840 0.821187 0.924618
O O13 0.267410 0.079566 0.251492
O O14 0.195027 0.713914 0.380518
O O15 0.229458 0.684477 0.119351
O O16 0.250000 0.750000 0.500000
#
# Coordination Sequence:
#
# PCOD9305449 Si02
#       8
#     8   8   4   8   8   8   8   8
#     4  11  25  41  68 104 136 184 234 291 367 415
#     4  11  25  45  70 102 140 182 234 300 354 420
#     4  12  22  40  66 100 140 184 234 296 358 418
#     4  12  24  40  71 104 133 176 232 288 358 412
#     4  11  26  41  66 100 142 185 230 287 361 424
#     4  12  24  44  67 100 140 182 226 294 346 424
#     4  11  24  45  67  99 137 184 232 283 349 429
#     4  12  23  43  72 104 139 167 242 302 357 405
#
# _framework density 22.328164000000001
#
# number of rings (size 3 to 8) (size 9 to 14) (size 15 to 20)
#    0.000    0.533    5.333    3.200    3.733    0.533 
#    0.000    0.000    0.000    0.000    0.000    0.000 
#    0.000    0.000    0.000    0.000    0.000    0.000 
#
# Total GULP energy -167355.164685 kJ/mol
# GULP energy per Si atom -5578.505490 kJ/mol
# Density = 2.227734 g / cm^3
# Si number density = 22.328164 Si / 1000 Ang^3
#
#
#
# Elastic Constant Matrix: (Units=GPa)
#
#
# Indices 1 2 3 4 5 6 
#
# 1 131.2015 48.9718 23.6934 0.0000 -6.4307 0.0000
# 2 48.9718 138.3421 28.9514 0.0000 -10.7314 0.0000
# 3 23.6934 28.9514 50.4910 0.0000 -3.6288 0.0000
# 4 0.0000 0.0000 0.0000 21.4304 0.0000 -2.5741
# 5 -6.4307 -10.7314 -3.6288 0.0000 43.8035 0.0000
# 6 0.0000 0.0000 0.0000 -2.5741 0.0000 26.7250
#
#
#
# Elastic Compliance Matrix: (Units=1/GPa)
#
#
# Indices 1 2 3 4 5 6 
#
# 1 0.009117 -0.002617 -0.002744 0.000000 0.000470 0.000000
# 2 -0.002617 0.009083 -0.003871 0.000000 0.001520 0.000000
# 3 -0.002744 -0.003871 0.023355 0.000000 0.000584 0.000000
# 4 0.000000 0.000000 0.000000 0.047209 0.000000 0.004547
# 5 0.000470 0.001520 0.000584 0.000000 0.023319 0.000000
# 6 0.000000 0.000000 0.000000 0.004547 0.000000 0.037856
#
#
# Mechanical properties :
#
#
# Convention : Reuss Voigt Hill
#
# Bulk Modulus (GPa) = 43.30636 58.14084 50.72360
# Shear Modulus (GPa) = 28.39312 32.95298 30.67305
#
# Velocity S-wave (km/s) = 3.56986 3.84584 3.71042
# Velocity P-wave (km/s) = 6.03567 6.76879 6.41271
#
# Compressibility (1/GPa) = 0.02309130
#
# Stress axis : x y z
#
# Youngs Moduli (GPa) = 109.68348 110.09908 42.81791
#
# Poissons Ratio (x) = 0.28809 0.11750
# Poissons Ratio (y) = 0.28700 0.16574
# Poissons Ratio (z) = 0.30099 0.42618
#
# Static dielectric constant tensor:
#      x y z
#    x 1.851680 0.000000 -0.022470 
#    y 0.000000 1.856880 0.000000 
#    z -0.022470 0.000000 2.052270 
# 
# From -- ./inp_files/113787.got.cif
#   From: 2010.05.17/outbox.cif.g08.bks.cpg/sg15_57_cif.got.tgz:113787.got - 2010.06.03 18:47:42.
