data_PCOD9305855
_publ_section_title
;
Structure prediction by ZEFSAII (Michael W. Deem and Ramdas Pophale) SiO2 
 PCOD9305855
Probable space group: C 2/C
;
_chemical_formula_sum "Si O2"
_cell_formula_units_Z 40
_cell_length_a 18.048207
_cell_length_b 7.470695
_cell_length_c 17.989529
_cell_angle_alpha 90.000000
_cell_angle_beta 130.837363
_cell_angle_gamma 90.000000
_cell_volume 1835.115007
_symmetry_space_group_name_H-M "C 2/C"
_symmetry_group_IT_number 15
_symmetry_cell_setting 'monoclinic'
loop_
_space_group_symop_operation_xyz
x,y,z
-x,y,1/2-z
-x,-y,-z
x,-y,1/2+z
1/2+x,1/2+y,z
1/2-x,1/2+y,1/2-z
1/2-x,1/2-y,-z
1/2+x,1/2-y,1/2+z
loop_
_atom_site_type_symbol
_atom_site_label
_atom_site_fract_x
_atom_site_fract_y
_atom_site_fract_z
Si Si1 0.639721 0.047299 0.635516
Si Si2 0.568589 0.048410 0.933567
Si Si3 0.336296 0.383102 0.531091
Si Si4 0.275142 0.595349 0.347975
Si Si5 0.612770 0.261423 0.347206
O O1 0.541278 0.999519 0.615283
O O2 0.644594 0.258073 0.621296
O O3 0.632316 0.954079 0.550765
O O4 0.731486 0.996153 0.746199
O O5 0.571420 0.249608 0.904744
O O6 0.610570 0.902407 0.904624
O O7 0.250000 0.250000 0.500000
O O8 0.315776 0.457056 0.435084
O O9 0.349225 0.557306 0.590133
O O10 0.186194 0.701799 0.330258
O O11 0.500000 0.285612 0.250000
#
# Coordination Sequence:
#
# PCOD9305855 Si02
#       5
#     8   8   8   8   8
#     4  11  25  43  71 100 146 177 231 292 363 413
#     4  11  24  48  68 100 142 186 225 297 347 419
#     4  12  25  42  74 102 137 181 239 288 343 411
#     4  12  24  44  70 105 137 184 233 293 352 421
#     4  12  25  46  74 101 138 188 239 282 348 424
#
# _framework density 21.796999
#
# number of rings (size 3 to 8) (size 9 to 14) (size 15 to 20)
#    0.000    0.400    6.000    3.000    0.000    4.800 
#    0.000    0.000    0.000    0.000    0.000    0.000 
#    0.000    0.000    0.000    0.000    0.000    0.000 
#
# Total GULP energy -111921.639222 kJ/mol
# GULP energy per Si atom -5596.081961 kJ/mol
# Density = 2.174739 g / cm^3
# Si number density = 21.796999 Si / 1000 Ang^3
#
#
#
# Elastic Constant Matrix: (Units=GPa)
#
#
# Indices 1 2 3 4 5 6 
#
# 1 59.8613 17.2208 2.7453 0.0000 -7.0143 0.0000
# 2 17.2208 146.5239 39.7085 0.0000 -10.8770 0.0000
# 3 2.7453 39.7085 74.8292 0.0000 -8.3135 0.0000
# 4 0.0000 0.0000 0.0000 35.4672 0.0000 -1.5035
# 5 -7.0143 -10.8770 -8.3135 0.0000 20.2692 0.0000
# 6 0.0000 0.0000 0.0000 -1.5035 0.0000 44.1251
#
#
#
# Elastic Compliance Matrix: (Units=1/GPa)
#
#
# Indices 1 2 3 4 5 6 
#
# 1 0.017873 -0.001960 0.001000 0.000000 0.005543 0.000000
# 2 -0.001960 0.008326 -0.004113 0.000000 0.002103 0.000000
# 3 0.001000 -0.004113 0.016033 0.000000 0.004715 0.000000
# 4 0.000000 0.000000 0.000000 0.028236 0.000000 0.000962
# 5 0.005543 0.002103 0.004715 0.000000 0.054317 0.000000
# 6 0.000000 0.000000 0.000000 0.000962 0.000000 0.022696
#
#
# Mechanical properties :
#
#
# Convention : Reuss Voigt Hill
#
# Bulk Modulus (GPa) = 31.16516 44.50708 37.83612
# Shear Modulus (GPa) = 29.70518 34.74162 32.22340
#
# Velocity S-wave (km/s) = 3.69563 3.99666 3.84909
# Velocity P-wave (km/s) = 5.70431 6.46227 6.09509
#
# Compressibility (1/GPa) = 0.03208711
#
# Stress axis : x y z
#
# Youngs Moduli (GPa) = 55.95072 120.10814 62.37007
#
# Poissons Ratio (x) = 0.23543 -0.06239
# Poissons Ratio (y) = 0.10967 0.25650
# Poissons Ratio (z) = -0.05597 0.49396
#
# Static dielectric constant tensor:
#      x y z
#    x 1.806600 0.000000 0.011130 
#    y 0.000000 1.782870 0.000000 
#    z 0.011130 0.000000 1.780360 
# 
# From -- ./inp_files/251137.got.cif
#   From: 2010.05.17/outbox.cif.g08.bks.cpg/sg15_126_cif.got.tgz:251137.got - 2010.06.03 18:47:42.
