data_PCOD9305374
_publ_section_title
;
Structure prediction by ZEFSAII (Michael W. Deem and Ramdas Pophale) SiO2 
 PCOD9305374
Probable space group: C 2/C
;
_chemical_formula_sum "Si O2"
_cell_formula_units_Z 48
_cell_length_a 9.830445
_cell_length_b 21.966413
_cell_length_c 11.045627
_cell_angle_alpha 90.000000
_cell_angle_beta 75.565170
_cell_angle_gamma 90.000000
_cell_volume 2309.892344
_symmetry_space_group_name_H-M "C 2/C"
_symmetry_group_IT_number 15
_symmetry_cell_setting 'monoclinic'
loop_
_space_group_symop_operation_xyz
x,y,z
-x,y,1/2-z
-x,-y,-z
x,-y,1/2+z
1/2+x,1/2+y,z
1/2-x,1/2+y,1/2-z
1/2-x,1/2-y,-z
1/2+x,1/2-y,1/2+z
loop_
_atom_site_type_symbol
_atom_site_label
_atom_site_fract_x
_atom_site_fract_y
_atom_site_fract_z
Si Si1 0.500000 0.685769 0.250000
Si Si2 0.789617 0.321592 0.992122
Si Si3 0.263852 0.264929 0.138966
Si Si4 0.150347 0.617254 0.774286
Si Si5 0.624448 0.521655 0.820259
Si Si6 0.451062 0.597895 0.046741
Si Si7 0.000000 0.706995 0.250000
O O1 0.637345 0.727385 0.230357
O O2 0.516325 0.642673 0.130884
O O3 0.648120 0.360613 0.013440
O O4 0.890089 0.330567 0.854602
O O5 0.750000 0.250000 0.000000
O O6 0.863454 0.346257 0.096426
O O7 0.234039 0.335285 0.170790
O O8 0.407997 0.245788 0.173678
O O9 0.250000 0.250000 0.000000
O O10 0.241377 0.555973 0.763362
O O11 0.000000 0.605075 0.750000
O O12 0.500000 0.519993 0.750000
O O13 0.642452 0.453199 0.864310
O O14 0.565334 0.561345 0.945088
#
# Coordination Sequence:
#
# PCOD9305374 Si02
#       7
#     4   8   8   8   8   8   4
#     4  12  22  44  65  97 138 168 224 290 342 408
#     4  12  25  44  70 104 142 177 227 292 352 414
#     4  12  26  40  64  99 138 179 222 283 352 415
#     4  12  25  45  67 102 139 182 234 282 348 417
#     4  11  24  45  73  98 132 186 238 281 332 408
#     4  11  24  44  72 103 133 179 237 285 336 408
#     4  12  26  40  65 103 136 180 224 282 364 410
#
# _framework density 20.780190000000001
#
# number of rings (size 3 to 8) (size 9 to 14) (size 15 to 20)
#    0.000    0.333    6.667    2.000    5.833    0.000 
#    1.500    0.833    0.000    0.000    0.000    0.000 
#    0.000    0.000    0.000    0.000    0.000    0.000 
#
# Total GULP energy -134248.756232 kJ/mol
# GULP energy per Si atom -5593.698176 kJ/mol
# Density = 2.073289 g / cm^3
# Si number density = 20.780190 Si / 1000 Ang^3
#
#
#
# Elastic Constant Matrix: (Units=GPa)
#
#
# Indices 1 2 3 4 5 6 
#
# 1 97.9352 27.8817 5.7333 0.0000 25.2930 0.0000
# 2 27.8817 107.0886 2.7366 0.0000 4.1755 0.0000
# 3 5.7333 2.7366 79.5860 0.0000 12.5948 0.0000
# 4 0.0000 0.0000 0.0000 33.5523 0.0000 -1.6305
# 5 25.2930 4.1755 12.5948 0.0000 36.7617 0.0000
# 6 0.0000 0.0000 0.0000 -1.6305 0.0000 26.1553
#
#
#
# Elastic Compliance Matrix: (Units=1/GPa)
#
#
# Indices 1 2 3 4 5 6 
#
# 1 0.013418 -0.003155 0.000577 0.000000 -0.009071 0.000000
# 2 -0.003155 0.010123 -0.000299 0.000000 0.001123 0.000000
# 3 0.000577 -0.000299 0.013313 0.000000 -0.004924 0.000000
# 4 0.000000 0.000000 0.000000 0.029895 0.000000 0.001864
# 5 -0.009071 0.001123 -0.004924 0.000000 0.035003 0.000000
# 6 0.000000 0.000000 0.000000 0.001864 0.000000 0.038349
#
#
# Mechanical properties :
#
#
# Convention : Reuss Voigt Hill
#
# Bulk Modulus (GPa) = 32.15139 39.70146 35.92642
# Shear Modulus (GPa) = 32.00604 35.84441 33.92523
#
# Velocity S-wave (km/s) = 3.92882 4.15774 4.04490
# Velocity P-wave (km/s) = 6.00721 6.49584 6.25630
#
# Compressibility (1/GPa) = 0.03110285
#
# Stress axis : x y z
#
# Youngs Moduli (GPa) = 74.52716 98.78273 75.11451
#
# Poissons Ratio (x) = 0.31162 -0.04337
# Poissons Ratio (y) = 0.23510 0.02242
# Poissons Ratio (z) = -0.04304 0.02949
#
# Static dielectric constant tensor:
#      x y z
#    x 1.744790 0.000000 -0.013840 
#    y 0.000000 1.717690 0.000000 
#    z -0.013840 0.000000 1.825250 
# 
# From -- ./inp_files/79190.got.cif
#   From: 2010.05.17/outbox.cif.g08.bks.cpg/sg15_40_cif.got.tgz:79190.got - 2010.06.03 18:47:42.
