data_PCOD9305001
_publ_section_title
;
Structure prediction by ZEFSAII (Michael W. Deem and Ramdas Pophale) SiO2 
 PCOD9305001
Probable space group: C 2/C
;
_chemical_formula_sum "Si O2"
_cell_formula_units_Z 32
_cell_length_a 9.730937
_cell_length_b 16.164869
_cell_length_c 15.065351
_cell_angle_alpha 90.000000
_cell_angle_beta 40.384425
_cell_angle_gamma 90.000000
_cell_volume 1535.404142
_symmetry_space_group_name_H-M "C 2/C"
_symmetry_group_IT_number 15
_symmetry_cell_setting 'monoclinic'
loop_
_space_group_symop_operation_xyz
x,y,z
-x,y,1/2-z
-x,-y,-z
x,-y,1/2+z
1/2+x,1/2+y,z
1/2-x,1/2+y,1/2-z
1/2-x,1/2-y,-z
1/2+x,1/2-y,1/2+z
loop_
_atom_site_type_symbol
_atom_site_label
_atom_site_fract_x
_atom_site_fract_y
_atom_site_fract_z
Si Si1 0.500000 0.373161 0.250000
Si Si2 0.500000 0.918937 0.750000
Si Si3 0.177400 0.502570 0.490418
Si Si4 0.225514 0.809836 0.593554
Si Si5 0.493615 0.231518 0.128243
O O1 0.340904 0.432662 0.379206
O O2 0.402002 0.311179 0.224810
O O3 0.585388 0.849500 0.777935
O O4 0.614758 0.978211 0.622149
O O5 0.263378 0.595226 0.442861
O O6 0.000000 0.500000 0.500000
O O7 0.250000 0.750000 0.500000
O O8 0.408036 0.785415 0.573387
O O9 0.000000 0.796353 0.750000
O O10 0.750000 0.250000 0.000000
#
# Coordination Sequence:
#
# PCOD9305001 Si02
#       5
#     4   4   8   8   8
#     4  11  24  44  77 100 138 190 243 292 340 447
#     4  11  24  40  79 104 136 194 249 292 342 439
#     4  12  25  47  70 106 145 185 244 296 356 431
#     4  12  30  47  69 109 153 182 233 314 372 409
#     4  11  24  47  76 105 140 194 247 282 360 441
#
# _framework density 20.841419999999999
#
# number of rings (size 3 to 8) (size 9 to 14) (size 15 to 20)
#    0.000    0.500    6.250    0.000   12.250    0.000 
#    0.000    3.750    0.000    0.000    0.000    0.000 
#    0.000    0.000    0.000    0.000    0.000    0.000 
#
# Total GULP energy -89243.939106 kJ/mol
# GULP energy per Si atom -5577.746194 kJ/mol
# Density = 2.079398 g / cm^3
# Si number density = 20.841420 Si / 1000 Ang^3
#
#
#
# Elastic Constant Matrix: (Units=GPa)
#
#
# Indices 1 2 3 4 5 6 
#
# 1 101.2046 51.4951 64.4290 0.0008 25.4001 0.0003
# 2 51.4951 178.9414 91.9363 0.0021 18.5135 -0.0008
# 3 64.4290 91.9363 202.5034 0.0035 26.9098 -0.0020
# 4 0.0008 0.0021 0.0035 57.5633 -0.0014 11.7129
# 5 25.4001 18.5135 26.9098 -0.0014 39.6659 0.0006
# 6 0.0003 -0.0008 -0.0020 11.7129 0.0006 14.5950
#
#
#
# Elastic Compliance Matrix: (Units=1/GPa)
#
#
# Indices 1 2 3 4 5 6 
#
# 1 0.014263 -0.002023 -0.002782 0.000000 -0.006302 -0.000001
# 2 -0.002023 0.007634 -0.002771 0.000000 -0.000388 0.000000
# 3 -0.002782 -0.002771 0.007334 -0.000001 -0.001901 0.000002
# 4 0.000000 0.000000 -0.000001 0.020763 0.000002 -0.016663
# 5 -0.006302 -0.000388 -0.001901 0.000002 0.030716 -0.000003
# 6 -0.000001 0.000000 0.000002 -0.016663 -0.000003 0.081889
#
#
# Mechanical properties :
#
#
# Convention : Reuss Voigt Hill
#
# Bulk Modulus (GPa) = 71.02637 99.81894 85.42266
# Shear Modulus (GPa) = 27.40559 40.68411 34.04485
#
# Velocity S-wave (km/s) = 3.63017 4.42303 4.04607
# Velocity P-wave (km/s) = 7.19196 8.60713 7.93117
#
# Compressibility (1/GPa) = 0.01407928
#
# Stress axis : x y z
#
# Youngs Moduli (GPa) = 70.11072 130.98723 136.35513
#
# Poissons Ratio (x) = 0.26502 0.37934
# Poissons Ratio (y) = 0.14185 0.37780
# Poissons Ratio (z) = 0.19505 0.36293
#
# Static dielectric constant tensor:
#      x y z
#    x 1.789510 0.000000 0.027690 
#    y 0.000000 1.793640 0.000000 
#    z 0.027690 0.000000 1.832080 
# 
# From -- ./inp_files/143267.got.cif
#   From: 2010.05.17/outbox.cif.g08.bks.cpg/sg15_72_cif.got.tgz:143267.got - 2010.06.03 18:47:42.
