data_PCOD9305904
_publ_section_title
;
Structure prediction by ZEFSAII (Michael W. Deem and Ramdas Pophale) SiO2 
 PCOD9305904
Probable space group: C 2/C
;
_chemical_formula_sum "Si O2"
_cell_formula_units_Z 44
_cell_length_a 29.195947
_cell_length_b 11.472126
_cell_length_c 16.883462
_cell_angle_alpha 90.000000
_cell_angle_beta 19.828164
_cell_angle_gamma 90.000000
_cell_volume 1918.157664
_symmetry_space_group_name_H-M "C 2/C"
_symmetry_group_IT_number 15
_symmetry_cell_setting 'monoclinic'
loop_
_space_group_symop_operation_xyz
x,y,z
-x,y,1/2-z
-x,-y,-z
x,-y,1/2+z
1/2+x,1/2+y,z
1/2-x,1/2+y,1/2-z
1/2-x,1/2-y,-z
1/2+x,1/2-y,1/2+z
loop_
_atom_site_type_symbol
_atom_site_label
_atom_site_fract_x
_atom_site_fract_y
_atom_site_fract_z
Si Si1 0.874933 0.720842 0.069893
Si Si2 0.429640 0.118697 0.149050
Si Si3 0.766419 0.025113 0.909052
Si Si4 0.995284 0.056957 0.408214
Si Si5 0.500000 0.961151 0.250000
Si Si6 0.943510 0.205440 0.930655
O O1 0.900047 0.694616 0.120746
O O2 0.717346 0.714316 0.310050
O O3 0.942089 0.843179 0.937177
O O4 0.947262 0.618048 0.906279
O O5 0.510968 0.196172 0.080557
O O6 0.291134 0.091502 0.421156
O O7 0.500000 0.000000 0.000000
O O8 0.851693 0.918858 0.810576
O O9 0.886729 0.066249 0.656373
O O10 0.635076 0.018145 0.066570
O O11 0.984420 0.925764 0.391551
O O12 0.000000 0.225994 0.750000
#
# Coordination Sequence:
#
# PCOD9305904 Si02
#       6
#     8   8   8   8   4   8
#     4  12  28  46  77 110 151 197 253 311 375 446
#     4  12  27  47  76 111 150 200 247 309 376 445
#     4  11  24  48  75 104 149 192 251 305 377 438
#     4  11  26  48  75 108 150 190 253 315 371 438
#     4  12  26  46  72 110 148 206 248 304 378 450
#     4  12  28  49  77 110 152 199 253 308 378 451
#
# _framework density 22.938676999999998
#
# number of rings (size 3 to 8) (size 9 to 14) (size 15 to 20)
#    0.000    0.364    3.636    4.364    7.636    4.364 
#    0.000    0.000    0.000    0.000    0.000    0.000 
#    0.000    0.000    0.000    0.000    0.000    0.000 
#
# Total GULP energy -122829.241466 kJ/mol
# GULP energy per Si atom -5583.147339 kJ/mol
# Density = 2.288647 g / cm^3
# Si number density = 22.938677 Si / 1000 Ang^3
#
#
#
# Elastic Constant Matrix: (Units=GPa)
#
#
# Indices 1 2 3 4 5 6 
#
# 1 140.6020 47.7903 58.9386 0.0000 5.1397 0.0000
# 2 47.7903 114.4045 32.3219 0.0000 -8.3702 0.0000
# 3 58.9386 32.3219 126.5471 0.0000 -16.2929 0.0000
# 4 0.0000 0.0000 0.0000 9.2261 0.0000 -2.8726
# 5 5.1397 -8.3702 -16.2929 0.0000 56.3439 0.0000
# 6 0.0000 0.0000 0.0000 -2.8726 0.0000 56.0353
#
#
#
# Elastic Compliance Matrix: (Units=1/GPa)
#
#
# Indices 1 2 3 4 5 6 
#
# 1 0.010059 -0.003206 -0.004202 0.000000 -0.002609 0.000000
# 2 -0.003206 0.010471 -0.000980 0.000000 0.001565 0.000000
# 3 -0.004202 -0.000980 0.010532 0.000000 0.003283 0.000000
# 4 0.000000 0.000000 0.000000 0.110146 0.000000 0.005646
# 5 -0.002609 0.001565 0.003283 0.000000 0.019168 0.000000
# 6 0.000000 0.000000 0.000000 0.005646 0.000000 0.018135
#
#
# Mechanical properties :
#
#
# Convention : Reuss Voigt Hill
#
# Bulk Modulus (GPa) = 69.99317 73.29504 71.64410
# Shear Modulus (GPa) = 24.99385 40.48791 32.74088
#
# Velocity S-wave (km/s) = 3.30448 4.20581 3.78209
# Velocity P-wave (km/s) = 6.71855 7.45701 7.09739
#
# Compressibility (1/GPa) = 0.01428711
#
# Stress axis : x y z
#
# Youngs Moduli (GPa) = 99.41788 95.49883 94.94644
#
# Poissons Ratio (x) = 0.30612 0.39895
# Poissons Ratio (y) = 0.31868 0.09306
# Poissons Ratio (z) = 0.41774 0.09360
#
# Static dielectric constant tensor:
#      x y z
#    x 1.927860 0.000000 -0.040910 
#    y 0.000000 1.954810 0.000000 
#    z -0.040910 0.000000 1.818450 
# 
# From -- ./inp_files/225120.got.cif
#   From: 2010.05.17/outbox.cif.g08.bks.cpg/sg15_113_cif.got.tgz:225120.got - 2010.06.03 18:47:42.
