data_PCOD9305233
_publ_section_title
;
Structure prediction by ZEFSAII (Michael W. Deem and Ramdas Pophale) SiO2 
 PCOD9305233
Probable space group: C 2/C
;
_chemical_formula_sum "Si O2"
_cell_formula_units_Z 48
_cell_length_a 8.165300
_cell_length_b 13.847689
_cell_length_c 24.510872
_cell_angle_alpha 90.000000
_cell_angle_beta 43.878449
_cell_angle_gamma 90.000000
_cell_volume 1920.982365
_symmetry_space_group_name_H-M "C 2/C"
_symmetry_group_IT_number 15
_symmetry_cell_setting 'monoclinic'
loop_
_space_group_symop_operation_xyz
x,y,z
-x,y,1/2-z
-x,-y,-z
x,-y,1/2+z
1/2+x,1/2+y,z
1/2-x,1/2+y,1/2-z
1/2-x,1/2-y,-z
1/2+x,1/2-y,1/2+z
loop_
_atom_site_type_symbol
_atom_site_label
_atom_site_fract_x
_atom_site_fract_y
_atom_site_fract_z
Si Si1 0.233984 0.819302 0.293649
Si Si2 0.778688 0.294063 0.918580
Si Si3 0.355429 0.857125 0.531065
Si Si4 0.581341 0.018110 0.068739
Si Si5 0.300674 0.505274 0.251847
Si Si6 0.657059 0.697694 0.326394
O O1 0.500000 0.802802 0.250000
O O2 0.242688 0.790445 0.227758
O O3 0.033220 0.754934 0.370189
O O4 0.170367 0.931462 0.305352
O O5 0.743720 0.393093 0.959919
O O6 0.777879 0.319808 0.854920
O O7 0.580160 0.212893 0.973628
O O8 0.395910 0.932253 0.570935
O O9 0.121384 0.795617 0.595763
O O10 0.327018 0.923985 0.484215
O O11 0.446101 0.993161 0.156870
O O12 0.500000 0.493793 0.250000
O O13 0.311237 0.611016 0.223635
#
# Coordination Sequence:
#
# PCOD9305233 Si02
#       6
#     8   8   8   8   8   8
#     4  12  27  44  74 108 143 194 249 308 377 446
#     4  12  26  47  75 107 150 198 248 319 378 460
#     4  11  25  47  72 111 147 205 244 310 385 451
#     4  11  24  43  73 104 151 196 250 305 380 453
#     4  12  24  46  74 107 145 190 248 311 378 448
#     4  12  25  47  75 107 151 189 251 309 375 451
#
# _framework density 24.987216
#
# number of rings (size 3 to 8) (size 9 to 14) (size 15 to 20)
#    0.000    0.333    3.333    6.000    4.667    0.667 
#    0.000    0.000    0.000    0.000    0.000    0.000 
#    0.000    0.000    0.000    0.000    0.000    0.000 
#
# Total GULP energy -134535.962070 kJ/mol
# GULP energy per Si atom -5605.665086 kJ/mol
# Density = 2.493034 g / cm^3
# Si number density = 24.987216 Si / 1000 Ang^3
#
#
#
# Elastic Constant Matrix: (Units=GPa)
#
#
# Indices 1 2 3 4 5 6 
#
# 1 86.8523 3.5375 13.9357 0.0009 -7.3302 0.0004
# 2 3.5375 107.7028 32.8030 0.0003 -5.8756 0.0002
# 3 13.9357 32.8030 83.4508 0.0017 -10.5208 -0.0005
# 4 0.0009 0.0003 0.0017 25.7365 -0.0008 8.7562
# 5 -7.3302 -5.8756 -10.5208 -0.0008 47.0936 0.0000
# 6 0.0004 0.0002 -0.0005 8.7562 0.0000 44.5431
#
#
#
# Elastic Compliance Matrix: (Units=1/GPa)
#
#
# Indices 1 2 3 4 5 6 
#
# 1 0.011934 0.000271 -0.001915 0.000000 0.001464 0.000000
# 2 0.000271 0.010561 -0.004142 0.000000 0.000435 0.000000
# 3 -0.001915 -0.004142 0.014229 -0.000001 0.002364 0.000000
# 4 0.000000 0.000000 -0.000001 0.041640 0.000000 -0.008186
# 5 0.001464 0.000435 0.002364 0.000000 0.022044 0.000000
# 6 0.000000 0.000000 0.000000 -0.008186 0.000000 0.024059
#
#
# Mechanical properties :
#
#
# Convention : Reuss Voigt Hill
#
# Bulk Modulus (GPa) = 39.75770 42.06202 40.90986
# Shear Modulus (GPa) = 34.62056 38.65663 36.63860
#
# Velocity S-wave (km/s) = 3.72631 3.93753 3.83338
# Velocity P-wave (km/s) = 5.87023 6.12717 6.00007
#
# Compressibility (1/GPa) = 0.02515236
#
# Stress axis : x y z
#
# Youngs Moduli (GPa) = 83.79752 94.68712 70.27901
#
# Poissons Ratio (x) = -0.02567 0.13457
# Poissons Ratio (y) = -0.02272 0.29109
# Poissons Ratio (z) = 0.16046 0.39218
#
# Static dielectric constant tensor:
#      x y z
#    x 1.966360 0.000000 0.016410 
#    y 0.000000 1.901210 0.000000 
#    z 0.016410 0.000000 1.976220 
# 
# From -- ./inp_files/289010.got.cif
#   From: 2010.05.17/outbox.cif.g08.bks.cpg/sg15_145_cif.got.tgz:289010.got - 2010.06.03 18:47:42.
