data_PCOD9305808
_publ_section_title
;
Structure prediction by ZEFSAII (Michael W. Deem and Ramdas Pophale) SiO2 
 PCOD9305808
Probable space group: C 2/C
;
_chemical_formula_sum "Si O2"
_cell_formula_units_Z 52
_cell_length_a 22.958349
_cell_length_b 10.493015
_cell_length_c 12.824335
_cell_angle_alpha 90.000000
_cell_angle_beta 43.034963
_cell_angle_gamma 90.000000
_cell_volume 2108.352153
_symmetry_space_group_name_H-M "C 2/C"
_symmetry_group_IT_number 15
_symmetry_cell_setting 'monoclinic'
loop_
_space_group_symop_operation_xyz
x,y,z
-x,y,1/2-z
-x,-y,-z
x,-y,1/2+z
1/2+x,1/2+y,z
1/2-x,1/2+y,1/2-z
1/2-x,1/2-y,-z
1/2+x,1/2-y,1/2+z
loop_
_atom_site_type_symbol
_atom_site_label
_atom_site_fract_x
_atom_site_fract_y
_atom_site_fract_z
Si Si1 0.723958 0.394405 0.384803
Si Si2 0.830897 0.469331 0.427604
Si Si3 0.420849 0.231166 0.271674
Si Si4 0.414447 0.504392 0.297135
Si Si5 0.217694 0.857740 0.754056
Si Si6 0.000000 0.671288 0.750000
Si Si7 0.533065 0.308753 0.929068
O O1 0.805848 0.398434 0.353386
O O2 0.643096 0.393679 0.567555
O O3 0.724699 0.269469 0.312533
O O4 0.720550 0.529260 0.332442
O O5 0.856192 0.614046 0.368021
O O6 0.752437 0.432329 0.605726
O O7 0.915239 0.413212 0.369878
O O8 0.500000 0.213261 0.250000
O O9 0.373022 0.365281 0.353376
O O10 0.464503 0.256685 0.101513
O O11 0.500000 0.487766 0.250000
O O12 0.446267 0.549029 0.143273
O O13 0.123790 0.796522 0.869362
O O14 0.012590 0.742706 0.844338
#
# Coordination Sequence:
#
# PCOD9305808 Si02
#       7
#     8   8   8   8   8   4   8
#     4  12  28  49  78 115 159 209 264 337 403 490
#     4  12  27  49  75 117 162 206 271 336 406 489
#     4  11  27  46  76 114 159 208 269 335 404 485
#     4  11  24  47  74 107 159 207 268 326 409 485
#     4  12  28  49  80 113 161 207 264 334 412 477
#     4  12  26  46  82 110 154 212 276 322 414 476
#     4  12  25  50  80 110 156 210 271 330 405 486
#
# _framework density 24.663812
#
# number of rings (size 3 to 8) (size 9 to 14) (size 15 to 20)
#    0.000    0.308    4.615    3.692    6.462    2.462 
#    0.000    0.000    0.000    0.000    0.000    0.000 
#    0.000    0.000    0.000    0.000    0.000    0.000 
#
# Total GULP energy -145200.358945 kJ/mol
# GULP energy per Si atom -5584.629190 kJ/mol
# Density = 2.460768 g / cm^3
# Si number density = 24.663812 Si / 1000 Ang^3
#
#
#
# Elastic Constant Matrix: (Units=GPa)
#
#
# Indices 1 2 3 4 5 6 
#
# 1 75.9461 12.1792 29.6955 0.0000 -3.5169 0.0000
# 2 12.1792 140.7811 58.6491 0.0000 -2.8492 0.0000
# 3 29.6955 58.6491 129.7467 0.0000 12.7562 0.0000
# 4 0.0000 0.0000 0.0000 42.0452 0.0000 -6.6577
# 5 -3.5169 -2.8492 12.7562 0.0000 33.6746 0.0000
# 6 0.0000 0.0000 0.0000 -6.6577 0.0000 48.1329
#
#
#
# Elastic Compliance Matrix: (Units=1/GPa)
#
#
# Indices 1 2 3 4 5 6 
#
# 1 0.014751 0.000389 -0.003850 0.000000 0.003032 0.000000
# 2 0.000389 0.008940 -0.004372 0.000000 0.002453 0.000000
# 3 -0.003850 -0.004372 0.011052 0.000000 -0.004959 0.000000
# 4 0.000000 0.000000 0.000000 0.024316 0.000000 0.003363
# 5 0.003032 0.002453 -0.004959 0.000000 0.032099 0.000000
# 6 0.000000 0.000000 0.000000 0.003363 0.000000 0.021241
#
#
# Mechanical properties :
#
#
# Convention : Reuss Voigt Hill
#
# Bulk Modulus (GPa) = 52.41566 60.83572 56.62569
# Shear Modulus (GPa) = 37.19593 41.16721 39.18157
#
# Velocity S-wave (km/s) = 3.88766 4.08994 3.99008
# Velocity P-wave (km/s) = 6.43817 6.85733 6.65105
#
# Compressibility (1/GPa) = 0.01907827
#
# Stress axis : x y z
#
# Youngs Moduli (GPa) = 67.79382 111.85209 90.48099
#
# Poissons Ratio (x) = -0.04353 0.34835
# Poissons Ratio (y) = -0.02638 0.39554
# Poissons Ratio (z) = 0.26101 0.48897
#
# Static dielectric constant tensor:
#      x y z
#    x 2.023170 0.000000 -0.022960 
#    y 0.000000 2.013940 0.000000 
#    z -0.022960 0.000000 1.972760 
# 
# From -- ./inp_files/117927.got.cif
#   From: 2010.05.17/outbox.cif.g08.bks.cpg/sg15_59_cif.got.tgz:117927.got - 2010.06.03 18:47:42.
