data_PCOD9305507
_publ_section_title
;
Structure prediction by ZEFSAII (Michael W. Deem and Ramdas Pophale) SiO2 
 PCOD9305507
Probable space group: C 2/C
;
_chemical_formula_sum "Si O2"
_cell_formula_units_Z 40
_cell_length_a 8.640793
_cell_length_b 18.468937
_cell_length_c 11.064910
_cell_angle_alpha 90.000000
_cell_angle_beta 66.250868
_cell_angle_gamma 90.000000
_cell_volume 1616.274759
_symmetry_space_group_name_H-M "C 2/C"
_symmetry_group_IT_number 15
_symmetry_cell_setting 'monoclinic'
loop_
_space_group_symop_operation_xyz
x,y,z
-x,y,1/2-z
-x,-y,-z
x,-y,1/2+z
1/2+x,1/2+y,z
1/2-x,1/2+y,1/2-z
1/2-x,1/2-y,-z
1/2+x,1/2-y,1/2+z
loop_
_atom_site_type_symbol
_atom_site_label
_atom_site_fract_x
_atom_site_fract_y
_atom_site_fract_z
Si Si1 0.486585 0.609833 0.612499
Si Si2 0.139556 0.431494 0.115451
Si Si3 0.527831 0.230942 0.384148
Si Si4 0.169711 0.587994 0.093496
Si Si5 0.297218 0.632061 0.319460
O O1 0.500000 0.616226 0.750000
O O2 0.311930 0.572407 0.637585
O O3 0.507644 0.690830 0.548036
O O4 0.650218 0.568375 0.518849
O O5 0.072980 0.512588 0.111785
O O6 0.000000 0.395971 0.250000
O O7 0.208217 0.400961 0.966163
O O8 0.500000 0.238943 0.250000
O O9 0.410060 0.159793 0.445586
O O10 0.724304 0.213796 0.346542
O O11 0.211097 0.604925 0.221130
O O12 0.500000 0.623757 0.250000
#
# Coordination Sequence:
#
# PCOD9305507 Si02
#       5
#     8   8   8   8   8
#     4  11  25  44  70 103 139 179 232 286 340 414
#     4  12  28  44  68 107 140 179 226 293 348 397
#     4   9  22  44  69  99 135 186 227 279 342 416
#     4  11  24  46  71  99 136 189 231 273 351 415
#     4  11  24  45  71 100 140 180 229 283 341 414
#
# _framework density 24.748269000000001
#
# number of rings (size 3 to 8) (size 9 to 14) (size 15 to 20)
#    0.000    1.200    2.000    3.000    5.600    3.200 
#    0.000    0.000    0.000    0.000    0.000    0.000 
#    0.000    0.000    0.000    0.000    0.000    0.000 
#
# Total GULP energy -111557.525317 kJ/mol
# GULP energy per Si atom -5577.876266 kJ/mol
# Density = 2.469194 g / cm^3
# Si number density = 24.748269 Si / 1000 Ang^3
#
#
#
# Elastic Constant Matrix: (Units=GPa)
#
#
# Indices 1 2 3 4 5 6 
#
# 1 98.8120 32.5752 31.7456 0.0000 -17.8856 0.0000
# 2 32.5752 78.4484 9.9806 0.0000 2.2377 0.0000
# 3 31.7456 9.9806 127.4381 0.0000 -23.2711 0.0000
# 4 0.0000 0.0000 0.0000 21.4299 0.0000 -11.0436
# 5 -17.8856 2.2377 -23.2711 0.0000 49.3483 0.0000
# 6 0.0000 0.0000 0.0000 -11.0436 0.0000 24.8988
#
#
#
# Elastic Compliance Matrix: (Units=1/GPa)
#
#
# Indices 1 2 3 4 5 6 
#
# 1 0.013317 -0.005371 -0.002157 0.000000 0.004053 0.000000
# 2 -0.005371 0.015103 -0.000356 0.000000 -0.002799 0.000000
# 3 -0.002157 -0.000356 0.009052 0.000000 0.003503 0.000000
# 4 0.000000 0.000000 0.000000 0.060490 0.000000 0.026830
# 5 0.004053 -0.002799 0.003503 0.000000 0.023512 0.000000
# 6 0.000000 0.000000 0.000000 0.026830 0.000000 0.052063
#
#
# Mechanical properties :
#
#
# Convention : Reuss Voigt Hill
#
# Bulk Modulus (GPa) = 46.07400 50.36679 48.22040
# Shear Modulus (GPa) = 25.44019 34.49522 29.96771
#
# Velocity S-wave (km/s) = 3.20966 3.73747 3.48358
# Velocity P-wave (km/s) = 5.69151 6.24666 5.97554
#
# Compressibility (1/GPa) = 0.02170422
#
# Stress axis : x y z
#
# Youngs Moduli (GPa) = 75.08920 66.21306 110.47613
#
# Poissons Ratio (x) = 0.35565 0.23826
# Poissons Ratio (y) = 0.40332 0.03933
# Poissons Ratio (z) = 0.16194 0.02357
#
# Static dielectric constant tensor:
#      x y z
#    x 1.981080 0.000000 -0.029760 
#    y 0.000000 2.037760 0.000000 
#    z -0.029760 0.000000 2.003200 
# 
# From -- ./inp_files/77648.got.cif
#   From: 2010.05.17/outbox.cif.g08.bks.cpg/sg15_39_cif.got.tgz:77648.got - 2010.06.03 18:47:42.
