data_PCOD9305679
_publ_section_title
;
Structure prediction by ZEFSAII (Michael W. Deem and Ramdas Pophale) SiO2 
 PCOD9305679
Probable space group: C 2/C
;
_chemical_formula_sum "Si O2"
_cell_formula_units_Z 56
_cell_length_a 13.393105
_cell_length_b 11.643247
_cell_length_c 17.759438
_cell_angle_alpha 90.000000
_cell_angle_beta 123.751798
_cell_angle_gamma 90.000000
_cell_volume 2302.617907
_symmetry_space_group_name_H-M "C 2/C"
_symmetry_group_IT_number 15
_symmetry_cell_setting 'monoclinic'
loop_
_space_group_symop_operation_xyz
x,y,z
-x,y,1/2-z
-x,-y,-z
x,-y,1/2+z
1/2+x,1/2+y,z
1/2-x,1/2+y,1/2-z
1/2-x,1/2-y,-z
1/2+x,1/2-y,1/2+z
loop_
_atom_site_type_symbol
_atom_site_label
_atom_site_fract_x
_atom_site_fract_y
_atom_site_fract_z
Si Si1 0.500000 0.375056 0.750000
Si Si2 0.435685 0.826475 0.479851
Si Si3 0.205498 0.923304 0.732922
Si Si4 0.133936 0.456963 0.910354
Si Si5 0.500000 0.226635 0.250000
Si Si6 0.391672 0.416261 0.974966
Si Si7 0.617412 0.790880 0.421302
Si Si8 0.226598 0.175476 0.770642
O O1 0.607672 0.442578 0.756579
O O2 0.446947 0.300207 0.659198
O O3 0.431514 0.927503 0.538447
O O4 0.434919 0.705563 0.523635
O O5 0.543697 0.812864 0.466941
O O6 0.314128 0.830357 0.379886
O O7 0.159943 0.900071 0.630268
O O8 0.255731 0.793843 0.771117
O O9 0.259824 0.052054 0.747477
O O10 0.278838 0.452281 0.978190
O O11 0.111839 0.586923 0.877221
O O12 0.084392 0.361048 0.832858
O O13 0.409208 0.304702 0.259096
O O14 0.500000 0.500000 0.000000
O O15 0.750000 0.750000 0.500000
#
# Coordination Sequence:
#
# PCOD9305679 Si02
#       8
#     4   8   8   8   4   8   8   8
#     4  12  26  50  76 102 163 194 255 324 369 480
#     4  11  25  51  69 110 150 193 251 323 379 467
#     4  11  26  46  75 110 148 200 246 320 376 461
#     4  12  27  44  77 106 156 194 253 325 380 466
#     4  12  26  46  70 116 143 204 253 298 401 458
#     4  11  24  46  73 106 146 194 253 304 386 455
#     4  12  28  49  75 115 149 208 259 316 403 460
#     4  11  26  46  75 109 151 192 255 303 388 450
#
# _framework density 24.320143000000002
#
# number of rings (size 3 to 8) (size 9 to 14) (size 15 to 20)
#    0.000    0.571    5.714    2.571    8.000    1.143 
#    0.000    0.000    0.000    0.000    0.000    0.000 
#    0.000    0.000    0.000    0.000    0.000    0.000 
#
# Total GULP energy -156324.767125 kJ/mol
# GULP energy per Si atom -5583.027397 kJ/mol
# Density = 2.426479 g / cm^3
# Si number density = 24.320143 Si / 1000 Ang^3
#
#
#
# Elastic Constant Matrix: (Units=GPa)
#
#
# Indices 1 2 3 4 5 6 
#
# 1 131.4979 0.4389 11.9432 0.0000 -1.9563 0.0000
# 2 0.4389 156.8882 19.7918 0.0000 7.5891 0.0000
# 3 11.9432 19.7918 62.4686 0.0000 3.1414 0.0000
# 4 0.0000 0.0000 0.0000 -0.3106 0.0000 5.4359
# 5 -1.9563 7.5891 3.1414 0.0000 30.9682 0.0000
# 6 0.0000 0.0000 0.0000 5.4359 0.0000 28.8048
#
#
#
# Elastic Compliance Matrix: (Units=1/GPa)
#
#
# Indices 1 2 3 4 5 6 
#
# 1 0.007755 0.000145 -0.001560 0.000000 0.000612 0.000000
# 2 0.000145 0.006705 -0.002081 0.000000 -0.001423 0.000000
# 3 -0.001560 -0.002081 0.017032 0.000000 -0.001316 0.000000
# 4 0.000000 0.000000 0.000000 -0.748237 0.000000 0.141205
# 5 0.000612 -0.001423 -0.001316 0.000000 0.032812 0.000000
# 6 0.000000 0.000000 0.000000 0.141205 0.000000 0.008069
#
#
# Mechanical properties :
#
#
# Convention : Reuss Voigt Hill
#
# Bulk Modulus (GPa) = 40.81283 46.13361 43.47322
# Shear Modulus (GPa) = -7.56764 33.13787 12.78512
#
# Velocity S-wave (km/s) = -1.76591 3.69530 2.29530
# Velocity P-wave (km/s) = 3.55809 6.10062 4.99387
#
# Compressibility (1/GPa) = 0.02450210
#
# Stress axis : x y z
#
# Youngs Moduli (GPa) = 128.94981 149.14578 58.71450
#
# Poissons Ratio (x) = -0.02169 0.09157
# Poissons Ratio (y) = -0.01875 0.12216
# Poissons Ratio (z) = 0.20110 0.31030
#
# Static dielectric constant tensor:
#      x y z
#    x 1.958170 0.000000 0.017680 
#    y 0.000000 2.080710 0.000000 
#    z 0.017680 0.000000 1.904690 
# 
# From -- ./inp_files/204580.got.cif
#   From: 2010.05.17/outbox.cif.g08.bks.cpg/sg15_103_cif.got.tgz:204580.got - 2010.06.03 18:47:42.
