data_PCOD9305385
_publ_section_title
;
Structure prediction by ZEFSAII (Michael W. Deem and Ramdas Pophale) SiO2 
 PCOD9305385
Probable space group: C 2/C
;
_chemical_formula_sum "Si O2"
_cell_formula_units_Z 28
_cell_length_a 13.882833
_cell_length_b 6.221211
_cell_length_c 14.520412
_cell_angle_alpha 90.000000
_cell_angle_beta 61.381562
_cell_angle_gamma 90.000000
_cell_volume 1100.884703
_symmetry_space_group_name_H-M "C 2/C"
_symmetry_group_IT_number 15
_symmetry_cell_setting 'monoclinic'
loop_
_space_group_symop_operation_xyz
x,y,z
-x,y,1/2-z
-x,-y,-z
x,-y,1/2+z
1/2+x,1/2+y,z
1/2-x,1/2+y,1/2-z
1/2-x,1/2-y,-z
1/2+x,1/2-y,1/2+z
loop_
_atom_site_type_symbol
_atom_site_label
_atom_site_fract_x
_atom_site_fract_y
_atom_site_fract_z
Si Si1 0.085627 0.068419 0.082629
Si Si2 0.000000 0.302671 0.750000
Si Si3 0.777351 0.256207 0.621300
Si Si4 0.381137 0.883242 0.165877
O O1 0.169497 0.195795 0.110792
O O2 0.975307 0.204649 0.117457
O O3 0.058436 0.850952 0.148325
O O4 0.152967 0.066251 0.956602
O O5 0.922445 0.453798 0.725961
O O6 0.732433 0.210778 0.743261
O O7 0.853616 0.468938 0.590636
#
# Coordination Sequence:
#
# PCOD9305385 Si02
#       4
#     8   4   8   8
#     4  11  24  47  66 102 139 179 231 292 333 416
#     4  12  22  44  70  92 150 174 220 298 332 396
#     4  11  24  44  72  97 138 183 232 277 357 404
#     4  12  24  47  67 103 140 181 230 289 338 417
#
# _framework density 25.434089
#
# number of rings (size 3 to 8) (size 9 to 14) (size 15 to 20)
#    0.000    0.571    5.714    2.571    0.000    2.286 
#    5.143    0.000    0.000    0.000    0.000    0.000 
#    0.000    0.000    0.000    0.000    0.000    0.000 
#
# Total GULP energy -78442.980468 kJ/mol
# GULP energy per Si atom -5603.070033 kJ/mol
# Density = 2.537620 g / cm^3
# Si number density = 25.434089 Si / 1000 Ang^3
#
#
#
# Elastic Constant Matrix: (Units=GPa)
#
#
# Indices 1 2 3 4 5 6 
#
# 1 129.1939 48.1724 19.1886 0.0000 1.7874 0.0001
# 2 48.1724 55.3913 -1.9497 0.0000 -10.1684 0.0003
# 3 19.1886 -1.9497 61.8878 0.0000 -13.8216 0.0000
# 4 0.0000 0.0000 0.0000 23.5387 0.0000 18.8962
# 5 1.7874 -10.1684 -13.8216 0.0000 24.7145 0.0000
# 6 0.0001 0.0003 0.0000 18.8962 0.0000 59.7428
#
#
#
# Elastic Compliance Matrix: (Units=1/GPa)
#
#
# Indices 1 2 3 4 5 6 
#
# 1 0.014682 -0.015158 -0.007610 0.000000 -0.011554 0.000000
# 2 -0.015158 0.035596 0.010669 0.000000 0.021709 0.000000
# 3 -0.007610 0.010669 0.022806 0.000000 0.017694 0.000000
# 4 0.000000 0.000000 0.000000 0.056941 0.000000 -0.018010
# 5 -0.011554 0.021709 0.017694 0.000000 0.060125 0.000000
# 6 0.000000 0.000000 0.000000 -0.018010 0.000000 0.022435
#
#
# Mechanical properties :
#
#
# Convention : Reuss Voigt Hill
#
# Bulk Modulus (GPa) = 20.45531 41.92174 31.18852
# Shear Modulus (GPa) = 19.75671 33.66999 26.71335
#
# Velocity S-wave (km/s) = 2.79010 3.64237 3.24434
# Velocity P-wave (km/s) = 4.29412 5.84871 5.13064
#
# Compressibility (1/GPa) = 0.04888707
#
# Stress axis : x y z
#
# Youngs Moduli (GPa) = 68.10894 28.09270 43.84867
#
# Poissons Ratio (x) = 0.42582 0.33370
# Poissons Ratio (y) = 1.03238 -0.46784
# Poissons Ratio (z) = 0.51833 -0.29973
#
# Static dielectric constant tensor:
#      x y z
#    x 1.942060 0.000000 0.006080 
#    y 0.000000 2.070260 0.000000 
#    z 0.006080 0.000000 2.038430 
# 
# From -- ./inp_files/157893.got.cif
#   From: 2010.05.17/outbox.cif.g08.bks.cpg/sg15_79_cif.got.tgz:157893.got - 2010.06.03 18:47:42.
