data_PCOD9305161
_publ_section_title
;
Structure prediction by ZEFSAII (Michael W. Deem and Ramdas Pophale) SiO2 
 PCOD9305161
Probable space group: C 2/C
;
_chemical_formula_sum "Si O2"
_cell_formula_units_Z 48
_cell_length_a 17.788764
_cell_length_b 15.880631
_cell_length_c 22.066160
_cell_angle_alpha 90.000000
_cell_angle_beta 156.704195
_cell_angle_gamma 90.000000
_cell_volume 2465.260978
_symmetry_space_group_name_H-M "C 2/C"
_symmetry_group_IT_number 15
_symmetry_cell_setting 'monoclinic'
loop_
_space_group_symop_operation_xyz
x,y,z
-x,y,1/2-z
-x,-y,-z
x,-y,1/2+z
1/2+x,1/2+y,z
1/2-x,1/2+y,1/2-z
1/2-x,1/2-y,-z
1/2+x,1/2-y,1/2+z
loop_
_atom_site_type_symbol
_atom_site_label
_atom_site_fract_x
_atom_site_fract_y
_atom_site_fract_z
Si Si1 0.795299 0.070767 0.125058
Si Si2 0.687068 0.746732 0.133792
Si Si3 0.562881 0.608781 0.733062
Si Si4 0.236217 0.703904 0.180497
Si Si5 0.219656 0.324784 0.926642
Si Si6 0.070899 0.314961 0.370863
O O1 0.766271 0.118612 0.166424
O O2 0.000000 0.097111 0.250000
O O3 0.820575 0.972811 0.159882
O O4 0.642397 0.104946 0.963276
O O5 0.808863 0.831707 0.213560
O O6 0.767652 0.695232 0.249953
O O7 0.699374 0.704162 0.077819
O O8 0.470286 0.762960 0.989695
O O9 0.500000 0.651183 0.750000
O O10 0.357135 0.598550 0.549199
O O11 0.398587 0.768181 0.278042
O O12 0.000000 0.344996 0.750000
O O13 0.250000 0.250000 0.000000
O O14 0.250000 0.250000 0.500000
O O15 0.000000 0.334139 0.250000
#
# Coordination Sequence:
#
# PCOD9305161 Si02
#       6
#     8   8   8   8   8   8
#     4  11  24  43  65  93 139 173 216 283 337 393
#     4  12  22  37  67  98 128 172 227 274 324 402
#     4  11  24  43  65  94 136 176 220 277 341 387
#     4  12  22  37  65  99 128 173 223 272 332 392
#     4  12  20  40  71  98 126 176 235 269 316 403
#     4  12  20  40  70  95 127 179 233 267 313 404
#
# _framework density 19.470555000000001
#
# number of rings (size 3 to 8) (size 9 to 14) (size 15 to 20)
#    0.000    0.333   10.000    0.000    0.000    0.667 
#    0.000    4.167    0.000    0.000    0.000    0.000 
#    0.000    0.000    0.000    0.000    0.000    0.000 
#
# Total GULP energy -133807.367241 kJ/mol
# GULP energy per Si atom -5575.306968 kJ/mol
# Density = 1.942624 g / cm^3
# Si number density = 19.470555 Si / 1000 Ang^3
#
#
#
# Elastic Constant Matrix: (Units=GPa)
#
#
# Indices 1 2 3 4 5 6 
#
# 1 115.9356 34.7910 39.6237 -0.0039 -20.0625 -0.0020
# 2 34.7910 63.2577 45.5399 0.0145 -15.2208 0.0033
# 3 39.6237 45.5399 137.9692 -0.0011 -6.3372 0.0045
# 4 -0.0039 0.0145 -0.0011 23.0178 -0.0043 -0.0187
# 5 -20.0625 -15.2208 -6.3372 -0.0043 56.0042 -0.0001
# 6 -0.0020 0.0033 0.0045 -0.0187 -0.0001 23.9497
#
#
#
# Elastic Compliance Matrix: (Units=1/GPa)
#
#
# Indices 1 2 3 4 5 6 
#
# 1 0.010886 -0.004200 -0.001622 0.000005 0.002575 0.000002
# 2 -0.004200 0.023778 -0.006448 -0.000015 0.004228 -0.000002
# 3 -0.001622 -0.006448 0.009786 0.000004 -0.001226 -0.000001
# 4 0.000005 -0.000015 0.000004 0.043445 0.000001 0.000034
# 5 0.002575 0.004228 -0.001226 0.000001 0.019789 0.000000
# 6 0.000002 -0.000002 -0.000001 0.000034 0.000000 0.041754
#
#
# Mechanical properties :
#
#
# Convention : Reuss Voigt Hill
#
# Bulk Modulus (GPa) = 50.22684 61.89684 56.06184
# Shear Modulus (GPa) = 27.68365 33.74154 30.71259
#
# Velocity S-wave (km/s) = 3.77480 4.16739 3.97594
# Velocity P-wave (km/s) = 6.69709 7.41722 7.06634
#
# Compressibility (1/GPa) = 0.01990967
#
# Stress axis : x y z
#
# Youngs Moduli (GPa) = 91.86413 42.05646 102.18993
#
# Poissons Ratio (x) = 0.17664 0.16572
# Poissons Ratio (y) = 0.38583 0.65891
# Poissons Ratio (z) = 0.14898 0.27118
#
# Static dielectric constant tensor:
#      x y z
#    x 1.689620 0.000000 -0.005020 
#    y 0.000000 1.700080 -0.000030 
#    z -0.005020 -0.000030 1.798580 
# 
# From -- ./inp_files/48067.got.cif
#   From: 2010.05.17/outbox.cif.g08.bks.cpg/sg15_25_cif.got.tgz:48067.got - 2010.06.03 18:47:42.
