data_PCOD9305815
_publ_section_title
;
Structure prediction by ZEFSAII (Michael W. Deem and Ramdas Pophale) SiO2 
 PCOD9305815
Probable space group: C 2/C
;
_chemical_formula_sum "Si O2"
_cell_formula_units_Z 40
_cell_length_a 8.972146
_cell_length_b 11.276216
_cell_length_c 15.214947
_cell_angle_alpha 90.000000
_cell_angle_beta 83.885087
_cell_angle_gamma 90.000000
_cell_volume 1530.566063
_symmetry_space_group_name_H-M "C 2/C"
_symmetry_group_IT_number 15
_symmetry_cell_setting 'monoclinic'
loop_
_space_group_symop_operation_xyz
x,y,z
-x,y,1/2-z
-x,-y,-z
x,-y,1/2+z
1/2+x,1/2+y,z
1/2-x,1/2+y,1/2-z
1/2-x,1/2-y,-z
1/2+x,1/2-y,1/2+z
loop_
_atom_site_type_symbol
_atom_site_label
_atom_site_fract_x
_atom_site_fract_y
_atom_site_fract_z
Si Si1 0.293019 0.364311 0.293892
Si Si2 0.022250 0.721992 0.617388
Si Si3 0.000000 0.659253 0.250000
Si Si4 0.606611 0.983613 0.578034
Si Si5 0.405933 0.383301 0.484712
Si Si6 0.500000 0.568284 0.250000
O O1 0.119993 0.342351 0.326661
O O2 0.359324 0.246980 0.245540
O O3 0.373665 0.371250 0.384238
O O4 0.357008 0.482058 0.242773
O O5 0.980998 0.768648 0.523216
O O6 0.145234 0.619257 0.604304
O O7 0.044691 0.843019 0.669096
O O8 0.025838 0.580770 0.163100
O O9 0.748882 0.906691 0.542890
O O10 0.500000 0.000000 0.500000
O O11 0.500000 0.500000 0.500000
#
# Coordination Sequence:
#
# PCOD9305815 Si02
#       6
#     8   8   4   8   8   4
#     4  11  24  47  75 102 153 197 250 317 378 454
#     4  12  25  45  75 105 151 191 252 316 376 452
#     4  11  25  46  76 112 149 205 252 320 390 447
#     4  12  26  47  79 113 151 202 262 315 384 468
#     4  12  25  51  74 107 151 201 256 317 389 456
#     4  11  27  44  64 118 143 193 252 308 376 457
#
# _framework density 26.134119999999999
#
# number of rings (size 3 to 8) (size 9 to 14) (size 15 to 20)
#    0.000    0.400    6.000    2.400    2.800    2.400 
#    0.000    0.000    0.000    0.000    0.000    0.000 
#    0.000    0.000    0.000    0.000    0.000    0.000 
#
# Total GULP energy -112263.696839 kJ/mol
# GULP energy per Si atom -5613.184842 kJ/mol
# Density = 2.607464 g / cm^3
# Si number density = 26.134120 Si / 1000 Ang^3
#
#
#
# Elastic Constant Matrix: (Units=GPa)
#
#
# Indices 1 2 3 4 5 6 
#
# 1 37.8615 17.7642 14.1227 0.0000 10.3752 0.0000
# 2 17.7642 186.4298 42.1367 0.0000 8.5472 0.0000
# 3 14.1227 42.1367 126.8068 0.0000 -1.9528 0.0000
# 4 0.0000 0.0000 0.0000 54.1695 0.0000 0.3829
# 5 10.3752 8.5472 -1.9528 0.0000 28.8993 0.0000
# 6 0.0000 0.0000 0.0000 0.3829 0.0000 44.0524
#
#
#
# Elastic Compliance Matrix: (Units=1/GPa)
#
#
# Indices 1 2 3 4 5 6 
#
# 1 0.031400 -0.001796 -0.003069 0.000000 -0.010949 0.000000
# 2 -0.001796 0.006003 -0.001814 0.000000 -0.001253 0.000000
# 3 -0.003069 -0.001814 0.008865 0.000000 0.002237 0.000000
# 4 0.000000 0.000000 0.000000 0.018462 0.000000 -0.000160
# 5 -0.010949 -0.001253 0.002237 0.000000 0.039055 0.000000
# 6 0.000000 0.000000 0.000000 -0.000160 0.000000 0.022702
#
#
# Mechanical properties :
#
#
# Convention : Reuss Voigt Hill
#
# Bulk Modulus (GPa) = 30.38637 55.46060 42.92348
# Shear Modulus (GPa) = 33.15341 43.89587 38.52464
#
# Velocity S-wave (km/s) = 3.56559 4.10279 3.84358
# Velocity P-wave (km/s) = 5.34823 6.61146 6.01311
#
# Compressibility (1/GPa) = 0.03290949
#
# Stress axis : x y z
#
# Youngs Moduli (GPa) = 31.84715 166.59664 112.80377
#
# Poissons Ratio (x) = 0.29928 0.34617
# Poissons Ratio (y) = 0.05721 0.20460
# Poissons Ratio (z) = 0.09773 0.30217
#
# Static dielectric constant tensor:
#      x y z
#    x 2.099950 0.000000 0.035770 
#    y 0.000000 2.031840 0.000000 
#    z 0.035770 0.000000 2.084120 
# 
# From -- ./inp_files/187854.got.cif
#   From: 2010.05.17/outbox.cif.g08.bks.cpg/sg15_94_cif.got.tgz:187854.got - 2010.06.03 18:47:42.
