data_PCOD9305517
_publ_section_title
;
Structure prediction by ZEFSAII (Michael W. Deem and Ramdas Pophale) SiO2 
 PCOD9305517
Probable space group: C 2/C
;
_chemical_formula_sum "Si O2"
_cell_formula_units_Z 28
_cell_length_a 17.680465
_cell_length_b 7.391918
_cell_length_c 8.170174
_cell_angle_alpha 90.000000
_cell_angle_beta 65.139295
_cell_angle_gamma 90.000000
_cell_volume 968.832334
_symmetry_space_group_name_H-M "C 2/C"
_symmetry_group_IT_number 15
_symmetry_cell_setting 'monoclinic'
loop_
_space_group_symop_operation_xyz
x,y,z
-x,y,1/2-z
-x,-y,-z
x,-y,1/2+z
1/2+x,1/2+y,z
1/2-x,1/2+y,1/2-z
1/2-x,1/2-y,-z
1/2+x,1/2-y,1/2+z
loop_
_atom_site_type_symbol
_atom_site_label
_atom_site_fract_x
_atom_site_fract_y
_atom_site_fract_z
Si Si1 0.043304 0.819483 0.388791
Si Si2 0.324051 0.058626 0.788867
Si Si3 0.206881 0.016665 0.148521
Si Si4 0.500000 0.916395 0.250000
O O1 0.000000 0.792769 0.250000
O O2 0.027653 0.692049 0.561467
O O3 0.139222 0.872544 0.264642
O O4 0.000000 0.000000 0.500000
O O5 0.323715 0.276690 0.808762
O O6 0.414262 0.993515 0.761473
O O7 0.302390 0.007870 0.623107
O O8 0.233403 0.987482 0.935350
#
# Coordination Sequence:
#
# PCOD9305517 Si02
#       4
#     8   8   8   4
#     4  12  21  40  74 108 142 195 249 297 351 441
#     4  11  25  46  72 105 150 190 244 307 363 444
#     4  11  24  45  71 107 147 190 244 304 370 435
#     4  12  26  48  74 110 152 188 254 304 366 442
#
# _framework density 28.900770000000001
#
# number of rings (size 3 to 8) (size 9 to 14) (size 15 to 20)
#    0.000    0.571    4.286    5.143    0.000    2.286 
#    5.143    0.000    0.000    0.000    0.000    0.000 
#    0.000    0.000    0.000    0.000    0.000    0.000 
#
# Total GULP energy -78284.076555 kJ/mol
# GULP energy per Si atom -5591.719754 kJ/mol
# Density = 2.883499 g / cm^3
# Si number density = 28.900770 Si / 1000 Ang^3
#
#
#
# Elastic Constant Matrix: (Units=GPa)
#
#
# Indices 1 2 3 4 5 6 
#
# 1 280.8440 69.2155 94.3005 0.0000 17.2043 0.0000
# 2 69.2155 86.3734 53.5485 0.0000 -10.6827 0.0000
# 3 94.3005 53.5485 145.1788 0.0000 -34.9791 0.0000
# 4 0.0000 0.0000 0.0000 31.2889 0.0000 16.4787
# 5 17.2043 -10.6827 -34.9791 0.0000 66.2016 0.0000
# 6 0.0000 0.0000 0.0000 16.4787 0.0000 63.2401
#
#
#
# Elastic Compliance Matrix: (Units=1/GPa)
#
#
# Indices 1 2 3 4 5 6 
#
# 1 0.005690 -0.002814 -0.003580 0.000000 -0.003824 0.000000
# 2 -0.002814 0.016420 -0.003912 0.000000 0.001314 0.000000
# 3 -0.003580 -0.003912 0.012293 0.000000 0.006794 0.000000
# 4 0.000000 0.000000 0.000000 0.037044 0.000000 -0.009653
# 5 -0.003824 0.001314 0.006794 0.000000 0.019901 0.000000
# 6 0.000000 0.000000 0.000000 -0.009653 0.000000 0.018328
#
#
# Mechanical properties :
#
#
# Convention : Reuss Voigt Hill
#
# Bulk Modulus (GPa) = 72.50363 105.16945 88.83654
# Shear Modulus (GPa) = 37.06812 51.83493 44.45152
#
# Velocity S-wave (km/s) = 3.58523 4.23962 3.92608
# Velocity P-wave (km/s) = 6.50231 7.77398 7.16641
#
# Compressibility (1/GPa) = 0.01379241
#
# Stress axis : x y z
#
# Youngs Moduli (GPa) = 175.73368 60.89972 81.34403
#
# Poissons Ratio (x) = 0.17135 0.29120
# Poissons Ratio (y) = 0.49446 0.31826
# Poissons Ratio (z) = 0.62909 0.23827
#
# Static dielectric constant tensor:
#      x y z
#    x 2.099770 0.000000 0.025880 
#    y 0.000000 2.565260 0.000000 
#    z 0.025880 0.000000 2.228380 
# 
# From -- ./inp_files/45420.got.cif
#   From: 2010.05.17/outbox.cif.g08.bks.cpg/sg15_23_cif.got.tgz:45420.got - 2010.06.03 18:47:42.
