data_PCOD9305572
_publ_section_title
;
Structure prediction by ZEFSAII (Michael W. Deem and Ramdas Pophale) SiO2 
 PCOD9305572
Probable space group: C 2/C
;
_chemical_formula_sum "Si O2"
_cell_formula_units_Z 40
_cell_length_a 14.404233
_cell_length_b 12.617171
_cell_length_c 9.862937
_cell_angle_alpha 90.000000
_cell_angle_beta 110.016909
_cell_angle_gamma 90.000000
_cell_volume 1684.215003
_symmetry_space_group_name_H-M "C 2/C"
_symmetry_group_IT_number 15
_symmetry_cell_setting 'monoclinic'
loop_
_space_group_symop_operation_xyz
x,y,z
-x,y,1/2-z
-x,-y,-z
x,-y,1/2+z
1/2+x,1/2+y,z
1/2-x,1/2+y,1/2-z
1/2-x,1/2-y,-z
1/2+x,1/2-y,1/2+z
loop_
_atom_site_type_symbol
_atom_site_label
_atom_site_fract_x
_atom_site_fract_y
_atom_site_fract_z
Si Si1 0.500000 0.461049 0.250000
Si Si2 0.118847 0.367439 0.320357
Si Si3 0.642869 0.647617 0.243189
Si Si4 0.343464 0.972390 0.874230
Si Si5 0.634843 0.279525 0.451153
Si Si6 0.000000 0.610157 0.250000
O O1 0.571078 0.546478 0.212722
O O2 0.582135 0.384113 0.360197
O O3 0.142264 0.242283 0.354335
O O4 0.148054 0.445675 0.460846
O O5 0.171976 0.414751 0.210927
O O6 0.000000 0.370551 0.250000
O O7 0.752302 0.601515 0.284952
O O8 0.608663 0.709551 0.094217
O O9 0.444565 0.941243 0.849823
O O10 0.750000 0.250000 0.500000
O O11 0.582268 0.182493 0.356310
#
# Coordination Sequence:
#
# PCOD9305572 Si02
#       6
#     4   8   8   8   8   4
#     4  11  28  49  76 114 158 205 260 327 392 462
#     4  12  27  49  76 108 158 204 263 326 395 462
#     4  12  27  48  77 110 157 204 265 326 399 464
#     4  12  28  46  78 113 152 209 265 329 397 470
#     4  11  25  48  77 111 154 206 259 321 392 477
#     4  11  24  45  76 112 152 203 270 323 394 460
#
# _framework density 23.749938
#
# number of rings (size 3 to 8) (size 9 to 14) (size 15 to 20)
#    0.000    0.400    4.000    3.000    8.400    0.000 
#    0.000    0.000    0.000    0.000    0.000    0.000 
#    0.000    0.000    0.000    0.000    0.000    0.000 
#
# Total GULP energy -111502.186465 kJ/mol
# GULP energy per Si atom -5575.109323 kJ/mol
# Density = 2.369588 g / cm^3
# Si number density = 23.749938 Si / 1000 Ang^3
#
#
#
# Elastic Constant Matrix: (Units=GPa)
#
#
# Indices 1 2 3 4 5 6 
#
# 1 116.0771 51.4204 27.1672 0.0000 15.7781 0.0000
# 2 51.4204 157.4762 38.4131 0.0000 -4.2079 0.0000
# 3 27.1672 38.4131 95.2762 0.0000 0.8353 0.0000
# 4 0.0000 0.0000 0.0000 -156.5198 0.0000 -55.0939
# 5 15.7781 -4.2079 0.8353 0.0000 36.6908 0.0000
# 6 0.0000 0.0000 0.0000 -55.0939 0.0000 37.8871
#
#
#
# Elastic Compliance Matrix: (Units=1/GPa)
#
#
# Indices 1 2 3 4 5 6 
#
# 1 0.011231 -0.003366 -0.001800 0.000000 -0.005175 0.000000
# 2 -0.003366 0.008080 -0.002319 0.000000 0.002427 0.000000
# 3 -0.001800 -0.002319 0.011942 0.000000 0.000236 0.000000
# 4 0.000000 0.000000 0.000000 -0.004226 0.000000 -0.006145
# 5 -0.005175 0.002427 0.000236 0.000000 0.029753 0.000000
# 6 0.000000 0.000000 0.000000 -0.006145 0.000000 0.017458
#
#
# Mechanical properties :
#
#
# Convention : Reuss Voigt Hill
#
# Bulk Modulus (GPa) = 61.41647 66.98122 64.19884
# Shear Modulus (GPa) = 52.83414 0.40019 26.61717
#
# Velocity S-wave (km/s) = 4.72168 0.41094 3.35136
# Velocity P-wave (km/s) = 7.45932 5.33752 6.48578
#
# Compressibility (1/GPa) = 0.01628228
#
# Stress axis : x y z
#
# Youngs Moduli (GPa) = 89.04041 123.76329 83.73893
#
# Poissons Ratio (x) = 0.41664 0.15071
# Poissons Ratio (y) = 0.29975 0.19419
# Poissons Ratio (z) = 0.16025 0.28701
#
# Static dielectric constant tensor:
#      x y z
#    x 2.780840 0.000000 1.173890 
#    y 0.000000 2.093180 0.000000 
#    z 1.173890 0.000000 3.475470 
# 
# From -- ./inp_files/95165.got.cif
#   From: 2010.05.17/outbox.cif.g08.bks.cpg/sg15_48_cif.got.tgz:95165.got - 2010.06.03 18:47:42.
