data_PCOD9305033
_publ_section_title
;
Structure prediction by ZEFSAII (Michael W. Deem and Ramdas Pophale) SiO2 
 PCOD9305033
Probable space group: C 2/C
;
_chemical_formula_sum "Si O2"
_cell_formula_units_Z 40
_cell_length_a 9.144372
_cell_length_b 26.822737
_cell_length_c 11.747654
_cell_angle_alpha 90.000000
_cell_angle_beta 39.125985
_cell_angle_gamma 90.000000
_cell_volume 1818.262349
_symmetry_space_group_name_H-M "C 2/C"
_symmetry_group_IT_number 15
_symmetry_cell_setting 'monoclinic'
loop_
_space_group_symop_operation_xyz
x,y,z
-x,y,1/2-z
-x,-y,-z
x,-y,1/2+z
1/2+x,1/2+y,z
1/2-x,1/2+y,1/2-z
1/2-x,1/2-y,-z
1/2+x,1/2-y,1/2+z
loop_
_atom_site_type_symbol
_atom_site_label
_atom_site_fract_x
_atom_site_fract_y
_atom_site_fract_z
Si Si1 0.769229 0.848315 0.616837
Si Si2 0.293519 0.560738 0.285235
Si Si3 0.320484 0.044262 0.698217
Si Si4 0.500000 0.119155 0.750000
Si Si5 0.360840 0.695656 0.446486
Si Si6 0.000000 0.109542 0.750000
O O1 0.500000 0.834448 0.750000
O O2 0.759777 0.894223 0.715327
O O3 0.895172 0.861550 0.421289
O O4 0.948548 0.809553 0.568067
O O5 0.500000 0.568397 0.250000
O O6 0.291292 0.509224 0.214272
O O7 0.085158 0.546555 0.498011
O O8 0.313757 0.082391 0.806474
O O9 0.196882 0.072363 0.671482
O O10 0.651244 0.156367 0.582826
O O11 0.500000 0.684185 0.250000
O O12 0.250000 0.750000 0.500000
#
# Coordination Sequence:
#
# PCOD9305033 Si02
#       6
#     8   8   8   4   8   4
#     4  12  26  46  75 108 150 187 241 306 369 439
#     4  11  24  42  68 109 153 203 249 291 360 446
#     4  11  24  41  69 106 153 202 244 296 364 436
#     4  12  24  46  76 107 148 199 250 306 364 448
#     4  12  27  51  82 105 139 191 251 313 379 445
#     4  12  24  44  66 103 150 193 234 296 362 426
#
# _framework density 21.999023999999999
#
# number of rings (size 3 to 8) (size 9 to 14) (size 15 to 20)
#    0.000    0.400    6.000    3.000    1.400    0.800 
#    0.000    1.000    2.200    0.000    0.000    0.000 
#    0.000    0.000    0.000    0.000    0.000    0.000 
#
# Total GULP energy -111626.707734 kJ/mol
# GULP energy per Si atom -5581.335387 kJ/mol
# Density = 2.194895 g / cm^3
# Si number density = 21.999024 Si / 1000 Ang^3
#
#
#
# Elastic Constant Matrix: (Units=GPa)
#
#
# Indices 1 2 3 4 5 6 
#
# 1 141.8326 55.7310 12.8404 0.0000 -21.0145 0.0000
# 2 55.7310 139.8081 19.8168 0.0000 0.9332 0.0000
# 3 12.8404 19.8168 102.3585 0.0000 -1.5907 0.0000
# 4 0.0000 0.0000 0.0000 16.3214 0.0000 -8.8052
# 5 -21.0145 0.9332 -1.5907 0.0000 37.2189 0.0000
# 6 0.0000 0.0000 0.0000 -8.8052 0.0000 30.8104
#
#
#
# Elastic Compliance Matrix: (Units=1/GPa)
#
#
# Indices 1 2 3 4 5 6 
#
# 1 0.009331 -0.003703 -0.000371 0.000000 0.005345 0.000000
# 2 -0.003703 0.008826 -0.001281 0.000000 -0.002367 0.000000
# 3 -0.000371 -0.001281 0.010068 0.000000 0.000253 0.000000
# 4 0.000000 0.000000 0.000000 0.072438 0.000000 0.020702
# 5 0.005345 -0.002367 0.000253 0.000000 0.029956 0.000000
# 6 0.000000 0.000000 0.000000 0.020702 0.000000 0.038373
#
#
# Mechanical properties :
#
#
# Convention : Reuss Voigt Hill
#
# Bulk Modulus (GPa) = 57.08945 62.30838 59.69891
# Shear Modulus (GPa) = 26.94838 36.57753 31.76295
#
# Velocity S-wave (km/s) = 3.50377 4.08203 3.80390
# Velocity P-wave (km/s) = 6.50967 7.11351 6.81828
#
# Compressibility (1/GPa) = 0.01751637
#
# Stress axis : x y z
#
# Youngs Moduli (GPa) = 107.16896 113.30108 99.32436
#
# Poissons Ratio (x) = 0.41952 0.03681
# Poissons Ratio (y) = 0.39682 0.12724
# Poissons Ratio (z) = 0.03972 0.14514
#
# Static dielectric constant tensor:
#      x y z
#    x 1.537730 0.000000 0.052810 
#    y 0.000000 1.872320 0.000000 
#    z 0.052810 0.000000 1.610320 
# 
# From -- ./inp_files/82021.got.cif
#   From: 2010.05.17/outbox.cif.g08.bks.cpg/sg15_42_cif.got.tgz:82021.got - 2010.06.03 18:47:42.
