data_PCOD9305237
_publ_section_title
;
Structure prediction by ZEFSAII (Michael W. Deem and Ramdas Pophale) SiO2 
 PCOD9305237
Probable space group: C 2/C
;
_chemical_formula_sum "Si O2"
_cell_formula_units_Z 56
_cell_length_a 13.398068
_cell_length_b 15.959498
_cell_length_c 19.780019
_cell_angle_alpha 90.000000
_cell_angle_beta 35.431730
_cell_angle_gamma 90.000000
_cell_volume 2451.973393
_symmetry_space_group_name_H-M "C 2/C"
_symmetry_group_IT_number 15
_symmetry_cell_setting 'monoclinic'
loop_
_space_group_symop_operation_xyz
x,y,z
-x,y,1/2-z
-x,-y,-z
x,-y,1/2+z
1/2+x,1/2+y,z
1/2-x,1/2+y,1/2-z
1/2-x,1/2-y,-z
1/2+x,1/2-y,1/2+z
loop_
_atom_site_type_symbol
_atom_site_label
_atom_site_fract_x
_atom_site_fract_y
_atom_site_fract_z
Si Si1 0.309346 0.908075 0.367803
Si Si2 0.949989 0.625260 0.455717
Si Si3 0.676581 0.901095 0.623797
Si Si4 0.359490 0.596116 0.775196
Si Si5 0.178394 0.095572 0.216488
Si Si6 0.958632 0.180245 0.580319
Si Si7 0.829504 0.162744 0.430821
O O1 0.500000 0.874386 0.250000
O O2 0.174203 0.850681 0.403152
O O3 0.264803 0.904921 0.471023
O O4 0.307689 0.006416 0.351886
O O5 0.849409 0.602247 0.442854
O O6 0.826671 0.604970 0.586952
O O7 0.135622 0.581711 0.353897
O O8 0.007551 0.721956 0.428488
O O9 0.500000 0.862239 0.750000
O O10 0.854138 0.855992 0.540646
O O11 0.500000 0.631280 0.750000
O O12 0.398731 0.497584 0.744043
O O13 0.384103 0.641954 0.690818
O O14 0.200848 0.137806 0.130164
O O15 0.034690 0.154187 0.330480
O O16 0.750000 0.250000 0.500000
#
# Coordination Sequence:
#
# PCOD9305237 Si02
#       7
#     8   8   8   8   8   8   8
#     4  11  27  46  72 107 149 194 244 303 382 455
#     4  12  28  44  76 111 145 194 252 314 379 442
#     4  11  26  46  72 103 148 190 251 298 371 460
#     4  12  25  49  78 101 151 196 259 302 367 464
#     4  11  26  47  73 108 142 203 249 305 381 451
#     4  12  28  46  75 109 148 195 244 318 385 428
#     4  11  24  43  74 102 152 186 245 305 374 448
#
# _framework density 22.838746
#
# number of rings (size 3 to 8) (size 9 to 14) (size 15 to 20)
#    0.000    0.571    2.857    3.857   14.000    0.000 
#    0.000    0.000    0.000    0.000    0.000    0.000 
#    0.000    0.000    0.000    0.000    0.000    0.000 
#
# Total GULP energy -156663.237973 kJ/mol
# GULP energy per Si atom -5595.115642 kJ/mol
# Density = 2.278676 g / cm^3
# Si number density = 22.838746 Si / 1000 Ang^3
#
#
#
# Elastic Constant Matrix: (Units=GPa)
#
#
# Indices 1 2 3 4 5 6 
#
# 1 69.4922 26.8539 25.9899 -0.0002 -21.4843 0.0001
# 2 26.8539 85.6847 14.3733 -0.0007 7.1789 0.0003
# 3 25.9899 14.3733 157.5462 -0.0016 -5.5511 0.0007
# 4 -0.0002 -0.0007 -0.0016 35.3105 0.0009 -0.6252
# 5 -21.4843 7.1789 -5.5511 0.0009 42.0305 -0.0002
# 6 0.0001 0.0003 0.0007 -0.6252 -0.0002 26.6176
#
#
#
# Elastic Compliance Matrix: (Units=1/GPa)
#
#
# Indices 1 2 3 4 5 6 
#
# 1 0.021995 -0.007493 -0.002515 0.000000 0.012191 0.000000
# 2 -0.007493 0.014606 -0.000321 0.000000 -0.006367 0.000000
# 3 -0.002515 -0.000321 0.006780 0.000000 -0.000336 0.000000
# 4 0.000000 0.000000 0.000000 0.028332 -0.000001 0.000666
# 5 0.012191 -0.006367 -0.000336 -0.000001 0.031067 0.000000
# 6 0.000000 0.000000 0.000000 0.000666 0.000000 0.037585
#
#
# Mechanical properties :
#
#
# Convention : Reuss Voigt Hill
#
# Bulk Modulus (GPa) = 44.00796 49.68416 46.84606
# Shear Modulus (GPa) = 29.65652 37.15879 33.40765
#
# Velocity S-wave (km/s) = 3.60740 4.03799 3.82876
# Velocity P-wave (km/s) = 6.05491 6.59864 6.33262
#
# Compressibility (1/GPa) = 0.02272316
#
# Stress axis : x y z
#
# Youngs Moduli (GPa) = 45.46457 68.46390 147.49823
#
# Poissons Ratio (x) = 0.51299 0.37101
# Poissons Ratio (y) = 0.34066 0.04732
# Poissons Ratio (z) = 0.11436 0.02197
#
# Static dielectric constant tensor:
#      x y z
#    x 1.850140 0.000000 -0.012300 
#    y 0.000000 1.854400 0.000000 
#    z -0.012300 0.000000 1.866700 
# 
# From -- ./inp_files/245129.got.cif
#   From: 2010.05.17/outbox.cif.g08.bks.cpg/sg15_123_cif.got.tgz:245129.got - 2010.06.03 18:47:42.
