data_PCOD9305643
_publ_section_title
;
Structure prediction by ZEFSAII (Michael W. Deem and Ramdas Pophale) SiO2 
 PCOD9305643
Probable space group: C 2/C
;
_chemical_formula_sum "Si O2"
_cell_formula_units_Z 48
_cell_length_a 27.313371
_cell_length_b 9.028985
_cell_length_c 15.998068
_cell_angle_alpha 90.000000
_cell_angle_beta 144.396352
_cell_angle_gamma 90.000000
_cell_volume 2296.863206
_symmetry_space_group_name_H-M "C 2/C"
_symmetry_group_IT_number 15
_symmetry_cell_setting 'monoclinic'
loop_
_space_group_symop_operation_xyz
x,y,z
-x,y,1/2-z
-x,-y,-z
x,-y,1/2+z
1/2+x,1/2+y,z
1/2-x,1/2+y,1/2-z
1/2-x,1/2-y,-z
1/2+x,1/2-y,1/2+z
loop_
_atom_site_type_symbol
_atom_site_label
_atom_site_fract_x
_atom_site_fract_y
_atom_site_fract_z
Si Si1 0.579048 0.239361 0.421618
Si Si2 0.142476 0.745508 0.105329
Si Si3 0.025858 0.327096 0.037450
Si Si4 0.322665 0.676005 0.156055
Si Si5 0.900584 0.056160 0.105243
Si Si6 0.778772 0.475911 0.357562
O O1 0.500000 0.230223 0.250000
O O2 0.548463 0.221991 0.474679
O O3 0.621347 0.400476 0.468568
O O4 0.645080 0.110311 0.492197
O O5 0.176222 0.577956 0.149211
O O6 0.056481 0.754700 0.038709
O O7 0.216192 0.850524 0.239189
O O8 0.125338 0.805144 0.987821
O O9 0.106659 0.285255 0.207122
O O10 0.000000 0.500000 0.000000
O O11 0.366263 0.566144 0.150834
O O12 0.276899 0.585858 0.164895
O O13 0.250000 0.750000 0.000000
O O14 0.000000 0.060971 0.250000
#
# Coordination Sequence:
#
# PCOD9305643 Si02
#       6
#     8   8   8   8   8   8
#     4  11  28  49  72 108 148 192 249 306 373 449
#     4  12  25  45  74 102 147 186 242 301 367 438
#     4  12  27  48  77 106 147 202 248 301 379 452
#     4  12  27  44  76 110 145 194 249 304 374 447
#     4  11  24  46  71 105 144 187 240 300 365 440
#     4  12  27  45  71 107 144 188 244 308 367 440
#
# _framework density 20.898067000000001
#
# number of rings (size 3 to 8) (size 9 to 14) (size 15 to 20)
#    0.000    0.333    5.000    3.000    7.000    4.000 
#    0.000    0.000    0.000    0.000    0.000    0.000 
#    0.000    0.000    0.000    0.000    0.000    0.000 
#
# Total GULP energy -134182.825508 kJ/mol
# GULP energy per Si atom -5590.951063 kJ/mol
# Density = 2.085050 g / cm^3
# Si number density = 20.898067 Si / 1000 Ang^3
#
#
#
# Elastic Constant Matrix: (Units=GPa)
#
#
# Indices 1 2 3 4 5 6 
#
# 1 115.8200 25.1139 30.1136 0.0000 9.7513 0.0000
# 2 25.1139 106.8158 50.5191 0.0000 7.4971 0.0000
# 3 30.1136 50.5191 134.9792 0.0000 9.6964 0.0000
# 4 0.0000 0.0000 0.0000 37.2663 0.0000 -4.1788
# 5 9.7513 7.4971 9.6964 0.0000 35.6507 0.0000
# 6 0.0000 0.0000 0.0000 -4.1788 0.0000 22.3737
#
#
#
# Elastic Compliance Matrix: (Units=1/GPa)
#
#
# Indices 1 2 3 4 5 6 
#
# 1 0.009477 -0.001409 -0.001450 0.000000 -0.001901 0.000000
# 2 -0.001409 0.011641 -0.003972 0.000000 -0.000982 0.000000
# 3 -0.001450 -0.003972 0.009312 0.000000 -0.001301 0.000000
# 4 0.000000 0.000000 0.000000 0.027408 0.000000 0.005119
# 5 -0.001901 -0.000982 -0.001301 0.000000 0.029130 0.000000
# 6 0.000000 0.000000 0.000000 0.005119 0.000000 0.045651
#
#
# Mechanical properties :
#
#
# Convention : Reuss Voigt Hill
#
# Bulk Modulus (GPa) = 59.63936 63.23424 61.43680
# Shear Modulus (GPa) = 32.92281 35.84936 34.38609
#
# Velocity S-wave (km/s) = 3.97344 4.14628 4.06078
# Velocity P-wave (km/s) = 7.04635 7.29701 7.17277
#
# Compressibility (1/GPa) = 0.01676745
#
# Stress axis : x y z
#
# Youngs Moduli (GPa) = 105.52152 85.90629 107.38638
#
# Poissons Ratio (x) = 0.12101 0.15576
# Poissons Ratio (y) = 0.14865 0.42653
# Poissons Ratio (z) = 0.15305 0.34121
#
# Static dielectric constant tensor:
#      x y z
#    x 1.694380 0.000000 0.123080 
#    y 0.000000 1.795000 0.000000 
#    z 0.123080 0.000000 1.745320 
# 
# From -- ./inp_files/224693.got.cif
#   From: 2010.05.17/outbox.cif.g08.bks.cpg/sg15_113_cif.got.tgz:224693.got - 2010.06.03 18:47:42.
