data_PCOD9305482
_publ_section_title
;
Structure prediction by ZEFSAII (Michael W. Deem and Ramdas Pophale) SiO2 
 PCOD9305482
Probable space group: C 2/C
;
_chemical_formula_sum "Si O2"
_cell_formula_units_Z 36
_cell_length_a 7.455247
_cell_length_b 11.975659
_cell_length_c 23.467750
_cell_angle_alpha 90.000000
_cell_angle_beta 63.613354
_cell_angle_gamma 90.000000
_cell_volume 1876.944450
_symmetry_space_group_name_H-M "C 2/C"
_symmetry_group_IT_number 15
_symmetry_cell_setting 'monoclinic'
loop_
_space_group_symop_operation_xyz
x,y,z
-x,y,1/2-z
-x,-y,-z
x,-y,1/2+z
1/2+x,1/2+y,z
1/2-x,1/2+y,1/2-z
1/2-x,1/2-y,-z
1/2+x,1/2-y,1/2+z
loop_
_atom_site_type_symbol
_atom_site_label
_atom_site_fract_x
_atom_site_fract_y
_atom_site_fract_z
Si Si1 0.260516 0.039416 0.412865
Si Si2 0.779687 0.366728 0.306989
Si Si3 0.207961 0.381922 0.860148
Si Si4 0.500000 0.454245 0.250000
Si Si5 0.670046 0.628304 0.027626
O O1 0.473804 0.099002 0.381910
O O2 0.071460 0.122203 0.439560
O O3 0.241941 0.958567 0.360964
O O4 0.244938 0.961888 0.471088
O O5 0.766144 0.244042 0.335691
O O6 0.617239 0.382024 0.280147
O O7 0.000000 0.383657 0.250000
O O8 0.338829 0.467026 0.804251
O O9 0.255892 0.400747 0.919704
O O10 0.750000 0.750000 0.000000
#
# Coordination Sequence:
#
# PCOD9305482 Si02
#       5
#     8   8   8   4   8
#     4  11  25  44  69  98 136 173 221 273 330 394
#     4  12  25  43  68  99 130 176 224 270 326 400
#     4  12  25  43  70  98 136 174 218 275 336 387
#     4  12  26  42  68  98 132 176 222 272 336 388
#     4  11  24  45  70 100 134 174 223 274 329 396
#
# _framework density 19.180109000000002
#
# number of rings (size 3 to 8) (size 9 to 14) (size 15 to 20)
#    0.000    0.444    7.778    0.667    0.000    6.222 
#    0.000    0.000    0.000    0.000    0.000    0.000 
#    0.000    0.000    0.000    0.000    0.000    0.000 
#
# Total GULP energy -100717.343369 kJ/mol
# GULP energy per Si atom -5595.407965 kJ/mol
# Density = 1.913645 g / cm^3
# Si number density = 19.180109 Si / 1000 Ang^3
#
#
#
# Elastic Constant Matrix: (Units=GPa)
#
#
# Indices 1 2 3 4 5 6 
#
# 1 113.0972 30.4011 50.7995 0.0000 1.5443 0.0000
# 2 30.4011 51.3592 23.2900 0.0000 -1.8313 0.0000
# 3 50.7995 23.2900 109.4976 0.0000 6.5494 0.0000
# 4 0.0000 0.0000 0.0000 11.6134 0.0000 -5.4728
# 5 1.5443 -1.8313 6.5494 0.0000 50.8616 0.0000
# 6 0.0000 0.0000 0.0000 -5.4728 0.0000 28.5077
#
#
#
# Elastic Compliance Matrix: (Units=1/GPa)
#
#
# Indices 1 2 3 4 5 6 
#
# 1 0.012307 -0.005195 -0.004607 0.000000 0.000032 0.000000
# 2 -0.005195 0.023838 -0.002742 0.000000 0.001369 0.000000
# 3 -0.004607 -0.002742 0.011943 0.000000 -0.001497 0.000000
# 4 0.000000 0.000000 0.000000 0.094673 0.000000 0.018175
# 5 0.000032 0.001369 -0.001497 0.000000 0.019902 0.000000
# 6 0.000000 0.000000 0.000000 0.018175 0.000000 0.038567
#
#
# Mechanical properties :
#
#
# Convention : Reuss Voigt Hill
#
# Bulk Modulus (GPa) = 43.47754 53.65948 48.56851
# Shear Modulus (GPa) = 21.36899 29.49411 25.43155
#
# Velocity S-wave (km/s) = 3.34147 3.92566 3.64529
# Velocity P-wave (km/s) = 6.13225 6.97030 6.56466
#
# Compressibility (1/GPa) = 0.02300038
#
# Stress axis : x y z
#
# Youngs Moduli (GPa) = 81.25423 41.94992 83.73400
#
# Poissons Ratio (x) = 0.21792 0.38573
# Poissons Ratio (y) = 0.42210 0.22961
# Poissons Ratio (z) = 0.37431 0.11503
#
# Static dielectric constant tensor:
#      x y z
#    x 1.641300 0.000000 0.001060 
#    y 0.000000 1.620020 0.000000 
#    z 0.001060 0.000000 1.654160 
# 
# From -- ./inp_files/262970.got.cif
#   From: 2010.05.17/outbox.cif.g08.bks.cpg/sg15_132_cif.got.tgz:262970.got - 2010.06.03 18:47:42.
