data_PCOD9305057
_publ_section_title
;
Structure prediction by ZEFSAII (Michael W. Deem and Ramdas Pophale) SiO2 
 PCOD9305057
Probable space group: C 2/C
;
_chemical_formula_sum "Si O2"
_cell_formula_units_Z 36
_cell_length_a 6.690455
_cell_length_b 24.455525
_cell_length_c 14.392532
_cell_angle_alpha 90.000000
_cell_angle_beta 41.850452
_cell_angle_gamma 90.000000
_cell_volume 1571.153052
_symmetry_space_group_name_H-M "C 2/C"
_symmetry_group_IT_number 15
_symmetry_cell_setting 'monoclinic'
loop_
_space_group_symop_operation_xyz
x,y,z
-x,y,1/2-z
-x,-y,-z
x,-y,1/2+z
1/2+x,1/2+y,z
1/2-x,1/2+y,1/2-z
1/2-x,1/2-y,-z
1/2+x,1/2-y,1/2+z
loop_
_atom_site_type_symbol
_atom_site_label
_atom_site_fract_x
_atom_site_fract_y
_atom_site_fract_z
Si Si1 0.000000 0.093178 0.750000
Si Si2 0.151894 0.995934 0.348301
Si Si3 0.336094 0.712385 0.088972
Si Si4 0.290922 0.615371 0.219307
Si Si5 0.940008 0.329329 0.001567
O O1 0.041637 0.053787 0.823769
O O2 0.281690 0.131755 0.630334
O O3 0.500000 0.988652 0.250000
O O4 0.089932 0.054256 0.321142
O O5 0.000000 0.000000 0.500000
O O6 0.469556 0.664073 0.106206
O O7 0.502957 0.769733 0.022179
O O8 0.000000 0.723675 0.250000
O O9 0.295027 0.687771 0.999987
O O10 0.000000 0.610564 0.250000
O O11 0.179298 0.637313 0.357163
#
# Coordination Sequence:
#
# PCOD9305057 Si02
#       5
#     4   8   8   8   8
#     4  12  22  34  62  92 120 164 210 246 312 374
#     4  11  24  42  60  89 128 166 206 255 305 368
#     4   8  13  26  46  75 118 142 191 257 297 342
#     4   8  16  30  48  75 114 150 191 246 303 343
#     4   9  16  26  48  85 113 143 201 251 293 358
#
# _framework density 22.913108999999999
#
# number of rings (size 3 to 8) (size 9 to 14) (size 15 to 20)
#    0.000    3.111    1.111    4.000    0.000    3.556 
#    0.000    0.000    0.000    0.000    2.889    9.333 
#    0.000    0.000    0.000    0.000    0.000    0.000 
#
# Total GULP energy -100536.698725 kJ/mol
# GULP energy per Si atom -5585.372151 kJ/mol
# Density = 2.286096 g / cm^3
# Si number density = 22.913109 Si / 1000 Ang^3
#
#
#
# Elastic Constant Matrix: (Units=GPa)
#
#
# Indices 1 2 3 4 5 6 
#
# 1 59.5746 17.8226 15.3563 0.0000 20.9358 0.0000
# 2 17.8226 166.4159 25.2669 0.0000 17.6282 0.0000
# 3 15.3563 25.2669 100.5051 0.0000 18.7114 0.0000
# 4 0.0000 0.0000 0.0000 43.3773 0.0000 16.0066
# 5 20.9358 17.6282 18.7114 0.0000 34.4403 0.0000
# 6 0.0000 0.0000 0.0000 16.0066 0.0000 5.9606
#
#
#
# Elastic Compliance Matrix: (Units=1/GPa)
#
#
# Indices 1 2 3 4 5 6 
#
# 1 0.021549 -0.000894 -0.000795 0.000000 -0.012210 0.000001
# 2 -0.000894 0.006503 -0.001090 0.000000 -0.002193 0.000000
# 3 -0.000795 -0.001090 0.011294 0.000000 -0.005095 0.000001
# 4 0.000000 0.000000 0.000000 2.543734 0.000001 -6.830960
# 5 -0.012210 -0.002193 -0.005095 0.000001 0.040349 -0.000003
# 6 0.000001 0.000000 0.000001 -6.830960 -0.000003 18.511675
#
#
# Mechanical properties :
#
#
# Convention : Reuss Voigt Hill
#
# Bulk Modulus (GPa) = 29.59589 49.26524 39.43056
# Shear Modulus (GPa) = 0.23639 34.62563 17.43101
#
# Velocity S-wave (km/s) = 0.32154 3.89160 2.76115
# Velocity P-wave (km/s) = 3.61697 6.46067 5.23559
#
# Compressibility (1/GPa) = 0.03378848
#
# Stress axis : x y z
#
# Youngs Moduli (GPa) = 46.40636 153.78638 88.54489
#
# Poissons Ratio (x) = 0.13745 0.07036
# Poissons Ratio (y) = 0.04148 0.09651
# Poissons Ratio (z) = 0.03687 0.16761
#
# Static dielectric constant tensor:
#      x y z
#    x 2.019900 0.000000 0.007950 
#    y 0.000000 1.853530 0.000000 
#    z 0.007950 0.000000 1.834910 
# 
# From -- ./inp_files/136739.got.cif
#   From: 2010.05.17/outbox.cif.g08.bks.cpg/sg15_69_cif.got.tgz:136739.got - 2010.06.03 18:47:42.
