data_PCOD9305708
_publ_section_title
;
Structure prediction by ZEFSAII (Michael W. Deem and Ramdas Pophale) SiO2 
 PCOD9305708
Probable space group: C 2/C
;
_chemical_formula_sum "Si O2"
_cell_formula_units_Z 32
_cell_length_a 11.367826
_cell_length_b 9.176990
_cell_length_c 12.766404
_cell_angle_alpha 90.000000
_cell_angle_beta 92.715900
_cell_angle_gamma 90.000000
_cell_volume 1330.326280
_symmetry_space_group_name_H-M "C 2/C"
_symmetry_group_IT_number 15
_symmetry_cell_setting 'monoclinic'
loop_
_space_group_symop_operation_xyz
x,y,z
-x,y,1/2-z
-x,-y,-z
x,-y,1/2+z
1/2+x,1/2+y,z
1/2-x,1/2+y,1/2-z
1/2-x,1/2-y,-z
1/2+x,1/2-y,1/2+z
loop_
_atom_site_type_symbol
_atom_site_label
_atom_site_fract_x
_atom_site_fract_y
_atom_site_fract_z
Si Si1 0.664089 0.534780 0.262207
Si Si2 0.085800 0.461172 0.839094
Si Si3 0.873943 0.747732 0.566488
Si Si4 0.979255 0.134970 0.603766
O O1 0.787087 0.549099 0.209894
O O2 0.637901 0.690229 0.315844
O O3 0.645793 0.433223 0.365311
O O4 0.576858 0.455490 0.175148
O O5 0.092434 0.578909 0.930453
O O6 0.000000 0.527551 0.750000
O O7 0.034172 0.303830 0.864273
O O8 0.750000 0.750000 0.500000
O O9 0.969965 0.846971 0.510593
#
# Coordination Sequence:
#
# PCOD9305708 Si02
#       4
#     8   8   8   8
#     4  11  24  46  75 106 153 190 239 313 364 431
#     4  12  24  46  78 108 147 195 245 303 368 437
#     4  12  25  46  76 111 147 194 251 299 366 444
#     4  11  24  49  72 107 152 190 245 307 364 434
#
# _framework density 24.054251000000001
#
# number of rings (size 3 to 8) (size 9 to 14) (size 15 to 20)
#    0.000    0.500    5.000    4.500    3.500    0.000 
#    0.000    2.500    0.000    0.000    0.000    0.000 
#    0.000    0.000    0.000    0.000    0.000    0.000 
#
# Total GULP energy -89311.260363 kJ/mol
# GULP energy per Si atom -5581.953773 kJ/mol
# Density = 2.399950 g / cm^3
# Si number density = 24.054251 Si / 1000 Ang^3
#
#
#
# Elastic Constant Matrix: (Units=GPa)
#
#
# Indices 1 2 3 4 5 6 
#
# 1 107.7382 39.0251 51.1927 0.0000 -9.9120 0.0000
# 2 39.0251 122.5413 43.6925 0.0000 16.4034 0.0000
# 3 51.1927 43.6925 88.8113 0.0000 -29.2610 0.0000
# 4 0.0000 0.0000 0.0000 46.6065 0.0000 -1.5728
# 5 -9.9120 16.4034 -29.2610 0.0000 45.3060 0.0000
# 6 0.0000 0.0000 0.0000 -1.5728 0.0000 14.1371
#
#
#
# Elastic Compliance Matrix: (Units=1/GPa)
#
#
# Indices 1 2 3 4 5 6 
#
# 1 0.013149 -0.001384 -0.007350 0.000000 -0.001369 0.000000
# 2 -0.001384 0.013578 -0.009656 0.000000 -0.011455 0.000000
# 3 -0.007350 -0.009656 0.026510 0.000000 0.019010 0.000000
# 4 0.000000 0.000000 0.000000 0.021537 0.000000 0.002396
# 5 -0.001369 -0.011455 0.019010 0.000000 0.038198 0.000000
# 6 0.000000 0.000000 0.000000 0.002396 0.000000 0.071002
#
#
# Mechanical properties :
#
#
# Convention : Reuss Voigt Hill
#
# Bulk Modulus (GPa) = 60.76304 65.21238 62.98771
# Shear Modulus (GPa) = 22.10039 33.55528 27.82783
#
# Velocity S-wave (km/s) = 3.03441 3.73900 3.40498
# Velocity P-wave (km/s) = 6.13128 6.76828 6.45764
#
# Compressibility (1/GPa) = 0.01645737
#
# Stress axis : x y z
#
# Youngs Moduli (GPa) = 76.04913 73.65088 37.72093
#
# Poissons Ratio (x) = 0.10191 0.27725
# Poissons Ratio (y) = 0.10523 0.36425
# Poissons Ratio (z) = 0.55896 0.71120
#
# Static dielectric constant tensor:
#      x y z
#    x 1.905460 0.000000 0.054050 
#    y 0.000000 1.998710 0.000000 
#    z 0.054050 0.000000 1.749790 
# 
# From -- ./inp_files/140504.got.cif
#   From: 2010.05.17/outbox.cif.g08.bks.cpg/sg15_71_cif.got.tgz:140504.got - 2010.06.03 18:47:42.
