data_PCOD9305575
_publ_section_title
;
Structure prediction by ZEFSAII (Michael W. Deem and Ramdas Pophale) SiO2 
 PCOD9305575
Probable space group: C 2/C
;
_chemical_formula_sum "Si O2"
_cell_formula_units_Z 48
_cell_length_a 14.616055
_cell_length_b 13.912984
_cell_length_c 29.517497
_cell_angle_alpha 90.000000
_cell_angle_beta 160.154190
_cell_angle_gamma 90.000000
_cell_volume 2037.778941
_symmetry_space_group_name_H-M "C 2/C"
_symmetry_group_IT_number 15
_symmetry_cell_setting 'monoclinic'
loop_
_space_group_symop_operation_xyz
x,y,z
-x,y,1/2-z
-x,-y,-z
x,-y,1/2+z
1/2+x,1/2+y,z
1/2-x,1/2+y,1/2-z
1/2-x,1/2-y,-z
1/2+x,1/2-y,1/2+z
loop_
_atom_site_type_symbol
_atom_site_label
_atom_site_fract_x
_atom_site_fract_y
_atom_site_fract_z
Si Si1 0.471127 0.190723 0.906863
Si Si2 0.236768 0.575811 0.609172
Si Si3 0.618986 0.559970 0.013321
Si Si4 0.903138 0.166635 0.300266
Si Si5 0.382750 0.231742 0.013069
Si Si6 0.829083 0.477109 0.271155
O O1 0.311645 0.158704 0.876316
O O2 0.380625 0.288452 0.840631
O O3 0.422407 0.111106 0.845470
O O4 0.786582 0.186470 0.066508
O O5 0.500000 0.523597 0.750000
O O6 0.241222 0.633539 0.564497
O O7 0.000000 0.500000 0.500000
O O8 0.904404 0.517870 0.129414
O O9 0.500000 0.500000 0.000000
O O10 0.656022 0.674782 0.036239
O O11 0.397370 0.551137 0.870388
O O12 0.698458 0.215220 0.170068
O O13 0.807924 0.057605 0.260943
O O14 0.250000 0.250000 0.000000
#
# Coordination Sequence:
#
# PCOD9305575 Si02
#       6
#     8   8   8   8   8   8
#     4  11  26  46  75 110 148 195 249 313 383 450
#     4  12  31  48  77 113 153 193 261 316 378 454
#     4  12  28  45  74 111 149 198 251 311 371 453
#     4  11  24  45  77 106 145 201 249 305 380 461
#     4  12  26  50  79 105 153 205 249 310 389 451
#     4  12  24  46  76 103 153 195 250 305 384 441
#
# _framework density 23.555059
#
# number of rings (size 3 to 8) (size 9 to 14) (size 15 to 20)
#    0.000    0.333    5.000    2.500    7.000    0.000 
#    3.000    0.000    0.000    0.000    0.000    0.000 
#    0.000    0.000    0.000    0.000    0.000    0.000 
#
# Total GULP energy -134491.616597 kJ/mol
# GULP energy per Si atom -5603.817358 kJ/mol
# Density = 2.350145 g / cm^3
# Si number density = 23.555059 Si / 1000 Ang^3
#
#
#
# Elastic Constant Matrix: (Units=GPa)
#
#
# Indices 1 2 3 4 5 6 
#
# 1 59.5149 14.4952 8.5557 0.0006 -7.0382 0.0012
# 2 14.4952 99.4200 27.7393 0.0048 -4.3339 0.0014
# 3 8.5557 27.7393 158.4896 -0.0023 8.6786 -0.0038
# 4 0.0006 0.0048 -0.0023 36.6191 0.0046 -3.3148
# 5 -7.0382 -4.3339 8.6786 0.0046 15.9500 -0.0048
# 6 0.0012 0.0014 -0.0038 -3.3148 -0.0048 33.5986
#
#
#
# Elastic Compliance Matrix: (Units=1/GPa)
#
#
# Indices 1 2 3 4 5 6 
#
# 1 0.018418 -0.002026 -0.001087 -0.000001 0.008168 0.000000
# 2 -0.002026 0.011051 -0.002000 -0.000002 0.003197 0.000000
# 3 -0.001087 -0.002000 0.006982 0.000001 -0.004822 0.000000
# 4 -0.000001 -0.000002 0.000001 0.027554 -0.000009 0.002718
# 5 0.008168 0.003197 -0.004822 -0.000009 0.069793 0.000008
# 6 0.000000 0.000000 0.000000 0.002718 0.000008 0.030031
#
#
# Mechanical properties :
#
#
# Convention : Reuss Voigt Hill
#
# Bulk Modulus (GPa) = 38.13020 46.55611 42.34316
# Shear Modulus (GPa) = 27.35264 35.00916 31.18090
#
# Velocity S-wave (km/s) = 3.41137 3.85940 3.64228
# Velocity P-wave (km/s) = 5.63377 6.29823 5.97524
#
# Compressibility (1/GPa) = 0.02622593
#
# Stress axis : x y z
#
# Youngs Moduli (GPa) = 54.29419 90.48896 143.21883
#
# Poissons Ratio (x) = 0.18333 0.15567
# Poissons Ratio (y) = 0.11000 0.28642
# Poissons Ratio (z) = 0.05901 0.18097
#
# Static dielectric constant tensor:
#      x y z
#    x 1.886520 0.000000 0.021110 
#    y 0.000000 1.894760 -0.000010 
#    z 0.021110 -0.000010 1.897630 
# 
# From -- ./inp_files/314147.got.cif
#   From: 2010.05.17/outbox.cif.g08.bks.cpg/sg15_158_cif.got.tgz:314147.got - 2010.06.03 18:47:42.
