data_PCOD9305489
_publ_section_title
;
Structure prediction by ZEFSAII (Michael W. Deem and Ramdas Pophale) SiO2 
 PCOD9305489
Probable space group: C 2/C
;
_chemical_formula_sum "Si O2"
_cell_formula_units_Z 44
_cell_length_a 7.375475
_cell_length_b 12.339547
_cell_length_c 26.317630
_cell_angle_alpha 90.000000
_cell_angle_beta 76.766817
_cell_angle_gamma 90.000000
_cell_volume 2331.567924
_symmetry_space_group_name_H-M "C 2/C"
_symmetry_group_IT_number 15
_symmetry_cell_setting 'monoclinic'
loop_
_space_group_symop_operation_xyz
x,y,z
-x,y,1/2-z
-x,-y,-z
x,-y,1/2+z
1/2+x,1/2+y,z
1/2-x,1/2+y,1/2-z
1/2-x,1/2-y,-z
1/2+x,1/2-y,1/2+z
loop_
_atom_site_type_symbol
_atom_site_label
_atom_site_fract_x
_atom_site_fract_y
_atom_site_fract_z
Si Si1 0.180009 0.192240 0.431721
Si Si2 0.388095 0.433925 0.884586
Si Si3 0.000000 0.459419 0.750000
Si Si4 0.178108 0.423490 0.480046
Si Si5 0.937147 0.687616 0.154757
Si Si6 0.381486 0.415996 0.206729
O O1 0.124146 0.306564 0.460265
O O2 0.218570 0.105473 0.474005
O O3 0.374178 0.204813 0.389213
O O4 0.023300 0.150132 0.403860
O O5 0.310531 0.516488 0.931673
O O6 0.215448 0.373705 0.869294
O O7 0.504814 0.499760 0.835327
O O8 0.980952 0.384935 0.701354
O O9 0.816950 0.532874 0.767025
O O10 0.000000 0.500000 0.500000
O O11 0.862309 0.803368 0.178182
O O12 0.500000 0.396114 0.250000
#
# Coordination Sequence:
#
# PCOD9305489 Si02
#       6
#     8   8   4   8   8   8
#     4  11  25  44  69 101 136 175 224 275 326 402
#     4  12  25  43  71  99 134 179 224 269 340 392
#     4  12  26  44  70  98 132 176 224 280 336 388
#     4  11  24  45  70 101 139 174 221 277 331 393
#     4  12  25  43  69  99 132 177 227 272 329 406
#     4  12  26  43  69  99 134 174 223 281 335 393
#
# _framework density 18.871420000000001
#
# number of rings (size 3 to 8) (size 9 to 14) (size 15 to 20)
#    0.000    0.364    8.182    0.545    0.000    6.545 
#    0.000    0.000    0.000    0.000    0.000    0.000 
#    0.000    0.000    0.000    0.000    0.000    0.000 
#
# Total GULP energy -123087.329077 kJ/mol
# GULP energy per Si atom -5594.878594 kJ/mol
# Density = 1.882847 g / cm^3
# Si number density = 18.871420 Si / 1000 Ang^3
#
#
#
# Elastic Constant Matrix: (Units=GPa)
#
#
# Indices 1 2 3 4 5 6 
#
# 1 90.1858 48.1447 37.1244 0.0000 0.4851 0.0000
# 2 48.1447 93.5650 32.8494 0.0000 11.4036 0.0000
# 3 37.1244 32.8494 99.9960 0.0000 3.4777 0.0000
# 4 0.0000 0.0000 0.0000 12.3841 0.0000 -32.7807
# 5 0.4851 11.4036 3.4777 0.0000 34.1089 0.0000
# 6 0.0000 0.0000 0.0000 -32.7807 0.0000 7.2056
#
#
#
# Elastic Compliance Matrix: (Units=1/GPa)
#
#
# Indices 1 2 3 4 5 6 
#
# 1 0.016682 -0.007578 -0.003797 0.000000 0.002683 0.000000
# 2 -0.007578 0.015993 -0.002266 0.000000 -0.005008 0.000000
# 3 -0.003797 -0.002266 0.012170 0.000000 -0.000429 0.000000
# 4 0.000000 0.000000 0.000000 -0.007313 0.000000 -0.033268
# 5 0.002683 -0.005008 -0.000429 0.000000 0.030998 0.000000
# 6 0.000000 0.000000 0.000000 -0.033268 0.000000 -0.012568
#
#
# Mechanical properties :
#
#
# Convention : Reuss Voigt Hill
#
# Bulk Modulus (GPa) = 56.94158 57.77599 57.35878
# Shear Modulus (GPa) = 56.11746 21.78161 38.94954
#
# Velocity S-wave (km/s) = 5.45906 3.40105 4.54799
# Velocity P-wave (km/s) = 8.36505 6.79006 7.61837
#
# Compressibility (1/GPa) = 0.01756186
#
# Stress axis : x y z
#
# Youngs Moduli (GPa) = 59.94368 62.52713 82.17174
#
# Poissons Ratio (x) = 0.47382 0.31204
# Poissons Ratio (y) = 0.45425 0.18623
# Poissons Ratio (z) = 0.22763 0.14171
#
# Static dielectric constant tensor:
#      x y z
#    x 1.609900 0.000000 0.001490 
#    y 0.000000 1.625610 0.000000 
#    z 0.001490 0.000000 1.641560 
# 
# From -- ./inp_files/260416.got.cif
#   From: 2010.05.17/outbox.cif.g08.bks.cpg/sg15_131_cif.got.tgz:260416.got - 2010.06.03 18:47:42.
