data_PCOD9305447
_publ_section_title
;
Structure prediction by ZEFSAII (Michael W. Deem and Ramdas Pophale) SiO2 
 PCOD9305447
Probable space group: C 2/C
;
_chemical_formula_sum "Si O2"
_cell_formula_units_Z 32
_cell_length_a 8.533266
_cell_length_b 7.199960
_cell_length_c 23.600548
_cell_angle_alpha 90.000000
_cell_angle_beta 68.191348
_cell_angle_gamma 90.000000
_cell_volume 1346.221422
_symmetry_space_group_name_H-M "C 2/C"
_symmetry_group_IT_number 15
_symmetry_cell_setting 'monoclinic'
loop_
_space_group_symop_operation_xyz
x,y,z
-x,y,1/2-z
-x,-y,-z
x,-y,1/2+z
1/2+x,1/2+y,z
1/2-x,1/2+y,1/2-z
1/2-x,1/2-y,-z
1/2+x,1/2-y,1/2+z
loop_
_atom_site_type_symbol
_atom_site_label
_atom_site_fract_x
_atom_site_fract_y
_atom_site_fract_z
Si Si1 0.520128 0.148356 0.609899
Si Si2 0.615036 0.850356 0.788683
Si Si3 0.453741 0.541287 0.193623
Si Si4 0.166863 0.120322 0.462785
O O1 0.407964 0.009954 0.662490
O O2 0.570753 0.325996 0.641902
O O3 0.402342 0.241489 0.577388
O O4 0.684808 0.028123 0.571865
O O5 0.500000 0.900673 0.750000
O O6 0.582437 0.659031 0.827353
O O7 0.791791 0.839153 0.732694
O O8 0.500000 0.477775 0.250000
O O9 0.250000 0.250000 0.500000
O O10 0.000000 0.000000 0.500000
#
# Coordination Sequence:
#
# PCOD9305447 Si02
#       4
#     8   8   8   8
#     4  12  27  49  83 109 157 211 255 323 407 451
#     4  11  24  45  67 117 161 202 247 303 383 490
#     4  11  25  41  74 112 164 198 248 303 382 490
#     4  12  31  57  81 112 151 205 280 342 383 448
#
# _framework density 23.770232
#
# number of rings (size 3 to 8) (size 9 to 14) (size 15 to 20)
#    0.000    0.500    2.500    3.750   10.500    0.000 
#    0.000    0.000    0.000    0.000    0.000    0.000 
#    0.000    0.000    0.000    0.000    0.000    0.000 
#
# Total GULP energy -89280.429913 kJ/mol
# GULP energy per Si atom -5580.026870 kJ/mol
# Density = 2.371613 g / cm^3
# Si number density = 23.770232 Si / 1000 Ang^3
#
#
#
# Elastic Constant Matrix: (Units=GPa)
#
#
# Indices 1 2 3 4 5 6 
#
# 1 89.8311 61.2159 57.9448 0.0000 0.7299 0.0000
# 2 61.2159 243.3929 107.7465 0.0000 5.8635 0.0000
# 3 57.9448 107.7465 107.6128 0.0000 6.3592 0.0000
# 4 0.0000 0.0000 0.0000 20.6841 0.0000 -7.7644
# 5 0.7299 5.8635 6.3592 0.0000 30.3135 0.0000
# 6 0.0000 0.0000 0.0000 -7.7644 0.0000 47.2875
#
#
#
# Elastic Compliance Matrix: (Units=1/GPa)
#
#
# Indices 1 2 3 4 5 6 
#
# 1 0.017148 -0.000399 -0.008925 0.000000 0.001537 0.000000
# 2 -0.000399 0.007389 -0.007189 0.000000 0.000088 0.000000
# 3 -0.008925 -0.007189 0.021467 0.000000 -0.002898 0.000000
# 4 0.000000 0.000000 0.000000 0.051522 0.000000 0.008460
# 5 0.001537 0.000088 -0.002898 0.000000 0.033542 0.000000
# 6 0.000000 0.000000 0.000000 0.008460 0.000000 0.022536
#
#
# Mechanical properties :
#
#
# Convention : Reuss Voigt Hill
#
# Bulk Modulus (GPa) = 77.04538 99.40569 88.22554
# Shear Modulus (GPa) = 26.18392 33.91898 30.05145
#
# Velocity S-wave (km/s) = 3.32255 3.78160 3.55948
# Velocity P-wave (km/s) = 6.87037 7.80881 7.35458
#
# Compressibility (1/GPa) = 0.01297936
#
# Stress axis : x y z
#
# Youngs Moduli (GPa) = 58.31453 135.33376 46.58312
#
# Poissons Ratio (x) = 0.05402 0.41575
# Poissons Ratio (y) = 0.02328 0.33487
# Poissons Ratio (z) = 0.52045 0.97286
#
# Static dielectric constant tensor:
#      x y z
#    x 2.137830 0.000000 -0.110500 
#    y 0.000000 1.977110 0.000000 
#    z -0.110500 0.000000 1.945820 
# 
# From -- ./inp_files/262291.got.cif
#   From: 2010.05.17/outbox.cif.g08.bks.cpg/sg15_132_cif.got.tgz:262291.got - 2010.06.03 18:47:42.
