data_PCOD9305169
_publ_section_title
;
Structure prediction by ZEFSAII (Michael W. Deem and Ramdas Pophale) SiO2 
 PCOD9305169
Probable space group: C 2/C
;
_chemical_formula_sum "Si O2"
_cell_formula_units_Z 52
_cell_length_a 12.315003
_cell_length_b 13.564801
_cell_length_c 22.639029
_cell_angle_alpha 90.000000
_cell_angle_beta 38.973099
_cell_angle_gamma 90.000000
_cell_volume 2378.623058
_symmetry_space_group_name_H-M "C 2/C"
_symmetry_group_IT_number 15
_symmetry_cell_setting 'monoclinic'
loop_
_space_group_symop_operation_xyz
x,y,z
-x,y,1/2-z
-x,-y,-z
x,-y,1/2+z
1/2+x,1/2+y,z
1/2-x,1/2+y,1/2-z
1/2-x,1/2-y,-z
1/2+x,1/2-y,1/2+z
loop_
_atom_site_type_symbol
_atom_site_label
_atom_site_fract_x
_atom_site_fract_y
_atom_site_fract_z
Si Si1 0.469595 0.881959 0.129970
Si Si2 0.773221 0.633896 0.501800
Si Si3 0.698087 0.463958 0.908879
Si Si4 0.500000 0.888647 0.250000
Si Si5 0.348399 0.911057 0.640475
Si Si6 0.320611 0.560865 0.413541
Si Si7 0.352007 0.320511 0.675623
O O1 0.386281 0.787318 0.135647
O O2 0.478331 0.843564 0.194190
O O3 0.361362 0.982091 0.167057
O O4 0.655662 0.905773 0.023056
O O5 0.750000 0.750000 0.500000
O O6 0.769953 0.584147 0.438322
O O7 0.648369 0.556779 0.589409
O O8 0.955368 0.617018 0.457694
O O9 0.826180 0.549676 0.834803
O O10 0.707659 0.385008 0.853638
O O11 0.500000 0.500000 0.000000
O O12 0.231362 0.918723 0.632063
O O13 0.284494 0.830350 0.713941
O O14 0.478531 0.625577 0.369625
#
# Coordination Sequence:
#
# PCOD9305169 Si02
#       7
#     8   8   8   4   8   8   8
#     4  11  24  43  66  94 129 177 217 268 331 383
#     4  11  24  43  68  97 127 176 218 261 332 394
#     4  12  23  44  69  96 135 170 222 280 322 389
#     4  12  22  46  66  92 140 170 220 280 326 382
#     4  11  25  45  64  94 138 171 214 274 326 396
#     4  11  24  46  64  95 134 174 217 268 328 397
#     4  12  25  42  67 101 127 172 223 269 327 387
#
# _framework density 21.861387000000001
#
# number of rings (size 3 to 8) (size 9 to 14) (size 15 to 20)
#    0.000    0.615    6.154    2.769    6.462    2.462 
#    0.000    0.000    0.000    0.000    0.000    0.000 
#    0.000    0.000    0.000    0.000    0.000    0.000 
#
# Total GULP energy -145167.102131 kJ/mol
# GULP energy per Si atom -5583.350082 kJ/mol
# Density = 2.181163 g / cm^3
# Si number density = 21.861387 Si / 1000 Ang^3
#
#
#
# Elastic Constant Matrix: (Units=GPa)
#
#
# Indices 1 2 3 4 5 6 
#
# 1 76.6555 -22.7633 -21.6330 0.0000 15.4797 0.0000
# 2 -22.7633 93.8173 -13.0697 -0.0001 -11.4915 0.0000
# 3 -21.6330 -13.0697 49.6581 -0.0003 -1.4513 0.0002
# 4 0.0000 -0.0001 -0.0003 21.4550 0.0001 -6.3544
# 5 15.4797 -11.4915 -1.4513 0.0001 39.4917 -0.0001
# 6 0.0000 0.0000 0.0002 -6.3544 -0.0001 14.2080
#
#
#
# Elastic Compliance Matrix: (Units=1/GPa)
#
#
# Indices 1 2 3 4 5 6 
#
# 1 0.018177 0.005023 0.009085 0.000000 -0.005329 0.000000
# 2 0.005023 0.012908 0.005644 0.000000 0.001995 0.000000
# 3 0.009085 0.005644 0.025552 0.000000 -0.000980 0.000000
# 4 0.000000 0.000000 0.000000 0.053726 0.000000 0.024028
# 5 -0.005329 0.001995 -0.000980 0.000000 0.027955 0.000000
# 6 0.000000 0.000000 0.000000 0.024028 0.000000 0.081130
#
#
# Mechanical properties :
#
#
# Convention : Reuss Voigt Hill
#
# Bulk Modulus (GPa) = 10.40123 11.68876 11.04500
# Shear Modulus (GPa) = 23.58586 33.53739 28.56162
#
# Velocity S-wave (km/s) = 3.28820 3.92100 3.61846
# Velocity P-wave (km/s) = 4.38001 5.08501 4.74562
#
# Compressibility (1/GPa) = 0.09614245
#
# Stress axis : x y z
#
# Youngs Moduli (GPa) = 55.01415 77.46883 39.13538
#
# Poissons Ratio (x) = -0.38915 -0.35554
# Poissons Ratio (y) = -0.27635 -0.22088
# Poissons Ratio (z) = -0.49980 -0.43724
#
# Static dielectric constant tensor:
#      x y z
#    x 1.793140 0.000000 -0.005190 
#    y 0.000000 1.786560 0.000000 
#    z -0.005190 0.000000 1.803270 
# 
# From -- ./inp_files/269904.got.cif
#   From: 2010.05.17/outbox.cif.g08.bks.cpg/sg15_135_cif.got.tgz:269904.got - 2010.06.03 18:47:42.
