data_PCOD9305470
_publ_section_title
;
Structure prediction by ZEFSAII (Michael W. Deem and Ramdas Pophale) SiO2 
 PCOD9305470
Probable space group: C 2/C
;
_chemical_formula_sum "Si O2"
_cell_formula_units_Z 36
_cell_length_a 20.342908
_cell_length_b 15.964319
_cell_length_c 13.419732
_cell_angle_alpha 90.000000
_cell_angle_beta 162.677979
_cell_angle_gamma 90.000000
_cell_volume 1297.618684
_symmetry_space_group_name_H-M "C 2/C"
_symmetry_group_IT_number 15
_symmetry_cell_setting 'monoclinic'
loop_
_space_group_symop_operation_xyz
x,y,z
-x,y,1/2-z
-x,-y,-z
x,-y,1/2+z
1/2+x,1/2+y,z
1/2-x,1/2+y,1/2-z
1/2-x,1/2-y,-z
1/2+x,1/2-y,1/2+z
loop_
_atom_site_type_symbol
_atom_site_label
_atom_site_fract_x
_atom_site_fract_y
_atom_site_fract_z
Si Si1 0.926155 0.080626 0.956549
Si Si2 0.085768 0.776496 0.548412
Si Si3 0.000000 0.181795 0.250000
Si Si4 0.023376 0.488559 0.168958
Si Si5 0.683557 0.126531 0.290304
O O1 0.685270 0.052177 0.642439
O O2 0.947319 0.159388 0.914808
O O3 0.054584 0.118548 0.237774
O O4 0.000000 0.000000 0.000000
O O5 0.149068 0.826422 0.541120
O O6 0.932847 0.696673 0.312529
O O7 0.301748 0.740838 0.920977
O O8 0.000000 0.461256 0.250000
O O9 0.225167 0.546688 0.422267
O O10 0.975510 0.413838 0.024851
#
# Coordination Sequence:
#
# PCOD9305470 Si02
#       5
#     8   8   4   8   8
#     4  12  26  44  69 111 144 187 244 301 365 436
#     4  12  24  43  73 108 141 181 243 304 358 417
#     4  12  26  44  80 106 144 190 246 310 360 424
#     4  11  26  46  71 102 150 195 239 298 373 440
#     4  11  24  45  69 106 142 188 249 300 351 434
#
# _framework density 27.743127000000001
#
# number of rings (size 3 to 8) (size 9 to 14) (size 15 to 20)
#    0.000    0.444    6.667    0.667    4.667    0.000 
#    0.000    4.444    0.000    0.000    0.000    0.000 
#    0.000    0.000    0.000    0.000    0.000    0.000 
#
# Total GULP energy -100777.053766 kJ/mol
# GULP energy per Si atom -5598.725209 kJ/mol
# Density = 2.767998 g / cm^3
# Si number density = 27.743127 Si / 1000 Ang^3
#
#
#
# Elastic Constant Matrix: (Units=GPa)
#
#
# Indices 1 2 3 4 5 6 
#
# 1 181.3176 65.1341 30.3394 0.0000 -6.2588 0.0000
# 2 65.1341 169.8136 20.6039 0.0000 -4.9965 0.0000
# 3 30.3394 20.6039 80.8455 0.0000 -27.6486 0.0000
# 4 0.0000 0.0000 0.0000 40.3900 0.0000 9.5200
# 5 -6.2588 -4.9965 -27.6486 0.0000 52.9563 0.0000
# 6 0.0000 0.0000 0.0000 9.5200 0.0000 64.1542
#
#
#
# Elastic Compliance Matrix: (Units=1/GPa)
#
#
# Indices 1 2 3 4 5 6 
#
# 1 0.006683 -0.002324 -0.002094 0.000000 -0.000523 0.000000
# 2 -0.002324 0.006889 -0.000919 0.000000 -0.000105 0.000000
# 3 -0.002094 -0.000919 0.016161 0.000000 0.008103 0.000000
# 4 0.000000 0.000000 0.000000 0.025656 0.000000 -0.003807
# 5 -0.000523 -0.000105 0.008103 0.000000 0.023043 0.000000
# 6 0.000000 0.000000 0.000000 -0.003807 0.000000 0.016152
#
#
# Mechanical properties :
#
#
# Convention : Reuss Voigt Hill
#
# Bulk Modulus (GPa) = 52.47570 73.79240 63.13405
# Shear Modulus (GPa) = 44.79852 52.56004 48.67928
#
# Velocity S-wave (km/s) = 4.02277 4.35734 4.19339
# Velocity P-wave (km/s) = 6.36654 7.20912 6.80089
#
# Compressibility (1/GPa) = 0.01905644
#
# Stress axis : x y z
#
# Youngs Moduli (GPa) = 149.64304 145.16250 61.87846
#
# Poissons Ratio (x) = 0.33743 0.12959
# Poissons Ratio (y) = 0.34784 0.05687
# Poissons Ratio (z) = 0.31339 0.13342
#
# Static dielectric constant tensor:
#      x y z
#    x 2.112630 0.000000 0.064810 
#    y 0.000000 2.072100 0.000000 
#    z 0.064810 0.000000 2.425620 
# 
# From -- ./inp_files/56911.got.cif
#   From: 2010.05.17/outbox.cif.g08.bks.cpg/sg15_29_cif.got.tgz:56911.got - 2010.06.03 18:47:42.
