data_PCOD9305639
_publ_section_title
;
Structure prediction by ZEFSAII (Michael W. Deem and Ramdas Pophale) SiO2 
 PCOD9305639
Probable space group: C 2/C
;
_chemical_formula_sum "Si O2"
_cell_formula_units_Z 52
_cell_length_a 7.863948
_cell_length_b 30.564108
_cell_length_c 14.101745
_cell_angle_alpha 90.000000
_cell_angle_beta 46.027028
_cell_angle_gamma 90.000000
_cell_volume 2439.254146
_symmetry_space_group_name_H-M "C 2/C"
_symmetry_group_IT_number 15
_symmetry_cell_setting 'monoclinic'
loop_
_space_group_symop_operation_xyz
x,y,z
-x,y,1/2-z
-x,-y,-z
x,-y,1/2+z
1/2+x,1/2+y,z
1/2-x,1/2+y,1/2-z
1/2-x,1/2-y,-z
1/2+x,1/2-y,1/2+z
loop_
_atom_site_type_symbol
_atom_site_label
_atom_site_fract_x
_atom_site_fract_y
_atom_site_fract_z
Si Si1 0.770931 0.536764 0.680849
Si Si2 0.166912 0.197911 0.426677
Si Si3 0.249236 0.798944 0.116182
Si Si4 0.000000 0.408794 0.250000
Si Si5 0.048937 0.438802 0.889179
Si Si6 0.785916 0.661509 0.971351
Si Si7 0.500000 0.382079 0.750000
Si Si8 0.000000 0.624158 0.250000
O O1 0.500000 0.532103 0.750000
O O2 0.893924 0.489615 0.650227
O O3 0.815485 0.563075 0.759815
O O4 0.914539 0.561298 0.541324
O O5 0.251582 0.192302 0.502554
O O6 0.240197 0.246729 0.370753
O O7 0.289776 0.159470 0.318391
O O8 0.885788 0.193134 0.522213
O O9 0.000000 0.816577 0.250000
O O10 0.471211 0.818558 0.084630
O O11 0.852629 0.378825 0.378786
O O12 0.299131 0.414363 0.789174
O O13 0.913357 0.409481 0.864681
O O14 0.638622 0.646443 0.119751
#
# Coordination Sequence:
#
# PCOD9305639 Si02
#       8
#     8   8   8   4   8   8   4   4
#     4  11  26  46  72 103 145 189 230 301 365 429
#     4  11  25  43  71 102 135 187 240 290 358 427
#     4  11  25  47  69 101 145 183 236 301 361 420
#     4  12  27  44  65 112 138 188 244 283 363 438
#     4  11  24  46  71 103 142 183 239 296 361 424
#     4  12  26  44  72 102 144 186 240 296 358 428
#     4  12  22  46  67 102 137 179 240 293 340 438
#     4  12  23  44  72 104 137 191 240 298 353 434
#
# _framework density 21.317993000000001
#
# number of rings (size 3 to 8) (size 9 to 14) (size 15 to 20)
#    0.000    0.615    4.615    2.769    2.154    0.615 
#    0.000    4.615    0.000    0.000    0.000    0.000 
#    0.000    0.000    0.000    0.000    0.000    0.000 
#
# Total GULP energy -145235.513393 kJ/mol
# GULP energy per Si atom -5585.981284 kJ/mol
# Density = 2.126947 g / cm^3
# Si number density = 21.317993 Si / 1000 Ang^3
#
#
#
# Elastic Constant Matrix: (Units=GPa)
#
#
# Indices 1 2 3 4 5 6 
#
# 1 122.6362 53.0431 44.0631 0.0000 -11.2571 0.0000
# 2 53.0431 94.8564 53.5696 0.0000 16.6064 0.0000
# 3 44.0631 53.5696 89.5572 0.0000 -1.2715 0.0000
# 4 0.0000 0.0000 0.0000 4.6628 0.0000 -25.8042
# 5 -11.2571 16.6064 -1.2715 0.0000 35.9645 0.0000
# 6 0.0000 0.0000 0.0000 -25.8042 0.0000 24.3339
#
#
#
# Elastic Compliance Matrix: (Units=1/GPa)
#
#
# Indices 1 2 3 4 5 6 
#
# 1 0.012626 -0.007383 -0.001692 0.000000 0.007301 0.000000
# 2 -0.007383 0.022692 -0.010128 0.000000 -0.013147 0.000000
# 3 -0.001692 -0.010128 0.018125 0.000000 0.004787 0.000000
# 4 0.000000 0.000000 0.000000 -0.044052 0.000000 -0.046714
# 5 0.007301 -0.013147 0.004787 0.000000 0.036330 0.000000
# 6 0.000000 0.000000 0.000000 -0.046714 0.000000 -0.008441
#
#
# Mechanical properties :
#
#
# Convention : Reuss Voigt Hill
#
# Bulk Modulus (GPa) = 66.50332 67.60014 67.05173
# Shear Modulus (GPa) = 61.96125 23.41719 42.68922
#
# Velocity S-wave (km/s) = 5.39707 3.31791 4.47978
# Velocity P-wave (km/s) = 8.37266 6.81596 7.63409
#
# Compressibility (1/GPa) = 0.01503684
#
# Stress axis : x y z
#
# Youngs Moduli (GPa) = 79.20448 44.06921 55.17382
#
# Poissons Ratio (x) = 0.32534 0.09337
# Poissons Ratio (y) = 0.58473 0.55878
# Poissons Ratio (z) = 0.13404 0.44631
#
# Static dielectric constant tensor:
#      x y z
#    x 1.889610 0.000000 0.024930 
#    y 0.000000 1.754470 0.000000 
#    z 0.024930 0.000000 1.768380 
# 
# From -- ./inp_files/139754.got.cif
#   From: 2010.05.17/outbox.cif.g08.bks.cpg/sg15_70_cif.got.tgz:139754.got - 2010.06.03 18:47:42.
