data_PCOD9305333
_publ_section_title
;
Structure prediction by ZEFSAII (Michael W. Deem and Ramdas Pophale) SiO2 
 PCOD9305333
Probable space group: C 2/C
;
_chemical_formula_sum "Si O2"
_cell_formula_units_Z 36
_cell_length_a 12.418518
_cell_length_b 14.949020
_cell_length_c 12.197107
_cell_angle_alpha 90.000000
_cell_angle_beta 47.421914
_cell_angle_gamma 90.000000
_cell_volume 1667.351290
_symmetry_space_group_name_H-M "C 2/C"
_symmetry_group_IT_number 15
_symmetry_cell_setting 'monoclinic'
loop_
_space_group_symop_operation_xyz
x,y,z
-x,y,1/2-z
-x,-y,-z
x,-y,1/2+z
1/2+x,1/2+y,z
1/2-x,1/2+y,1/2-z
1/2-x,1/2-y,-z
1/2+x,1/2-y,1/2+z
loop_
_atom_site_type_symbol
_atom_site_label
_atom_site_fract_x
_atom_site_fract_y
_atom_site_fract_z
Si Si1 0.957197 0.856463 0.570502
Si Si2 0.108355 0.982199 0.085209
Si Si3 0.500000 0.810193 0.750000
Si Si4 0.784191 0.783487 0.249798
Si Si5 0.115407 0.562564 0.979835
O O1 0.086927 0.799921 0.425116
O O2 0.885238 0.917106 0.523777
O O3 0.834179 0.791002 0.701944
O O4 0.032149 0.926299 0.600392
O O5 0.000000 0.940490 0.250000
O O6 0.264266 0.992576 0.034519
O O7 0.637256 0.751010 0.693280
O O8 0.460229 0.871406 0.881004
O O9 0.701611 0.875736 0.333412
O O10 0.000000 0.500000 0.000000
#
# Coordination Sequence:
#
# PCOD9305333 Si02
#       5
#     8   8   4   8   8
#     4  11  25  43  73 101 138 174 236 281 340 401
#     4  11  24  44  70 100 138 183 221 283 348 405
#     4  12  24  42  72  96 136 180 230 286 334 396
#     4  12  23  44  68 106 128 179 229 286 330 400
#     4  12  27  41  68 103 139 176 230 280 340 408
#
# _framework density 21.591131000000001
#
# number of rings (size 3 to 8) (size 9 to 14) (size 15 to 20)
#    0.000    0.444    6.667    2.000    6.222    0.000 
#    0.000    4.444    0.000    0.000    0.000    0.000 
#    0.000    0.000    0.000    0.000    0.000    0.000 
#
# Total GULP energy -100804.180279 kJ/mol
# GULP energy per Si atom -5600.232238 kJ/mol
# Density = 2.154199 g / cm^3
# Si number density = 21.591131 Si / 1000 Ang^3
#
#
#
# Elastic Constant Matrix: (Units=GPa)
#
#
# Indices 1 2 3 4 5 6 
#
# 1 129.8019 66.5179 28.4522 0.0000 -40.4773 0.0000
# 2 66.5179 105.5081 22.8975 0.0000 -30.4829 0.0000
# 3 28.4522 22.8975 59.6908 0.0000 -21.6935 0.0000
# 4 0.0000 0.0000 0.0000 25.0868 0.0000 -29.8106
# 5 -40.4773 -30.4829 -21.6935 0.0000 37.9592 0.0000
# 6 0.0000 0.0000 0.0000 -29.8106 0.0000 23.8148
#
#
#
# Elastic Compliance Matrix: (Units=1/GPa)
#
#
# Indices 1 2 3 4 5 6 
#
# 1 0.013857 -0.005756 -0.000892 0.000000 0.009644 0.000000
# 2 -0.005756 0.014830 -0.001070 0.000000 0.005160 0.000000
# 3 -0.000892 -0.001070 0.021369 0.000000 0.010402 0.000000
# 4 0.000000 0.000000 0.000000 -0.081772 0.000000 -0.102360
# 5 0.009644 0.005160 0.010402 0.000000 0.046715 0.000000
# 6 0.000000 0.000000 0.000000 -0.102360 0.000000 -0.086140
#
#
# Mechanical properties :
#
#
# Convention : Reuss Voigt Hill
#
# Bulk Modulus (GPa) = 28.88568 58.97068 43.92818
# Shear Modulus (GPa) = -113.20956 29.18103 -42.01426
#
# Velocity S-wave (km/s) = -7.24894 3.68030 -4.41603
# Velocity P-wave (km/s) = 7.52698 6.74027 2.36898
#
# Compressibility (1/GPa) = 0.03461923
#
# Stress axis : x y z
#
# Youngs Moduli (GPa) = 72.16776 67.43176 46.79677
#
# Poissons Ratio (x) = 0.38815 0.04174
# Poissons Ratio (y) = 0.41541 0.05007
# Poissons Ratio (z) = 0.06438 0.07214
#
# Static dielectric constant tensor:
#      x y z
#    x 1.768660 0.000000 0.007240 
#    y 0.000000 1.787290 0.000000 
#    z 0.007240 0.000000 1.813890 
# 
# From -- ./inp_files/85384.got.cif
#   From: 2010.05.17/outbox.cif.g08.bks.cpg/sg15_43_cif.got.tgz:85384.got - 2010.06.03 18:47:42.
