data_PCOD9305814
_publ_section_title
;
Structure prediction by ZEFSAII (Michael W. Deem and Ramdas Pophale) SiO2 
 PCOD9305814
Probable space group: C 2/C
;
_chemical_formula_sum "Si O2"
_cell_formula_units_Z 40
_cell_length_a 15.476067
_cell_length_b 11.418851
_cell_length_c 17.599095
_cell_angle_alpha 90.000000
_cell_angle_beta 141.409495
_cell_angle_gamma 90.000000
_cell_volume 1939.920596
_symmetry_space_group_name_H-M "C 2/C"
_symmetry_group_IT_number 15
_symmetry_cell_setting 'monoclinic'
loop_
_space_group_symop_operation_xyz
x,y,z
-x,y,1/2-z
-x,-y,-z
x,-y,1/2+z
1/2+x,1/2+y,z
1/2-x,1/2+y,1/2-z
1/2-x,1/2-y,-z
1/2+x,1/2-y,1/2+z
loop_
_atom_site_type_symbol
_atom_site_label
_atom_site_fract_x
_atom_site_fract_y
_atom_site_fract_z
Si Si1 0.142211 0.576563 0.306274
Si Si2 0.418925 0.746900 0.115997
Si Si3 0.105748 0.977823 0.413918
Si Si4 0.577029 0.072835 0.617703
Si Si5 0.839078 0.148995 0.705715
O O1 0.271384 0.529558 0.442122
O O2 0.134269 0.518699 0.218728
O O3 0.151159 0.716639 0.311137
O O4 0.000000 0.545347 0.250000
O O5 0.500000 0.778186 0.250000
O O6 0.450992 0.609541 0.125939
O O7 0.478947 0.833188 0.092875
O O8 0.250000 0.750000 0.000000
O O9 0.163015 0.933898 0.370993
O O10 0.979505 0.890260 0.344409
O O11 0.706396 0.134053 0.666487
O O12 0.500000 0.000000 0.500000
#
# Coordination Sequence:
#
# PCOD9305814 Si02
#       5
#     8   8   8   8   8
#     4  12  25  46  73 102 142 191 233 285 365 428
#     4  12  25  48  77 104 145 192 241 295 364 433
#     4  11  24  47  75 101 142 189 238 286 362 433
#     4  12  29  44  70 106 145 183 239 298 350 419
#     4  11  25  45  71 105 141 182 235 297 351 420
#
# _framework density 20.619399999999999
#
# number of rings (size 3 to 8) (size 9 to 14) (size 15 to 20)
#    0.000    0.400    4.000    6.000    5.600    2.400 
#    0.000    0.000    0.000    0.000    0.000    0.000 
#    0.000    0.000    0.000    0.000    0.000    0.000 
#
# Total GULP energy -111895.387147 kJ/mol
# GULP energy per Si atom -5594.769357 kJ/mol
# Density = 2.057247 g / cm^3
# Si number density = 20.619400 Si / 1000 Ang^3
#
#
#
# Elastic Constant Matrix: (Units=GPa)
#
#
# Indices 1 2 3 4 5 6 
#
# 1 129.8383 50.2034 69.5258 0.0000 14.5685 0.0000
# 2 50.2034 132.3260 35.2338 0.0000 -24.4869 0.0000
# 3 69.5258 35.2338 175.6399 0.0000 -10.1290 0.0000
# 4 0.0000 0.0000 0.0000 38.3122 0.0000 -3.3167
# 5 14.5685 -24.4869 -10.1290 0.0000 27.9984 0.0000
# 6 0.0000 0.0000 0.0000 -3.3167 0.0000 20.2490
#
#
#
# Elastic Compliance Matrix: (Units=1/GPa)
#
#
# Indices 1 2 3 4 5 6 
#
# 1 0.015400 -0.007418 -0.005560 0.000000 -0.016512 0.000000
# 2 -0.007418 0.012931 0.001243 0.000000 0.015618 0.000000
# 3 -0.005560 0.001243 0.008042 0.000000 0.006890 0.000000
# 4 0.000000 0.000000 0.000000 0.026477 0.000000 0.004337
# 5 -0.016512 0.015618 0.006890 0.000000 0.060460 0.000000
# 6 0.000000 0.000000 0.000000 0.004337 0.000000 0.050096
#
#
# Mechanical properties :
#
#
# Convention : Reuss Voigt Hill
#
# Bulk Modulus (GPa) = 77.50044 83.08113 80.29078
# Shear Modulus (GPa) = 24.85375 36.16798 30.51087
#
# Velocity S-wave (km/s) = 3.47559 4.19271 3.85088
# Velocity P-wave (km/s) = 7.33308 7.98866 7.66788
#
# Compressibility (1/GPa) = 0.01290315
#
# Stress axis : x y z
#
# Youngs Moduli (GPa) = 64.93398 77.33641 124.34045
#
# Poissons Ratio (x) = 0.57367 0.69137
# Poissons Ratio (y) = 0.48167 -0.15457
# Poissons Ratio (z) = 0.36105 -0.09614
#
# Static dielectric constant tensor:
#      x y z
#    x 1.617260 0.000000 0.054110 
#    y 0.000000 1.732110 0.000000 
#    z 0.054110 0.000000 1.713680 
# 
# From -- ./inp_files/204254.got.cif
#   From: 2010.05.17/outbox.cif.g08.bks.cpg/sg15_103_cif.got.tgz:204254.got - 2010.06.03 18:47:42.
