data_PCOD9305172
_publ_section_title
;
Structure prediction by ZEFSAII (Michael W. Deem and Ramdas Pophale) SiO2 
 PCOD9305172
Probable space group: C 2/C
;
_chemical_formula_sum "Si O2"
_cell_formula_units_Z 48
_cell_length_a 14.749960
_cell_length_b 28.240998
_cell_length_c 15.247460
_cell_angle_alpha 90.000000
_cell_angle_beta 160.305418
_cell_angle_gamma 90.000000
_cell_volume 2140.456047
_symmetry_space_group_name_H-M "C 2/C"
_symmetry_group_IT_number 15
_symmetry_cell_setting 'monoclinic'
loop_
_space_group_symop_operation_xyz
x,y,z
-x,y,1/2-z
-x,-y,-z
x,-y,1/2+z
1/2+x,1/2+y,z
1/2-x,1/2+y,1/2-z
1/2-x,1/2-y,-z
1/2+x,1/2-y,1/2+z
loop_
_atom_site_type_symbol
_atom_site_label
_atom_site_fract_x
_atom_site_fract_y
_atom_site_fract_z
Si Si1 0.783714 0.328141 0.848606
Si Si2 0.000000 0.456507 0.750000
Si Si3 0.203764 0.512864 0.764782
Si Si4 0.000000 0.217336 0.250000
Si Si5 0.184838 0.118989 0.659813
Si Si6 0.105411 0.720697 0.223704
Si Si7 0.249154 0.130793 0.924922
O O1 0.596744 0.313748 0.757557
O O2 0.613695 0.369532 0.645729
O O3 0.812842 0.286949 0.803383
O O4 0.082138 0.342978 0.149842
O O5 0.132248 0.487334 0.791938
O O6 0.811411 0.419081 0.527446
O O7 0.210175 0.569356 0.780497
O O8 0.000000 0.500000 0.500000
O O9 0.500000 0.500000 0.000000
O O10 0.250000 0.250000 0.500000
O O11 0.178818 0.120469 0.759977
O O12 0.363034 0.741777 0.506318
O O13 0.990250 0.669177 0.145163
O O14 0.000000 0.152144 0.750000
#
# Coordination Sequence:
#
# PCOD9305172 Si02
#       7
#     8   4   8   4   8   8   8
#     4  11  24  43  72 100 141 183 232 287 362 423
#     4  12  28  46  77 106 142 198 245 298 364 444
#     4  12  26  47  74 107 146 184 244 297 363 436
#     4  12  24  42  71 104 140 182 241 296 348 430
#     4  11  24  46  71 100 143 185 226 297 357 425
#     4  11  24  43  66  97 138 183 230 285 347 411
#     4  11  26  43  72 100 141 188 244 286 359 426
#
# _framework density 22.425128999999998
#
# number of rings (size 3 to 8) (size 9 to 14) (size 15 to 20)
#    0.000    0.667    1.667    6.000    9.333    2.000 
#    0.000    0.000    0.000    0.000    0.000    0.000 
#    0.000    0.000    0.000    0.000    0.000    0.000 
#
# Total GULP energy -134354.408739 kJ/mol
# GULP energy per Si atom -5598.100364 kJ/mol
# Density = 2.237409 g / cm^3
# Si number density = 22.425129 Si / 1000 Ang^3
#
#
#
# Elastic Constant Matrix: (Units=GPa)
#
#
# Indices 1 2 3 4 5 6 
#
# 1 191.0605 50.3186 30.9758 0.0072 11.9385 0.0075
# 2 50.3186 95.1515 17.5564 0.0015 -0.7554 0.0022
# 3 30.9758 17.5564 96.7881 0.0126 16.5334 0.0146
# 4 0.0072 0.0015 0.0126 20.2552 0.0047 -24.0434
# 5 11.9385 -0.7554 16.5334 0.0047 30.7563 0.0063
# 6 0.0075 0.0022 0.0146 -24.0434 0.0063 13.8284
#
#
#
# Elastic Compliance Matrix: (Units=1/GPa)
#
#
# Indices 1 2 3 4 5 6 
#
# 1 0.006376 -0.003178 -0.001132 0.000002 -0.001945 0.000002
# 2 -0.003178 0.012518 -0.001670 -0.000001 0.002439 -0.000001
# 3 -0.001132 -0.001670 0.012034 0.000015 -0.006071 0.000018
# 4 0.000002 -0.000001 0.000015 -0.046405 0.000015 -0.080685
# 5 -0.001945 0.002439 -0.006071 0.000015 0.036592 0.000016
# 6 0.000002 -0.000001 0.000018 -0.080685 0.000016 -0.067972
#
#
# Mechanical properties :
#
#
# Convention : Reuss Voigt Hill
#
# Bulk Modulus (GPa) = 52.72233 64.52243 58.62238
# Shear Modulus (GPa) = -174.97772 31.91126 -71.53323
#
# Velocity S-wave (km/s) = -8.84290 3.77638 -5.65402
# Velocity P-wave (km/s) = 8.98338 6.91734 4.05287
#
# Compressibility (1/GPa) = 0.01896730
#
# Stress axis : x y z
#
# Youngs Moduli (GPa) = 156.83723 79.88574 83.09791
#
# Poissons Ratio (x) = 0.25391 0.09406
# Poissons Ratio (y) = 0.49849 0.13878
# Poissons Ratio (z) = 0.17752 0.13341
#
# Static dielectric constant tensor:
#      x y z
#    x 1.822650 0.000000 -0.014960 
#    y 0.000000 1.874020 0.000000 
#    z -0.014960 0.000000 1.832060 
# 
# From -- ./inp_files/157763.got.cif
#   From: 2010.05.17/outbox.cif.g08.bks.cpg/sg15_79_cif.got.tgz:157763.got - 2010.06.03 18:47:42.
