data_PCOD9305008
_publ_section_title
;
Structure prediction by ZEFSAII (Michael W. Deem and Ramdas Pophale) SiO2 
 PCOD9305008
Probable space group: C 2/C
;
_chemical_formula_sum "Si O2"
_cell_formula_units_Z 36
_cell_length_a 23.615438
_cell_length_b 5.269843
_cell_length_c 12.745000
_cell_angle_alpha 90.000000
_cell_angle_beta 104.493335
_cell_angle_gamma 90.000000
_cell_volume 1535.635612
_symmetry_space_group_name_H-M "C 2/C"
_symmetry_group_IT_number 15
_symmetry_cell_setting 'monoclinic'
loop_
_space_group_symop_operation_xyz
x,y,z
-x,y,1/2-z
-x,-y,-z
x,-y,1/2+z
1/2+x,1/2+y,z
1/2-x,1/2+y,1/2-z
1/2-x,1/2-y,-z
1/2+x,1/2-y,1/2+z
loop_
_atom_site_type_symbol
_atom_site_label
_atom_site_fract_x
_atom_site_fract_y
_atom_site_fract_z
Si Si1 0.385322 0.259822 0.665922
Si Si2 0.802126 0.367623 0.955753
Si Si3 0.549624 0.645192 0.957283
Si Si4 0.500000 0.024093 0.250000
Si Si5 0.663459 0.348605 0.639376
O O1 0.351753 0.084601 0.567264
O O2 0.413078 0.480759 0.608841
O O3 0.341884 0.340210 0.737941
O O4 0.441472 0.131107 0.742373
O O5 0.750000 0.250000 0.000000
O O6 0.794386 0.628807 0.888089
O O7 0.821585 0.133407 0.890532
O O8 0.514707 0.832818 0.864837
O O9 0.500000 0.500000 0.000000
O O10 0.599667 0.724528 0.062472
#
# Coordination Sequence:
#
# PCOD9305008 Si02
#       5
#     8   8   8   4   8
#     4  11  26  41  66 104 134 183 233 278 351 417
#     4  11  26  48  71 100 136 179 235 295 349 411
#     4  11  24  41  64 102 145 185 228 281 343 419
#     4  12  22  40  68  94 146 178 236 272 350 414
#     4  11  25  44  71 100 138 179 231 287 346 411
#
# _framework density 23.443059000000002
#
# number of rings (size 3 to 8) (size 9 to 14) (size 15 to 20)
#    0.000    0.889    2.222    4.000    9.333    3.556 
#    0.000    0.000    0.000    0.000    0.000    0.000 
#    0.000    0.000    0.000    0.000    0.000    0.000 
#
# Total GULP energy -100609.916345 kJ/mol
# GULP energy per Si atom -5589.439797 kJ/mol
# Density = 2.338970 g / cm^3
# Si number density = 23.443059 Si / 1000 Ang^3
#
#
#
# Elastic Constant Matrix: (Units=GPa)
#
#
# Indices 1 2 3 4 5 6 
#
# 1 46.0602 -8.2332 1.4227 0.0000 -12.3777 0.0000
# 2 -8.2332 31.0356 23.3281 0.0000 -1.6155 0.0000
# 3 1.4227 23.3281 115.4800 0.0000 -34.2402 0.0000
# 4 0.0000 0.0000 0.0000 23.8061 0.0000 9.2272
# 5 -12.3777 -1.6155 -34.2402 0.0000 37.2800 0.0000
# 6 0.0000 0.0000 0.0000 9.2272 0.0000 20.9245
#
#
#
# Elastic Compliance Matrix: (Units=1/GPa)
#
#
# Indices 1 2 3 4 5 6 
#
# 1 0.025471 0.006229 0.001395 0.000000 0.010008 0.000000
# 2 0.006229 0.041069 -0.009939 0.000000 -0.005281 0.000000
# 3 0.001395 -0.009939 0.014649 0.000000 0.013487 0.000000
# 4 0.000000 0.000000 0.000000 0.050666 0.000000 -0.022342
# 5 0.010008 -0.005281 0.013487 0.000000 0.042305 0.000000
# 6 0.000000 0.000000 0.000000 -0.022342 0.000000 0.057643
#
#
# Mechanical properties :
#
#
# Convention : Reuss Voigt Hill
#
# Bulk Modulus (GPa) = 13.06170 25.06790 19.06480
# Shear Modulus (GPa) = 19.08743 28.13933 23.61338
#
# Velocity S-wave (km/s) = 2.85652 3.46833 3.17719
# Velocity P-wave (km/s) = 4.05751 5.17256 4.64859
#
# Compressibility (1/GPa) = 0.07655973
#
# Stress axis : x y z
#
# Youngs Moduli (GPa) = 39.26107 24.34912 68.26389
#
# Poissons Ratio (x) = -0.15167 -0.09525
# Poissons Ratio (y) = -0.24456 0.67846
# Poissons Ratio (z) = -0.05478 0.24200
#
# Static dielectric constant tensor:
#      x y z
#    x 1.912020 0.000000 0.281060 
#    y 0.000000 2.448390 0.000000 
#    z 0.281060 0.000000 0.437170 
# 
# From -- ./inp_files/115579.got.cif
#   From: 2010.05.17/outbox.cif.g08.bks.cpg/sg15_58_cif.got.tgz:115579.got - 2010.06.03 18:47:42.
