data_PCOD9305095
_publ_section_title
;
Structure prediction by ZEFSAII (Michael W. Deem and Ramdas Pophale) SiO2 
 PCOD9305095
Probable space group: C 2/C
;
_chemical_formula_sum "Si O2"
_cell_formula_units_Z 44
_cell_length_a 28.268203
_cell_length_b 5.095351
_cell_length_c 14.358001
_cell_angle_alpha 90.000000
_cell_angle_beta 60.921971
_cell_angle_gamma 90.000000
_cell_volume 1807.412049
_symmetry_space_group_name_H-M "C 2/C"
_symmetry_group_IT_number 15
_symmetry_cell_setting 'monoclinic'
loop_
_space_group_symop_operation_xyz
x,y,z
-x,y,1/2-z
-x,-y,-z
x,-y,1/2+z
1/2+x,1/2+y,z
1/2-x,1/2+y,1/2-z
1/2-x,1/2-y,-z
1/2+x,1/2-y,1/2+z
loop_
_atom_site_type_symbol
_atom_site_label
_atom_site_fract_x
_atom_site_fract_y
_atom_site_fract_z
Si Si1 0.778986 0.995376 0.931304
Si Si2 0.274256 0.334786 0.229882
Si Si3 0.500000 0.840224 0.250000
Si Si4 0.601591 0.639640 0.909794
Si Si5 0.402791 0.565364 0.807374
Si Si6 0.060309 0.641226 0.056668
O O1 0.770717 0.994499 0.828940
O O2 0.842571 0.971966 0.886661
O O3 0.750000 0.250000 0.000000
O O4 0.750000 0.750000 0.000000
O O5 0.231388 0.538198 0.224842
O O6 0.333914 0.384616 0.131643
O O7 0.551136 0.646151 0.211591
O O8 0.505114 0.021942 0.152714
O O9 0.595025 0.627148 0.804570
O O10 0.566559 0.409911 0.992836
O O11 0.584202 0.915303 0.969568
O O12 0.410218 0.803612 0.872918
#
# Coordination Sequence:
#
# PCOD9305095 Si02
#       6
#     8   8   4   8   8   8
#     4  11  27  44  75 109 146 200 240 312 382 440
#     4  11  24  42  68 106 147 188 253 301 363 457
#     4  12  28  52  78 114 154 204 260 326 384 464
#     4  11  28  47  77 109 153 204 250 319 390 452
#     4  11  29  53  76 116 160 195 271 316 380 475
#     4  12  27  49  79 110 148 204 251 318 387 454
#
# _framework density 24.344197999999999
#
# number of rings (size 3 to 8) (size 9 to 14) (size 15 to 20)
#    0.000    0.727    1.818    2.727   12.727    4.364 
#    0.000    0.000    0.000    0.000    0.000    0.000 
#    0.000    0.000    0.000    0.000    0.000    0.000 
#
# Total GULP energy -122950.181799 kJ/mol
# GULP energy per Si atom -5588.644627 kJ/mol
# Density = 2.428879 g / cm^3
# Si number density = 24.344198 Si / 1000 Ang^3
#
#
#
# Elastic Constant Matrix: (Units=GPa)
#
#
# Indices 1 2 3 4 5 6 
#
# 1 151.1391 72.5558 54.1227 0.0000 -33.8005 0.0000
# 2 72.5558 217.5031 68.3240 0.0000 -13.3971 -0.0001
# 3 54.1227 68.3240 155.3893 -0.0001 3.4159 0.0000
# 4 0.0000 0.0000 -0.0001 25.1055 0.0000 4.5882
# 5 -33.8005 -13.3971 3.4159 0.0000 41.3210 0.0000
# 6 0.0000 -0.0001 0.0000 4.5882 0.0000 12.9070
#
#
#
# Elastic Compliance Matrix: (Units=1/GPa)
#
#
# Indices 1 2 3 4 5 6 
#
# 1 0.010478 -0.002078 -0.002914 0.000000 0.008138 0.000000
# 2 -0.002078 0.005904 -0.001880 0.000000 0.000370 0.000000
# 3 -0.002914 -0.001880 0.008358 0.000000 -0.003685 0.000000
# 4 0.000000 0.000000 0.000000 0.042599 0.000000 -0.015143
# 5 0.008138 0.000370 -0.003685 0.000000 0.031282 0.000000
# 6 0.000000 0.000000 0.000000 -0.015143 0.000000 0.082861
#
#
# Mechanical properties :
#
#
# Convention : Reuss Voigt Hill
#
# Bulk Modulus (GPa) = 90.95839 101.55962 96.25900
# Shear Modulus (GPa) = 25.13904 37.80195 31.47049
#
# Velocity S-wave (km/s) = 3.21697 3.94485 3.59936
# Velocity P-wave (km/s) = 7.15843 7.90935 7.54324
#
# Compressibility (1/GPa) = 0.01099404
#
# Stress axis : x y z
#
# Youngs Moduli (GPa) = 95.43967 169.36475 119.64095
#
# Poissons Ratio (x) = 0.35202 0.34869
# Poissons Ratio (y) = 0.19837 0.22496
# Poissons Ratio (z) = 0.27816 0.31846
#
# Static dielectric constant tensor:
#      x y z
#    x 2.547270 0.000000 0.005050 
#    y 0.000000 1.687350 0.000000 
#    z 0.005050 0.000000 1.838380 
# 
# From -- ./inp_files/175630.got.cif
#   From: 2010.05.17/outbox.cif.g08.bks.cpg/sg15_88_cif.got.tgz:175630.got - 2010.06.03 18:47:42.
