data_PCOD9305296
_publ_section_title
;
Structure prediction by ZEFSAII (Michael W. Deem and Ramdas Pophale) SiO2 
 PCOD9305296
Probable space group: C 2/C
;
_chemical_formula_sum "Si O2"
_cell_formula_units_Z 40
_cell_length_a 22.757233
_cell_length_b 9.561547
_cell_length_c 9.322765
_cell_angle_alpha 90.000000
_cell_angle_beta 67.491036
_cell_angle_gamma 90.000000
_cell_volume 1874.043005
_symmetry_space_group_name_H-M "C 2/C"
_symmetry_group_IT_number 15
_symmetry_cell_setting 'monoclinic'
loop_
_space_group_symop_operation_xyz
x,y,z
-x,y,1/2-z
-x,-y,-z
x,-y,1/2+z
1/2+x,1/2+y,z
1/2-x,1/2+y,1/2-z
1/2-x,1/2-y,-z
1/2+x,1/2-y,1/2+z
loop_
_atom_site_type_symbol
_atom_site_label
_atom_site_fract_x
_atom_site_fract_y
_atom_site_fract_z
Si Si1 0.715395 0.477041 0.831544
Si Si2 0.063241 0.648321 0.613764
Si Si3 0.316636 0.329785 0.905527
Si Si4 0.062039 0.349466 0.770949
Si Si5 0.302028 0.243608 0.328266
O O1 0.712937 0.372376 0.259848
O O2 0.688435 0.519837 0.010808
O O3 0.750000 0.250000 0.000000
O O4 0.785302 0.408144 0.773452
O O5 0.124665 0.742305 0.589325
O O6 0.072637 0.498078 0.681484
O O7 0.053241 0.634249 0.451468
O O8 0.000000 0.707932 0.750000
O O9 0.322057 0.366554 0.732139
O O10 0.250000 0.250000 0.000000
O O11 0.125521 0.259916 0.692799
O O12 0.000000 0.288691 0.750000
#
# Coordination Sequence:
#
# PCOD9305296 Si02
#       5
#     8   8   8   8   8
#     4  12  24  42  66 101 137 177 224 279 344 400
#     4  11  24  44  68 100 136 184 229 284 341 410
#     4  12  24  43  67 100 137 174 227 286 341 407
#     4  11  24  44  69 101 140 179 234 280 342 409
#     4  12  26  41  72 105 137 180 227 283 346 403
#
# _framework density 21.344225999999999
#
# number of rings (size 3 to 8) (size 9 to 14) (size 15 to 20)
#    0.000    0.400    6.000    3.600    2.800    1.600 
#    0.000    2.000    0.000    0.000    0.000    0.000 
#    0.000    0.000    0.000    0.000    0.000    0.000 
#
# Total GULP energy -111678.735849 kJ/mol
# GULP energy per Si atom -5583.936792 kJ/mol
# Density = 2.129565 g / cm^3
# Si number density = 21.344226 Si / 1000 Ang^3
#
#
#
# Elastic Constant Matrix: (Units=GPa)
#
#
# Indices 1 2 3 4 5 6 
#
# 1 174.6144 67.0411 56.6658 0.0000 9.2568 0.0000
# 2 67.0411 79.0806 16.9825 0.0000 1.7958 0.0000
# 3 56.6658 16.9825 134.1527 0.0000 12.7748 0.0000
# 4 0.0000 0.0000 0.0000 45.2726 0.0000 6.5869
# 5 9.2568 1.7958 12.7748 0.0000 35.9422 0.0000
# 6 0.0000 0.0000 0.0000 6.5869 0.0000 33.8434
#
#
#
# Elastic Compliance Matrix: (Units=1/GPa)
#
#
# Indices 1 2 3 4 5 6 
#
# 1 0.009644 -0.007503 -0.003025 0.000000 -0.001034 0.000000
# 2 -0.007503 0.018836 0.000714 0.000000 0.000737 0.000000
# 3 -0.003025 0.000714 0.008871 0.000000 -0.002410 0.000000
# 4 0.000000 0.000000 0.000000 0.022732 0.000000 -0.004424
# 5 -0.001034 0.000737 -0.002410 0.000000 0.028908 0.000000
# 6 0.000000 0.000000 0.000000 -0.004424 0.000000 0.030409
#
#
# Mechanical properties :
#
#
# Convention : Reuss Voigt Hill
#
# Bulk Modulus (GPa) = 56.42204 74.35849 65.39026
# Shear Modulus (GPa) = 34.49820 39.48886 36.99353
#
# Velocity S-wave (km/s) = 4.02466 4.30594 4.16767
# Velocity P-wave (km/s) = 6.93461 7.72236 7.33907
#
# Compressibility (1/GPa) = 0.01772357
#
# Stress axis : x y z
#
# Youngs Moduli (GPa) = 103.69084 53.09114 112.72523
#
# Poissons Ratio (x) = 0.39832 0.34104
# Poissons Ratio (y) = 0.77795 -0.08054
# Poissons Ratio (z) = 0.31371 -0.03793
#
# Static dielectric constant tensor:
#      x y z
#    x 1.781150 0.000000 -0.055180 
#    y 0.000000 1.804160 0.000000 
#    z -0.055180 0.000000 2.359230 
# 
# From -- ./inp_files/54157.got.cif
#   From: 2010.05.17/outbox.cif.g08.bks.cpg/sg15_28_cif.got.tgz:54157.got - 2010.06.03 18:47:42.
