data_PCOD9305072
_publ_section_title
;
Structure prediction by ZEFSAII (Michael W. Deem and Ramdas Pophale) SiO2 
 PCOD9305072
Probable space group: C 2/C
;
_chemical_formula_sum "Si O2"
_cell_formula_units_Z 56
_cell_length_a 5.275123
_cell_length_b 26.553445
_cell_length_c 17.767530
_cell_angle_alpha 90.000000
_cell_angle_beta 69.835002
_cell_angle_gamma 90.000000
_cell_volume 2336.195016
_symmetry_space_group_name_H-M "C 2/C"
_symmetry_group_IT_number 15
_symmetry_cell_setting 'monoclinic'
loop_
_space_group_symop_operation_xyz
x,y,z
-x,y,1/2-z
-x,-y,-z
x,-y,1/2+z
1/2+x,1/2+y,z
1/2-x,1/2+y,1/2-z
1/2-x,1/2-y,-z
1/2+x,1/2-y,1/2+z
loop_
_atom_site_type_symbol
_atom_site_label
_atom_site_fract_x
_atom_site_fract_y
_atom_site_fract_z
Si Si1 0.030322 0.610160 0.335988
Si Si2 0.491539 0.280276 0.056269
Si Si3 0.484683 0.635565 0.840767
Si Si4 0.580239 0.916269 0.091352
Si Si5 0.996448 0.875830 0.946229
Si Si6 0.800215 0.506571 0.198186
Si Si7 0.850910 0.200881 0.341403
O O1 0.775404 0.595426 0.412805
O O2 0.000000 0.609542 0.250000
O O3 0.235041 0.563747 0.327826
O O4 0.085057 0.668675 0.348836
O O5 0.509617 0.305564 0.136897
O O6 0.232565 0.244202 0.092048
O O7 0.750000 0.250000 0.000000
O O8 0.470360 0.329611 0.007264
O O9 0.500000 0.629398 0.750000
O O10 0.725494 0.605237 0.860121
O O11 0.185415 0.617565 0.893931
O O12 0.454531 0.969844 0.125471
O O13 0.760646 0.912040 0.998184
O O14 0.998060 0.845219 0.867852
O O15 0.500000 0.487813 0.250000
O O16 0.000000 0.506913 0.250000
O O17 0.000000 0.216906 0.250000
#
# Coordination Sequence:
#
# PCOD9305072 Si02
#       7
#     8   8   8   8   8   8   8
#     4  11  24  44  69  99 135 180 234 286 343 416
#     4  11  24  42  65  97 135 179 227 287 352 412
#     4  11  24  43  69 100 140 182 235 281 345 422
#     4  11  24  44  70 104 141 183 225 291 357 408
#     4  11  25  43  69  98 141 181 229 290 352 413
#     4  11  24  44  72 104 139 183 235 287 345 417
#     4  12  24  43  70  96 134 185 235 285 345 415
#
# _framework density 23.970603000000001
#
# number of rings (size 3 to 8) (size 9 to 14) (size 15 to 20)
#    0.000    0.857    2.857    4.286    4.000    5.714 
#    0.000    0.714    0.000    0.000    0.000    0.000 
#    0.000    0.000    0.000    0.000    0.000    0.000 
#
# Total GULP energy -156255.857891 kJ/mol
# GULP energy per Si atom -5580.566353 kJ/mol
# Density = 2.391604 g / cm^3
# Si number density = 23.970603 Si / 1000 Ang^3
#
#
#
# Elastic Constant Matrix: (Units=GPa)
#
#
# Indices 1 2 3 4 5 6 
#
# 1 92.2783 10.1596 29.7411 0.0000 -16.8565 0.0000
# 2 10.1596 87.5746 32.7582 0.0000 -13.6643 0.0000
# 3 29.7411 32.7582 130.0149 0.0000 -35.5792 0.0000
# 4 0.0000 0.0000 0.0000 34.0205 0.0000 -10.6022
# 5 -16.8565 -13.6643 -35.5792 0.0000 49.6856 0.0000
# 6 0.0000 0.0000 0.0000 -10.6022 0.0000 30.1427
#
#
#
# Elastic Compliance Matrix: (Units=1/GPa)
#
#
# Indices 1 2 3 4 5 6 
#
# 1 0.011971 -0.000249 -0.001969 0.000000 0.002583 0.000000
# 2 -0.000249 0.012701 -0.002749 0.000000 0.001440 0.000000
# 3 -0.001969 -0.002749 0.010503 0.000000 0.006097 0.000000
# 4 0.000000 0.000000 0.000000 0.033013 0.000000 0.011612
# 5 0.002583 0.001440 0.006097 0.000000 0.025765 0.000000
# 6 0.000000 0.000000 0.000000 0.011612 0.000000 0.037260
#
#
# Mechanical properties :
#
#
# Convention : Reuss Voigt Hill
#
# Bulk Modulus (GPa) = 39.61934 50.57618 45.09776
# Shear Modulus (GPa) = 33.43167 38.58369 36.00768
#
# Velocity S-wave (km/s) = 3.73861 4.01637 3.87998
# Velocity P-wave (km/s) = 5.93300 6.53095 6.23914
#
# Compressibility (1/GPa) = 0.02524020
#
# Stress axis : x y z
#
# Youngs Moduli (GPa) = 83.53842 78.73577 95.21204
#
# Poissons Ratio (x) = 0.01963 0.18744
# Poissons Ratio (y) = 0.02083 0.26174
# Poissons Ratio (z) = 0.16446 0.21644
#
# Static dielectric constant tensor:
#      x y z
#    x -0.423140 0.000000 -2.264230 
#    y 0.000000 1.899400 0.000000 
#    z -2.264230 0.000000 -0.208540 
# 
# From -- ./inp_files/228422.got.cif
#   From: 2010.05.17/outbox.cif.g08.bks.cpg/sg15_115_cif.got.tgz:228422.got - 2010.06.03 18:47:42.
