data_PCOD9305187
_publ_section_title
;
Structure prediction by ZEFSAII (Michael W. Deem and Ramdas Pophale) SiO2 
 PCOD9305187
Probable space group: C 2/C
;
_chemical_formula_sum "Si O2"
_cell_formula_units_Z 36
_cell_length_a 6.464811
_cell_length_b 17.229163
_cell_length_c 17.849985
_cell_angle_alpha 90.000000
_cell_angle_beta 118.785039
_cell_angle_gamma 90.000000
_cell_volume 1742.514154
_symmetry_space_group_name_H-M "C 2/C"
_symmetry_group_IT_number 15
_symmetry_cell_setting 'monoclinic'
loop_
_space_group_symop_operation_xyz
x,y,z
-x,y,1/2-z
-x,-y,-z
x,-y,1/2+z
1/2+x,1/2+y,z
1/2-x,1/2+y,1/2-z
1/2-x,1/2-y,-z
1/2+x,1/2-y,1/2+z
loop_
_atom_site_type_symbol
_atom_site_label
_atom_site_fract_x
_atom_site_fract_y
_atom_site_fract_z
Si Si1 0.000000 0.899452 0.750000
Si Si2 0.612647 0.030191 0.689463
Si Si3 0.059985 0.651602 0.565301
Si Si4 0.968694 0.829376 0.586687
Si Si5 0.725505 0.557321 0.035841
O O1 0.935229 0.845475 0.668582
O O2 0.797710 0.961662 0.734460
O O3 0.500000 0.046111 0.750000
O O4 0.665019 0.111906 0.658675
O O5 0.445584 0.994736 0.595865
O O6 0.055077 0.744255 0.577365
O O7 0.778209 0.644103 0.495812
O O8 0.212591 0.610300 0.525631
O O9 0.175117 0.884745 0.594550
O O10 0.500000 0.500000 0.000000
#
# Coordination Sequence:
#
# PCOD9305187 Si02
#       5
#     4   8   8   8   8
#     4  12  24  44  66  98 136 180 220 288 334 402
#     4  12  25  41  65  99 132 174 226 274 336 403
#     4  11  25  43  67  98 133 180 225 274 343 407
#     4  11  24  43  68  97 138 173 225 283 340 404
#     4  12  22  43  70  98 128 175 231 273 333 415
#
# _framework density 20.659804000000001
#
# number of rings (size 3 to 8) (size 9 to 14) (size 15 to 20)
#    0.000    0.444    6.667    2.667    1.556    0.000 
#    0.000    2.222    0.000    0.000    0.000    0.000 
#    0.000    0.000    0.000    0.000    0.000    0.000 
#
# Total GULP energy -100226.685299 kJ/mol
# GULP energy per Si atom -5568.149183 kJ/mol
# Density = 2.061278 g / cm^3
# Si number density = 20.659804 Si / 1000 Ang^3
#
#
#
# Elastic Constant Matrix: (Units=GPa)
#
#
# Indices 1 2 3 4 5 6 
#
# 1 53.4991 24.5725 7.9753 0.0000 -20.8442 0.0000
# 2 24.5725 107.8354 28.9433 0.0000 -9.7626 0.0000
# 3 7.9753 28.9433 69.7737 0.0000 -28.4006 0.0000
# 4 0.0000 0.0000 0.0000 37.5520 0.0000 -2.6690
# 5 -20.8442 -9.7626 -28.4006 0.0000 42.0509 0.0000
# 6 0.0000 0.0000 0.0000 -2.6690 0.0000 30.0695
#
#
#
# Elastic Compliance Matrix: (Units=1/GPa)
#
#
# Indices 1 2 3 4 5 6 
#
# 1 0.026901 -0.006305 0.006030 0.000000 0.015943 0.000000
# 2 -0.006305 0.011928 -0.006030 0.000000 -0.004429 0.000000
# 3 0.006030 -0.006030 0.023157 0.000000 0.017229 0.000000
# 4 0.000000 0.000000 0.000000 0.026799 0.000000 0.002379
# 5 0.015943 -0.004429 0.017229 0.000000 0.042292 0.000000
# 6 0.000000 0.000000 0.000000 0.002379 0.000000 0.033467
#
#
# Mechanical properties :
#
#
# Convention : Reuss Voigt Hill
#
# Bulk Modulus (GPa) = 20.25270 39.34339 29.79805
# Shear Modulus (GPa) = 25.82499 33.24228 29.53363
#
# Velocity S-wave (km/s) = 3.53939 4.01563 3.78500
# Velocity P-wave (km/s) = 5.15046 6.37065 5.79277
#
# Compressibility (1/GPa) = 0.04937612
#
# Stress axis : x y z
#
# Youngs Moduli (GPa) = 37.17374 83.83947 43.18371
#
# Poissons Ratio (x) = 0.52861 -0.26040
# Poissons Ratio (y) = 0.23438 0.26038
# Poissons Ratio (z) = -0.22416 0.50552
#
# Static dielectric constant tensor:
#      x y z
#    x 1.771500 0.000000 0.023220 
#    y 0.000000 1.763120 0.000000 
#    z 0.023220 0.000000 1.738840 
# 
# From -- ./inp_files/184113.got.cif
#   From: 2010.05.17/outbox.cif.g08.bks.cpg/sg15_93_cif.got.tgz:184113.got - 2010.06.03 18:47:42.
