data_PCOD9305105
_publ_section_title
;
Structure prediction by ZEFSAII (Michael W. Deem and Ramdas Pophale) SiO2 
 PCOD9305105
Probable space group: C 2/C
;
_chemical_formula_sum "Si O2"
_cell_formula_units_Z 60
_cell_length_a 11.171706
_cell_length_b 8.239412
_cell_length_c 28.207507
_cell_angle_alpha 90.000000
_cell_angle_beta 109.194917
_cell_angle_gamma 90.000000
_cell_volume 2452.104359
_symmetry_space_group_name_H-M "C 2/C"
_symmetry_group_IT_number 15
_symmetry_cell_setting 'monoclinic'
loop_
_space_group_symop_operation_xyz
x,y,z
-x,y,1/2-z
-x,-y,-z
x,-y,1/2+z
1/2+x,1/2+y,z
1/2-x,1/2+y,1/2-z
1/2-x,1/2-y,-z
1/2+x,1/2-y,1/2+z
loop_
_atom_site_type_symbol
_atom_site_label
_atom_site_fract_x
_atom_site_fract_y
_atom_site_fract_z
Si Si1 0.160416 0.302912 0.734473
Si Si2 0.000000 0.013193 0.750000
Si Si3 0.201717 0.584879 0.810614
Si Si4 0.610551 0.001359 0.636809
Si Si5 0.623663 0.352885 0.857486
Si Si6 0.366296 0.409166 0.986497
Si Si7 0.895687 0.135870 0.382521
Si Si8 0.409497 0.939682 0.530903
O O1 0.155655 0.430435 0.776071
O O2 0.094567 0.396258 0.682302
O O3 0.109113 0.135233 0.747710
O O4 0.286641 0.234859 0.725033
O O5 0.041755 0.926022 0.803469
O O6 0.130003 0.662654 0.845267
O O7 0.332847 0.519662 0.849694
O O8 0.736096 0.927395 0.627168
O O9 0.490413 0.980639 0.587559
O O10 0.636679 0.193233 0.647303
O O11 0.546695 0.381903 0.895448
O O12 0.346587 0.350654 0.929483
O O13 0.236924 0.500040 0.985393
O O14 0.500000 0.500000 0.000000
O O15 0.390545 0.253324 0.022432
O O16 0.500000 0.000000 0.500000
#
# Coordination Sequence:
#
# PCOD9305105 Si02
#       8
#     8   4   8   8   8   8   8   8
#     4  11  24  42  69 103 142 202 241 309 365 446
#     4  12  24  44  68 106 150 198 254 304 368 434
#     4  11  24  45  67 100 151 189 254 297 373 440
#     4  11  27  46  73 104 151 192 249 309 375 445
#     4  11  28  44  71 108 147 197 245 314 360 445
#     4  11  29  47  81 110 148 194 246 312 381 456
#     4  12  26  46  72 109 145 193 246 306 375 447
#     4  11  26  53  75 112 148 192 247 310 381 451
#
# _framework density 24.468779999999999
#
# number of rings (size 3 to 8) (size 9 to 14) (size 15 to 20)
#    0.000    0.800    2.667    3.200   11.200    1.600 
#    0.000    0.000    0.000    0.000    0.000    0.000 
#    0.000    0.000    0.000    0.000    0.000    0.000 
#
# Total GULP energy -167704.787122 kJ/mol
# GULP energy per Si atom -5590.159571 kJ/mol
# Density = 2.441309 g / cm^3
# Si number density = 24.468780 Si / 1000 Ang^3
#
#
#
# Elastic Constant Matrix: (Units=GPa)
#
#
# Indices 1 2 3 4 5 6 
#
# 1 154.4541 24.2459 34.4380 0.0000 -6.2187 0.0000
# 2 24.2459 94.2521 13.6510 0.0000 7.3875 0.0000
# 3 34.4380 13.6510 59.1965 0.0000 2.5607 0.0000
# 4 0.0000 0.0000 0.0000 28.2594 0.0000 1.0049
# 5 -6.2187 7.3875 2.5607 0.0000 40.6804 0.0000
# 6 0.0000 0.0000 0.0000 1.0049 0.0000 42.1518
#
#
#
# Elastic Compliance Matrix: (Units=1/GPa)
#
#
# Indices 1 2 3 4 5 6 
#
# 1 0.007721 -0.001510 -0.004218 0.000000 0.001720 0.000000
# 2 -0.001510 0.011411 -0.001658 0.000000 -0.002199 0.000000
# 3 -0.004218 -0.001658 0.019798 0.000000 -0.001590 0.000000
# 4 0.000000 0.000000 0.000000 0.035417 0.000000 -0.000844
# 5 0.001720 -0.002199 -0.001590 0.000000 0.025344 0.000000
# 6 0.000000 0.000000 0.000000 -0.000844 0.000000 0.023744
#
#
# Mechanical properties :
#
#
# Convention : Reuss Voigt Hill
#
# Bulk Modulus (GPa) = 41.39419 50.28585 45.84002
# Shear Modulus (GPa) = 34.18596 37.92283 36.05440
#
# Velocity S-wave (km/s) = 3.74187 3.94108 3.84277
# Velocity P-wave (km/s) = 5.96847 6.42690 6.20193
#
# Compressibility (1/GPa) = 0.02415798
#
# Stress axis : x y z
#
# Youngs Moduli (GPa) = 129.51345 87.63659 50.51060
#
# Poissons Ratio (x) = 0.13234 0.21306
# Poissons Ratio (y) = 0.19558 0.08373
# Poissons Ratio (z) = 0.54629 0.14528
#
# Static dielectric constant tensor:
#      x y z
#    x 2.201740 0.000000 -0.065480 
#    y 0.000000 1.937500 0.000000 
#    z -0.065480 0.000000 1.956420 
# 
# From -- ./inp_files/310346.got.cif
#   From: 2010.05.17/outbox.cif.g08.bks.cpg/sg15_156_cif.got.tgz:310346.got - 2010.06.03 18:47:42.
