data_PCOD9305334
_publ_section_title
;
Structure prediction by ZEFSAII (Michael W. Deem and Ramdas Pophale) SiO2 
 PCOD9305334
Probable space group: C 2/C
;
_chemical_formula_sum "Si O2"
_cell_formula_units_Z 56
_cell_length_a 30.695726
_cell_length_b 11.367108
_cell_length_c 8.051383
_cell_angle_alpha 90.000000
_cell_angle_beta 119.007442
_cell_angle_gamma 90.000000
_cell_volume 2456.893707
_symmetry_space_group_name_H-M "C 2/C"
_symmetry_group_IT_number 15
_symmetry_cell_setting 'monoclinic'
loop_
_space_group_symop_operation_xyz
x,y,z
-x,y,1/2-z
-x,-y,-z
x,-y,1/2+z
1/2+x,1/2+y,z
1/2-x,1/2+y,1/2-z
1/2-x,1/2-y,-z
1/2+x,1/2-y,1/2+z
loop_
_atom_site_type_symbol
_atom_site_label
_atom_site_fract_x
_atom_site_fract_y
_atom_site_fract_z
Si Si1 0.195193 0.206882 0.451708
Si Si2 0.400482 0.863282 0.190597
Si Si3 0.445225 0.464033 0.593361
Si Si4 0.697164 0.287261 0.336950
Si Si5 0.867710 0.003956 0.703157
Si Si6 0.393443 0.868973 0.795062
Si Si7 0.553236 0.253062 0.409746
O O1 0.250000 0.250000 0.500000
O O2 0.155015 0.311910 0.381909
O O3 0.200171 0.166628 0.653169
O O4 0.168333 0.101327 0.297404
O O5 0.434561 0.794601 0.385399
O O6 0.400442 0.997967 0.249078
O O7 0.415766 0.851251 0.023793
O O8 0.500000 0.422324 0.750000
O O9 0.397921 0.434248 0.618883
O O10 0.418205 0.433419 0.371882
O O11 0.447780 0.605624 0.582121
O O12 0.750000 0.250000 0.500000
O O13 0.670025 0.389654 0.390943
O O14 0.663006 0.171687 0.280314
O O15 0.411160 0.793625 0.669244
O O16 0.500000 0.210292 0.250000
#
# Coordination Sequence:
#
# PCOD9305334 Si02
#       7
#     8   8   8   8   8   8   8
#     4  11  27  43  68 100 131 180 227 280 350 411
#     4  11  24  45  67  97 138 180 231 286 339 409
#     4  11  24  44  72 102 140 185 226 285 356 417
#     4  11  27  43  68 100 131 180 227 280 350 411
#     4  12  23  46  70 102 144 172 231 290 342 426
#     4  11  24  45  67  97 138 180 231 286 339 409
#     4  11  24  44  70 100 138 185 226 281 350 413
#
# _framework density 22.793009000000001
#
# number of rings (size 3 to 8) (size 9 to 14) (size 15 to 20)
#    0.000    0.857    5.714    0.429    6.000    1.143 
#    0.000    0.000    0.000    0.000    0.000    0.000 
#    0.000    0.000    0.000    0.000    0.000    0.000 
#
# Total GULP energy -156075.670726 kJ/mol
# GULP energy per Si atom -5574.131097 kJ/mol
# Density = 2.274113 g / cm^3
# Si number density = 22.793009 Si / 1000 Ang^3
#
#
#
# Elastic Constant Matrix: (Units=GPa)
#
#
# Indices 1 2 3 4 5 6 
#
# 1 44.2838 6.7240 16.7922 0.0000 12.2709 0.0000
# 2 6.7240 71.5119 12.3251 0.0000 10.5213 0.0000
# 3 16.7922 12.3251 119.4848 0.0000 4.8371 0.0000
# 4 0.0000 0.0000 0.0000 33.5657 0.0000 2.7099
# 5 12.2709 10.5213 4.8371 0.0000 40.8524 0.0000
# 6 0.0000 0.0000 0.0000 2.7099 0.0000 23.6843
#
#
#
# Elastic Compliance Matrix: (Units=1/GPa)
#
#
# Indices 1 2 3 4 5 6 
#
# 1 0.025939 -0.000817 -0.003270 0.000000 -0.007194 0.000000
# 2 -0.000817 0.014782 -0.001272 0.000000 -0.003411 0.000000
# 3 -0.003270 -0.001272 0.008950 0.000000 0.000250 0.000000
# 4 0.000000 0.000000 0.000000 0.030070 0.000000 -0.003440
# 5 -0.007194 -0.003411 0.000250 0.000000 0.027488 0.000000
# 6 0.000000 0.000000 0.000000 -0.003440 0.000000 0.042616
#
#
# Mechanical properties :
#
#
# Convention : Reuss Voigt Hill
#
# Bulk Modulus (GPa) = 25.67201 34.10699 29.88950
# Shear Modulus (GPa) = 28.81081 32.91643 30.86362
#
# Velocity S-wave (km/s) = 3.55916 3.80431 3.68378
# Velocity P-wave (km/s) = 5.30827 5.85605 5.58888
#
# Compressibility (1/GPa) = 0.03895293
#
# Stress axis : x y z
#
# Youngs Moduli (GPa) = 38.55204 67.65191 111.73328
#
# Poissons Ratio (x) = 0.05527 0.36536
# Poissons Ratio (y) = 0.03150 0.14211
# Poissons Ratio (z) = 0.12606 0.08604
#
# Static dielectric constant tensor:
#      x y z
#    x 2.001770 0.000000 -0.171190 
#    y 0.000000 1.852140 0.000000 
#    z -0.171190 0.000000 2.095760 
# 
# From -- ./inp_files/69440.got.cif
#   From: 2010.05.17/outbox.cif.g08.bks.cpg/sg15_35_cif.got.tgz:69440.got - 2010.06.03 18:47:42.
