data_PCOD9305358
_publ_section_title
;
Structure prediction by ZEFSAII (Michael W. Deem and Ramdas Pophale) SiO2 
 PCOD9305358
Probable space group: C 2/C
;
_chemical_formula_sum "Si O2"
_cell_formula_units_Z 48
_cell_length_a 14.724511
_cell_length_b 17.080499
_cell_length_c 14.298325
_cell_angle_alpha 90.000000
_cell_angle_beta 37.435055
_cell_angle_gamma 90.000000
_cell_volume 2185.905732
_symmetry_space_group_name_H-M "C 2/C"
_symmetry_group_IT_number 15
_symmetry_cell_setting 'monoclinic'
loop_
_space_group_symop_operation_xyz
x,y,z
-x,y,1/2-z
-x,-y,-z
x,-y,1/2+z
1/2+x,1/2+y,z
1/2-x,1/2+y,1/2-z
1/2-x,1/2-y,-z
1/2+x,1/2-y,1/2+z
loop_
_atom_site_type_symbol
_atom_site_label
_atom_site_fract_x
_atom_site_fract_y
_atom_site_fract_z
Si Si1 0.683807 0.922084 0.465201
Si Si2 0.469629 0.239067 0.378640
Si Si3 0.797751 0.799942 0.681356
Si Si4 0.489833 0.575311 0.442978
Si Si5 0.500000 0.487359 0.250000
Si Si6 0.500000 0.039428 0.750000
Si Si7 0.820172 0.369450 0.238761
O O1 0.636689 0.836625 0.539604
O O2 0.649403 0.918392 0.381779
O O3 0.597369 0.984085 0.601124
O O4 0.858975 0.938058 0.331336
O O5 0.500000 0.266986 0.250000
O O6 0.623665 0.210498 0.301194
O O7 0.384931 0.301291 0.511462
O O8 0.853236 0.721153 0.688042
O O9 0.854930 0.876975 0.686608
O O10 0.500000 0.500000 0.500000
O O11 0.449143 0.543070 0.375339
O O12 0.355110 0.626734 0.593194
O O13 0.594179 0.093436 0.743952
#
# Coordination Sequence:
#
# PCOD9305358 Si02
#       7
#     8   8   8   8   4   4   8
#     4  11  25  43  72 109 144 185 242 295 358 425
#     4  11  24  44  71 103 145 190 234 298 364 432
#     4  11  26  48  70 105 144 190 241 299 366 419
#     4  12  26  48  75 105 147 191 246 302 353 438
#     4  12  26  45  74 109 140 194 240 294 366 421
#     4  12  24  45  76 105 142 192 242 294 360 421
#     4  11  25  48  70 106 146 187 237 306 358 433
#
# _framework density 21.958862
#
# number of rings (size 3 to 8) (size 9 to 14) (size 15 to 20)
#    0.000    0.667    5.833    1.000    4.667    3.333 
#    7.500    1.667    0.000    0.000    0.000    0.000 
#    0.000    0.000    0.000    0.000    0.000    0.000 
#
# Total GULP energy -134313.797964 kJ/mol
# GULP energy per Si atom -5596.408248 kJ/mol
# Density = 2.190888 g / cm^3
# Si number density = 21.958862 Si / 1000 Ang^3
#
#
#
# Elastic Constant Matrix: (Units=GPa)
#
#
# Indices 1 2 3 4 5 6 
#
# 1 109.4635 45.4885 25.1290 0.0001 8.9343 0.0000
# 2 45.4885 79.5545 6.8251 -0.0004 3.5048 0.0002
# 3 25.1290 6.8251 83.4547 -0.0004 5.6096 0.0005
# 4 0.0001 -0.0004 -0.0004 25.6868 0.0004 -11.1002
# 5 8.9343 3.5048 5.6096 0.0004 45.9670 -0.0003
# 6 0.0000 0.0002 0.0005 -11.1002 -0.0003 27.6361
#
#
#
# Elastic Compliance Matrix: (Units=1/GPa)
#
#
# Indices 1 2 3 4 5 6 
#
# 1 0.012931 -0.007049 -0.003211 0.000000 -0.001584 0.000000
# 2 -0.007049 0.016534 0.000769 0.000000 0.000015 0.000000
# 3 -0.003211 0.000769 0.012955 0.000000 -0.001016 0.000000
# 4 0.000000 0.000000 0.000000 0.047107 0.000000 0.018921
# 5 -0.001584 0.000015 -0.001016 0.000000 0.022185 0.000000
# 6 0.000000 0.000000 0.000000 0.018921 0.000000 0.043784
#
#
# Mechanical properties :
#
#
# Convention : Reuss Voigt Hill
#
# Bulk Modulus (GPa) = 42.66376 47.48422 45.07399
# Shear Modulus (GPa) = 27.42905 32.86000 30.14452
#
# Velocity S-wave (km/s) = 3.53811 3.87257 3.70911
# Velocity P-wave (km/s) = 6.01349 6.45499 6.23815
#
# Compressibility (1/GPa) = 0.02343910
#
# Stress axis : x y z
#
# Youngs Moduli (GPa) = 77.33416 60.48279 77.19225
#
# Poissons Ratio (x) = 0.42632 0.24784
# Poissons Ratio (y) = 0.54509 -0.05937
# Poissons Ratio (z) = 0.24830 -0.04652
#
# Static dielectric constant tensor:
#      x y z
#    x 1.795860 0.000000 -0.006670 
#    y 0.000000 1.770300 0.000000 
#    z -0.006670 0.000000 1.794070 
# 
# From -- ./inp_files/155111.got.cif
#   From: 2010.05.17/outbox.cif.g08.bks.cpg/sg15_78_cif.got.tgz:155111.got - 2010.06.03 18:47:42.
