data_PCOD9305468
_publ_section_title
;
Structure prediction by ZEFSAII (Michael W. Deem and Ramdas Pophale) SiO2 
 PCOD9305468
Probable space group: C 2/C
;
_chemical_formula_sum "Si O2"
_cell_formula_units_Z 48
_cell_length_a 28.039245
_cell_length_b 16.010052
_cell_length_c 14.282896
_cell_angle_alpha 90.000000
_cell_angle_beta 20.735125
_cell_angle_gamma 90.000000
_cell_volume 2270.062330
_symmetry_space_group_name_H-M "C 2/C"
_symmetry_group_IT_number 15
_symmetry_cell_setting 'monoclinic'
loop_
_space_group_symop_operation_xyz
x,y,z
-x,y,1/2-z
-x,-y,-z
x,-y,1/2+z
1/2+x,1/2+y,z
1/2-x,1/2+y,1/2-z
1/2-x,1/2-y,-z
1/2+x,1/2-y,1/2+z
loop_
_atom_site_type_symbol
_atom_site_label
_atom_site_fract_x
_atom_site_fract_y
_atom_site_fract_z
Si Si1 0.473723 0.887543 0.624233
Si Si2 0.284221 0.620926 0.186195
Si Si3 0.500000 0.798951 0.250000
Si Si4 0.787139 0.505514 0.346484
Si Si5 0.000000 0.265252 0.750000
Si Si6 0.099265 0.076345 0.330358
Si Si7 0.088977 0.752199 0.782424
O O1 0.341380 0.933023 0.828423
O O2 0.462819 0.826438 0.732399
O O3 0.526763 0.830279 0.441880
O O4 0.584831 0.960055 0.435991
O O5 0.128475 0.646943 0.482670
O O6 0.294744 0.558319 0.079317
O O7 0.330445 0.578288 0.197911
O O8 0.375877 0.703319 0.002334
O O9 0.449478 0.745592 0.255140
O O10 0.702599 0.435488 0.555081
O O11 0.033295 0.166786 0.437731
O O12 0.000000 0.000000 0.500000
O O13 0.250000 0.750000 0.500000
#
# Coordination Sequence:
#
# PCOD9305468 Si02
#       7
#     8   8   4   8   4   8   8
#     4  11  24  45  69 102 140 183 233 297 348 430
#     4  12  26  46  74 105 143 189 243 298 364 429
#     4  12  24  43  81 104 136 200 240 292 353 447
#     4  11  26  43  70 107 140 181 241 292 357 423
#     4  12  26  45  75 102 142 194 242 298 359 427
#     4  12  27  47  71 103 151 186 232 307 361 423
#     4  12  22  47  72 102 143 187 243 292 364 430
#
# _framework density 21.144794000000001
#
# number of rings (size 3 to 8) (size 9 to 14) (size 15 to 20)
#    0.000    0.333    6.667    1.000    4.667    3.333 
#    0.000    0.000    0.000    0.000    0.000    0.000 
#    0.000    0.000    0.000    0.000    0.000    0.000 
#
# Total GULP energy -134246.894772 kJ/mol
# GULP energy per Si atom -5593.620615 kJ/mol
# Density = 2.109667 g / cm^3
# Si number density = 21.144794 Si / 1000 Ang^3
#
#
#
# Elastic Constant Matrix: (Units=GPa)
#
#
# Indices 1 2 3 4 5 6 
#
# 1 166.2867 44.4444 12.9099 0.0000 -2.5109 0.0000
# 2 44.4444 106.9815 10.9420 0.0000 -9.1206 0.0000
# 3 12.9099 10.9420 57.4054 0.0001 -5.7515 0.0000
# 4 0.0000 0.0000 0.0001 38.7240 0.0000 6.9824
# 5 -2.5109 -9.1206 -5.7515 0.0000 25.0935 0.0000
# 6 0.0000 0.0000 0.0000 6.9824 0.0000 56.0561
#
#
#
# Elastic Compliance Matrix: (Units=1/GPa)
#
#
# Indices 1 2 3 4 5 6 
#
# 1 0.006830 -0.002777 -0.001064 0.000000 -0.000570 0.000000
# 2 -0.002777 0.010907 -0.001111 0.000000 0.003432 0.000000
# 3 -0.001064 -0.001111 0.018239 0.000000 0.003670 0.000000
# 4 0.000000 0.000000 0.000000 0.026417 0.000000 -0.003291
# 5 -0.000570 0.003432 0.003670 0.000000 0.041883 0.000000
# 6 0.000000 0.000000 0.000000 -0.003291 0.000000 0.018249
#
#
# Mechanical properties :
#
#
# Convention : Reuss Voigt Hill
#
# Bulk Modulus (GPa) = 38.35415 51.91848 45.13631
# Shear Modulus (GPa) = 35.43111 41.46652 38.44882
#
# Velocity S-wave (km/s) = 4.09790 4.43321 4.26885
# Velocity P-wave (km/s) = 6.36935 7.12822 6.75944
#
# Compressibility (1/GPa) = 0.02607280
#
# Stress axis : x y z
#
# Youngs Moduli (GPa) = 146.41339 91.68115 54.82878
#
# Poissons Ratio (x) = 0.25462 0.05832
# Poissons Ratio (y) = 0.40662 0.06089
# Poissons Ratio (z) = 0.15574 0.10182
#
# Static dielectric constant tensor:
#      x y z
#    x 1.732160 0.000000 0.028780 
#    y 0.000000 1.738870 0.000000 
#    z 0.028780 0.000000 1.786250 
# 
# From -- ./inp_files/143486.got.cif
#   From: 2010.05.17/outbox.cif.g08.bks.cpg/sg15_72_cif.got.tgz:143486.got - 2010.06.03 18:47:42.
