data_PCOD9305106
_publ_section_title
;
Structure prediction by ZEFSAII (Michael W. Deem and Ramdas Pophale) SiO2 
 PCOD9305106
Probable space group: C 2/C
;
_chemical_formula_sum "Si O2"
_cell_formula_units_Z 40
_cell_length_a 21.540960
_cell_length_b 9.198906
_cell_length_c 7.844951
_cell_angle_alpha 90.000000
_cell_angle_beta 82.923675
_cell_angle_gamma 90.000000
_cell_volume 1542.661902
_symmetry_space_group_name_H-M "C 2/C"
_symmetry_group_IT_number 15
_symmetry_cell_setting 'monoclinic'
loop_
_space_group_symop_operation_xyz
x,y,z
-x,y,1/2-z
-x,-y,-z
x,-y,1/2+z
1/2+x,1/2+y,z
1/2-x,1/2+y,1/2-z
1/2-x,1/2-y,-z
1/2+x,1/2-y,1/2+z
loop_
_atom_site_type_symbol
_atom_site_label
_atom_site_fract_x
_atom_site_fract_y
_atom_site_fract_z
Si Si1 0.179375 0.215149 0.977092
Si Si2 0.000000 0.721133 0.750000
Si Si3 0.370111 0.522367 0.197414
Si Si4 0.373458 0.049877 0.811053
Si Si5 0.178281 0.712356 0.983902
Si Si6 0.000000 0.000000 0.000000
O O1 0.148002 0.111074 0.130205
O O2 0.141370 0.362541 0.008219
O O3 0.250000 0.250000 0.000000
O O4 0.173597 0.116165 0.813735
O O5 0.058602 0.612248 0.760210
O O6 0.992566 0.831962 0.913988
O O7 0.358558 0.641424 0.052701
O O8 0.441146 0.471726 0.152703
O O9 0.325956 0.116606 0.688373
O O10 0.357094 0.885919 0.865148
O O11 0.250000 0.750000 0.000000
#
# Coordination Sequence:
#
# PCOD9305106 Si02
#       6
#     8   4   8   8   8   4
#     4  11  24  42  69 103 150 192 253 320 377 467
#     4  12  24  50  80 114 156 196 266 328 396 460
#     4  11  24  45  74 110 141 203 257 314 392 457
#     4  11  26  49  73 111 150 203 254 324 389 458
#     4  11  26  48  72 107 155 200 254 312 397 464
#     4  12  20  50  82 110 154 194 270 320 390 470
#
# _framework density 25.929207000000002
#
# number of rings (size 3 to 8) (size 9 to 14) (size 15 to 20)
#    0.000    0.800    6.000    1.200    0.000   15.200 
#    3.600    0.000    0.000    0.000    0.000    0.000 
#    0.000    0.000    0.000    0.000    0.000    0.000 
#
# Total GULP energy -111407.876517 kJ/mol
# GULP energy per Si atom -5570.393826 kJ/mol
# Density = 2.587019 g / cm^3
# Si number density = 25.929207 Si / 1000 Ang^3
#
#
#
# Elastic Constant Matrix: (Units=GPa)
#
#
# Indices 1 2 3 4 5 6 
#
# 1 168.5754 50.2689 27.9429 0.0000 -18.6005 0.0000
# 2 50.2689 190.6889 42.9929 0.0000 -1.8502 0.0000
# 3 27.9429 42.9929 108.7165 0.0000 -15.7745 0.0000
# 4 0.0000 0.0000 0.0000 51.8076 0.0000 0.9675
# 5 -18.6005 -1.8502 -15.7745 0.0000 47.3484 0.0000
# 6 0.0000 0.0000 0.0000 0.9675 0.0000 39.7961
#
#
#
# Elastic Compliance Matrix: (Units=1/GPa)
#
#
# Indices 1 2 3 4 5 6 
#
# 1 0.006795 -0.001594 -0.000775 0.000000 0.002349 0.000000
# 2 -0.001594 0.006145 -0.002182 0.000000 -0.001113 0.000000
# 3 -0.000775 -0.002182 0.010722 0.000000 0.003182 0.000000
# 4 0.000000 0.000000 0.000000 0.019311 0.000000 -0.000469
# 5 0.002349 -0.001113 0.003182 0.000000 0.023059 0.000000
# 6 0.000000 0.000000 0.000000 -0.000469 0.000000 0.025140
#
#
# Mechanical properties :
#
#
# Convention : Reuss Voigt Hill
#
# Bulk Modulus (GPa) = 68.68054 78.93224 73.80639
# Shear Modulus (GPa) = 47.56085 50.90883 49.23484
#
# Velocity S-wave (km/s) = 4.28747 4.43581 4.36227
# Velocity P-wave (km/s) = 7.14528 7.53278 7.34159
#
# Compressibility (1/GPa) = 0.01456016
#
# Stress axis : x y z
#
# Youngs Moduli (GPa) = 147.16734 162.72202 93.26404
#
# Poissons Ratio (x) = 0.25932 0.07232
# Poissons Ratio (y) = 0.23453 0.20352
# Poissons Ratio (z) = 0.11412 0.35508
#
# Static dielectric constant tensor:
#      x y z
#    x 2.098180 0.000000 0.104470 
#    y 0.000000 2.006680 0.000000 
#    z 0.104470 0.000000 2.203720 
# 
# From -- ./inp_files/59875.got.cif
#   From: 2010.05.17/outbox.cif.g08.bks.cpg/sg15_30_cif.got.tgz:59875.got - 2010.06.03 18:47:42.
