data_PCOD9305430
_publ_section_title
;
Structure prediction by ZEFSAII (Michael W. Deem and Ramdas Pophale) SiO2 
 PCOD9305430
Probable space group: C 2/C
;
_chemical_formula_sum "Si O2"
_cell_formula_units_Z 48
_cell_length_a 9.600053
_cell_length_b 14.651498
_cell_length_c 28.560937
_cell_angle_alpha 90.000000
_cell_angle_beta 35.651386
_cell_angle_gamma 90.000000
_cell_volume 2341.458045
_symmetry_space_group_name_H-M "C 2/C"
_symmetry_group_IT_number 15
_symmetry_cell_setting 'monoclinic'
loop_
_space_group_symop_operation_xyz
x,y,z
-x,y,1/2-z
-x,-y,-z
x,-y,1/2+z
1/2+x,1/2+y,z
1/2-x,1/2+y,1/2-z
1/2-x,1/2-y,-z
1/2+x,1/2-y,1/2+z
loop_
_atom_site_type_symbol
_atom_site_label
_atom_site_fract_x
_atom_site_fract_y
_atom_site_fract_z
Si Si1 0.157869 0.725899 0.102553
Si Si2 0.914309 0.952053 0.571320
Si Si3 0.904541 0.292412 0.575669
Si Si4 0.074260 0.891110 0.282451
Si Si5 0.592813 0.118806 0.674596
Si Si6 0.773136 0.964380 0.924433
O O1 0.287377 0.642872 0.093373
O O2 0.990822 0.692043 0.105368
O O3 0.013060 0.791620 0.176467
O O4 0.360516 0.786049 0.020966
O O5 0.127271 0.944726 0.550743
O O6 0.725212 0.023117 0.644363
O O7 0.000000 0.000000 0.500000
O O8 0.776082 0.194709 0.606777
O O9 0.735699 0.371652 0.603036
O O10 0.359639 0.894641 0.207333
O O11 0.000000 0.909119 0.250000
O O12 0.946151 0.963072 0.351945
O O13 0.500000 0.152378 0.750000
O O14 0.500000 0.000000 0.000000
#
# Coordination Sequence:
#
# PCOD9305430 Si02
#       6
#     8   8   8   8   8   8
#     4  11  24  46  71 105 136 186 234 282 349 421
#     4  12  26  44  75 104 139 188 238 288 348 423
#     4  11  24  44  76  99 141 184 232 284 348 423
#     4  12  29  47  71 105 148 182 230 299 352 411
#     4  12  25  49  69 103 147 184 227 290 360 413
#     4  12  26  46  72 105 141 186 240 286 348 426
#
# _framework density 20.500046000000001
#
# number of rings (size 3 to 8) (size 9 to 14) (size 15 to 20)
#    0.000    0.333    6.667    1.000    7.000    3.333 
#    0.000    0.000    0.000    0.000    0.000    0.000 
#    0.000    0.000    0.000    0.000    0.000    0.000 
#
# Total GULP energy -134272.114532 kJ/mol
# GULP energy per Si atom -5594.671439 kJ/mol
# Density = 2.045339 g / cm^3
# Si number density = 20.500046 Si / 1000 Ang^3
#
#
#
# Elastic Constant Matrix: (Units=GPa)
#
#
# Indices 1 2 3 4 5 6 
#
# 1 192.3702 46.2459 19.7194 0.0045 -9.7256 -0.0005
# 2 46.2459 101.6881 -4.2669 0.0037 0.4125 -0.0008
# 3 19.7194 -4.2669 42.7022 0.0112 -2.8186 -0.0043
# 4 0.0045 0.0037 0.0112 17.1693 -0.0074 -3.1791
# 5 -9.7256 0.4125 -2.8186 -0.0074 32.0360 0.0008
# 6 -0.0005 -0.0008 -0.0043 -3.1791 0.0008 29.3303
#
#
#
# Elastic Compliance Matrix: (Units=1/GPa)
#
#
# Indices 1 2 3 4 5 6 
#
# 1 0.006327 -0.003015 -0.003112 0.000002 0.001686 0.000000
# 2 -0.003015 0.011312 0.002467 -0.000004 -0.000844 0.000000
# 3 -0.003112 0.002467 0.025183 -0.000015 0.001239 0.000002
# 4 0.000002 -0.000004 -0.000015 0.059437 0.000013 0.006442
# 5 0.001686 -0.000844 0.001239 0.000013 0.031847 0.000001
# 6 0.000000 0.000000 0.000002 0.006442 0.000001 0.034793
#
#
# Mechanical properties :
#
#
# Convention : Reuss Voigt Hill
#
# Bulk Modulus (GPa) = 28.16677 51.12859 39.64768
# Shear Modulus (GPa) = 26.58830 34.04459 30.31644
#
# Velocity S-wave (km/s) = 3.60528 4.07960 3.84975
# Velocity P-wave (km/s) = 5.57677 6.86919 6.25644
#
# Compressibility (1/GPa) = 0.03550283
#
# Stress axis : x y z
#
# Youngs Moduli (GPa) = 158.04440 88.40103 39.70886
#
# Poissons Ratio (x) = 0.26653 0.12357
# Poissons Ratio (y) = 0.47650 -0.09796
# Poissons Ratio (z) = 0.49181 -0.21808
#
# Static dielectric constant tensor:
#      x y z
#    x 1.750590 0.000000 -0.051670 
#    y 0.000000 1.719590 0.000010 
#    z -0.051670 0.000010 1.806820 
# 
# From -- ./inp_files/288984.got.cif
#   From: 2010.05.17/outbox.cif.g08.bks.cpg/sg15_145_cif.got.tgz:288984.got - 2010.06.03 18:47:42.
