data_PCOD9305344
_publ_section_title
;
Structure prediction by ZEFSAII (Michael W. Deem and Ramdas Pophale) SiO2 
 PCOD9305344
Probable space group: C 2/C
;
_chemical_formula_sum "Si O2"
_cell_formula_units_Z 64
_cell_length_a 9.046706
_cell_length_b 13.313191
_cell_length_c 27.866393
_cell_angle_alpha 90.000000
_cell_angle_beta 51.316560
_cell_angle_gamma 90.000000
_cell_volume 2619.920495
_symmetry_space_group_name_H-M "C 2/C"
_symmetry_group_IT_number 15
_symmetry_cell_setting 'monoclinic'
loop_
_space_group_symop_operation_xyz
x,y,z
-x,y,1/2-z
-x,-y,-z
x,-y,1/2+z
1/2+x,1/2+y,z
1/2-x,1/2+y,1/2-z
1/2-x,1/2-y,-z
1/2+x,1/2-y,1/2+z
loop_
_atom_site_type_symbol
_atom_site_label
_atom_site_fract_x
_atom_site_fract_y
_atom_site_fract_z
Si Si1 0.150811 0.987207 0.178663
Si Si2 0.360978 0.270413 0.822284
Si Si3 0.537180 0.379934 0.363894
Si Si4 0.413853 0.862882 0.488615
Si Si5 0.197121 0.547980 0.184748
Si Si6 0.765385 0.631405 0.500522
Si Si7 0.481703 0.708806 0.397366
Si Si8 0.590465 0.006508 0.603039
O O1 0.000000 0.963231 0.250000
O O2 0.126144 0.901583 0.142509
O O3 0.130526 0.107945 0.172234
O O4 0.366107 0.984306 0.151812
O O5 0.500000 0.246893 0.750000
O O6 0.157836 0.221401 0.849240
O O7 0.441069 0.228176 0.856693
O O8 0.683496 0.462323 0.313042
O O9 0.430470 0.405746 0.435647
O O10 0.567086 0.897795 0.496295
O O11 0.495452 0.763963 0.445753
O O12 0.218369 0.848163 0.556073
O O13 0.356770 0.923966 0.452679
O O14 0.334764 0.641988 0.149584
O O15 0.165841 0.491784 0.140900
O O16 0.000000 0.573239 0.250000
O O17 0.750000 0.750000 0.500000
O O18 0.827463 0.596156 0.435762
#
# Coordination Sequence:
#
# PCOD9305344 Si02
#       8
#     8   8   8   8   8   8   8   8
#     4  11  24  45  73 103 147 197 248 310 379 458
#     4  11  25  45  73 107 149 199 256 313 382 460
#     4  12  24  46  75 105 147 200 250 309 394 462
#     4  11  24  44  70 104 144 189 242 310 383 462
#     4  12  27  46  72 108 147 198 259 311 381 468
#     4  12  25  43  71 107 145 187 249 315 383 470
#     4  11  24  46  70 103 151 190 243 319 383 447
#     4  12  25  43  71 102 145 187 246 308 372 456
#
# _framework density 24.428222000000002
#
# number of rings (size 3 to 8) (size 9 to 14) (size 15 to 20)
#    0.000    0.500    2.500    6.000    1.750    5.000 
#    0.000    0.625    0.000    0.000    0.000    0.000 
#    0.000    0.000    0.000    0.000    0.000    0.000 
#
# Total GULP energy -178704.807714 kJ/mol
# GULP energy per Si atom -5584.525241 kJ/mol
# Density = 2.437262 g / cm^3
# Si number density = 24.428222 Si / 1000 Ang^3
#
#
#
# Elastic Constant Matrix: (Units=GPa)
#
#
# Indices 1 2 3 4 5 6 
#
# 1 76.1605 5.5861 14.8728 0.0000 -12.9560 0.0000
# 2 5.5861 51.5449 22.1056 0.0000 -14.6879 0.0000
# 3 14.8728 22.1056 132.9911 0.0000 -35.4630 0.0001
# 4 0.0000 0.0000 0.0000 28.6812 0.0000 -4.9729
# 5 -12.9560 -14.6879 -35.4630 0.0000 42.9797 0.0000
# 6 0.0000 0.0000 0.0001 -4.9729 0.0000 38.7657
#
#
#
# Elastic Compliance Matrix: (Units=1/GPa)
#
#
# Indices 1 2 3 4 5 6 
#
# 1 0.013875 -0.000230 -0.000537 0.000000 0.003660 0.000000
# 2 -0.000230 0.021951 -0.002104 0.000000 0.005696 0.000000
# 3 -0.000537 -0.002104 0.009865 0.000000 0.007258 0.000000
# 4 0.000000 0.000000 0.000000 0.035659 0.000000 0.004574
# 5 0.003660 0.005696 0.007258 0.000000 0.032306 0.000000
# 6 0.000000 0.000000 0.000000 0.004574 0.000000 0.026383
#
#
# Mechanical properties :
#
#
# Convention : Reuss Voigt Hill
#
# Bulk Modulus (GPa) = 25.03298 38.42506 31.72902
# Shear Modulus (GPa) = 31.42743 36.62747 34.02745
#
# Velocity S-wave (km/s) = 3.59070 3.87640 3.73628
# Velocity P-wave (km/s) = 5.24029 5.98324 5.62405
#
# Compressibility (1/GPa) = 0.03994730
#
# Stress axis : x y z
#
# Youngs Moduli (GPa) = 72.07375 45.55614 101.37240
#
# Poissons Ratio (x) = 0.01049 0.05447
# Poissons Ratio (y) = 0.01659 0.21329
# Poissons Ratio (z) = 0.03872 0.09585
#
# Static dielectric constant tensor:
#      x y z
#    x 1.926990 0.000000 0.015720 
#    y 0.000000 2.134550 0.000000 
#    z 0.015720 0.000000 1.914950 
# 
# From -- ./inp_files/308267.got.cif
#   From: 2010.05.17/outbox.cif.g08.bks.cpg/sg15_155_cif.got.tgz:308267.got - 2010.06.03 18:47:42.
