data_PCOD9305281
_publ_section_title
;
Structure prediction by ZEFSAII (Michael W. Deem and Ramdas Pophale) SiO2 
 PCOD9305281
Probable space group: C 2/C
;
_chemical_formula_sum "Si O2"
_cell_formula_units_Z 44
_cell_length_a 8.985860
_cell_length_b 20.554516
_cell_length_c 11.345253
_cell_angle_alpha 90.000000
_cell_angle_beta 59.701655
_cell_angle_gamma 90.000000
_cell_volume 1809.248514
_symmetry_space_group_name_H-M "C 2/C"
_symmetry_group_IT_number 15
_symmetry_cell_setting 'monoclinic'
loop_
_space_group_symop_operation_xyz
x,y,z
-x,y,1/2-z
-x,-y,-z
x,-y,1/2+z
1/2+x,1/2+y,z
1/2-x,1/2+y,1/2-z
1/2-x,1/2-y,-z
1/2+x,1/2-y,1/2+z
loop_
_atom_site_type_symbol
_atom_site_label
_atom_site_fract_x
_atom_site_fract_y
_atom_site_fract_z
Si Si1 0.441964 0.757164 0.636845
Si Si2 0.808112 0.327988 0.138116
Si Si3 0.576144 0.945908 0.060107
Si Si4 0.500000 0.594821 0.750000
Si Si5 0.327171 0.502222 0.142262
Si Si6 0.188101 0.874497 0.700989
O O1 0.500000 0.762891 0.750000
O O2 0.302328 0.697453 0.703636
O O3 0.592462 0.771735 0.478371
O O4 0.320213 0.817943 0.664344
O O5 0.945870 0.384074 0.116941
O O6 0.647063 0.360200 0.128418
O O7 0.341919 0.979249 0.358020
O O8 0.749108 0.917242 0.933054
O O9 0.500000 0.000000 0.000000
O O10 0.622522 0.547508 0.774624
O O11 0.305286 0.575300 0.194898
O O12 0.500000 0.500000 0.000000
O O13 0.000000 0.848607 0.750000
#
# Coordination Sequence:
#
# PCOD9305281 Si02
#       6
#     8   8   8   4   8   8
#     4  11  26  47  75  99 148 198 252 308 369 449
#     4  11  26  48  72 109 148 195 257 310 374 459
#     4  11  25  45  71 110 149 187 244 310 381 445
#     4  12  26  44  74 110 150 190 260 314 386 452
#     4  12  23  42  75 107 152 194 243 314 382 452
#     4  11  24  44  66 106 142 192 247 301 375 451
#
# _framework density 24.319489999999998
#
# number of rings (size 3 to 8) (size 9 to 14) (size 15 to 20)
#    0.000    0.727    3.636    2.727    7.636    2.182 
#    3.273    1.818    0.000    0.000    0.000    0.000 
#    0.000    0.000    0.000    0.000    0.000    0.000 
#
# Total GULP energy -122789.056664 kJ/mol
# GULP energy per Si atom -5581.320757 kJ/mol
# Density = 2.426414 g / cm^3
# Si number density = 24.319490 Si / 1000 Ang^3
#
#
#
# Elastic Constant Matrix: (Units=GPa)
#
#
# Indices 1 2 3 4 5 6 
#
# 1 138.1105 26.5630 24.1933 0.0000 -10.8429 0.0000
# 2 26.5630 68.9357 7.0218 0.0000 -3.4525 0.0000
# 3 24.1933 7.0218 90.0613 0.0000 -37.0554 0.0000
# 4 0.0000 0.0000 0.0000 33.2755 0.0000 -14.0449
# 5 -10.8429 -3.4525 -37.0554 0.0000 35.5277 0.0000
# 6 0.0000 0.0000 0.0000 -14.0449 0.0000 31.5462
#
#
#
# Elastic Compliance Matrix: (Units=1/GPa)
#
#
# Indices 1 2 3 4 5 6 
#
# 1 0.008151 -0.002939 -0.001847 0.000000 0.000276 0.000000
# 2 -0.002939 0.015685 -0.000307 0.000000 0.000307 0.000000
# 3 -0.001847 -0.000307 0.019934 0.000000 0.020197 0.000000
# 4 0.000000 0.000000 0.000000 0.037006 0.000000 0.016476
# 5 0.000276 0.000307 0.020197 0.000000 0.049327 0.000000
# 6 0.000000 0.000000 0.000000 0.016476 0.000000 0.039035
#
#
# Mechanical properties :
#
#
# Convention : Reuss Voigt Hill
#
# Bulk Modulus (GPa) = 29.77618 45.85153 37.81385
# Shear Modulus (GPa) = 26.24407 36.02517 31.13462
#
# Velocity S-wave (km/s) = 3.28859 3.85298 3.58192
# Velocity P-wave (km/s) = 5.16624 6.22002 5.71746
#
# Compressibility (1/GPa) = 0.03358389
#
# Stress axis : x y z
#
# Youngs Moduli (GPa) = 122.68409 63.75362 50.16585
#
# Poissons Ratio (x) = 0.18736 0.09266
# Poissons Ratio (y) = 0.36055 0.01541
# Poissons Ratio (z) = 0.22661 0.01958
#
# Static dielectric constant tensor:
#      x y z
#    x 1.906560 0.000000 0.063590 
#    y 0.000000 2.103390 0.000000 
#    z 0.063590 0.000000 2.130830 
# 
# From -- ./inp_files/147006.got.cif
#   From: 2010.05.17/outbox.cif.g08.bks.cpg/sg15_74_cif.got.tgz:147006.got - 2010.06.03 18:47:42.
