data_PCOD9305539
_publ_section_title
;
Structure prediction by ZEFSAII (Michael W. Deem and Ramdas Pophale) SiO2 
 PCOD9305539
Probable space group: C 2/C
;
_chemical_formula_sum "Si O2"
_cell_formula_units_Z 52
_cell_length_a 12.703831
_cell_length_b 14.529278
_cell_length_c 15.075201
_cell_angle_alpha 90.000000
_cell_angle_beta 66.840703
_cell_angle_gamma 90.000000
_cell_volume 2558.311485
_symmetry_space_group_name_H-M "C 2/C"
_symmetry_group_IT_number 15
_symmetry_cell_setting 'monoclinic'
loop_
_space_group_symop_operation_xyz
x,y,z
-x,y,1/2-z
-x,-y,-z
x,-y,1/2+z
1/2+x,1/2+y,z
1/2-x,1/2+y,1/2-z
1/2-x,1/2-y,-z
1/2+x,1/2-y,1/2+z
loop_
_atom_site_type_symbol
_atom_site_label
_atom_site_fract_x
_atom_site_fract_y
_atom_site_fract_z
Si Si1 0.000000 0.573107 0.750000
Si Si2 0.186861 0.335371 0.477080
Si Si3 0.638611 0.499766 0.559213
Si Si4 0.714919 0.592675 0.211889
Si Si5 0.483644 0.058053 0.094839
Si Si6 0.798545 0.304760 0.237650
Si Si7 0.384891 0.434967 0.130226
O O1 0.972235 0.506037 0.840556
O O2 0.106167 0.636625 0.741917
O O3 0.250000 0.250000 0.500000
O O4 0.258405 0.427539 0.473863
O O5 0.183925 0.322629 0.372388
O O6 0.060877 0.351686 0.558079
O O7 0.653947 0.436074 0.640239
O O8 0.635569 0.443797 0.468298
O O9 0.519840 0.556171 0.603310
O O10 0.850834 0.578863 0.154684
O O11 0.691031 0.697442 0.245234
O O12 0.671992 0.522818 0.301831
O O13 0.500000 0.000000 0.000000
O O14 0.676682 0.346157 0.308610
#
# Coordination Sequence:
#
# PCOD9305539 Si02
#       7
#     4   8   8   8   8   8   8
#     4  12  24  46  74  98 144 190 232 300 346 434
#     4  12  26  46  71 105 139 184 240 293 352 427
#     4  11  24  45  73  94 146 184 223 290 350 414
#     4  12  26  46  71 105 142 184 230 297 352 419
#     4  12  24  48  73 100 142 188 235 293 362 417
#     4  12  27  44  71 105 140 181 240 287 356 425
#     4  11  24  47  67 105 137 184 232 281 353 417
#
# _framework density 20.325906
#
# number of rings (size 3 to 8) (size 9 to 14) (size 15 to 20)
#    0.000    0.308    6.154    2.308    6.462    0.615 
#    0.000    0.000    0.000    0.000    0.000    0.000 
#    0.000    0.000    0.000    0.000    0.000    0.000 
#
# Total GULP energy -145576.453173 kJ/mol
# GULP energy per Si atom -5599.094353 kJ/mol
# Density = 2.027964 g / cm^3
# Si number density = 20.325906 Si / 1000 Ang^3
#
#
#
# Elastic Constant Matrix: (Units=GPa)
#
#
# Indices 1 2 3 4 5 6 
#
# 1 93.1009 -3.3505 29.8280 0.0000 12.7551 0.0000
# 2 -3.3505 50.3617 -3.4751 0.0000 18.3885 0.0000
# 3 29.8280 -3.4751 61.0600 0.0000 7.5110 0.0000
# 4 0.0000 0.0000 0.0000 22.5000 0.0000 0.2428
# 5 12.7551 18.3885 7.5110 0.0000 32.9407 0.0000
# 6 0.0000 0.0000 0.0000 0.2428 0.0000 38.3868
#
#
#
# Elastic Compliance Matrix: (Units=1/GPa)
#
#
# Indices 1 2 3 4 5 6 
#
# 1 0.013387 0.002394 -0.005763 0.000000 -0.005206 0.000000
# 2 0.002394 0.026000 0.002273 0.000000 -0.015959 0.000000
# 3 -0.005763 0.002273 0.019758 0.000000 -0.003543 0.000000
# 4 0.000000 0.000000 0.000000 0.044448 0.000000 -0.000281
# 5 -0.005206 -0.015959 -0.003543 0.000000 0.042090 0.000000
# 6 0.000000 0.000000 0.000000 -0.000281 0.000000 0.026052
#
#
# Mechanical properties :
#
#
# Convention : Reuss Voigt Hill
#
# Bulk Modulus (GPa) = 17.55841 27.83638 22.69739
# Shear Modulus (GPa) = 25.91888 30.86684 28.39286
#
# Velocity S-wave (km/s) = 3.57482 3.90114 3.74154
# Velocity P-wave (km/s) = 5.06915 5.83238 5.46411
#
# Compressibility (1/GPa) = 0.05695277
#
# Stress axis : x y z
#
# Youngs Moduli (GPa) = 74.70088 38.46205 50.61319
#
# Poissons Ratio (x) = -0.09207 0.29168
# Poissons Ratio (y) = -0.17881 -0.11507
# Poissons Ratio (z) = 0.43049 -0.08744
#
# Static dielectric constant tensor:
#      x y z
#    x 1.729480 0.000000 -0.022790 
#    y 0.000000 1.679520 0.000000 
#    z -0.022790 0.000000 1.679240 
# 
# From -- ./inp_files/144176.got.cif
#   From: 2010.05.17/outbox.cif.g08.bks.cpg/sg15_73_cif.got.tgz:144176.got - 2010.06.03 18:47:42.
