data_PCOD9305325
_publ_section_title
;
Structure prediction by ZEFSAII (Michael W. Deem and Ramdas Pophale) SiO2 
 PCOD9305325
Probable space group: C 2/C
;
_chemical_formula_sum "Si O2"
_cell_formula_units_Z 40
_cell_length_a 36.753609
_cell_length_b 5.158568
_cell_length_c 9.516889
_cell_angle_alpha 90.000000
_cell_angle_beta 64.056089
_cell_angle_gamma 90.000000
_cell_volume 1622.525168
_symmetry_space_group_name_H-M "C 2/C"
_symmetry_group_IT_number 15
_symmetry_cell_setting 'monoclinic'
loop_
_space_group_symop_operation_xyz
x,y,z
-x,y,1/2-z
-x,-y,-z
x,-y,1/2+z
1/2+x,1/2+y,z
1/2-x,1/2+y,1/2-z
1/2-x,1/2-y,-z
1/2+x,1/2-y,1/2+z
loop_
_atom_site_type_symbol
_atom_site_label
_atom_site_fract_x
_atom_site_fract_y
_atom_site_fract_z
Si Si1 0.067020 0.471058 0.625841
Si Si2 0.960678 0.965910 0.972412
Si Si3 0.646942 0.721036 0.430300
Si Si4 0.235747 0.724522 0.861648
Si Si5 0.388620 0.354854 0.776459
O O1 0.040033 0.692258 0.602750
O O2 0.111410 0.431484 0.483928
O O3 0.083396 0.601587 0.741576
O O4 0.045228 0.199053 0.630293
O O5 0.921028 0.971059 0.138408
O O6 0.872552 0.990035 0.944494
O O7 0.000000 0.000000 0.000000
O O8 0.687410 0.814314 0.434412
O O9 0.650229 0.660561 0.259974
O O10 0.255393 0.485529 0.743015
O O11 0.250000 0.750000 0.000000
#
# Coordination Sequence:
#
# PCOD9305325 Si02
#       5
#     8   8   8   8   8
#     4  11  24  44  69 105 135 196 243 291 369 430
#     4  11  26  48  70 105 150 190 246 308 369 438
#     4  11  27  45  81 100 157 188 257 299 366 464
#     4  12  29  50  79 119 158 202 256 321 401 457
#     4  11  24  47  71 109 140 201 246 302 370 439
#
# _framework density 24.652933999999998
#
# number of rings (size 3 to 8) (size 9 to 14) (size 15 to 20)
#    0.000    0.800    4.000    2.400   11.200    0.800 
#    3.600    0.000    0.000    0.000    0.000    0.000 
#    0.000    0.000    0.000    0.000    0.000    0.000 
#
# Total GULP energy -111746.966054 kJ/mol
# GULP energy per Si atom -5587.348303 kJ/mol
# Density = 2.459682 g / cm^3
# Si number density = 24.652934 Si / 1000 Ang^3
#
#
#
# Elastic Constant Matrix: (Units=GPa)
#
#
# Indices 1 2 3 4 5 6 
#
# 1 214.6331 19.5528 41.3221 0.0000 36.1079 0.0000
# 2 19.5528 137.9364 35.8827 0.0000 23.4835 0.0000
# 3 41.3221 35.8827 79.9211 0.0000 35.9398 0.0000
# 4 0.0000 0.0000 0.0000 21.6781 0.0000 5.5867
# 5 36.1079 23.4835 35.9398 0.0000 55.1924 0.0000
# 6 0.0000 0.0000 0.0000 5.5867 0.0000 18.8148
#
#
#
# Elastic Compliance Matrix: (Units=1/GPa)
#
#
# Indices 1 2 3 4 5 6 
#
# 1 0.005395 0.000103 -0.001738 0.000000 -0.002442 0.000000
# 2 0.000103 0.008305 -0.003058 0.000000 -0.001610 0.000000
# 3 -0.001738 -0.003058 0.019355 0.000000 -0.010166 0.000000
# 4 0.000000 0.000000 0.000000 0.049952 0.000000 -0.014832
# 5 -0.002442 -0.001610 -0.010166 0.000000 0.027020 0.000000
# 6 0.000000 0.000000 0.000000 -0.014832 0.000000 0.057554
#
#
# Mechanical properties :
#
#
# Convention : Reuss Voigt Hill
#
# Bulk Modulus (GPa) = 42.24834 69.55620 55.90227
# Shear Modulus (GPa) = 27.04807 41.51926 34.28367
#
# Velocity S-wave (km/s) = 3.31593 4.10829 3.73319
# Velocity P-wave (km/s) = 5.64225 7.12597 6.42707
#
# Compressibility (1/GPa) = 0.02366957
#
# Stress axis : x y z
#
# Youngs Moduli (GPa) = 185.35465 120.41430 51.66595
#
# Poissons Ratio (x) = -0.01240 0.08977
# Poissons Ratio (y) = -0.01909 0.15800
# Poissons Ratio (z) = 0.32207 0.36823
#
# Static dielectric constant tensor:
#      x y z
#    x 2.059230 0.000000 0.183910 
#    y 0.000000 2.101540 0.000000 
#    z 0.183910 0.000000 2.196770 
# 
# From -- ./inp_files/124926.got.cif
#   From: 2010.05.17/outbox.cif.g08.bks.cpg/sg15_63_cif.got.tgz:124926.got - 2010.06.03 18:47:42.
