data_PCOD9305932
_publ_section_title
;
Structure prediction by ZEFSAII (Michael W. Deem and Ramdas Pophale) SiO2 
 PCOD9305932
Probable space group: C 2/C
;
_chemical_formula_sum "Si O2"
_cell_formula_units_Z 48
_cell_length_a 7.745337
_cell_length_b 17.786837
_cell_length_c 17.327854
_cell_angle_alpha 90.000000
_cell_angle_beta 61.252081
_cell_angle_gamma 90.000000
_cell_volume 2092.939805
_symmetry_space_group_name_H-M "C 2/C"
_symmetry_group_IT_number 15
_symmetry_cell_setting 'monoclinic'
loop_
_space_group_symop_operation_xyz
x,y,z
-x,y,1/2-z
-x,-y,-z
x,-y,1/2+z
1/2+x,1/2+y,z
1/2-x,1/2+y,1/2-z
1/2-x,1/2-y,-z
1/2+x,1/2-y,1/2+z
loop_
_atom_site_type_symbol
_atom_site_label
_atom_site_fract_x
_atom_site_fract_y
_atom_site_fract_z
Si Si1 0.657217 0.797011 0.924272
Si Si2 0.282345 0.808929 0.105006
Si Si3 0.409412 0.848128 0.351028
Si Si4 0.502604 0.586850 0.923109
Si Si5 0.040447 0.082893 0.091517
Si Si6 0.197851 0.332015 0.736236
O O1 0.794031 0.724415 0.909416
O O2 0.405150 0.650860 0.891834
O O3 0.663450 0.808069 0.831198
O O4 0.438799 0.787140 0.004733
O O5 0.409994 0.865474 0.131552
O O6 0.738419 0.630269 0.060914
O O7 0.230390 0.739642 0.172392
O O8 0.500000 0.825514 0.250000
O O9 0.240123 0.908814 0.372191
O O10 0.431139 0.505944 0.910185
O O11 0.452831 0.596886 0.024345
O O12 0.885719 0.115438 0.185533
O O13 0.000000 0.371889 0.750000
#
# Coordination Sequence:
#
# PCOD9305932 Si02
#       6
#     8   8   8   8   8   8
#     4  12  23  46  75 102 140 192 232 289 357 412
#     4  12  25  45  75 106 139 183 242 290 346 419
#     4  12  23  45  70 102 144 181 233 292 351 413
#     4  11  27  46  72 104 141 187 230 294 355 415
#     4  11  24  49  68 101 147 181 235 291 352 422
#     4  12  25  44  73 107 140 185 242 288 345 424
#
# _framework density 22.934248
#
# number of rings (size 3 to 8) (size 9 to 14) (size 15 to 20)
#    0.000    0.333    5.000    4.000    0.000    3.333 
#    9.000    0.000    0.000    0.000    0.000    0.000 
#    0.000    0.000    0.000    0.000    0.000    0.000 
#
# Total GULP energy -134410.228732 kJ/mol
# GULP energy per Si atom -5600.426197 kJ/mol
# Density = 2.288205 g / cm^3
# Si number density = 22.934248 Si / 1000 Ang^3
#
#
#
# Elastic Constant Matrix: (Units=GPa)
#
#
# Indices 1 2 3 4 5 6 
#
# 1 89.8290 14.2271 18.8038 0.0000 8.1520 0.0000
# 2 14.2271 94.0619 23.3385 0.0000 16.0303 0.0000
# 3 18.8038 23.3385 139.5497 0.0000 12.9632 0.0000
# 4 0.0000 0.0000 0.0000 15.7752 0.0000 1.6057
# 5 8.1520 16.0303 12.9632 0.0000 34.3215 0.0000
# 6 0.0000 0.0000 0.0000 1.6057 0.0000 31.4602
#
#
#
# Elastic Compliance Matrix: (Units=1/GPa)
#
#
# Indices 1 2 3 4 5 6 
#
# 1 0.011734 -0.001169 -0.001220 0.000000 -0.001780 0.000000
# 2 -0.001169 0.011971 -0.001400 0.000000 -0.004785 0.000000
# 3 -0.001220 -0.001400 0.007749 0.000000 -0.001983 0.000000
# 4 0.000000 0.000000 0.000000 0.063722 0.000000 -0.003252
# 5 -0.001780 -0.004785 -0.001983 0.000000 0.032543 0.000000
# 6 0.000000 0.000000 0.000000 -0.003252 0.000000 0.031952
#
#
# Mechanical properties :
#
#
# Convention : Reuss Voigt Hill
#
# Bulk Modulus (GPa) = 41.88340 48.46439 45.17390
# Shear Modulus (GPa) = 28.53761 34.11612 31.32687
#
# Velocity S-wave (km/s) = 3.53132 3.86108 3.69988
# Velocity P-wave (km/s) = 5.91008 6.40742 6.16377
#
# Compressibility (1/GPa) = 0.02387580
#
# Stress axis : x y z
#
# Youngs Moduli (GPa) = 85.21975 83.53600 129.05408
#
# Poissons Ratio (x) = 0.09762 0.15749
# Poissons Ratio (y) = 0.09959 0.18069
# Poissons Ratio (z) = 0.10400 0.11696
#
# Static dielectric constant tensor:
#      x y z
#    x 1.886560 0.000000 0.015450 
#    y 0.000000 1.823120 0.000000 
#    z 0.015450 0.000000 1.888250 
# 
# From -- ./inp_files/232011.got.cif
#   From: 2010.05.17/outbox.cif.g08.bks.cpg/sg15_117_cif.got.tgz:232011.got - 2010.06.03 18:47:42.
