data_PCOD9305644
_publ_section_title
;
Structure prediction by ZEFSAII (Michael W. Deem and Ramdas Pophale) SiO2 
 PCOD9305644
Probable space group: C 2/C
;
_chemical_formula_sum "Si O2"
_cell_formula_units_Z 48
_cell_length_a 15.920188
_cell_length_b 13.014085
_cell_length_c 31.448371
_cell_angle_alpha 90.000000
_cell_angle_beta 19.294735
_cell_angle_gamma 90.000000
_cell_volume 2152.962102
_symmetry_space_group_name_H-M "C 2/C"
_symmetry_group_IT_number 15
_symmetry_cell_setting 'monoclinic'
loop_
_space_group_symop_operation_xyz
x,y,z
-x,y,1/2-z
-x,-y,-z
x,-y,1/2+z
1/2+x,1/2+y,z
1/2-x,1/2+y,1/2-z
1/2-x,1/2-y,-z
1/2+x,1/2-y,1/2+z
loop_
_atom_site_type_symbol
_atom_site_label
_atom_site_fract_x
_atom_site_fract_y
_atom_site_fract_z
Si Si1 0.309889 0.010886 0.915282
Si Si2 0.958085 0.201902 0.482536
Si Si3 0.082036 0.357049 0.352934
Si Si4 0.164379 0.856013 0.059352
Si Si5 0.929621 0.548048 0.078486
Si Si6 0.500000 0.681094 0.250000
Si Si7 0.500000 0.862131 0.750000
O O1 0.448916 0.936235 0.815369
O O2 0.479612 0.099581 0.857074
O O3 0.196785 0.942783 0.007581
O O4 0.098169 0.080747 0.994159
O O5 0.727273 0.253336 0.619696
O O6 0.960906 0.260541 0.435596
O O7 0.244413 0.205405 0.364671
O O8 0.376819 0.338183 0.208133
O O9 0.066910 0.453640 0.391342
O O10 0.250000 0.750000 0.000000
O O11 0.344003 0.880961 0.013157
O O12 0.660597 0.607459 0.205064
O O13 0.000000 0.500000 0.000000
#
# Coordination Sequence:
#
# PCOD9305644 Si02
#       7
#     8   8   8   8   8   4   4
#     4  11  26  48  72 107 148 192 246 307 373 441
#     4  12  27  45  77 110 148 194 248 308 369 442
#     4  11  25  45  73 106 148 189 244 305 370 440
#     4  11  26  43  73 104 144 193 242 301 370 441
#     4  11  24  46  71 105 146 194 242 302 368 437
#     4  12  27  43  76 110 150 190 251 305 370 444
#     4  12  27  51  76 106 148 200 249 303 370 448
#
# _framework density 22.294865999999999
#
# number of rings (size 3 to 8) (size 9 to 14) (size 15 to 20)
#    0.000    0.667    1.667    4.500    9.333    2.000 
#    0.000    0.000    0.000    0.000    0.000    0.000 
#    0.000    0.000    0.000    0.000    0.000    0.000 
#
# Total GULP energy -134167.887652 kJ/mol
# GULP energy per Si atom -5590.328652 kJ/mol
# Density = 2.224412 g / cm^3
# Si number density = 22.294866 Si / 1000 Ang^3
#
#
#
# Elastic Constant Matrix: (Units=GPa)
#
#
# Indices 1 2 3 4 5 6 
#
# 1 86.5631 18.3846 39.4205 0.0739 5.1158 -0.0482
# 2 18.3846 85.0747 26.8499 -0.0025 -0.6802 -0.0428
# 3 39.4205 26.8499 139.4297 0.3049 -7.5220 -0.2537
# 4 0.0739 -0.0025 0.3049 42.2390 -0.2087 10.1918
# 5 5.1158 -0.6802 -7.5220 -0.2087 29.7548 0.0283
# 6 -0.0482 -0.0428 -0.2537 10.1918 0.0283 29.8167
#
#
#
# Elastic Compliance Matrix: (Units=1/GPa)
#
#
# Indices 1 2 3 4 5 6 
#
# 1 0.013846 -0.001838 -0.003742 -0.000013 -0.003369 -0.000004
# 2 -0.001838 0.012762 -0.001932 0.000020 0.000120 -0.000008
# 3 -0.003742 -0.001932 0.008754 -0.000063 0.002812 0.000085
# 4 -0.000013 0.000020 -0.000063 0.025805 0.000176 -0.008821
# 5 -0.003369 0.000120 0.002812 0.000176 0.034902 -0.000075
# 6 -0.000004 -0.000008 0.000085 -0.008821 -0.000075 0.036554
#
#
# Mechanical properties :
#
#
# Convention : Reuss Voigt Hill
#
# Bulk Modulus (GPa) = 49.16814 53.37527 51.27171
# Shear Modulus (GPa) = 32.37790 35.45627 33.91709
#
# Velocity S-wave (km/s) = 3.81498 3.99222 3.90461
# Velocity P-wave (km/s) = 6.44259 6.72630 6.58597
#
# Compressibility (1/GPa) = 0.02033837
#
# Stress axis : x y z
#
# Youngs Moduli (GPa) = 72.22307 78.35698 114.23222
#
# Poissons Ratio (x) = 0.14401 0.42751
# Poissons Ratio (y) = 0.13274 0.22065
# Poissons Ratio (z) = 0.27029 0.15135
#
# Static dielectric constant tensor:
#      x y z
#    x 0.569670 -0.001400 -0.256590 
#    y -0.001400 1.785950 -0.000190 
#    z -0.256590 -0.000190 1.731370 
# 
# From -- ./inp_files/314095.got.cif
#   From: 2010.05.17/outbox.cif.g08.bks.cpg/sg15_158_cif.got.tgz:314095.got - 2010.06.03 18:47:42.
