data_PCOD9305864
_publ_section_title
;
Structure prediction by ZEFSAII (Michael W. Deem and Ramdas Pophale) SiO2 
 PCOD9305864
Probable space group: C 2/C
;
_chemical_formula_sum "Si O2"
_cell_formula_units_Z 40
_cell_length_a 19.172533
_cell_length_b 19.153837
_cell_length_c 14.327005
_cell_angle_alpha 90.000000
_cell_angle_beta 160.614494
_cell_angle_gamma 90.000000
_cell_volume 1746.334394
_symmetry_space_group_name_H-M "C 2/C"
_symmetry_group_IT_number 15
_symmetry_cell_setting 'monoclinic'
loop_
_space_group_symop_operation_xyz
x,y,z
-x,y,1/2-z
-x,-y,-z
x,-y,1/2+z
1/2+x,1/2+y,z
1/2-x,1/2+y,1/2-z
1/2-x,1/2-y,-z
1/2+x,1/2-y,1/2+z
loop_
_atom_site_type_symbol
_atom_site_label
_atom_site_fract_x
_atom_site_fract_y
_atom_site_fract_z
Si Si1 0.000000 0.638103 0.750000
Si Si2 0.888131 0.217792 0.332636
Si Si3 0.887253 0.817282 0.202351
Si Si4 0.615196 0.976475 0.239010
Si Si5 0.000000 0.411769 0.750000
Si Si6 0.169602 0.149357 0.542022
O O1 0.812073 0.684402 0.472198
O O2 0.944672 0.586349 0.765489
O O3 0.873688 0.300296 0.292955
O O4 0.929346 0.203090 0.493363
O O5 0.076846 0.178104 0.520622
O O6 0.000000 0.845502 0.250000
O O7 0.750000 0.750000 0.000000
O O8 0.711507 0.866242 0.029090
O O9 0.811464 0.934294 0.440510
O O10 0.575248 0.041386 0.257323
O O11 0.500000 0.000000 0.000000
O O12 0.000000 0.169322 0.250000
#
# Coordination Sequence:
#
# PCOD9305864 Si02
#       6
#     4   8   8   8   4   8
#     4  11  24  48  70 112 147 198 252 326 375 446
#     4  12  25  45  77 113 152 186 266 323 376 454
#     4  12  27  49  80 114 151 202 251 317 392 447
#     4  11  26  46  72  99 154 199 246 310 374 457
#     4  11  28  54  70 114 153 198 268 304 373 472
#     4  12  23  44  74 110 150 196 247 318 390 440
#
# _framework density 22.90512
#
# number of rings (size 3 to 8) (size 9 to 14) (size 15 to 20)
#    0.000    0.400    4.000    4.200    5.600    0.800 
#    0.000    3.000    0.000    0.000    0.000    0.000 
#    0.000    0.000    0.000    0.000    0.000    0.000 
#
# Total GULP energy -111360.352905 kJ/mol
# GULP energy per Si atom -5568.017645 kJ/mol
# Density = 2.285299 g / cm^3
# Si number density = 22.905120 Si / 1000 Ang^3
#
#
#
# Elastic Constant Matrix: (Units=GPa)
#
#
# Indices 1 2 3 4 5 6 
#
# 1 100.4152 23.9282 52.4222 0.0000 -25.3466 0.0000
# 2 23.9282 92.9915 68.9020 0.0000 -15.5744 0.0000
# 3 52.4222 68.9020 133.9675 0.0000 -27.7406 0.0001
# 4 0.0000 0.0000 0.0000 43.6562 0.0000 2.7947
# 5 -25.3466 -15.5744 -27.7406 0.0000 53.2465 0.0001
# 6 0.0000 0.0000 0.0001 2.7947 0.0001 8.7525
#
#
#
# Elastic Compliance Matrix: (Units=1/GPa)
#
#
# Indices 1 2 3 4 5 6 
#
# 1 0.013284 0.000793 -0.004762 0.000000 0.004074 0.000000
# 2 0.000793 0.017433 -0.009127 0.000000 0.000721 0.000000
# 3 -0.004762 -0.009127 0.014572 0.000000 0.002655 0.000000
# 4 0.000000 0.000000 0.000000 0.023384 0.000000 -0.007467
# 5 0.004074 0.000721 0.002655 0.000000 0.022315 0.000000
# 6 0.000000 0.000000 0.000000 -0.007467 0.000000 0.116638
#
#
# Mechanical properties :
#
#
# Convention : Reuss Voigt Hill
#
# Bulk Modulus (GPa) = 52.36575 68.65322 60.50948
# Shear Modulus (GPa) = 20.81735 33.27250 27.04492
#
# Velocity S-wave (km/s) = 3.01799 3.81546 3.43991
# Velocity P-wave (km/s) = 5.92081 7.03195 6.50016
#
# Compressibility (1/GPa) = 0.01909645
#
# Stress axis : x y z
#
# Youngs Moduli (GPa) = 75.27642 57.36195 68.62488
#
# Poissons Ratio (x) = -0.04547 0.32681
# Poissons Ratio (y) = -0.05967 0.62634
# Poissons Ratio (z) = 0.35848 0.52354
#
# Static dielectric constant tensor:
#      x y z
#    x 2.191130 0.000000 0.061260 
#    y 0.000000 1.886980 0.000000 
#    z 0.061260 0.000000 1.873490 
# 
# From -- ./inp_files/169241.got.cif
#   From: 2010.05.17/outbox.cif.g08.bks.cpg/sg15_85_cif.got.tgz:169241.got - 2010.06.03 18:47:42.
