data_PCOD9305762
_publ_section_title
;
Structure prediction by ZEFSAII (Michael W. Deem and Ramdas Pophale) SiO2 
 PCOD9305762
Probable space group: C 2/C
;
_chemical_formula_sum "Si O2"
_cell_formula_units_Z 48
_cell_length_a 17.483154
_cell_length_b 6.615554
_cell_length_c 23.485951
_cell_angle_alpha 90.000000
_cell_angle_beta 49.644618
_cell_angle_gamma 90.000000
_cell_volume 2070.015080
_symmetry_space_group_name_H-M "C 2/C"
_symmetry_group_IT_number 15
_symmetry_cell_setting 'monoclinic'
loop_
_space_group_symop_operation_xyz
x,y,z
-x,y,1/2-z
-x,-y,-z
x,-y,1/2+z
1/2+x,1/2+y,z
1/2-x,1/2+y,1/2-z
1/2-x,1/2-y,-z
1/2+x,1/2-y,1/2+z
loop_
_atom_site_type_symbol
_atom_site_label
_atom_site_fract_x
_atom_site_fract_y
_atom_site_fract_z
Si Si1 0.635624 0.387891 0.310818
Si Si2 0.145005 0.401131 0.044476
Si Si3 0.512563 0.179408 0.040314
Si Si4 0.185169 0.986406 0.459598
Si Si5 0.506914 0.693192 0.307521
Si Si6 0.825213 0.529444 0.283311
O O1 0.591110 0.270082 0.386668
O O2 0.559213 0.565634 0.332037
O O3 0.746194 0.461890 0.272718
O O4 0.639928 0.247930 0.253432
O O5 0.063079 0.566283 0.069265
O O6 0.247194 0.508464 0.015324
O O7 0.099234 0.268184 0.117713
O O8 0.154566 0.247498 0.986326
O O9 0.591296 0.364652 0.992287
O O10 0.500000 0.000000 0.000000
O O11 0.262321 0.023362 0.371368
O O12 0.500000 0.583922 0.250000
O O13 0.581407 0.879690 0.259896
#
# Coordination Sequence:
#
# PCOD9305762 Si02
#       6
#     8   8   8   8   8   8
#     4  12  27  44  71 101 145 183 234 295 353 426
#     4  11  24  47  70 101 143 183 237 298 357 425
#     4  12  27  43  71 107 140 187 239 291 364 430
#     4  11  26  45  72 101 140 189 239 295 355 426
#     4  12  25  47  73 104 140 186 240 293 358 424
#     4  12  26  45  71 104 137 186 233 290 355 425
#
# _framework density 23.188237999999998
#
# number of rings (size 3 to 8) (size 9 to 14) (size 15 to 20)
#    0.000    0.333    6.667    1.500    4.667    4.667 
#    0.000    0.000    0.000    0.000    0.000    0.000 
#    0.000    0.000    0.000    0.000    0.000    0.000 
#
# Total GULP energy -134088.941760 kJ/mol
# GULP energy per Si atom -5587.039240 kJ/mol
# Density = 2.313546 g / cm^3
# Si number density = 23.188238 Si / 1000 Ang^3
#
#
#
# Elastic Constant Matrix: (Units=GPa)
#
#
# Indices 1 2 3 4 5 6 
#
# 1 92.5371 22.3533 -1.9657 0.0010 -4.1075 0.0040
# 2 22.3533 72.5241 23.7230 0.0045 -4.5761 0.0070
# 3 -1.9657 23.7230 99.6954 -0.0002 -6.0099 0.0005
# 4 0.0010 0.0045 -0.0002 29.7412 -0.0001 -1.7498
# 5 -4.1075 -4.5761 -6.0099 -0.0001 36.5429 0.0004
# 6 0.0040 0.0070 0.0005 -1.7498 0.0004 38.3049
#
#
#
# Elastic Compliance Matrix: (Units=1/GPa)
#
#
# Indices 1 2 3 4 5 6 
#
# 1 0.011843 -0.003993 0.001246 0.000000 0.001036 -0.000001
# 2 -0.003993 0.016360 -0.003914 -0.000002 0.000956 -0.000003
# 3 0.001246 -0.003914 0.011075 0.000001 0.001471 0.000000
# 4 0.000000 -0.000002 0.000001 0.033714 0.000000 0.001540
# 5 0.001036 0.000956 0.001471 0.000000 0.027843 -0.000001
# 6 -0.000001 -0.000003 0.000000 0.001540 -0.000001 0.026177
#
#
# Mechanical properties :
#
#
# Convention : Reuss Voigt Hill
#
# Bulk Modulus (GPa) = 38.52480 39.21974 38.87227
# Shear Modulus (GPa) = 33.56029 35.62753 34.59391
#
# Velocity S-wave (km/s) = 3.80846 3.92401 3.86667
# Velocity P-wave (km/s) = 5.99910 6.12216 6.06094
#
# Compressibility (1/GPa) = 0.02595730
#
# Stress axis : x y z
#
# Youngs Moduli (GPa) = 84.43535 61.12579 90.29213
#
# Poissons Ratio (x) = 0.24405 -0.11251
# Poissons Ratio (y) = 0.33711 0.35340
# Poissons Ratio (z) = -0.10521 0.23924
#
# Static dielectric constant tensor:
#      x y z
#    x 1.927860 -0.000010 0.035010 
#    y -0.000010 1.906160 0.000000 
#    z 0.035010 0.000000 1.844230 
# 
# From -- ./inp_files/278832.got.cif
#   From: 2010.05.17/outbox.cif.g08.bks.cpg/sg15_140_cif.got.tgz:278832.got - 2010.06.03 18:47:42.
