data_PCOD9305402
_publ_section_title
;
Structure prediction by ZEFSAII (Michael W. Deem and Ramdas Pophale) SiO2 
 PCOD9305402
Probable space group: C 2/C
;
_chemical_formula_sum "Si O2"
_cell_formula_units_Z 64
_cell_length_a 18.860805
_cell_length_b 17.322727
_cell_length_c 14.516042
_cell_angle_alpha 90.000000
_cell_angle_beta 143.452190
_cell_angle_gamma 90.000000
_cell_volume 2824.240127
_symmetry_space_group_name_H-M "C 2/C"
_symmetry_group_IT_number 15
_symmetry_cell_setting 'monoclinic'
loop_
_space_group_symop_operation_xyz
x,y,z
-x,y,1/2-z
-x,-y,-z
x,-y,1/2+z
1/2+x,1/2+y,z
1/2-x,1/2+y,1/2-z
1/2-x,1/2-y,-z
1/2+x,1/2-y,1/2+z
loop_
_atom_site_type_symbol
_atom_site_label
_atom_site_fract_x
_atom_site_fract_y
_atom_site_fract_z
Si Si1 0.712736 0.972177 0.308979
Si Si2 0.676477 0.864628 0.682314
Si Si3 0.808571 0.804012 0.639625
Si Si4 0.043749 0.810224 0.207696
Si Si5 0.199265 0.739138 0.576429
Si Si6 0.865536 0.024927 0.142190
Si Si7 0.404544 0.438539 0.367229
Si Si8 0.585128 0.174425 0.630185
O O1 0.766928 0.996800 0.463178
O O2 0.820046 0.931509 0.366054
O O3 0.612657 0.906199 0.210223
O O4 0.676311 0.045540 0.208990
O O5 0.722549 0.837838 0.630287
O O6 0.759889 0.822370 0.843605
O O7 0.544206 0.831198 0.549243
O O8 0.750000 0.750000 0.500000
O O9 0.857259 0.882781 0.648203
O O10 0.900563 0.747337 0.787679
O O11 0.184423 0.789527 0.357986
O O12 0.036114 0.859942 0.106516
O O13 0.000000 0.858843 0.250000
O O14 0.936343 0.747578 0.100257
O O15 0.179744 0.686783 0.646443
O O16 0.000000 0.012935 0.250000
O O17 0.155804 0.977155 0.285994
O O18 0.500000 0.500000 0.500000
#
# Coordination Sequence:
#
# PCOD9305402 Si02
#       8
#     8   8   8   8   8   8   8   8
#     4  12  24  46  70 102 147 193 242 298 367 448
#     4  11  25  44  73  99 146 195 240 296 377 437
#     4  11  25  43  68 109 143 182 244 312 370 442
#     4  12  26  45  72 102 143 186 243 304 361 433
#     4  11  24  45  70 102 137 190 240 300 361 431
#     4  12  26  42  70 108 142 183 241 304 374 441
#     4  12  25  43  68 104 142 185 236 298 370 437
#     4  11  24  44  73  99 140 197 243 293 367 448
#
# _framework density 22.660962999999999
#
# number of rings (size 3 to 8) (size 9 to 14) (size 15 to 20)
#    0.000    0.500    6.250    1.875    5.250    0.000 
#    0.000    0.000    0.000    0.000    0.000    0.000 
#    0.000    0.000    0.000    0.000    0.000    0.000 
#
# Total GULP energy -178664.497224 kJ/mol
# GULP energy per Si atom -5583.265538 kJ/mol
# Density = 2.260939 g / cm^3
# Si number density = 22.660963 Si / 1000 Ang^3
#
#
#
# Elastic Constant Matrix: (Units=GPa)
#
#
# Indices 1 2 3 4 5 6 
#
# 1 80.9013 17.2284 27.2813 0.0000 -2.6202 0.0000
# 2 17.2284 100.7019 30.4194 0.0000 5.5075 0.0000
# 3 27.2813 30.4194 123.1634 0.0000 3.7746 0.0000
# 4 0.0000 0.0000 0.0000 30.1436 0.0000 -3.8668
# 5 -2.6202 5.5075 3.7746 0.0000 36.0395 0.0000
# 6 0.0000 0.0000 0.0000 -3.8668 0.0000 28.8554
#
#
#
# Elastic Compliance Matrix: (Units=1/GPa)
#
#
# Indices 1 2 3 4 5 6 
#
# 1 0.013655 -0.001612 -0.002673 0.000000 0.001519 0.000000
# 2 -0.001612 0.010989 -0.002309 0.000000 -0.001555 0.000000
# 3 -0.002673 -0.002309 0.009307 0.000000 -0.000816 0.000000
# 4 0.000000 0.000000 0.000000 0.033755 0.000000 0.004523
# 5 0.001519 -0.001555 -0.000816 0.000000 0.028181 0.000000
# 6 0.000000 0.000000 0.000000 0.004523 0.000000 0.035262
#
#
# Mechanical properties :
#
#
# Convention : Reuss Voigt Hill
#
# Bulk Modulus (GPa) = 48.16546 50.51387 49.33966
# Shear Modulus (GPa) = 33.05652 34.33021 33.69337
#
# Velocity S-wave (km/s) = 3.82349 3.89646 3.86015
# Velocity P-wave (km/s) = 6.38695 6.52554 6.45662
#
# Compressibility (1/GPa) = 0.02076177
#
# Stress axis : x y z
#
# Youngs Moduli (GPa) = 73.23566 91.00289 107.44852
#
# Poissons Ratio (x) = 0.14667 0.28721
# Poissons Ratio (y) = 0.11803 0.24814
# Poissons Ratio (z) = 0.19576 0.21016
#
# Static dielectric constant tensor:
#      x y z
#    x 1.885630 0.000000 -0.039160 
#    y 0.000000 1.898880 0.000000 
#    z -0.039160 0.000000 1.940560 
# 
# From -- ./inp_files/163301.got.cif
#   From: 2010.05.17/outbox.cif.g08.bks.cpg/sg15_82_cif.got.tgz:163301.got - 2010.06.03 18:47:42.
