data_PCOD9305365
_publ_section_title
;
Structure prediction by ZEFSAII (Michael W. Deem and Ramdas Pophale) SiO2 
 PCOD9305365
Probable space group: C 2/C
;
_chemical_formula_sum "Si O2"
_cell_formula_units_Z 40
_cell_length_a 14.821595
_cell_length_b 10.137009
_cell_length_c 11.370135
_cell_angle_alpha 90.000000
_cell_angle_beta 104.702112
_cell_angle_gamma 90.000000
_cell_volume 1652.391318
_symmetry_space_group_name_H-M "C 2/C"
_symmetry_group_IT_number 15
_symmetry_cell_setting 'monoclinic'
loop_
_space_group_symop_operation_xyz
x,y,z
-x,y,1/2-z
-x,-y,-z
x,-y,1/2+z
1/2+x,1/2+y,z
1/2-x,1/2+y,1/2-z
1/2-x,1/2-y,-z
1/2+x,1/2-y,1/2+z
loop_
_atom_site_type_symbol
_atom_site_label
_atom_site_fract_x
_atom_site_fract_y
_atom_site_fract_z
Si Si1 0.002044 0.191383 0.044991
Si Si2 0.574859 0.569380 0.862065
Si Si3 0.294485 0.295105 0.391818
Si Si4 0.456246 0.035657 0.858592
Si Si5 0.756052 0.962359 0.735686
O O1 0.030166 0.307648 0.138433
O O2 0.979660 0.059465 0.108789
O O3 0.905396 0.222301 0.944595
O O4 0.082615 0.163382 0.976765
O O5 0.500000 0.634320 0.750000
O O6 0.667397 0.520518 0.829171
O O7 0.250000 0.250000 0.500000
O O8 0.276516 0.449220 0.358131
O O9 0.249162 0.196955 0.279049
O O10 0.500000 0.982536 0.750000
O O11 0.348695 0.000734 0.830375
O O12 0.500000 0.000000 0.000000
#
# Coordination Sequence:
#
# PCOD9305365 Si02
#       5
#     8   8   8   8   8
#     4  11  24  45  74 102 156 190 258 321 387 452
#     4  11  24  44  71 111 144 200 251 324 382 465
#     4  12  25  49  73 109 150 202 255 320 385 465
#     4  12  28  49  75 111 151 203 252 319 387 458
#     4  12  28  46  80 106 153 203 261 314 396 458
#
# _framework density 24.207343000000002
#
# number of rings (size 3 to 8) (size 9 to 14) (size 15 to 20)
#    0.000    0.400    6.000    1.800    2.800    3.200 
#    0.000    0.000    0.000    0.000    0.000    0.000 
#    0.000    0.000    0.000    0.000    0.000    0.000 
#
# Total GULP energy -111819.899925 kJ/mol
# GULP energy per Si atom -5590.994996 kJ/mol
# Density = 2.415225 g / cm^3
# Si number density = 24.207343 Si / 1000 Ang^3
#
#
#
# Elastic Constant Matrix: (Units=GPa)
#
#
# Indices 1 2 3 4 5 6 
#
# 1 131.8008 -14.3818 40.9580 0.0000 -5.0995 0.0000
# 2 -14.3818 82.9129 31.7443 0.0000 -0.9876 0.0000
# 3 40.9580 31.7443 101.4995 0.0000 -22.5641 0.0000
# 4 0.0000 0.0000 0.0000 88.0319 0.0000 39.3856
# 5 -5.0995 -0.9876 -22.5641 0.0000 45.3516 0.0000
# 6 0.0000 0.0000 0.0000 39.3856 0.0000 54.3179
#
#
#
# Elastic Compliance Matrix: (Units=1/GPa)
#
#
# Indices 1 2 3 4 5 6 
#
# 1 0.009601 0.003703 -0.005368 0.000000 -0.001511 0.000000
# 2 0.003703 0.015303 -0.006874 0.000000 -0.002670 0.000000
# 3 -0.005368 -0.006874 0.015742 0.000000 0.007079 0.000000
# 4 0.000000 0.000000 0.000000 0.016814 0.000000 -0.012192
# 5 -0.001511 -0.002670 0.007079 0.000000 0.025344 0.000000
# 6 0.000000 0.000000 0.000000 -0.012192 0.000000 0.027250
#
#
# Mechanical properties :
#
#
# Convention : Reuss Voigt Hill
#
# Bulk Modulus (GPa) = 42.43167 48.09489 45.26328
# Shear Modulus (GPa) = 37.04009 54.73311 45.88660
#
# Velocity S-wave (km/s) = 3.91592 4.76017 4.35853
# Velocity P-wave (km/s) = 6.16541 7.07978 6.63836
#
# Compressibility (1/GPa) = 0.02356730
#
# Stress axis : x y z
#
# Youngs Moduli (GPa) = 104.15638 65.34657 63.52453
#
# Poissons Ratio (x) = -0.24195 0.34100
# Poissons Ratio (y) = -0.38565 0.43666
# Poissons Ratio (z) = 0.55912 0.44918
#
# Static dielectric constant tensor:
#      x y z
#    x 1.874910 0.000000 -0.002020 
#    y 0.000000 1.990400 0.000000 
#    z -0.002020 0.000000 2.086770 
# 
# From -- ./inp_files/94610.got.cif
#   From: 2010.05.17/outbox.cif.g08.bks.cpg/sg15_48_cif.got.tgz:94610.got - 2010.06.03 18:47:42.
