data_PCOD9305963
_publ_section_title
;
Structure prediction by ZEFSAII (Michael W. Deem and Ramdas Pophale) SiO2 
 PCOD9305963
Probable space group: C 2/C
;
_chemical_formula_sum "Si O2"
_cell_formula_units_Z 40
_cell_length_a 7.409769
_cell_length_b 30.087390
_cell_length_c 14.151782
_cell_angle_alpha 90.000000
_cell_angle_beta 39.086744
_cell_angle_gamma 90.000000
_cell_volume 1989.220004
_symmetry_space_group_name_H-M "C 2/C"
_symmetry_group_IT_number 15
_symmetry_cell_setting 'monoclinic'
loop_
_space_group_symop_operation_xyz
x,y,z
-x,y,1/2-z
-x,-y,-z
x,-y,1/2+z
1/2+x,1/2+y,z
1/2-x,1/2+y,1/2-z
1/2-x,1/2-y,-z
1/2+x,1/2-y,1/2+z
loop_
_atom_site_type_symbol
_atom_site_label
_atom_site_fract_x
_atom_site_fract_y
_atom_site_fract_z
Si Si1 0.040644 0.788558 0.622379
Si Si2 0.683799 0.495687 0.581904
Si Si3 0.807043 0.851117 0.093756
Si Si4 0.332670 0.434917 0.582968
Si Si5 0.976048 0.228705 0.661246
O O1 0.250000 0.750000 0.500000
O O2 0.159782 0.832551 0.525811
O O3 0.000000 0.793477 0.750000
O O4 0.730910 0.768995 0.723494
O O5 0.500000 0.503165 0.750000
O O6 0.545531 0.452849 0.580973
O O7 0.655549 0.532182 0.511117
O O8 0.000000 0.500000 0.500000
O O9 0.500000 0.869786 0.250000
O O10 0.848377 0.806667 0.139762
O O11 0.050597 0.887879 0.001665
O O12 0.000000 0.432948 0.750000
O O13 0.250000 0.250000 0.500000
O O14 0.000000 0.202644 0.750000
#
# Coordination Sequence:
#
# PCOD9305963 Si02
#       5
#     8   8   8   8   8
#     4  12  21  43  65  86 126 182 238 284 341 401
#     4  11  24  49  82 105 140 186 231 278 355 436
#     4  12  27  44  64  98 141 180 235 292 346 414
#     4  11  27  47  72 111 147 180 228 293 355 422
#     4  12  23  39  65  91 125 178 235 289 344 400
#
# _framework density 20.108384000000001
#
# number of rings (size 3 to 8) (size 9 to 14) (size 15 to 20)
#    0.000    0.400    8.000    0.000    5.600    1.600 
#    0.000    0.000    0.000    0.000    0.000    0.000 
#    0.000    0.000    0.000    0.000    0.000    0.000 
#
# Total GULP energy -111384.398441 kJ/mol
# GULP energy per Si atom -5569.219922 kJ/mol
# Density = 2.006262 g / cm^3
# Si number density = 20.108384 Si / 1000 Ang^3
#
#
#
# Elastic Constant Matrix: (Units=GPa)
#
#
# Indices 1 2 3 4 5 6 
#
# 1 117.6183 11.9543 55.5209 0.0000 8.1010 0.0000
# 2 11.9543 53.8116 23.9926 0.0000 -1.0243 0.0000
# 3 55.5209 23.9926 175.1405 0.0000 4.9671 0.0000
# 4 0.0000 0.0000 0.0000 26.4653 0.0000 -6.2229
# 5 8.1010 -1.0243 4.9671 0.0000 48.5534 0.0000
# 6 0.0000 0.0000 0.0000 -6.2229 0.0000 14.9476
#
#
#
# Elastic Compliance Matrix: (Units=1/GPa)
#
#
# Indices 1 2 3 4 5 6 
#
# 1 0.010129 -0.000919 -0.003046 0.000000 -0.001398 0.000000
# 2 -0.000919 0.019899 -0.002458 0.000000 0.000825 0.000000
# 3 -0.003046 -0.002458 0.007019 0.000000 -0.000262 0.000000
# 4 0.000000 0.000000 0.000000 0.041886 0.000000 0.017438
# 5 -0.001398 0.000825 -0.000262 0.000000 0.020873 0.000000
# 6 0.000000 0.000000 0.000000 0.017438 0.000000 0.074160
#
#
# Mechanical properties :
#
#
# Convention : Reuss Voigt Hill
#
# Bulk Modulus (GPa) = 41.31770 58.83400 50.07585
# Shear Modulus (GPa) = 25.65692 35.00012 30.32852
#
# Velocity S-wave (km/s) = 3.57589 4.17654 3.88784
# Velocity P-wave (km/s) = 6.13526 7.25121 6.71645
#
# Compressibility (1/GPa) = 0.02420270
#
# Stress axis : x y z
#
# Youngs Moduli (GPa) = 98.72256 50.25341 142.46386
#
# Poissons Ratio (x) = 0.04618 0.43388
# Poissons Ratio (y) = 0.09072 0.35018
# Poissons Ratio (z) = 0.30067 0.12353
#
# Static dielectric constant tensor:
#      x y z
#    x 1.915060 0.000000 -0.077330 
#    y 0.000000 1.557130 0.000000 
#    z -0.077330 0.000000 1.691260 
# 
# From -- ./inp_files/139689.got.cif
#   From: 2010.05.17/outbox.cif.g08.bks.cpg/sg15_70_cif.got.tgz:139689.got - 2010.06.03 18:47:42.
