data_PCOD9305345
_publ_section_title
;
Structure prediction by ZEFSAII (Michael W. Deem and Ramdas Pophale) SiO2 
 PCOD9305345
Probable space group: C 2/C
;
_chemical_formula_sum "Si O2"
_cell_formula_units_Z 44
_cell_length_a 11.474780
_cell_length_b 24.230356
_cell_length_c 10.524426
_cell_angle_alpha 90.000000
_cell_angle_beta 38.931627
_cell_angle_gamma 90.000000
_cell_volume 1838.796245
_symmetry_space_group_name_H-M "C 2/C"
_symmetry_group_IT_number 15
_symmetry_cell_setting 'monoclinic'
loop_
_space_group_symop_operation_xyz
x,y,z
-x,y,1/2-z
-x,-y,-z
x,-y,1/2+z
1/2+x,1/2+y,z
1/2-x,1/2+y,1/2-z
1/2-x,1/2-y,-z
1/2+x,1/2-y,1/2+z
loop_
_atom_site_type_symbol
_atom_site_label
_atom_site_fract_x
_atom_site_fract_y
_atom_site_fract_z
Si Si1 0.392742 0.173517 0.519689
Si Si2 0.319492 0.706932 0.149691
Si Si3 0.801881 0.390389 0.350365
Si Si4 0.000000 0.180045 0.250000
Si Si5 0.844180 0.893467 0.477603
Si Si6 0.370531 0.991846 0.734795
O O1 0.313329 0.235358 0.583052
O O2 0.613205 0.182871 0.335502
O O3 0.335409 0.145451 0.698289
O O4 0.686317 0.134355 0.023005
O O5 0.415214 0.714820 0.205517
O O6 0.427135 0.658772 0.983432
O O7 0.659121 0.359536 0.561288
O O8 0.750584 0.452591 0.353782
O O9 0.000000 0.395113 0.250000
O O10 0.758919 0.938024 0.646371
O O11 0.000000 0.916954 0.250000
O O12 0.500000 0.986568 0.750000
O O13 0.500000 0.000000 0.500000
#
# Coordination Sequence:
#
# PCOD9305345 Si02
#       6
#     8   8   8   4   8   8
#     4  12  25  48  72 107 146 198 242 316 369 451
#     4  12  26  44  75 104 152 192 251 302 381 440
#     4  11  24  44  70 105 148 193 250 307 380 436
#     4  12  26  44  70 112 144 198 252 304 370 462
#     4  12  26  47  73 112 147 196 252 309 375 453
#     4  11  25  46  76 105 149 197 252 311 380 443
#
# _framework density 23.928699000000002
#
# number of rings (size 3 to 8) (size 9 to 14) (size 15 to 20)
#    0.000    0.364    1.818    7.636    5.091    1.455 
#    0.000    2.727    0.000    0.000    0.000    0.000 
#    0.000    0.000    0.000    0.000    0.000    0.000 
#
# Total GULP energy -123302.965706 kJ/mol
# GULP energy per Si atom -5604.680259 kJ/mol
# Density = 2.387424 g / cm^3
# Si number density = 23.928699 Si / 1000 Ang^3
#
#
#
# Elastic Constant Matrix: (Units=GPa)
#
#
# Indices 1 2 3 4 5 6 
#
# 1 104.4273 11.3040 36.5976 0.0000 7.3049 0.0000
# 2 11.3040 162.3380 51.3851 0.0000 9.4863 0.0000
# 3 36.5976 51.3851 115.1716 0.0000 7.4141 0.0000
# 4 0.0000 0.0000 0.0000 29.3799 0.0000 10.2382
# 5 7.3049 9.4863 7.4141 0.0000 45.6287 0.0000
# 6 0.0000 0.0000 0.0000 10.2382 0.0000 25.4944
#
#
#
# Elastic Compliance Matrix: (Units=1/GPa)
#
#
# Indices 1 2 3 4 5 6 
#
# 1 0.010867 0.000447 -0.003572 0.000000 -0.001252 0.000000
# 2 0.000447 0.007235 -0.003303 0.000000 -0.001039 0.000000
# 3 -0.003572 -0.003303 0.011329 0.000000 -0.000582 0.000000
# 4 0.000000 0.000000 0.000000 0.039575 0.000000 -0.015893
# 5 -0.001252 -0.001039 -0.000582 0.000000 0.022427 0.000000
# 6 0.000000 0.000000 0.000000 -0.015893 0.000000 0.045607
#
#
# Mechanical properties :
#
#
# Convention : Reuss Voigt Hill
#
# Bulk Modulus (GPa) = 60.33200 64.50116 62.41658
# Shear Modulus (GPa) = 32.17058 38.94394 35.55726
#
# Velocity S-wave (km/s) = 3.67063 4.03860 3.85901
# Velocity P-wave (km/s) = 6.57516 6.98292 6.78210
#
# Compressibility (1/GPa) = 0.01657495
#
# Stress axis : x y z
#
# Youngs Moduli (GPa) = 92.02076 138.21419 88.26876
#
# Poissons Ratio (x) = -0.06180 0.31530
# Poissons Ratio (y) = -0.04115 0.29157
# Poissons Ratio (z) = 0.32871 0.45655
#
# Static dielectric constant tensor:
#      x y z
#    x 2.011290 0.000000 -0.013650 
#    y 0.000000 1.922490 0.000000 
#    z -0.013650 0.000000 1.928200 
# 
# From -- ./inp_files/101042.got.cif
#   From: 2010.05.17/outbox.cif.g08.bks.cpg/sg15_51_cif.got.tgz:101042.got - 2010.06.03 18:47:42.
