data_PCOD9305893
_publ_section_title
;
Structure prediction by ZEFSAII (Michael W. Deem and Ramdas Pophale) SiO2 
 PCOD9305893
Probable space group: C 2/C
;
_chemical_formula_sum "Si O2"
_cell_formula_units_Z 32
_cell_length_a 13.437947
_cell_length_b 19.756088
_cell_length_c 7.551255
_cell_angle_alpha 90.000000
_cell_angle_beta 137.555332
_cell_angle_gamma 90.000000
_cell_volume 1352.938979
_symmetry_space_group_name_H-M "C 2/C"
_symmetry_group_IT_number 15
_symmetry_cell_setting 'monoclinic'
loop_
_space_group_symop_operation_xyz
x,y,z
-x,y,1/2-z
-x,-y,-z
x,-y,1/2+z
1/2+x,1/2+y,z
1/2-x,1/2+y,1/2-z
1/2-x,1/2-y,-z
1/2+x,1/2-y,1/2+z
loop_
_atom_site_type_symbol
_atom_site_label
_atom_site_fract_x
_atom_site_fract_y
_atom_site_fract_z
Si Si1 0.055716 0.824954 0.512161
Si Si2 0.739997 0.289054 0.176450
Si Si3 0.338667 0.073439 0.957371
Si Si4 0.348305 0.452597 0.958648
O O1 0.166537 0.766452 0.597518
O O2 0.124322 0.896805 0.661825
O O3 0.000000 0.848769 0.250000
O O4 0.925319 0.799542 0.467884
O O5 0.823602 0.360286 0.313146
O O6 0.750000 0.250000 0.000000
O O7 0.256281 0.011857 0.751751
O O8 0.500000 0.059780 0.250000
O O9 0.244539 0.084368 0.010639
O O10 0.500000 0.479853 0.250000
#
# Coordination Sequence:
#
# PCOD9305893 Si02
#       4
#     8   8   8   8
#     4  11  24  48  73 107 150 205 261 325 390 466
#     4  12  27  45  75 113 155 204 268 326 392 471
#     4  12  27  49  77 119 161 209 260 330 396 468
#     4  11  25  48  80 111 158 208 268 319 390 476
#
# _framework density 23.652211000000001
#
# number of rings (size 3 to 8) (size 9 to 14) (size 15 to 20)
#    0.000    0.500    5.000    3.750    7.000    0.000 
#    0.000    0.000    0.000    0.000    0.000    0.000 
#    0.000    0.000    0.000    0.000    0.000    0.000 
#
# Total GULP energy -89204.448292 kJ/mol
# GULP energy per Si atom -5575.278018 kJ/mol
# Density = 2.359838 g / cm^3
# Si number density = 23.652211 Si / 1000 Ang^3
#
#
#
# Elastic Constant Matrix: (Units=GPa)
#
#
# Indices 1 2 3 4 5 6 
#
# 1 133.2157 37.9288 37.9724 0.0000 23.6924 0.0000
# 2 37.9288 168.7906 27.3708 0.0000 40.6908 0.0000
# 3 37.9724 27.3708 81.0104 0.0000 64.5505 0.0000
# 4 0.0000 0.0000 0.0000 30.7316 0.0000 13.7709
# 5 23.6924 40.6908 64.5505 0.0000 13.9390 0.0000
# 6 0.0000 0.0000 0.0000 13.7709 0.0000 36.2189
#
#
#
# Elastic Compliance Matrix: (Units=1/GPa)
#
#
# Indices 1 2 3 4 5 6 
#
# 1 0.008791 -0.001133 -0.002057 0.000000 -0.002110 0.000000
# 2 -0.001133 0.006061 -0.004107 0.000000 0.003251 0.000000
# 3 -0.002057 -0.004107 -0.000876 0.000000 0.019543 0.000000
# 4 0.000000 0.000000 0.000000 0.039222 0.000000 -0.014913
# 5 -0.002110 0.003251 0.019543 0.000000 -0.024663 0.000000
# 6 0.000000 0.000000 0.000000 -0.014913 0.000000 0.033280
#
#
# Mechanical properties :
#
#
# Convention : Reuss Voigt Hill
#
# Bulk Modulus (GPa) = -1618.81169 65.50673 -776.65248
# Shear Modulus (GPa) = 65.61459 34.82755 50.22107
#
# Velocity S-wave (km/s) = 5.27273 3.84146 4.61294
# Velocity P-wave (km/s) = 25.47234 6.88707 17.34082
#
# Compressibility (1/GPa) = -0.00061774
#
# Stress axis : x y z
#
# Youngs Moduli (GPa) = 113.75650 164.97614 -1141.18455
#
# Poissons Ratio (x) = 0.18696 -2.34691
# Poissons Ratio (y) = 0.12892 -4.68684
# Poissons Ratio (z) = 0.23395 0.67756
#
# Static dielectric constant tensor:
#      x y z
#    x 1.915390 0.000000 -0.079490 
#    y 0.000000 6.116090 0.000000 
#    z -0.079490 0.000000 -0.128300 
# 
# From -- ./inp_files/40465.got.cif
#   From: 2010.05.17/outbox.cif.g08.bks.cpg/sg15_21_cif.got.tgz:40465.got - 2010.06.03 18:47:42.
