data_PCOD9305311
_publ_section_title
;
Structure prediction by ZEFSAII (Michael W. Deem and Ramdas Pophale) SiO2 
 PCOD9305311
Probable space group: C 2/C
;
_chemical_formula_sum "Si O2"
_cell_formula_units_Z 60
_cell_length_a 21.099693
_cell_length_b 14.698829
_cell_length_c 21.221539
_cell_angle_alpha 90.000000
_cell_angle_beta 153.375752
_cell_angle_gamma 90.000000
_cell_volume 2949.490479
_symmetry_space_group_name_H-M "C 2/C"
_symmetry_group_IT_number 15
_symmetry_cell_setting 'monoclinic'
loop_
_space_group_symop_operation_xyz
x,y,z
-x,y,1/2-z
-x,-y,-z
x,-y,1/2+z
1/2+x,1/2+y,z
1/2-x,1/2+y,1/2-z
1/2-x,1/2-y,-z
1/2+x,1/2-y,1/2+z
loop_
_atom_site_type_symbol
_atom_site_label
_atom_site_fract_x
_atom_site_fract_y
_atom_site_fract_z
Si Si1 0.221051 0.564764 0.574268
Si Si2 0.271145 0.038441 0.061393
Si Si3 0.926973 0.284996 0.487807
Si Si4 0.845717 0.058275 0.294773
Si Si5 0.500000 0.182377 0.250000
Si Si6 0.316506 0.554185 0.894371
Si Si7 0.717948 0.248296 0.195179
Si Si8 0.013115 0.160331 0.849836
O O1 0.196090 0.519647 0.483481
O O2 0.092998 0.625916 0.486963
O O3 0.269441 0.494261 0.670343
O O4 0.354740 0.634425 0.689921
O O5 0.379373 0.120011 0.172215
O O6 0.269807 0.969459 0.118696
O O7 0.113319 0.077852 0.921970
O O8 0.783181 0.272612 0.321429
O O9 0.962169 0.192244 0.556933
O O10 0.060785 0.292529 0.561141
O O11 0.814338 0.164782 0.259207
O O12 0.014911 0.045308 0.443237
O O13 0.791411 0.014758 0.312963
O O14 0.436693 0.251033 0.143176
O O15 0.284858 0.657439 0.844981
#
# Coordination Sequence:
#
# PCOD9305311 Si02
#       8
#     8   8   8   8   4   8   8   8
#     4  12  23  41  65 101 134 180 230 277 349 418
#     4  12  25  40  63  94 143 183 220 284 342 420
#     4  12  23  39  67 100 138 172 226 281 348 408
#     4  11  24  44  68  97 134 176 237 286 337 411
#     4  12  24  36  56 102 140 174 216 272 350 418
#     4  11  24  45  68  99 136 184 226 280 349 414
#     4  12  25  45  69 100 134 184 230 290 338 407
#     4  12  21  37  63  97 138 175 212 270 343 429
#
# _framework density 20.342495
#
# number of rings (size 3 to 8) (size 9 to 14) (size 15 to 20)
#    0.000    0.267    8.000    2.000    1.867    0.533 
#    2.400    0.667    0.000    0.000    0.000    0.000 
#    0.000    0.000    0.000    0.000    0.000    0.000 
#
# Total GULP energy -167508.166537 kJ/mol
# GULP energy per Si atom -5583.605551 kJ/mol
# Density = 2.029619 g / cm^3
# Si number density = 20.342495 Si / 1000 Ang^3
#
#
#
# Elastic Constant Matrix: (Units=GPa)
#
#
# Indices 1 2 3 4 5 6 
#
# 1 90.6170 53.8401 21.2802 0.0002 -19.8003 0.0001
# 2 53.8401 93.7324 19.0375 -0.0001 -17.8955 0.0020
# 3 21.2802 19.0375 47.4315 0.0002 -13.8430 0.0007
# 4 0.0002 -0.0001 0.0002 30.5719 0.0002 2.6030
# 5 -19.8003 -17.8955 -13.8430 0.0002 37.5394 0.0012
# 6 0.0001 0.0020 0.0007 2.6030 0.0012 31.8543
#
#
#
# Elastic Compliance Matrix: (Units=1/GPa)
#
#
# Indices 1 2 3 4 5 6 
#
# 1 0.017970 -0.008879 -0.003325 0.000000 0.004019 0.000000
# 2 -0.008879 0.016650 -0.001961 0.000000 0.002531 -0.000001
# 3 -0.003325 -0.001961 0.025300 0.000000 0.006641 -0.000001
# 4 0.000000 0.000000 0.000000 0.032939 0.000000 -0.002692
# 5 0.004019 0.002531 0.006641 0.000000 0.032414 -0.000001
# 6 0.000000 -0.000001 -0.000001 -0.002692 -0.000001 0.031613
#
#
# Mechanical properties :
#
#
# Convention : Reuss Voigt Hill
#
# Bulk Modulus (GPa) = 31.65548 46.67739 39.16643
# Shear Modulus (GPa) = 25.54308 29.16799 27.35553
#
# Velocity S-wave (km/s) = 3.54736 3.79072 3.67106
# Velocity P-wave (km/s) = 5.68976 6.49269 6.10444
#
# Compressibility (1/GPa) = 0.03159011
#
# Stress axis : x y z
#
# Youngs Moduli (GPa) = 55.64718 60.05837 39.52557
#
# Poissons Ratio (x) = 0.53328 0.13144
# Poissons Ratio (y) = 0.49412 0.07749
# Poissons Ratio (z) = 0.18505 0.11775
#
# Static dielectric constant tensor:
#      x y z
#    x 1.825770 0.000000 -0.028970 
#    y 0.000000 1.711610 0.000000 
#    z -0.028970 0.000000 1.764020 
# 
# From -- ./inp_files/253055.got.cif
#   From: 2010.05.17/outbox.cif.g08.bks.cpg/sg15_127_cif.got.tgz:253055.got - 2010.06.03 18:47:42.
