data_PCOD9305277
_publ_section_title
;
Structure prediction by ZEFSAII (Michael W. Deem and Ramdas Pophale) SiO2 
 PCOD9305277
Probable space group: C 2/C
;
_chemical_formula_sum "Si O2"
_cell_formula_units_Z 56
_cell_length_a 12.186448
_cell_length_b 24.438670
_cell_length_c 9.854393
_cell_angle_alpha 90.000000
_cell_angle_beta 67.254147
_cell_angle_gamma 90.000000
_cell_volume 2706.595406
_symmetry_space_group_name_H-M "C 2/C"
_symmetry_group_IT_number 15
_symmetry_cell_setting 'monoclinic'
loop_
_space_group_symop_operation_xyz
x,y,z
-x,y,1/2-z
-x,-y,-z
x,-y,1/2+z
1/2+x,1/2+y,z
1/2-x,1/2+y,1/2-z
1/2-x,1/2-y,-z
1/2+x,1/2-y,1/2+z
loop_
_atom_site_type_symbol
_atom_site_label
_atom_site_fract_x
_atom_site_fract_y
_atom_site_fract_z
Si Si1 0.209453 0.988913 0.403953
Si Si2 0.813725 0.274464 0.102282
Si Si3 0.674800 0.259853 0.401041
Si Si4 0.877532 0.464940 0.576329
Si Si5 0.542443 0.325914 0.877004
Si Si6 0.530579 0.154960 0.392457
Si Si7 0.982732 0.922292 0.413497
O O1 0.299753 0.968478 0.476438
O O2 0.112966 0.944319 0.397840
O O3 0.291497 0.013999 0.241974
O O4 0.118891 0.031505 0.520480
O O5 0.724718 0.297291 0.255941
O O6 0.860292 0.221920 0.166597
O O7 0.750000 0.250000 0.000000
O O8 0.913446 0.318706 0.018600
O O9 0.750000 0.250000 0.500000
O O10 0.564074 0.293330 0.506171
O O11 0.627271 0.202398 0.366202
O O12 0.920586 0.402623 0.578487
O O13 0.000000 0.500000 0.500000
O O14 0.500000 0.344897 0.750000
O O15 0.566894 0.375620 0.963948
O O16 0.500000 0.148157 0.250000
O O17 0.000000 0.905117 0.250000
#
# Coordination Sequence:
#
# PCOD9305277 Si02
#       7
#     8   8   8   8   8   8   8
#     4  11  26  48  73 101 143 184 244 307 358 425
#     4  11  24  44  69  98 141 182 228 286 345 426
#     4  11  24  44  66 100 141 178 225 285 346 418
#     4  12  27  49  72 104 146 190 239 293 362 440
#     4  11  26  41  67 105 135 178 236 285 350 423
#     4  11  25  44  72 102 135 186 236 280 355 425
#     4  11  26  46  74 105 136 186 247 306 365 414
#
# _framework density 20.690200999999998
#
# number of rings (size 3 to 8) (size 9 to 14) (size 15 to 20)
#    0.000    0.857    4.286    1.286    8.000    2.286 
#    2.571    0.000    0.000    0.000    0.000    0.000 
#    0.000    0.000    0.000    0.000    0.000    0.000 
#
# Total GULP energy -156262.630134 kJ/mol
# GULP energy per Si atom -5580.808219 kJ/mol
# Density = 2.064311 g / cm^3
# Si number density = 20.690201 Si / 1000 Ang^3
#
#
#
# Elastic Constant Matrix: (Units=GPa)
#
#
# Indices 1 2 3 4 5 6 
#
# 1 117.5883 30.1639 39.8913 0.0000 7.0753 0.0000
# 2 30.1639 87.1480 26.3424 0.0000 9.1987 0.0000
# 3 39.8913 26.3424 125.5759 0.0000 6.5559 0.0000
# 4 0.0000 0.0000 0.0000 77.5441 0.0000 -44.6295
# 5 7.0753 9.1987 6.5559 0.0000 53.9979 0.0000
# 6 0.0000 0.0000 0.0000 -44.6295 0.0000 80.0564
#
#
#
# Elastic Compliance Matrix: (Units=1/GPa)
#
#
# Indices 1 2 3 4 5 6 
#
# 1 0.010107 -0.002646 -0.002627 0.000000 -0.000555 0.000000
# 2 -0.002646 0.013118 -0.001824 0.000000 -0.001667 0.000000
# 3 -0.002627 -0.001824 0.009205 0.000000 -0.000463 0.000000
# 4 0.000000 0.000000 0.000000 0.018988 0.000000 0.010585
# 5 -0.000555 -0.001667 -0.000463 0.000000 0.018932 0.000000
# 6 0.000000 0.000000 0.000000 0.010585 0.000000 0.018392
#
#
# Mechanical properties :
#
#
# Convention : Reuss Voigt Hill
#
# Bulk Modulus (GPa) = 54.83647 58.12306 56.47977
# Shear Modulus (GPa) = 45.86522 57.91397 51.88960
#
# Velocity S-wave (km/s) = 4.71336 5.29639 5.01336
# Velocity P-wave (km/s) = 7.49547 8.09663 7.80184
#
# Compressibility (1/GPa) = 0.01823604
#
# Stress axis : x y z
#
# Youngs Moduli (GPa) = 98.93661 76.23193 108.64138
#
# Poissons Ratio (x) = 0.20170 0.28538
# Poissons Ratio (y) = 0.26177 0.19819
# Poissons Ratio (z) = 0.25989 0.13907
#
# Static dielectric constant tensor:
#      x y z
#    x 1.587530 0.000000 0.110050 
#    y 0.000000 1.588450 0.000000 
#    z 0.110050 0.000000 1.561200 
# 
# From -- ./inp_files/34206.got.cif
#   From: 2010.05.17/outbox.cif.g08.bks.cpg/sg15_18_cif.got.tgz:34206.got - 2010.06.03 18:47:42.
