data_PCOD9305699
_publ_section_title
;
Structure prediction by ZEFSAII (Michael W. Deem and Ramdas Pophale) SiO2 
 PCOD9305699
Probable space group: C 2/C
;
_chemical_formula_sum "Si O2"
_cell_formula_units_Z 36
_cell_length_a 22.666197
_cell_length_b 13.400926
_cell_length_c 13.775902
_cell_angle_alpha 90.000000
_cell_angle_beta 158.035904
_cell_angle_gamma 90.000000
_cell_volume 1565.073480
_symmetry_space_group_name_H-M "C 2/C"
_symmetry_group_IT_number 15
_symmetry_cell_setting 'monoclinic'
loop_
_space_group_symop_operation_xyz
x,y,z
-x,y,1/2-z
-x,-y,-z
x,-y,1/2+z
1/2+x,1/2+y,z
1/2-x,1/2+y,1/2-z
1/2-x,1/2-y,-z
1/2+x,1/2-y,1/2+z
loop_
_atom_site_type_symbol
_atom_site_label
_atom_site_fract_x
_atom_site_fract_y
_atom_site_fract_z
Si Si1 0.531728 0.507841 0.413066
Si Si2 0.437492 0.717499 0.766812
Si Si3 0.239646 0.632484 0.996629
Si Si4 0.634499 0.902965 0.121385
Si Si5 0.000000 0.531083 0.750000
O O1 0.500000 0.506543 0.250000
O O2 0.478393 0.395762 0.360358
O O3 0.702859 0.559740 0.681223
O O4 0.408099 0.583992 0.267419
O O5 0.500000 0.724569 0.750000
O O6 0.250000 0.750000 0.500000
O O7 0.557498 0.793621 0.001062
O O8 0.166173 0.585089 0.784756
O O9 0.142654 0.603828 0.943517
O O10 0.250000 0.750000 0.000000
O O11 0.517270 0.964007 0.872023
#
# Coordination Sequence:
#
# PCOD9305699 Si02
#       5
#     8   8   8   8   4
#     4   9  23  45  72 103 148 193 245 313 382 453
#     4  11  24  46  74 111 149 201 259 317 385 466
#     4  11  27  47  73 108 148 193 251 314 386 461
#     4  11  25  47  75 105 150 190 257 310 380 459
#     4  12  26  46  72 104 148 202 244 310 386 448
#
# _framework density 23.002115
#
# number of rings (size 3 to 8) (size 9 to 14) (size 15 to 20)
#    0.000    1.333    1.111    2.000    7.778    6.222 
#    0.000    0.000    0.000    0.000    0.000    0.000 
#    0.000    0.000    0.000    0.000    0.000    0.000 
#
# Total GULP energy -100259.278205 kJ/mol
# GULP energy per Si atom -5569.959900 kJ/mol
# Density = 2.294976 g / cm^3
# Si number density = 23.002115 Si / 1000 Ang^3
#
#
#
# Elastic Constant Matrix: (Units=GPa)
#
#
# Indices 1 2 3 4 5 6 
#
# 1 116.9314 39.9395 36.7121 0.0000 6.5440 0.0000
# 2 39.9395 175.7923 77.3103 0.0000 50.4886 0.0000
# 3 36.7121 77.3103 109.8638 0.0000 14.7695 0.0000
# 4 0.0000 0.0000 0.0000 466.2910 0.0000 -495.1151
# 5 6.5440 50.4886 14.7695 0.0000 43.4638 0.0000
# 6 0.0000 0.0000 0.0000 -495.1151 0.0000 607.2431
#
#
#
# Elastic Compliance Matrix: (Units=1/GPa)
#
#
# Indices 1 2 3 4 5 6 
#
# 1 0.009738 -0.001479 -0.002355 0.000000 0.001052 0.000000
# 2 -0.001479 0.012327 -0.006586 0.000000 -0.011858 0.000000
# 3 -0.002355 -0.006586 0.014091 0.000000 0.003216 0.000000
# 4 0.000000 0.000000 0.000000 0.015975 0.000000 0.013025
# 5 0.001052 -0.011858 0.003216 0.000000 0.035531 0.000000
# 6 0.000000 0.000000 0.000000 0.013025 0.000000 0.012267
#
#
# Mechanical properties :
#
#
# Convention : Reuss Voigt Hill
#
# Bulk Modulus (GPa) = 65.28928 78.94572 72.11750
# Shear Modulus (GPa) = 39.72302 239.97463 139.84882
#
# Velocity S-wave (km/s) = 4.16014 10.22515 7.80578
# Velocity P-wave (km/s) = 7.17784 13.18334 10.61419
#
# Compressibility (1/GPa) = 0.01531645
#
# Stress axis : x y z
#
# Youngs Moduli (GPa) = 102.69509 81.12527 70.96761
#
# Poissons Ratio (x) = 0.11998 0.16710
# Poissons Ratio (y) = 0.15189 0.46738
# Poissons Ratio (z) = 0.24180 0.53427
#
# Static dielectric constant tensor:
#      x y z
#    x 1.814570 0.000000 -0.114600 
#    y 0.000000 1.865710 0.000000 
#    z -0.114600 0.000000 1.839210 
# 
# From -- ./inp_files/173564.got.cif
#   From: 2010.05.17/outbox.cif.g08.bks.cpg/sg15_87_cif.got.tgz:173564.got - 2010.06.03 18:47:42.
