data_PCOD9305347
_publ_section_title
;
Structure prediction by ZEFSAII (Michael W. Deem and Ramdas Pophale) SiO2 
 PCOD9305347
Probable space group: C 2/C
;
_chemical_formula_sum "Si O2"
_cell_formula_units_Z 36
_cell_length_a 5.328171
_cell_length_b 21.594415
_cell_length_c 14.051002
_cell_angle_alpha 90.000000
_cell_angle_beta 84.434359
_cell_angle_gamma 90.000000
_cell_volume 1609.069026
_symmetry_space_group_name_H-M "C 2/C"
_symmetry_group_IT_number 15
_symmetry_cell_setting 'monoclinic'
loop_
_space_group_symop_operation_xyz
x,y,z
-x,y,1/2-z
-x,-y,-z
x,-y,1/2+z
1/2+x,1/2+y,z
1/2-x,1/2+y,1/2-z
1/2-x,1/2-y,-z
1/2+x,1/2-y,1/2+z
loop_
_atom_site_type_symbol
_atom_site_label
_atom_site_fract_x
_atom_site_fract_y
_atom_site_fract_z
Si Si1 0.013290 0.272271 0.445298
Si Si2 0.138295 0.414559 0.410832
Si Si3 0.500000 0.699030 0.250000
Si Si4 0.500000 0.534215 0.750000
Si Si5 0.000000 0.382650 0.750000
Si Si6 0.772445 0.471394 0.906290
O O1 0.250000 0.250000 0.500000
O O2 0.039259 0.346003 0.431837
O O3 0.750000 0.250000 0.500000
O O4 0.021300 0.240848 0.342282
O O5 0.283604 0.423560 0.305520
O O6 0.309060 0.436473 0.494953
O O7 0.913830 0.464350 0.421817
O O8 0.248096 0.657743 0.258819
O O9 0.573008 0.489259 0.833597
O O10 0.960047 0.425574 0.843608
#
# Coordination Sequence:
#
# PCOD9305347 Si02
#       6
#     8   8   4   4   4   8
#     4  12  29  52  74 108 150 202 252 304 369 441
#     4  11  26  44  72 105 149 187 249 305 373 443
#     4  12  27  45  78 103 148 205 252 306 362 450
#     4  12  23  43  72 112 145 189 242 306 382 436
#     4  12  24  48  74 107 149 192 254 300 378 444
#     4  11  24  44  70 108 144 192 235 314 376 438
#
# _framework density 22.373183999999998
#
# number of rings (size 3 to 8) (size 9 to 14) (size 15 to 20)
#    0.000    0.444    2.222    5.333    6.222    0.889 
#    0.000    0.000    0.000    0.000    0.000    0.000 
#    0.000    0.000    0.000    0.000    0.000    0.000 
#
# Total GULP energy -100780.870641 kJ/mol
# GULP energy per Si atom -5598.937258 kJ/mol
# Density = 2.232226 g / cm^3
# Si number density = 22.373184 Si / 1000 Ang^3
#
#
#
# Elastic Constant Matrix: (Units=GPa)
#
#
# Indices 1 2 3 4 5 6 
#
# 1 137.1653 74.9541 54.2484 0.0000 6.5658 0.0000
# 2 74.9541 201.3902 69.5036 0.0000 -0.1132 0.0000
# 3 54.2484 69.5036 148.3644 0.0000 0.4606 0.0000
# 4 0.0000 0.0000 0.0000 32.8950 0.0000 1.9632
# 5 6.5658 -0.1132 0.4606 0.0000 45.3926 0.0000
# 6 0.0000 0.0000 0.0000 1.9632 0.0000 22.7471
#
#
#
# Elastic Compliance Matrix: (Units=1/GPa)
#
#
# Indices 1 2 3 4 5 6 
#
# 1 0.009817 -0.002883 -0.002234 0.000000 -0.001404 0.000000
# 2 -0.002883 0.006770 -0.002119 0.000000 0.000455 0.000000
# 3 -0.002234 -0.002119 0.008549 0.000000 0.000231 0.000000
# 4 0.000000 0.000000 0.000000 0.030557 0.000000 -0.002637
# 5 -0.001404 0.000455 0.000231 0.000000 0.022232 0.000000
# 6 0.000000 0.000000 0.000000 -0.002637 0.000000 0.044189
#
#
# Mechanical properties :
#
#
# Convention : Reuss Voigt Hill
#
# Bulk Modulus (GPa) = 93.78092 98.25913 96.02002
# Shear Modulus (GPa) = 35.67818 39.42120 37.54969
#
# Velocity S-wave (km/s) = 3.99768 4.20215 4.10119
# Velocity P-wave (km/s) = 7.95715 8.21935 8.08931
#
# Compressibility (1/GPa) = 0.01066315
#
# Stress axis : x y z
#
# Youngs Moduli (GPa) = 101.86377 147.70855 116.97318
#
# Poissons Ratio (x) = 0.42590 0.26137
# Poissons Ratio (y) = 0.29371 0.24783
# Poissons Ratio (z) = 0.22760 0.31295
#
# Static dielectric constant tensor:
#      x y z
#    x 1.942020 0.000000 0.005770 
#    y 0.000000 1.800180 0.000000 
#    z 0.005770 0.000000 1.866440 
# 
# From -- ./inp_files/128705.got.cif
#   From: 2010.05.17/outbox.cif.g08.bks.cpg/sg15_65_cif.got.tgz:128705.got - 2010.06.03 18:47:42.
