data_PCOD9305436
_publ_section_title
;
Structure prediction by ZEFSAII (Michael W. Deem and Ramdas Pophale) SiO2 
 PCOD9305436
Probable space group: C 2/C
;
_chemical_formula_sum "Si O2"
_cell_formula_units_Z 44
_cell_length_a 14.449293
_cell_length_b 10.181996
_cell_length_c 12.231546
_cell_angle_alpha 90.000000
_cell_angle_beta 102.386619
_cell_angle_gamma 90.000000
_cell_volume 1757.648473
_symmetry_space_group_name_H-M "C 2/C"
_symmetry_group_IT_number 15
_symmetry_cell_setting 'monoclinic'
loop_
_space_group_symop_operation_xyz
x,y,z
-x,y,1/2-z
-x,-y,-z
x,-y,1/2+z
1/2+x,1/2+y,z
1/2-x,1/2+y,1/2-z
1/2-x,1/2-y,-z
1/2+x,1/2-y,1/2+z
loop_
_atom_site_type_symbol
_atom_site_label
_atom_site_fract_x
_atom_site_fract_y
_atom_site_fract_z
Si Si1 0.490639 0.853810 0.125586
Si Si2 0.723597 0.508373 0.841869
Si Si3 0.000000 0.702034 0.250000
Si Si4 0.179248 0.782730 0.155242
Si Si5 0.432274 0.417839 0.560018
Si Si6 0.126989 0.437549 0.968767
O O1 0.500000 0.900767 0.250000
O O2 0.494910 0.700422 0.119958
O O3 0.390219 0.909727 0.061529
O O4 0.567907 0.911388 0.064488
O O5 0.769175 0.361727 0.833449
O O6 0.733677 0.608467 0.743236
O O7 0.615275 0.489663 0.850072
O O8 0.768127 0.579073 0.961269
O O9 0.923885 0.764304 0.313630
O O10 0.924842 0.636654 0.142943
O O11 0.152138 0.852347 0.034010
O O12 0.500000 0.500000 0.500000
#
# Coordination Sequence:
#
# PCOD9305436 Si02
#       6
#     8   8   4   8   8   8
#     4  11  24  44  78 108 149 198 255 308 391 458
#     4  12  30  48  79 113 158 200 267 319 390 466
#     4  12  24  50  80 112 162 194 262 320 394 464
#     4  12  28  51  75 114 158 208 250 330 386 467
#     4  12  28  50  74 111 155 203 260 319 395 461
#     4  11  24  46  77 116 146 204 252 325 378 467
#
# _framework density 25.033446999999999
#
# number of rings (size 3 to 8) (size 9 to 14) (size 15 to 20)
#    0.000    0.364    4.545    2.727    7.636    0.727 
#    0.000    0.000    0.000    0.000    0.000    0.000 
#    0.000    0.000    0.000    0.000    0.000    0.000 
#
# Total GULP energy -122884.190667 kJ/mol
# GULP energy per Si atom -5585.645030 kJ/mol
# Density = 2.497647 g / cm^3
# Si number density = 25.033447 Si / 1000 Ang^3
#
#
#
# Elastic Constant Matrix: (Units=GPa)
#
#
# Indices 1 2 3 4 5 6 
#
# 1 70.1644 22.4001 0.7443 0.0000 -12.4072 0.0000
# 2 22.4001 75.5406 47.4313 0.0000 15.2135 0.0000
# 3 0.7443 47.4313 120.0054 0.0000 -0.7830 0.0000
# 4 0.0000 0.0000 0.0000 89.4473 0.0000 -23.9229
# 5 -12.4072 15.2135 -0.7830 0.0000 37.1456 0.0000
# 6 0.0000 0.0000 0.0000 -23.9229 0.0000 39.3299
#
#
#
# Elastic Compliance Matrix: (Units=1/GPa)
#
#
# Indices 1 2 3 4 5 6 
#
# 1 0.019526 -0.010592 0.004137 0.000000 0.010947 0.000000
# 2 -0.010592 0.025624 -0.010155 0.000000 -0.014247 0.000000
# 3 0.004137 -0.010155 0.012359 0.000000 0.005801 0.000000
# 4 0.000000 0.000000 0.000000 0.013352 0.000000 0.008121
# 5 0.010947 -0.014247 0.005801 0.000000 0.036535 0.000000
# 6 0.000000 0.000000 0.000000 0.008121 0.000000 0.030366
#
#
# Mechanical properties :
#
#
# Convention : Reuss Voigt Hill
#
# Bulk Modulus (GPa) = 41.17256 45.20689 43.18972
# Shear Modulus (GPa) = 27.92073 46.19356 37.05715
#
# Velocity S-wave (km/s) = 3.34329 4.30033 3.85165
# Velocity P-wave (km/s) = 5.60234 6.53872 6.08856
#
# Compressibility (1/GPa) = 0.02428802
#
# Stress axis : x y z
#
# Youngs Moduli (GPa) = 51.21450 39.02539 80.91345
#
# Poissons Ratio (x) = 0.41336 -0.33472
# Poissons Ratio (y) = 0.54247 0.82168
# Poissons Ratio (z) = -0.21186 0.39631
#
# Static dielectric constant tensor:
#      x y z
#    x 1.987560 0.000000 0.042740 
#    y 0.000000 1.959640 0.000000 
#    z 0.042740 0.000000 2.008530 
# 
# From -- ./inp_files/95089.got.cif
#   From: 2010.05.17/outbox.cif.g08.bks.cpg/sg15_48_cif.got.tgz:95089.got - 2010.06.03 18:47:42.
