data_PCOD9305552
_publ_section_title
;
Structure prediction by ZEFSAII (Michael W. Deem and Ramdas Pophale) SiO2 
 PCOD9305552
Probable space group: C 2/C
;
_chemical_formula_sum "Si O2"
_cell_formula_units_Z 40
_cell_length_a 28.722303
_cell_length_b 7.576922
_cell_length_c 20.403022
_cell_angle_alpha 90.000000
_cell_angle_beta 21.986435
_cell_angle_gamma 90.000000
_cell_volume 1662.368930
_symmetry_space_group_name_H-M "C 2/C"
_symmetry_group_IT_number 15
_symmetry_cell_setting 'monoclinic'
loop_
_space_group_symop_operation_xyz
x,y,z
-x,y,1/2-z
-x,-y,-z
x,-y,1/2+z
1/2+x,1/2+y,z
1/2-x,1/2+y,1/2-z
1/2-x,1/2-y,-z
1/2+x,1/2-y,1/2+z
loop_
_atom_site_type_symbol
_atom_site_label
_atom_site_fract_x
_atom_site_fract_y
_atom_site_fract_z
Si Si1 0.462463 0.454711 0.652476
Si Si2 0.299910 0.127716 0.993372
Si Si3 0.142973 0.247303 0.441918
Si Si4 0.500000 0.138463 0.250000
Si Si5 0.089225 0.598749 0.435024
Si Si6 0.500000 0.618397 0.250000
O O1 0.319135 0.458903 0.816989
O O2 0.554258 0.614942 0.515473
O O3 0.517653 0.266750 0.558861
O O4 0.454051 0.466447 0.742922
O O5 0.250000 0.250000 0.000000
O O6 0.383814 0.260918 0.926043
O O7 0.401468 0.983460 0.838927
O O8 0.087770 0.256730 0.586855
O O9 0.129781 0.444531 0.431985
O O10 0.281651 0.173682 0.261817
O O11 0.000000 0.500000 0.500000
#
# Coordination Sequence:
#
# PCOD9305552 Si02
#       6
#     8   8   8   4   8   4
#     4  11  24  45  74 106 144 192 243 303 370 437
#     4   9  19  38  68 106 141 182 231 293 365 423
#     4  12  27  51  73 111 148 193 250 305 372 446
#     4  11  25  46  76 111 149 188 249 315 360 445
#     4  12  29  49  74 106 152 201 247 302 375 449
#     4   9  19  40  70 107 141 180 231 307 360 429
#
# _framework density 24.062045999999999
#
# number of rings (size 3 to 8) (size 9 to 14) (size 15 to 20)
#    0.000    1.200    2.000    4.200    5.600    3.200 
#    3.600    0.000    0.000    0.000    0.000    0.000 
#    0.000    0.000    0.000    0.000    0.000    0.000 
#
# Total GULP energy -111726.033807 kJ/mol
# GULP energy per Si atom -5586.301690 kJ/mol
# Density = 2.400728 g / cm^3
# Si number density = 24.062046 Si / 1000 Ang^3
#
#
#
# Elastic Constant Matrix: (Units=GPa)
#
#
# Indices 1 2 3 4 5 6 
#
# 1 63.7321 20.5539 34.7002 0.0007 -3.7103 0.0007
# 2 20.5539 120.2081 60.1852 -0.0028 -0.5570 0.0009
# 3 34.7002 60.1852 188.4744 -0.0069 -22.9007 -0.0017
# 4 0.0007 -0.0028 -0.0069 47.8902 -0.0012 -4.4217
# 5 -3.7103 -0.5570 -22.9007 -0.0012 43.1344 0.0006
# 6 0.0007 0.0009 -0.0017 -4.4217 0.0006 26.3073
#
#
#
# Elastic Compliance Matrix: (Units=1/GPa)
#
#
# Indices 1 2 3 4 5 6 
#
# 1 0.017713 -0.001665 -0.002723 -0.000001 0.000057 -0.000001
# 2 -0.001665 0.010171 -0.003146 0.000000 -0.001682 0.000000
# 3 -0.002723 -0.003146 0.007245 0.000001 0.003572 0.000001
# 4 -0.000001 0.000000 0.000001 0.021210 0.000001 0.003565
# 5 0.000057 -0.001682 0.003572 0.000001 0.025063 0.000000
# 6 -0.000001 0.000000 0.000001 0.003565 0.000000 0.038612
#
#
# Mechanical properties :
#
#
# Convention : Reuss Voigt Hill
#
# Bulk Modulus (GPa) = 49.84372 67.03259 58.43816
# Shear Modulus (GPa) = 35.26869 40.59808 37.93338
#
# Velocity S-wave (km/s) = 3.83265 4.11204 3.97480
# Velocity P-wave (km/s) = 6.35179 7.10379 6.73829
#
# Compressibility (1/GPa) = 0.02006271
#
# Stress axis : x y z
#
# Youngs Moduli (GPa) = 56.45443 98.32092 138.01695
#
# Poissons Ratio (x) = 0.16374 0.37576
# Poissons Ratio (y) = 0.09402 0.43414
# Poissons Ratio (z) = 0.15370 0.30928
#
# Static dielectric constant tensor:
#      x y z
#    x 1.917550 0.000000 -0.005990 
#    y 0.000000 2.049430 0.000010 
#    z -0.005990 0.000010 1.801920 
# 
# From -- ./inp_files/258928.got.cif
#   From: 2010.05.17/outbox.cif.g08.bks.cpg/sg15_130_cif.got.tgz:258928.got - 2010.06.03 18:47:42.
