data_PCOD9305784
_publ_section_title
;
Structure prediction by ZEFSAII (Michael W. Deem and Ramdas Pophale) SiO2 
 PCOD9305784
Probable space group: C 2/C
;
_chemical_formula_sum "Si O2"
_cell_formula_units_Z 52
_cell_length_a 13.427778
_cell_length_b 11.995238
_cell_length_c 15.525876
_cell_angle_alpha 90.000000
_cell_angle_beta 109.597909
_cell_angle_gamma 90.000000
_cell_volume 2355.874591
_symmetry_space_group_name_H-M "C 2/C"
_symmetry_group_IT_number 15
_symmetry_cell_setting 'monoclinic'
loop_
_space_group_symop_operation_xyz
x,y,z
-x,y,1/2-z
-x,-y,-z
x,-y,1/2+z
1/2+x,1/2+y,z
1/2-x,1/2+y,1/2-z
1/2-x,1/2-y,-z
1/2+x,1/2-y,1/2+z
loop_
_atom_site_type_symbol
_atom_site_label
_atom_site_fract_x
_atom_site_fract_y
_atom_site_fract_z
Si Si1 0.796879 0.164338 0.284621
Si Si2 0.276312 0.868725 0.050739
Si Si3 0.142336 0.210889 0.010955
Si Si4 0.000000 0.869059 0.750000
Si Si5 0.483240 0.900084 0.430167
Si Si6 0.926260 0.003006 0.563852
Si Si7 0.279124 0.089304 0.753694
O O1 0.828255 0.145080 0.392925
O O2 0.736903 0.286265 0.273713
O O3 0.895455 0.194912 0.250337
O O4 0.761441 0.040025 0.241660
O O5 0.400987 0.879765 0.072268
O O6 0.263737 0.890951 0.148097
O O7 0.250000 0.750000 0.000000
O O8 0.191192 0.952484 0.983332
O O9 0.062738 0.302072 0.023771
O O10 0.250000 0.250000 0.000000
O O11 0.086613 0.133504 0.925176
O O12 0.974916 0.941118 0.658707
O O13 0.395437 0.917953 0.331049
O O14 0.500000 0.000000 0.500000
O O15 0.000000 0.000000 0.500000
#
# Coordination Sequence:
#
# PCOD9305784 Si02
#       7
#     8   8   8   4   8   8   8
#     4  11  26  47  78 109 153 203 260 322 392 467
#     4  12  25  44  77 106 147 198 260 321 379 475
#     4  11  24  47  72 102 157 200 248 325 392 464
#     4  12  26  44  76 112 146 200 266 324 384 470
#     4  11  27  45  71 111 151 197 254 320 397 463
#     4  12  24  47  74 107 148 196 259 315 392 468
#     4  11  26  48  77 111 154 198 261 319 395 467
#
# _framework density 22.072482999999998
#
# number of rings (size 3 to 8) (size 9 to 14) (size 15 to 20)
#    0.000    0.615    3.077    3.231   15.077    0.000 
#    0.000    0.000    0.000    0.000    0.000    0.000 
#    0.000    0.000    0.000    0.000    0.000    0.000 
#
# Total GULP energy -144818.299336 kJ/mol
# GULP energy per Si atom -5569.934590 kJ/mol
# Density = 2.202224 g / cm^3
# Si number density = 22.072483 Si / 1000 Ang^3
#
#
#
# Elastic Constant Matrix: (Units=GPa)
#
#
# Indices 1 2 3 4 5 6 
#
# 1 82.0842 29.1424 12.7185 0.0000 -3.0068 0.0000
# 2 29.1424 140.6790 30.8576 0.0000 15.2089 0.0000
# 3 12.7185 30.8576 105.3262 0.0000 8.8980 0.0000
# 4 0.0000 0.0000 0.0000 45.4268 0.0000 1.3619
# 5 -3.0068 15.2089 8.8980 0.0000 35.6639 0.0000
# 6 0.0000 0.0000 0.0000 1.3619 0.0000 30.4082
#
#
#
# Elastic Compliance Matrix: (Units=1/GPa)
#
#
# Indices 1 2 3 4 5 6 
#
# 1 0.013444 -0.002844 -0.001010 0.000000 0.002598 0.000000
# 2 -0.002844 0.008470 -0.001852 0.000000 -0.003390 0.000000
# 3 -0.001010 -0.001852 0.010317 0.000000 -0.001869 0.000000
# 4 0.000000 0.000000 0.000000 0.022043 0.000000 -0.000987
# 5 0.002598 -0.003390 -0.001869 0.000000 0.030171 0.000000
# 6 0.000000 0.000000 0.000000 -0.000987 0.000000 0.032930
#
#
# Mechanical properties :
#
#
# Convention : Reuss Voigt Hill
#
# Bulk Modulus (GPa) = 48.03181 52.61406 50.32293
# Shear Modulus (GPa) = 36.83887 39.32452 38.08169
#
# Velocity S-wave (km/s) = 4.08977 4.22549 4.15818
# Velocity P-wave (km/s) = 6.64152 6.90616 6.77513
#
# Compressibility (1/GPa) = 0.02081954
#
# Stress axis : x y z
#
# Youngs Moduli (GPa) = 74.38205 118.05977 96.93077
#
# Poissons Ratio (x) = 0.33582 0.09786
# Poissons Ratio (y) = 0.21158 0.17949
# Poissons Ratio (z) = 0.07509 0.21861
#
# Static dielectric constant tensor:
#      x y z
#    x 2.703700 0.000000 0.043310 
#    y 0.000000 1.901430 0.000000 
#    z 0.043310 0.000000 1.786480 
# 
# From -- ./inp_files/152675.got.cif
#   From: 2010.05.17/outbox.cif.g08.bks.cpg/sg15_77_cif.got.tgz:152675.got - 2010.06.03 18:47:42.
