data_PCOD9305422
_publ_section_title
;
Structure prediction by ZEFSAII (Michael W. Deem and Ramdas Pophale) SiO2 
 PCOD9305422
Probable space group: C 2/C
;
_chemical_formula_sum "Si O2"
_cell_formula_units_Z 40
_cell_length_a 13.840015
_cell_length_b 18.455925
_cell_length_c 13.053469
_cell_angle_alpha 90.000000
_cell_angle_beta 31.473745
_cell_angle_gamma 90.000000
_cell_volume 1740.838570
_symmetry_space_group_name_H-M "C 2/C"
_symmetry_group_IT_number 15
_symmetry_cell_setting 'monoclinic'
loop_
_space_group_symop_operation_xyz
x,y,z
-x,y,1/2-z
-x,-y,-z
x,-y,1/2+z
1/2+x,1/2+y,z
1/2-x,1/2+y,1/2-z
1/2-x,1/2-y,-z
1/2+x,1/2-y,1/2+z
loop_
_atom_site_type_symbol
_atom_site_label
_atom_site_fract_x
_atom_site_fract_y
_atom_site_fract_z
Si Si1 0.422497 0.663566 0.934486
Si Si2 0.211979 0.719825 0.810060
Si Si3 0.808402 0.184600 0.377045
Si Si4 0.014705 0.410333 0.068987
Si Si5 0.291215 0.521184 0.155888
O O1 0.500000 0.660124 0.750000
O O2 0.595459 0.676962 0.855543
O O3 0.302476 0.733686 0.073030
O O4 0.316141 0.589834 0.058808
O O5 0.250000 0.750000 0.500000
O O6 0.187338 0.777635 0.739496
O O7 0.063578 0.656337 0.928630
O O8 0.646742 0.126870 0.530994
O O9 0.665564 0.045532 0.366032
O O10 0.000000 0.156018 0.250000
O O11 0.839228 0.456177 0.265920
O O12 0.500000 0.500000 0.000000
#
# Coordination Sequence:
#
# PCOD9305422 Si02
#       5
#     8   8   8   8   8
#     4  12  24  43  74 111 147 204 260 318 390 465
#     4  12  22  44  73 107 150 187 253 335 380 450
#     4  12  23  40  73 115 145 193 254 316 399 460
#     4  11  24  44  75 105 149 202 249 315 392 464
#     4  11  24  46  75  99 152 210 249 313 396 462
#
# _framework density 22.977430999999999
#
# number of rings (size 3 to 8) (size 9 to 14) (size 15 to 20)
#    0.000    0.400    8.000    0.600    0.000    0.000 
#    0.000    5.000    4.400    0.000    0.000    0.000 
#    0.000    0.000    0.000    0.000    0.000    0.000 
#
# Total GULP energy -111720.235169 kJ/mol
# GULP energy per Si atom -5586.011758 kJ/mol
# Density = 2.292513 g / cm^3
# Si number density = 22.977431 Si / 1000 Ang^3
#
#
#
# Elastic Constant Matrix: (Units=GPa)
#
#
# Indices 1 2 3 4 5 6 
#
# 1 145.1859 73.2158 58.2502 -0.0031 -30.6835 -0.0018
# 2 73.2158 138.4838 54.4965 -0.0061 -20.1319 0.0013
# 3 58.2502 54.4965 129.0124 -0.0080 -11.8604 0.0049
# 4 -0.0031 -0.0061 -0.0080 39.8583 0.0059 -18.9674
# 5 -30.6835 -20.1319 -11.8604 0.0059 40.4111 -0.0021
# 6 -0.0018 0.0013 0.0049 -18.9674 -0.0021 46.4866
#
#
#
# Elastic Compliance Matrix: (Units=1/GPa)
#
#
# Indices 1 2 3 4 5 6 
#
# 1 0.011262 -0.003992 -0.002873 -0.000001 0.005719 0.000001
# 2 -0.003992 0.010535 -0.002512 0.000001 0.001480 0.000000
# 3 -0.002873 -0.002512 0.010065 0.000001 -0.000478 -0.000001
# 4 -0.000001 0.000001 0.000001 0.031134 -0.000004 0.012703
# 5 0.005719 0.001480 -0.000478 -0.000004 0.029685 0.000000
# 6 0.000001 0.000000 -0.000001 0.012703 0.000000 0.026695
#
#
# Mechanical properties :
#
#
# Convention : Reuss Voigt Hill
#
# Bulk Modulus (GPa) = 76.28183 87.17856 81.73019
# Shear Modulus (GPa) = 35.08766 40.46583 37.77675
#
# Velocity S-wave (km/s) = 3.91199 4.20111 4.05913
# Velocity P-wave (km/s) = 7.32636 7.84575 7.59050
#
# Compressibility (1/GPa) = 0.01310928
#
# Stress axis : x y z
#
# Youngs Moduli (GPa) = 88.79121 94.91848 99.35172
#
# Poissons Ratio (x) = 0.37895 0.28542
# Poissons Ratio (y) = 0.35449 0.24953
# Poissons Ratio (z) = 0.25508 0.23840
#
# Static dielectric constant tensor:
#      x y z
#    x 1.948970 0.000000 -0.009290 
#    y 0.000000 1.904750 0.000000 
#    z -0.009290 0.000000 1.918210 
# 
# From -- ./inp_files/98999.got.cif
#   From: 2010.05.17/outbox.cif.g08.bks.cpg/sg15_50_cif.got.tgz:98999.got - 2010.06.03 18:47:42.
