data_PCOD9305912
_publ_section_title
;
Structure prediction by ZEFSAII (Michael W. Deem and Ramdas Pophale) SiO2 
 PCOD9305912
Probable space group: C 2/C
;
_chemical_formula_sum "Si O2"
_cell_formula_units_Z 44
_cell_length_a 10.522577
_cell_length_b 10.356295
_cell_length_c 18.114539
_cell_angle_alpha 90.000000
_cell_angle_beta 113.657740
_cell_angle_gamma 90.000000
_cell_volume 1808.130434
_symmetry_space_group_name_H-M "C 2/C"
_symmetry_group_IT_number 15
_symmetry_cell_setting 'monoclinic'
loop_
_space_group_symop_operation_xyz
x,y,z
-x,y,1/2-z
-x,-y,-z
x,-y,1/2+z
1/2+x,1/2+y,z
1/2-x,1/2+y,1/2-z
1/2-x,1/2-y,-z
1/2+x,1/2-y,1/2+z
loop_
_atom_site_type_symbol
_atom_site_label
_atom_site_fract_x
_atom_site_fract_y
_atom_site_fract_z
Si Si1 0.000000 0.500277 0.750000
Si Si2 0.130027 0.614146 0.919380
Si Si3 0.685090 0.611396 0.970606
Si Si4 0.294792 0.826560 0.772741
Si Si5 0.086206 0.245081 0.555061
Si Si6 0.659123 0.427300 0.292727
O O1 0.973523 0.582358 0.670597
O O2 0.869189 0.405264 0.725389
O O3 0.252253 0.706985 0.917930
O O4 0.221460 0.492380 0.966152
O O5 0.054922 0.674767 0.973635
O O6 0.524426 0.630253 0.958510
O O7 0.696177 0.579149 0.886907
O O8 0.750000 0.750000 0.000000
O O9 0.405887 0.821521 0.866103
O O10 0.264671 0.681684 0.739114
O O11 0.176521 0.926115 0.769337
O O12 0.500000 0.387986 0.250000
#
# Coordination Sequence:
#
# PCOD9305912 Si02
#       6
#     4   8   8   8   8   8
#     4  12  26  46  76 104 150 196 262 306 384 452
#     4  11  26  48  71 113 147 200 250 320 374 459
#     4  12  25  45  76 106 145 203 247 312 387 452
#     4  12  24  48  74 108 155 201 254 319 378 461
#     4  11  24  48  75 106 154 192 256 310 386 459
#     4  12  26  49  75 112 159 201 256 319 384 459
#
# _framework density 24.334529
#
# number of rings (size 3 to 8) (size 9 to 14) (size 15 to 20)
#    0.000    0.364    4.545    3.818    2.545    1.455 
#   13.091    0.000    0.000    0.000    0.000    0.000 
#    0.000    0.000    0.000    0.000    0.000    0.000 
#
# Total GULP energy -123139.267061 kJ/mol
# GULP energy per Si atom -5597.239412 kJ/mol
# Density = 2.427914 g / cm^3
# Si number density = 24.334529 Si / 1000 Ang^3
#
#
#
# Elastic Constant Matrix: (Units=GPa)
#
#
# Indices 1 2 3 4 5 6 
#
# 1 86.5234 30.6518 25.3016 0.0000 -7.6478 0.0000
# 2 30.6518 111.9486 46.6316 0.0000 -10.0462 0.0000
# 3 25.3016 46.6316 151.8693 0.0000 -17.1208 0.0000
# 4 0.0000 0.0000 0.0000 9.4736 0.0000 29.2051
# 5 -7.6478 -10.0462 -17.1208 0.0000 31.3026 0.0000
# 6 0.0000 0.0000 0.0000 29.2051 0.0000 7.9539
#
#
#
# Elastic Compliance Matrix: (Units=1/GPa)
#
#
# Indices 1 2 3 4 5 6 
#
# 1 0.013075 -0.002984 -0.001076 0.000000 0.001648 0.000000
# 2 -0.002984 0.011006 -0.002735 0.000000 0.001307 0.000000
# 3 -0.001076 -0.002735 0.007966 0.000000 0.003216 0.000000
# 4 0.000000 0.000000 0.000000 -0.010229 0.000000 0.037559
# 5 0.001648 0.001307 0.003216 0.000000 0.034528 0.000000
# 6 0.000000 0.000000 0.000000 0.037559 0.000000 -0.012183
#
#
# Mechanical properties :
#
#
# Convention : Reuss Voigt Hill
#
# Bulk Modulus (GPa) = 54.17875 61.72346 57.95110
# Shear Modulus (GPa) = 78.24040 26.26310 52.25175
#
# Velocity S-wave (km/s) = 5.67643 3.28876 4.63884
# Velocity P-wave (km/s) = 8.07929 6.31196 7.24968
#
# Compressibility (1/GPa) = 0.01845742
#
# Stress axis : x y z
#
# Youngs Moduli (GPa) = 76.48176 90.85801 125.52877
#
# Poissons Ratio (x) = 0.27109 0.13511
# Poissons Ratio (y) = 0.22820 0.34332
# Poissons Ratio (z) = 0.08232 0.24849
#
# Static dielectric constant tensor:
#      x y z
#    x 2.082750 0.000000 -0.121290 
#    y 0.000000 1.885350 0.000000 
#    z -0.121290 0.000000 1.980120 
# 
# From -- ./inp_files/196644.got.cif
#   From: 2010.05.17/outbox.cif.g08.bks.cpg/sg15_99_cif.got.tgz:196644.got - 2010.06.03 18:47:42.
