data_PCOD9305561
_publ_section_title
;
Structure prediction by ZEFSAII (Michael W. Deem and Ramdas Pophale) SiO2 
 PCOD9305561
Probable space group: C 2/C
;
_chemical_formula_sum "Si O2"
_cell_formula_units_Z 40
_cell_length_a 4.976291
_cell_length_b 13.718315
_cell_length_c 27.570793
_cell_angle_alpha 90.000000
_cell_angle_beta 88.832534
_cell_angle_gamma 90.000000
_cell_volume 1881.766074
_symmetry_space_group_name_H-M "C 2/C"
_symmetry_group_IT_number 15
_symmetry_cell_setting 'monoclinic'
loop_
_space_group_symop_operation_xyz
x,y,z
-x,y,1/2-z
-x,-y,-z
x,-y,1/2+z
1/2+x,1/2+y,z
1/2-x,1/2+y,1/2-z
1/2-x,1/2-y,-z
1/2+x,1/2-y,1/2+z
loop_
_atom_site_type_symbol
_atom_site_label
_atom_site_fract_x
_atom_site_fract_y
_atom_site_fract_z
Si Si1 0.921951 0.930943 0.598407
Si Si2 0.212478 0.938148 0.794367
Si Si3 0.002610 0.741788 0.963919
Si Si4 0.000000 0.737303 0.250000
Si Si5 0.573891 0.974446 0.444312
Si Si6 0.000000 0.614117 0.750000
O O1 0.953465 0.936306 0.655610
O O2 0.987136 0.826947 0.575192
O O3 0.615845 0.958659 0.587642
O O4 0.118476 0.004646 0.569503
O O5 0.403212 0.842389 0.790606
O O6 0.000000 0.938063 0.750000
O O7 0.400148 0.034587 0.790464
O O8 0.008994 0.638221 0.937835
O O9 0.250000 0.750000 0.000000
O O10 0.750000 0.750000 0.000000
O O11 0.749934 0.811592 0.250363
O O12 0.500000 0.000000 0.500000
#
# Coordination Sequence:
#
# PCOD9305561 Si02
#       6
#     8   8   8   4   8   4
#     4  12  27  43  72 103 140 187 235 283 363 414
#     4  11  27  47  74 107 148 187 244 301 351 435
#     4  12  23  43  69  98 139 180 227 290 347 414
#     4  11  24  47  76  98 144 187 238 299 362 416
#     4  12  24  44  71 100 141 184 234 292 350 417
#     4  11  24  45  74  98 144 187 234 299 366 406
#
# _framework density 21.256626000000001
#
# number of rings (size 3 to 8) (size 9 to 14) (size 15 to 20)
#    0.000    0.400    6.000    1.800    5.600    3.200 
#    0.000    0.000    0.000    0.000    0.000    0.000 
#    0.000    0.000    0.000    0.000    0.000    0.000 
#
# Total GULP energy -111693.463911 kJ/mol
# GULP energy per Si atom -5584.673196 kJ/mol
# Density = 2.120825 g / cm^3
# Si number density = 21.256626 Si / 1000 Ang^3
#
#
#
# Elastic Constant Matrix: (Units=GPa)
#
#
# Indices 1 2 3 4 5 6 
#
# 1 121.4606 22.3456 9.4851 0.0000 -12.0029 0.0000
# 2 22.3456 176.9444 6.7560 0.0000 -17.2995 0.0000
# 3 9.4851 6.7560 108.8285 0.0000 -9.7988 0.0000
# 4 0.0000 0.0000 0.0000 15.2586 0.0000 -13.7728
# 5 -12.0029 -17.2995 -9.7988 0.0000 34.8092 0.0000
# 6 0.0000 0.0000 0.0000 -13.7728 0.0000 44.2276
#
#
#
# Elastic Compliance Matrix: (Units=1/GPa)
#
#
# Indices 1 2 3 4 5 6 
#
# 1 0.008666 -0.000838 -0.000484 0.000000 0.002436 0.000000
# 2 -0.000838 0.006022 -0.000059 0.000000 0.002688 0.000000
# 3 -0.000484 -0.000059 0.009457 0.000000 0.002466 0.000000
# 4 0.000000 0.000000 0.000000 0.091160 0.000000 0.028388
# 5 0.002436 0.002688 0.002466 0.000000 0.031598 0.000000
# 6 0.000000 0.000000 0.000000 0.028388 0.000000 0.031451
#
#
# Mechanical properties :
#
#
# Convention : Reuss Voigt Hill
#
# Bulk Modulus (GPa) = 46.76513 53.82299 50.29406
# Shear Modulus (GPa) = 26.56150 43.43553 34.99851
#
# Velocity S-wave (km/s) = 3.53875 4.52529 4.06208
# Velocity P-wave (km/s) = 6.22455 7.25809 6.76110
#
# Compressibility (1/GPa) = 0.02138345
#
# Stress axis : x y z
#
# Youngs Moduli (GPa) = 115.39712 166.04968 105.74593
#
# Poissons Ratio (x) = 0.13911 0.05118
# Poissons Ratio (y) = 0.09668 0.00622
# Poissons Ratio (z) = 0.05585 0.00977
#
# Static dielectric constant tensor:
#      x y z
#    x 1.784780 0.000000 0.035670 
#    y 0.000000 1.772540 0.000000 
#    z 0.035670 0.000000 1.769970 
# 
# From -- ./inp_files/285237.got.cif
#   From: 2010.05.17/outbox.cif.g08.bks.cpg/sg15_143_cif.got.tgz:285237.got - 2010.06.03 18:47:42.
