data_PCOD9305959
_publ_section_title
;
Structure prediction by ZEFSAII (Michael W. Deem and Ramdas Pophale) SiO2 
 PCOD9305959
Probable space group: C 2/C
;
_chemical_formula_sum "Si O2"
_cell_formula_units_Z 40
_cell_length_a 18.104724
_cell_length_b 9.288973
_cell_length_c 21.424975
_cell_angle_alpha 90.000000
_cell_angle_beta 156.606873
_cell_angle_gamma 90.000000
_cell_volume 1430.578802
_symmetry_space_group_name_H-M "C 2/C"
_symmetry_group_IT_number 15
_symmetry_cell_setting 'monoclinic'
loop_
_space_group_symop_operation_xyz
x,y,z
-x,y,1/2-z
-x,-y,-z
x,-y,1/2+z
1/2+x,1/2+y,z
1/2-x,1/2+y,1/2-z
1/2-x,1/2-y,-z
1/2+x,1/2-y,1/2+z
loop_
_atom_site_type_symbol
_atom_site_label
_atom_site_fract_x
_atom_site_fract_y
_atom_site_fract_z
Si Si1 0.185272 0.621607 0.705649
Si Si2 0.832419 0.325685 0.504198
Si Si3 0.754648 0.118230 0.335853
Si Si4 0.659781 0.732992 0.498342
Si Si5 0.347253 0.555638 0.220182
O O1 0.237170 0.773816 0.716921
O O2 0.304869 0.540906 0.851261
O O3 0.211301 0.512458 0.667397
O O4 0.987201 0.655339 0.583139
O O5 0.750000 0.250000 0.500000
O O6 0.856199 0.204837 0.468800
O O7 0.691409 0.443716 0.365899
O O8 0.033998 0.385719 0.679658
O O9 0.750000 0.750000 0.500000
O O10 0.551241 0.580621 0.408751
O O11 0.822862 0.783516 0.672177
#
# Coordination Sequence:
#
# PCOD9305959 Si02
#       5
#     8   8   8   8   8
#     4  11  24  49  79 117 155 207 266 323 395 479
#     4  11  26  51  76 110 155 207 262 324 394 481
#     4  11  25  46  80 109 155 207 262 323 393 477
#     4  12  26  48  79 116 159 206 261 334 399 466
#     4  11  26  51  80 112 162 209 262 326 398 483
#
# _framework density 27.960711
#
# number of rings (size 3 to 8) (size 9 to 14) (size 15 to 20)
#    0.000    0.800    4.000    1.800    2.800    7.200 
#   14.400    0.000    0.000    0.000    0.000    0.000 
#    0.000    0.000    0.000    0.000    0.000    0.000 
#
# Total GULP energy -111695.143991 kJ/mol
# GULP energy per Si atom -5584.757200 kJ/mol
# Density = 2.789707 g / cm^3
# Si number density = 27.960711 Si / 1000 Ang^3
#
#
#
# Elastic Constant Matrix: (Units=GPa)
#
#
# Indices 1 2 3 4 5 6 
#
# 1 165.8423 45.8224 29.3226 0.0025 15.6781 0.0006
# 2 45.8224 142.9401 -6.1562 0.0045 -21.8678 0.0021
# 3 29.3226 -6.1562 49.6832 0.0064 -4.4302 0.0038
# 4 0.0025 0.0045 0.0064 59.7491 0.0024 -17.8294
# 5 15.6781 -21.8678 -4.4302 0.0024 53.1572 0.0007
# 6 0.0006 0.0021 0.0038 -17.8294 0.0007 48.7022
#
#
#
# Elastic Compliance Matrix: (Units=1/GPa)
#
#
# Indices 1 2 3 4 5 6 
#
# 1 0.008510 -0.003671 -0.005880 0.000001 -0.004510 0.000001
# 2 -0.003671 0.009122 0.003756 -0.000002 0.005149 -0.000001
# 3 -0.005880 0.003756 0.024538 -0.000004 0.005324 -0.000003
# 4 0.000001 -0.000002 -0.000004 0.018789 -0.000002 0.006879
# 5 -0.004510 0.005149 0.005324 -0.000002 0.022704 -0.000002
# 6 0.000001 -0.000001 -0.000003 0.006879 -0.000002 0.023051
#
#
# Mechanical properties :
#
#
# Convention : Reuss Voigt Hill
#
# Bulk Modulus (GPa) = 32.70038 55.16036 43.93037
# Shear Modulus (GPa) = 38.91101 51.62016 45.26559
#
# Velocity S-wave (km/s) = 3.73450 4.30137 4.02792
# Velocity P-wave (km/s) = 5.50599 6.66631 6.11374
#
# Compressibility (1/GPa) = 0.03058069
#
# Stress axis : x y z
#
# Youngs Moduli (GPa) = 117.50561 109.62117 40.75326
#
# Poissons Ratio (x) = 0.40246 0.23962
# Poissons Ratio (y) = 0.43141 -0.15308
# Poissons Ratio (z) = 0.69091 -0.41177
#
# Static dielectric constant tensor:
#      x y z
#    x 2.181430 0.000000 0.116290 
#    y 0.000000 2.202650 0.000000 
#    z 0.116290 0.000000 2.504970 
# 
# From -- ./inp_files/248709.got.cif
#   From: 2010.05.17/outbox.cif.g08.bks.cpg/sg15_125_cif.got.tgz:248709.got - 2010.06.03 18:47:42.
