data_PCOD9305246
_publ_section_title
;
Structure prediction by ZEFSAII (Michael W. Deem and Ramdas Pophale) SiO2 
 PCOD9305246
Probable space group: C 2/C
;
_chemical_formula_sum "Si O2"
_cell_formula_units_Z 48
_cell_length_a 15.968119
_cell_length_b 16.278296
_cell_length_c 7.031535
_cell_angle_alpha 90.000000
_cell_angle_beta 86.797573
_cell_angle_gamma 90.000000
_cell_volume 1824.879194
_symmetry_space_group_name_H-M "C 2/C"
_symmetry_group_IT_number 15
_symmetry_cell_setting 'monoclinic'
loop_
_space_group_symop_operation_xyz
x,y,z
-x,y,1/2-z
-x,-y,-z
x,-y,1/2+z
1/2+x,1/2+y,z
1/2-x,1/2+y,1/2-z
1/2-x,1/2-y,-z
1/2+x,1/2-y,1/2+z
loop_
_atom_site_type_symbol
_atom_site_label
_atom_site_fract_x
_atom_site_fract_y
_atom_site_fract_z
Si Si1 0.497340 0.875678 0.525918
Si Si2 0.857843 0.506558 0.019835
Si Si3 0.940405 0.933348 0.601578
Si Si4 0.610601 0.265999 0.010931
Si Si5 0.740588 0.282923 0.291072
Si Si6 0.767901 0.017726 0.716607
O O1 0.500000 0.880903 0.750000
O O2 0.571749 0.937041 0.455102
O O3 0.528451 0.785508 0.474542
O O4 0.407274 0.908347 0.476665
O O5 0.833705 0.514621 0.274557
O O6 0.752253 0.500674 0.034209
O O7 0.910563 0.861176 0.470824
O O8 0.000000 0.892117 0.750000
O O9 0.858669 0.975527 0.700327
O O10 0.000000 0.000000 0.500000
O O11 0.680195 0.247839 0.842068
O O12 0.658489 0.244056 0.200069
O O13 0.750000 0.250000 0.500000
O O14 0.734119 0.382197 0.285162
#
# Coordination Sequence:
#
# PCOD9305246 Si02
#       6
#     8   8   8   8   8   8
#     4  11  24  44  71 110 157 196 247 309 398 471
#     4  11  24  43  74 113 149 197 240 320 397 465
#     4  12  29  52  78 110 152 211 268 332 399 466
#     4  11  27  51  73 112 167 197 264 334 383 475
#     4  11  27  46  80 117 147 212 263 320 402 468
#     4  12  25  48  78 108 151 191 268 317 392 480
#
# _framework density 26.303111000000001
#
# number of rings (size 3 to 8) (size 9 to 14) (size 15 to 20)
#    0.000    0.667    3.333    3.000    9.333    3.333 
#    0.000    0.000    0.000    0.000    0.000    0.000 
#    0.000    0.000    0.000    0.000    0.000    0.000 
#
# Total GULP energy -134306.135569 kJ/mol
# GULP energy per Si atom -5596.088982 kJ/mol
# Density = 2.624324 g / cm^3
# Si number density = 26.303111 Si / 1000 Ang^3
#
#
#
# Elastic Constant Matrix: (Units=GPa)
#
#
# Indices 1 2 3 4 5 6 
#
# 1 195.5786 69.5018 73.7977 0.0000 -8.0781 0.0000
# 2 69.5018 149.7874 27.4484 0.0000 -20.2021 0.0000
# 3 73.7977 27.4484 183.3387 0.0000 5.5821 0.0000
# 4 0.0000 0.0000 0.0000 40.0010 0.0000 0.2604
# 5 -8.0781 -20.2021 5.5821 0.0000 60.7350 0.0000
# 6 0.0000 0.0000 0.0000 0.2604 0.0000 40.9137
#
#
#
# Elastic Compliance Matrix: (Units=1/GPa)
#
#
# Indices 1 2 3 4 5 6 
#
# 1 0.007025 -0.002785 -0.002418 0.000000 0.000230 0.000000
# 2 -0.002785 0.008331 -0.000200 0.000000 0.002419 0.000000
# 3 -0.002418 -0.000200 0.006487 0.000000 -0.000984 0.000000
# 4 0.000000 0.000000 0.000000 0.025000 0.000000 -0.000159
# 5 0.000230 0.002419 -0.000984 0.000000 0.017391 0.000000
# 6 0.000000 0.000000 0.000000 -0.000159 0.000000 0.024443
#
#
# Mechanical properties :
#
#
# Convention : Reuss Voigt Hill
#
# Bulk Modulus (GPa) = 90.59670 96.68894 93.64282
# Shear Modulus (GPa) = 48.46747 52.19373 50.33060
#
# Velocity S-wave (km/s) = 4.29727 4.45940 4.37909
# Velocity P-wave (km/s) = 7.69026 7.95954 7.82606
#
# Compressibility (1/GPa) = 0.01103793
#
# Stress axis : x y z
#
# Youngs Moduli (GPa) = 142.35740 120.02713 154.14557
#
# Poissons Ratio (x) = 0.33432 0.37265
# Poissons Ratio (y) = 0.39652 0.03080
# Poissons Ratio (z) = 0.34415 0.02398
#
# Static dielectric constant tensor:
#      x y z
#    x 1.934290 0.000000 0.056800 
#    y 0.000000 1.988150 0.000000 
#    z 0.056800 0.000000 2.716850 
# 
# From -- ./inp_files/39636.got.cif
#   From: 2010.05.17/outbox.cif.g08.bks.cpg/sg15_20_cif.got.tgz:39636.got - 2010.06.03 18:47:42.
