data_PCOD9305851
_publ_section_title
;
Structure prediction by ZEFSAII (Michael W. Deem and Ramdas Pophale) SiO2 
 PCOD9305851
Probable space group: C 2/C
;
_chemical_formula_sum "Si O2"
_cell_formula_units_Z 32
_cell_length_a 12.750927
_cell_length_b 7.118372
_cell_length_c 14.516355
_cell_angle_alpha 90.000000
_cell_angle_beta 117.018569
_cell_angle_gamma 90.000000
_cell_volume 1173.786632
_symmetry_space_group_name_H-M "C 2/C"
_symmetry_group_IT_number 15
_symmetry_cell_setting 'monoclinic'
loop_
_space_group_symop_operation_xyz
x,y,z
-x,y,1/2-z
-x,-y,-z
x,-y,1/2+z
1/2+x,1/2+y,z
1/2-x,1/2+y,1/2-z
1/2-x,1/2-y,-z
1/2+x,1/2-y,1/2+z
loop_
_atom_site_type_symbol
_atom_site_label
_atom_site_fract_x
_atom_site_fract_y
_atom_site_fract_z
Si Si1 0.369491 0.563348 0.209506
Si Si2 0.159171 0.481095 0.258580
Si Si3 0.484095 0.804530 0.941100
Si Si4 0.821053 0.995026 0.484475
O O1 0.500000 0.481308 0.250000
O O2 0.390438 0.771290 0.258917
O O3 0.296389 0.025729 0.121178
O O4 0.310812 0.568510 0.085585
O O5 0.072671 0.628350 0.177495
O O6 0.275458 0.474562 0.240631
O O7 0.396233 0.664174 0.960598
O O8 0.603599 0.686076 0.984792
O O9 0.500000 0.000000 0.000000
#
# Coordination Sequence:
#
# PCOD9305851 Si02
#       4
#     8   8   8   8
#     4  12  27  51  83 117 164 218 270 340 412 489
#     4  12  25  50  83 119 164 213 277 341 405 504
#     4  11  24  47  83 123 162 214 283 337 407 511
#     4  11  25  51  80 117 171 215 269 347 415 487
#
# _framework density 27.262194000000001
#
# number of rings (size 3 to 8) (size 9 to 14) (size 15 to 20)
#    0.000    0.500    2.500    6.750    0.000    0.000 
#    9.000    2.500    5.500    0.000    0.000    0.000 
#    0.000    0.000    0.000    0.000    0.000    0.000 
#
# Total GULP energy -89962.496165 kJ/mol
# GULP energy per Si atom -5622.656010 kJ/mol
# Density = 2.720014 g / cm^3
# Si number density = 27.262194 Si / 1000 Ang^3
#
#
#
# Elastic Constant Matrix: (Units=GPa)
#
#
# Indices 1 2 3 4 5 6 
#
# 1 121.4481 39.7449 15.5318 0.0000 -1.1563 0.0000
# 2 39.7449 189.9922 38.1355 0.0000 -3.1608 0.0000
# 3 15.5318 38.1355 162.3173 0.0000 -8.8509 0.0000
# 4 0.0000 0.0000 0.0000 61.0894 0.0000 -10.3482
# 5 -1.1563 -3.1608 -8.8509 0.0000 47.4392 0.0000
# 6 0.0000 0.0000 0.0000 -10.3482 0.0000 67.1756
#
#
#
# Elastic Compliance Matrix: (Units=1/GPa)
#
#
# Indices 1 2 3 4 5 6 
#
# 1 0.008868 -0.001768 -0.000432 0.000000 0.000018 0.000000
# 2 -0.001768 0.005877 -0.001205 0.000000 0.000124 0.000000
# 3 -0.000432 -0.001205 0.006547 0.000000 0.001131 0.000000
# 4 0.000000 0.000000 0.000000 0.016808 0.000000 0.002589
# 5 0.000018 0.000124 0.001131 0.000000 0.021299 0.000000
# 6 0.000000 0.000000 0.000000 0.002589 0.000000 0.015285
#
#
# Mechanical properties :
#
#
# Convention : Reuss Voigt Hill
#
# Bulk Modulus (GPa) = 69.05250 73.39802 71.22526
# Shear Modulus (GPa) = 57.92260 60.49719 59.20990
#
# Velocity S-wave (km/s) = 4.61439 4.71583 4.66539
# Velocity P-wave (km/s) = 7.33309 7.52552 7.42993
#
# Compressibility (1/GPa) = 0.01448173
#
# Stress axis : x y z
#
# Youngs Moduli (GPa) = 112.76458 170.15068 152.74501
#
# Poissons Ratio (x) = 0.30084 0.06602
# Poissons Ratio (y) = 0.19938 0.18404
# Poissons Ratio (z) = 0.04874 0.20501
#
# Static dielectric constant tensor:
#      x y z
#    x 1.964040 0.000000 0.116730 
#    y 0.000000 2.074860 0.000000 
#    z 0.116730 0.000000 2.062500 
# 
# From -- ./inp_files/201907.got.cif
#   From: 2010.05.17/outbox.cif.g08.bks.cpg/sg15_101_cif.got.tgz:201907.got - 2010.06.03 18:47:42.
