data_PCOD9305647
_publ_section_title
;
Structure prediction by ZEFSAII (Michael W. Deem and Ramdas Pophale) SiO2 
 PCOD9305647
Probable space group: C 2/C
;
_chemical_formula_sum "Si O2"
_cell_formula_units_Z 52
_cell_length_a 12.866761
_cell_length_b 8.411901
_cell_length_c 23.715423
_cell_angle_alpha 90.000000
_cell_angle_beta 66.366373
_cell_angle_gamma 90.000000
_cell_volume 2351.528422
_symmetry_space_group_name_H-M "C 2/C"
_symmetry_group_IT_number 15
_symmetry_cell_setting 'monoclinic'
loop_
_space_group_symop_operation_xyz
x,y,z
-x,y,1/2-z
-x,-y,-z
x,-y,1/2+z
1/2+x,1/2+y,z
1/2-x,1/2+y,1/2-z
1/2-x,1/2-y,-z
1/2+x,1/2-y,1/2+z
loop_
_atom_site_type_symbol
_atom_site_label
_atom_site_fract_x
_atom_site_fract_y
_atom_site_fract_z
Si Si1 0.000000 0.058412 0.750000
Si Si2 0.551597 0.340903 0.436420
Si Si3 0.145054 0.841276 0.804777
Si Si4 0.979136 0.672976 0.341798
Si Si5 0.149248 0.552849 0.733688
Si Si6 0.817573 0.604038 0.893279
Si Si7 0.464985 0.686362 0.438461
O O1 0.054458 0.180797 0.692093
O O2 0.920854 0.947111 0.727866
O O3 0.546441 0.240023 0.380670
O O4 0.681922 0.391683 0.419636
O O5 0.470248 0.494025 0.444070
O O6 0.515780 0.254638 0.502056
O O7 0.193022 0.685451 0.765733
O O8 0.064952 0.785971 0.872400
O O9 0.248570 0.940507 0.805350
O O10 0.059420 0.555515 0.287110
O O11 0.874984 0.569078 0.388707
O O12 0.125636 0.646390 0.680327
O O13 0.859737 0.728228 0.931198
#
# Coordination Sequence:
#
# PCOD9305647 Si02
#       7
#     4   8   8   8   8   8   8
#     4  12  22  40  64 104 136 176 232 288 350 420
#     4  11  26  49  69 100 143 185 239 285 337 418
#     4  12  24  41  70 100 139 186 225 292 360 408
#     4  12  25  43  70 103 143 176 232 296 342 422
#     4  12  24  42  68 104 140 177 229 291 358 416
#     4  12  23  45  72 100 137 183 227 287 350 410
#     4  11  24  46  71  97 141 189 234 286 342 414
#
# _framework density 22.113277
#
# number of rings (size 3 to 8) (size 9 to 14) (size 15 to 20)
#    0.000    0.308    6.154    3.231    0.000    0.615 
#    0.000    3.077    3.385    0.000    0.000    0.000 
#    0.000    0.000    0.000    0.000    0.000    0.000 
#
# Total GULP energy -145067.708546 kJ/mol
# GULP energy per Si atom -5579.527252 kJ/mol
# Density = 2.206295 g / cm^3
# Si number density = 22.113277 Si / 1000 Ang^3
#
#
#
# Elastic Constant Matrix: (Units=GPa)
#
#
# Indices 1 2 3 4 5 6 
#
# 1 92.0645 31.9805 28.7902 0.0000 3.3945 0.0000
# 2 31.9805 62.8802 23.1177 0.0000 5.5209 0.0000
# 3 28.7902 23.1177 141.4833 0.0000 15.0469 0.0000
# 4 0.0000 0.0000 0.0000 22.7835 0.0000 5.5311
# 5 3.3945 5.5209 15.0469 0.0000 27.7378 0.0000
# 6 0.0000 0.0000 0.0000 5.5311 0.0000 28.9639
#
#
#
# Elastic Compliance Matrix: (Units=1/GPa)
#
#
# Indices 1 2 3 4 5 6 
#
# 1 0.013592 -0.006302 -0.001796 0.000000 0.000565 0.000000
# 2 -0.006302 0.019945 -0.001737 0.000000 -0.002257 0.000000
# 3 -0.001796 -0.001737 0.008126 0.000000 -0.003843 0.000000
# 4 0.000000 0.000000 0.000000 0.046025 0.000000 -0.008789
# 5 0.000565 -0.002257 -0.003843 0.000000 0.038516 0.000000
# 6 0.000000 0.000000 0.000000 -0.008789 0.000000 0.036204
#
#
# Mechanical properties :
#
#
# Convention : Reuss Voigt Hill
#
# Bulk Modulus (GPa) = 45.46850 51.57831 48.52341
# Shear Modulus (GPa) = 26.39785 30.06633 28.23209
#
# Velocity S-wave (km/s) = 3.45883 3.69134 3.57697
# Velocity P-wave (km/s) = 6.04629 6.44541 6.24903
#
# Compressibility (1/GPa) = 0.02199325
#
# Stress axis : x y z
#
# Youngs Moduli (GPa) = 73.57290 50.13783 123.06357
#
# Poissons Ratio (x) = 0.31597 0.22105
# Poissons Ratio (y) = 0.46366 0.21370
# Poissons Ratio (z) = 0.13215 0.08707
#
# Static dielectric constant tensor:
#      x y z
#    x 1.845460 0.000000 0.016810 
#    y 0.000000 1.814210 0.000000 
#    z 0.016810 0.000000 1.849160 
# 
# From -- ./inp_files/242482.got.cif
#   From: 2010.05.17/outbox.cif.g08.bks.cpg/sg15_122_cif.got.tgz:242482.got - 2010.06.03 18:47:42.
