data_PCOD9305009
_publ_section_title
;
Structure prediction by ZEFSAII (Michael W. Deem and Ramdas Pophale) SiO2 
 PCOD9305009
Probable space group: C 2/C
;
_chemical_formula_sum "Si O2"
_cell_formula_units_Z 36
_cell_length_a 4.750115
_cell_length_b 29.318686
_cell_length_c 10.612750
_cell_angle_alpha 90.000000
_cell_angle_beta 108.364021
_cell_angle_gamma 90.000000
_cell_volume 1402.738294
_symmetry_space_group_name_H-M "C 2/C"
_symmetry_group_IT_number 15
_symmetry_cell_setting 'monoclinic'
loop_
_space_group_symop_operation_xyz
x,y,z
-x,y,1/2-z
-x,-y,-z
x,-y,1/2+z
1/2+x,1/2+y,z
1/2-x,1/2+y,1/2-z
1/2-x,1/2-y,-z
1/2+x,1/2-y,1/2+z
loop_
_atom_site_type_symbol
_atom_site_label
_atom_site_fract_x
_atom_site_fract_y
_atom_site_fract_z
Si Si1 0.000000 0.319425 0.750000
Si Si2 0.805091 0.761663 0.368016
Si Si3 0.250951 0.865554 0.112462
Si Si4 0.671480 0.892918 0.948038
Si Si5 0.206010 0.987366 0.653473
O O1 0.991915 0.280339 0.642412
O O2 0.226707 0.356082 0.842758
O O3 0.500000 0.755977 0.250000
O O4 0.750000 0.750000 0.500000
O O5 0.877428 0.814891 0.374278
O O6 0.500000 0.874266 0.250000
O O7 0.406880 0.873510 0.997905
O O8 0.963288 0.896411 0.074472
O O9 0.639108 0.941686 0.881382
O O10 0.500000 0.014473 0.750000
O O11 0.000000 0.981277 0.750000
O O12 0.000000 0.000000 0.500000
#
# Coordination Sequence:
#
# PCOD9305009 Si02
#       5
#     4   8   8   8   8
#     4  12  26  40  74  98 152 204 272 308 380 444
#     4  11  24  41  64  98 143 201 260 317 371 433
#     4  11  26  44  68 106 151 199 258 319 377 443
#     4  12  26  47  75 107 150 203 256 312 387 471
#     4  12  28  53  87 124 161 202 261 331 413 493
#
# _framework density 25.664086000000001
#
# number of rings (size 3 to 8) (size 9 to 14) (size 15 to 20)
#    0.000    0.444    3.333    4.000    6.222    4.444 
#    0.000    0.000    0.000    0.000    0.000    0.000 
#    0.000    0.000    0.000    0.000    0.000    0.000 
#
# Total GULP energy -100260.562977 kJ/mol
# GULP energy per Si atom -5570.031276 kJ/mol
# Density = 2.560567 g / cm^3
# Si number density = 25.664086 Si / 1000 Ang^3
#
#
#
# Elastic Constant Matrix: (Units=GPa)
#
#
# Indices 1 2 3 4 5 6 
#
# 1 89.6263 2.4399 33.0197 0.0000 -3.2014 0.0000
# 2 2.4399 105.3585 24.2870 0.0000 -4.1503 0.0000
# 3 33.0197 24.2870 171.4191 0.0000 6.0462 0.0000
# 4 0.0000 0.0000 0.0000 41.0943 0.0000 10.5838
# 5 -3.2014 -4.1503 6.0462 0.0000 64.8673 0.0000
# 6 0.0000 0.0000 0.0000 10.5838 0.0000 21.1694
#
#
#
# Elastic Compliance Matrix: (Units=1/GPa)
#
#
# Indices 1 2 3 4 5 6 
#
# 1 0.012062 0.000306 -0.002396 0.000000 0.000838 0.000000
# 2 0.000306 0.009857 -0.001483 0.000000 0.000784 0.000000
# 3 -0.002396 -0.001483 0.006534 0.000000 -0.000822 0.000000
# 4 0.000000 0.000000 0.000000 0.027931 0.000000 -0.013964
# 5 0.000838 0.000784 -0.000822 0.000000 0.015584 0.000000
# 6 0.000000 0.000000 0.000000 -0.013964 0.000000 0.054219
#
#
# Mechanical properties :
#
#
# Convention : Reuss Voigt Hill
#
# Bulk Modulus (GPa) = 46.93406 53.98856 50.46131
# Shear Modulus (GPa) = 35.60317 45.87004 40.73660
#
# Velocity S-wave (km/s) = 3.72866 4.23226 3.98842
# Velocity P-wave (km/s) = 6.07163 6.70560 6.39647
#
# Compressibility (1/GPa) = 0.02130649
#
# Stress axis : x y z
#
# Youngs Moduli (GPa) = 82.90565 101.44975 153.03623
#
# Poissons Ratio (x) = -0.03105 0.36673
# Poissons Ratio (y) = -0.02538 0.22698
# Poissons Ratio (z) = 0.19867 0.15047
#
# Static dielectric constant tensor:
#      x y z
#    x 2.107820 0.000000 0.003850 
#    y 0.000000 2.127780 0.000000 
#    z 0.003850 0.000000 2.077920 
# 
# From -- ./inp_files/73412.got.cif
#   From: 2010.05.17/outbox.cif.g08.bks.cpg/sg15_37_cif.got.tgz:73412.got - 2010.06.03 18:47:42.
