data_PCOD9305953
_publ_section_title
;
Structure prediction by ZEFSAII (Michael W. Deem and Ramdas Pophale) SiO2 
 PCOD9305953
Probable space group: C 2/C
;
_chemical_formula_sum "Si O2"
_cell_formula_units_Z 32
_cell_length_a 22.207325
_cell_length_b 6.168578
_cell_length_c 10.338082
_cell_angle_alpha 90.000000
_cell_angle_beta 97.278788
_cell_angle_gamma 90.000000
_cell_volume 1404.776732
_symmetry_space_group_name_H-M "C 2/C"
_symmetry_group_IT_number 15
_symmetry_cell_setting 'monoclinic'
loop_
_space_group_symop_operation_xyz
x,y,z
-x,y,1/2-z
-x,-y,-z
x,-y,1/2+z
1/2+x,1/2+y,z
1/2-x,1/2+y,1/2-z
1/2-x,1/2-y,-z
1/2+x,1/2-y,1/2+z
loop_
_atom_site_type_symbol
_atom_site_label
_atom_site_fract_x
_atom_site_fract_y
_atom_site_fract_z
Si Si1 0.123238 0.400413 0.747404
Si Si2 0.818648 0.331510 0.015716
Si Si3 0.028971 0.692271 0.593297
Si Si4 0.918296 0.017005 0.606271
O O1 0.159943 0.390843 0.623388
O O2 0.068648 0.571533 0.712116
O O3 0.165583 0.478789 0.877131
O O4 0.091963 0.170727 0.772847
O O5 0.925850 0.820808 0.988269
O O6 0.860534 0.132646 0.071725
O O7 0.750000 0.250000 0.000000
O O8 0.022544 0.135460 0.382808
O O9 0.000000 0.500000 0.500000
#
# Coordination Sequence:
#
# PCOD9305953 Si02
#       4
#     8   8   8   8
#     4  12  27  52  75 122 157 202 266 328 401 476
#     4  12  31  51  79 111 154 213 268 327 389 472
#     4  11  24  49  76 119 156 202 255 323 399 485
#     4  11  26  48  79 110 160 202 256 319 407 460
#
# _framework density 22.779420999999999
#
# number of rings (size 3 to 8) (size 9 to 14) (size 15 to 20)
#    0.000    0.500    5.000    0.000    7.000    7.000 
#    0.000    0.000    0.000    0.000    0.000    0.000 
#    0.000    0.000    0.000    0.000    0.000    0.000 
#
# Total GULP energy -89662.909217 kJ/mol
# GULP energy per Si atom -5603.931826 kJ/mol
# Density = 2.272757 g / cm^3
# Si number density = 22.779421 Si / 1000 Ang^3
#
#
#
# Elastic Constant Matrix: (Units=GPa)
#
#
# Indices 1 2 3 4 5 6 
#
# 1 149.1685 58.8163 66.1044 0.0000 6.0567 0.0000
# 2 58.8163 114.3167 60.7703 0.0000 -12.5100 0.0000
# 3 66.1044 60.7703 142.4491 0.0000 -16.4682 0.0000
# 4 0.0000 0.0000 0.0000 65.4045 0.0000 -8.6158
# 5 6.0567 -12.5100 -16.4682 0.0000 38.3775 0.0000
# 6 0.0000 0.0000 0.0000 -8.6158 0.0000 43.9391
#
#
#
# Elastic Compliance Matrix: (Units=1/GPa)
#
#
# Indices 1 2 3 4 5 6 
#
# 1 0.009886 -0.003689 -0.003507 0.000000 -0.004268 0.000000
# 2 -0.003689 0.012796 -0.003365 0.000000 0.003310 0.000000
# 3 -0.003507 -0.003365 0.010543 0.000000 0.003981 0.000000
# 4 0.000000 0.000000 0.000000 0.015695 0.000000 0.003078
# 5 -0.004268 0.003310 0.003981 0.000000 0.029518 0.000000
# 6 0.000000 0.000000 0.000000 0.003078 0.000000 0.023362
#
#
# Mechanical properties :
#
#
# Convention : Reuss Voigt Hill
#
# Bulk Modulus (GPa) = 82.61746 86.36846 84.49296
# Shear Modulus (GPa) = 39.38364 44.22709 41.80536
#
# Velocity S-wave (km/s) = 4.16253 4.41107 4.28860
# Velocity P-wave (km/s) = 7.71034 7.99630 7.85462
#
# Compressibility (1/GPa) = 0.01210398
#
# Stress axis : x y z
#
# Youngs Moduli (GPa) = 101.15456 78.14722 94.84771
#
# Poissons Ratio (x) = 0.28828 0.33265
# Poissons Ratio (y) = 0.37315 0.31912
# Poissons Ratio (z) = 0.35477 0.26293
#
# Static dielectric constant tensor:
#      x y z
#    x 1.824630 0.000000 -0.047710 
#    y 0.000000 1.861040 0.000000 
#    z -0.047710 0.000000 1.925160 
# 
# From -- ./inp_files/115493.got.cif
#   From: 2010.05.17/outbox.cif.g08.bks.cpg/sg15_58_cif.got.tgz:115493.got - 2010.06.03 18:47:42.
