data_PCOD9305969
_publ_section_title
;
Structure prediction by ZEFSAII (Michael W. Deem and Ramdas Pophale) SiO2 
 PCOD9305969
Probable space group: C 2/C
;
_chemical_formula_sum "Si O2"
_cell_formula_units_Z 40
_cell_length_a 12.295799
_cell_length_b 13.178148
_cell_length_c 16.975193
_cell_angle_alpha 90.000000
_cell_angle_beta 36.798967
_cell_angle_gamma 90.000000
_cell_volume 1647.628598
_symmetry_space_group_name_H-M "C 2/C"
_symmetry_group_IT_number 15
_symmetry_cell_setting 'monoclinic'
loop_
_space_group_symop_operation_xyz
x,y,z
-x,y,1/2-z
-x,-y,-z
x,-y,1/2+z
1/2+x,1/2+y,z
1/2-x,1/2+y,1/2-z
1/2-x,1/2-y,-z
1/2+x,1/2-y,1/2+z
loop_
_atom_site_type_symbol
_atom_site_label
_atom_site_fract_x
_atom_site_fract_y
_atom_site_fract_z
Si Si1 0.300281 0.826253 0.899739
Si Si2 0.521949 0.400795 0.935677
Si Si3 0.169351 0.682195 0.692514
Si Si4 0.920779 0.483624 0.423157
Si Si5 0.288745 0.888351 0.653209
O O1 0.500000 0.800917 0.750000
O O2 0.154829 0.830217 0.912529
O O3 0.316993 0.941794 0.923779
O O4 0.250000 0.750000 0.000000
O O5 0.615387 0.430107 0.800042
O O6 0.500000 0.500000 0.000000
O O7 0.322206 0.354120 0.043451
O O8 0.273029 0.768604 0.679414
O O9 0.000000 0.737091 0.750000
O O10 0.069252 0.590766 0.795895
O O11 0.805725 0.418326 0.552271
O O12 0.036734 0.563977 0.406814
#
# Coordination Sequence:
#
# PCOD9305969 Si02
#       5
#     8   8   8   8   8
#     4  12  26  47  75 111 150 198 250 312 383 451
#     4  12  24  44  72 104 141 194 242 302 375 437
#     4  12  26  47  75 106 150 196 253 310 375 450
#     4  11  24  50  73 107 158 191 254 318 369 451
#     4  11  25  44  74 106 147 199 244 306 378 445
#
# _framework density 24.277315999999999
#
# number of rings (size 3 to 8) (size 9 to 14) (size 15 to 20)
#    0.000    0.400    4.000    4.200    0.000    8.000 
#    0.000    0.000    0.000    0.000    0.000    0.000 
#    0.000    0.000    0.000    0.000    0.000    0.000 
#
# Total GULP energy -111854.438828 kJ/mol
# GULP energy per Si atom -5592.721941 kJ/mol
# Density = 2.422206 g / cm^3
# Si number density = 24.277316 Si / 1000 Ang^3
#
#
#
# Elastic Constant Matrix: (Units=GPa)
#
#
# Indices 1 2 3 4 5 6 
#
# 1 98.3848 28.8615 64.1934 -0.0001 -6.2202 0.0001
# 2 28.8615 111.9581 40.4099 0.0001 8.8588 0.0000
# 3 64.1934 40.4099 214.0674 0.0002 6.8878 0.0001
# 4 -0.0001 0.0001 0.0002 42.2659 0.0000 4.0696
# 5 -6.2202 8.8588 6.8878 0.0000 42.7176 -0.0001
# 6 0.0001 0.0000 0.0001 4.0696 -0.0001 32.4605
#
#
#
# Elastic Compliance Matrix: (Units=1/GPa)
#
#
# Indices 1 2 3 4 5 6 
#
# 1 0.013460 -0.002381 -0.003685 0.000000 0.003048 0.000000
# 2 -0.002381 0.010131 -0.001126 0.000000 -0.002266 0.000000
# 3 -0.003685 -0.001126 0.006030 0.000000 -0.001275 0.000000
# 4 0.000000 0.000000 0.000000 0.023949 0.000000 -0.003002
# 5 0.003048 -0.002266 -0.001275 0.000000 0.024529 0.000000
# 6 0.000000 0.000000 0.000000 -0.003002 0.000000 0.031183
#
#
# Mechanical properties :
#
#
# Convention : Reuss Voigt Hill
#
# Bulk Modulus (GPa) = 65.62481 76.81554 71.22018
# Shear Modulus (GPa) = 38.83691 42.88518 40.86105
#
# Velocity S-wave (km/s) = 4.00399 4.20750 4.10701
# Velocity P-wave (km/s) = 6.96175 7.43731 7.20346
#
# Compressibility (1/GPa) = 0.01523814
#
# Stress axis : x y z
#
# Youngs Moduli (GPa) = 74.29679 98.70428 165.83960
#
# Poissons Ratio (x) = 0.23500 0.61108
# Poissons Ratio (y) = 0.17689 0.18667
# Poissons Ratio (z) = 0.27377 0.11110
#
# Static dielectric constant tensor:
#      x y z
#    x 1.996780 0.000000 0.055270 
#    y 0.000000 2.003490 0.000000 
#    z 0.055270 0.000000 1.963300 
# 
# From -- ./inp_files/205600.got.cif
#   From: 2010.05.17/outbox.cif.g08.bks.cpg/sg15_103_cif.got.tgz:205600.got - 2010.06.03 18:47:42.
