data_PCOD9305688
_publ_section_title
;
Structure prediction by ZEFSAII (Michael W. Deem and Ramdas Pophale) SiO2 
 PCOD9305688
Probable space group: C 2/C
;
_chemical_formula_sum "Si O2"
_cell_formula_units_Z 48
_cell_length_a 8.691803
_cell_length_b 22.987474
_cell_length_c 11.838708
_cell_angle_alpha 90.000000
_cell_angle_beta 105.693101
_cell_angle_gamma 90.000000
_cell_volume 2277.232527
_symmetry_space_group_name_H-M "C 2/C"
_symmetry_group_IT_number 15
_symmetry_cell_setting 'monoclinic'
loop_
_space_group_symop_operation_xyz
x,y,z
-x,y,1/2-z
-x,-y,-z
x,-y,1/2+z
1/2+x,1/2+y,z
1/2-x,1/2+y,1/2-z
1/2-x,1/2-y,-z
1/2+x,1/2-y,1/2+z
loop_
_atom_site_type_symbol
_atom_site_label
_atom_site_fract_x
_atom_site_fract_y
_atom_site_fract_z
Si Si1 0.671812 0.875409 0.340210
Si Si2 0.958750 0.790062 0.365843
Si Si3 0.178270 0.902487 0.741117
Si Si4 0.807678 0.032357 0.712717
Si Si5 0.587547 0.166985 0.068192
Si Si6 0.268210 0.379978 0.002063
O O1 0.500000 0.865036 0.250000
O O2 0.804255 0.830600 0.322307
O O3 0.734726 0.937874 0.310227
O O4 0.654941 0.863882 0.469340
O O5 0.919588 0.736725 0.440057
O O6 0.000000 0.766007 0.250000
O O7 0.103898 0.830758 0.436216
O O8 0.298274 0.853268 0.807988
O O9 0.175145 0.905950 0.605486
O O10 0.000000 0.890919 0.750000
O O11 0.235592 0.964766 0.800472
O O12 0.754996 0.071283 0.596397
O O13 0.000000 0.035649 0.750000
O O14 0.406325 0.146793 0.048743
#
# Coordination Sequence:
#
# PCOD9305688 Si02
#       6
#     8   8   8   8   8   8
#     4  12  23  43  68 104 130 181 238 279 343 407
#     4  12  23  45  71  98 141 184 232 281 343 413
#     4  11  28  44  69 104 140 180 230 289 344 404
#     4  11  24  46  73  96 133 187 232 285 340 412
#     4  12  27  43  67 106 142 180 228 288 343 407
#     4  12  23  47  71 100 137 185 230 275 356 403
#
# _framework density 21.078216999999999
#
# number of rings (size 3 to 8) (size 9 to 14) (size 15 to 20)
#    0.000    0.333    5.000    3.500    2.333    5.333 
#    0.000    0.000    0.000    0.000    0.000    0.000 
#    0.000    0.000    0.000    0.000    0.000    0.000 
#
# Total GULP energy -134301.691778 kJ/mol
# GULP energy per Si atom -5595.903824 kJ/mol
# Density = 2.103024 g / cm^3
# Si number density = 21.078217 Si / 1000 Ang^3
#
#
#
# Elastic Constant Matrix: (Units=GPa)
#
#
# Indices 1 2 3 4 5 6 
#
# 1 102.2965 32.9944 6.4808 0.0000 1.8531 0.0000
# 2 32.9944 98.3021 20.2887 0.0000 10.8063 0.0000
# 3 6.4808 20.2887 74.6922 0.0000 -16.3429 0.0000
# 4 0.0000 0.0000 0.0000 16.1218 0.0000 -8.0723
# 5 1.8531 10.8063 -16.3429 0.0000 36.3896 0.0000
# 6 0.0000 0.0000 0.0000 -8.0723 0.0000 -25.1507
#
#
#
# Elastic Compliance Matrix: (Units=1/GPa)
#
#
# Indices 1 2 3 4 5 6 
#
# 1 0.010976 -0.003805 0.000229 0.000000 0.000674 0.000000
# 2 -0.003805 0.012987 -0.004435 0.000000 -0.005654 0.000000
# 3 0.000229 -0.004435 0.016478 0.000000 0.008706 0.000000
# 4 0.000000 0.000000 0.000000 0.053440 0.000000 -0.017152
# 5 0.000674 -0.005654 0.008706 0.000000 0.033035 0.000000
# 6 0.000000 0.000000 0.000000 -0.017152 0.000000 -0.034255
#
#
# Mechanical properties :
#
#
# Convention : Reuss Voigt Hill
#
# Bulk Modulus (GPa) = 40.95298 43.86876 42.41087
# Shear Modulus (GPa) = 42.80010 19.84060 31.32035
#
# Velocity S-wave (km/s) = 4.51104 3.07136 3.85893
# Velocity P-wave (km/s) = 6.82670 5.78232 6.32610
#
# Compressibility (1/GPa) = 0.02441825
#
# Stress axis : x y z
#
# Youngs Moduli (GPa) = 91.10644 77.00114 60.68757
#
# Poissons Ratio (x) = 0.29302 -0.01388
# Poissons Ratio (y) = 0.34669 0.26913
# Poissons Ratio (z) = -0.02084 0.34147
#
# Static dielectric constant tensor:
#      x y z
#    x 1.728590 0.000000 -0.025230 
#    y 0.000000 1.729880 0.000000 
#    z -0.025230 0.000000 1.751250 
# 
# From -- ./inp_files/79108.got.cif
#   From: 2010.05.17/outbox.cif.g08.bks.cpg/sg15_40_cif.got.tgz:79108.got - 2010.06.03 18:47:42.
