data_PCOD9305983
_publ_section_title
;
Structure prediction by ZEFSAII (Michael W. Deem and Ramdas Pophale) SiO2 
 PCOD9305983
Probable space group: C 2/C
;
_chemical_formula_sum "Si O2"
_cell_formula_units_Z 32
_cell_length_a 10.565600
_cell_length_b 13.316720
_cell_length_c 8.919762
_cell_angle_alpha 90.000000
_cell_angle_beta 109.831912
_cell_angle_gamma 90.000000
_cell_volume 1180.571052
_symmetry_space_group_name_H-M "C 2/C"
_symmetry_group_IT_number 15
_symmetry_cell_setting 'monoclinic'
loop_
_space_group_symop_operation_xyz
x,y,z
-x,y,1/2-z
-x,-y,-z
x,-y,1/2+z
1/2+x,1/2+y,z
1/2-x,1/2+y,1/2-z
1/2-x,1/2-y,-z
1/2+x,1/2-y,1/2+z
loop_
_atom_site_type_symbol
_atom_site_label
_atom_site_fract_x
_atom_site_fract_y
_atom_site_fract_z
Si Si1 0.500000 0.833554 0.250000
Si Si2 0.872604 0.000947 0.802637
Si Si3 0.500000 0.160547 0.250000
Si Si4 0.815486 0.516316 0.548446
Si Si5 0.117530 0.782368 0.543691
O O1 0.565615 0.905013 0.400166
O O2 0.392535 0.770172 0.298834
O O3 0.747865 0.001149 0.637145
O O4 0.894882 0.898291 0.908516
O O5 0.000000 0.024092 0.750000
O O6 0.807774 0.066171 0.908228
O O7 0.498974 0.238594 0.389402
O O8 0.618446 0.082135 0.346000
O O9 0.250000 0.750000 0.500000
#
# Coordination Sequence:
#
# PCOD9305983 Si02
#       5
#     4   8   4   8   8
#     4  11  26  48  82 109 156 212 266 315 388 482
#     4  12  26  49  75 115 161 205 258 330 392 458
#     4  11  24  50  82 111 156 206 262 323 382 474
#     4  11  25  49  80 111 152 213 266 310 390 476
#     4  12  26  47  73 118 159 201 257 326 393 461
#
# _framework density 27.105526999999999
#
# number of rings (size 3 to 8) (size 9 to 14) (size 15 to 20)
#    0.000    0.500    3.750    3.750    0.000    7.000 
#    2.250    0.000    0.000    0.000    0.000    0.000 
#    0.000    0.000    0.000    0.000    0.000    0.000 
#
# Total GULP energy -89287.879631 kJ/mol
# GULP energy per Si atom -5580.492477 kJ/mol
# Density = 2.704383 g / cm^3
# Si number density = 27.105527 Si / 1000 Ang^3
#
#
#
# Elastic Constant Matrix: (Units=GPa)
#
#
# Indices 1 2 3 4 5 6 
#
# 1 107.4561 26.4431 11.4331 0.0000 -11.0882 0.0000
# 2 26.4431 64.9926 7.4352 0.0000 2.3513 0.0000
# 3 11.4331 7.4352 130.2444 0.0000 17.6449 0.0000
# 4 0.0000 0.0000 0.0000 59.9246 0.0000 -11.3466
# 5 -11.0882 2.3513 17.6449 0.0000 50.5827 0.0000
# 6 0.0000 0.0000 0.0000 -11.3466 0.0000 21.0478
#
#
#
# Elastic Compliance Matrix: (Units=1/GPa)
#
#
# Indices 1 2 3 4 5 6 
#
# 1 0.010805 -0.004377 -0.001099 0.000000 0.002955 0.000000
# 2 -0.004377 0.017270 -0.000381 0.000000 -0.001630 0.000000
# 3 -0.001099 -0.000381 0.008215 0.000000 -0.003089 0.000000
# 4 0.000000 0.000000 0.000000 0.018585 0.000000 0.010019
# 5 0.002955 -0.001630 -0.003089 0.000000 0.021571 0.000000
# 6 0.000000 0.000000 0.000000 0.010019 0.000000 0.052912
#
#
# Mechanical properties :
#
#
# Convention : Reuss Voigt Hill
#
# Bulk Modulus (GPa) = 40.69167 43.70176 42.19671
# Shear Modulus (GPa) = 33.49791 43.46981 38.48386
#
# Velocity S-wave (km/s) = 3.51926 4.00900 3.77208
# Velocity P-wave (km/s) = 5.61769 6.13084 5.87987
#
# Compressibility (1/GPa) = 0.02457505
#
# Stress axis : x y z
#
# Youngs Moduli (GPa) = 92.54767 57.90420 121.73548
#
# Poissons Ratio (x) = 0.25347 0.13379
# Poissons Ratio (y) = 0.40512 0.04636
# Poissons Ratio (z) = 0.10171 0.02205
#
# Static dielectric constant tensor:
#      x y z
#    x 2.324620 0.000000 0.046160 
#    y 0.000000 2.160670 0.000000 
#    z 0.046160 0.000000 2.062600 
# 
# From -- ./inp_files/27914.got.cif
#   From: 2010.05.17/outbox.cif.g08.bks.cpg/sg15_14_cif.got.tgz:27914.got - 2010.06.03 18:47:42.
