data_PCOD9305525
_publ_section_title
;
Structure prediction by ZEFSAII (Michael W. Deem and Ramdas Pophale) SiO2 
 PCOD9305525
Probable space group: C 2/C
;
_chemical_formula_sum "Si O2"
_cell_formula_units_Z 56
_cell_length_a 17.103123
_cell_length_b 13.684008
_cell_length_c 19.316203
_cell_angle_alpha 90.000000
_cell_angle_beta 33.166794
_cell_angle_gamma 90.000000
_cell_volume 2473.203736
_symmetry_space_group_name_H-M "C 2/C"
_symmetry_group_IT_number 15
_symmetry_cell_setting 'monoclinic'
loop_
_space_group_symop_operation_xyz
x,y,z
-x,y,1/2-z
-x,-y,-z
x,-y,1/2+z
1/2+x,1/2+y,z
1/2-x,1/2+y,1/2-z
1/2-x,1/2-y,-z
1/2+x,1/2-y,1/2+z
loop_
_atom_site_type_symbol
_atom_site_label
_atom_site_fract_x
_atom_site_fract_y
_atom_site_fract_z
Si Si1 0.843358 0.130638 0.253632
Si Si2 0.000000 0.613998 0.250000
Si Si3 0.513794 0.255733 0.108396
Si Si4 0.000000 0.264787 0.250000
Si Si5 0.826558 0.727907 0.651237
Si Si6 0.540906 0.076862 0.528269
Si Si7 0.325577 0.052022 0.925668
Si Si8 0.968778 0.961494 0.351043
O O1 0.864984 0.171081 0.160764
O O2 0.677714 0.136913 0.398597
O O3 0.933711 0.196913 0.239762
O O4 0.894638 0.019024 0.221473
O O5 0.974938 0.682929 0.334699
O O6 0.127520 0.534584 0.160927
O O7 0.344245 0.274161 0.223920
O O8 0.574082 0.363375 0.078803
O O9 0.600064 0.217616 0.978036
O O10 0.122634 0.340806 0.134327
O O11 0.902508 0.644540 0.640911
O O12 0.595825 0.032051 0.559442
O O13 0.500000 0.000000 0.500000
O O14 0.158003 0.040049 0.057579
O O15 0.000000 0.929836 0.250000
#
# Coordination Sequence:
#
# PCOD9305525 Si02
#       8
#     8   4   8   4   8   8   8   8
#     4  12  25  46  73 106 139 192 239 299 362 433
#     4  11  26  47  76 100 144 189 252 293 358 436
#     4  12  27  48  72 105 146 193 240 299 359 437
#     4  11  24  45  72 102 144 179 244 299 354 428
#     4  12  27  45  72 106 145 192 235 296 371 426
#     4  12  24  44  70 100 148 190 239 294 366 432
#     4  11  25  43  70 108 136 187 239 302 355 422
#     4  12  25  43  71 101 137 182 243 293 353 419
#
# _framework density 22.642696000000001
#
# number of rings (size 3 to 8) (size 9 to 14) (size 15 to 20)
#    0.000    0.286    5.714    2.571    4.000    2.857 
#    0.000    0.000    0.000    0.000    0.000    0.000 
#    0.000    0.000    0.000    0.000    0.000    0.000 
#
# Total GULP energy -156616.386852 kJ/mol
# GULP energy per Si atom -5593.442388 kJ/mol
# Density = 2.259116 g / cm^3
# Si number density = 22.642696 Si / 1000 Ang^3
#
#
#
# Elastic Constant Matrix: (Units=GPa)
#
#
# Indices 1 2 3 4 5 6 
#
# 1 55.2430 18.4098 25.3581 0.0000 10.2992 0.0000
# 2 18.4098 96.6246 3.5767 -0.0002 1.5569 0.0000
# 3 25.3581 3.5767 91.6468 -0.0003 -5.1902 -0.0001
# 4 0.0000 -0.0002 -0.0003 23.9606 0.0001 -14.1059
# 5 10.2992 1.5569 -5.1902 0.0001 40.3881 0.0001
# 6 0.0000 0.0000 -0.0001 -14.1059 0.0001 -25.8657
#
#
#
# Elastic Compliance Matrix: (Units=1/GPa)
#
#
# Indices 1 2 3 4 5 6 
#
# 1 0.023908 -0.004192 -0.006837 0.000000 -0.006814 0.000000
# 2 -0.004192 0.011108 0.000768 0.000000 0.000740 0.000000
# 3 -0.006837 0.000768 0.012965 0.000000 0.003380 0.000000
# 4 0.000000 0.000000 0.000000 0.031592 0.000000 -0.017229
# 5 -0.006814 0.000740 0.003380 0.000000 0.026903 0.000000
# 6 0.000000 0.000000 0.000000 -0.017229 0.000000 -0.029265
#
#
# Mechanical properties :
#
#
# Convention : Reuss Voigt Hill
#
# Bulk Modulus (GPa) = 36.41970 37.57817 36.99894
# Shear Modulus (GPa) = 46.77911 20.77460 33.77686
#
# Velocity S-wave (km/s) = 4.55022 3.03231 3.86649
# Velocity P-wave (km/s) = 6.61253 5.37513 6.02568
#
# Compressibility (1/GPa) = 0.02745767
#
# Stress axis : x y z
#
# Youngs Moduli (GPa) = 41.82739 90.02744 77.13223
#
# Poissons Ratio (x) = 0.37742 0.52738
# Poissons Ratio (y) = 0.17535 -0.05927
# Poissons Ratio (z) = 0.28599 -0.06917
#
# Static dielectric constant tensor:
#      x y z
#    x 1.852880 0.000000 -0.001300 
#    y 0.000000 1.847740 0.000000 
#    z -0.001300 0.000000 1.887700 
# 
# From -- ./inp_files/249258.got.cif
#   From: 2010.05.17/outbox.cif.g08.bks.cpg/sg15_125_cif.got.tgz:249258.got - 2010.06.03 18:47:42.
