data_PCOD9305809
_publ_section_title
;
Structure prediction by ZEFSAII (Michael W. Deem and Ramdas Pophale) SiO2 
 PCOD9305809
Probable space group: C 2/C
;
_chemical_formula_sum "Si O2"
_cell_formula_units_Z 52
_cell_length_a 8.298626
_cell_length_b 31.208873
_cell_length_c 10.957389
_cell_angle_alpha 90.000000
_cell_angle_beta 58.765708
_cell_angle_gamma 90.000000
_cell_volume 2426.525912
_symmetry_space_group_name_H-M "C 2/C"
_symmetry_group_IT_number 15
_symmetry_cell_setting 'monoclinic'
loop_
_space_group_symop_operation_xyz
x,y,z
-x,y,1/2-z
-x,-y,-z
x,-y,1/2+z
1/2+x,1/2+y,z
1/2-x,1/2+y,1/2-z
1/2-x,1/2-y,-z
1/2+x,1/2-y,1/2+z
loop_
_atom_site_type_symbol
_atom_site_label
_atom_site_fract_x
_atom_site_fract_y
_atom_site_fract_z
Si Si1 0.707316 0.828903 0.808032
Si Si2 0.586293 0.044054 0.417950
Si Si3 0.500000 0.903396 0.750000
Si Si4 0.395986 0.327675 0.982688
Si Si5 0.526698 0.257091 0.109758
Si Si6 0.699489 0.909598 0.123315
Si Si7 0.115325 0.990386 0.329786
O O1 0.633570 0.871541 0.772399
O O2 0.736838 0.829666 0.941343
O O3 0.570738 0.789035 0.842229
O O4 0.907960 0.823689 0.665500
O O5 0.435651 0.067247 0.388967
O O6 0.664043 0.071403 0.501029
O O7 0.500000 0.000000 0.500000
O O8 0.756514 0.030751 0.260702
O O9 0.409006 0.286160 0.062239
O O10 0.358836 0.372872 0.063944
O O11 0.500000 0.279621 0.250000
O O12 0.750000 0.250000 0.000000
O O13 0.500000 0.891985 0.250000
O O14 0.756820 0.949658 0.185441
O O15 0.000000 0.981326 0.250000
O O16 0.000000 0.000000 0.500000
#
# Coordination Sequence:
#
# PCOD9305809 Si02
#       7
#     8   8   4   8   8   8   8
#     4  11  24  47  74 108 143 200 254 304 381 463
#     4  12  25  45  72 104 148 200 252 315 380 453
#     4  12  24  42  78 102 144 196 254 304 374 462
#     4  11  26  46  73 105 153 189 244 322 377 454
#     4  12  24  48  77 110 148 191 251 305 379 462
#     4  12  26  47  69 107 152 197 258 312 390 457
#     4  12  27  44  73 106 145 198 258 317 384 453
#
# _framework density 21.429814
#
# number of rings (size 3 to 8) (size 9 to 14) (size 15 to 20)
#    0.000    0.308    6.923    1.385    2.154    1.846 
#    5.538    0.000    0.000    0.000    0.000    0.000 
#    0.000    0.000    0.000    0.000    0.000    0.000 
#
# Total GULP energy -145099.216475 kJ/mol
# GULP energy per Si atom -5580.739095 kJ/mol
# Density = 2.138104 g / cm^3
# Si number density = 21.429814 Si / 1000 Ang^3
#
#
#
# Elastic Constant Matrix: (Units=GPa)
#
#
# Indices 1 2 3 4 5 6 
#
# 1 108.1390 46.3588 41.4458 0.0000 30.0453 0.0000
# 2 46.3588 124.6137 42.2251 0.0000 11.4909 0.0000
# 3 41.4458 42.2251 121.0590 0.0000 9.1539 0.0000
# 4 0.0000 0.0000 0.0000 29.2077 0.0000 6.2127
# 5 30.0453 11.4909 9.1539 0.0000 47.7802 0.0000
# 6 0.0000 0.0000 0.0000 6.2127 0.0000 49.1770
#
#
#
# Elastic Compliance Matrix: (Units=1/GPa)
#
#
# Indices 1 2 3 4 5 6 
#
# 1 0.013934 -0.003491 -0.002997 0.000000 -0.007348 0.000000
# 2 -0.003491 0.010097 -0.002343 0.000000 0.000215 0.000000
# 3 -0.002997 -0.002343 0.010065 0.000000 0.000520 0.000000
# 4 0.000000 0.000000 0.000000 0.035183 0.000000 -0.004445
# 5 -0.007348 0.000215 0.000520 0.000000 0.025399 0.000000
# 6 0.000000 0.000000 0.000000 -0.004445 0.000000 0.020896
#
#
# Mechanical properties :
#
#
# Convention : Reuss Voigt Hill
#
# Bulk Modulus (GPa) = 60.84952 68.20790 64.52871
# Shear Modulus (GPa) = 36.04526 40.15177 38.09852
#
# Velocity S-wave (km/s) = 4.10569 4.33325 4.22100
# Velocity P-wave (km/s) = 7.13667 7.54544 7.34390
#
# Compressibility (1/GPa) = 0.01643398
#
# Stress axis : x y z
#
# Youngs Moduli (GPa) = 71.76572 99.03454 99.35810
#
# Poissons Ratio (x) = 0.34568 0.29781
# Poissons Ratio (y) = 0.25050 0.23282
# Poissons Ratio (z) = 0.21511 0.23206
#
# Static dielectric constant tensor:
#      x y z
#    x 1.788210 0.000000 0.045100 
#    y 0.000000 1.806950 0.000000 
#    z 0.045100 0.000000 1.848930 
# 
# From -- ./inp_files/81197.got.cif
#   From: 2010.05.17/outbox.cif.g08.bks.cpg/sg15_41_cif.got.tgz:81197.got - 2010.06.03 18:47:42.
