data_PCOD9305375
_publ_section_title
;
Structure prediction by ZEFSAII (Michael W. Deem and Ramdas Pophale) SiO2 
 PCOD9305375
Probable space group: C 2/C
;
_chemical_formula_sum "Si O2"
_cell_formula_units_Z 56
_cell_length_a 18.952457
_cell_length_b 8.113273
_cell_length_c 17.577635
_cell_angle_alpha 90.000000
_cell_angle_beta 115.907165
_cell_angle_gamma 90.000000
_cell_volume 2431.222686
_symmetry_space_group_name_H-M "C 2/C"
_symmetry_group_IT_number 15
_symmetry_cell_setting 'monoclinic'
loop_
_space_group_symop_operation_xyz
x,y,z
-x,y,1/2-z
-x,-y,-z
x,-y,1/2+z
1/2+x,1/2+y,z
1/2-x,1/2+y,1/2-z
1/2-x,1/2-y,-z
1/2+x,1/2-y,1/2+z
loop_
_atom_site_type_symbol
_atom_site_label
_atom_site_fract_x
_atom_site_fract_y
_atom_site_fract_z
Si Si1 0.836478 0.658365 0.316910
Si Si2 0.953440 0.179973 0.979161
Si Si3 0.839041 0.801241 0.558522
Si Si4 0.347960 0.644733 0.229906
Si Si5 0.833234 0.815436 0.018390
Si Si6 0.604017 0.810249 0.099223
Si Si7 0.906359 0.781685 0.203822
O O1 0.889127 0.800762 0.382535
O O2 0.742854 0.670292 0.285908
O O3 0.862533 0.488654 0.368231
O O4 0.865123 0.657547 0.243358
O O5 0.905671 0.245235 0.030329
O O6 0.025242 0.305911 0.012589
O O7 0.000000 0.000000 0.000000
O O8 0.750000 0.750000 0.500000
O O9 0.858014 0.761184 0.654576
O O10 0.839855 0.995323 0.542212
O O11 0.401007 0.712318 0.323539
O O12 0.369156 0.457050 0.215567
O O13 0.889241 0.735483 0.108206
O O14 0.750000 0.750000 0.000000
O O15 0.840826 0.787386 0.932802
O O16 0.000000 0.794284 0.250000
#
# Coordination Sequence:
#
# PCOD9305375 Si02
#       7
#     8   8   8   8   8   8   8
#     4  12  25  48  69 105 143 189 239 293 358 438
#     4  12  25  45  73 101 143 189 235 295 364 427
#     4  11  24  45  71 107 138 186 242 292 353 433
#     4  11  25  44  74 103 142 186 239 293 357 437
#     4  11  24  44  72 104 143 191 236 293 368 430
#     4  12  26  44  72 107 140 187 239 298 362 428
#     4  11  26  47  73 105 147 191 242 299 370 434
#
# _framework density 23.033677000000001
#
# number of rings (size 3 to 8) (size 9 to 14) (size 15 to 20)
#    0.000    0.571    2.857    5.571    6.000    2.286 
#    2.571    0.000    0.000    0.000    0.000    0.000 
#    0.000    0.000    0.000    0.000    0.000    0.000 
#
# Total GULP energy -156252.659412 kJ/mol
# GULP energy per Si atom -5580.452122 kJ/mol
# Density = 2.298125 g / cm^3
# Si number density = 23.033677 Si / 1000 Ang^3
#
#
#
# Elastic Constant Matrix: (Units=GPa)
#
#
# Indices 1 2 3 4 5 6 
#
# 1 83.7370 -7.2409 12.6136 0.0000 -12.6199 0.0000
# 2 -7.2409 35.0455 10.5599 0.0000 -8.5940 0.0000
# 3 12.6136 10.5599 121.0346 0.0000 -27.3602 0.0000
# 4 0.0000 0.0000 0.0000 31.0306 0.0000 2.1240
# 5 -12.6199 -8.5940 -27.3602 0.0000 51.7384 0.0000
# 6 0.0000 0.0000 0.0000 2.1240 0.0000 30.6938
#
#
#
# Elastic Compliance Matrix: (Units=1/GPa)
#
#
# Indices 1 2 3 4 5 6 
#
# 1 0.012901 0.003750 -0.000931 0.000000 0.003277 0.000000
# 2 0.003750 0.031139 -0.001967 0.000000 0.005047 0.000000
# 3 -0.000931 -0.001967 0.009547 0.000000 0.004495 0.000000
# 4 0.000000 0.000000 0.000000 0.032380 0.000000 -0.002241
# 5 0.003277 0.005047 0.004495 0.000000 0.023343 0.000000
# 6 0.000000 0.000000 0.000000 -0.002241 0.000000 0.032735
#
#
# Mechanical properties :
#
#
# Convention : Reuss Voigt Hill
#
# Bulk Modulus (GPa) = 18.08620 30.18691 24.13656
# Shear Modulus (GPa) = 31.49216 37.61819 34.55517
#
# Velocity S-wave (km/s) = 3.70161 4.04565 3.87745
# Velocity P-wave (km/s) = 5.11257 5.91245 5.52700
#
# Compressibility (1/GPa) = 0.05529077
#
# Stress axis : x y z
#
# Youngs Moduli (GPa) = 77.51636 32.11383 104.74774
#
# Poissons Ratio (x) = -0.12041 0.09749
# Poissons Ratio (y) = -0.29065 0.20600
# Poissons Ratio (z) = 0.07215 0.06316
#
# Static dielectric constant tensor:
#      x y z
#    x 1.896640 0.000000 -0.036690 
#    y 0.000000 1.980730 0.000000 
#    z -0.036690 0.000000 1.941010 
# 
# From -- ./inp_files/209643.got.cif
#   From: 2010.05.17/outbox.cif.g08.bks.cpg/sg15_105_cif.got.tgz:209643.got - 2010.06.03 18:47:42.
