data_PCOD9305024
_publ_section_title
;
Structure prediction by ZEFSAII (Michael W. Deem and Ramdas Pophale) SiO2 
 PCOD9305024
Probable space group: C 2/C
;
_chemical_formula_sum "Si O2"
_cell_formula_units_Z 56
_cell_length_a 20.308584
_cell_length_b 12.410123
_cell_length_c 10.843067
_cell_angle_alpha 90.000000
_cell_angle_beta 68.274701
_cell_angle_gamma 90.000000
_cell_volume 2538.687209
_symmetry_space_group_name_H-M "C 2/C"
_symmetry_group_IT_number 15
_symmetry_cell_setting 'monoclinic'
loop_
_space_group_symop_operation_xyz
x,y,z
-x,y,1/2-z
-x,-y,-z
x,-y,1/2+z
1/2+x,1/2+y,z
1/2-x,1/2+y,1/2-z
1/2-x,1/2-y,-z
1/2+x,1/2-y,1/2+z
loop_
_atom_site_type_symbol
_atom_site_label
_atom_site_fract_x
_atom_site_fract_y
_atom_site_fract_z
Si Si1 0.034933 0.909212 0.345873
Si Si2 0.547784 0.921812 0.825940
Si Si3 0.271166 0.094932 0.549971
Si Si4 0.843067 0.761336 0.253648
Si Si5 0.084591 0.361353 0.418274
Si Si6 0.582592 0.373097 0.864362
Si Si7 0.745498 0.419172 0.782399
O O1 0.106358 0.850505 0.341961
O O2 0.000000 0.856916 0.250000
O O3 0.973371 0.896359 0.488026
O O4 0.060313 0.029569 0.289990
O O5 0.500000 0.966001 0.750000
O O6 0.599719 0.828182 0.747220
O O7 0.590448 0.022890 0.848693
O O8 0.491154 0.872074 0.960616
O O9 0.206065 0.178659 0.613168
O O10 0.346772 0.144949 0.540395
O O11 0.269848 0.056224 0.407949
O O12 0.257100 0.004993 0.665312
O O13 0.787406 0.690170 0.215522
O O14 0.080267 0.254104 0.337812
O O15 0.662438 0.396430 0.848328
#
# Coordination Sequence:
#
# PCOD9305024 Si02
#       7
#     8   8   8   8   8   8   8
#     4  11  24  41  67  99 135 177 229 289 340 406
#     4  11  24  41  67  99 135 177 229 289 340 406
#     4  12  26  44  71 104 140 183 231 285 346 413
#     4  12  22  42  71 104 135 179 241 288 337 409
#     4  11  24  42  66  98 135 181 229 281 349 412
#     4  11  24  42  66  98 135 181 229 281 349 412
#     4  12  26  44  71 104 140 183 231 285 346 413
#
# _framework density 22.058644999999999
#
# number of rings (size 3 to 8) (size 9 to 14) (size 15 to 20)
#    0.000    0.571    5.714    2.571    4.000    0.571 
#    0.000    0.714   12.571    0.000    0.000    0.000 
#    0.000    0.000    0.000    0.000    0.000    0.000 
#
# Total GULP energy -156102.495901 kJ/mol
# GULP energy per Si atom -5575.089139 kJ/mol
# Density = 2.200844 g / cm^3
# Si number density = 22.058645 Si / 1000 Ang^3
#
#
#
# Elastic Constant Matrix: (Units=GPa)
#
#
# Indices 1 2 3 4 5 6 
#
# 1 138.6311 53.4826 28.0664 0.0000 -19.7631 0.0000
# 2 53.4826 143.3596 37.2488 0.0000 -6.4407 0.0000
# 3 28.0664 37.2488 49.9934 0.0000 -14.5481 0.0000
# 4 0.0000 0.0000 0.0000 14.1093 0.0000 1.6363
# 5 -19.7631 -6.4407 -14.5481 0.0000 35.6222 0.0000
# 6 0.0000 0.0000 0.0000 1.6363 0.0000 34.4903
#
#
#
# Elastic Compliance Matrix: (Units=1/GPa)
#
#
# Indices 1 2 3 4 5 6 
#
# 1 0.009223 -0.002743 -0.002031 0.000000 0.003792 0.000000
# 2 -0.002743 0.009512 -0.006230 0.000000 -0.002346 0.000000
# 3 -0.002031 -0.006230 0.028518 0.000000 0.009394 0.000000
# 4 0.000000 0.000000 0.000000 0.071267 0.000000 -0.003381
# 5 0.003792 -0.002346 0.009394 0.000000 0.033588 0.000000
# 6 0.000000 0.000000 0.000000 -0.003381 0.000000 0.029154
#
#
# Mechanical properties :
#
#
# Convention : Reuss Voigt Hill
#
# Bulk Modulus (GPa) = 39.61056 63.28663 51.44860
# Shear Modulus (GPa) = 23.61987 31.05679 27.33833
#
# Velocity S-wave (km/s) = 3.27582 3.75630 3.52426
# Velocity P-wave (km/s) = 5.68365 6.89677 6.31939
#
# Compressibility (1/GPa) = 0.02524579
#
# Stress axis : x y z
#
# Youngs Moduli (GPa) = 108.42149 105.12950 35.06516
#
# Poissons Ratio (x) = 0.28835 0.07122
# Poissons Ratio (y) = 0.29738 0.21846
# Poissons Ratio (z) = 0.22020 0.65497
#
# Static dielectric constant tensor:
#      x y z
#    x 1.785600 0.000000 -0.034010 
#    y 0.000000 1.888080 0.000000 
#    z -0.034010 0.000000 1.842490 
# 
# From -- ./inp_files/111568.got.cif
#   From: 2010.05.17/outbox.cif.g08.bks.cpg/sg15_56_cif.got.tgz:111568.got - 2010.06.03 18:47:42.
