data_PCOD9305058
_publ_section_title
;
Structure prediction by ZEFSAII (Michael W. Deem and Ramdas Pophale) SiO2 
 PCOD9305058
Probable space group: C 2/C
;
_chemical_formula_sum "Si O2"
_cell_formula_units_Z 36
_cell_length_a 7.417117
_cell_length_b 20.200880
_cell_length_c 12.141466
_cell_angle_alpha 90.000000
_cell_angle_beta 119.983636
_cell_angle_gamma 90.000000
_cell_volume 1575.718984
_symmetry_space_group_name_H-M "C 2/C"
_symmetry_group_IT_number 15
_symmetry_cell_setting 'monoclinic'
loop_
_space_group_symop_operation_xyz
x,y,z
-x,y,1/2-z
-x,-y,-z
x,-y,1/2+z
1/2+x,1/2+y,z
1/2-x,1/2+y,1/2-z
1/2-x,1/2-y,-z
1/2+x,1/2-y,1/2+z
loop_
_atom_site_type_symbol
_atom_site_label
_atom_site_fract_x
_atom_site_fract_y
_atom_site_fract_z
Si Si1 0.896935 0.801628 0.604300
Si Si2 0.701334 0.136007 0.366185
Si Si3 0.915611 0.073314 0.607494
Si Si4 0.000000 0.507214 0.250000
Si Si5 0.749198 0.436167 0.009164
O O1 0.750000 0.750000 0.500000
O O2 0.766945 0.870541 0.568751
O O3 0.000000 0.779810 0.750000
O O4 0.101510 0.820261 0.598646
O O5 0.500000 0.168436 0.250000
O O6 0.725610 0.117030 0.501109
O O7 0.688757 0.061409 0.306901
O O8 0.000000 0.095075 0.750000
O O9 0.098306 0.075193 0.570238
O O10 0.837938 0.997942 0.585171
O O11 0.038788 0.461437 0.367674
#
# Coordination Sequence:
#
# PCOD9305058 Si02
#       5
#     8   8   8   4   8
#     4  11  24  42  62  86 122 173 214 254 303 368
#     4   8  18  40  61  89 126 158 198 262 314 366
#     4   9  16  31  57  93 127 157 193 250 321 374
#     4   8  16  34  62  92 124 156 188 256 316 368
#     4   9  18  33  56  87 132 155 197 258 307 369
#
# _framework density 22.846713000000001
#
# number of rings (size 3 to 8) (size 9 to 14) (size 15 to 20)
#    0.667    2.222    0.000    2.000    1.556    0.000 
#    4.000    4.444    0.000    1.333    0.000    0.000 
#    0.000    0.000    0.000    0.000    0.000    0.000 
#
# Total GULP energy -100293.130709 kJ/mol
# GULP energy per Si atom -5571.840595 kJ/mol
# Density = 2.279471 g / cm^3
# Si number density = 22.846713 Si / 1000 Ang^3
#
#
#
# Elastic Constant Matrix: (Units=GPa)
#
#
# Indices 1 2 3 4 5 6 
#
# 1 65.3666 33.8573 46.4458 0.0000 21.1004 0.0000
# 2 33.8573 75.9751 63.6740 0.0000 24.1565 0.0000
# 3 46.4458 63.6740 214.6337 0.0000 37.3153 0.0000
# 4 0.0000 0.0000 0.0000 8.0808 0.0000 20.9286
# 5 21.1004 24.1565 37.3153 0.0000 34.0546 0.0000
# 6 0.0000 0.0000 0.0000 20.9286 0.0000 23.7191
#
#
#
# Elastic Compliance Matrix: (Units=1/GPa)
#
#
# Indices 1 2 3 4 5 6 
#
# 1 0.022043 -0.006021 -0.001670 0.000000 -0.007557 0.000000
# 2 -0.006021 0.021301 -0.003753 0.000000 -0.007267 0.000000
# 3 -0.001670 -0.003753 0.006783 0.000000 -0.003736 0.000000
# 4 0.000000 0.000000 0.000000 -0.096287 0.000000 0.084959
# 5 -0.007557 -0.007267 -0.003736 0.000000 0.043296 0.000000
# 6 0.000000 0.000000 0.000000 0.084959 0.000000 -0.032804
#
#
# Mechanical properties :
#
#
# Convention : Reuss Voigt Hill
#
# Bulk Modulus (GPa) = 36.71053 71.54772 54.12913
# Shear Modulus (GPa) = -1351.35121 27.30413 -662.02354
#
# Velocity S-wave (km/s) = -24.34687 3.46077 -17.04103
# Velocity P-wave (km/s) = 27.82548 6.88140 19.06441
#
# Compressibility (1/GPa) = 0.02724014
#
# Stress axis : x y z
#
# Youngs Moduli (GPa) = 45.36610 46.94566 147.41920
#
# Poissons Ratio (x) = 0.28264 0.24619
# Poissons Ratio (y) = 0.27313 0.55327
# Poissons Ratio (z) = 0.07576 0.17619
#
# Static dielectric constant tensor:
#      x y z
#    x 2.052540 0.000000 0.003370 
#    y 0.000000 1.845470 0.000000 
#    z 0.003370 0.000000 1.919080 
# 
# From -- ./inp_files/77996.got.cif
#   From: 2010.05.17/outbox.cif.g08.bks.cpg/sg15_39_cif.got.tgz:77996.got - 2010.06.03 18:47:42.
