data_PCOD9305706
_publ_section_title
;
Structure prediction by ZEFSAII (Michael W. Deem and Ramdas Pophale) SiO2 
 PCOD9305706
Probable space group: C 2/C
;
_chemical_formula_sum "Si O2"
_cell_formula_units_Z 40
_cell_length_a 9.381378
_cell_length_b 22.593421
_cell_length_c 7.353581
_cell_angle_alpha 90.000000
_cell_angle_beta 87.129657
_cell_angle_gamma 90.000000
_cell_volume 1556.690616
_symmetry_space_group_name_H-M "C 2/C"
_symmetry_group_IT_number 15
_symmetry_cell_setting 'monoclinic'
loop_
_space_group_symop_operation_xyz
x,y,z
-x,y,1/2-z
-x,-y,-z
x,-y,1/2+z
1/2+x,1/2+y,z
1/2-x,1/2+y,1/2-z
1/2-x,1/2-y,-z
1/2+x,1/2-y,1/2+z
loop_
_atom_site_type_symbol
_atom_site_label
_atom_site_fract_x
_atom_site_fract_y
_atom_site_fract_z
Si Si1 0.368374 0.959188 0.867607
Si Si2 0.583149 0.268929 0.049718
Si Si3 0.391106 0.595908 0.008320
Si Si4 0.202516 0.075224 0.906762
Si Si5 0.455577 0.145407 0.954064
O O1 0.500000 0.986738 0.750000
O O2 0.302072 0.019810 0.954182
O O3 0.215839 0.929255 0.834742
O O4 0.450592 0.900726 0.937211
O O5 0.500000 0.277317 0.250000
O O6 0.581313 0.334624 0.969160
O O7 0.750000 0.250000 0.000000
O O8 0.495689 0.213030 0.981353
O O9 0.544952 0.566919 0.990349
O O10 0.317561 0.584032 0.812583
O O11 0.287986 0.132037 0.975257
O O12 0.500000 0.129772 0.750000
#
# Coordination Sequence:
#
# PCOD9305706 Si02
#       5
#     8   8   8   8   8
#     4  12  26  45  77 109 145 195 248 302 372 456
#     4  12  25  49  80 106 151 201 251 311 373 443
#     4  11  25  50  72 104 153 192 241 311 377 427
#     4  11  24  46  75 105 147 196 242 303 375 440
#     4  12  25  46  75 109 149 194 245 307 370 444
#
# _framework density 25.695537999999999
#
# number of rings (size 3 to 8) (size 9 to 14) (size 15 to 20)
#    0.000    0.400    6.000    2.400    2.800    0.800 
#    0.000    0.000    0.000    0.000    0.000    0.000 
#    0.000    0.000    0.000    0.000    0.000    0.000 
#
# Total GULP energy -111578.967628 kJ/mol
# GULP energy per Si atom -5578.948381 kJ/mol
# Density = 2.563705 g / cm^3
# Si number density = 25.695538 Si / 1000 Ang^3
#
#
#
# Elastic Constant Matrix: (Units=GPa)
#
#
# Indices 1 2 3 4 5 6 
#
# 1 239.7788 63.9221 57.8296 0.0000 -40.8096 0.0000
# 2 63.9221 185.4434 29.0337 0.0000 -6.4099 0.0000
# 3 57.8296 29.0337 60.1226 0.0000 -14.9059 0.0000
# 4 0.0000 0.0000 0.0000 -38.6601 0.0000 -44.9284
# 5 -40.8096 -6.4099 -14.9059 0.0000 47.7734 0.0000
# 6 0.0000 0.0000 0.0000 -44.9284 0.0000 42.8172
#
#
#
# Elastic Compliance Matrix: (Units=1/GPa)
#
#
# Indices 1 2 3 4 5 6 
#
# 1 0.006231 -0.001326 -0.004419 0.000000 0.003766 0.000000
# 2 -0.001326 0.006116 -0.001903 0.000000 -0.000906 0.000000
# 3 -0.004419 -0.001903 0.022547 0.000000 0.003005 0.000000
# 4 0.000000 0.000000 0.000000 -0.011654 0.000000 -0.012229
# 5 0.003766 -0.000906 0.003005 0.000000 0.024965 0.000000
# 6 0.000000 0.000000 0.000000 -0.012229 0.000000 0.010523
#
#
# Mechanical properties :
#
#
# Convention : Reuss Voigt Hill
#
# Bulk Modulus (GPa) = 51.02476 87.43505 69.22990
# Shear Modulus (GPa) = 62.06890 32.69008 47.37949
#
# Velocity S-wave (km/s) = 4.92016 3.57067 4.29870
# Velocity P-wave (km/s) = 7.22342 7.14848 7.18605
#
# Compressibility (1/GPa) = 0.01959833
#
# Stress axis : x y z
#
# Youngs Moduli (GPa) = 160.49694 163.50410 44.35138
#
# Poissons Ratio (x) = 0.21675 0.19600
# Poissons Ratio (y) = 0.21276 0.08440
# Poissons Ratio (z) = 0.70927 0.31113
#
# Static dielectric constant tensor:
#      x y z
#    x 1.986750 0.000000 0.005510 
#    y 0.000000 1.989130 0.000000 
#    z 0.005510 0.000000 2.273230 
# 
# From -- ./inp_files/23618.got.cif
#   From: 2010.05.17/outbox.cif.g08.bks.cpg/sg15_12_cif.got.tgz:23618.got - 2010.06.03 18:47:42.
