data_PCOD9305158
_publ_section_title
;
Structure prediction by ZEFSAII (Michael W. Deem and Ramdas Pophale) SiO2 
 PCOD9305158
Probable space group: C 2/C
;
_chemical_formula_sum "Si O2"
_cell_formula_units_Z 40
_cell_length_a 27.153491
_cell_length_b 7.359701
_cell_length_c 8.382853
_cell_angle_alpha 90.000000
_cell_angle_beta 79.265084
_cell_angle_gamma 90.000000
_cell_volume 1645.924911
_symmetry_space_group_name_H-M "C 2/C"
_symmetry_group_IT_number 15
_symmetry_cell_setting 'monoclinic'
loop_
_space_group_symop_operation_xyz
x,y,z
-x,y,1/2-z
-x,-y,-z
x,-y,1/2+z
1/2+x,1/2+y,z
1/2-x,1/2+y,1/2-z
1/2-x,1/2-y,-z
1/2+x,1/2-y,1/2+z
loop_
_atom_site_type_symbol
_atom_site_label
_atom_site_fract_x
_atom_site_fract_y
_atom_site_fract_z
Si Si1 0.261328 0.891999 0.633236
Si Si2 0.441905 0.286399 0.311465
Si Si3 0.896393 0.865689 0.990556
Si Si4 0.695335 0.358636 0.978224
Si Si5 0.134475 0.489130 0.528873
O O1 0.250000 0.750000 0.500000
O O2 0.226078 0.839245 0.798681
O O3 0.233382 0.066820 0.582686
O O4 0.320834 0.931931 0.616740
O O5 0.500000 0.247972 0.250000
O O6 0.415521 0.294622 0.151460
O O7 0.434425 0.487905 0.391346
O O8 0.417050 0.130303 0.440157
O O9 0.846693 0.988492 0.032213
O O10 0.883884 0.684692 0.893487
O O11 0.667944 0.182285 0.062621
#
# Coordination Sequence:
#
# PCOD9305158 Si02
#       5
#     8   8   8   8   8
#     4  12  24  41  67  99 145 189 224 278 343 412
#     4  11  27  49  75 102 137 184 238 302 361 410
#     4  11  25  46  72 102 142 179 236 293 351 427
#     4  11  24  43  65 101 145 185 226 276 346 417
#     4  11  26  40  70 106 137 183 237 283 340 423
#
# _framework density 24.302446
#
# number of rings (size 3 to 8) (size 9 to 14) (size 15 to 20)
#    0.000    0.800    2.000    4.800    5.600    3.200 
#    0.000    0.000    0.000    0.000    0.000    0.000 
#    0.000    0.000    0.000    0.000    0.000    0.000 
#
# Total GULP energy -111338.472534 kJ/mol
# GULP energy per Si atom -5566.923627 kJ/mol
# Density = 2.424713 g / cm^3
# Si number density = 24.302446 Si / 1000 Ang^3
#
#
#
# Elastic Constant Matrix: (Units=GPa)
#
#
# Indices 1 2 3 4 5 6 
#
# 1 158.1773 40.8535 46.2934 0.0000 -27.1140 0.0000
# 2 40.8535 198.8892 40.4001 0.0000 -9.7690 0.0000
# 3 46.2934 40.4001 96.8181 0.0000 -3.9062 0.0000
# 4 0.0000 0.0000 0.0000 24.8779 0.0000 -14.2500
# 5 -27.1140 -9.7690 -3.9062 0.0000 33.9116 0.0000
# 6 0.0000 0.0000 0.0000 -14.2500 0.0000 26.3908
#
#
#
# Elastic Compliance Matrix: (Units=1/GPa)
#
#
# Indices 1 2 3 4 5 6 
#
# 1 0.008633 -0.000741 -0.003566 0.000000 0.006278 0.000000
# 2 -0.000741 0.005617 -0.001957 0.000000 0.000800 0.000000
# 3 -0.003566 -0.001957 0.012772 0.000000 -0.001944 0.000000
# 4 0.000000 0.000000 0.000000 0.058195 0.000000 0.031423
# 5 0.006278 0.000800 -0.001944 0.000000 0.034515 0.000000
# 6 0.000000 0.000000 0.000000 0.031423 0.000000 0.054859
#
#
# Mechanical properties :
#
#
# Convention : Reuss Voigt Hill
#
# Bulk Modulus (GPa) = 68.99052 78.77540 73.88296
# Shear Modulus (GPa) = 26.04845 38.79192 32.42018
#
# Velocity S-wave (km/s) = 3.27746 3.99960 3.65640
# Velocity P-wave (km/s) = 6.54005 7.33580 6.94933
#
# Compressibility (1/GPa) = 0.01449475
#
# Stress axis : x y z
#
# Youngs Moduli (GPa) = 115.83393 178.03151 78.29720
#
# Poissons Ratio (x) = 0.13186 0.27917
# Poissons Ratio (y) = 0.08579 0.15326
# Poissons Ratio (z) = 0.41301 0.34848
#
# Static dielectric constant tensor:
#      x y z
#    x 1.939510 0.000000 0.089850 
#    y 0.000000 2.059580 0.000000 
#    z 0.089850 0.000000 1.764800 
# 
# From -- ./inp_files/64533.got.cif
#   From: 2010.05.17/outbox.cif.g08.bks.cpg/sg15_33_cif.got.tgz:64533.got - 2010.06.03 18:47:42.
