data_PCOD9305923
_publ_section_title
;
Structure prediction by ZEFSAII (Michael W. Deem and Ramdas Pophale) SiO2 
 PCOD9305923
Probable space group: C 2/C
;
_chemical_formula_sum "Si O2"
_cell_formula_units_Z 32
_cell_length_a 13.443510
_cell_length_b 5.063175
_cell_length_c 18.710430
_cell_angle_alpha 90.000000
_cell_angle_beta 70.970829
_cell_angle_gamma 90.000000
_cell_volume 1203.963300
_symmetry_space_group_name_H-M "C 2/C"
_symmetry_group_IT_number 15
_symmetry_cell_setting 'monoclinic'
loop_
_space_group_symop_operation_xyz
x,y,z
-x,y,1/2-z
-x,-y,-z
x,-y,1/2+z
1/2+x,1/2+y,z
1/2-x,1/2+y,1/2-z
1/2-x,1/2-y,-z
1/2+x,1/2-y,1/2+z
loop_
_atom_site_type_symbol
_atom_site_label
_atom_site_fract_x
_atom_site_fract_y
_atom_site_fract_z
Si Si1 0.211023 0.696814 0.305172
Si Si2 0.467759 0.256815 0.553431
Si Si3 0.235889 0.164769 0.587382
Si Si4 0.477944 0.036876 0.334861
O O1 0.246543 0.454472 0.244979
O O2 0.254239 0.624246 0.375180
O O3 0.083591 0.690794 0.335623
O O4 0.500000 0.500000 0.500000
O O5 0.343796 0.280341 0.594660
O O6 0.528489 0.214605 0.612278
O O7 0.500000 0.000000 0.500000
O O8 0.250000 0.250000 0.500000
O O9 0.125994 0.289594 0.635706
O O10 0.500000 0.950325 0.250000
#
# Coordination Sequence:
#
# PCOD9305923 Si02
#       4
#     8   8   8   8
#     4  11  26  50  74 112 157 201 259 323 383 466
#     4  11  26  49  74 111 152 199 255 318 380 463
#     4  11  24  48  78 113 153 202 259 319 388 465
#     4  11  24  49  74 113 152 209 254 320 392 457
#
# _framework density 26.578882
#
# number of rings (size 3 to 8) (size 9 to 14) (size 15 to 20)
#    0.000    1.000    5.000    0.000    0.000   11.000 
#    4.500    0.000    0.000    0.000    0.000    0.000 
#    0.000    0.000    0.000    0.000    0.000    0.000 
#
# Total GULP energy -89656.349782 kJ/mol
# GULP energy per Si atom -5603.521861 kJ/mol
# Density = 2.651839 g / cm^3
# Si number density = 26.578882 Si / 1000 Ang^3
#
#
#
# Elastic Constant Matrix: (Units=GPa)
#
#
# Indices 1 2 3 4 5 6 
#
# 1 201.2007 49.1352 43.2662 0.0003 -12.5582 0.0001
# 2 49.1352 146.6619 49.7247 0.0008 -15.1641 0.0006
# 3 43.2662 49.7247 198.8677 0.0001 12.4701 0.0002
# 4 0.0003 0.0008 0.0001 45.4319 0.0003 5.7001
# 5 -12.5582 -15.1641 12.4701 0.0003 63.1613 0.0003
# 6 0.0001 0.0006 0.0002 5.7001 0.0003 40.7110
#
#
#
# Elastic Compliance Matrix: (Units=1/GPa)
#
#
# Indices 1 2 3 4 5 6 
#
# 1 0.005582 -0.001466 -0.000907 0.000000 0.000937 0.000000
# 2 -0.001466 0.008145 -0.001845 0.000000 0.002028 0.000000
# 3 -0.000907 -0.001845 0.005798 0.000000 -0.001768 0.000000
# 4 0.000000 0.000000 0.000000 0.022405 0.000000 -0.003137
# 5 0.000937 0.002028 -0.001768 0.000000 0.016855 0.000000
# 6 0.000000 0.000000 0.000000 -0.003137 0.000000 0.025003
#
#
# Mechanical properties :
#
#
# Convention : Reuss Voigt Hill
#
# Bulk Modulus (GPa) = 90.17265 92.33137 91.25201
# Shear Modulus (GPa) = 52.12864 56.83446 54.48155
#
# Velocity S-wave (km/s) = 4.43344 4.62923 4.53239
# Velocity P-wave (km/s) = 7.75933 7.96160 7.86112
#
# Compressibility (1/GPa) = 0.01108984
#
# Stress axis : x y z
#
# Youngs Moduli (GPa) = 179.16236 122.78058 172.47841
#
# Poissons Ratio (x) = 0.17996 0.15637
# Poissons Ratio (y) = 0.26260 0.31818
# Poissons Ratio (z) = 0.16243 0.22650
#
# Static dielectric constant tensor:
#      x y z
#    x 2.059340 0.000000 0.042020 
#    y 0.000000 2.199990 0.000000 
#    z 0.042020 0.000000 2.130440 
# 
# From -- ./inp_files/201830.got.cif
#   From: 2010.05.17/outbox.cif.g08.bks.cpg/sg15_101_cif.got.tgz:201830.got - 2010.06.03 18:47:42.
