data_PCOD9305994
_publ_section_title
;
Structure prediction by ZEFSAII (Michael W. Deem and Ramdas Pophale) SiO2 
 PCOD9305994
Probable space group: C 2/C
;
_chemical_formula_sum "Si O2"
_cell_formula_units_Z 16
_cell_length_a 27.703485
_cell_length_b 5.666976
_cell_length_c 9.788989
_cell_angle_alpha 90.000000
_cell_angle_beta 23.942053
_cell_angle_gamma 90.000000
_cell_volume 623.661660
_symmetry_space_group_name_H-M "C 2/C"
_symmetry_group_IT_number 15
_symmetry_cell_setting 'monoclinic'
loop_
_space_group_symop_operation_xyz
x,y,z
-x,y,1/2-z
-x,-y,-z
x,-y,1/2+z
1/2+x,1/2+y,z
1/2-x,1/2+y,1/2-z
1/2-x,1/2-y,-z
1/2+x,1/2-y,1/2+z
loop_
_atom_site_type_symbol
_atom_site_label
_atom_site_fract_x
_atom_site_fract_y
_atom_site_fract_z
Si Si1 0.167641 0.055959 0.287568
Si Si2 0.399599 0.797410 0.772146
O O1 0.094259 0.181013 0.596007
O O2 0.100536 0.890733 0.351416
O O3 0.250000 0.250000 0.000000
O O4 0.265930 0.897432 0.109647
O O5 0.500000 0.000000 0.500000
#
# Coordination Sequence:
#
# PCOD9305994 Si02
#       2
#     8   8
#     4  11  24  52  80 118 166 211 284 338 402 509
#     4  11  26  51  84 119 163 219 273 346 419 485
#
# _framework density 25.654934999999998
#
# number of rings (size 3 to 8) (size 9 to 14) (size 15 to 20)
#    0.000    1.000    5.000    0.000    0.000    4.000 
#    9.000    2.500    0.000    0.000    0.000    0.000 
#    0.000    0.000    0.000    0.000    0.000    0.000 
#
# Total GULP energy -44869.082201 kJ/mol
# GULP energy per Si atom -5608.635275 kJ/mol
# Density = 2.559654 g / cm^3
# Si number density = 25.654935 Si / 1000 Ang^3
#
#
#
# Elastic Constant Matrix: (Units=GPa)
#
#
# Indices 1 2 3 4 5 6 
#
# 1 265.9373 128.0417 110.4456 0.0000 22.1317 0.0000
# 2 128.0417 187.9908 118.2742 0.0000 30.0449 0.0000
# 3 110.4456 118.2742 162.1766 0.0000 21.9690 0.0000
# 4 0.0000 0.0000 0.0000 93.9419 0.0000 -13.4542
# 5 22.1317 30.0449 21.9690 0.0000 37.2278 0.0000
# 6 0.0000 0.0000 0.0000 -13.4542 0.0000 81.0479
#
#
#
# Elastic Compliance Matrix: (Units=1/GPa)
#
#
# Indices 1 2 3 4 5 6 
#
# 1 0.005933 -0.002754 -0.002017 0.000000 -0.000115 0.000000
# 2 -0.002754 0.011696 -0.006084 0.000000 -0.004212 0.000000
# 3 -0.002017 -0.006084 0.012117 0.000000 -0.001042 0.000000
# 4 0.000000 0.000000 0.000000 0.010904 0.000000 0.001810
# 5 -0.000115 -0.004212 -0.001042 0.000000 0.030944 0.000000
# 6 0.000000 0.000000 0.000000 0.001810 0.000000 0.012639
#
#
# Mechanical properties :
#
#
# Convention : Reuss Voigt Hill
#
# Bulk Modulus (GPa) = 124.41045 147.73642 136.07344
# Shear Modulus (GPa) = 46.03139 59.73306 52.88223
#
# Velocity S-wave (km/s) = 4.24046 4.83051 4.54507
# Velocity P-wave (km/s) = 8.51906 9.42458 8.98324
#
# Compressibility (1/GPa) = 0.00803791
#
# Stress axis : x y z
#
# Youngs Moduli (GPa) = 168.53673 85.50005 82.52653
#
# Poissons Ratio (x) = 0.23549 0.16643
# Poissons Ratio (y) = 0.46419 0.50205
# Poissons Ratio (z) = 0.33988 0.52014
#
# Static dielectric constant tensor:
#      x y z
#    x 2.152480 0.000000 -0.170770 
#    y 0.000000 2.094840 0.000000 
#    z -0.170770 0.000000 2.098240 
# 
# From -- ./inp_files/26337.got.cif
#   From: 2010.05.17/outbox.cif.g08.bks.cpg/sg15_14_cif.got.tgz:26337.got - 2010.06.03 18:47:42.
