data_PCOD9305255
_publ_section_title
;
Structure prediction by ZEFSAII (Michael W. Deem and Ramdas Pophale) SiO2 
 PCOD9305255
Probable space group: C 2/C
;
_chemical_formula_sum "Si O2"
_cell_formula_units_Z 40
_cell_length_a 15.923380
_cell_length_b 9.589308
_cell_length_c 12.905498
_cell_angle_alpha 90.000000
_cell_angle_beta 98.534553
_cell_angle_gamma 90.000000
_cell_volume 1948.773340
_symmetry_space_group_name_H-M "C 2/C"
_symmetry_group_IT_number 15
_symmetry_cell_setting 'monoclinic'
loop_
_space_group_symop_operation_xyz
x,y,z
-x,y,1/2-z
-x,-y,-z
x,-y,1/2+z
1/2+x,1/2+y,z
1/2-x,1/2+y,1/2-z
1/2-x,1/2-y,-z
1/2+x,1/2-y,1/2+z
loop_
_atom_site_type_symbol
_atom_site_label
_atom_site_fract_x
_atom_site_fract_y
_atom_site_fract_z
Si Si1 0.405408 0.827408 0.266957
Si Si2 0.718129 0.893530 0.444750
Si Si3 0.422166 0.935608 0.923260
Si Si4 0.995931 0.145494 0.872857
Si Si5 0.624287 0.595763 0.070405
O O1 0.500000 0.779425 0.250000
O O2 0.341941 0.844899 0.160247
O O3 0.369549 0.725726 0.349895
O O4 0.415676 0.981033 0.316219
O O5 0.750000 0.750000 0.500000
O O6 0.660114 0.960659 0.522786
O O7 0.791549 0.001855 0.426244
O O8 0.441844 0.774053 0.908441
O O9 0.500000 0.000000 0.000000
O O10 0.000000 0.160128 0.750000
O O11 0.946601 0.004542 0.891706
O O12 0.085218 0.141618 0.951822
#
# Coordination Sequence:
#
# PCOD9305255 Si02
#       5
#     8   8   8   8   8
#     4  12  26  47  76 100 144 191 234 294 355 418
#     4  12  28  47  71 102 150 182 238 295 349 419
#     4  12  24  48  70 104 139 188 234 286 354 420
#     4  11  24  43  76 102 141 186 232 285 352 424
#     4  11  26  45  70 109 139 183 239 287 349 422
#
# _framework density 20.525734
#
# number of rings (size 3 to 8) (size 9 to 14) (size 15 to 20)
#    0.000    0.400    6.000    1.200    8.400    0.800 
#    0.000    0.000    0.000    0.000    0.000    0.000 
#    0.000    0.000    0.000    0.000    0.000    0.000 
#
# Total GULP energy -111832.488707 kJ/mol
# GULP energy per Si atom -5591.624435 kJ/mol
# Density = 2.047902 g / cm^3
# Si number density = 20.525734 Si / 1000 Ang^3
#
#
#
# Elastic Constant Matrix: (Units=GPa)
#
#
# Indices 1 2 3 4 5 6 
#
# 1 121.8050 15.9939 53.6670 0.0000 3.9051 0.0000
# 2 15.9939 80.5772 24.7519 0.0000 11.3319 0.0000
# 3 53.6670 24.7519 151.1086 0.0000 24.5987 0.0000
# 4 0.0000 0.0000 0.0000 46.5362 0.0000 -4.7665
# 5 3.9051 11.3319 24.5987 0.0000 36.1030 0.0000
# 6 0.0000 0.0000 0.0000 -4.7665 0.0000 27.8083
#
#
#
# Elastic Compliance Matrix: (Units=1/GPa)
#
#
# Indices 1 2 3 4 5 6 
#
# 1 0.009891 -0.001097 -0.003616 0.000000 0.001738 0.000000
# 2 -0.001097 0.013480 -0.001292 0.000000 -0.003232 0.000000
# 3 -0.003616 -0.001292 0.008980 0.000000 -0.005322 0.000000
# 4 0.000000 0.000000 0.000000 0.021873 0.000000 0.003749
# 5 0.001738 -0.003232 -0.005322 0.000000 0.032151 0.000000
# 6 0.000000 0.000000 0.000000 0.003749 0.000000 0.036603
#
#
# Mechanical properties :
#
#
# Convention : Reuss Voigt Hill
#
# Bulk Modulus (GPa) = 49.16400 60.25738 54.71069
# Shear Modulus (GPa) = 35.26863 39.36139 37.31501
#
# Velocity S-wave (km/s) = 4.14969 4.38386 4.26838
# Velocity P-wave (km/s) = 6.85305 7.41923 7.14175
#
# Compressibility (1/GPa) = 0.02034009
#
# Stress axis : x y z
#
# Youngs Moduli (GPa) = 101.09697 74.18578 111.35722
#
# Poissons Ratio (x) = 0.08138 0.40270
# Poissons Ratio (y) = 0.11090 0.14391
# Poissons Ratio (z) = 0.36560 0.09587
#
# Static dielectric constant tensor:
#      x y z
#    x 1.859340 0.000000 0.060850 
#    y 0.000000 1.685390 0.000000 
#    z 0.060850 0.000000 1.730840 
# 
# From -- ./inp_files/102857.got.cif
#   From: 2010.05.17/outbox.cif.g08.bks.cpg/sg15_52_cif.got.tgz:102857.got - 2010.06.03 18:47:42.
