data_PCOD9305010
_publ_section_title
;
Structure prediction by ZEFSAII (Michael W. Deem and Ramdas Pophale) SiO2 
 PCOD9305010
Probable space group: C 2/C
;
_chemical_formula_sum "Si O2"
_cell_formula_units_Z 60
_cell_length_a 15.833384
_cell_length_b 6.465064
_cell_length_c 28.628487
_cell_angle_alpha 90.000000
_cell_angle_beta 76.551147
_cell_angle_gamma 90.000000
_cell_volume 2850.160900
_symmetry_space_group_name_H-M "C 2/C"
_symmetry_group_IT_number 15
_symmetry_cell_setting 'monoclinic'
loop_
_space_group_symop_operation_xyz
x,y,z
-x,y,1/2-z
-x,-y,-z
x,-y,1/2+z
1/2+x,1/2+y,z
1/2-x,1/2+y,1/2-z
1/2-x,1/2-y,-z
1/2+x,1/2-y,1/2+z
loop_
_atom_site_type_symbol
_atom_site_label
_atom_site_fract_x
_atom_site_fract_y
_atom_site_fract_z
Si Si1 0.344716 0.833711 0.975943
Si Si2 0.589868 0.807403 0.192878
Si Si3 0.409362 0.430462 0.716222
Si Si4 0.865562 0.549306 0.066970
Si Si5 0.499875 0.580593 0.553143
Si Si6 0.500000 0.189268 0.250000
Si Si7 0.717811 0.132067 0.591929
Si Si8 0.141709 0.158919 0.376604
O O1 0.403377 0.651955 0.947097
O O2 0.335404 0.026684 0.942723
O O3 0.250000 0.750000 0.000000
O O4 0.385203 0.908377 0.019598
O O5 0.626954 0.687603 0.233549
O O6 0.499895 0.688817 0.193766
O O7 0.654612 0.805978 0.141787
O O8 0.560370 0.037788 0.211575
O O9 0.439192 0.660107 0.726930
O O10 0.351427 0.406961 0.678010
O O11 0.778069 0.678396 0.068430
O O12 0.852434 0.400825 0.112938
O O13 0.941366 0.713499 0.064492
O O14 0.500000 0.500000 0.500000
O O15 0.451846 0.417581 0.592231
O O16 0.785276 0.959657 0.602852
#
# Coordination Sequence:
#
# PCOD9305010 Si02
#       8
#     8   8   8   8   8   4   8   8
#     4  12  23  43  64  92 129 167 206 267 311 369
#     4   9  21  40  62  96 118 160 217 255 314 376
#     4   9  21  40  64  91 124 163 209 258 315 381
#     4  11  24  44  61  89 136 166 207 260 315 372
#     4  11  24  41  65  94 124 166 219 253 312 385
#     4   8  18  40  66  88 126 154 206 270 314 368
#     4  11  25  40  62  95 126 166 215 257 315 382
#     4  11  24  42  61  93 128 169 209 257 317 381
#
# _framework density 21.051442000000002
#
# number of rings (size 3 to 8) (size 9 to 14) (size 15 to 20)
#    0.000    1.867    2.667    1.600    3.733    6.400 
#    4.800    0.000    0.000    0.000    0.000    0.000 
#    0.000    0.000    0.000    0.000    0.000    0.000 
#
# Total GULP energy -167693.384163 kJ/mol
# GULP energy per Si atom -5589.779472 kJ/mol
# Density = 2.100353 g / cm^3
# Si number density = 21.051442 Si / 1000 Ang^3
#
#
#
# Elastic Constant Matrix: (Units=GPa)
#
#
# Indices 1 2 3 4 5 6 
#
# 1 43.8014 2.0271 -3.8586 0.0001 -13.0070 0.0000
# 2 2.0271 77.5970 -6.4909 0.0003 1.4556 0.0001
# 3 -3.8586 -6.4909 67.3715 0.0002 -2.2595 0.0001
# 4 0.0001 0.0003 0.0002 14.4686 0.0001 0.2990
# 5 -13.0070 1.4556 -2.2595 0.0001 44.0827 0.0000
# 6 0.0000 0.0001 0.0001 0.2990 0.0000 24.3989
#
#
#
# Elastic Compliance Matrix: (Units=1/GPa)
#
#
# Indices 1 2 3 4 5 6 
#
# 1 0.025249 -0.000665 0.001635 0.000000 0.007556 0.000000
# 2 -0.000665 0.013015 0.001197 0.000000 -0.000564 0.000000
# 3 0.001635 0.001197 0.015093 0.000000 0.001217 0.000000
# 4 0.000000 0.000000 0.000000 0.069133 0.000000 -0.000847
# 5 0.007556 -0.000564 0.001217 0.000000 0.024995 0.000000
# 6 0.000000 0.000000 0.000000 -0.000847 0.000000 0.040996
#
#
# Mechanical properties :
#
#
# Convention : Reuss Voigt Hill
#
# Bulk Modulus (GPa) = 17.33321 19.12500 18.22911
# Shear Modulus (GPa) = 24.58509 29.72954 27.15732
#
# Velocity S-wave (km/s) = 3.42110 3.76205 3.59562
# Velocity P-wave (km/s) = 4.88435 5.28916 5.09078
#
# Compressibility (1/GPa) = 0.05769270
#
# Stress axis : x y z
#
# Youngs Moduli (GPa) = 39.60580 76.83344 66.25646
#
# Poissons Ratio (x) = 0.05106 -0.10836
# Poissons Ratio (y) = 0.02632 -0.07931
# Poissons Ratio (z) = -0.06477 -0.09197
#
# Static dielectric constant tensor:
#      x y z
#    x 1.771940 0.000000 0.022460 
#    y 0.000000 1.752070 0.000000 
#    z 0.022460 0.000000 1.742820 
# 
# From -- ./inp_files/314866.got.cif
#   From: 2010.05.17/outbox.cif.g08.bks.cpg/sg15_158_cif.got.tgz:314866.got - 2010.06.03 18:47:42.
