data_PCOD9305310
_publ_section_title
;
Structure prediction by ZEFSAII (Michael W. Deem and Ramdas Pophale) SiO2 
 PCOD9305310
Probable space group: C 2/C
;
_chemical_formula_sum "Si O2"
_cell_formula_units_Z 36
_cell_length_a 8.505636
_cell_length_b 22.687615
_cell_length_c 8.859208
_cell_angle_alpha 90.000000
_cell_angle_beta 86.660067
_cell_angle_gamma 90.000000
_cell_volume 1706.680549
_symmetry_space_group_name_H-M "C 2/C"
_symmetry_group_IT_number 15
_symmetry_cell_setting 'monoclinic'
loop_
_space_group_symop_operation_xyz
x,y,z
-x,y,1/2-z
-x,-y,-z
x,-y,1/2+z
1/2+x,1/2+y,z
1/2-x,1/2+y,1/2-z
1/2-x,1/2-y,-z
1/2+x,1/2-y,1/2+z
loop_
_atom_site_type_symbol
_atom_site_label
_atom_site_fract_x
_atom_site_fract_y
_atom_site_fract_z
Si Si1 0.391721 0.460105 0.114788
Si Si2 0.398088 0.958861 0.896591
Si Si3 0.251547 0.667656 0.642955
Si Si4 0.500000 0.754342 0.750000
Si Si5 0.592632 0.833147 0.479322
O O1 0.500000 0.448450 0.250000
O O2 0.244680 0.502293 0.155699
O O3 0.321437 0.395519 0.084238
O O4 0.500000 0.500000 0.000000
O O5 0.500000 0.939425 0.750000
O O6 0.356342 0.899674 0.984352
O O7 0.500000 0.000000 0.000000
O O8 0.394741 0.714005 0.642993
O O9 0.188279 0.675542 0.819065
O O10 0.092619 0.673335 0.553433
O O11 0.607239 0.793893 0.630195
#
# Coordination Sequence:
#
# PCOD9305310 Si02
#       5
#     8   8   8   4   8
#     4  12  25  42  66 102 138 177 220 283 354 398
#     4  12  23  41  69  97 130 174 229 278 334 409
#     4  11  24  44  68  96 139 176 221 283 338 400
#     4  12  24  44  70  98 136 178 228 278 338 398
#     4  11  24  44  68  99 131 180 231 273 331 410
#
# _framework density 21.093577
#
# number of rings (size 3 to 8) (size 9 to 14) (size 15 to 20)
#    0.000    0.444    4.444    5.333    0.000    0.000 
#    0.000    0.000    0.000    0.000    0.000    0.000 
#    0.000    0.000    0.000    0.000    0.000    0.000 
#
# Total GULP energy -100371.265803 kJ/mol
# GULP energy per Si atom -5576.181434 kJ/mol
# Density = 2.104557 g / cm^3
# Si number density = 21.093577 Si / 1000 Ang^3
#
#
#
# Elastic Constant Matrix: (Units=GPa)
#
#
# Indices 1 2 3 4 5 6 
#
# 1 54.7413 16.6285 -15.0501 0.0000 2.3358 0.0000
# 2 16.6285 126.6201 2.3681 0.0000 -2.5468 0.0000
# 3 -15.0501 2.3681 38.1880 0.0000 -8.5803 0.0000
# 4 0.0000 0.0000 0.0000 33.4123 0.0000 1.9413
# 5 2.3358 -2.5468 -8.5803 0.0000 30.5253 0.0000
# 6 0.0000 0.0000 0.0000 1.9413 0.0000 33.7218
#
#
#
# Elastic Compliance Matrix: (Units=1/GPa)
#
#
# Indices 1 2 3 4 5 6 
#
# 1 0.021575 -0.002987 0.008818 0.000000 0.000579 0.000000
# 2 -0.002987 0.008329 -0.001586 0.000000 0.000478 0.000000
# 3 0.008818 -0.001586 0.031572 0.000000 0.008068 0.000000
# 4 0.000000 0.000000 0.000000 0.030030 0.000000 -0.001729
# 5 0.000579 0.000478 0.008068 0.000000 0.035023 0.000000
# 6 0.000000 0.000000 0.000000 -0.001729 0.000000 0.029754
#
#
# Mechanical properties :
#
#
# Convention : Reuss Voigt Hill
#
# Bulk Modulus (GPa) = 14.29261 25.27138 19.78200
# Shear Modulus (GPa) = 29.22017 33.90538 31.56278
#
# Velocity S-wave (km/s) = 3.72595 4.01356 3.87243
# Velocity P-wave (km/s) = 5.02999 5.78661 5.42152
#
# Compressibility (1/GPa) = 0.06996621
#
# Stress axis : x y z
#
# Youngs Moduli (GPa) = 46.35088 120.06059 31.67318
#
# Poissons Ratio (x) = 0.35857 -0.27929
# Poissons Ratio (y) = 0.13843 0.05024
# Poissons Ratio (z) = -0.40871 0.19044
#
# Static dielectric constant tensor:
#      x y z
#    x 1.825430 0.000000 -0.072770 
#    y 0.000000 1.972840 0.000000 
#    z -0.072770 0.000000 1.777790 
# 
# From -- ./inp_files/22508.got.cif
#   From: 2010.05.17/outbox.cif.g08.bks.cpg/sg15_12_cif.got.tgz:22508.got - 2010.06.03 18:47:42.
