data_PCOD9305813
_publ_section_title
;
Structure prediction by ZEFSAII (Michael W. Deem and Ramdas Pophale) SiO2 
 PCOD9305813
Probable space group: C 2/C
;
_chemical_formula_sum "Si O2"
_cell_formula_units_Z 36
_cell_length_a 5.378697
_cell_length_b 28.569065
_cell_length_c 12.280527
_cell_angle_alpha 90.000000
_cell_angle_beta 117.150516
_cell_angle_gamma 90.000000
_cell_volume 1679.143423
_symmetry_space_group_name_H-M "C 2/C"
_symmetry_group_IT_number 15
_symmetry_cell_setting 'monoclinic'
loop_
_space_group_symop_operation_xyz
x,y,z
-x,y,1/2-z
-x,-y,-z
x,-y,1/2+z
1/2+x,1/2+y,z
1/2-x,1/2+y,1/2-z
1/2-x,1/2-y,-z
1/2+x,1/2-y,1/2+z
loop_
_atom_site_type_symbol
_atom_site_label
_atom_site_fract_x
_atom_site_fract_y
_atom_site_fract_z
Si Si1 0.778990 0.770025 0.881727
Si Si2 0.040437 0.416448 0.010876
Si Si3 0.000000 0.298830 0.250000
Si Si4 0.568271 0.356900 0.040927
Si Si5 0.828831 0.491626 0.822647
O O1 0.500000 0.775458 0.750000
O O2 0.958136 0.733385 0.847272
O O3 0.750000 0.750000 0.000000
O O4 0.934324 0.819123 0.931654
O O5 0.923586 0.440102 0.878746
O O6 0.315906 0.386844 0.040435
O O7 0.111870 0.463492 0.090660
O O8 0.803158 0.387266 0.025936
O O9 0.731136 0.330277 0.170538
O O10 0.500000 0.489513 0.750000
O O11 0.000000 0.502544 0.750000
#
# Coordination Sequence:
#
# PCOD9305813 Si02
#       5
#     8   8   4   8   8
#     4  12  27  51  75 108 156 205 256 320 390 445
#     4  11  27  46  69 117 141 189 252 302 377 450
#     4  12  28  48  76 106 156 198 262 312 396 448
#     4  12  27  46  77 110 147 196 258 314 367 464
#     4  11  24  47  75 100 154 192 233 305 383 451
#
# _framework density 21.439505
#
# number of rings (size 3 to 8) (size 9 to 14) (size 15 to 20)
#    0.000    0.444    2.222    4.667    7.778    6.222 
#    0.000    0.000    0.000    0.000    0.000    0.000 
#    0.000    0.000    0.000    0.000    0.000    0.000 
#
# Total GULP energy -100643.871398 kJ/mol
# GULP energy per Si atom -5591.326189 kJ/mol
# Density = 2.139071 g / cm^3
# Si number density = 21.439505 Si / 1000 Ang^3
#
#
#
# Elastic Constant Matrix: (Units=GPa)
#
#
# Indices 1 2 3 4 5 6 
#
# 1 188.3560 93.8157 60.3182 0.0000 4.4755 0.0000
# 2 93.8157 159.2521 53.1689 0.0000 13.1309 0.0000
# 3 60.3182 53.1689 104.2516 0.0000 -0.0453 0.0000
# 4 0.0000 0.0000 0.0000 28.8750 0.0000 15.6492
# 5 4.4755 13.1309 -0.0453 0.0000 50.3256 0.0000
# 6 0.0000 0.0000 0.0000 15.6492 0.0000 156.8624
#
#
#
# Elastic Compliance Matrix: (Units=1/GPa)
#
#
# Indices 1 2 3 4 5 6 
#
# 1 0.008110 -0.003899 -0.002704 0.000000 0.000294 0.000000
# 2 -0.003899 0.009645 -0.002664 0.000000 -0.002172 0.000000
# 3 -0.002704 -0.002664 0.012515 0.000000 0.000947 0.000000
# 4 0.000000 0.000000 0.000000 0.036612 0.000000 -0.003653
# 5 0.000294 -0.002172 0.000947 0.000000 0.020412 0.000000
# 6 0.000000 0.000000 0.000000 -0.003653 0.000000 0.006739
#
#
# Mechanical properties :
#
#
# Convention : Reuss Voigt Hill
#
# Bulk Modulus (GPa) = 85.20062 96.27393 90.73728
# Shear Modulus (GPa) = 42.92624 63.51640 53.22132
#
# Velocity S-wave (km/s) = 4.47945 5.44887 4.98777
# Velocity P-wave (km/s) = 8.15967 9.19725 8.69395
#
# Compressibility (1/GPa) = 0.01173700
#
# Stress axis : x y z
#
# Youngs Moduli (GPa) = 123.30462 103.68218 79.90154
#
# Poissons Ratio (x) = 0.40428 0.21602
# Poissons Ratio (y) = 0.48079 0.21285
# Poissons Ratio (z) = 0.33336 0.27620
#
# Static dielectric constant tensor:
#      x y z
#    x 1.755570 0.000000 0.024650 
#    y 0.000000 1.751420 0.000000 
#    z 0.024650 0.000000 1.855680 
# 
# From -- ./inp_files/73413.got.cif
#   From: 2010.05.17/outbox.cif.g08.bks.cpg/sg15_37_cif.got.tgz:73413.got - 2010.06.03 18:47:42.
