data_PCOD9305226
_publ_section_title
;
Structure prediction by ZEFSAII (Michael W. Deem and Ramdas Pophale) SiO2 
 PCOD9305226
Probable space group: C 2/C
;
_chemical_formula_sum "Si O2"
_cell_formula_units_Z 36
_cell_length_a 14.224798
_cell_length_b 26.907425
_cell_length_c 9.327856
_cell_angle_alpha 90.000000
_cell_angle_beta 26.640104
_cell_angle_gamma 90.000000
_cell_volume 1600.851320
_symmetry_space_group_name_H-M "C 2/C"
_symmetry_group_IT_number 15
_symmetry_cell_setting 'monoclinic'
loop_
_space_group_symop_operation_xyz
x,y,z
-x,y,1/2-z
-x,-y,-z
x,-y,1/2+z
1/2+x,1/2+y,z
1/2-x,1/2+y,1/2-z
1/2-x,1/2-y,-z
1/2+x,1/2-y,1/2+z
loop_
_atom_site_type_symbol
_atom_site_label
_atom_site_fract_x
_atom_site_fract_y
_atom_site_fract_z
Si Si1 0.000000 0.899367 0.250000
Si Si2 0.453337 0.051241 0.144198
Si Si3 0.545040 0.223399 0.338414
Si Si4 0.450341 0.327326 0.586187
Si Si5 0.166490 0.646893 0.727022
O O1 0.788476 0.931793 0.542576
O O2 0.000610 0.863324 0.386381
O O3 0.500000 0.047734 0.250000
O O4 0.601816 0.092947 0.868949
O O5 0.500000 0.000000 0.000000
O O6 0.500000 0.195022 0.250000
O O7 0.419168 0.270902 0.572293
O O8 0.534029 0.181997 0.473459
O O9 0.750000 0.250000 0.000000
O O10 0.654429 0.329327 0.413067
O O11 0.262659 0.348657 0.939010
#
# Coordination Sequence:
#
# PCOD9305226 Si02
#       5
#     4   8   8   8   8
#     4  12  26  48  78 106 142 190 236 292 372 428
#     4  12  29  51  76 107 143 186 241 303 362 424
#     4  12  22  39  66  98 144 192 231 284 353 422
#     4  11  24  43  72 106 141 191 239 289 360 436
#     4  11  25  46  68 101 150 186 240 303 351 425
#
# _framework density 22.488036000000001
#
# number of rings (size 3 to 8) (size 9 to 14) (size 15 to 20)
#    0.000    0.444    5.556    2.667    3.111    2.667 
#    0.000    0.000    0.000    0.000    0.000    0.000 
#    0.000    0.000    0.000    0.000    0.000    0.000 
#
# Total GULP energy -100636.421597 kJ/mol
# GULP energy per Si atom -5590.912311 kJ/mol
# Density = 2.243685 g / cm^3
# Si number density = 22.488036 Si / 1000 Ang^3
#
#
#
# Elastic Constant Matrix: (Units=GPa)
#
#
# Indices 1 2 3 4 5 6 
#
# 1 101.8549 39.1764 39.2491 0.0000 26.1192 -0.0001
# 2 39.1764 189.3955 74.8967 0.0000 30.2376 0.0000
# 3 39.2491 74.8967 148.4525 0.0000 47.2264 0.0000
# 4 0.0000 0.0000 0.0000 49.7631 0.0000 11.1438
# 5 26.1192 30.2376 47.2264 0.0000 44.9767 0.0000
# 6 -0.0001 0.0000 0.0000 11.1438 0.0000 25.4868
#
#
#
# Elastic Compliance Matrix: (Units=1/GPa)
#
#
# Indices 1 2 3 4 5 6 
#
# 1 0.011980 -0.001312 -0.000860 0.000000 -0.005172 0.000000
# 2 -0.001312 0.006800 -0.002811 0.000000 -0.000858 0.000000
# 3 -0.000860 -0.002811 0.011444 0.000000 -0.009628 0.000000
# 4 0.000000 0.000000 0.000000 0.022276 0.000000 -0.009740
# 5 -0.005172 -0.000858 -0.009628 0.000000 0.035924 0.000000
# 6 0.000000 0.000000 0.000000 -0.009740 0.000000 0.043495
#
#
# Mechanical properties :
#
#
# Convention : Reuss Voigt Hill
#
# Bulk Modulus (GPa) = 49.36184 82.92747 66.14466
# Shear Modulus (GPa) = 33.63871 43.13735 38.38803
#
# Velocity S-wave (km/s) = 3.87182 4.38452 4.13612
# Velocity P-wave (km/s) = 6.47965 7.91128 7.23098
#
# Compressibility (1/GPa) = 0.02025856
#
# Stress axis : x y z
#
# Youngs Moduli (GPa) = 83.47014 147.06078 87.37873
#
# Poissons Ratio (x) = 0.19299 0.07515
# Poissons Ratio (y) = 0.10954 0.24560
# Poissons Ratio (z) = 0.07179 0.41334
#
# Static dielectric constant tensor:
#      x y z
#    x 2.016670 0.000000 -0.155750 
#    y 0.000000 1.774000 0.000000 
#    z -0.155750 0.000000 1.913730 
# 
# From -- ./inp_files/23317.got.cif
#   From: 2010.05.17/outbox.cif.g08.bks.cpg/sg15_12_cif.got.tgz:23317.got - 2010.06.03 18:47:42.
