data_PCOD9305259
_publ_section_title
;
Structure prediction by ZEFSAII (Michael W. Deem and Ramdas Pophale) SiO2 
 PCOD9305259
Probable space group: C 2/C
;
_chemical_formula_sum "Si O2"
_cell_formula_units_Z 64
_cell_length_a 27.920716
_cell_length_b 17.383269
_cell_length_c 11.966639
_cell_angle_alpha 90.000000
_cell_angle_beta 30.582554
_cell_angle_gamma 90.000000
_cell_volume 2955.014588
_symmetry_space_group_name_H-M "C 2/C"
_symmetry_group_IT_number 15
_symmetry_cell_setting 'monoclinic'
loop_
_space_group_symop_operation_xyz
x,y,z
-x,y,1/2-z
-x,-y,-z
x,-y,1/2+z
1/2+x,1/2+y,z
1/2-x,1/2+y,1/2-z
1/2-x,1/2-y,-z
1/2+x,1/2-y,1/2+z
loop_
_atom_site_type_symbol
_atom_site_label
_atom_site_fract_x
_atom_site_fract_y
_atom_site_fract_z
Si Si1 0.347559 0.681838 0.387890
Si Si2 0.785396 0.601048 0.019069
Si Si3 0.015722 0.912029 0.500421
Si Si4 0.232541 0.926241 0.088366
Si Si5 0.448985 0.274598 0.236848
Si Si6 0.030496 0.335084 0.395696
Si Si7 0.255443 0.785915 0.182651
Si Si8 0.658680 0.142098 0.337935
O O1 0.290375 0.657010 0.390713
O O2 0.408447 0.760104 0.264467
O O3 0.271757 0.693648 0.637095
O O4 0.426711 0.616631 0.251583
O O5 0.748050 0.514756 0.084875
O O6 0.810446 0.621930 0.097403
O O7 0.885300 0.605505 0.753528
O O8 0.122236 0.908035 0.328916
O O9 0.018599 0.851230 0.392430
O O10 0.000000 0.000000 0.500000
O O11 0.280368 0.865272 0.073913
O O12 0.275519 0.904609 0.880850
O O13 0.500000 0.270083 0.250000
O O14 0.340273 0.271762 0.487052
O O15 0.476050 0.200202 0.109881
O O16 0.951283 0.368321 0.471891
O O17 0.171138 0.735095 0.299411
#
# Coordination Sequence:
#
# PCOD9305259 Si02
#       8
#     8   8   8   8   8   8   8   8
#     4  11  25  44  75 109 142 187 248 305 359 442
#     4  12  27  45  73 108 153 189 240 311 366 439
#     4  11  24  45  69 105 151 185 238 306 378 444
#     4  12  27  46  70 108 147 196 238 298 379 448
#     4  11  24  43  76 106 142 194 249 306 364 444
#     4  11  24  47  72 105 137 193 253 293 361 439
#     4  12  24  46  75 103 144 193 243 308 357 442
#     4  12  26  48  74 102 146 199 245 300 366 437
#
# _framework density 21.658100000000001
#
# number of rings (size 3 to 8) (size 9 to 14) (size 15 to 20)
#    0.000    0.500    5.000    3.375    5.250    2.000 
#    2.250    0.000    0.000    0.000    0.000    0.000 
#    0.000    0.000    0.000    0.000    0.000    0.000 
#
# Total GULP energy -178643.042015 kJ/mol
# GULP energy per Si atom -5582.595063 kJ/mol
# Density = 2.160880 g / cm^3
# Si number density = 21.658100 Si / 1000 Ang^3
#
#
#
# Elastic Constant Matrix: (Units=GPa)
#
#
# Indices 1 2 3 4 5 6 
#
# 1 68.9359 40.7222 38.9915 0.0000 -8.1895 0.0000
# 2 40.7222 63.2191 30.1022 0.0000 19.8709 0.0000
# 3 38.9915 30.1022 113.5864 0.0000 -4.4421 0.0000
# 4 0.0000 0.0000 0.0000 34.0144 0.0000 -8.5512
# 5 -8.1895 19.8709 -4.4421 0.0000 35.6098 0.0000
# 6 0.0000 0.0000 0.0000 -8.5512 0.0000 26.2010
#
#
#
# Elastic Compliance Matrix: (Units=1/GPa)
#
#
# Indices 1 2 3 4 5 6 
#
# 1 0.037461 -0.030106 -0.003906 0.000000 0.024927 0.000000
# 2 -0.030106 0.047592 -0.003605 0.000000 -0.033930 0.000000
# 3 -0.003906 -0.003605 0.011198 0.000000 0.002510 0.000000
# 4 0.000000 0.000000 0.000000 0.032027 0.000000 0.010453
# 5 0.024927 -0.033930 0.002510 0.000000 0.053062 0.000000
# 6 0.000000 0.000000 0.000000 0.010453 0.000000 0.041578
#
#
# Mechanical properties :
#
#
# Convention : Reuss Voigt Hill
#
# Bulk Modulus (GPa) = 47.57880 51.70812 49.64346
# Shear Modulus (GPa) = 16.38497 28.22672 22.30585
#
# Velocity S-wave (km/s) = 2.75349 3.61402 3.21270
# Velocity P-wave (km/s) = 5.66787 6.42973 6.06078
#
# Compressibility (1/GPa) = 0.02101776
#
# Stress axis : x y z
#
# Youngs Moduli (GPa) = 26.69436 21.01200 89.29903
#
# Poissons Ratio (x) = 0.63258 0.34882
# Poissons Ratio (y) = 0.80365 0.32192
# Poissons Ratio (z) = 0.10427 0.07575
#
# Static dielectric constant tensor:
#      x y z
#    x 1.783300 0.000000 0.022020 
#    y 0.000000 1.788050 0.000000 
#    z 0.022020 0.000000 1.801770 
# 
# From -- ./inp_files/127277.got.cif
#   From: 2010.05.17/outbox.cif.g08.bks.cpg/sg15_64_cif.got.tgz:127277.got - 2010.06.03 18:47:42.
