data_PCOD9305314
_publ_section_title
;
Structure prediction by ZEFSAII (Michael W. Deem and Ramdas Pophale) SiO2 
 PCOD9305314
Probable space group: C 2/C
;
_chemical_formula_sum "Si O2"
_cell_formula_units_Z 36
_cell_length_a 17.650746
_cell_length_b 21.759112
_cell_length_c 9.248832
_cell_angle_alpha 90.000000
_cell_angle_beta 150.372239
_cell_angle_gamma 90.000000
_cell_volume 1756.051175
_symmetry_space_group_name_H-M "C 2/C"
_symmetry_group_IT_number 15
_symmetry_cell_setting 'monoclinic'
loop_
_space_group_symop_operation_xyz
x,y,z
-x,y,1/2-z
-x,-y,-z
x,-y,1/2+z
1/2+x,1/2+y,z
1/2-x,1/2+y,1/2-z
1/2-x,1/2-y,-z
1/2+x,1/2-y,1/2+z
loop_
_atom_site_type_symbol
_atom_site_label
_atom_site_fract_x
_atom_site_fract_y
_atom_site_fract_z
Si Si1 0.758661 0.162112 0.315316
Si Si2 0.104470 0.536244 0.059162
Si Si3 0.397252 0.539848 0.939315
Si Si4 0.000000 0.746977 0.750000
Si Si5 0.454576 0.333772 0.403252
O O1 0.673492 0.100672 0.227206
O O2 0.842013 0.192862 0.592266
O O3 0.895895 0.143297 0.435415
O O4 0.644271 0.204586 0.033509
O O5 0.242916 0.494188 0.230699
O O6 0.000000 0.552450 0.750000
O O7 0.000000 0.500000 0.000000
O O8 0.371404 0.607281 0.832531
O O9 0.500000 0.548237 0.250000
O O10 0.500000 0.500000 0.000000
O O11 0.011322 0.789341 0.625402
#
# Coordination Sequence:
#
# PCOD9305314 Si02
#       5
#     8   8   8   4   8
#     4  11  24  45  68  97 140 176 223 285 339 400
#     4  12  25  42  66 102 140 177 221 286 353 398
#     4  12  23  42  70  98 133 178 233 280 337 412
#     4  12  24  44  70 100 136 180 228 274 344 402
#     4  11  24  44  69 100 131 179 233 277 330 411
#
# _framework density 20.500541999999999
#
# number of rings (size 3 to 8) (size 9 to 14) (size 15 to 20)
#    0.000    0.444    4.444    5.333    0.000    0.000 
#    4.000    0.000    0.000    0.000    0.000    0.000 
#    0.000    0.000    0.000    0.000    0.000    0.000 
#
# Total GULP energy -100552.314014 kJ/mol
# GULP energy per Si atom -5586.239667 kJ/mol
# Density = 2.045388 g / cm^3
# Si number density = 20.500542 Si / 1000 Ang^3
#
#
#
# Elastic Constant Matrix: (Units=GPa)
#
#
# Indices 1 2 3 4 5 6 
#
# 1 114.4211 43.2341 44.3015 0.0000 1.0966 0.0000
# 2 43.2341 93.2995 36.3355 0.0000 2.3702 0.0000
# 3 44.3015 36.3355 156.9998 0.0000 -23.4152 0.0000
# 4 0.0000 0.0000 0.0000 34.5571 0.0000 -0.1034
# 5 1.0966 2.3702 -23.4152 0.0000 45.6872 0.0000
# 6 0.0000 0.0000 0.0000 -0.1034 0.0000 31.7068
#
#
#
# Elastic Compliance Matrix: (Units=1/GPa)
#
#
# Indices 1 2 3 4 5 6 
#
# 1 0.011289 -0.004269 -0.002387 0.000000 -0.001273 0.000000
# 2 -0.004269 0.013597 -0.002200 0.000000 -0.001731 0.000000
# 3 -0.002387 -0.002200 0.008205 0.000000 0.004377 0.000000
# 4 0.000000 0.000000 0.000000 0.028938 0.000000 0.000094
# 5 -0.001273 -0.001731 0.004377 0.000000 0.024251 0.000000
# 6 0.000000 0.000000 0.000000 0.000094 0.000000 0.031539
#
#
# Mechanical properties :
#
#
# Convention : Reuss Voigt Hill
#
# Bulk Modulus (GPa) = 65.02877 68.05139 66.54008
# Shear Modulus (GPa) = 35.54662 38.44684 36.99673
#
# Velocity S-wave (km/s) = 4.16857 4.33529 4.25275
# Velocity P-wave (km/s) = 7.41341 7.63719 7.52613
#
# Compressibility (1/GPa) = 0.01537781
#
# Stress axis : x y z
#
# Youngs Moduli (GPa) = 88.57915 73.54342 121.87572
#
# Poissons Ratio (x) = 0.31398 0.29096
# Poissons Ratio (y) = 0.37817 0.26817
# Poissons Ratio (z) = 0.21147 0.16182
#
# Static dielectric constant tensor:
#      x y z
#    x 1.700240 0.000000 -0.024260 
#    y 0.000000 1.713560 0.000000 
#    z -0.024260 0.000000 1.737020 
# 
# From -- ./inp_files/23171.got.cif
#   From: 2010.05.17/outbox.cif.g08.bks.cpg/sg15_12_cif.got.tgz:23171.got - 2010.06.03 18:47:42.
