data_PCOD9305404
_publ_section_title
;
Structure prediction by ZEFSAII (Michael W. Deem and Ramdas Pophale) SiO2 
 PCOD9305404
Probable space group: C 2/C
;
_chemical_formula_sum "Si O2"
_cell_formula_units_Z 52
_cell_length_a 6.678208
_cell_length_b 26.645201
_cell_length_c 17.510597
_cell_angle_alpha 90.000000
_cell_angle_beta 124.084550
_cell_angle_gamma 90.000000
_cell_volume 2580.602673
_symmetry_space_group_name_H-M "C 2/C"
_symmetry_group_IT_number 15
_symmetry_cell_setting 'monoclinic'
loop_
_space_group_symop_operation_xyz
x,y,z
-x,y,1/2-z
-x,-y,-z
x,-y,1/2+z
1/2+x,1/2+y,z
1/2-x,1/2+y,1/2-z
1/2-x,1/2-y,-z
1/2+x,1/2-y,1/2+z
loop_
_atom_site_type_symbol
_atom_site_label
_atom_site_fract_x
_atom_site_fract_y
_atom_site_fract_z
Si Si1 0.085197 0.063549 0.587393
Si Si2 0.274020 0.154719 0.008591
Si Si3 0.274401 0.189094 0.834153
Si Si4 0.984594 0.215856 0.065580
Si Si5 0.500000 0.874235 0.250000
Si Si6 0.690987 0.369431 0.858816
Si Si7 0.254512 0.527167 0.042174
O O1 0.269420 0.091569 0.682395
O O2 0.221878 0.047209 0.539476
O O3 0.873998 0.102767 0.520442
O O4 0.963169 0.014341 0.596851
O O5 0.308708 0.168769 0.927288
O O6 0.537246 0.148776 0.102547
O O7 0.115548 0.196742 0.017172
O O8 0.338190 0.247804 0.849664
O O9 0.445929 0.160212 0.811699
O O10 0.000000 0.180906 0.750000
O O11 0.906336 0.167370 0.096104
O O12 0.750000 0.250000 0.000000
O O13 0.500000 0.367493 0.750000
O O14 0.715157 0.425533 0.896398
O O15 0.000000 0.500000 0.000000
#
# Coordination Sequence:
#
# PCOD9305404 Si02
#       7
#     8   8   8   8   4   8   8
#     4  11  24  44  74 101 138 181 233 296 357 421
#     4  12  24  49  71 103 144 190 237 295 360 421
#     4  12  27  42  74 106 142 188 235 295 355 428
#     4  12  27  45  73 101 149 191 243 290 361 428
#     4  12  26  44  72 114 142 172 244 296 352 428
#     4  12  28  45  70 105 144 190 243 302 359 435
#     4  11  24  48  72  98 140 191 235 294 365 425
#
# _framework density 20.150334000000001
#
# number of rings (size 3 to 8) (size 9 to 14) (size 15 to 20)
#    0.000    0.308    6.154    2.308    3.231    1.231 
#    0.000    0.000    0.000    0.000    0.000    0.000 
#    0.000    0.000    0.000    0.000    0.000    0.000 
#
# Total GULP energy -145526.808099 kJ/mol
# GULP energy per Si atom -5597.184927 kJ/mol
# Density = 2.010447 g / cm^3
# Si number density = 20.150334 Si / 1000 Ang^3
#
#
#
# Elastic Constant Matrix: (Units=GPa)
#
#
# Indices 1 2 3 4 5 6 
#
# 1 130.2019 59.6753 58.9616 0.0000 -8.3772 0.0000
# 2 59.6753 123.8135 48.1766 0.0000 -10.4690 0.0000
# 3 58.9616 48.1766 111.0819 0.0000 10.2100 0.0000
# 4 0.0000 0.0000 0.0000 36.3711 0.0000 5.1821
# 5 -8.3772 -10.4690 10.2100 0.0000 29.5665 0.0000
# 6 0.0000 0.0000 0.0000 5.1821 0.0000 48.0045
#
#
#
# Elastic Compliance Matrix: (Units=1/GPa)
#
#
# Indices 1 2 3 4 5 6 
#
# 1 0.011815 -0.003343 -0.005185 0.000000 0.003955 0.000000
# 2 -0.003343 0.011453 -0.003593 0.000000 0.004349 0.000000
# 3 -0.005185 -0.003593 0.014009 0.000000 -0.007579 0.000000
# 4 0.000000 0.000000 0.000000 0.027924 0.000000 -0.003014
# 5 0.003955 0.004349 -0.007579 0.000000 0.039100 0.000000
# 6 0.000000 0.000000 0.000000 -0.003014 0.000000 0.021157
#
#
# Mechanical properties :
#
#
# Convention : Reuss Voigt Hill
#
# Bulk Modulus (GPa) = 76.70674 77.63602 77.17138
# Shear Modulus (GPa) = 32.45812 36.00736 34.23274
#
# Velocity S-wave (km/s) = 4.01783 4.23180 4.12620
# Velocity P-wave (km/s) = 7.72488 7.90504 7.81548
#
# Compressibility (1/GPa) = 0.01303666
#
# Stress axis : x y z
#
# Youngs Moduli (GPa) = 84.63935 87.30969 71.38052
#
# Poissons Ratio (x) = 0.29184 0.37011
# Poissons Ratio (y) = 0.28291 0.25647
# Poissons Ratio (z) = 0.43886 0.31370
#
# Static dielectric constant tensor:
#      x y z
#    x 1.716370 0.000000 0.011610 
#    y 0.000000 1.707200 0.000000 
#    z 0.011610 0.000000 1.688950 
# 
# From -- ./inp_files/186301.got.cif
#   From: 2010.05.17/outbox.cif.g08.bks.cpg/sg15_94_cif.got.tgz:186301.got - 2010.06.03 18:47:42.
