data_PCOD9305745
_publ_section_title
;
Structure prediction by ZEFSAII (Michael W. Deem and Ramdas Pophale) SiO2 
 PCOD9305745
Probable space group: C 2/C
;
_chemical_formula_sum "Si O2"
_cell_formula_units_Z 52
_cell_length_a 15.231764
_cell_length_b 18.616682
_cell_length_c 18.826629
_cell_angle_alpha 90.000000
_cell_angle_beta 29.286692
_cell_angle_gamma 90.000000
_cell_volume 2611.521689
_symmetry_space_group_name_H-M "C 2/C"
_symmetry_group_IT_number 15
_symmetry_cell_setting 'monoclinic'
loop_
_space_group_symop_operation_xyz
x,y,z
-x,y,1/2-z
-x,-y,-z
x,-y,1/2+z
1/2+x,1/2+y,z
1/2-x,1/2+y,1/2-z
1/2-x,1/2-y,-z
1/2+x,1/2-y,1/2+z
loop_
_atom_site_type_symbol
_atom_site_label
_atom_site_fract_x
_atom_site_fract_y
_atom_site_fract_z
Si Si1 0.871661 0.819035 0.902045
Si Si2 0.433451 0.686691 0.519876
Si Si3 0.500000 0.018085 0.250000
Si Si4 0.368114 0.576240 0.779850
Si Si5 0.896152 0.056853 0.021783
Si Si6 0.866696 0.666115 0.650857
Si Si7 0.642788 0.051747 0.507139
O O1 0.000000 0.791199 0.750000
O O2 0.926480 0.840749 0.943291
O O3 0.750000 0.750000 0.000000
O O4 0.786295 0.887635 0.924564
O O5 0.563358 0.634172 0.471998
O O6 0.247524 0.683511 0.696591
O O7 0.509719 0.767134 0.458281
O O8 0.430682 0.973829 0.365712
O O9 0.684096 0.052851 0.152606
O O10 0.500000 0.596794 0.750000
O O11 0.495515 0.547558 0.627657
O O12 0.266363 0.644196 0.818412
O O13 0.231999 0.514346 0.902522
O O14 0.000000 0.000000 0.000000
O O15 0.984268 0.594641 0.580097
#
# Coordination Sequence:
#
# PCOD9305745 Si02
#       7
#     8   8   4   8   8   8   8
#     4  12  25  40  65  97 136 174 218 278 343 419
#     4  11  25  45  66 100 140 178 225 280 355 402
#     4  12  24  42  70 106 128 184 232 282 344 408
#     4  11  24  47  66  98 135 179 235 278 339 399
#     4  11  25  46  70  98 144 180 230 293 339 414
#     4  11  25  44  68 101 135 180 223 288 339 419
#     4  12  24  41  70  99 136 174 227 278 348 411
#
# _framework density 19.911763000000001
#
# number of rings (size 3 to 8) (size 9 to 14) (size 15 to 20)
#    0.000    0.615    3.077    5.538    3.231    1.231 
#    1.385    1.538    0.000    0.000    0.000    0.000 
#    0.000    0.000    0.000    0.000    0.000    0.000 
#
# Total GULP energy -145076.834473 kJ/mol
# GULP energy per Si atom -5579.878249 kJ/mol
# Density = 1.986644 g / cm^3
# Si number density = 19.911763 Si / 1000 Ang^3
#
#
#
# Elastic Constant Matrix: (Units=GPa)
#
#
# Indices 1 2 3 4 5 6 
#
# 1 134.9434 15.5470 38.1666 -0.0084 7.8077 0.0010
# 2 15.5470 38.4154 21.1328 -0.0123 2.3083 0.0071
# 3 38.1666 21.1328 126.5580 -0.0343 15.0591 0.0366
# 4 -0.0084 -0.0123 -0.0343 5.3712 0.0019 14.7863
# 5 7.8077 2.3083 15.0591 0.0019 37.6746 0.0010
# 6 0.0010 0.0071 0.0366 14.7863 0.0010 13.7630
#
#
#
# Elastic Compliance Matrix: (Units=1/GPa)
#
#
# Indices 1 2 3 4 5 6 
#
# 1 0.008284 -0.002183 -0.002043 0.000011 -0.000767 -0.000006
# 2 -0.002183 0.029240 -0.004268 -0.000024 0.000367 0.000022
# 3 -0.002043 -0.004268 0.009606 -0.000058 -0.003155 0.000039
# 4 0.000011 -0.000024 -0.000058 -0.095107 0.000024 0.102179
# 5 -0.000767 0.000367 -0.003155 0.000024 0.027940 -0.000020
# 6 -0.000006 0.000022 0.000039 0.102179 -0.000020 -0.037117
#
#
# Mechanical properties :
#
#
# Convention : Reuss Voigt Hill
#
# Bulk Modulus (GPa) = 33.17497 49.95662 41.56580
# Shear Modulus (GPa) = -166.00571 26.36648 -69.81962
#
# Velocity S-wave (km/s) = -9.14066 3.64286 -5.92795
# Velocity P-wave (km/s) = 9.73165 6.54502 5.09253
#
# Compressibility (1/GPa) = 0.03014321
#
# Stress axis : x y z
#
# Youngs Moduli (GPa) = 120.71371 34.19920 104.10697
#
# Poissons Ratio (x) = 0.07465 0.21264
# Poissons Ratio (y) = 0.26351 0.44432
# Poissons Ratio (z) = 0.24656 0.14596
#
# Static dielectric constant tensor:
#      x y z
#    x 1.761610 -0.000020 -0.073610 
#    y -0.000020 1.662760 0.000020 
#    z -0.073610 0.000020 1.230970 
# 
# From -- ./inp_files/206795.got.cif
#   From: 2010.05.17/outbox.cif.g08.bks.cpg/sg15_104_cif.got.tgz:206795.got - 2010.06.03 18:47:42.
