data_PCOD9305587
_publ_section_title
;
Structure prediction by ZEFSAII (Michael W. Deem and Ramdas Pophale) SiO2 
 PCOD9305587
Probable space group: C 2/C
;
_chemical_formula_sum "Si O2"
_cell_formula_units_Z 40
_cell_length_a 19.611223
_cell_length_b 6.889768
_cell_length_c 21.240206
_cell_angle_alpha 90.000000
_cell_angle_beta 141.336938
_cell_angle_gamma 90.000000
_cell_volume 1792.944683
_symmetry_space_group_name_H-M "C 2/C"
_symmetry_group_IT_number 15
_symmetry_cell_setting 'monoclinic'
loop_
_space_group_symop_operation_xyz
x,y,z
-x,y,1/2-z
-x,-y,-z
x,-y,1/2+z
1/2+x,1/2+y,z
1/2-x,1/2+y,1/2-z
1/2-x,1/2-y,-z
1/2+x,1/2-y,1/2+z
loop_
_atom_site_type_symbol
_atom_site_label
_atom_site_fract_x
_atom_site_fract_y
_atom_site_fract_z
Si Si1 0.371492 0.712424 0.667347
Si Si2 0.846825 0.855347 0.288192
Si Si3 0.721687 0.025546 0.970797
Si Si4 0.104729 0.237584 0.108630
Si Si5 0.462322 0.058620 0.061623
O O1 0.500000 0.734841 0.750000
O O2 0.347933 0.595048 0.714597
O O3 0.321883 0.590564 0.573869
O O4 0.310556 0.922583 0.618541
O O5 0.723096 0.809982 0.218415
O O6 0.924943 0.669060 0.344414
O O7 0.897247 0.016332 0.370479
O O8 0.615016 0.981650 0.935973
O O9 0.750000 0.250000 0.000000
O O10 0.001020 0.353928 0.060978
O O11 0.100341 0.302748 0.032836
#
# Coordination Sequence:
#
# PCOD9305587 Si02
#       5
#     8   8   8   8   8
#     4  11  25  45  68 101 140 180 239 294 345 423
#     4  12  23  45  70  98 138 180 231 292 350 415
#     4  11  26  45  70 103 140 187 233 290 358 420
#     4  11  25  42  69 102 135 183 232 290 352 415
#     4  11  24  46  65 101 141 178 237 284 350 425
#
# _framework density 22.309667000000001
#
# number of rings (size 3 to 8) (size 9 to 14) (size 15 to 20)
#    0.000    0.800    6.000    0.600    2.800    2.400 
#    7.200    0.000    0.000    0.000    0.000    0.000 
#    0.000    0.000    0.000    0.000    0.000    0.000 
#
# Total GULP energy -111689.441072 kJ/mol
# GULP energy per Si atom -5584.472054 kJ/mol
# Density = 2.225889 g / cm^3
# Si number density = 22.309667 Si / 1000 Ang^3
#
#
#
# Elastic Constant Matrix: (Units=GPa)
#
#
# Indices 1 2 3 4 5 6 
#
# 1 65.1011 18.6274 0.6472 0.0000 14.9259 -0.0001
# 2 18.6274 103.1284 15.4918 -0.0001 13.2008 -0.0003
# 3 0.6472 15.4918 77.2747 0.0000 24.2745 -0.0001
# 4 0.0000 -0.0001 0.0000 38.3967 0.0000 2.1939
# 5 14.9259 13.2008 24.2745 0.0000 30.4689 0.0000
# 6 -0.0001 -0.0003 -0.0001 2.1939 0.0000 19.8092
#
#
#
# Elastic Compliance Matrix: (Units=1/GPa)
#
#
# Indices 1 2 3 4 5 6 
#
# 1 0.018577 -0.002514 0.003821 0.000000 -0.011055 0.000000
# 2 -0.002514 0.010651 -0.001403 0.000000 -0.002266 0.000000
# 3 0.003821 -0.001403 0.018123 0.000000 -0.015703 0.000000
# 4 0.000000 0.000000 0.000000 0.026210 0.000000 -0.002903
# 5 -0.011055 -0.002266 -0.015703 0.000000 0.051728 0.000000
# 6 0.000000 0.000000 0.000000 -0.002903 0.000000 0.050803
#
#
# Mechanical properties :
#
#
# Convention : Reuss Voigt Hill
#
# Bulk Modulus (GPa) = 21.20447 35.00412 28.10429
# Shear Modulus (GPa) = 26.04128 31.78416 28.91272
#
# Velocity S-wave (km/s) = 3.42023 3.77859 3.60387
# Velocity P-wave (km/s) = 5.01224 5.89586 5.47192
#
# Compressibility (1/GPa) = 0.04715988
#
# Stress axis : x y z
#
# Youngs Moduli (GPa) = 53.83046 93.88349 55.17938
#
# Poissons Ratio (x) = 0.23605 -0.21086
# Poissons Ratio (y) = 0.13535 0.07740
# Poissons Ratio (z) = -0.20570 0.13168
#
# Static dielectric constant tensor:
#      x y z
#    x 1.844890 0.000000 -0.073010 
#    y 0.000000 1.840200 0.000000 
#    z -0.073010 0.000000 1.876800 
# 
# From -- ./inp_files/170483.got.cif
#   From: 2010.05.17/outbox.cif.g08.bks.cpg/sg15_86_cif.got.tgz:170483.got - 2010.06.03 18:47:42.
