data_PCOD9305763
_publ_section_title
;
Structure prediction by ZEFSAII (Michael W. Deem and Ramdas Pophale) SiO2 
 PCOD9305763
Probable space group: C 2/C
;
_chemical_formula_sum "Si O2"
_cell_formula_units_Z 52
_cell_length_a 14.430312
_cell_length_b 11.549321
_cell_length_c 14.629431
_cell_angle_alpha 90.000000
_cell_angle_beta 110.413734
_cell_angle_gamma 90.000000
_cell_volume 2285.026025
_symmetry_space_group_name_H-M "C 2/C"
_symmetry_group_IT_number 15
_symmetry_cell_setting 'monoclinic'
loop_
_space_group_symop_operation_xyz
x,y,z
-x,y,1/2-z
-x,-y,-z
x,-y,1/2+z
1/2+x,1/2+y,z
1/2-x,1/2+y,1/2-z
1/2-x,1/2-y,-z
1/2+x,1/2-y,1/2+z
loop_
_atom_site_type_symbol
_atom_site_label
_atom_site_fract_x
_atom_site_fract_y
_atom_site_fract_z
Si Si1 0.089861 0.033619 0.096759
Si Si2 0.041493 0.683977 0.171621
Si Si3 0.140479 0.742694 0.505325
Si Si4 0.000000 0.896436 0.750000
Si Si5 0.166464 0.493003 0.109462
Si Si6 0.215317 0.153131 0.705500
Si Si7 0.807432 0.819328 0.598825
O O1 0.130609 0.157410 0.078025
O O2 0.064426 0.035646 0.196543
O O3 0.167323 0.929728 0.112840
O O4 0.000000 0.000000 0.000000
O O5 0.090028 0.589041 0.120554
O O6 0.127834 0.775746 0.224062
O O7 0.000000 0.628188 0.250000
O O8 0.951390 0.754506 0.095264
O O9 0.250000 0.750000 0.500000
O O10 0.124325 0.613148 0.537656
O O11 0.074833 0.831571 0.846758
O O12 0.218868 0.429410 0.211256
O O13 0.253314 0.557307 0.084105
O O14 0.279658 0.251281 0.681166
O O15 0.750000 0.750000 0.500000
#
# Coordination Sequence:
#
# PCOD9305763 Si02
#       7
#     8   8   8   4   8   8   8
#     4  12  26  47  76 113 148 201 254 319 379 464
#     4  11  26  47  73 105 144 195 243 310 377 453
#     4  12  28  47  75 107 150 195 253 306 386 462
#     4  12  26  46  78 112 152 204 256 316 394 456
#     4  11  26  47  72 105 147 193 247 314 381 456
#     4  11  24  47  70 102 147 183 251 297 377 452
#     4  11  26  46  74 107 150 198 252 322 387 464
#
# _framework density 22.756854000000001
#
# number of rings (size 3 to 8) (size 9 to 14) (size 15 to 20)
#    0.000    0.615    3.077    3.231   11.846    0.000 
#    8.308    0.000    0.000    0.000    0.000    0.000 
#    0.000    0.000    0.000    0.000    0.000    0.000 
#
# Total GULP energy -145268.292857 kJ/mol
# GULP energy per Si atom -5587.242033 kJ/mol
# Density = 2.270506 g / cm^3
# Si number density = 22.756854 Si / 1000 Ang^3
#
#
#
# Elastic Constant Matrix: (Units=GPa)
#
#
# Indices 1 2 3 4 5 6 
#
# 1 99.6149 24.6239 16.7640 0.0000 5.0071 0.0000
# 2 24.6239 97.4267 -1.3059 0.0000 -7.8233 0.0000
# 3 16.7640 -1.3059 60.8532 0.0000 6.5809 0.0000
# 4 0.0000 0.0000 0.0000 32.6861 0.0000 16.2317
# 5 5.0071 -7.8233 6.5809 0.0000 40.0526 0.0000
# 6 0.0000 0.0000 0.0000 16.2317 0.0000 16.6907
#
#
#
# Elastic Compliance Matrix: (Units=1/GPa)
#
#
# Indices 1 2 3 4 5 6 
#
# 1 0.011377 -0.003038 -0.003035 0.000000 -0.001517 0.000000
# 2 -0.003038 0.011239 0.000814 0.000000 0.002441 0.000000
# 3 -0.003035 0.000814 0.017540 0.000000 -0.002344 0.000000
# 4 0.000000 0.000000 0.000000 0.059169 0.000000 -0.057542
# 5 -0.001517 0.002441 -0.002344 0.000000 0.026019 0.000000
# 6 0.000000 0.000000 0.000000 -0.057542 0.000000 0.115874
#
#
# Mechanical properties :
#
#
# Convention : Reuss Voigt Hill
#
# Bulk Modulus (GPa) = 33.74105 37.56210 35.65158
# Shear Modulus (GPa) = 19.11212 32.40672 25.75942
#
# Velocity S-wave (km/s) = 2.90114 3.77774 3.36808
# Velocity P-wave (km/s) = 5.10697 5.96407 5.55208
#
# Compressibility (1/GPa) = 0.02963749
#
# Stress axis : x y z
#
# Youngs Moduli (GPa) = 87.89950 88.97696 57.01243
#
# Poissons Ratio (x) = 0.27030 0.17305
# Poissons Ratio (y) = 0.26703 -0.04641
# Poissons Ratio (z) = 0.26679 -0.07243
#
# Static dielectric constant tensor:
#      x y z
#    x 1.857150 0.000000 -0.074190 
#    y 0.000000 1.763480 0.000000 
#    z -0.074190 0.000000 1.626690 
# 
# From -- ./inp_files/152699.got.cif
#   From: 2010.05.17/outbox.cif.g08.bks.cpg/sg15_77_cif.got.tgz:152699.got - 2010.06.03 18:47:42.
