data_PCOD9305304
_publ_section_title
;
Structure prediction by ZEFSAII (Michael W. Deem and Ramdas Pophale) SiO2 
 PCOD9305304
Probable space group: C 2/C
;
_chemical_formula_sum "Si O2"
_cell_formula_units_Z 44
_cell_length_a 11.906103
_cell_length_b 7.511770
_cell_length_c 32.810833
_cell_angle_alpha 90.000000
_cell_angle_beta 38.895418
_cell_angle_gamma 90.000000
_cell_volume 1842.553993
_symmetry_space_group_name_H-M "C 2/C"
_symmetry_group_IT_number 15
_symmetry_cell_setting 'monoclinic'
loop_
_space_group_symop_operation_xyz
x,y,z
-x,y,1/2-z
-x,-y,-z
x,-y,1/2+z
1/2+x,1/2+y,z
1/2-x,1/2+y,1/2-z
1/2-x,1/2-y,-z
1/2+x,1/2-y,1/2+z
loop_
_atom_site_type_symbol
_atom_site_label
_atom_site_fract_x
_atom_site_fract_y
_atom_site_fract_z
Si Si1 0.426334 0.719515 0.717267
Si Si2 0.500000 0.013486 0.750000
Si Si3 0.035739 0.310896 0.510928
Si Si4 0.724221 0.192281 0.553857
Si Si5 0.061276 0.308130 0.594107
Si Si6 0.048230 0.818711 0.804886
O O1 0.565860 0.853521 0.699585
O O2 0.442877 0.742349 0.664165
O O3 0.227360 0.793469 0.781559
O O4 0.446740 0.510273 0.718649
O O5 0.546329 0.157500 0.772733
O O6 0.923410 0.176801 0.515224
O O7 0.000000 0.500000 0.500000
O O8 0.971694 0.287509 0.575550
O O9 0.247751 0.288712 0.455568
O O10 0.750000 0.250000 0.500000
O O11 0.616931 0.313227 0.616709
O O12 0.611209 0.013143 0.585092
#
# Coordination Sequence:
#
# PCOD9305304 Si02
#       6
#     8   4   8   8   8   8
#     4  12  26  50  78 109 153 196 250 320 373 462
#     4  12  26  50  74 108 144 200 248 306 392 428
#     4  11  24  44  68 104 146 198 246 306 365 443
#     4  12  25  47  74 109 151 199 250 308 376 446
#     4  11  25  46  70 107 147 194 254 303 375 443
#     4  12  27  50  74 114 151 196 252 311 379 454
#
# _framework density 23.879898000000001
#
# number of rings (size 3 to 8) (size 9 to 14) (size 15 to 20)
#    0.000    0.364    5.455    2.182    5.091    1.455 
#    6.545    0.000    0.000    0.000    0.000    0.000 
#    0.000    0.000    0.000    0.000    0.000    0.000 
#
# Total GULP energy -122694.578616 kJ/mol
# GULP energy per Si atom -5577.026301 kJ/mol
# Density = 2.382555 g / cm^3
# Si number density = 23.879898 Si / 1000 Ang^3
#
#
#
# Elastic Constant Matrix: (Units=GPa)
#
#
# Indices 1 2 3 4 5 6 
#
# 1 149.0564 35.4092 46.3241 -0.0068 33.2897 -0.0046
# 2 35.4092 164.0870 24.8602 -0.0298 6.8312 -0.0153
# 3 46.3241 24.8602 90.6327 -0.0832 17.8506 -0.0501
# 4 -0.0068 -0.0298 -0.0832 22.9856 -0.0089 -6.1944
# 5 33.2897 6.8312 17.8506 -0.0089 34.6281 -0.0062
# 6 -0.0046 -0.0153 -0.0501 -6.1944 -0.0062 11.8212
#
#
#
# Elastic Compliance Matrix: (Units=1/GPa)
#
#
# Indices 1 2 3 4 5 6 
#
# 1 0.009639 -0.001300 -0.003111 -0.000020 -0.007406 -0.000025
# 2 -0.001300 0.006539 -0.001248 0.000005 0.000603 0.000006
# 3 -0.003111 -0.001248 0.013722 0.000070 -0.003836 0.000090
# 4 -0.000020 0.000005 0.000070 0.050660 0.000000 0.026546
# 5 -0.007406 0.000603 -0.003836 0.000000 0.037856 0.000001
# 6 -0.000025 0.000006 0.000090 0.026546 0.000001 0.098505
#
#
# Mechanical properties :
#
#
# Convention : Reuss Voigt Hill
#
# Bulk Modulus (GPa) = 53.81974 68.55145 61.18559
# Shear Modulus (GPa) = 21.32812 33.69916 27.51364
#
# Velocity S-wave (km/s) = 2.99179 3.76066 3.39804
# Velocity P-wave (km/s) = 5.87546 6.90115 6.40886
#
# Compressibility (1/GPa) = 0.01858054
#
# Stress axis : x y z
#
# Youngs Moduli (GPa) = 103.74885 152.93191 72.87711
#
# Poissons Ratio (x) = 0.19886 0.22674
# Poissons Ratio (y) = 0.13490 0.09094
# Poissons Ratio (z) = 0.32279 0.19083
#
# Static dielectric constant tensor:
#      x y z
#    x 327.225050 0.089500 72.358360 
#    y 0.089500 1.971960 0.019900 
#    z 72.358360 0.019900 18.067300 
# 
# From -- ./inp_files/309845.got.cif
#   From: 2010.05.17/outbox.cif.g08.bks.cpg/sg15_155_cif.got.tgz:309845.got - 2010.06.03 18:47:42.
