data_PCOD9305954
_publ_section_title
;
Structure prediction by ZEFSAII (Michael W. Deem and Ramdas Pophale) SiO2 
 PCOD9305954
Probable space group: C 2/C
;
_chemical_formula_sum "Si O2"
_cell_formula_units_Z 40
_cell_length_a 23.465266
_cell_length_b 7.523904
_cell_length_c 13.982873
_cell_angle_alpha 90.000000
_cell_angle_beta 141.296169
_cell_angle_gamma 90.000000
_cell_volume 1543.654074
_symmetry_space_group_name_H-M "C 2/C"
_symmetry_group_IT_number 15
_symmetry_cell_setting 'monoclinic'
loop_
_space_group_symop_operation_xyz
x,y,z
-x,y,1/2-z
-x,-y,-z
x,-y,1/2+z
1/2+x,1/2+y,z
1/2-x,1/2+y,1/2-z
1/2-x,1/2-y,-z
1/2+x,1/2-y,1/2+z
loop_
_atom_site_type_symbol
_atom_site_label
_atom_site_fract_x
_atom_site_fract_y
_atom_site_fract_z
Si Si1 0.779917 0.208397 0.410702
Si Si2 0.605300 0.620318 0.108254
Si Si3 0.421189 0.772635 0.903714
Si Si4 0.841857 0.140422 0.103850
Si Si5 0.088078 0.528719 0.915367
O O1 0.806977 0.185632 0.334224
O O2 0.671070 0.198884 0.277154
O O3 0.675949 0.453381 0.472263
O O4 0.826113 0.398748 0.491545
O O5 0.592550 0.417040 0.062481
O O6 0.617109 0.617563 0.237174
O O7 0.514583 0.734273 0.969340
O O8 0.425451 0.921264 0.990951
O O9 0.899317 0.281794 0.119347
O O10 0.750000 0.250000 0.000000
O O11 0.000000 0.443775 0.750000
#
# Coordination Sequence:
#
# PCOD9305954 Si02
#       5
#     8   8   8   8   8
#     4  12  28  50  81 118 157 210 276 329 397 483
#     4  11  26  47  82 111 159 215 260 333 402 476
#     4  11  24  49  77 112 158 208 269 328 399 472
#     4  12  27  50  78 114 159 210 265 332 405 474
#     4  12  27  49  76 113 162 208 266 332 396 485
#
# _framework density 25.912542999999999
#
# number of rings (size 3 to 8) (size 9 to 14) (size 15 to 20)
#    0.000    0.400    4.000    3.600    2.800    9.600 
#    0.000    0.000    0.000    0.000    0.000    0.000 
#    0.000    0.000    0.000    0.000    0.000    0.000 
#
# Total GULP energy -112093.559806 kJ/mol
# GULP energy per Si atom -5604.677990 kJ/mol
# Density = 2.585356 g / cm^3
# Si number density = 25.912543 Si / 1000 Ang^3
#
#
#
# Elastic Constant Matrix: (Units=GPa)
#
#
# Indices 1 2 3 4 5 6 
#
# 1 20.4577 39.9291 -3.5494 0.0000 -15.3543 0.0000
# 2 39.9291 177.3417 63.5932 0.0000 -17.2311 0.0000
# 3 -3.5494 63.5932 122.5519 0.0000 2.6199 0.0000
# 4 0.0000 0.0000 0.0000 13.7116 0.0000 -9.2862
# 5 -15.3543 -17.2311 2.6199 0.0000 41.2186 0.0000
# 6 0.0000 0.0000 0.0000 -9.2862 0.0000 44.7768
#
#
#
# Elastic Compliance Matrix: (Units=1/GPa)
#
#
# Indices 1 2 3 4 5 6 
#
# 1 0.174230 -0.044690 0.027285 0.000000 0.044486 0.000000
# 2 -0.044690 0.018819 -0.010887 0.000000 -0.008088 0.000000
# 3 0.027285 -0.010887 0.014499 0.000000 0.004691 0.000000
# 4 0.000000 0.000000 0.000000 0.084848 0.000000 0.017597
# 5 0.044486 -0.008088 0.004691 0.000000 0.037153 0.000000
# 6 0.000000 0.000000 0.000000 0.017597 0.000000 0.025982
#
#
# Mechanical properties :
#
#
# Convention : Reuss Voigt Hill
#
# Bulk Modulus (GPa) = 6.62410 57.81079 32.21744
# Shear Modulus (GPa) = 10.81230 34.63327 22.72279
#
# Velocity S-wave (km/s) = 2.04491 3.65984 2.96447
# Velocity P-wave (km/s) = 2.85262 6.34174 4.91707
#
# Compressibility (1/GPa) = 0.15096395
#
# Stress axis : x y z
#
# Youngs Moduli (GPa) = 5.73955 53.13781 68.97045
#
# Poissons Ratio (x) = 2.37474 -1.88187
# Poissons Ratio (y) = 0.25650 0.75086
# Poissons Ratio (z) = -0.15660 0.57850
#
# Static dielectric constant tensor:
#      x y z
#    x 2.125330 0.000000 -0.135770 
#    y 0.000000 2.003790 0.000000 
#    z -0.135770 0.000000 2.259430 
# 
# From -- ./inp_files/172137.got.cif
#   From: 2010.05.17/outbox.cif.g08.bks.cpg/sg15_87_cif.got.tgz:172137.got - 2010.06.03 18:47:42.
