data_PCOD9305441
_publ_section_title
;
Structure prediction by ZEFSAII (Michael W. Deem and Ramdas Pophale) SiO2 
 PCOD9305441
Probable space group: C 2/C
;
_chemical_formula_sum "Si O2"
_cell_formula_units_Z 32
_cell_length_a 9.654156
_cell_length_b 9.873749
_cell_length_c 16.704661
_cell_angle_alpha 90.000000
_cell_angle_beta 75.120834
_cell_angle_gamma 90.000000
_cell_volume 1538.941890
_symmetry_space_group_name_H-M "C 2/C"
_symmetry_group_IT_number 15
_symmetry_cell_setting 'monoclinic'
loop_
_space_group_symop_operation_xyz
x,y,z
-x,y,1/2-z
-x,-y,-z
x,-y,1/2+z
1/2+x,1/2+y,z
1/2-x,1/2+y,1/2-z
1/2-x,1/2-y,-z
1/2+x,1/2-y,1/2+z
loop_
_atom_site_type_symbol
_atom_site_label
_atom_site_fract_x
_atom_site_fract_y
_atom_site_fract_z
Si Si1 0.875974 0.409038 0.056932
Si Si2 0.658033 0.965653 0.763638
Si Si3 0.392726 0.335713 0.194852
Si Si4 0.578308 0.365487 0.014525
O O1 0.838793 0.468460 0.148746
O O2 0.736845 0.404296 0.020569
O O3 0.921152 0.251456 0.052051
O O4 0.000000 0.500000 0.000000
O O5 0.500000 0.982758 0.750000
O O6 0.777611 0.046912 0.696660
O O7 0.681614 0.804687 0.767663
O O8 0.500000 0.378614 0.250000
O O9 0.490844 0.306937 0.103449
O O10 0.500000 0.500000 0.000000
#
# Coordination Sequence:
#
# PCOD9305441 Si02
#       4
#     8   8   8   8
#     4  11  24  46  63  96 135 168 211 274 321 380
#     4  11  26  42  68  94 132 171 218 268 324 384
#     4  11  24  45  63  95 131 173 213 267 325 380
#     4  11  26  41  70  95 131 174 217 262 326 387
#
# _framework density 20.793507999999999
#
# number of rings (size 3 to 8) (size 9 to 14) (size 15 to 20)
#    0.000    1.000    5.000    0.000    7.000    4.000 
#    0.000    0.000    0.000    0.000    0.000    0.000 
#    0.000    0.000    0.000    0.000    0.000    0.000 
#
# Total GULP energy -89491.693287 kJ/mol
# GULP energy per Si atom -5593.230830 kJ/mol
# Density = 2.074618 g / cm^3
# Si number density = 20.793508 Si / 1000 Ang^3
#
#
#
# Elastic Constant Matrix: (Units=GPa)
#
#
# Indices 1 2 3 4 5 6 
#
# 1 75.1143 69.5925 -3.9396 0.0000 -16.5088 0.0000
# 2 69.5925 128.1446 -15.5207 0.0000 -1.1824 0.0000
# 3 -3.9396 -15.5207 25.2800 0.0000 -8.7813 0.0000
# 4 0.0000 0.0000 0.0000 34.9385 0.0000 -7.8178
# 5 -16.5088 -1.1824 -8.7813 0.0000 31.5464 0.0000
# 6 0.0000 0.0000 0.0000 -7.8178 0.0000 34.4935
#
#
#
# Elastic Compliance Matrix: (Units=1/GPa)
#
#
# Indices 1 2 3 4 5 6 
#
# 1 0.034087 -0.018353 0.000002 0.000000 0.017151 0.000000
# 2 -0.018353 0.018422 0.005926 0.000000 -0.007264 0.000000
# 3 0.000002 0.005926 0.047905 0.000000 0.013558 0.000000
# 4 0.000000 0.000000 0.000000 0.030151 0.000000 0.006834
# 5 0.017151 -0.007264 0.013558 0.000000 0.044176 0.000000
# 6 0.000000 0.000000 0.000000 0.006834 0.000000 0.030540
#
#
# Mechanical properties :
#
#
# Convention : Reuss Voigt Hill
#
# Bulk Modulus (GPa) = 13.23396 36.53369 24.88383
# Shear Modulus (GPa) = 19.58339 32.08947 25.83643
#
# Velocity S-wave (km/s) = 3.07221 3.93268 3.52877
# Velocity P-wave (km/s) = 4.35464 6.18297 5.34753
#
# Compressibility (1/GPa) = 0.07556316
#
# Stress axis : x y z
#
# Youngs Moduli (GPa) = 29.33706 54.28388 20.87451
#
# Poissons Ratio (x) = 0.99628 -0.00003
# Poissons Ratio (y) = 0.53843 -0.12371
# Poissons Ratio (z) = -0.00004 -0.32171
#
# Static dielectric constant tensor:
#      x y z
#    x 1.725240 0.000000 -0.049630 
#    y 0.000000 1.734690 0.000000 
#    z -0.049630 0.000000 1.779060 
# 
# From -- ./inp_files/131984.got.cif
#   From: 2010.05.17/outbox.cif.g08.bks.cpg/sg15_66_cif.got.tgz:131984.got - 2010.06.03 18:47:42.
