data_PCOD9305601
_publ_section_title
;
Structure prediction by ZEFSAII (Michael W. Deem and Ramdas Pophale) SiO2 
 PCOD9305601
Probable space group: C 2/C
;
_chemical_formula_sum "Si O2"
_cell_formula_units_Z 48
_cell_length_a 17.418467
_cell_length_b 13.153407
_cell_length_c 11.690363
_cell_angle_alpha 90.000000
_cell_angle_beta 132.803519
_cell_angle_gamma 90.000000
_cell_volume 1965.113685
_symmetry_space_group_name_H-M "C 2/C"
_symmetry_group_IT_number 15
_symmetry_cell_setting 'monoclinic'
loop_
_space_group_symop_operation_xyz
x,y,z
-x,y,1/2-z
-x,-y,-z
x,-y,1/2+z
1/2+x,1/2+y,z
1/2-x,1/2+y,1/2-z
1/2-x,1/2-y,-z
1/2+x,1/2-y,1/2+z
loop_
_atom_site_type_symbol
_atom_site_label
_atom_site_fract_x
_atom_site_fract_y
_atom_site_fract_z
Si Si1 0.839305 0.329641 0.135486
Si Si2 0.462930 0.397950 0.400642
Si Si3 0.538408 0.195331 0.971891
Si Si4 0.737505 0.113780 0.588318
Si Si5 0.311366 0.337532 0.923245
Si Si6 0.841152 0.521016 0.309556
O O1 0.902434 0.342032 0.081498
O O2 0.822195 0.438215 0.186556
O O3 0.920793 0.282698 0.309304
O O4 0.750000 0.250000 0.000000
O O5 0.500000 0.500000 0.500000
O O6 0.428264 0.305279 0.448332
O O7 0.357747 0.419665 0.225318
O O8 0.565465 0.355927 0.438233
O O9 0.565391 0.105163 0.090271
O O10 0.714830 0.221729 0.623212
O O11 0.734474 0.133950 0.451125
O O12 0.658030 0.041679 0.571823
O O13 0.264511 0.412488 0.783132
#
# Coordination Sequence:
#
# PCOD9305601 Si02
#       6
#     8   8   8   8   8   8
#     4  11  26  45  72 108 147 195 251 315 381 463
#     4  12  24  44  71 105 147 196 245 315 381 454
#     4  11  26  46  71 110 144 195 258 308 381 461
#     4  11  24  46  68 104 145 191 249 307 373 451
#     4  11  25  42  70 102 141 190 245 304 371 456
#     4  12  23  46  76 101 149 195 246 314 386 443
#
# _framework density 24.426067
#
# number of rings (size 3 to 8) (size 9 to 14) (size 15 to 20)
#    0.000    0.667    3.333    4.000    2.333    1.333 
#    3.000    1.667    0.000    0.000    0.000    0.000 
#    0.000    0.000    0.000    0.000    0.000    0.000 
#
# Total GULP energy -133712.647568 kJ/mol
# GULP energy per Si atom -5571.360315 kJ/mol
# Density = 2.437047 g / cm^3
# Si number density = 24.426067 Si / 1000 Ang^3
#
#
#
# Elastic Constant Matrix: (Units=GPa)
#
#
# Indices 1 2 3 4 5 6 
#
# 1 96.1063 30.1468 16.8214 0.0000 0.7340 0.0000
# 2 30.1468 158.5347 43.0323 0.0000 -8.2781 0.0000
# 3 16.8214 43.0323 119.1082 0.0000 18.5826 0.0000
# 4 0.0000 0.0000 0.0000 44.8827 0.0000 9.2487
# 5 0.7340 -8.2781 18.5826 0.0000 33.2045 0.0000
# 6 0.0000 0.0000 0.0000 9.2487 0.0000 24.6699
#
#
#
# Elastic Compliance Matrix: (Units=1/GPa)
#
#
# Indices 1 2 3 4 5 6 
#
# 1 0.011153 -0.001903 -0.000849 0.000000 -0.000246 0.000000
# 2 -0.001903 0.007701 -0.003089 0.000000 0.003691 0.000000
# 3 -0.000849 -0.003089 0.010682 0.000000 -0.006729 0.000000
# 4 0.000000 0.000000 0.000000 0.024146 0.000000 -0.009052
# 5 -0.000246 0.003691 -0.006729 0.000000 0.034808 0.000000
# 6 0.000000 0.000000 0.000000 -0.009052 0.000000 0.043929
#
#
# Mechanical properties :
#
#
# Convention : Reuss Voigt Hill
#
# Bulk Modulus (GPa) = 56.01591 61.52779 58.77185
# Shear Modulus (GPa) = 33.32193 39.46802 36.39497
#
# Velocity S-wave (km/s) = 3.69751 4.02408 3.86425
# Velocity P-wave (km/s) = 6.41961 6.84361 6.63500
#
# Compressibility (1/GPa) = 0.01785207
#
# Stress axis : x y z
#
# Youngs Moduli (GPa) = 89.66509 129.85431 93.61857
#
# Poissons Ratio (x) = 0.24713 0.07950
# Poissons Ratio (y) = 0.17064 0.28922
# Poissons Ratio (z) = 0.07614 0.40116
#
# Static dielectric constant tensor:
#      x y z
#    x 2.013500 0.000000 -0.032230 
#    y 0.000000 2.015030 0.000000 
#    z -0.032230 0.000000 2.034740 
# 
# From -- ./inp_files/167934.got.cif
#   From: 2010.05.17/outbox.cif.g08.bks.cpg/sg15_84_cif.got.tgz:167934.got - 2010.06.03 18:47:42.
