data_PCOD9305034
_publ_section_title
;
Structure prediction by ZEFSAII (Michael W. Deem and Ramdas Pophale) SiO2 
 PCOD9305034
Probable space group: C 2/C
;
_chemical_formula_sum "Si O2"
_cell_formula_units_Z 56
_cell_length_a 16.093791
_cell_length_b 17.750327
_cell_length_c 12.085081
_cell_angle_alpha 90.000000
_cell_angle_beta 129.407906
_cell_angle_gamma 90.000000
_cell_volume 2667.441057
_symmetry_space_group_name_H-M "C 2/C"
_symmetry_group_IT_number 15
_symmetry_cell_setting 'monoclinic'
loop_
_space_group_symop_operation_xyz
x,y,z
-x,y,1/2-z
-x,-y,-z
x,-y,1/2+z
1/2+x,1/2+y,z
1/2-x,1/2+y,1/2-z
1/2-x,1/2-y,-z
1/2+x,1/2-y,1/2+z
loop_
_atom_site_type_symbol
_atom_site_label
_atom_site_fract_x
_atom_site_fract_y
_atom_site_fract_z
Si Si1 0.219475 0.243103 0.228005
Si Si2 0.250000 0.250000 0.000000
Si Si3 0.876880 0.124024 0.181607
Si Si4 0.779784 0.400527 0.155263
Si Si5 0.728035 0.012025 0.160707
Si Si6 0.406783 0.111881 0.085582
Si Si7 0.000000 0.627808 0.750000
Si Si8 0.075252 0.658666 0.045856
O O1 0.199624 0.231788 0.081786
O O2 0.154436 0.189696 0.257751
O O3 0.206878 0.328702 0.254569
O O4 0.345389 0.223810 0.350066
O O5 0.329837 0.174841 0.074254
O O6 0.000000 0.126369 0.250000
O O7 0.837686 0.046384 0.205438
O O8 0.800826 0.125140 0.008996
O O9 0.748119 0.470548 0.203972
O O10 0.896353 0.417602 0.202164
O O11 0.645976 0.081839 0.105835
O O12 0.668713 0.953521 0.028706
O O13 0.500000 0.086885 0.250000
O O14 0.476944 0.145781 0.044001
O O15 0.961153 0.673592 0.610540
#
# Coordination Sequence:
#
# PCOD9305034 Si02
#       8
#     8   4   8   8   8   8   4   8
#     4  11  24  47  68 108 141 191 249 294 365 445
#     4  12  24  46  68 106 146 188 238 294 366 448
#     4  11  28  49  72 102 147 197 241 307 366 445
#     4  12  25  42  73 105 141 189 242 303 368 434
#     4  11  25  44  69 109 139 181 249 290 366 444
#     4  12  25  41  71 102 145 186 231 300 363 423
#     4  12  22  40  68 110 136 176 230 296 376 400
#     4  11  24  41  69 108 140 185 234 302 370 423
#
# _framework density 20.993905000000002
#
# number of rings (size 3 to 8) (size 9 to 14) (size 15 to 20)
#    0.000    0.571    7.143    0.857    4.000    1.714 
#    0.000    2.143    0.000    0.000    0.000    0.000 
#    0.000    0.000    0.000    0.000    0.000    0.000 
#
# Total GULP energy -156005.255604 kJ/mol
# GULP energy per Si atom -5571.616272 kJ/mol
# Density = 2.094612 g / cm^3
# Si number density = 20.993905 Si / 1000 Ang^3
#
#
#
# Elastic Constant Matrix: (Units=GPa)
#
#
# Indices 1 2 3 4 5 6 
#
# 1 142.3759 49.9240 30.1455 0.0000 -7.0874 0.0000
# 2 49.9240 74.5990 17.2167 0.0000 0.9608 0.0000
# 3 30.1455 17.2167 89.0671 0.0000 -13.6484 0.0000
# 4 0.0000 0.0000 0.0000 27.5248 0.0000 -2.1007
# 5 -7.0874 0.9608 -13.6484 0.0000 34.7802 0.0000
# 6 0.0000 0.0000 0.0000 -2.1007 0.0000 34.9273
#
#
#
# Elastic Compliance Matrix: (Units=1/GPa)
#
#
# Indices 1 2 3 4 5 6 
#
# 1 0.009596 -0.006007 -0.001874 0.000000 0.001386 0.000000
# 2 -0.006007 0.017870 -0.001792 0.000000 -0.002421 0.000000
# 3 -0.001874 -0.001792 0.012935 0.000000 0.004744 0.000000
# 4 0.000000 0.000000 0.000000 0.036498 0.000000 0.002195
# 5 0.001386 -0.002421 0.004744 0.000000 0.030963 0.000000
# 6 0.000000 0.000000 0.000000 0.002195 0.000000 0.028763
#
#
# Mechanical properties :
#
#
# Convention : Reuss Voigt Hill
#
# Bulk Modulus (GPa) = 47.49692 55.62381 51.56036
# Shear Modulus (GPa) = 30.67670 33.36350 32.02010
#
# Velocity S-wave (km/s) = 3.82674 3.99080 3.90963
# Velocity P-wave (km/s) = 6.49604 6.91289 6.70770
#
# Compressibility (1/GPa) = 0.02105400
#
# Stress axis : x y z
#
# Youngs Moduli (GPa) = 104.21125 55.95985 77.30871
#
# Poissons Ratio (x) = 0.33616 0.14490
# Poissons Ratio (y) = 0.62601 0.13854
# Poissons Ratio (z) = 0.19532 0.10029
#
# Static dielectric constant tensor:
#      x y z
#    x 1.748520 0.000000 -0.024420 
#    y 0.000000 1.740570 0.000000 
#    z -0.024420 0.000000 1.810730 
# 
# From -- ./inp_files/98857.got.cif
#   From: 2010.05.17/outbox.cif.g08.bks.cpg/sg15_50_cif.got.tgz:98857.got - 2010.06.03 18:47:42.
