data_PCOD9305080
_publ_section_title
;
Structure prediction by ZEFSAII (Michael W. Deem and Ramdas Pophale) SiO2 
 PCOD9305080
Probable space group: C 2/C
;
_chemical_formula_sum "Si O2"
_cell_formula_units_Z 56
_cell_length_a 27.595637
_cell_length_b 6.385090
_cell_length_c 17.083703
_cell_angle_alpha 90.000000
_cell_angle_beta 119.619769
_cell_angle_gamma 90.000000
_cell_volume 2616.804959
_symmetry_space_group_name_H-M "C 2/C"
_symmetry_group_IT_number 15
_symmetry_cell_setting 'monoclinic'
loop_
_space_group_symop_operation_xyz
x,y,z
-x,y,1/2-z
-x,-y,-z
x,-y,1/2+z
1/2+x,1/2+y,z
1/2-x,1/2+y,1/2-z
1/2-x,1/2-y,-z
1/2+x,1/2-y,1/2+z
loop_
_atom_site_type_symbol
_atom_site_label
_atom_site_fract_x
_atom_site_fract_y
_atom_site_fract_z
Si Si1 0.526905 0.188894 0.972832
Si Si2 0.822470 0.731504 0.886296
Si Si3 0.803782 0.184357 0.090929
Si Si4 0.113600 0.499038 0.924022
Si Si5 0.920358 0.029091 0.373515
Si Si6 0.863268 0.200848 0.688344
Si Si7 0.718725 0.982635 0.292877
O O1 0.476837 0.340330 0.907103
O O2 0.561860 0.089318 0.930420
O O3 0.566208 0.330577 0.059940
O O4 0.500000 0.000000 0.000000
O O5 0.875136 0.825639 0.881122
O O6 0.778324 0.919176 0.862205
O O7 0.790249 0.566583 0.805017
O O8 0.845532 0.616999 0.981412
O O9 0.854311 0.311233 0.092186
O O10 0.792634 0.270274 0.168939
O O11 0.819018 0.942410 0.106622
O O12 0.750000 0.250000 0.000000
O O13 0.101279 0.331874 0.845853
O O14 0.897979 0.947196 0.273096
O O15 0.828095 0.357669 0.714289
#
# Coordination Sequence:
#
# PCOD9305080 Si02
#       7
#     8   8   8   8   8   8   8
#     4  11  25  48  74 104 130 181 241 299 344 400
#     4  12  23  43  72 104 139 186 233 287 348 416
#     4  11  24  42  67 100 145 183 223 279 348 424
#     4  11  26  42  72 100 141 183 230 286 348 413
#     4  11  25  45  77  96 141 181 238 294 349 408
#     4  11  24  47  67 103 145 186 226 285 354 424
#     4  11  25  40  66 107 140 183 229 281 343 425
#
# _framework density 21.400141999999999
#
# number of rings (size 3 to 8) (size 9 to 14) (size 15 to 20)
#    0.000    0.857    2.857    3.429    6.000    2.286 
#    0.000    4.286    0.000    0.000    0.000    0.000 
#    0.000    0.000    0.000    0.000    0.000    0.000 
#
# Total GULP energy -156743.564175 kJ/mol
# GULP energy per Si atom -5597.984435 kJ/mol
# Density = 2.135143 g / cm^3
# Si number density = 21.400142 Si / 1000 Ang^3
#
#
#
# Elastic Constant Matrix: (Units=GPa)
#
#
# Indices 1 2 3 4 5 6 
#
# 1 107.6956 29.1968 15.6827 0.0000 -11.8127 0.0000
# 2 29.1968 79.5551 2.0921 0.0000 -9.3308 -0.0001
# 3 15.6827 2.0921 50.8291 0.0000 -3.9117 0.0000
# 4 0.0000 0.0000 0.0000 32.8513 0.0000 -5.0684
# 5 -11.8127 -9.3308 -3.9117 0.0000 28.0428 0.0000
# 6 0.0000 -0.0001 0.0000 -5.0684 0.0000 37.6776
#
#
#
# Elastic Compliance Matrix: (Units=1/GPa)
#
#
# Indices 1 2 3 4 5 6 
#
# 1 0.011038 -0.003617 -0.003024 0.000000 0.003024 0.000000
# 2 -0.003617 0.014268 0.000785 0.000000 0.003333 0.000000
# 3 -0.003024 0.000785 0.020719 0.000000 0.001877 0.000000
# 4 0.000000 0.000000 0.000000 0.031085 0.000000 0.004182
# 5 0.003024 0.003333 0.001877 0.000000 0.038305 0.000000
# 6 0.000000 0.000000 0.000000 0.004182 0.000000 0.027103
#
#
# Mechanical properties :
#
#
# Convention : Reuss Voigt Hill
#
# Bulk Modulus (GPa) = 29.14313 36.89144 33.01729
# Shear Modulus (GPa) = 30.18100 32.45489 31.31795
#
# Velocity S-wave (km/s) = 3.75949 3.89855 3.82965
# Velocity P-wave (km/s) = 5.70025 6.12709 5.91752
#
# Compressibility (1/GPa) = 0.03431340
#
# Stress axis : x y z
#
# Youngs Moduli (GPa) = 90.59568 70.08913 48.26491
#
# Poissons Ratio (x) = 0.25349 0.14596
# Poissons Ratio (y) = 0.32766 -0.03790
# Poissons Ratio (z) = 0.27397 -0.05503
#
# Static dielectric constant tensor:
#      x y z
#    x 1.763430 0.000000 -0.000450 
#    y 0.000000 1.761390 0.000000 
#    z -0.000450 0.000000 1.788020 
# 
# From -- ./inp_files/223817.got.cif
#   From: 2010.05.17/outbox.cif.g08.bks.cpg/sg15_112_cif.got.tgz:223817.got - 2010.06.03 18:47:42.
