data_PCOD9305015
_publ_section_title
;
Structure prediction by ZEFSAII (Michael W. Deem and Ramdas Pophale) SiO2 
 PCOD9305015
Probable space group: C 2/C
;
_chemical_formula_sum "Si O2"
_cell_formula_units_Z 44
_cell_length_a 22.784820
_cell_length_b 8.858161
_cell_length_c 28.103167
_cell_angle_alpha 90.000000
_cell_angle_beta 158.569519
_cell_angle_gamma 90.000000
_cell_volume 2072.429453
_symmetry_space_group_name_H-M "C 2/C"
_symmetry_group_IT_number 15
_symmetry_cell_setting 'monoclinic'
loop_
_space_group_symop_operation_xyz
x,y,z
-x,y,1/2-z
-x,-y,-z
x,-y,1/2+z
1/2+x,1/2+y,z
1/2-x,1/2+y,1/2-z
1/2-x,1/2-y,-z
1/2+x,1/2-y,1/2+z
loop_
_atom_site_type_symbol
_atom_site_label
_atom_site_fract_x
_atom_site_fract_y
_atom_site_fract_z
Si Si1 0.331735 0.490792 0.495876
Si Si2 0.831494 0.566073 0.856926
Si Si3 0.391971 0.540060 0.225939
Si Si4 0.419849 0.406926 0.896973
Si Si5 0.500000 0.820747 0.250000
Si Si6 0.315004 0.722840 0.602303
O O1 0.438861 0.508329 0.623736
O O2 0.442645 0.403164 0.541117
O O3 0.161019 0.416710 0.381353
O O4 0.291592 0.659705 0.447268
O O5 0.722639 0.507951 0.818104
O O6 0.736711 0.495294 0.740639
O O7 0.861135 0.742418 0.869202
O O8 0.000000 0.500000 0.000000
O O9 0.431589 0.709231 0.239445
O O10 0.319307 0.444863 0.127259
O O11 0.500000 0.500000 0.000000
O O12 0.500000 0.770624 0.750000
O O13 0.250000 0.750000 0.500000
#
# Coordination Sequence:
#
# PCOD9305015 Si02
#       6
#     8   8   8   8   4   8
#     4  11  24  41  66  96 134 173 220 276 333 399
#     4  11  24  45  69  96 134 179 226 285 341 402
#     4  11  24  43  64  96 135 170 223 275 330 403
#     4  11  24  45  68 100 133 176 233 281 340 404
#     4  12  22  40  64  98 134 174 216 272 340 400
#     4  12  22  42  65  94 134 174 220 266 325 403
#
# _framework density 21.231120000000001
#
# number of rings (size 3 to 8) (size 9 to 14) (size 15 to 20)
#    0.000    0.727    3.636    3.818    0.000    2.909 
#    3.273    0.000    0.000    0.000    0.000    0.000 
#    0.000    0.000    0.000    0.000    0.000    0.000 
#
# Total GULP energy -122532.320593 kJ/mol
# GULP energy per Si atom -5569.650936 kJ/mol
# Density = 2.118280 g / cm^3
# Si number density = 21.231120 Si / 1000 Ang^3
#
#
#
# Elastic Constant Matrix: (Units=GPa)
#
#
# Indices 1 2 3 4 5 6 
#
# 1 97.0997 38.1837 55.8719 0.0007 -9.4139 0.0000
# 2 38.1837 112.6661 77.7408 0.0019 2.1867 0.0002
# 3 55.8719 77.7408 202.4513 0.0075 -15.0538 0.0012
# 4 0.0007 0.0019 0.0075 37.5342 0.0008 -2.6101
# 5 -9.4139 2.1867 -15.0538 0.0008 39.8133 -0.0001
# 6 0.0000 0.0002 0.0012 -2.6101 -0.0001 26.2922
#
#
#
# Elastic Compliance Matrix: (Units=1/GPa)
#
#
# Indices 1 2 3 4 5 6 
#
# 1 0.012977 -0.002848 -0.002313 0.000000 0.002350 0.000000
# 2 -0.002848 0.012944 -0.004412 0.000000 -0.003052 0.000000
# 3 -0.002313 -0.004412 0.007459 -0.000001 0.002516 0.000000
# 4 0.000000 0.000000 -0.000001 0.026828 -0.000001 0.002663
# 5 0.002350 -0.003052 0.002516 -0.000001 0.026792 0.000000
# 6 0.000000 0.000000 0.000000 0.002663 0.000000 0.038298
#
#
# Mechanical properties :
#
#
# Convention : Reuss Voigt Hill
#
# Bulk Modulus (GPa) = 70.24643 83.97886 77.11265
# Shear Modulus (GPa) = 33.51464 36.75599 35.13532
#
# Velocity S-wave (km/s) = 3.97742 4.16532 4.07246
# Velocity P-wave (km/s) = 7.36557 7.92298 7.64935
#
# Compressibility (1/GPa) = 0.01423560
#
# Stress axis : x y z
#
# Youngs Moduli (GPa) = 77.05697 77.25480 134.06691
#
# Poissons Ratio (x) = 0.21999 0.31013
# Poissons Ratio (y) = 0.21943 0.59145
# Poissons Ratio (z) = 0.17825 0.34082
#
# Static dielectric constant tensor:
#      x y z
#    x 1.835370 -0.000020 -0.003410 
#    y -0.000020 1.844710 -0.000010 
#    z -0.003410 -0.000010 1.741730 
# 
# From -- ./inp_files/318570.got.cif
#   From: 2010.05.17/outbox.cif.g08.bks.cpg/sg15_160_cif.got.tgz:318570.got - 2010.06.03 18:47:42.
