data_PCOD9305380
_publ_section_title
;
Structure prediction by ZEFSAII (Michael W. Deem and Ramdas Pophale) SiO2 
 PCOD9305380
Probable space group: C 2/C
;
_chemical_formula_sum "Si O2"
_cell_formula_units_Z 56
_cell_length_a 8.108523
_cell_length_b 12.993578
_cell_length_c 25.257988
_cell_angle_alpha 90.000000
_cell_angle_beta 122.945634
_cell_angle_gamma 90.000000
_cell_volume 2233.201960
_symmetry_space_group_name_H-M "C 2/C"
_symmetry_group_IT_number 15
_symmetry_cell_setting 'monoclinic'
loop_
_space_group_symop_operation_xyz
x,y,z
-x,y,1/2-z
-x,-y,-z
x,-y,1/2+z
1/2+x,1/2+y,z
1/2-x,1/2+y,1/2-z
1/2-x,1/2-y,-z
1/2+x,1/2-y,1/2+z
loop_
_atom_site_type_symbol
_atom_site_label
_atom_site_fract_x
_atom_site_fract_y
_atom_site_fract_z
Si Si1 0.814633 0.927111 0.655223
Si Si2 0.555654 0.001196 0.869842
Si Si3 0.414958 0.298169 0.065942
Si Si4 0.000000 0.118563 0.750000
Si Si5 0.762378 0.171704 0.955375
Si Si6 0.194015 0.234333 0.697840
Si Si7 0.000000 0.561930 0.750000
Si Si8 0.490169 0.536832 0.075847
O O1 0.808790 0.834448 0.697356
O O2 0.926673 0.906924 0.619528
O O3 0.579036 0.946273 0.610166
O O4 0.904745 0.035421 0.692606
O O5 0.578199 0.115677 0.897784
O O6 0.448870 0.999224 0.793839
O O7 0.775803 0.963305 0.894298
O O8 0.616578 0.277273 0.070043
O O9 0.473128 0.260368 0.134440
O O10 0.404722 0.421508 0.067017
O O11 0.250000 0.250000 0.000000
O O12 0.843524 0.196998 0.748967
O O13 0.750000 0.250000 0.000000
O O14 0.889394 0.084238 0.006813
O O15 0.320826 0.135188 0.701145
#
# Coordination Sequence:
#
# PCOD9305380 Si02
#       8
#     8   8   8   4   8   8   4   8
#     4  12  27  47  76 107 148 201 252 313 395 454
#     4  11  25  46  75 104 145 201 242 315 380 454
#     4  11  24  44  72 107 147 193 251 314 377 458
#     4  12  25  55  70 112 164 190 265 333 376 480
#     4  11  25  45  70 109 149 194 250 313 386 450
#     4  12  26  47  77 110 146 205 257 313 399 466
#     4  12  21  49  70  98 150 184 257 307 374 460
#     4  11  25  49  74 107 153 193 253 319 381 452
#
# _framework density 25.0761
#
# number of rings (size 3 to 8) (size 9 to 14) (size 15 to 20)
#    0.000    0.571    5.714    3.000    6.000    1.143 
#    2.571    0.000    0.000    0.000    0.000    0.000 
#    0.000    0.000    0.000    0.000    0.000    0.000 
#
# Total GULP energy -156274.268368 kJ/mol
# GULP energy per Si atom -5581.223870 kJ/mol
# Density = 2.501903 g / cm^3
# Si number density = 25.076100 Si / 1000 Ang^3
#
#
#
# Elastic Constant Matrix: (Units=GPa)
#
#
# Indices 1 2 3 4 5 6 
#
# 1 95.5422 24.1062 21.8208 0.0000 -12.6684 0.0000
# 2 24.1062 84.1911 17.4769 0.0000 -5.7945 0.0000
# 3 21.8208 17.4769 111.6275 0.0000 2.0825 0.0000
# 4 0.0000 0.0000 0.0000 52.3355 0.0000 -5.8424
# 5 -12.6684 -5.7945 2.0825 0.0000 50.8245 0.0000
# 6 0.0000 0.0000 0.0000 -5.8424 0.0000 41.7206
#
#
#
# Elastic Compliance Matrix: (Units=1/GPa)
#
#
# Indices 1 2 3 4 5 6 
#
# 1 0.011993 -0.002840 -0.001951 0.000000 0.002745 0.000000
# 2 -0.002840 0.013061 -0.001506 0.000000 0.000843 0.000000
# 3 -0.001951 -0.001506 0.009595 0.000000 -0.001051 0.000000
# 4 0.000000 0.000000 0.000000 0.019411 0.000000 0.002718
# 5 0.002745 0.000843 -0.001051 0.000000 0.020499 0.000000
# 6 0.000000 0.000000 0.000000 0.002718 0.000000 0.024350
#
#
# Mechanical properties :
#
#
# Convention : Reuss Voigt Hill
#
# Bulk Modulus (GPa) = 45.33815 46.46318 45.90067
# Shear Modulus (GPa) = 42.06853 44.17324 43.12088
#
# Velocity S-wave (km/s) = 4.10034 4.20166 4.15131
# Velocity P-wave (km/s) = 6.36683 6.48904 6.42822
#
# Compressibility (1/GPa) = 0.02205648
#
# Stress axis : x y z
#
# Youngs Moduli (GPa) = 83.38395 76.56124 104.22041
#
# Poissons Ratio (x) = 0.21743 0.20332
# Poissons Ratio (y) = 0.23680 0.15691
# Poissons Ratio (z) = 0.16267 0.11527
#
# Static dielectric constant tensor:
#      x y z
#    x 2.031830 0.000000 -0.014830 
#    y 0.000000 2.164890 0.000000 
#    z -0.014830 0.000000 2.181070 
# 
# From -- ./inp_files/264855.got.cif
#   From: 2010.05.17/outbox.cif.g08.bks.cpg/sg15_133_cif.got.tgz:264855.got - 2010.06.03 18:47:42.
