data_PCOD9305878
_publ_section_title
;
Structure prediction by ZEFSAII (Michael W. Deem and Ramdas Pophale) SiO2 
 PCOD9305878
Probable space group: C 2/C
;
_chemical_formula_sum "Si O2"
_cell_formula_units_Z 60
_cell_length_a 9.889320
_cell_length_b 18.999766
_cell_length_c 13.710773
_cell_angle_alpha 90.000000
_cell_angle_beta 76.144965
_cell_angle_gamma 90.000000
_cell_volume 2501.227708
_symmetry_space_group_name_H-M "C 2/C"
_symmetry_group_IT_number 15
_symmetry_cell_setting 'monoclinic'
loop_
_space_group_symop_operation_xyz
x,y,z
-x,y,1/2-z
-x,-y,-z
x,-y,1/2+z
1/2+x,1/2+y,z
1/2-x,1/2+y,1/2-z
1/2-x,1/2-y,-z
1/2+x,1/2-y,1/2+z
loop_
_atom_site_type_symbol
_atom_site_label
_atom_site_fract_x
_atom_site_fract_y
_atom_site_fract_z
Si Si1 0.042008 0.871761 0.355305
Si Si2 0.404790 0.274120 0.671380
Si Si3 0.585688 0.765977 0.538491
Si Si4 0.662576 0.131486 0.754069
Si Si5 0.816938 0.068134 0.199518
Si Si6 0.195782 0.498017 0.389146
Si Si7 0.000000 0.000000 0.000000
Si Si8 0.400686 0.930765 0.911081
O O1 0.988485 0.791855 0.381351
O O2 0.979596 0.921210 0.450089
O O3 0.209862 0.880145 0.341030
O O4 0.000000 0.890687 0.250000
O O5 0.500000 0.278653 0.750000
O O6 0.477154 0.249796 0.558692
O O7 0.305103 0.208822 0.710422
O O8 0.335793 0.349488 0.678346
O O9 0.750000 0.750000 0.500000
O O10 0.583019 0.847717 0.569510
O O11 0.500000 0.128448 0.750000
O O12 0.681142 0.074717 0.834668
O O13 0.662911 0.946814 0.683072
O O14 0.810490 0.044325 0.313272
O O15 0.927699 0.027935 0.114909
O O16 0.204855 0.474978 0.499632
O O17 0.051409 0.538567 0.404420
#
# Coordination Sequence:
#
# PCOD9305878 Si02
#       8
#     8   8   8   8   8   8   4   8
#     4  12  28  46  79 113 144 202 260 314 383 454
#     4  11  25  44  70 103 147 195 242 309 384 453
#     4  12  23  48  76 109 151 192 261 323 379 464
#     4  11  24  48  72 103 149 198 240 309 382 455
#     4  12  25  45  72 104 145 196 247 311 374 462
#     4  11  25  44  71 108 145 189 252 313 379 454
#     4  12  26  44  68 108 152 188 248 304 384 452
#     4  11  25  44  75 109 140 196 255 310 385 454
#
# _framework density 23.988219999999998
#
# number of rings (size 3 to 8) (size 9 to 14) (size 15 to 20)
#    0.000    0.533    5.333    2.000    3.733    1.600 
#    0.000    2.667    0.000    0.000    0.000    0.000 
#    0.000    0.000    0.000    0.000    0.000    0.000 
#
# Total GULP energy -167230.562061 kJ/mol
# GULP energy per Si atom -5574.352069 kJ/mol
# Density = 2.393362 g / cm^3
# Si number density = 23.988220 Si / 1000 Ang^3
#
#
#
# Elastic Constant Matrix: (Units=GPa)
#
#
# Indices 1 2 3 4 5 6 
#
# 1 105.5176 9.7435 30.9338 0.0000 -3.0402 0.0000
# 2 9.7435 139.8436 25.0184 0.0000 -11.7036 0.0000
# 3 30.9338 25.0184 115.3551 0.0000 -7.0028 0.0000
# 4 0.0000 0.0000 0.0000 41.7402 0.0000 -11.1593
# 5 -3.0402 -11.7036 -7.0028 0.0000 39.6321 0.0000
# 6 0.0000 0.0000 0.0000 -11.1593 0.0000 7.0905
#
#
#
# Elastic Compliance Matrix: (Units=1/GPa)
#
#
# Indices 1 2 3 4 5 6 
#
# 1 0.010295 -0.000213 -0.002699 0.000000 0.000250 0.000000
# 2 -0.000213 0.007593 -0.001470 0.000000 0.001966 0.000000
# 3 -0.002699 -0.001470 0.009778 0.000000 0.001086 0.000000
# 4 0.000000 0.000000 0.000000 0.041361 0.000000 0.065096
# 5 0.000250 0.001966 0.001086 0.000000 0.026024 0.000000
# 6 0.000000 0.000000 0.000000 0.065096 0.000000 0.243486
#
#
# Mechanical properties :
#
#
# Convention : Reuss Voigt Hill
#
# Bulk Modulus (GPa) = 52.90993 54.67864 53.79428
# Shear Modulus (GPa) = 14.14014 37.36061 25.75038
#
# Velocity S-wave (km/s) = 2.43052 3.95074 3.27992
# Velocity P-wave (km/s) = 5.47550 6.60716 6.06777
#
# Compressibility (1/GPa) = 0.01890005
#
# Stress axis : x y z
#
# Youngs Moduli (GPa) = 97.13126 131.69505 102.27493
#
# Poissons Ratio (x) = 0.02812 0.27608
# Poissons Ratio (y) = 0.02074 0.15037
# Poissons Ratio (z) = 0.26219 0.19362
#
# Static dielectric constant tensor:
#      x y z
#    x 1.958590 0.000000 0.019560 
#    y 0.000000 1.921080 0.000000 
#    z 0.019560 0.000000 1.959760 
# 
# From -- ./inp_files/98729.got.cif
#   From: 2010.05.17/outbox.cif.g08.bks.cpg/sg15_50_cif.got.tgz:98729.got - 2010.06.03 18:47:42.
