data_PCOD9305326
_publ_section_title
;
Structure prediction by ZEFSAII (Michael W. Deem and Ramdas Pophale) SiO2 
 PCOD9305326
Probable space group: C 2/C
;
_chemical_formula_sum "Si O2"
_cell_formula_units_Z 40
_cell_length_a 12.057142
_cell_length_b 9.914385
_cell_length_c 13.842268
_cell_angle_alpha 90.000000
_cell_angle_beta 103.478500
_cell_angle_gamma 90.000000
_cell_volume 1609.118460
_symmetry_space_group_name_H-M "C 2/C"
_symmetry_group_IT_number 15
_symmetry_cell_setting 'monoclinic'
loop_
_space_group_symop_operation_xyz
x,y,z
-x,y,1/2-z
-x,-y,-z
x,-y,1/2+z
1/2+x,1/2+y,z
1/2-x,1/2+y,1/2-z
1/2-x,1/2-y,-z
1/2+x,1/2-y,1/2+z
loop_
_atom_site_type_symbol
_atom_site_label
_atom_site_fract_x
_atom_site_fract_y
_atom_site_fract_z
Si Si1 0.820769 0.287502 0.802583
Si Si2 0.880959 0.069338 0.956289
Si Si3 0.915989 0.206615 0.155743
Si Si4 0.690169 0.850969 0.914533
Si Si5 0.522088 0.016246 0.639233
O O1 0.893947 0.181679 0.877641
O O2 0.691153 0.248465 0.801603
O O3 0.838618 0.278516 0.692012
O O4 0.858694 0.437380 0.846816
O O5 0.783008 0.965344 0.908072
O O6 0.855398 0.132269 0.055452
O O7 0.000000 0.000000 0.000000
O O8 0.991147 0.326371 0.122216
O O9 0.000000 0.134754 0.250000
O O10 0.577808 0.927700 0.930847
O O11 0.750000 0.750000 0.000000
O O12 0.500000 0.001512 0.750000
#
# Coordination Sequence:
#
# PCOD9305326 Si02
#       5
#     8   8   8   8   8
#     4  11  24  46  75 101 146 196 242 311 369 444
#     4  12  26  46  68 109 148 191 250 304 375 449
#     4  11  24  47  72 107 145 187 252 304 366 449
#     4  11  24  44  69 107 147 188 245 308 370 442
#     4   9  21  43  69 102 141 185 244 297 366 439
#
# _framework density 24.858332999999998
#
# number of rings (size 3 to 8) (size 9 to 14) (size 15 to 20)
#    0.000    1.200    2.000    3.000    0.000    4.000 
#    3.600    0.000    0.000    0.000    0.000    0.000 
#    0.000    0.000    0.000    0.000    0.000    0.000 
#
# Total GULP energy -111849.377724 kJ/mol
# GULP energy per Si atom -5592.468886 kJ/mol
# Density = 2.480175 g / cm^3
# Si number density = 24.858333 Si / 1000 Ang^3
#
#
#
# Elastic Constant Matrix: (Units=GPa)
#
#
# Indices 1 2 3 4 5 6 
#
# 1 75.4336 7.2725 -1.8936 0.0000 13.6837 0.0000
# 2 7.2725 37.8284 6.9957 0.0000 -6.8992 0.0000
# 3 -1.8936 6.9957 109.7172 0.0000 5.2217 0.0000
# 4 0.0000 0.0000 0.0000 18.7573 0.0000 -9.0707
# 5 13.6837 -6.8992 5.2217 0.0000 32.8229 0.0000
# 6 0.0000 0.0000 0.0000 -9.0707 0.0000 26.8073
#
#
#
# Elastic Compliance Matrix: (Units=1/GPa)
#
#
# Indices 1 2 3 4 5 6 
#
# 1 0.015032 -0.004391 0.000888 0.000000 -0.007331 0.000000
# 2 -0.004391 0.029234 -0.002337 0.000000 0.008347 0.000000
# 3 0.000888 -0.002337 0.009391 0.000000 -0.002356 0.000000
# 4 0.000000 0.000000 0.000000 0.063743 0.000000 0.021568
# 5 -0.007331 0.008347 -0.002356 0.000000 0.035652 0.000000
# 6 0.000000 0.000000 0.000000 0.021568 0.000000 0.044601
#
#
# Mechanical properties :
#
#
# Convention : Reuss Voigt Hill
#
# Bulk Modulus (GPa) = 23.82258 27.52538 25.67398
# Shear Modulus (GPa) = 22.38884 29.71781 26.05333
#
# Velocity S-wave (km/s) = 3.00435 3.46133 3.24091
# Velocity P-wave (km/s) = 4.65177 5.20302 4.93510
#
# Compressibility (1/GPa) = 0.04197698
#
# Stress axis : x y z
#
# Youngs Moduli (GPa) = 66.52359 34.20676 106.48733
#
# Poissons Ratio (x) = 0.15021 -0.09460
# Poissons Ratio (y) = 0.29213 0.24887
# Poissons Ratio (z) = -0.05910 0.07994
#
# Static dielectric constant tensor:
#      x y z
#    x 1.912660 0.000000 0.059290 
#    y 0.000000 1.913680 0.000000 
#    z 0.059290 0.000000 1.837260 
# 
# From -- ./inp_files/150795.got.cif
#   From: 2010.05.17/outbox.cif.g08.bks.cpg/sg15_76_cif.got.tgz:150795.got - 2010.06.03 18:47:42.
