data_PCOD9305547
_publ_section_title
;
Structure prediction by ZEFSAII (Michael W. Deem and Ramdas Pophale) SiO2 
 PCOD9305547
Probable space group: C 2/C
;
_chemical_formula_sum "Si O2"
_cell_formula_units_Z 60
_cell_length_a 17.880023
_cell_length_b 13.448944
_cell_length_c 11.499823
_cell_angle_alpha 90.000000
_cell_angle_beta 110.907220
_cell_angle_gamma 90.000000
_cell_volume 2583.261999
_symmetry_space_group_name_H-M "C 2/C"
_symmetry_group_IT_number 15
_symmetry_cell_setting 'monoclinic'
loop_
_space_group_symop_operation_xyz
x,y,z
-x,y,1/2-z
-x,-y,-z
x,-y,1/2+z
1/2+x,1/2+y,z
1/2-x,1/2+y,1/2-z
1/2-x,1/2-y,-z
1/2+x,1/2-y,1/2+z
loop_
_atom_site_type_symbol
_atom_site_label
_atom_site_fract_x
_atom_site_fract_y
_atom_site_fract_z
Si Si1 0.301047 0.631251 0.290918
Si Si2 0.112616 0.652320 0.408344
Si Si3 0.563500 0.134226 0.126353
Si Si4 0.015065 0.937685 0.627280
Si Si5 0.325901 0.971081 0.362533
Si Si6 0.373989 0.708979 0.994393
Si Si7 0.797140 0.329894 0.142267
Si Si8 0.750000 0.250000 0.500000
O O1 0.394057 0.601172 0.336244
O O2 0.248520 0.541146 0.209404
O O3 0.289043 0.724038 0.199424
O O4 0.267780 0.674160 0.394125
O O5 0.089920 0.607917 0.272321
O O6 0.180741 0.602883 0.530325
O O7 0.154592 0.756848 0.411980
O O8 0.030844 0.650685 0.433815
O O9 0.602675 0.238344 0.112350
O O10 0.598836 0.042582 0.074049
O O11 0.000000 0.982801 0.750000
O O12 0.949208 0.849682 0.585221
O O13 0.000000 0.000000 0.500000
O O14 0.336114 0.903210 0.255145
O O15 0.294170 0.641572 0.940344
O O16 0.350044 0.802620 0.061719
#
# Coordination Sequence:
#
# PCOD9305547 Si02
#       8
#     8   8   8   8   8   8   8   4
#     4  12  25  49  74 111 155 200 261 325 393 473
#     4  11  25  44  70 104 148 186 245 312 383 453
#     4  11  25  45  68 108 145 192 248 311 382 463
#     4  12  28  54  79 118 158 212 269 330 394 475
#     4  12  25  44  74 108 147 195 252 311 389 465
#     4  11  24  47  74 101 153 200 256 312 388 465
#     4  11  24  45  74 104 145 207 249 314 387 464
#     4  12  22  46  74 106 148 198 246 316 388 466
#
# _framework density 23.226447
#
# number of rings (size 3 to 8) (size 9 to 14) (size 15 to 20)
#    0.000    0.533    5.333    2.000    1.867    1.067 
#    7.200    0.000    0.000    0.000    0.000    0.000 
#    0.000    0.000    0.000    0.000    0.000    0.000 
#
# Total GULP energy -167038.703037 kJ/mol
# GULP energy per Si atom -5567.956768 kJ/mol
# Density = 2.317358 g / cm^3
# Si number density = 23.226447 Si / 1000 Ang^3
#
#
#
# Elastic Constant Matrix: (Units=GPa)
#
#
# Indices 1 2 3 4 5 6 
#
# 1 137.3175 11.1818 54.9956 0.0000 12.6008 0.0000
# 2 11.1818 22.9790 34.8368 0.0000 -2.3916 0.0000
# 3 54.9956 34.8368 118.3385 0.0000 -7.0204 0.0000
# 4 0.0000 0.0000 0.0000 40.6371 0.0000 12.5838
# 5 12.6008 -2.3916 -7.0204 0.0000 40.7270 0.0000
# 6 0.0000 0.0000 0.0000 12.5838 0.0000 6.9173
#
#
#
# Elastic Compliance Matrix: (Units=1/GPa)
#
#
# Indices 1 2 3 4 5 6 
#
# 1 0.009648 0.003701 -0.005797 0.000000 -0.003767 0.000000
# 2 0.003701 0.080030 -0.025328 0.000000 -0.000812 0.000000
# 3 -0.005797 -0.025328 0.018811 0.000000 0.003549 0.000000
# 4 0.000000 0.000000 0.000000 0.056355 0.000000 -0.102520
# 5 -0.003767 -0.000812 0.003549 0.000000 0.026283 0.000000
# 6 0.000000 0.000000 0.000000 -0.102520 0.000000 0.331069
#
#
# Mechanical properties :
#
#
# Convention : Reuss Voigt Hill
#
# Bulk Modulus (GPa) = 18.64185 53.40706 36.02446
# Shear Modulus (GPa) = 8.40442 29.49766 18.95104
#
# Velocity S-wave (km/s) = 1.90429 3.56758 2.85954
# Velocity P-wave (km/s) = 3.58868 6.32567 5.14261
#
# Compressibility (1/GPa) = 0.05364273
#
# Stress axis : x y z
#
# Youngs Moduli (GPa) = 103.64443 12.49527 53.16041
#
# Poissons Ratio (x) = -0.04625 0.30817
# Poissons Ratio (y) = -0.38363 1.34644
# Poissons Ratio (z) = 0.60083 0.31648
#
# Static dielectric constant tensor:
#      x y z
#    x 2.013030 0.000000 -0.032860 
#    y 0.000000 1.794720 0.000000 
#    z -0.032860 0.000000 1.872870 
# 
# From -- ./inp_files/105773.got.cif
#   From: 2010.05.17/outbox.cif.g08.bks.cpg/sg15_53_cif.got.tgz:105773.got - 2010.06.03 18:47:42.
