data_PCOD9305775
_publ_section_title
;
Structure prediction by ZEFSAII (Michael W. Deem and Ramdas Pophale) SiO2 
 PCOD9305775
Probable space group: C 2/C
;
_chemical_formula_sum "Si O2"
_cell_formula_units_Z 24
_cell_length_a 13.708991
_cell_length_b 4.896980
_cell_length_c 21.645427
_cell_angle_alpha 90.000000
_cell_angle_beta 141.628238
_cell_angle_gamma 90.000000
_cell_volume 902.037782
_symmetry_space_group_name_H-M "C 2/C"
_symmetry_group_IT_number 15
_symmetry_cell_setting 'monoclinic'
loop_
_space_group_symop_operation_xyz
x,y,z
-x,y,1/2-z
-x,-y,-z
x,-y,1/2+z
1/2+x,1/2+y,z
1/2-x,1/2+y,1/2-z
1/2-x,1/2-y,-z
1/2+x,1/2-y,1/2+z
loop_
_atom_site_type_symbol
_atom_site_label
_atom_site_fract_x
_atom_site_fract_y
_atom_site_fract_z
Si Si1 0.701914 0.943721 0.189162
Si Si2 0.846986 0.728893 0.144298
Si Si3 0.105625 0.076678 0.452684
O O1 0.795089 0.749259 0.283924
O O2 0.791296 0.941753 0.168533
O O3 0.535445 0.786136 0.104322
O O4 0.000000 0.579432 0.250000
O O5 0.685526 0.568917 0.050795
O O6 0.093866 0.862739 0.389887
O O7 0.250000 0.250000 0.500000
#
# Coordination Sequence:
#
# PCOD9305775 Si02
#       3
#     8   8   8
#     4  12  27  48  77 112 152 200 251 307 380 450
#     4  11  24  47  71 108 150 195 249 312 368 448
#     4  11  26  44  75 108 147 201 251 309 379 445
#
# _framework density 26.606427
#
# number of rings (size 3 to 8) (size 9 to 14) (size 15 to 20)
#    0.000    0.667    3.333    3.000    9.333    2.667 
#    0.000    0.000    0.000    0.000    0.000    0.000 
#    0.000    0.000    0.000    0.000    0.000    0.000 
#
# Total GULP energy -67137.027017 kJ/mol
# GULP energy per Si atom -5594.752251 kJ/mol
# Density = 2.654587 g / cm^3
# Si number density = 26.606427 Si / 1000 Ang^3
#
#
#
# Elastic Constant Matrix: (Units=GPa)
#
#
# Indices 1 2 3 4 5 6 
#
# 1 100.5811 -13.6799 16.2657 -0.0001 14.5194 0.0015
# 2 -13.6799 38.4249 -20.2327 0.0001 -15.6042 0.0037
# 3 16.2657 -20.2327 124.4459 -0.0001 7.6815 -0.0001
# 4 -0.0001 0.0001 -0.0001 28.6681 -0.0002 17.9099
# 5 14.5194 -15.6042 7.6815 -0.0002 51.9308 0.0000
# 6 0.0015 0.0037 -0.0001 17.9099 0.0000 24.8485
#
#
#
# Elastic Compliance Matrix: (Units=1/GPa)
#
#
# Indices 1 2 3 4 5 6 
#
# 1 0.010728 0.002504 -0.000864 0.000001 -0.002119 -0.000002
# 2 0.002504 0.032707 0.004468 0.000006 0.008467 -0.000009
# 3 -0.000864 0.004468 0.008858 0.000001 0.000274 -0.000001
# 4 0.000001 0.000006 0.000001 0.063454 0.000002 -0.045735
# 5 -0.002119 0.008467 0.000274 0.000002 0.022353 -0.000002
# 6 -0.000002 -0.000009 -0.000001 -0.045735 -0.000002 0.073208
#
#
# Mechanical properties :
#
#
# Convention : Reuss Voigt Hill
#
# Bulk Modulus (GPa) = 15.50204 25.35089 20.42647
# Shear Modulus (GPa) = 22.66574 39.82941 31.24757
#
# Velocity S-wave (km/s) = 2.92188 3.87329 3.43072
# Velocity P-wave (km/s) = 4.14997 5.43617 4.83602
#
# Compressibility (1/GPa) = 0.06450764
#
# Stress axis : x y z
#
# Youngs Moduli (GPa) = 93.20979 30.57443 112.89140
#
# Poissons Ratio (x) = -0.07655 0.09758
# Poissons Ratio (y) = -0.23337 -0.50437
# Poissons Ratio (z) = 0.08057 -0.13660
#
# Static dielectric constant tensor:
#      x y z
#    x 2.369330 0.000000 -0.619240 
#    y 0.000000 2.270140 0.000000 
#    z -0.619240 0.000000 3.206150 
# 
# From -- ./inp_files/101904.got.cif
#   From: 2010.05.17/outbox.cif.g08.bks.cpg/sg15_51_cif.got.tgz:101904.got - 2010.06.03 18:47:42.
