data_PCOD9305382
_publ_section_title
;
Structure prediction by ZEFSAII (Michael W. Deem and Ramdas Pophale) SiO2 
 PCOD9305382
Probable space group: C 2/C
;
_chemical_formula_sum "Si O2"
_cell_formula_units_Z 36
_cell_length_a 11.179331
_cell_length_b 20.112511
_cell_length_c 7.327025
_cell_angle_alpha 90.000000
_cell_angle_beta 68.347539
_cell_angle_gamma 90.000000
_cell_volume 1531.195666
_symmetry_space_group_name_H-M "C 2/C"
_symmetry_group_IT_number 15
_symmetry_cell_setting 'monoclinic'
loop_
_space_group_symop_operation_xyz
x,y,z
-x,y,1/2-z
-x,-y,-z
x,-y,1/2+z
1/2+x,1/2+y,z
1/2-x,1/2+y,1/2-z
1/2-x,1/2-y,-z
1/2+x,1/2-y,1/2+z
loop_
_atom_site_type_symbol
_atom_site_label
_atom_site_fract_x
_atom_site_fract_y
_atom_site_fract_z
Si Si1 0.736657 0.068386 0.134831
Si Si2 0.500000 0.740608 0.250000
Si Si3 0.500000 0.032232 0.750000
Si Si4 0.328606 0.378410 0.968844
Si Si5 0.500000 0.500000 0.500000
Si Si6 0.614163 0.857283 0.397667
O O1 0.627476 0.012105 0.181246
O O2 0.769585 0.089055 0.320747
O O3 0.869426 0.036614 0.983690
O O4 0.681133 0.130198 0.052251
O O5 0.611848 0.692113 0.119896
O O6 0.545702 0.788695 0.388052
O O7 0.485081 0.082413 0.587169
O O8 0.439257 0.427641 0.979630
O O9 0.223600 0.368045 0.183664
#
# Coordination Sequence:
#
# PCOD9305382 Si02
#       6
#     8   4   4   8   4   8
#     4  12  26  44  76 111 145 185 250 303 370 440
#     4  11  26  52  68 106 151 198 252 300 359 454
#     4  11  24  44  72 112 147 182 244 312 361 446
#     4  12  26  48  73 105 151 186 247 314 356 445
#     4  12  24  46  76 110 146 182 236 320 372 410
#     4  11  27  45  75 103 148 202 236 297 385 432
#
# _framework density 23.511039
#
# number of rings (size 3 to 8) (size 9 to 14) (size 15 to 20)
#    0.000    0.444    4.444    2.667    9.333    0.889 
#    0.000    2.222    0.000    0.000    0.000    0.000 
#    0.000    0.000    0.000    0.000    0.000    0.000 
#
# Total GULP energy -100370.298601 kJ/mol
# GULP energy per Si atom -5576.127700 kJ/mol
# Density = 2.345753 g / cm^3
# Si number density = 23.511039 Si / 1000 Ang^3
#
#
#
# Elastic Constant Matrix: (Units=GPa)
#
#
# Indices 1 2 3 4 5 6 
#
# 1 192.4034 84.1949 35.7983 0.0000 19.0901 0.0000
# 2 84.1949 168.6748 29.5136 0.0000 14.1620 0.0000
# 3 35.7983 29.5136 58.9907 0.0000 17.6436 0.0000
# 4 0.0000 0.0000 0.0000 -16.0979 0.0000 -17.8384
# 5 19.0901 14.1620 17.6436 0.0000 40.9019 0.0000
# 6 0.0000 0.0000 0.0000 -17.8384 0.0000 30.1650
#
#
#
# Elastic Compliance Matrix: (Units=1/GPa)
#
#
# Indices 1 2 3 4 5 6 
#
# 1 0.007088 -0.003010 -0.002431 0.000000 -0.001217 0.000000
# 2 -0.003010 0.007810 -0.001943 0.000000 -0.000461 0.000000
# 3 -0.002431 -0.001943 0.021652 0.000000 -0.007533 0.000000
# 4 0.000000 0.000000 0.000000 -0.037528 0.000000 -0.022193
# 5 -0.001217 -0.000461 -0.007533 0.000000 0.028426 0.000000
# 6 0.000000 0.000000 0.000000 -0.022193 0.000000 0.020027
#
#
# Mechanical properties :
#
#
# Convention : Reuss Voigt Hill
#
# Bulk Modulus (GPa) = 45.91052 79.89806 62.90429
# Shear Modulus (GPa) = 71.93917 29.03128 50.48522
#
# Velocity S-wave (km/s) = 5.53755 3.51777 4.63892
# Velocity P-wave (km/s) = 7.77532 7.11032 7.45024
#
# Compressibility (1/GPa) = 0.02178150
#
# Stress axis : x y z
#
# Youngs Moduli (GPa) = 141.08723 128.04396 46.18529
#
# Poissons Ratio (x) = 0.38546 0.11228
# Poissons Ratio (y) = 0.42472 0.08972
# Poissons Ratio (z) = 0.34299 0.24874
#
# Static dielectric constant tensor:
#      x y z
#    x 1.882760 0.000000 -0.069820 
#    y 0.000000 1.859830 0.000000 
#    z -0.069820 0.000000 2.015280 
# 
# From -- ./inp_files/28751.got.cif
#   From: 2010.05.17/outbox.cif.g08.bks.cpg/sg15_15_cif.got.tgz:28751.got - 2010.06.03 18:47:42.
