data_PCOD9305305
_publ_section_title
;
Structure prediction by ZEFSAII (Michael W. Deem and Ramdas Pophale) SiO2 
 PCOD9305305
Probable space group: C 2/C
;
_chemical_formula_sum "Si O2"
_cell_formula_units_Z 32
_cell_length_a 14.775632
_cell_length_b 15.974711
_cell_length_c 4.945011
_cell_angle_alpha 90.000000
_cell_angle_beta 96.063903
_cell_angle_gamma 90.000000
_cell_volume 1160.671990
_symmetry_space_group_name_H-M "C 2/C"
_symmetry_group_IT_number 15
_symmetry_cell_setting 'monoclinic'
loop_
_space_group_symop_operation_xyz
x,y,z
-x,y,1/2-z
-x,-y,-z
x,-y,1/2+z
1/2+x,1/2+y,z
1/2-x,1/2+y,1/2-z
1/2-x,1/2-y,-z
1/2+x,1/2-y,1/2+z
loop_
_atom_site_type_symbol
_atom_site_label
_atom_site_fract_x
_atom_site_fract_y
_atom_site_fract_z
Si Si1 0.500000 0.317788 0.750000
Si Si2 0.500000 0.979795 0.250000
Si Si3 0.625252 0.554325 0.980473
Si Si4 0.296456 0.160524 0.966386
Si Si5 0.913575 0.343466 0.001988
O O1 0.560456 0.373873 0.572345
O O2 0.436802 0.255831 0.556047
O O3 0.437845 0.965726 0.943613
O O4 0.387931 0.158128 0.175671
O O5 0.610648 0.525250 0.670058
O O6 0.727318 0.589245 0.036205
O O7 0.250000 0.250000 0.000000
O O8 0.325706 0.144711 0.667297
O O9 0.000000 0.375788 0.250000
#
# Coordination Sequence:
#
# PCOD9305305 Si02
#       5
#     4   4   8   8   8
#     4  11  26  48  72 105 150 184 240 281 366 428
#     4  11  24  44  68 105 142 180 230 293 356 410
#     4  12  28  46  72 107 143 187 231 292 359 420
#     4  12  25  47  72 101 139 184 241 286 346 415
#     4  11  26  44  76 102 136 193 234 292 347 426
#
# _framework density 27.570238
#
# number of rings (size 3 to 8) (size 9 to 14) (size 15 to 20)
#    0.000    0.500    2.500    4.500    3.500   11.000 
#    0.000    0.000    0.000    0.000    0.000    0.000 
#    0.000    0.000    0.000    0.000    0.000    0.000 
#
# Total GULP energy -89544.902677 kJ/mol
# GULP energy per Si atom -5596.556417 kJ/mol
# Density = 2.750749 g / cm^3
# Si number density = 27.570238 Si / 1000 Ang^3
#
#
#
# Elastic Constant Matrix: (Units=GPa)
#
#
# Indices 1 2 3 4 5 6 
#
# 1 94.3940 45.2104 37.0235 0.0000 -29.4888 0.0000
# 2 45.2104 123.7707 47.6539 0.0000 -6.7454 0.0000
# 3 37.0235 47.6539 181.4854 0.0000 -25.3141 0.0000
# 4 0.0000 0.0000 0.0000 97.8290 0.0000 3.0757
# 5 -29.4888 -6.7454 -25.3141 0.0000 55.1983 0.0000
# 6 0.0000 0.0000 0.0000 3.0757 0.0000 50.6366
#
#
#
# Elastic Compliance Matrix: (Units=1/GPa)
#
#
# Indices 1 2 3 4 5 6 
#
# 1 0.015601 -0.004970 -0.000855 0.000000 0.007335 0.000000
# 2 -0.004970 0.010571 -0.002085 0.000000 -0.002320 0.000000
# 3 -0.000855 -0.002085 0.006552 0.000000 0.002293 0.000000
# 4 0.000000 0.000000 0.000000 0.010241 0.000000 -0.000622
# 5 0.007335 -0.002320 0.002293 0.000000 0.022804 0.000000
# 6 0.000000 0.000000 0.000000 -0.000622 0.000000 0.019786
#
#
# Mechanical properties :
#
#
# Convention : Reuss Voigt Hill
#
# Bulk Modulus (GPa) = 59.15584 73.26951 66.21268
# Shear Modulus (GPa) = 46.72452 58.71694 52.72073
#
# Velocity S-wave (km/s) = 4.12119 4.61990 4.37765
# Velocity P-wave (km/s) = 6.64445 7.42235 7.04414
#
# Compressibility (1/GPa) = 0.01690450
#
# Stress axis : x y z
#
# Youngs Moduli (GPa) = 64.09854 94.59522 152.62769
#
# Poissons Ratio (x) = 0.47013 0.13042
# Poissons Ratio (y) = 0.31856 0.31830
# Poissons Ratio (z) = 0.05477 0.19728
#
# Static dielectric constant tensor:
#      x y z
#    x 1.768240 0.000000 0.235450 
#    y 0.000000 2.876250 0.000000 
#    z 0.235450 0.000000 1.881290 
# 
# From -- ./inp_files/6424.got.cif
#   From: 2010.05.17/outbox.cif.g08.bks.cpg/sg15_4_cif.got.tgz:6424.got - 2010.06.03 18:47:42.
