data_PCOD9305829
_publ_section_title
;
Structure prediction by ZEFSAII (Michael W. Deem and Ramdas Pophale) SiO2 
 PCOD9305829
Probable space group: C 2/C
;
_chemical_formula_sum "Si O2"
_cell_formula_units_Z 48
_cell_length_a 22.651937
_cell_length_b 8.048875
_cell_length_c 14.559847
_cell_angle_alpha 90.000000
_cell_angle_beta 132.595211
_cell_angle_gamma 90.000000
_cell_volume 1954.185629
_symmetry_space_group_name_H-M "C 2/C"
_symmetry_group_IT_number 15
_symmetry_cell_setting 'monoclinic'
loop_
_space_group_symop_operation_xyz
x,y,z
-x,y,1/2-z
-x,-y,-z
x,-y,1/2+z
1/2+x,1/2+y,z
1/2-x,1/2+y,1/2-z
1/2-x,1/2-y,-z
1/2+x,1/2-y,1/2+z
loop_
_atom_site_type_symbol
_atom_site_label
_atom_site_fract_x
_atom_site_fract_y
_atom_site_fract_z
Si Si1 0.736665 0.416700 0.184561
Si Si2 0.987318 0.677860 0.839856
Si Si3 0.815551 0.372228 0.608118
Si Si4 0.577658 0.618137 0.075296
Si Si5 0.027072 0.289904 0.679530
Si Si6 0.661192 0.930594 0.556820
O O1 0.775094 0.511016 0.139730
O O2 0.655539 0.515099 0.129171
O O3 0.717088 0.230112 0.132485
O O4 0.802187 0.433940 0.334791
O O5 0.000000 0.744299 0.750000
O O6 0.924417 0.785556 0.830352
O O7 0.960614 0.487991 0.805256
O O8 0.073076 0.650884 0.980521
O O9 0.750000 0.250000 0.500000
O O10 0.879335 0.248825 0.727756
O O11 0.842029 0.484092 0.547126
O O12 0.500000 0.500000 0.000000
O O13 0.543426 0.745261 0.963055
O O14 0.000000 0.227181 0.750000
#
# Coordination Sequence:
#
# PCOD9305829 Si02
#       6
#     8   8   8   8   8   8
#     4  12  29  46  75 108 153 198 249 318 378 451
#     4  11  24  49  77 107 145 196 253 305 381 451
#     4  12  26  48  76 110 151 194 250 309 383 459
#     4  12  27  47  71 109 147 192 251 311 370 446
#     4  11  24  47  76 106 144 198 244 308 378 453
#     4  12  26  50  73 110 150 197 253 305 384 450
#
# _framework density 24.562662
#
# number of rings (size 3 to 8) (size 9 to 14) (size 15 to 20)
#    0.000    0.333    5.000    4.000    7.000    2.000 
#    0.000    0.000    0.000    0.000    0.000    0.000 
#    0.000    0.000    0.000    0.000    0.000    0.000 
#
# Total GULP energy -134238.866366 kJ/mol
# GULP energy per Si atom -5593.286099 kJ/mol
# Density = 2.450676 g / cm^3
# Si number density = 24.562662 Si / 1000 Ang^3
#
#
#
# Elastic Constant Matrix: (Units=GPa)
#
#
# Indices 1 2 3 4 5 6 
#
# 1 100.7425 21.5072 32.8244 0.0000 -3.2216 0.0000
# 2 21.5072 63.8009 33.1270 0.0000 -3.4131 0.0000
# 3 32.8244 33.1270 153.8458 0.0000 6.2126 0.0000
# 4 0.0000 0.0000 0.0000 -178.0072 0.0000 34.8228
# 5 -3.2216 -3.4131 6.2126 0.0000 51.3627 0.0000
# 6 0.0000 0.0000 0.0000 34.8228 0.0000 19.4119
#
#
#
# Elastic Compliance Matrix: (Units=1/GPa)
#
#
# Indices 1 2 3 4 5 6 
#
# 1 0.011131 -0.002775 -0.001807 0.000000 0.000732 0.000000
# 2 -0.002775 0.018477 -0.003446 0.000000 0.001471 0.000000
# 3 -0.001807 -0.003446 0.007679 0.000000 -0.001271 0.000000
# 4 0.000000 0.000000 0.000000 -0.004158 0.000000 0.007460
# 5 0.000732 0.001471 -0.001271 0.000000 0.019767 0.000000
# 6 0.000000 0.000000 0.000000 0.007460 0.000000 0.038133
#
#
# Mechanical properties :
#
#
# Convention : Reuss Voigt Hill
#
# Bulk Modulus (GPa) = 47.10012 54.81182 50.95597
# Shear Modulus (GPa) = 43.79800 -6.05115 18.87342
#
# Velocity S-wave (km/s) = 4.22727 -1.57128 2.77497
# Velocity P-wave (km/s) = 6.56076 4.36711 5.57294
#
# Compressibility (1/GPa) = 0.02123137
#
# Stress axis : x y z
#
# Youngs Moduli (GPa) = 89.84035 54.12122 130.22730
#
# Poissons Ratio (x) = 0.15018 0.23532
# Poissons Ratio (y) = 0.24929 0.44876
# Poissons Ratio (z) = 0.16234 0.18650
#
# Static dielectric constant tensor:
#      x y z
#    x 2.031760 0.000000 0.044010 
#    y 0.000000 2.073560 0.000000 
#    z 0.044010 0.000000 2.479280 
# 
# From -- ./inp_files/177011.got.cif
#   From: 2010.05.17/outbox.cif.g08.bks.cpg/sg15_89_cif.got.tgz:177011.got - 2010.06.03 18:47:42.
