data_PCOD9305603
_publ_section_title
;
Structure prediction by ZEFSAII (Michael W. Deem and Ramdas Pophale) SiO2 
 PCOD9305603
Probable space group: C 2/C
;
_chemical_formula_sum "Si O2"
_cell_formula_units_Z 48
_cell_length_a 15.282004
_cell_length_b 28.128583
_cell_length_c 9.574671
_cell_angle_alpha 90.000000
_cell_angle_beta 33.296405
_cell_angle_gamma 90.000000
_cell_volume 2259.440618
_symmetry_space_group_name_H-M "C 2/C"
_symmetry_group_IT_number 15
_symmetry_cell_setting 'monoclinic'
loop_
_space_group_symop_operation_xyz
x,y,z
-x,y,1/2-z
-x,-y,-z
x,-y,1/2+z
1/2+x,1/2+y,z
1/2-x,1/2+y,1/2-z
1/2-x,1/2-y,-z
1/2+x,1/2-y,1/2+z
loop_
_atom_site_type_symbol
_atom_site_label
_atom_site_fract_x
_atom_site_fract_y
_atom_site_fract_z
Si Si1 0.648584 0.933587 0.446713
Si Si2 0.309341 0.205895 0.008719
Si Si3 0.180861 0.895324 0.032432
Si Si4 0.670427 0.527939 0.297469
Si Si5 0.190331 0.208423 0.479349
Si Si6 0.833116 0.399285 0.388505
O O1 0.792008 0.913171 0.348168
O O2 0.632395 0.907921 0.320581
O O3 0.694112 0.988177 0.364431
O O4 0.500000 0.928889 0.750000
O O5 0.500000 0.205893 0.750000
O O6 0.264212 0.153169 0.013148
O O7 0.250000 0.250000 0.000000
O O8 0.240828 0.215126 0.252971
O O9 0.265125 0.844224 0.908996
O O10 0.000000 0.882602 0.250000
O O11 0.198266 0.937145 0.894289
O O12 0.500000 0.500000 0.500000
O O13 0.712639 0.560690 0.107924
O O14 0.250000 0.250000 0.500000
O O15 0.000000 0.209940 0.750000
O O16 0.000000 0.404021 0.250000
#
# Coordination Sequence:
#
# PCOD9305603 Si02
#       6
#     8   8   8   8   8   8
#     4  12  27  42  73 105 138 195 250 292 360 443
#     4  11  25  48  73 106 146 189 243 309 377 445
#     4  11  24  46  68 105 147 182 243 303 362 442
#     4  12  24  47  70 103 149 192 239 302 370 434
#     4  11  25  46  76 105 143 189 238 308 371 439
#     4  11  26  48  72 103 149 194 244 309 372 441
#
# _framework density 21.244197
#
# number of rings (size 3 to 8) (size 9 to 14) (size 15 to 20)
#    0.000    0.667    3.333    3.500    4.667    2.667 
#    3.000    0.000    0.000    0.000    0.000    0.000 
#    0.000    0.000    0.000    0.000    0.000    0.000 
#
# Total GULP energy -133985.464379 kJ/mol
# GULP energy per Si atom -5582.727682 kJ/mol
# Density = 2.119584 g / cm^3
# Si number density = 21.244197 Si / 1000 Ang^3
#
#
#
# Elastic Constant Matrix: (Units=GPa)
#
#
# Indices 1 2 3 4 5 6 
#
# 1 118.0475 80.1541 61.5799 0.0001 36.2409 0.0001
# 2 80.1541 187.8150 69.5972 0.0000 29.5271 0.0000
# 3 61.5799 69.5972 141.5349 0.0001 34.3534 0.0001
# 4 0.0001 0.0000 0.0001 76.4194 -0.0001 52.9431
# 5 36.2409 29.5271 34.3534 -0.0001 49.9107 -0.0001
# 6 0.0001 0.0000 0.0001 52.9431 -0.0001 87.7997
#
#
#
# Elastic Compliance Matrix: (Units=1/GPa)
#
#
# Indices 1 2 3 4 5 6 
#
# 1 0.014756 -0.004277 -0.002798 0.000000 -0.006259 0.000000
# 2 -0.004277 0.007917 -0.001980 0.000000 -0.000216 0.000000
# 3 -0.002798 -0.001980 0.010180 0.000000 -0.003803 0.000000
# 4 0.000000 0.000000 0.000000 0.022475 0.000000 -0.013552
# 5 -0.006259 -0.000216 -0.003803 0.000000 0.027326 0.000000
# 6 0.000000 0.000000 0.000000 -0.013552 0.000000 0.019561
#
#
# Mechanical properties :
#
#
# Convention : Reuss Voigt Hill
#
# Bulk Modulus (GPa) = 67.82791 96.67331 82.25061
# Shear Modulus (GPa) = 39.92376 58.56371 49.24374
#
# Velocity S-wave (km/s) = 4.33977 5.25612 4.81977
# Velocity P-wave (km/s) = 7.55702 9.07966 8.35310
#
# Compressibility (1/GPa) = 0.01474319
#
# Stress axis : x y z
#
# Youngs Moduli (GPa) = 67.76881 126.30755 98.23509
#
# Poissons Ratio (x) = 0.54017 0.27487
# Poissons Ratio (y) = 0.28982 0.19452
# Poissons Ratio (z) = 0.18962 0.25010
#
# Static dielectric constant tensor:
#      x y z
#    x 1.774000 0.000000 -0.016810 
#    y 0.000000 1.836870 0.000000 
#    z -0.016810 0.000000 1.826660 
# 
# From -- ./inp_files/43807.got.cif
#   From: 2010.05.17/outbox.cif.g08.bks.cpg/sg15_22_cif.got.tgz:43807.got - 2010.06.03 18:47:42.
