data_PCOD9305600
_publ_section_title
;
Structure prediction by ZEFSAII (Michael W. Deem and Ramdas Pophale) SiO2 
 PCOD9305600
Probable space group: C 2/C
;
_chemical_formula_sum "Si O2"
_cell_formula_units_Z 44
_cell_length_a 14.932437
_cell_length_b 12.724682
_cell_length_c 10.841863
_cell_angle_alpha 90.000000
_cell_angle_beta 61.652835
_cell_angle_gamma 90.000000
_cell_volume 1813.038590
_symmetry_space_group_name_H-M "C 2/C"
_symmetry_group_IT_number 15
_symmetry_cell_setting 'monoclinic'
loop_
_space_group_symop_operation_xyz
x,y,z
-x,y,1/2-z
-x,-y,-z
x,-y,1/2+z
1/2+x,1/2+y,z
1/2-x,1/2+y,1/2-z
1/2-x,1/2-y,-z
1/2+x,1/2-y,1/2+z
loop_
_atom_site_type_symbol
_atom_site_label
_atom_site_fract_x
_atom_site_fract_y
_atom_site_fract_z
Si Si1 0.221892 0.185226 0.645355
Si Si2 0.924850 0.422132 0.121450
Si Si3 0.000000 0.751768 0.750000
Si Si4 0.113383 0.024709 0.880232
Si Si5 0.204675 0.399355 0.768689
Si Si6 0.799287 0.139623 0.443395
O O1 0.250000 0.250000 0.500000
O O2 0.330629 0.137414 0.616643
O O3 0.140693 0.089139 0.734023
O O4 0.177778 0.281122 0.756246
O O5 0.866176 0.510651 0.242221
O O6 0.987690 0.329879 0.145472
O O7 0.000000 0.500000 0.000000
O O8 0.904883 0.829028 0.810694
O O9 0.179702 0.918915 0.847827
O O10 0.168434 0.091217 0.950053
O O11 0.000000 0.000000 0.000000
O O12 0.218828 0.416664 0.906589
O O13 0.750000 0.250000 0.500000
#
# Coordination Sequence:
#
# PCOD9305600 Si02
#       6
#     8   8   4   8   8   8
#     4  11  26  48  71 104 150 188 232 304 377 432
#     4  11  26  43  70 104 137 186 238 293 360 438
#     4  12  24  44  68 104 134 180 248 296 342 434
#     4  11  26  44  72 109 141 192 245 299 367 438
#     4  11  24  46  68 102 144 190 238 302 363 435
#     4  12  22  45  73  95 141 187 243 294 352 435
#
# _framework density 24.268649
#
# number of rings (size 3 to 8) (size 9 to 14) (size 15 to 20)
#    0.000    0.727    3.636    3.273    7.636    0.000 
#    0.000    1.818    0.000    0.000    0.000    0.000 
#    0.000    0.000    0.000    0.000    0.000    0.000 
#
# Total GULP energy -122495.535345 kJ/mol
# GULP energy per Si atom -5567.978879 kJ/mol
# Density = 2.421341 g / cm^3
# Si number density = 24.268649 Si / 1000 Ang^3
#
#
#
# Elastic Constant Matrix: (Units=GPa)
#
#
# Indices 1 2 3 4 5 6 
#
# 1 57.8140 8.4577 16.1864 0.0000 -14.5789 0.0000
# 2 8.4577 95.2673 -3.6850 0.0000 4.8960 0.0000
# 3 16.1864 -3.6850 76.0537 0.0000 -12.5939 0.0000
# 4 0.0000 0.0000 0.0000 59.7496 0.0000 -1.9029
# 5 -14.5789 4.8960 -12.5939 0.0000 50.9411 0.0000
# 6 0.0000 0.0000 0.0000 -1.9029 0.0000 45.8005
#
#
#
# Elastic Compliance Matrix: (Units=1/GPa)
#
#
# Indices 1 2 3 4 5 6 
#
# 1 0.019859 -0.002157 -0.003499 0.000000 0.005026 0.000000
# 2 -0.002157 0.010792 0.000738 0.000000 -0.001472 0.000000
# 3 -0.003499 0.000738 0.014338 0.000000 0.002473 0.000000
# 4 0.000000 0.000000 0.000000 0.016759 0.000000 0.000696
# 5 0.005026 -0.001472 0.002473 0.000000 0.021822 0.000000
# 6 0.000000 0.000000 0.000000 0.000696 0.000000 0.021863
#
#
# Mechanical properties :
#
#
# Convention : Reuss Voigt Hill
#
# Bulk Modulus (GPa) = 28.44513 30.11701 29.28107
# Shear Modulus (GPa) = 39.37425 45.17664 42.27544
#
# Velocity S-wave (km/s) = 4.03231 4.31922 4.17823
# Velocity P-wave (km/s) = 5.78150 6.10827 5.94713
#
# Compressibility (1/GPa) = 0.03515541
#
# Stress axis : x y z
#
# Youngs Moduli (GPa) = 50.35423 92.65733 69.74250
#
# Poissons Ratio (x) = 0.19983 0.24402
# Poissons Ratio (y) = 0.10860 -0.05148
# Poissons Ratio (z) = 0.17618 -0.06840
#
# Static dielectric constant tensor:
#      x y z
#    x 1.908910 0.000000 0.010830 
#    y 0.000000 1.999830 0.000000 
#    z 0.010830 0.000000 2.218070 
# 
# From -- ./inp_files/96080.got.cif
#   From: 2010.05.17/outbox.cif.g08.bks.cpg/sg15_49_cif.got.tgz:96080.got - 2010.06.03 18:47:42.
