data_PCOD9305222
_publ_section_title
;
Structure prediction by ZEFSAII (Michael W. Deem and Ramdas Pophale) SiO2 
 PCOD9305222
Probable space group: C 2/C
;
_chemical_formula_sum "Si O2"
_cell_formula_units_Z 48
_cell_length_a 22.232609
_cell_length_b 5.115516
_cell_length_c 19.131681
_cell_angle_alpha 90.000000
_cell_angle_beta 127.879597
_cell_angle_gamma 90.000000
_cell_volume 1717.420497
_symmetry_space_group_name_H-M "C 2/C"
_symmetry_group_IT_number 15
_symmetry_cell_setting 'monoclinic'
loop_
_space_group_symop_operation_xyz
x,y,z
-x,y,1/2-z
-x,-y,-z
x,-y,1/2+z
1/2+x,1/2+y,z
1/2-x,1/2+y,1/2-z
1/2-x,1/2-y,-z
1/2+x,1/2-y,1/2+z
loop_
_atom_site_type_symbol
_atom_site_label
_atom_site_fract_x
_atom_site_fract_y
_atom_site_fract_z
Si Si1 0.958573 0.167552 0.660013
Si Si2 0.183317 0.079414 0.494514
Si Si3 0.473131 0.282240 0.425807
Si Si4 0.800477 0.729564 0.778458
Si Si5 0.122555 0.505376 0.551606
Si Si6 0.157163 0.432837 0.346845
O O1 0.029111 0.151825 0.656354
O O2 0.914870 0.402768 0.672738
O O3 0.000000 0.000064 0.750000
O O4 0.891748 0.095207 0.557196
O O5 0.170266 0.341820 0.530536
O O6 0.171807 0.177485 0.406247
O O7 0.260232 0.936562 0.573698
O O8 0.500000 0.500000 0.500000
O O9 0.392573 0.184917 0.393707
O O10 0.535534 0.045763 0.465021
O O11 0.757961 0.002263 0.740021
O O12 0.848963 0.752400 0.884794
O O13 0.840035 0.644269 0.732886
#
# Coordination Sequence:
#
# PCOD9305222 Si02
#       6
#     8   8   8   8   8   8
#     4  12  26  43  72 106 151 195 251 320 394 465
#     4  11  24  47  74 108 142 206 252 325 383 474
#     4  11  24  43  72 101 141 197 246 307 375 468
#     4  12  29  47  77 113 150 196 251 321 387 455
#     4  11  24  46  71 105 145 195 255 309 383 461
#     4  11  26  47  74 107 150 192 265 314 397 456
#
# _framework density 27.948893999999999
#
# number of rings (size 3 to 8) (size 9 to 14) (size 15 to 20)
#    0.000    0.667    5.000    1.500    7.000    2.000 
#    0.000    0.000    0.000    0.000    0.000    0.000 
#    0.000    0.000    0.000    0.000    0.000    0.000 
#
# Total GULP energy -133761.836559 kJ/mol
# GULP energy per Si atom -5573.409857 kJ/mol
# Density = 2.788528 g / cm^3
# Si number density = 27.948894 Si / 1000 Ang^3
#
#
#
# Elastic Constant Matrix: (Units=GPa)
#
#
# Indices 1 2 3 4 5 6 
#
# 1 109.1097 22.4952 17.0325 0.0008 -29.6932 -0.0017
# 2 22.4952 74.3806 -2.6756 0.0038 6.4934 0.0003
# 3 17.0325 -2.6756 128.8909 0.0008 -18.8713 0.0009
# 4 0.0008 0.0038 0.0008 31.3457 0.0003 11.8336
# 5 -29.6932 6.4934 -18.8713 0.0003 65.9410 0.0002
# 6 -0.0017 0.0003 0.0009 11.8336 0.0002 35.1263
#
#
#
# Elastic Compliance Matrix: (Units=1/GPa)
#
#
# Indices 1 2 3 4 5 6 
#
# 1 0.011581 -0.004001 -0.000827 0.000000 0.005372 0.000001
# 2 -0.004001 0.014944 0.000375 -0.000002 -0.003166 0.000000
# 3 -0.000827 0.000375 0.008157 0.000000 0.001925 0.000000
# 4 0.000000 -0.000002 0.000000 0.036551 0.000000 -0.012314
# 5 0.005372 -0.003166 0.001925 0.000000 0.018447 0.000000
# 6 0.000001 0.000000 0.000000 -0.012314 0.000000 0.032617
#
#
# Mechanical properties :
#
#
# Convention : Reuss Voigt Hill
#
# Bulk Modulus (GPa) = 38.79347 42.89839 40.84593
# Shear Modulus (GPa) = 35.76647 44.85122 40.30885
#
# Velocity S-wave (km/s) = 3.58118 4.01029 3.80180
# Velocity P-wave (km/s) = 5.56867 6.06839 5.82390
#
# Compressibility (1/GPa) = 0.02577753
#
# Stress axis : x y z
#
# Youngs Moduli (GPa) = 86.34720 66.91480 122.58745
#
# Poissons Ratio (x) = 0.26774 0.10137
# Poissons Ratio (y) = 0.34550 -0.04603
# Poissons Ratio (z) = 0.07140 -0.02512
#
# Static dielectric constant tensor:
#      x y z
#    x 2.601190 0.000000 -0.032500 
#    y 0.000000 2.554110 0.000000 
#    z -0.032500 0.000000 2.447980 
# 
# From -- ./inp_files/254458.got.cif
#   From: 2010.05.17/outbox.cif.g08.bks.cpg/sg15_128_cif.got.tgz:254458.got - 2010.06.03 18:47:42.
