data_PCOD9305580
_publ_section_title
;
Structure prediction by ZEFSAII (Michael W. Deem and Ramdas Pophale) SiO2 
 PCOD9305580
Probable space group: C 2/C
;
_chemical_formula_sum "Si O2"
_cell_formula_units_Z 16
_cell_length_a 16.445685
_cell_length_b 8.690778
_cell_length_c 5.407118
_cell_angle_alpha 90.000000
_cell_angle_beta 133.257721
_cell_angle_gamma 90.000000
_cell_volume 562.825852
_symmetry_space_group_name_H-M "C 2/C"
_symmetry_group_IT_number 15
_symmetry_cell_setting 'monoclinic'
loop_
_space_group_symop_operation_xyz
x,y,z
-x,y,1/2-z
-x,-y,-z
x,-y,1/2+z
1/2+x,1/2+y,z
1/2-x,1/2+y,1/2-z
1/2-x,1/2-y,-z
1/2+x,1/2-y,1/2+z
loop_
_atom_site_type_symbol
_atom_site_label
_atom_site_fract_x
_atom_site_fract_y
_atom_site_fract_z
Si Si1 0.827008 0.089195 0.382108
Si Si2 0.424431 0.850576 0.289163
O O1 0.885369 0.251081 0.442853
O O2 0.854319 0.015852 0.700968
O O3 0.693224 0.111400 0.087997
O O4 0.500000 0.759464 0.250000
O O5 0.500000 0.000000 0.500000
#
# Coordination Sequence:
#
# PCOD9305580 Si02
#       2
#     8   8
#     4  11  26  48  74 113 153 195 254 310 368 453
#     4  11  24  45  78 111 152 202 247 311 380 442
#
# _framework density 28.427976000000001
#
# number of rings (size 3 to 8) (size 9 to 14) (size 15 to 20)
#    0.000    1.000    5.000    0.000    0.000   14.000 
#    0.000    0.000    0.000    0.000    0.000    0.000 
#    0.000    0.000    0.000    0.000    0.000    0.000 
#
# Total GULP energy -44939.657429 kJ/mol
# GULP energy per Si atom -5617.457179 kJ/mol
# Density = 2.836327 g / cm^3
# Si number density = 28.427976 Si / 1000 Ang^3
#
#
#
# Elastic Constant Matrix: (Units=GPa)
#
#
# Indices 1 2 3 4 5 6 
#
# 1 222.7750 100.7701 77.3580 0.0000 4.4879 0.0000
# 2 100.7701 152.7147 73.2297 0.0000 24.4826 0.0000
# 3 77.3580 73.2297 132.2946 0.0000 17.5346 0.0000
# 4 0.0000 0.0000 0.0000 64.2026 0.0000 1.7537
# 5 4.4879 24.4826 17.5346 0.0000 74.1305 0.0000
# 6 0.0000 0.0000 0.0000 1.7537 0.0000 60.2654
#
#
#
# Elastic Compliance Matrix: (Units=1/GPa)
#
#
# Indices 1 2 3 4 5 6 
#
# 1 0.006895 -0.003736 -0.002139 0.000000 0.001322 0.000000
# 2 -0.003736 0.011187 -0.003663 0.000000 -0.002602 0.000000
# 3 -0.002139 -0.003663 0.011005 0.000000 -0.001264 0.000000
# 4 0.000000 0.000000 0.000000 0.015588 0.000000 -0.000454
# 5 0.001322 -0.002602 -0.001264 0.000000 0.014568 0.000000
# 6 0.000000 0.000000 0.000000 -0.000454 0.000000 0.016606
#
#
# Mechanical properties :
#
#
# Convention : Reuss Voigt Hill
#
# Bulk Modulus (GPa) = 99.89235 112.27778 106.08507
# Shear Modulus (GPa) = 50.88449 56.81480 53.84964
#
# Velocity S-wave (km/s) = 4.23536 4.47537 4.35702
# Velocity P-wave (km/s) = 7.68978 8.14165 7.91894
#
# Compressibility (1/GPa) = 0.01001078
#
# Stress axis : x y z
#
# Youngs Moduli (GPa) = 145.03521 89.38984 90.87010
#
# Poissons Ratio (x) = 0.33396 0.19437
# Poissons Ratio (y) = 0.54184 0.33285
# Poissons Ratio (z) = 0.31023 0.32743
#
# Static dielectric constant tensor:
#      x y z
#    x 2.206540 0.000000 -0.100660 
#    y 0.000000 2.258960 0.000000 
#    z -0.100660 0.000000 2.294030 
# 
# From -- ./inp_files/2799.got.cif
#   From: 2010.05.17/outbox.cif.g08.bks.cpg/sg15_2_cif.got.tgz:2799.got - 2010.06.03 18:47:42.
