data_PCOD9305201
_publ_section_title
;
Structure prediction by ZEFSAII (Michael W. Deem and Ramdas Pophale) SiO2 
 PCOD9305201
Probable space group: C 2/C
;
_chemical_formula_sum "Si O2"
_cell_formula_units_Z 40
_cell_length_a 10.761787
_cell_length_b 12.454788
_cell_length_c 11.938682
_cell_angle_alpha 90.000000
_cell_angle_beta 76.000718
_cell_angle_gamma 90.000000
_cell_volume 1552.682262
_symmetry_space_group_name_H-M "C 2/C"
_symmetry_group_IT_number 15
_symmetry_cell_setting 'monoclinic'
loop_
_space_group_symop_operation_xyz
x,y,z
-x,y,1/2-z
-x,-y,-z
x,-y,1/2+z
1/2+x,1/2+y,z
1/2-x,1/2+y,1/2-z
1/2-x,1/2-y,-z
1/2+x,1/2-y,1/2+z
loop_
_atom_site_type_symbol
_atom_site_label
_atom_site_fract_x
_atom_site_fract_y
_atom_site_fract_z
Si Si1 0.033892 0.469962 0.122653
Si Si2 0.133064 0.253958 0.880363
Si Si3 0.787308 0.918860 0.969423
Si Si4 0.163441 0.285381 0.351504
Si Si5 0.120921 0.861268 0.040994
O O1 0.000000 0.527068 0.250000
O O2 0.959510 0.356362 0.147367
O O3 0.186618 0.461256 0.083787
O O4 0.000000 0.500000 0.000000
O O5 0.193829 0.371449 0.893031
O O6 0.232169 0.212735 0.767567
O O7 0.985641 0.221886 0.886093
O O8 0.147370 0.184245 0.990388
O O9 0.890371 0.012746 0.927491
O O10 0.129569 0.168950 0.407910
O O11 0.239574 0.339985 0.437021
#
# Coordination Sequence:
#
# PCOD9305201 Si02
#       5
#     8   8   8   8   8
#     4  12  24  47  77 109 157 206 269 337 399 488
#     4  11  24  44  71 101 151 203 259 333 402 471
#     4  11  24  44  71 106 148 199 263 328 400 475
#     4  11  24  43  69 104 150 203 260 334 402 477
#     4  11  24  44  68 107 148 194 268 322 400 480
#
# _framework density 25.761870999999999
#
# number of rings (size 3 to 8) (size 9 to 14) (size 15 to 20)
#    0.000    0.800    6.000    1.200    0.000    3.200 
#    0.000    2.000    0.000    0.000    0.000    0.000 
#    0.000    0.000    0.000    0.000    0.000    0.000 
#
# Total GULP energy -111382.790923 kJ/mol
# GULP energy per Si atom -5569.139546 kJ/mol
# Density = 2.570324 g / cm^3
# Si number density = 25.761871 Si / 1000 Ang^3
#
#
#
# Elastic Constant Matrix: (Units=GPa)
#
#
# Indices 1 2 3 4 5 6 
#
# 1 102.7212 40.7094 39.0089 0.0000 -9.1436 0.0000
# 2 40.7094 105.1025 28.8003 0.0000 6.1700 0.0000
# 3 39.0089 28.8003 109.8392 0.0000 -1.1513 0.0000
# 4 0.0000 0.0000 0.0000 22.1490 0.0000 1.7492
# 5 -9.1436 6.1700 -1.1513 0.0000 43.9537 0.0000
# 6 0.0000 0.0000 0.0000 1.7492 0.0000 50.5951
#
#
#
# Elastic Compliance Matrix: (Units=1/GPa)
#
#
# Indices 1 2 3 4 5 6 
#
# 1 0.013041 -0.004289 -0.003473 0.000000 0.003224 0.000000
# 2 -0.004289 0.011763 -0.001588 0.000000 -0.002585 0.000000
# 3 -0.003473 -0.001588 0.010752 0.000000 -0.000218 0.000000
# 4 0.000000 0.000000 0.000000 0.045272 0.000000 -0.001565
# 5 0.003224 -0.002585 -0.000218 0.000000 0.023779 0.000000
# 6 0.000000 0.000000 0.000000 -0.001565 0.000000 0.019819
#
#
# Mechanical properties :
#
#
# Convention : Reuss Voigt Hill
#
# Bulk Modulus (GPa) = 59.32857 59.41113 59.36985
# Shear Modulus (GPa) = 33.61498 37.28253 35.44876
#
# Velocity S-wave (km/s) = 3.61617 3.80833 3.71349
# Velocity P-wave (km/s) = 6.36515 6.51533 6.44068
#
# Compressibility (1/GPa) = 0.01685529
#
# Stress axis : x y z
#
# Youngs Moduli (GPa) = 76.68387 85.01537 93.00775
#
# Poissons Ratio (x) = 0.36460 0.32302
# Poissons Ratio (y) = 0.32887 0.14772
# Poissons Ratio (z) = 0.26632 0.13502
#
# Static dielectric constant tensor:
#      x y z
#    x 2.122770 0.000000 0.041960 
#    y 0.000000 2.342190 0.000000 
#    z 0.041960 0.000000 2.074950 
# 
# From -- ./inp_files/85969.got.cif
#   From: 2010.05.17/outbox.cif.g08.bks.cpg/sg15_43_cif.got.tgz:85969.got - 2010.06.03 18:47:42.
