data_PCOD9305014
_publ_section_title
;
Structure prediction by ZEFSAII (Michael W. Deem and Ramdas Pophale) SiO2 
 PCOD9305014
Probable space group: C 2/C
;
_chemical_formula_sum "Si O2"
_cell_formula_units_Z 56
_cell_length_a 24.156337
_cell_length_b 5.218408
_cell_length_c 18.498154
_cell_angle_alpha 90.000000
_cell_angle_beta 86.369591
_cell_angle_gamma 90.000000
_cell_volume 2327.153932
_symmetry_space_group_name_H-M "C 2/C"
_symmetry_group_IT_number 15
_symmetry_cell_setting 'monoclinic'
loop_
_space_group_symop_operation_xyz
x,y,z
-x,y,1/2-z
-x,-y,-z
x,-y,1/2+z
1/2+x,1/2+y,z
1/2-x,1/2+y,1/2-z
1/2-x,1/2-y,-z
1/2+x,1/2-y,1/2+z
loop_
_atom_site_type_symbol
_atom_site_label
_atom_site_fract_x
_atom_site_fract_y
_atom_site_fract_z
Si Si1 0.020394 0.295923 0.559077
Si Si2 0.293959 0.276957 0.395288
Si Si3 0.089014 0.000989 0.935397
Si Si4 0.110154 0.743471 0.785283
Si Si5 0.267487 0.992565 0.216003
Si Si6 0.208173 0.065622 0.961900
Si Si7 0.908508 0.729065 0.304264
O O1 0.962408 0.169167 0.584174
O O2 0.049322 0.334194 0.633873
O O3 0.000000 0.500000 0.500000
O O4 0.064960 0.122804 0.511036
O O5 0.262031 0.509586 0.359219
O O6 0.306505 0.347280 0.476859
O O7 0.349238 0.199273 0.349976
O O8 0.245682 0.066697 0.398592
O O9 0.147412 0.150100 0.941110
O O10 0.097241 0.803472 0.869480
O O11 0.174652 0.656593 0.781483
O O12 0.081874 0.490991 0.755403
O O13 0.095155 0.990865 0.735382
O O14 0.227648 0.780702 0.256844
O O15 0.250000 0.250000 0.000000
#
# Coordination Sequence:
#
# PCOD9305014 Si02
#       7
#     8   8   8   8   8   8   8
#     4  11  29  53  80 104 147 216 262 328 374 472
#     4  11  24  41  66 111 149 197 253 304 376 456
#     4  11  27  51  75 113 154 200 270 318 397 458
#     4  12  27  48  76 117 156 201 250 330 388 461
#     4  12  23  41  67 106 152 199 234 293 384 457
#     4  11  26  41  75 108 152 199 257 322 373 463
#     4  12  28  49  81 112 155 202 261 315 391 465
#
# _framework density 24.06373
#
# number of rings (size 3 to 8) (size 9 to 14) (size 15 to 20)
#    0.000    0.571    5.714    0.000   12.000    1.714 
#    0.000    0.000    0.000    0.000    0.000    0.000 
#    0.000    0.000    0.000    0.000    0.000    0.000 
#
# Total GULP energy -156290.990229 kJ/mol
# GULP energy per Si atom -5581.821080 kJ/mol
# Density = 2.400896 g / cm^3
# Si number density = 24.063730 Si / 1000 Ang^3
#
#
#
# Elastic Constant Matrix: (Units=GPa)
#
#
# Indices 1 2 3 4 5 6 
#
# 1 169.1362 30.6129 29.7993 0.0000 11.6184 0.0000
# 2 30.6129 81.7788 42.4338 0.0000 -2.3545 0.0000
# 3 29.7993 42.4338 75.1386 0.0000 11.6132 0.0000
# 4 0.0000 0.0000 0.0000 26.6547 0.0000 18.9021
# 5 11.6184 -2.3545 11.6132 0.0000 42.5429 0.0000
# 6 0.0000 0.0000 0.0000 18.9021 0.0000 22.2300
#
#
#
# Elastic Compliance Matrix: (Units=1/GPa)
#
#
# Indices 1 2 3 4 5 6 
#
# 1 0.006583 -0.001805 -0.001355 0.000000 -0.001528 0.000000
# 2 -0.001805 0.018395 -0.010343 0.000000 0.004334 0.000000
# 3 -0.001355 -0.010343 0.020587 0.000000 -0.005822 0.000000
# 4 0.000000 0.000000 0.000000 0.094497 0.000000 -0.080351
# 5 -0.001528 0.004334 -0.005822 0.000000 0.025752 0.000000
# 6 0.000000 0.000000 0.000000 -0.080351 0.000000 0.113306
#
#
# Mechanical properties :
#
#
# Convention : Reuss Voigt Hill
#
# Bulk Modulus (GPa) = 53.88112 59.08284 56.48198
# Shear Modulus (GPa) = 16.00960 33.16603 24.58781
#
# Velocity S-wave (km/s) = 2.58214 3.71652 3.20000
# Velocity P-wave (km/s) = 5.59728 6.55916 6.09722
#
# Compressibility (1/GPa) = 0.01855938
#
# Stress axis : x y z
#
# Youngs Moduli (GPa) = 151.91107 54.36216 48.57454
#
# Poissons Ratio (x) = 0.09812 0.06583
# Poissons Ratio (y) = 0.27419 0.50238
# Poissons Ratio (z) = 0.20587 0.56224
#
# Static dielectric constant tensor:
#      x y z
#    x 1.927890 0.000000 0.012480 
#    y 0.000000 2.021800 0.000000 
#    z 0.012480 0.000000 1.954740 
# 
# From -- ./inp_files/256509.got.cif
#   From: 2010.05.17/outbox.cif.g08.bks.cpg/sg15_129_cif.got.tgz:256509.got - 2010.06.03 18:47:42.
