data_PCOD9305862
_publ_section_title
;
Structure prediction by ZEFSAII (Michael W. Deem and Ramdas Pophale) SiO2 
 PCOD9305862
Probable space group: C 2/C
;
_chemical_formula_sum "Si O2"
_cell_formula_units_Z 32
_cell_length_a 7.457703
_cell_length_b 6.944613
_cell_length_c 27.452242
_cell_angle_alpha 90.000000
_cell_angle_beta 74.029182
_cell_angle_gamma 90.000000
_cell_volume 1366.897516
_symmetry_space_group_name_H-M "C 2/C"
_symmetry_group_IT_number 15
_symmetry_cell_setting 'monoclinic'
loop_
_space_group_symop_operation_xyz
x,y,z
-x,y,1/2-z
-x,-y,-z
x,-y,1/2+z
1/2+x,1/2+y,z
1/2-x,1/2+y,1/2-z
1/2-x,1/2-y,-z
1/2+x,1/2-y,1/2+z
loop_
_atom_site_type_symbol
_atom_site_label
_atom_site_fract_x
_atom_site_fract_y
_atom_site_fract_z
Si Si1 0.736514 0.803903 0.103333
Si Si2 0.980693 0.539783 0.307813
Si Si3 0.192169 0.910228 0.144277
Si Si4 0.664086 0.823767 0.556179
O O1 0.626615 0.606576 0.123067
O O2 0.948602 0.738585 0.078347
O O3 0.693799 0.930433 0.154588
O O4 0.681847 0.947955 0.063829
O O5 0.154509 0.471720 0.327574
O O6 0.000000 0.493309 0.250000
O O7 0.949612 0.767281 0.318252
O O8 0.265692 0.783228 0.093482
O O9 0.750000 0.750000 0.500000
#
# Coordination Sequence:
#
# PCOD9305862 Si02
#       4
#     8   8   8   8
#     4  11  24  48  69 109 148 189 244 305 353 446
#     4  11  28  47  75 105 143 193 244 304 373 435
#     4  11  25  48  70 106 146 186 244 303 356 444
#     4  11  26  47  77 110 149 198 244 303 372 435
#
# _framework density 23.410679999999999
#
# number of rings (size 3 to 8) (size 9 to 14) (size 15 to 20)
#    0.000    1.000    5.000    0.750   10.500    3.000 
#    0.000    0.000    0.000    0.000    0.000    0.000 
#    0.000    0.000    0.000    0.000    0.000    0.000 
#
# Total GULP energy -89410.649491 kJ/mol
# GULP energy per Si atom -5588.165593 kJ/mol
# Density = 2.335740 g / cm^3
# Si number density = 23.410680 Si / 1000 Ang^3
#
#
#
# Elastic Constant Matrix: (Units=GPa)
#
#
# Indices 1 2 3 4 5 6 
#
# 1 99.3253 38.4673 -7.5461 0.0000 3.0993 0.0000
# 2 38.4673 138.7708 -8.3338 0.0000 1.8365 0.0000
# 3 -7.5461 -8.3338 104.8891 0.0000 8.4711 0.0000
# 4 0.0000 0.0000 0.0000 24.4743 0.0000 2.2983
# 5 3.0993 1.8365 8.4711 0.0000 31.9467 0.0000
# 6 0.0000 0.0000 0.0000 2.2983 0.0000 47.0952
#
#
#
# Elastic Compliance Matrix: (Units=1/GPa)
#
#
# Indices 1 2 3 4 5 6 
#
# 1 0.011350 -0.003092 0.000660 0.000000 -0.001098 0.000000
# 2 -0.003092 0.008094 0.000443 0.000000 -0.000283 0.000000
# 3 0.000660 0.000443 0.009834 0.000000 -0.002697 0.000000
# 4 0.000000 0.000000 0.000000 0.041047 0.000000 -0.002003
# 5 -0.001098 -0.000283 -0.002697 0.000000 0.032140 0.000000
# 6 0.000000 0.000000 0.000000 -0.002003 0.000000 0.021331
#
#
# Mechanical properties :
#
#
# Convention : Reuss Voigt Hill
#
# Bulk Modulus (GPa) = 39.52598 43.12891 41.32745
# Shear Modulus (GPa) = 36.70861 42.06310 39.38586
#
# Velocity S-wave (km/s) = 3.96413 4.24341 4.10614
# Velocity P-wave (km/s) = 6.15409 6.51701 6.33815
#
# Compressibility (1/GPa) = 0.02529982
#
# Stress axis : x y z
#
# Youngs Moduli (GPa) = 88.10718 123.55422 101.68390
#
# Poissons Ratio (x) = 0.38203 -0.06707
# Poissons Ratio (y) = 0.27243 -0.04509
# Poissons Ratio (z) = -0.05811 -0.05479
#
# Static dielectric constant tensor:
#      x y z
#    x 1.967320 0.000000 0.005400 
#    y 0.000000 1.949580 0.000000 
#    z 0.005400 0.000000 1.825270 
# 
# From -- ./inp_files/306222.got.cif
#   From: 2010.05.17/outbox.cif.g08.bks.cpg/sg15_154_cif.got.tgz:306222.got - 2010.06.03 18:47:42.
