data_PCOD9305742
_publ_section_title
;
Structure prediction by ZEFSAII (Michael W. Deem and Ramdas Pophale) SiO2 
 PCOD9305742
Probable space group: C 2/C
;
_chemical_formula_sum "Si O2"
_cell_formula_units_Z 32
_cell_length_a 10.879642
_cell_length_b 22.611391
_cell_length_c 5.359602
_cell_angle_alpha 90.000000
_cell_angle_beta 61.623615
_cell_angle_gamma 90.000000
_cell_volume 1160.059765
_symmetry_space_group_name_H-M "C 2/C"
_symmetry_group_IT_number 15
_symmetry_cell_setting 'monoclinic'
loop_
_space_group_symop_operation_xyz
x,y,z
-x,y,1/2-z
-x,-y,-z
x,-y,1/2+z
1/2+x,1/2+y,z
1/2-x,1/2+y,1/2-z
1/2-x,1/2-y,-z
1/2+x,1/2-y,1/2+z
loop_
_atom_site_type_symbol
_atom_site_label
_atom_site_fract_x
_atom_site_fract_y
_atom_site_fract_z
Si Si1 0.892235 0.328903 0.068558
Si Si2 0.275378 0.481099 0.569139
Si Si3 0.500000 0.941382 0.250000
Si Si4 0.862288 0.857202 0.505171
Si Si5 0.000000 0.235205 0.250000
O O1 0.739877 0.327969 0.096672
O O2 0.884535 0.288325 0.323405
O O3 0.949042 0.393743 0.088890
O O4 0.000000 0.305211 0.750000
O O5 0.343094 0.482085 0.227842
O O6 0.273014 0.413943 0.675857
O O7 0.129613 0.512739 0.629942
O O8 0.000000 0.883191 0.250000
O O9 0.928892 0.810194 0.627002
#
# Coordination Sequence:
#
# PCOD9305742 Si02
#       5
#     8   8   4   8   4
#     4  11  25  50  82 112 150 201 272 335 390 472
#     4  12  27  48  79 117 163 207 267 325 397 479
#     4  11  24  46  82 120 148 209 264 336 394 469
#     4  12  29  48  74 116 160 207 258 328 404 479
#     4  11  28  50  80 108 156 207 268 324 406 467
#
# _framework density 27.584788
#
# number of rings (size 3 to 8) (size 9 to 14) (size 15 to 20)
#    0.000    0.500    2.500    3.750    5.250    7.000 
#    0.000    0.000    0.000    0.000    0.000    0.000 
#    0.000    0.000    0.000    0.000    0.000    0.000 
#
# Total GULP energy -89106.454182 kJ/mol
# GULP energy per Si atom -5569.153386 kJ/mol
# Density = 2.752200 g / cm^3
# Si number density = 27.584788 Si / 1000 Ang^3
#
#
#
# Elastic Constant Matrix: (Units=GPa)
#
#
# Indices 1 2 3 4 5 6 
#
# 1 243.3568 94.8175 61.5313 0.0000 30.1583 0.0000
# 2 94.8175 215.5419 16.8244 0.0000 15.4168 0.0000
# 3 61.5313 16.8244 61.0845 0.0000 13.3558 0.0000
# 4 0.0000 0.0000 0.0000-1046.2113 0.0000 -168.6152
# 5 30.1583 15.4168 13.3558 0.0000 55.8159 0.0000
# 6 0.0000 0.0000 0.0000 -168.6152 0.0000 34.2303
#
#
#
# Elastic Compliance Matrix: (Units=1/GPa)
#
#
# Indices 1 2 3 4 5 6 
#
# 1 0.006680 -0.002378 -0.005728 0.000000 -0.001582 0.000000
# 2 -0.002378 0.005647 0.000950 0.000000 -0.000502 0.000000
# 3 -0.005728 0.000950 0.022433 0.000000 -0.002535 0.000000
# 4 0.000000 0.000000 0.000000 -0.000533 0.000000 -0.002625
# 5 -0.001582 -0.000502 -0.002535 0.000000 0.019516 0.000000
# 6 0.000000 0.000000 0.000000 -0.002625 0.000000 0.016285
#
#
# Mechanical properties :
#
#
# Convention : Reuss Voigt Hill
#
# Bulk Modulus (GPa) = 48.90382 96.25883 72.58133
# Shear Modulus (GPa) = 54.84944 -168.11235 -56.63146
#
# Velocity S-wave (km/s) = 4.46398 -7.81512 -4.53592
# Velocity P-wave (km/s) = 6.65857 6.81641 1.03126
#
# Compressibility (1/GPa) = 0.02044830
#
# Stress axis : x y z
#
# Youngs Moduli (GPa) = 149.69538 177.06999 44.57625
#
# Poissons Ratio (x) = 0.42114 0.25534
# Poissons Ratio (y) = 0.35603 -0.04235
# Poissons Ratio (z) = 0.85748 -0.16823
#
# Static dielectric constant tensor:
#      x y z
#    x 2.080870 0.000000 -0.038680 
#    y 0.000000 2.131250 0.000000 
#    z -0.038680 0.000000 2.644750 
# 
# From -- ./inp_files/4236.got.cif
#   From: 2010.05.17/outbox.cif.g08.bks.cpg/sg15_3_cif.got.tgz:4236.got - 2010.06.03 18:47:42.
