data_PCOD9305524
_publ_section_title
;
Structure prediction by ZEFSAII (Michael W. Deem and Ramdas Pophale) SiO2 
 PCOD9305524
Probable space group: C 2/C
;
_chemical_formula_sum "Si O2"
_cell_formula_units_Z 56
_cell_length_a 8.220112
_cell_length_b 17.432175
_cell_length_c 23.999024
_cell_angle_alpha 90.000000
_cell_angle_beta 136.765176
_cell_angle_gamma 90.000000
_cell_volume 2355.630398
_symmetry_space_group_name_H-M "C 2/C"
_symmetry_group_IT_number 15
_symmetry_cell_setting 'monoclinic'
loop_
_space_group_symop_operation_xyz
x,y,z
-x,y,1/2-z
-x,-y,-z
x,-y,1/2+z
1/2+x,1/2+y,z
1/2-x,1/2+y,1/2-z
1/2-x,1/2-y,-z
1/2+x,1/2-y,1/2+z
loop_
_atom_site_type_symbol
_atom_site_label
_atom_site_fract_x
_atom_site_fract_y
_atom_site_fract_z
Si Si1 0.938140 0.182766 0.492261
Si Si2 0.111996 0.269272 0.217419
Si Si3 0.387733 0.068192 0.138813
Si Si4 0.350966 0.539362 0.654697
Si Si5 0.102079 0.405649 0.405021
Si Si6 0.879294 0.896696 0.813702
Si Si7 0.082011 0.802577 0.383871
O O1 0.723849 0.120810 0.437175
O O2 0.991108 0.203150 0.569642
O O3 0.833152 0.259875 0.438999
O O4 0.161948 0.140865 0.520410
O O5 0.027337 0.188675 0.172157
O O6 0.393165 0.261462 0.297072
O O7 0.000000 0.282344 0.250000
O O8 0.054009 0.342152 0.165651
O O9 0.251456 0.095564 0.160083
O O10 0.668309 0.081963 0.216949
O O11 0.332847 0.978281 0.117455
O O12 0.500000 0.545107 0.750000
O O13 0.417597 0.459072 0.644044
O O14 0.428603 0.609266 0.635198
O O15 0.072583 0.554036 0.595008
#
# Coordination Sequence:
#
# PCOD9305524 Si02
#       7
#     8   8   8   8   8   8   8
#     4  11  25  46  68 104 144 192 230 284 361 424
#     4  12  24  43  73 107 138 179 240 294 346 408
#     4  11  24  45  73  99 140 185 241 284 347 425
#     4  12  24  44  73 103 141 174 241 293 344 407
#     4  12  26  43  74 104 141 185 232 293 347 422
#     4  11  25  43  74 104 135 183 240 295 346 410
#     4  11  24  45  72 101 145 190 233 290 351 423
#
# _framework density 23.772828000000001
#
# number of rings (size 3 to 8) (size 9 to 14) (size 15 to 20)
#    0.000    0.571    5.714    1.714    4.000    0.571 
#    0.000    1.429    0.000    0.000    0.000    0.000 
#    0.000    0.000    0.000    0.000    0.000    0.000 
#
# Total GULP energy -156757.391952 kJ/mol
# GULP energy per Si atom -5598.478284 kJ/mol
# Density = 2.371872 g / cm^3
# Si number density = 23.772828 Si / 1000 Ang^3
#
#
#
# Elastic Constant Matrix: (Units=GPa)
#
#
# Indices 1 2 3 4 5 6 
#
# 1 55.4682 12.7543 0.8882 -0.0001 16.2683 -0.0001
# 2 12.7543 159.1723 27.4105 -0.0001 -4.2778 0.0000
# 3 0.8882 27.4105 70.7949 -0.0003 13.0312 0.0000
# 4 -0.0001 -0.0001 -0.0003 26.9144 -0.0001 15.7117
# 5 16.2683 -4.2778 13.0312 -0.0001 23.2373 0.0000
# 6 -0.0001 0.0000 0.0000 15.7117 0.0000 -1.0029
#
#
#
# Elastic Compliance Matrix: (Units=1/GPa)
#
#
# Indices 1 2 3 4 5 6 
#
# 1 0.024786 -0.003367 0.004796 0.000000 -0.020662 0.000000
# 2 -0.003367 0.007383 -0.003903 0.000000 0.005906 0.000000
# 3 0.004796 -0.003903 0.018206 0.000000 -0.014286 0.000000
# 4 0.000000 0.000000 0.000000 0.003662 0.000000 0.057373
# 5 -0.020662 0.005906 -0.014286 0.000000 0.066598 0.000000
# 6 0.000000 0.000000 0.000000 0.057373 0.000000 -0.098281
#
#
# Mechanical properties :
#
#
# Convention : Reuss Voigt Hill
#
# Bulk Modulus (GPa) = 22.01405 40.83792 31.42599
# Shear Modulus (GPa) = 117.80051 26.12194 71.96123
#
# Velocity S-wave (km/s) = 7.04700 3.31843 5.50782
# Velocity P-wave (km/s) = 8.68872 5.64786 7.32776
#
# Compressibility (1/GPa) = 0.04542553
#
# Stress axis : x y z
#
# Youngs Moduli (GPa) = 40.34596 135.44229 54.92669
#
# Poissons Ratio (x) = 0.45606 -0.26343
# Poissons Ratio (y) = 0.13585 0.21440
# Poissons Ratio (z) = -0.19350 0.52869
#
# Static dielectric constant tensor:
#      x y z
#    x 1.914540 0.000000 0.017620 
#    y 0.000000 1.858290 0.000000 
#    z 0.017620 0.000000 1.945530 
# 
# From -- ./inp_files/289765.got.cif
#   From: 2010.05.17/outbox.cif.g08.bks.cpg/sg15_145_cif.got.tgz:289765.got - 2010.06.03 18:47:42.
