data_PCOD9305369
_publ_section_title
;
Structure prediction by ZEFSAII (Michael W. Deem and Ramdas Pophale) SiO2 
 PCOD9305369
Probable space group: C 2/C
;
_chemical_formula_sum "Si O2"
_cell_formula_units_Z 40
_cell_length_a 17.652266
_cell_length_b 4.805663
_cell_length_c 20.225955
_cell_angle_alpha 90.000000
_cell_angle_beta 110.268214
_cell_angle_gamma 90.000000
_cell_volume 1609.545552
_symmetry_space_group_name_H-M "C 2/C"
_symmetry_group_IT_number 15
_symmetry_cell_setting 'monoclinic'
loop_
_space_group_symop_operation_xyz
x,y,z
-x,y,1/2-z
-x,-y,-z
x,-y,1/2+z
1/2+x,1/2+y,z
1/2-x,1/2+y,1/2-z
1/2-x,1/2-y,-z
1/2+x,1/2-y,1/2+z
loop_
_atom_site_type_symbol
_atom_site_label
_atom_site_fract_x
_atom_site_fract_y
_atom_site_fract_z
Si Si1 0.280840 0.772684 0.934335
Si Si2 0.994645 0.500891 0.102779
Si Si3 0.385514 0.736765 0.466653
Si Si4 0.710154 0.198012 0.772819
Si Si5 0.461860 0.481200 0.805223
O O1 0.362188 0.583868 0.957633
O O2 0.226229 0.680129 0.856207
O O3 0.250000 0.750000 0.000000
O O4 0.195229 0.409224 0.071955
O O5 0.047504 0.329620 0.065522
O O6 0.978038 0.261852 0.150913
O O7 0.043604 0.758706 0.147613
O O8 0.918549 0.648820 0.046064
O O9 0.774792 0.405290 0.758139
O O10 0.623010 0.328074 0.731008
O O11 0.500000 0.596432 0.750000
#
# Coordination Sequence:
#
# PCOD9305369 Si02
#       5
#     8   8   8   8   8
#     4  12  26  44  70 104 144 182 237 296 354 417
#     4  11  24  44  72 100 138 184 234 290 352 432
#     4  11  24  44  72 100 138 183 234 286 353 429
#     4  12  26  46  74 100 141 192 239 288 356 439
#     4  12  26  44  70 104 144 182 238 298 357 419
#
# _framework density 24.851734
#
# number of rings (size 3 to 8) (size 9 to 14) (size 15 to 20)
#    0.000    0.400    0.000    9.600    5.600    3.200 
#    0.000    0.000    0.000    0.000    0.000    0.000 
#    0.000    0.000    0.000    0.000    0.000    0.000 
#
# Total GULP energy -112095.145926 kJ/mol
# GULP energy per Si atom -5604.757296 kJ/mol
# Density = 2.479517 g / cm^3
# Si number density = 24.851734 Si / 1000 Ang^3
#
#
#
# Elastic Constant Matrix: (Units=GPa)
#
#
# Indices 1 2 3 4 5 6 
#
# 1 38.1481 11.2702 18.9028 0.0000 1.9167 0.0000
# 2 11.2702 117.6963 34.3245 0.0004 3.4707 -0.0001
# 3 18.9028 34.3245 133.8059 0.0001 6.6163 -0.0001
# 4 0.0000 0.0004 0.0001 32.5453 -0.0001 2.4547
# 5 1.9167 3.4707 6.6163 -0.0001 33.0916 0.0001
# 6 0.0000 -0.0001 -0.0001 2.4547 0.0001 30.1059
#
#
#
# Elastic Compliance Matrix: (Units=1/GPa)
#
#
# Indices 1 2 3 4 5 6 
#
# 1 0.028510 -0.001669 -0.003562 0.000000 -0.000764 0.000000
# 2 -0.001669 0.009289 -0.002125 0.000000 -0.000453 0.000000
# 3 -0.003562 -0.002125 0.008585 0.000000 -0.001287 0.000000
# 4 0.000000 0.000000 0.000000 0.030916 0.000000 -0.002521
# 5 -0.000764 -0.000453 -0.001287 0.000000 0.030568 0.000000
# 6 0.000000 0.000000 0.000000 -0.002521 0.000000 0.033422
#
#
# Mechanical properties :
#
#
# Convention : Reuss Voigt Hill
#
# Bulk Modulus (GPa) = 31.57164 46.51614 39.04389
# Shear Modulus (GPa) = 30.01932 34.15877 32.08904
#
# Velocity S-wave (km/s) = 3.47931 3.71145 3.59725
# Velocity P-wave (km/s) = 5.37330 6.09299 5.74443
#
# Compressibility (1/GPa) = 0.03167400
#
# Stress axis : x y z
#
# Youngs Moduli (GPa) = 35.07557 107.65131 116.47691
#
# Poissons Ratio (x) = 0.17964 0.41486
# Poissons Ratio (y) = 0.05853 0.24749
# Poissons Ratio (z) = 0.12493 0.22874
#
# Static dielectric constant tensor:
#      x y z
#    x 1.958440 0.000000 0.010830 
#    y 0.000000 1.882730 0.000000 
#    z 0.010830 0.000000 2.040670 
# 
# From -- ./inp_files/208122.got.cif
#   From: 2010.05.17/outbox.cif.g08.bks.cpg/sg15_105_cif.got.tgz:208122.got - 2010.06.03 18:47:42.
