data_PCOD9305756
_publ_section_title
;
Structure prediction by ZEFSAII (Michael W. Deem and Ramdas Pophale) SiO2 
 PCOD9305756
Probable space group: C 2/C
;
_chemical_formula_sum "Si O2"
_cell_formula_units_Z 32
_cell_length_a 22.804913
_cell_length_b 6.032218
_cell_length_c 9.428895
_cell_angle_alpha 90.000000
_cell_angle_beta 70.153897
_cell_angle_gamma 90.000000
_cell_volume 1220.042246
_symmetry_space_group_name_H-M "C 2/C"
_symmetry_group_IT_number 15
_symmetry_cell_setting 'monoclinic'
loop_
_space_group_symop_operation_xyz
x,y,z
-x,y,1/2-z
-x,-y,-z
x,-y,1/2+z
1/2+x,1/2+y,z
1/2-x,1/2+y,1/2-z
1/2-x,1/2-y,-z
1/2+x,1/2-y,1/2+z
loop_
_atom_site_type_symbol
_atom_site_label
_atom_site_fract_x
_atom_site_fract_y
_atom_site_fract_z
Si Si1 0.801377 0.824852 0.846032
Si Si2 0.161074 0.141257 0.466435
Si Si3 0.085109 0.494115 0.173102
Si Si4 0.946822 0.186795 0.540241
O O1 0.785260 0.829914 0.694167
O O2 0.862795 0.669338 0.803326
O O3 0.750000 0.750000 0.000000
O O4 0.817958 0.062076 0.897410
O O5 0.121455 0.357892 0.527476
O O6 0.116690 0.948355 0.439489
O O7 0.042853 0.342873 0.104654
O O8 0.058573 0.664519 0.313002
O O9 0.000000 0.000000 0.500000
#
# Coordination Sequence:
#
# PCOD9305756 Si02
#       4
#     8   8   8   8
#     4  11  26  43  75 110 148 199 243 307 383 451
#     4  11  24  47  69 108 152 187 253 306 361 465
#     4  11  24  50  73 107 154 192 252 313 375 455
#     4  11  26  50  77 106 147 199 252 314 381 446
#
# _framework density 26.228598999999999
#
# number of rings (size 3 to 8) (size 9 to 14) (size 15 to 20)
#    0.000    1.000    5.000    0.000    3.500    3.000 
#    4.500    1.250    0.000    0.000    0.000    0.000 
#    0.000    0.000    0.000    0.000    0.000    0.000 
#
# Total GULP energy -89622.744477 kJ/mol
# GULP energy per Si atom -5601.421530 kJ/mol
# Density = 2.616890 g / cm^3
# Si number density = 26.228599 Si / 1000 Ang^3
#
#
#
# Elastic Constant Matrix: (Units=GPa)
#
#
# Indices 1 2 3 4 5 6 
#
# 1 58.1796 29.3365 31.3319 0.0000 10.9608 0.0000
# 2 29.3365 121.7602 65.5334 0.0000 13.5057 0.0000
# 3 31.3319 65.5334 242.0326 0.0000 2.7679 0.0000
# 4 0.0000 0.0000 0.0000 57.3011 0.0000 -0.5905
# 5 10.9608 13.5057 2.7679 0.0000 30.9549 0.0000
# 6 0.0000 0.0000 0.0000 -0.5905 0.0000 49.0813
#
#
#
# Elastic Compliance Matrix: (Units=1/GPa)
#
#
# Indices 1 2 3 4 5 6 
#
# 1 0.020947 -0.003496 -0.001700 0.000000 -0.005740 0.000000
# 2 -0.003496 0.010709 -0.002410 0.000000 -0.003219 0.000000
# 3 -0.001700 -0.002410 0.004991 0.000000 0.001207 0.000000
# 4 0.000000 0.000000 0.000000 0.017454 0.000000 0.000210
# 5 -0.005740 -0.003219 0.001207 0.000000 0.035634 0.000000
# 6 0.000000 0.000000 0.000000 0.000210 0.000000 0.020377
#
#
# Mechanical properties :
#
#
# Convention : Reuss Voigt Hill
#
# Bulk Modulus (GPa) = 46.64967 74.93066 60.79017
# Shear Modulus (GPa) = 37.74466 47.18549 42.46507
#
# Velocity S-wave (km/s) = 3.79762 4.24607 4.02809
# Velocity P-wave (km/s) = 6.08717 7.25735 6.69786
#
# Compressibility (1/GPa) = 0.02143638
#
# Stress axis : x y z
#
# Youngs Moduli (GPa) = 47.73841 93.37521 200.37929
#
# Poissons Ratio (x) = 0.32640 0.34057
# Poissons Ratio (y) = 0.16687 0.48299
# Poissons Ratio (z) = 0.08114 0.22507
#
# Static dielectric constant tensor:
#      x y z
#    x 2.301530 0.000000 -0.023180 
#    y 0.000000 2.073500 0.000000 
#    z -0.023180 0.000000 2.018200 
# 
# From -- ./inp_files/67959.got.cif
#   From: 2010.05.17/outbox.cif.g08.bks.cpg/sg15_34_cif.got.tgz:67959.got - 2010.06.03 18:47:42.
