data_PCOD9305783
_publ_section_title
;
Structure prediction by ZEFSAII (Michael W. Deem and Ramdas Pophale) SiO2 
 PCOD9305783
Probable space group: C 2/C
;
_chemical_formula_sum "Si O2"
_cell_formula_units_Z 64
_cell_length_a 13.918325
_cell_length_b 15.059869
_cell_length_c 16.294461
_cell_angle_alpha 90.000000
_cell_angle_beta 56.411763
_cell_angle_gamma 90.000000
_cell_volume 2845.190368
_symmetry_space_group_name_H-M "C 2/C"
_symmetry_group_IT_number 15
_symmetry_cell_setting 'monoclinic'
loop_
_space_group_symop_operation_xyz
x,y,z
-x,y,1/2-z
-x,-y,-z
x,-y,1/2+z
1/2+x,1/2+y,z
1/2-x,1/2+y,1/2-z
1/2-x,1/2-y,-z
1/2+x,1/2-y,1/2+z
loop_
_atom_site_type_symbol
_atom_site_label
_atom_site_fract_x
_atom_site_fract_y
_atom_site_fract_z
Si Si1 0.989462 0.859349 0.666767
Si Si2 0.760290 0.193189 0.211336
Si Si3 0.509776 0.546159 0.844843
Si Si4 0.846859 0.690660 0.911390
Si Si5 0.863886 0.793487 0.485729
Si Si6 0.010536 0.648923 0.337762
Si Si7 0.495631 0.966008 0.408418
Si Si8 0.262517 0.113743 0.773453
O O1 0.856112 0.838034 0.727138
O O2 0.000000 0.899964 0.750000
O O3 0.052958 0.765638 0.637544
O O4 0.025070 0.947943 0.601414
O O5 0.646278 0.139481 0.282520
O O6 0.736946 0.296434 0.235022
O O7 0.822633 0.182523 0.095438
O O8 0.500000 0.562937 0.750000
O O9 0.421970 0.619857 0.920586
O O10 0.642134 0.560872 0.815960
O O11 0.902435 0.611111 0.937768
O O12 0.798760 0.647737 0.848691
O O13 0.750000 0.750000 0.000000
O O14 0.750000 0.750000 0.500000
O O15 0.958476 0.715772 0.428806
O O16 0.000000 0.685460 0.250000
O O17 0.958195 0.551579 0.372183
O O18 0.621590 0.931485 0.318578
O O19 0.500000 0.000000 0.500000
#
# Coordination Sequence:
#
# PCOD9305783 Si02
#       8
#     8   8   8   8   8   8   8   8
#     4  11  24  47  72 102 141 194 244 305 377 453
#     4  12  24  42  78 101 148 197 253 307 390 450
#     4  11  26  46  75 108 151 195 255 319 388 458
#     4  12  28  48  78 112 152 200 257 316 386 466
#     4  12  25  44  69 108 149 199 252 313 385 470
#     4  12  25  46  72 105 152 198 249 312 389 453
#     4  12  28  48  78 112 151 200 263 320 387 465
#     4  12  24  49  79 107 154 201 256 316 392 461
#
# _framework density 22.494101000000001
#
# number of rings (size 3 to 8) (size 9 to 14) (size 15 to 20)
#    0.000    0.250    5.000    3.750    3.500    3.500 
#    2.250    0.000    0.000    0.000    0.000    0.000 
#    0.000    0.000    0.000    0.000    0.000    0.000 
#
# Total GULP energy -178453.060831 kJ/mol
# GULP energy per Si atom -5576.658151 kJ/mol
# Density = 2.244290 g / cm^3
# Si number density = 22.494101 Si / 1000 Ang^3
#
#
#
# Elastic Constant Matrix: (Units=GPa)
#
#
# Indices 1 2 3 4 5 6 
#
# 1 116.4652 10.2418 41.8957 0.0000 -14.0454 0.0000
# 2 10.2418 131.2235 32.0629 0.0000 -1.6318 0.0000
# 3 41.8957 32.0629 100.2974 0.0000 -5.8693 0.0000
# 4 0.0000 0.0000 0.0000 5.3873 0.0000 1.3185
# 5 -14.0454 -1.6318 -5.8693 0.0000 25.8366 0.0000
# 6 0.0000 0.0000 0.0000 1.3185 0.0000 26.8850
#
#
#
# Elastic Compliance Matrix: (Units=1/GPa)
#
#
# Indices 1 2 3 4 5 6 
#
# 1 0.010682 0.000268 -0.004264 0.000000 0.004855 0.000000
# 2 0.000268 0.008273 -0.002754 0.000000 0.000043 0.000000
# 3 -0.004264 -0.002754 0.012654 0.000000 0.000383 0.000000
# 4 0.000000 0.000000 0.000000 0.187876 0.000000 -0.009214
# 5 0.004855 0.000043 0.000383 0.000000 0.041434 0.000000
# 6 0.000000 0.000000 0.000000 -0.009214 0.000000 0.037647
#
#
# Mechanical properties :
#
#
# Convention : Reuss Voigt Hill
#
# Bulk Modulus (GPa) = 55.21772 57.37634 56.29703
# Shear Modulus (GPa) = 15.71818 29.20749 22.46284
#
# Velocity S-wave (km/s) = 2.64629 3.60731 3.16351
# Velocity P-wave (km/s) = 5.82564 6.55080 6.19883
#
# Compressibility (1/GPa) = 0.01811013
#
# Stress axis : x y z
#
# Youngs Moduli (GPa) = 93.61578 120.87268 79.02455
#
# Poissons Ratio (x) = -0.03245 0.33694
# Poissons Ratio (y) = -0.02513 0.21766
# Poissons Ratio (z) = 0.39915 0.33293
#
# Static dielectric constant tensor:
#      x y z
#    x 1.799930 0.000000 0.076240 
#    y 0.000000 2.108910 0.000000 
#    z 0.076240 0.000000 1.819850 
# 
# From -- ./inp_files/205703.got.cif
#   From: 2010.05.17/outbox.cif.g08.bks.cpg/sg15_103_cif.got.tgz:205703.got - 2010.06.03 18:47:42.
