data_PCOD9305770
_publ_section_title
;
Structure prediction by ZEFSAII (Michael W. Deem and Ramdas Pophale) SiO2 
 PCOD9305770
Probable space group: C 2/C
;
_chemical_formula_sum "Si O2"
_cell_formula_units_Z 44
_cell_length_a 6.907830
_cell_length_b 26.592621
_cell_length_c 11.939002
_cell_angle_alpha 90.000000
_cell_angle_beta 105.557908
_cell_angle_gamma 90.000000
_cell_volume 2112.804728
_symmetry_space_group_name_H-M "C 2/C"
_symmetry_group_IT_number 15
_symmetry_cell_setting 'monoclinic'
loop_
_space_group_symop_operation_xyz
x,y,z
-x,y,1/2-z
-x,-y,-z
x,-y,1/2+z
1/2+x,1/2+y,z
1/2-x,1/2+y,1/2-z
1/2-x,1/2-y,-z
1/2+x,1/2-y,1/2+z
loop_
_atom_site_type_symbol
_atom_site_label
_atom_site_fract_x
_atom_site_fract_y
_atom_site_fract_z
Si Si1 0.346591 0.662506 0.326067
Si Si2 0.000000 0.037682 0.750000
Si Si3 0.500000 0.242550 0.250000
Si Si4 0.198801 0.600455 0.854849
Si Si5 0.000000 0.411549 0.750000
Si Si6 0.359404 0.294727 0.446023
Si Si7 0.687693 0.031877 0.072188
O O1 0.500000 0.648354 0.250000
O O2 0.201831 0.709139 0.273157
O O3 0.485547 0.678100 0.448560
O O4 0.181537 0.620905 0.329723
O O5 0.867472 0.074669 0.804893
O O6 0.872362 0.002462 0.644109
O O7 0.486339 0.273848 0.361323
O O8 0.216968 0.660361 0.879414
O O9 0.000000 0.590596 0.750000
O O10 0.220030 0.572448 0.978397
O O11 0.107356 0.442125 0.671060
O O12 0.250000 0.250000 0.500000
O O13 0.500000 0.000000 0.000000
#
# Coordination Sequence:
#
# PCOD9305770 Si02
#       7
#     8   4   4   8   4   8   8
#     4  11  24  47  71 103 145 189 247 301 368 435
#     4  12  27  52  79 112 150 199 246 313 388 444
#     4  11  25  46  70 102 140 192 248 303 365 432
#     4  12  28  49  75 112 152 196 252 312 373 449
#     4  11  28  44  73 110 146 191 240 308 373 446
#     4  12  27  45  76 104 148 200 247 310 367 441
#     4  12  26  49  78 109 151 193 249 307 377 456
#
# _framework density 20.825399000000001
#
# number of rings (size 3 to 8) (size 9 to 14) (size 15 to 20)
#    0.000    0.364    3.636    3.818   11.455    1.455 
#    0.000    0.000    0.000    0.000    0.000    0.000 
#    0.000    0.000    0.000    0.000    0.000    0.000 
#
# Total GULP energy -122912.409948 kJ/mol
# GULP energy per Si atom -5586.927725 kJ/mol
# Density = 2.077800 g / cm^3
# Si number density = 20.825399 Si / 1000 Ang^3
#
#
#
# Elastic Constant Matrix: (Units=GPa)
#
#
# Indices 1 2 3 4 5 6 
#
# 1 120.5828 49.3091 41.0833 0.0000 -4.8608 0.0000
# 2 49.3091 104.0820 32.0190 0.0000 -6.1315 0.0000
# 3 41.0833 32.0190 95.7967 0.0000 3.3571 0.0000
# 4 0.0000 0.0000 0.0000 18.2760 0.0000 -50.2651
# 5 -4.8608 -6.1315 3.3571 0.0000 48.2881 0.0000
# 6 0.0000 0.0000 0.0000 -50.2651 0.0000 -90.7705
#
#
#
# Elastic Compliance Matrix: (Units=1/GPa)
#
#
# Indices 1 2 3 4 5 6 
#
# 1 0.011218 -0.004209 -0.003433 0.000000 0.000833 0.000000
# 2 -0.004209 0.012415 -0.002391 0.000000 0.001319 0.000000
# 3 -0.003433 -0.002391 0.012764 0.000000 -0.001537 0.000000
# 4 0.000000 0.000000 0.000000 0.021687 0.000000 -0.012009
# 5 0.000833 0.001319 -0.001537 0.000000 0.021067 0.000000
# 6 0.000000 0.000000 0.000000 -0.012009 0.000000 -0.004367
#
#
# Mechanical properties :
#
#
# Convention : Reuss Voigt Hill
#
# Bulk Modulus (GPa) = 61.23411 62.80936 62.02174
# Shear Modulus (GPa) = 49.85367 8.36206 29.10787
#
# Velocity S-wave (km/s) = 4.89805 2.00600 3.74265
# Velocity P-wave (km/s) = 7.83934 5.96581 6.96585
#
# Compressibility (1/GPa) = 0.01633077
#
# Stress axis : x y z
#
# Youngs Moduli (GPa) = 89.14622 80.54754 78.34538
#
# Poissons Ratio (x) = 0.33903 0.26897
# Poissons Ratio (y) = 0.37523 0.18730
# Poissons Ratio (z) = 0.30605 0.19256
#
# Static dielectric constant tensor:
#      x y z
#    x 1.687390 0.000000 -0.005660 
#    y 0.000000 1.707180 0.000000 
#    z -0.005660 0.000000 1.722010 
# 
# From -- ./inp_files/73929.got.cif
#   From: 2010.05.17/outbox.cif.g08.bks.cpg/sg15_37_cif.got.tgz:73929.got - 2010.06.03 18:47:42.
