data_PCOD9305896
_publ_section_title
;
Structure prediction by ZEFSAII (Michael W. Deem and Ramdas Pophale) SiO2 
 PCOD9305896
Probable space group: C 2/C
;
_chemical_formula_sum "Si O2"
_cell_formula_units_Z 40
_cell_length_a 19.202014
_cell_length_b 12.449953
_cell_length_c 7.776264
_cell_angle_alpha 90.000000
_cell_angle_beta 115.880293
_cell_angle_gamma 90.000000
_cell_volume 1672.580600
_symmetry_space_group_name_H-M "C 2/C"
_symmetry_group_IT_number 15
_symmetry_cell_setting 'monoclinic'
loop_
_space_group_symop_operation_xyz
x,y,z
-x,y,1/2-z
-x,-y,-z
x,-y,1/2+z
1/2+x,1/2+y,z
1/2-x,1/2+y,1/2-z
1/2-x,1/2-y,-z
1/2+x,1/2-y,1/2+z
loop_
_atom_site_type_symbol
_atom_site_label
_atom_site_fract_x
_atom_site_fract_y
_atom_site_fract_z
Si Si1 0.871645 0.651321 0.914289
Si Si2 0.658608 0.078455 0.236254
Si Si3 0.469748 0.760892 0.019342
Si Si4 0.177513 0.875857 0.745264
Si Si5 0.920841 0.958337 0.558467
O O1 0.870911 0.543534 0.801710
O O2 0.824206 0.748357 0.779438
O O3 0.958886 0.696724 0.015920
O O4 0.160870 0.621469 0.433550
O O5 0.740569 0.082193 0.229774
O O6 0.599289 0.155792 0.074353
O O7 0.500000 0.758059 0.250000
O O8 0.440480 0.640175 0.950664
O O9 0.148939 0.911037 0.901263
O O10 0.112122 0.933962 0.558466
O O11 0.000000 0.974934 0.750000
#
# Coordination Sequence:
#
# PCOD9305896 Si02
#       5
#     8   8   8   8   8
#     4  12  26  48  70 110 145 197 244 293 369 435
#     4  12  28  45  76 107 152 188 246 303 364 435
#     4  11  24  48  74 104 145 195 242 297 357 434
#     4  12  27  47  76 109 150 189 245 303 370 425
#     4  11  25  46  74 108 146 191 247 295 363 433
#
# _framework density 23.915140000000001
#
# number of rings (size 3 to 8) (size 9 to 14) (size 15 to 20)
#    0.000    0.400    4.000    4.800    5.600    0.800 
#    0.000    0.000    0.000    0.000    0.000    0.000 
#    0.000    0.000    0.000    0.000    0.000    0.000 
#
# Total GULP energy -112103.843916 kJ/mol
# GULP energy per Si atom -5605.192196 kJ/mol
# Density = 2.386071 g / cm^3
# Si number density = 23.915140 Si / 1000 Ang^3
#
#
#
# Elastic Constant Matrix: (Units=GPa)
#
#
# Indices 1 2 3 4 5 6 
#
# 1 166.8665 9.0692 -4.0817 0.0000 10.8201 0.0000
# 2 9.0692 138.1942 14.3398 0.0000 4.5194 0.0000
# 3 -4.0817 14.3398 10.1177 0.0000 7.6937 0.0000
# 4 0.0000 0.0000 0.0000 -12.3455 0.0000 16.9796
# 5 10.8201 4.5194 7.6937 0.0000 41.3259 0.0000
# 6 0.0000 0.0000 0.0000 16.9796 0.0000 32.3993
#
#
#
# Elastic Compliance Matrix: (Units=1/GPa)
#
#
# Indices 1 2 3 4 5 6 
#
# 1 0.006362 -0.000946 0.005936 0.000000 -0.002668 0.000000
# 2 -0.000946 0.008708 -0.014198 0.000000 0.001939 0.000000
# 3 0.005936 -0.014198 0.141370 0.000000 -0.026321 0.000000
# 4 0.000000 0.000000 0.000000 -0.047072 0.000000 0.024669
# 5 -0.002668 0.001939 -0.026321 0.000000 0.029585 0.000000
# 6 0.000000 0.000000 0.000000 0.024669 0.000000 0.017936
#
#
# Mechanical properties :
#
#
# Convention : Reuss Voigt Hill
#
# Bulk Modulus (GPa) = 7.24512 39.31479 23.27995
# Shear Modulus (GPa) = 22.59242 31.99934 27.29588
#
# Velocity S-wave (km/s) = 3.07692 3.66189 3.38207
# Velocity P-wave (km/s) = 3.95718 5.86125 5.00068
#
# Compressibility (1/GPa) = 0.13802403
#
# Stress axis : x y z
#
# Youngs Moduli (GPa) = 157.17278 114.83466 7.07366
#
# Poissons Ratio (x) = 0.10867 -0.04199
# Poissons Ratio (y) = 0.14873 0.10043
# Poissons Ratio (z) = -0.93304 1.63044
#
# Static dielectric constant tensor:
#      x y z
#    x 1.909290 0.000000 -0.030370 
#    y 0.000000 1.855160 0.000000 
#    z -0.030370 0.000000 1.924170 
# 
# From -- ./inp_files/110743.got.cif
#   From: 2010.05.17/outbox.cif.g08.bks.cpg/sg15_56_cif.got.tgz:110743.got - 2010.06.03 18:47:42.
