data_PCOD9305919
_publ_section_title
;
Structure prediction by ZEFSAII (Michael W. Deem and Ramdas Pophale) SiO2 
 PCOD9305919
Probable space group: C 2/C
;
_chemical_formula_sum "Si O2"
_cell_formula_units_Z 24
_cell_length_a 13.062211
_cell_length_b 7.081440
_cell_length_c 10.437735
_cell_angle_alpha 90.000000
_cell_angle_beta 74.257890
_cell_angle_gamma 90.000000
_cell_volume 929.270056
_symmetry_space_group_name_H-M "C 2/C"
_symmetry_group_IT_number 15
_symmetry_cell_setting 'monoclinic'
loop_
_space_group_symop_operation_xyz
x,y,z
-x,y,1/2-z
-x,-y,-z
x,-y,1/2+z
1/2+x,1/2+y,z
1/2-x,1/2+y,1/2-z
1/2-x,1/2-y,-z
1/2+x,1/2-y,1/2+z
loop_
_atom_site_type_symbol
_atom_site_label
_atom_site_fract_x
_atom_site_fract_y
_atom_site_fract_z
Si Si1 0.226803 0.978842 0.507686
Si Si2 0.408683 0.489410 0.197059
Si Si3 0.539130 0.895579 0.609389
O O1 0.250000 0.750000 0.500000
O O2 0.145451 0.036274 0.420395
O O3 0.183579 0.025155 0.664661
O O4 0.334582 0.089916 0.439903
O O5 0.500000 0.596624 0.250000
O O6 0.472637 0.298643 0.138990
O O7 0.500000 0.997534 0.750000
O O8 0.500000 0.000000 0.500000
#
# Coordination Sequence:
#
# PCOD9305919 Si02
#       3
#     8   8   8
#     4  12  26  51  81 114 155 209 261 325 396 464
#     4  11  27  50  76 115 157 206 262 325 390 471
#     4  11  24  48  77 113 155 205 258 322 392 466
#
# _framework density 25.826720999999999
#
# number of rings (size 3 to 8) (size 9 to 14) (size 15 to 20)
#    0.000    0.667    3.333    3.000    4.667    6.667 
#   18.000    0.000    0.000    0.000    0.000    0.000 
#    0.000    0.000    0.000    0.000    0.000    0.000 
#
# Total GULP energy -67063.845166 kJ/mol
# GULP energy per Si atom -5588.653764 kJ/mol
# Density = 2.576794 g / cm^3
# Si number density = 25.826721 Si / 1000 Ang^3
#
#
#
# Elastic Constant Matrix: (Units=GPa)
#
#
# Indices 1 2 3 4 5 6 
#
# 1 154.3675 54.0150 82.5056 0.0000 17.5815 0.0000
# 2 54.0150 153.6875 61.5991 0.0000 -17.6780 0.0000
# 3 82.5056 61.5991 270.4268 0.0000 -8.1389 0.0000
# 4 0.0000 0.0000 0.0000 -6.7842 0.0000 11.6562
# 5 17.5815 -17.6780 -8.1389 0.0000 82.6641 0.0000
# 6 0.0000 0.0000 0.0000 11.6562 0.0000 34.7789
#
#
#
# Elastic Compliance Matrix: (Units=1/GPa)
#
#
# Indices 1 2 3 4 5 6 
#
# 1 0.008839 -0.002528 -0.002200 0.000000 -0.002637 0.000000
# 2 -0.002528 0.008043 -0.000996 0.000000 0.002160 0.000000
# 3 -0.002200 -0.000996 0.004617 0.000000 0.000710 0.000000
# 4 0.000000 0.000000 0.000000 -0.093539 0.000000 0.031350
# 5 -0.002637 0.002160 0.000710 0.000000 0.013190 0.000000
# 6 0.000000 0.000000 0.000000 0.031350 0.000000 0.018246
#
#
# Mechanical properties :
#
#
# Convention : Reuss Voigt Hill
#
# Bulk Modulus (GPa) = 99.49243 108.30235 103.89739
# Shear Modulus (GPa) = -193.75705 47.48925 -73.13390
#
# Velocity S-wave (km/s) = -8.67092 4.29273 -5.32716
# Velocity P-wave (km/s) = 7.85110 8.16060 1.57411
#
# Compressibility (1/GPa) = 0.01005102
#
# Stress axis : x y z
#
# Youngs Moduli (GPa) = 113.13552 124.33623 216.57639
#
# Poissons Ratio (x) = 0.31432 0.47652
# Poissons Ratio (y) = 0.28601 0.21565
# Poissons Ratio (z) = 0.24893 0.12381
#
# Static dielectric constant tensor:
#      x y z
#    x 2.045270 0.000000 -0.012720 
#    y 0.000000 2.203440 0.000000 
#    z -0.012720 0.000000 2.115060 
# 
# From -- ./inp_files/83135.got.cif
#   From: 2010.05.17/outbox.cif.g08.bks.cpg/sg15_42_cif.got.tgz:83135.got - 2010.06.03 18:47:42.
