data_PCOD9305568
_publ_section_title
;
Structure prediction by ZEFSAII (Michael W. Deem and Ramdas Pophale) SiO2 
 PCOD9305568
Probable space group: C 2/C
;
_chemical_formula_sum "Si O2"
_cell_formula_units_Z 36
_cell_length_a 5.408933
_cell_length_b 23.473340
_cell_length_c 11.514242
_cell_angle_alpha 90.000000
_cell_angle_beta 97.512413
_cell_angle_gamma 90.000000
_cell_volume 1449.365813
_symmetry_space_group_name_H-M "C 2/C"
_symmetry_group_IT_number 15
_symmetry_cell_setting 'monoclinic'
loop_
_space_group_symop_operation_xyz
x,y,z
-x,y,1/2-z
-x,-y,-z
x,-y,1/2+z
1/2+x,1/2+y,z
1/2-x,1/2+y,1/2-z
1/2-x,1/2-y,-z
1/2+x,1/2-y,1/2+z
loop_
_atom_site_type_symbol
_atom_site_label
_atom_site_fract_x
_atom_site_fract_y
_atom_site_fract_z
Si Si1 0.261212 0.965895 0.028695
Si Si2 0.267247 0.665450 0.568256
Si Si3 0.935517 0.867503 0.618535
Si Si4 0.500000 0.093330 0.750000
Si Si5 0.915479 0.269842 0.874609
O O1 0.311637 0.945023 0.162951
O O2 0.264503 0.909191 0.949179
O O3 0.500000 0.000000 0.000000
O O4 0.000000 0.000000 0.000000
O O5 0.350492 0.628044 0.464017
O O6 0.510613 0.703326 0.618017
O O7 0.152755 0.632137 0.668522
O O8 0.065070 0.705939 0.494575
O O9 0.847699 0.801658 0.626199
O O10 0.000000 0.887904 0.750000
O O11 0.000000 0.289209 0.750000
#
# Coordination Sequence:
#
# PCOD9305568 Si02
#       5
#     8   8   8   4   8
#     4  12  31  54  85 120 160 219 287 358 430 494
#     4  11  26  47  77 117 160 214 269 331 417 503
#     4  12  26  49  81 112 164 212 278 344 420 499
#     4  12  28  56  86 120 172 214 284 358 426 514
#     4  11  24  45  75 115 163 212 269 324 411 497
#
# _framework density 24.838449000000001
#
# number of rings (size 3 to 8) (size 9 to 14) (size 15 to 20)
#    0.000    0.444    4.444    2.000    6.222    5.333 
#    0.000    0.000    0.000    0.000    0.000    0.000 
#    0.000    0.000    0.000    0.000    0.000    0.000 
#
# Total GULP energy -100659.734737 kJ/mol
# GULP energy per Si atom -5592.207485 kJ/mol
# Density = 2.478192 g / cm^3
# Si number density = 24.838449 Si / 1000 Ang^3
#
#
#
# Elastic Constant Matrix: (Units=GPa)
#
#
# Indices 1 2 3 4 5 6 
#
# 1 125.9576 58.5753 74.2069 0.0000 -22.2484 0.0000
# 2 58.5753 99.5462 67.5541 0.0000 -5.7694 0.0000
# 3 74.2069 67.5541 230.0818 0.0000 -16.4718 0.0000
# 4 0.0000 0.0000 0.0000 36.1732 0.0000 16.8868
# 5 -22.2484 -5.7694 -16.4718 0.0000 59.6073 0.0000
# 6 0.0000 0.0000 0.0000 16.8868 0.0000 34.1428
#
#
#
# Elastic Compliance Matrix: (Units=1/GPa)
#
#
# Indices 1 2 3 4 5 6 
#
# 1 0.012440 -0.005700 -0.002087 0.000000 0.003515 0.000000
# 2 -0.005700 0.015159 -0.002713 0.000000 -0.001410 0.000000
# 3 -0.002087 -0.002713 0.005857 0.000000 0.000577 0.000000
# 4 0.000000 0.000000 0.000000 0.035944 0.000000 -0.017778
# 5 0.003515 -0.001410 0.000577 0.000000 0.018111 0.000000
# 6 0.000000 0.000000 0.000000 -0.017778 0.000000 0.038082
#
#
# Mechanical properties :
#
#
# Convention : Reuss Voigt Hill
#
# Bulk Modulus (GPa) = 80.28380 95.13981 87.71181
# Shear Modulus (GPa) = 33.16803 43.00127 38.08465
#
# Velocity S-wave (km/s) = 3.65821 4.16533 3.91998
# Velocity P-wave (km/s) = 7.08773 7.84346 7.47515
#
# Compressibility (1/GPa) = 0.01245581
#
# Stress axis : x y z
#
# Youngs Moduli (GPa) = 80.38302 65.96573 170.72399
#
# Poissons Ratio (x) = 0.37602 0.35631
# Poissons Ratio (y) = 0.45820 0.46325
# Poissons Ratio (z) = 0.16776 0.17899
#
# Static dielectric constant tensor:
#      x y z
#    x 2.003320 0.000000 0.061730 
#    y 0.000000 2.109610 0.000000 
#    z 0.061730 0.000000 1.922020 
# 
# From -- ./inp_files/72701.got.cif
#   From: 2010.05.17/outbox.cif.g08.bks.cpg/sg15_37_cif.got.tgz:72701.got - 2010.06.03 18:47:42.
