data_PCOD9305342
_publ_section_title
;
Structure prediction by ZEFSAII (Michael W. Deem and Ramdas Pophale) SiO2 
 PCOD9305342
Probable space group: C 2/C
;
_chemical_formula_sum "Si O2"
_cell_formula_units_Z 40
_cell_length_a 20.258195
_cell_length_b 8.690099
_cell_length_c 8.962382
_cell_angle_alpha 90.000000
_cell_angle_beta 77.053683
_cell_angle_gamma 90.000000
_cell_volume 1537.682234
_symmetry_space_group_name_H-M "C 2/C"
_symmetry_group_IT_number 15
_symmetry_cell_setting 'monoclinic'
loop_
_space_group_symop_operation_xyz
x,y,z
-x,y,1/2-z
-x,-y,-z
x,-y,1/2+z
1/2+x,1/2+y,z
1/2-x,1/2+y,1/2-z
1/2-x,1/2-y,-z
1/2+x,1/2-y,1/2+z
loop_
_atom_site_type_symbol
_atom_site_label
_atom_site_fract_x
_atom_site_fract_y
_atom_site_fract_z
Si Si1 0.749245 0.675744 0.837341
Si Si2 0.857408 0.812004 0.574373
Si Si3 0.550433 0.137789 0.424005
Si Si4 0.105321 0.926323 0.271302
Si Si5 0.130851 0.503980 0.110185
O O1 0.786407 0.785133 0.697793
O O2 0.675886 0.626138 0.816721
O O3 0.799324 0.533356 0.844925
O O4 0.750000 0.750000 0.000000
O O5 0.873994 0.904456 0.412562
O O6 0.867817 0.638856 0.512053
O O7 0.903930 0.897471 0.672987
O O8 0.546029 0.315032 0.367520
O O9 0.601288 0.141387 0.538458
O O10 0.500000 0.000000 0.500000
O O11 0.582038 0.064542 0.260818
#
# Coordination Sequence:
#
# PCOD9305342 Si02
#       5
#     8   8   8   8   8
#     4  12  24  40  69 104 154 195 247 303 374 456
#     4  11  26  43  66 106 155 192 250 305 383 447
#     4  11  24  46  71 100 138 194 258 297 364 446
#     4  11  26  41  68 107 150 200 241 314 378 448
#     4  11  24  44  70 104 141 191 247 308 365 445
#
# _framework density 26.013178
#
# number of rings (size 3 to 8) (size 9 to 14) (size 15 to 20)
#    0.000    0.800    4.000    2.400   11.200    0.000 
#    0.000    1.000    0.000    2.400    0.000    0.000 
#    0.000    0.000    0.000    0.000    0.000    0.000 
#
# Total GULP energy -111562.980479 kJ/mol
# GULP energy per Si atom -5578.149024 kJ/mol
# Density = 2.595397 g / cm^3
# Si number density = 26.013178 Si / 1000 Ang^3
#
#
#
# Elastic Constant Matrix: (Units=GPa)
#
#
# Indices 1 2 3 4 5 6 
#
# 1 75.0870 25.8726 15.8167 0.0000 -2.6526 0.0000
# 2 25.8726 115.3233 43.6726 0.0000 -12.3966 0.0000
# 3 15.8167 43.6726 129.6872 0.0000 -12.2278 0.0000
# 4 0.0000 0.0000 0.0000 51.5387 0.0000 8.4376
# 5 -2.6526 -12.3966 -12.2278 0.0000 43.1673 0.0000
# 6 0.0000 0.0000 0.0000 8.4376 0.0000 31.3256
#
#
#
# Elastic Compliance Matrix: (Units=1/GPa)
#
#
# Indices 1 2 3 4 5 6 
#
# 1 0.014502 -0.002977 -0.000784 0.000000 -0.000186 0.000000
# 2 -0.002977 0.010714 -0.003053 0.000000 0.002029 0.000000
# 3 -0.000784 -0.003053 0.008988 0.000000 0.001621 0.000000
# 4 0.000000 0.000000 0.000000 0.020298 0.000000 -0.005467
# 5 -0.000186 0.002029 0.001621 0.000000 0.024196 0.000000
# 6 0.000000 0.000000 0.000000 -0.005467 0.000000 0.033395
#
#
# Mechanical properties :
#
#
# Convention : Reuss Voigt Hill
#
# Bulk Modulus (GPa) = 48.60204 54.53570 51.56887
# Shear Modulus (GPa) = 37.71341 40.85537 39.28439
#
# Velocity S-wave (km/s) = 3.81173 3.96733 3.89031
# Velocity P-wave (km/s) = 6.17224 6.48047 6.32823
#
# Compressibility (1/GPa) = 0.02057527
#
# Stress axis : x y z
#
# Youngs Moduli (GPa) = 68.95561 93.34007 111.26509
#
# Poissons Ratio (x) = 0.27784 0.08721
# Poissons Ratio (y) = 0.20526 0.33975
# Poissons Ratio (z) = 0.05405 0.28501
#
# Static dielectric constant tensor:
#      x y z
#    x 2.237790 0.000000 -0.011940 
#    y 0.000000 2.224330 0.000000 
#    z -0.011940 0.000000 1.972780 
# 
# From -- ./inp_files/59887.got.cif
#   From: 2010.05.17/outbox.cif.g08.bks.cpg/sg15_30_cif.got.tgz:59887.got - 2010.06.03 18:47:42.
