data_PCOD9305761
_publ_section_title
;
Structure prediction by ZEFSAII (Michael W. Deem and Ramdas Pophale) SiO2 
 PCOD9305761
Probable space group: C 2/C
;
_chemical_formula_sum "Si O2"
_cell_formula_units_Z 44
_cell_length_a 23.629560
_cell_length_b 6.648528
_cell_length_c 22.106813
_cell_angle_alpha 90.000000
_cell_angle_beta 142.085161
_cell_angle_gamma 90.000000
_cell_volume 2134.134428
_symmetry_space_group_name_H-M "C 2/C"
_symmetry_group_IT_number 15
_symmetry_cell_setting 'monoclinic'
loop_
_space_group_symop_operation_xyz
x,y,z
-x,y,1/2-z
-x,-y,-z
x,-y,1/2+z
1/2+x,1/2+y,z
1/2-x,1/2+y,1/2-z
1/2-x,1/2-y,-z
1/2+x,1/2-y,1/2+z
loop_
_atom_site_type_symbol
_atom_site_label
_atom_site_fract_x
_atom_site_fract_y
_atom_site_fract_z
Si Si1 0.282934 0.137547 0.896338
Si Si2 0.500000 0.954794 0.750000
Si Si3 0.907012 0.971071 0.504023
Si Si4 0.095906 0.614308 0.090803
Si Si5 0.423341 0.718619 0.800421
Si Si6 0.840814 0.342084 0.047988
O O1 0.172850 0.126530 0.802457
O O2 0.324728 0.009383 0.876135
O O3 0.328748 0.357974 0.931571
O O4 0.317528 0.034916 0.987188
O O5 0.472738 0.822879 0.785337
O O6 0.586413 0.091511 0.840633
O O7 0.910654 0.831280 0.447610
O O8 0.882683 0.821454 0.537999
O O9 0.002697 0.075827 0.603939
O O10 0.107710 0.630347 0.172382
O O11 0.000000 0.500000 0.000000
O O12 0.750000 0.250000 0.000000
#
# Coordination Sequence:
#
# PCOD9305761 Si02
#       6
#     8   4   8   8   8   8
#     4  11  26  46  70 105 139 183 239 293 352 424
#     4  12  26  48  70 106 142 190 234 292 356 428
#     4  11  24  47  70 101 140 186 228 296 359 406
#     4  11  24  47  70 103 143 180 237 299 349 419
#     4  12  26  43  76 100 143 189 233 286 359 425
#     4  11  26  46  70 102 143 184 239 293 347 429
#
# _framework density 20.617259000000001
#
# number of rings (size 3 to 8) (size 9 to 14) (size 15 to 20)
#    0.000    0.727    3.636    2.727    7.636    1.455 
#    3.273    0.000    0.000    0.000    0.000    0.000 
#    0.000    0.000    0.000    0.000    0.000    0.000 
#
# Total GULP energy -123060.870382 kJ/mol
# GULP energy per Si atom -5593.675926 kJ/mol
# Density = 2.057033 g / cm^3
# Si number density = 20.617259 Si / 1000 Ang^3
#
#
#
# Elastic Constant Matrix: (Units=GPa)
#
#
# Indices 1 2 3 4 5 6 
#
# 1 111.4370 38.8820 33.7209 0.0000 -2.7033 -0.0001
# 2 38.8820 80.1663 12.5843 0.0000 -3.3455 0.0000
# 3 33.7209 12.5843 86.0888 0.0000 12.8970 0.0000
# 4 0.0000 0.0000 0.0000 19.6199 0.0000 13.5944
# 5 -2.7033 -3.3455 12.8970 0.0000 44.9318 0.0000
# 6 -0.0001 0.0000 0.0000 13.5944 0.0000 21.3115
#
#
#
# Elastic Compliance Matrix: (Units=1/GPa)
#
#
# Indices 1 2 3 4 5 6 
#
# 1 0.012077 -0.005131 -0.004213 0.000000 0.001554 0.000000
# 2 -0.005131 0.015052 -0.000326 0.000000 0.000906 0.000000
# 3 -0.004213 -0.000326 0.013956 0.000000 -0.004283 0.000000
# 4 0.000000 0.000000 0.000000 0.091340 0.000000 -0.058265
# 5 0.001554 0.000906 -0.004283 0.000000 0.023646 0.000000
# 6 0.000000 0.000000 0.000000 -0.058265 0.000000 0.084090
#
#
# Mechanical properties :
#
#
# Convention : Reuss Voigt Hill
#
# Bulk Modulus (GPa) = 45.99117 49.78517 47.88817
# Shear Modulus (GPa) = 18.74427 30.00631 24.37529
#
# Velocity S-wave (km/s) = 3.01849 3.81911 3.44215
# Velocity P-wave (km/s) = 5.87400 6.60660 6.25104
#
# Compressibility (1/GPa) = 0.02174330
#
# Stress axis : x y z
#
# Youngs Moduli (GPa) = 82.80481 66.43754 71.65609
#
# Poissons Ratio (x) = 0.34090 0.30189
# Poissons Ratio (y) = 0.42488 0.02336
# Poissons Ratio (z) = 0.34887 0.02166
#
# Static dielectric constant tensor:
#      x y z
#    x 1.728040 0.000000 -0.032060 
#    y 0.000000 1.750770 0.000000 
#    z -0.032060 0.000000 1.621020 
# 
# From -- ./inp_files/281269.got.cif
#   From: 2010.05.17/outbox.cif.g08.bks.cpg/sg15_141_cif.got.tgz:281269.got - 2010.06.03 18:47:42.
