data_PCOD9305798
_publ_section_title
;
Structure prediction by ZEFSAII (Michael W. Deem and Ramdas Pophale) SiO2 
 PCOD9305798
Probable space group: C 2/C
;
_chemical_formula_sum "Si O2"
_cell_formula_units_Z 40
_cell_length_a 21.115710
_cell_length_b 7.674789
_cell_length_c 10.729516
_cell_angle_alpha 90.000000
_cell_angle_beta 102.953910
_cell_angle_gamma 90.000000
_cell_volume 1694.559042
_symmetry_space_group_name_H-M "C 2/C"
_symmetry_group_IT_number 15
_symmetry_cell_setting 'monoclinic'
loop_
_space_group_symop_operation_xyz
x,y,z
-x,y,1/2-z
-x,-y,-z
x,-y,1/2+z
1/2+x,1/2+y,z
1/2-x,1/2+y,1/2-z
1/2-x,1/2-y,-z
1/2+x,1/2-y,1/2+z
loop_
_atom_site_type_symbol
_atom_site_label
_atom_site_fract_x
_atom_site_fract_y
_atom_site_fract_z
Si Si1 0.818001 0.271129 0.288375
Si Si2 0.436060 0.546799 0.641012
Si Si3 0.361011 0.793480 0.039070
Si Si4 0.680303 0.619900 0.723405
Si Si5 0.065245 0.608985 0.509305
O O1 0.814215 0.270611 0.136503
O O2 0.752118 0.354081 0.310631
O O3 0.886091 0.359509 0.353865
O O4 0.821023 0.072819 0.336680
O O5 0.500000 0.518198 0.750000
O O6 0.413476 0.362434 0.576003
O O7 0.376869 0.616524 0.701038
O O8 0.449996 0.701100 0.550766
O O9 0.392196 0.984027 0.060689
O O10 0.331730 0.760876 0.889535
O O11 0.000000 0.500000 0.500000
#
# Coordination Sequence:
#
# PCOD9305798 Si02
#       5
#     8   8   8   8   8
#     4  11  26  46  72 108 143 187 238 293 359 425
#     4  11  27  46  72 104 142 190 238 294 359 420
#     4  11  26  46  72 103 144 185 237 294 359 422
#     4  11  24  47  73 104 148 185 236 297 355 426
#     4  12  28  45  74 104 143 189 242 293 353 425
#
# _framework density 23.604962
#
# number of rings (size 3 to 8) (size 9 to 14) (size 15 to 20)
#    0.000    0.800    2.000    3.000   14.000    4.000 
#    0.000    0.000    0.000    0.000    0.000    0.000 
#    0.000    0.000    0.000    0.000    0.000    0.000 
#
# Total GULP energy -111925.304276 kJ/mol
# GULP energy per Si atom -5596.265214 kJ/mol
# Density = 2.355124 g / cm^3
# Si number density = 23.604962 Si / 1000 Ang^3
#
#
#
# Elastic Constant Matrix: (Units=GPa)
#
#
# Indices 1 2 3 4 5 6 
#
# 1 99.5095 -9.8277 5.7605 0.0000 18.6263 0.0000
# 2 -9.8277 83.4838 -12.0675 0.0000 4.4952 0.0000
# 3 5.7605 -12.0675 46.5669 0.0000 15.6098 0.0000
# 4 0.0000 0.0000 0.0000 32.0344 0.0000 2.3612
# 5 18.6263 4.4952 15.6098 0.0000 30.0967 0.0000
# 6 0.0000 0.0000 0.0000 2.3612 0.0000 30.4385
#
#
#
# Elastic Compliance Matrix: (Units=1/GPa)
#
#
# Indices 1 2 3 4 5 6 
#
# 1 0.011761 0.002137 0.001992 0.000000 -0.008631 0.000000
# 2 0.002137 0.013304 0.005196 0.000000 -0.006005 0.000000
# 3 0.001992 0.005196 0.028141 0.000000 -0.016604 0.000000
# 4 0.000000 0.000000 0.000000 0.031396 0.000000 -0.002436
# 5 -0.008631 -0.006005 -0.016604 0.000000 0.048077 0.000000
# 6 0.000000 0.000000 0.000000 -0.002436 0.000000 0.033042
#
#
# Mechanical properties :
#
#
# Convention : Reuss Voigt Hill
#
# Bulk Modulus (GPa) = 13.91659 21.92121 17.91890
# Shear Modulus (GPa) = 29.23614 34.89357 32.06485
#
# Velocity S-wave (km/s) = 3.52313 3.84895 3.68964
# Velocity P-wave (km/s) = 4.73903 5.39068 5.07532
#
# Compressibility (1/GPa) = 0.07185670
#
# Stress axis : x y z
#
# Youngs Moduli (GPa) = 85.02984 75.16308 35.53588
#
# Poissons Ratio (x) = -0.16064 -0.07079
# Poissons Ratio (y) = -0.18172 -0.18465
# Poissons Ratio (z) = -0.16939 -0.39057
#
# Static dielectric constant tensor:
#      x y z
#    x 1.891750 0.000000 0.024190 
#    y 0.000000 1.883970 0.000000 
#    z 0.024190 0.000000 1.925060 
# 
# From -- ./inp_files/102847.got.cif
#   From: 2010.05.17/outbox.cif.g08.bks.cpg/sg15_52_cif.got.tgz:102847.got - 2010.06.03 18:47:42.
