data_PCOD9305646
_publ_section_title
;
Structure prediction by ZEFSAII (Michael W. Deem and Ramdas Pophale) SiO2 
 PCOD9305646
Probable space group: C 2/C
;
_chemical_formula_sum "Si O2"
_cell_formula_units_Z 32
_cell_length_a 5.584938
_cell_length_b 13.009872
_cell_length_c 17.674659
_cell_angle_alpha 90.000000
_cell_angle_beta 94.005009
_cell_angle_gamma 90.000000
_cell_volume 1281.092701
_symmetry_space_group_name_H-M "C 2/C"
_symmetry_group_IT_number 15
_symmetry_cell_setting 'monoclinic'
loop_
_space_group_symop_operation_xyz
x,y,z
-x,y,1/2-z
-x,-y,-z
x,-y,1/2+z
1/2+x,1/2+y,z
1/2-x,1/2+y,1/2-z
1/2-x,1/2-y,-z
1/2+x,1/2-y,1/2+z
loop_
_atom_site_type_symbol
_atom_site_label
_atom_site_fract_x
_atom_site_fract_y
_atom_site_fract_z
Si Si1 0.262016 0.036302 0.794371
Si Si2 0.079152 0.831763 0.835191
Si Si3 0.037042 0.352921 0.073776
Si Si4 0.715347 0.552265 0.053139
O O1 0.500000 0.054478 0.750000
O O2 0.278205 0.919266 0.826935
O O3 0.000000 0.041753 0.750000
O O4 0.260076 0.122436 0.859590
O O5 0.115598 0.741670 0.897135
O O6 0.000000 0.795184 0.750000
O O7 0.872386 0.897270 0.871936
O O8 0.881909 0.456076 0.072760
O O9 0.155161 0.360109 0.994114
O O10 0.500000 0.500000 0.000000
#
# Coordination Sequence:
#
# PCOD9305646 Si02
#       4
#     8   8   8   8
#     4  11  24  47  73 107 156 193 245 311 368 435
#     4  11  24  46  71 109 141 191 247 304 362 434
#     4  11  24  46  74 101 144 196 244 298 372 432
#     4  11  24  48  72 103 150 193 240 302 361 441
#
# _framework density 24.978674999999999
#
# number of rings (size 3 to 8) (size 9 to 14) (size 15 to 20)
#    0.000    1.000    2.500    4.500    0.000    1.000 
#   13.500    5.000    0.000    0.000    0.000    0.000 
#    0.000    0.000    0.000    0.000    0.000    0.000 
#
# Total GULP energy -89455.173527 kJ/mol
# GULP energy per Si atom -5590.948345 kJ/mol
# Density = 2.492182 g / cm^3
# Si number density = 24.978675 Si / 1000 Ang^3
#
#
#
# Elastic Constant Matrix: (Units=GPa)
#
#
# Indices 1 2 3 4 5 6 
#
# 1 91.1682 15.2541 42.8695 0.0000 -4.1153 0.0000
# 2 15.2541 53.6875 -11.3582 0.0000 -9.1482 0.0000
# 3 42.8695 -11.3582 111.6115 0.0000 -39.7332 0.0000
# 4 0.0000 0.0000 0.0000 45.6262 0.0000 -2.3993
# 5 -4.1153 -9.1482 -39.7332 0.0000 47.3901 0.0000
# 6 0.0000 0.0000 0.0000 -2.3993 0.0000 22.2745
#
#
#
# Elastic Compliance Matrix: (Units=1/GPa)
#
#
# Indices 1 2 3 4 5 6 
#
# 1 0.017022 -0.008652 -0.010672 0.000000 -0.009140 0.000000
# 2 -0.008652 0.025540 0.010563 0.000000 0.013035 0.000000
# 3 -0.010672 0.010563 0.020712 0.000000 0.018478 0.000000
# 4 0.000000 0.000000 0.000000 0.022042 0.000000 0.002374
# 5 -0.009140 0.013035 0.018478 0.000000 0.038316 0.000000
# 6 0.000000 0.000000 0.000000 0.002374 0.000000 0.045150
#
#
# Mechanical properties :
#
#
# Convention : Reuss Voigt Hill
#
# Bulk Modulus (GPa) = 21.85736 38.88865 30.37301
# Shear Modulus (GPa) = 24.80698 37.03826 30.92262
#
# Velocity S-wave (km/s) = 3.15481 3.85489 3.52228
# Velocity P-wave (km/s) = 4.69466 5.95114 5.35985
#
# Compressibility (1/GPa) = 0.04575117
#
# Stress axis : x y z
#
# Youngs Moduli (GPa) = 58.74678 39.15375 48.28180
#
# Poissons Ratio (x) = 0.33875 0.51528
# Poissons Ratio (y) = 0.50827 -0.50999
# Poissons Ratio (z) = 0.62697 -0.41357
#
# Static dielectric constant tensor:
#      x y z
#    x 2.000290 0.000000 0.049910 
#    y 0.000000 2.005470 0.000000 
#    z 0.049910 0.000000 2.084170 
# 
# From -- ./inp_files/183733.got.cif
#   From: 2010.05.17/outbox.cif.g08.bks.cpg/sg15_92_cif.got.tgz:183733.got - 2010.06.03 18:47:42.
