data_PCOD9305632
_publ_section_title
;
Structure prediction by ZEFSAII (Michael W. Deem and Ramdas Pophale) SiO2 
 PCOD9305632
Probable space group: C 2/C
;
_chemical_formula_sum "Si O2"
_cell_formula_units_Z 40
_cell_length_a 24.920768
_cell_length_b 12.338734
_cell_length_c 11.425102
_cell_angle_alpha 90.000000
_cell_angle_beta 148.433399
_cell_angle_gamma 90.000000
_cell_volume 1839.077118
_symmetry_space_group_name_H-M "C 2/C"
_symmetry_group_IT_number 15
_symmetry_cell_setting 'monoclinic'
loop_
_space_group_symop_operation_xyz
x,y,z
-x,y,1/2-z
-x,-y,-z
x,-y,1/2+z
1/2+x,1/2+y,z
1/2-x,1/2+y,1/2-z
1/2-x,1/2-y,-z
1/2+x,1/2-y,1/2+z
loop_
_atom_site_type_symbol
_atom_site_label
_atom_site_fract_x
_atom_site_fract_y
_atom_site_fract_z
Si Si1 0.485463 0.077362 0.089848
Si Si2 0.864951 0.224241 0.682048
Si Si3 0.797656 0.257824 0.216603
Si Si4 0.381871 0.433913 0.005570
Si Si5 0.389756 0.327518 0.485221
O O1 0.500000 0.027798 0.250000
O O2 0.571057 0.173436 0.246069
O O3 0.375832 0.140538 0.875849
O O4 0.500000 0.000000 0.000000
O O5 0.750000 0.250000 0.500000
O O6 0.852046 0.128076 0.566782
O O7 0.913976 0.190185 0.894986
O O8 0.861983 0.149633 0.364611
O O9 0.700663 0.256800 0.125427
O O10 0.750000 0.250000 0.000000
O O11 0.500000 0.453089 0.250000
O O12 0.340843 0.552605 0.907587
O O13 0.500000 0.312833 0.750000
#
# Coordination Sequence:
#
# PCOD9305632 Si02
#       5
#     8   8   8   8   8
#     4  12  27  49  75 106 145 194 242 295 363 431
#     4  12  23  47  72  99 144 184 232 294 355 423
#     4  12  25  45  68 102 143 178 232 296 352 423
#     4  11  24  46  70  96 138 182 233 283 358 416
#     4  11  27  41  71 107 133 185 237 288 355 420
#
# _framework density 21.750039999999998
#
# number of rings (size 3 to 8) (size 9 to 14) (size 15 to 20)
#    0.000    0.400    6.000    1.200    5.600    5.600 
#    0.000    0.000    0.000    0.000    0.000    0.000 
#    0.000    0.000    0.000    0.000    0.000    0.000 
#
# Total GULP energy -111608.043644 kJ/mol
# GULP energy per Si atom -5580.402182 kJ/mol
# Density = 2.170054 g / cm^3
# Si number density = 21.750040 Si / 1000 Ang^3
#
#
#
# Elastic Constant Matrix: (Units=GPa)
#
#
# Indices 1 2 3 4 5 6 
#
# 1 94.2826 2.7682 25.1345 0.0000 -15.2003 0.0000
# 2 2.7682 37.1278 10.1541 0.0000 -4.8587 0.0000
# 3 25.1345 10.1541 110.4663 0.0000 -27.0764 0.0000
# 4 0.0000 0.0000 0.0000 12.5577 0.0000 -8.3105
# 5 -15.2003 -4.8587 -27.0764 0.0000 64.3307 0.0000
# 6 0.0000 0.0000 0.0000 -8.3105 0.0000 31.5414
#
#
#
# Elastic Compliance Matrix: (Units=1/GPa)
#
#
# Indices 1 2 3 4 5 6 
#
# 1 0.011475 -0.000028 -0.002168 0.000000 0.001797 0.000000
# 2 -0.000028 0.027703 -0.002262 0.000000 0.001134 0.000000
# 3 -0.002168 -0.002262 0.010689 0.000000 0.003816 0.000000
# 4 0.000000 0.000000 0.000000 0.096451 0.000000 0.025413
# 5 0.001797 0.001134 0.003816 0.000000 0.017661 0.000000
# 6 0.000000 0.000000 0.000000 0.025413 0.000000 0.038400
#
#
# Mechanical properties :
#
#
# Convention : Reuss Voigt Hill
#
# Bulk Modulus (GPa) = 24.41915 35.33223 29.87569
# Shear Modulus (GPa) = 22.22767 35.27396 28.75081
#
# Velocity S-wave (km/s) = 3.20028 4.03151 3.63970
# Velocity P-wave (km/s) = 4.99072 6.16042 5.60616
#
# Compressibility (1/GPa) = 0.04095146
#
# Stress axis : x y z
#
# Youngs Moduli (GPa) = 87.14714 36.09697 93.55362
#
# Poissons Ratio (x) = 0.00099 0.20282
# Poissons Ratio (y) = 0.00240 0.21165
# Poissons Ratio (z) = 0.18893 0.08166
#
# Static dielectric constant tensor:
#      x y z
#    x 1.826320 0.000000 -0.053580 
#    y 0.000000 1.563290 0.000000 
#    z -0.053580 0.000000 1.870550 
# 
# From -- ./inp_files/122764.got.cif
#   From: 2010.05.17/outbox.cif.g08.bks.cpg/sg15_62_cif.got.tgz:122764.got - 2010.06.03 18:47:42.
