data_PCOD9305810
_publ_section_title
;
Structure prediction by ZEFSAII (Michael W. Deem and Ramdas Pophale) SiO2 
 PCOD9305810
Probable space group: C 2/C
;
_chemical_formula_sum "Si O2"
_cell_formula_units_Z 44
_cell_length_a 8.477255
_cell_length_b 11.040968
_cell_length_c 21.796540
_cell_angle_alpha 90.000000
_cell_angle_beta 57.378529
_cell_angle_gamma 90.000000
_cell_volume 1718.269191
_symmetry_space_group_name_H-M "C 2/C"
_symmetry_group_IT_number 15
_symmetry_cell_setting 'monoclinic'
loop_
_space_group_symop_operation_xyz
x,y,z
-x,y,1/2-z
-x,-y,-z
x,-y,1/2+z
1/2+x,1/2+y,z
1/2-x,1/2+y,1/2-z
1/2-x,1/2-y,-z
1/2+x,1/2-y,1/2+z
loop_
_atom_site_type_symbol
_atom_site_label
_atom_site_fract_x
_atom_site_fract_y
_atom_site_fract_z
Si Si1 0.222816 0.418169 0.530859
Si Si2 0.168042 0.314422 0.076575
Si Si3 0.808298 0.102180 0.770552
Si Si4 0.000000 0.486927 0.750000
Si Si5 0.478017 0.689262 0.610992
Si Si6 0.829126 0.181433 0.132134
O O1 0.134913 0.549358 0.557911
O O2 0.352839 0.401656 0.443833
O O3 0.359288 0.370984 0.557893
O O4 0.059527 0.318963 0.573181
O O5 0.304608 0.338311 0.103777
O O6 0.018996 0.210150 0.127700
O O7 0.250000 0.250000 0.000000
O O8 0.614140 0.052399 0.781606
O O9 0.888701 0.182845 0.697166
O O10 0.753789 0.183543 0.840686
O O11 0.000000 0.029803 0.750000
O O12 0.170705 0.406237 0.689999
#
# Coordination Sequence:
#
# PCOD9305810 Si02
#       6
#     8   8   8   4   8   8
#     4  11  24  47  74 109 164 196 254 332 379 467
#     4  12  27  46  79 114 151 211 256 315 404 457
#     4  12  25  48  79 109 150 208 258 314 402 460
#     4  12  28  50  74 112 158 198 270 334 370 490
#     4  11  24  47  76 116 154 200 263 315 387 477
#     4  12  24  52  74 106 157 203 253 326 391 455
#
# _framework density 25.607164999999998
#
# number of rings (size 3 to 8) (size 9 to 14) (size 15 to 20)
#    0.000    0.364    4.545    3.818    2.545    0.727 
#   11.455    0.000    0.000    0.000    0.000    0.000 
#    0.000    0.000    0.000    0.000    0.000    0.000 
#
# Total GULP energy -122590.966352 kJ/mol
# GULP energy per Si atom -5572.316652 kJ/mol
# Density = 2.554888 g / cm^3
# Si number density = 25.607165 Si / 1000 Ang^3
#
#
#
# Elastic Constant Matrix: (Units=GPa)
#
#
# Indices 1 2 3 4 5 6 
#
# 1 89.7714 46.8113 20.5048 0.0000 -17.6016 0.0000
# 2 46.8113 128.2389 14.5732 0.0000 -7.5558 0.0000
# 3 20.5048 14.5732 84.4255 0.0000 6.6071 0.0000
# 4 0.0000 0.0000 0.0000 30.8478 0.0000 -0.8588
# 5 -17.6016 -7.5558 6.6071 0.0000 38.0571 0.0000
# 6 0.0000 0.0000 0.0000 -0.8588 0.0000 33.1500
#
#
#
# Elastic Compliance Matrix: (Units=1/GPa)
#
#
# Indices 1 2 3 4 5 6 
#
# 1 0.015928 -0.004999 -0.003553 0.000000 0.006991 0.000000
# 2 -0.004999 0.009652 -0.000427 0.000000 -0.000321 0.000000
# 3 -0.003553 -0.000427 0.013094 0.000000 -0.004001 0.000000
# 4 0.000000 0.000000 0.000000 0.032441 0.000000 0.000840
# 5 0.006991 -0.000321 -0.004001 0.000000 0.030141 0.000000
# 6 0.000000 0.000000 0.000000 0.000840 0.000000 0.030188
#
#
# Mechanical properties :
#
#
# Convention : Reuss Voigt Hill
#
# Bulk Modulus (GPa) = 48.26699 51.80159 50.03429
# Shear Modulus (GPa) = 31.98839 35.11407 33.55123
#
# Velocity S-wave (km/s) = 3.53823 3.70707 3.62363
# Velocity P-wave (km/s) = 5.96507 6.21260 6.09009
#
# Compressibility (1/GPa) = 0.02071809
#
# Stress axis : x y z
#
# Youngs Moduli (GPa) = 62.78161 103.60343 76.36796
#
# Poissons Ratio (x) = 0.51788 0.27132
# Poissons Ratio (y) = 0.31382 0.03260
# Poissons Ratio (z) = 0.22305 0.04423
#
# Static dielectric constant tensor:
#      x y z
#    x 2.188950 0.000000 -0.048530 
#    y 0.000000 2.050380 0.000000 
#    z -0.048530 0.000000 2.122420 
# 
# From -- ./inp_files/263436.got.cif
#   From: 2010.05.17/outbox.cif.g08.bks.cpg/sg15_132_cif.got.tgz:263436.got - 2010.06.03 18:47:42.
