data_PCOD9305767
_publ_section_title
;
Structure prediction by ZEFSAII (Michael W. Deem and Ramdas Pophale) SiO2 
 PCOD9305767
Probable space group: C 2/C
;
_chemical_formula_sum "Si O2"
_cell_formula_units_Z 56
_cell_length_a 24.785122
_cell_length_b 11.486385
_cell_length_c 9.689218
_cell_angle_alpha 90.000000
_cell_angle_beta 108.376867
_cell_angle_gamma 90.000000
_cell_volume 2617.766555
_symmetry_space_group_name_H-M "C 2/C"
_symmetry_group_IT_number 15
_symmetry_cell_setting 'monoclinic'
loop_
_space_group_symop_operation_xyz
x,y,z
-x,y,1/2-z
-x,-y,-z
x,-y,1/2+z
1/2+x,1/2+y,z
1/2-x,1/2+y,1/2-z
1/2-x,1/2-y,-z
1/2+x,1/2-y,1/2+z
loop_
_atom_site_type_symbol
_atom_site_label
_atom_site_fract_x
_atom_site_fract_y
_atom_site_fract_z
Si Si1 0.409536 0.994310 0.487398
Si Si2 0.164310 0.469493 0.811625
Si Si3 0.500651 0.835769 0.411857
Si Si4 0.450390 0.422108 0.895837
Si Si5 0.205488 0.214727 0.845778
Si Si6 0.766566 0.133791 0.931079
Si Si7 0.125644 0.018704 0.909472
O O1 0.387211 0.976035 0.622345
O O2 0.458346 0.907218 0.476426
O O3 0.356939 0.971304 0.344851
O O4 0.436178 0.124070 0.492218
O O5 0.177417 0.337325 0.786417
O O6 0.218887 0.535273 0.916351
O O7 0.500000 0.872635 0.250000
O O8 0.478561 0.704371 0.400018
O O9 0.423308 0.469444 0.731532
O O10 0.500000 0.500000 0.000000
O O11 0.400660 0.430892 0.970453
O O12 0.232949 0.162636 0.730568
O O13 0.159764 0.122664 0.863794
O O14 0.250000 0.250000 0.000000
O O15 0.750000 0.250000 0.000000
O O16 0.828000 0.082176 0.022303
#
# Coordination Sequence:
#
# PCOD9305767 Si02
#       7
#     8   8   8   8   8   8   8
#     4  11  25  44  72 103 140 182 235 304 354 427
#     4  12  25  45  72 108 142 187 241 294 372 428
#     4  11  24  47  71 101 140 185 241 294 365 418
#     4  12  28  48  75 103 144 196 248 297 363 435
#     4  12  26  46  74 106 147 192 242 297 361 446
#     4  12  29  46  77 108 149 196 243 300 373 451
#     4  12  27  51  72 110 151 193 244 306 368 438
#
# _framework density 21.392282000000002
#
# number of rings (size 3 to 8) (size 9 to 14) (size 15 to 20)
#    0.000    0.286    4.286    3.857    8.000    2.286 
#    2.571    0.000    0.000    0.000    0.000    0.000 
#    0.000    0.000    0.000    0.000    0.000    0.000 
#
# Total GULP energy -156590.768982 kJ/mol
# GULP energy per Si atom -5592.527464 kJ/mol
# Density = 2.134359 g / cm^3
# Si number density = 21.392282 Si / 1000 Ang^3
#
#
#
# Elastic Constant Matrix: (Units=GPa)
#
#
# Indices 1 2 3 4 5 6 
#
# 1 90.5823 27.3674 17.6471 0.0000 -8.6829 0.0000
# 2 27.3674 66.1525 -6.9537 0.0000 -4.3418 0.0000
# 3 17.6471 -6.9537 73.8556 0.0000 0.7449 0.0000
# 4 0.0000 0.0000 0.0000 29.9904 0.0000 2.1786
# 5 -8.6829 -4.3418 0.7449 0.0000 56.4089 0.0000
# 6 0.0000 0.0000 0.0000 2.1786 0.0000 42.3963
#
#
#
# Elastic Compliance Matrix: (Units=1/GPa)
#
#
# Indices 1 2 3 4 5 6 
#
# 1 0.013767 -0.005990 -0.003871 0.000000 0.001709 0.000000
# 2 -0.005990 0.017950 0.003117 0.000000 0.000418 0.000000
# 3 -0.003871 0.003117 0.014764 0.000000 -0.000551 0.000000
# 4 0.000000 0.000000 0.000000 0.033469 0.000000 -0.001720
# 5 0.001709 0.000418 -0.000551 0.000000 0.018030 0.000000
# 6 0.000000 0.000000 0.000000 -0.001720 0.000000 0.023675
#
#
# Mechanical properties :
#
#
# Convention : Reuss Voigt Hill
#
# Bulk Modulus (GPa) = 30.30928 34.07910 32.19419
# Shear Modulus (GPa) = 34.21339 38.59443 36.40391
#
# Velocity S-wave (km/s) = 4.00351 4.25211 4.12968
# Velocity P-wave (km/s) = 5.96404 6.33028 6.14989
#
# Compressibility (1/GPa) = 0.03299319
#
# Stress axis : x y z
#
# Youngs Moduli (GPa) = 72.63494 55.71059 67.73287
#
# Poissons Ratio (x) = 0.33372 0.26218
# Poissons Ratio (y) = 0.43511 -0.21113
# Poissons Ratio (z) = 0.28116 -0.17366
#
# Static dielectric constant tensor:
#      x y z
#    x 1.774170 0.000000 0.020760 
#    y 0.000000 1.762810 0.000000 
#    z 0.020760 0.000000 1.770690 
# 
# From -- ./inp_files/65522.got.cif
#   From: 2010.05.17/outbox.cif.g08.bks.cpg/sg15_33_cif.got.tgz:65522.got - 2010.06.03 18:47:42.
