data_PCOD9305593
_publ_section_title
;
Structure prediction by ZEFSAII (Michael W. Deem and Ramdas Pophale) SiO2 
 PCOD9305593
Probable space group: C 2/C
;
_chemical_formula_sum "Si O2"
_cell_formula_units_Z 48
_cell_length_a 14.762317
_cell_length_b 16.641933
_cell_length_c 10.674734
_cell_angle_alpha 90.000000
_cell_angle_beta 51.238773
_cell_angle_gamma 90.000000
_cell_volume 2044.924718
_symmetry_space_group_name_H-M "C 2/C"
_symmetry_group_IT_number 15
_symmetry_cell_setting 'monoclinic'
loop_
_space_group_symop_operation_xyz
x,y,z
-x,y,1/2-z
-x,-y,-z
x,-y,1/2+z
1/2+x,1/2+y,z
1/2-x,1/2+y,1/2-z
1/2-x,1/2-y,-z
1/2+x,1/2-y,1/2+z
loop_
_atom_site_type_symbol
_atom_site_label
_atom_site_fract_x
_atom_site_fract_y
_atom_site_fract_z
Si Si1 0.971496 0.404236 0.903481
Si Si2 0.639465 0.930697 0.973468
Si Si3 0.898608 0.018245 0.236892
Si Si4 0.518444 0.633057 0.946414
Si Si5 0.170909 0.741072 0.448150
Si Si6 0.676599 0.755683 0.434915
O O1 0.000000 0.360766 0.750000
O O2 0.088105 0.427664 0.876723
O O3 0.914456 0.489635 0.923023
O O4 0.879197 0.343707 0.045928
O O5 0.775373 0.944199 0.877532
O O6 0.603688 0.840997 0.040579
O O7 0.000000 0.029969 0.250000
O O8 0.896308 0.922555 0.210055
O O9 0.935544 0.067790 0.082642
O O10 0.588799 0.684141 0.988157
O O11 0.432975 0.695956 0.955848
O O12 0.250000 0.750000 0.500000
O O13 0.245838 0.731131 0.254026
O O14 0.750000 0.750000 0.500000
#
# Coordination Sequence:
#
# PCOD9305593 Si02
#       6
#     8   8   8   8   8   8
#     4  11  26  45  74 102 148 195 249 307 380 448
#     4  11  24  46  67 104 142 189 247 302 366 446
#     4  11  25  45  71 104 147 190 249 308 378 443
#     4  11  26  44  72 108 140 195 245 308 378 445
#     4  12  26  47  74 104 148 193 247 300 370 445
#     4  12  27  46  75 109 147 192 249 311 369 447
#
# _framework density 23.472746999999998
#
# number of rings (size 3 to 8) (size 9 to 14) (size 15 to 20)
#    0.000    0.667    3.333    3.000    4.667    5.333 
#    0.000    0.000    0.000    0.000    0.000    0.000 
#    0.000    0.000    0.000    0.000    0.000    0.000 
#
# Total GULP energy -133990.203600 kJ/mol
# GULP energy per Si atom -5582.925150 kJ/mol
# Density = 2.341932 g / cm^3
# Si number density = 23.472747 Si / 1000 Ang^3
#
#
#
# Elastic Constant Matrix: (Units=GPa)
#
#
# Indices 1 2 3 4 5 6 
#
# 1 159.1692 21.3695 26.6934 0.0000 3.7213 0.0000
# 2 21.3695 138.7073 20.1620 0.0000 -6.1961 0.0000
# 3 26.6934 20.1620 41.2833 0.0000 7.6671 0.0000
# 4 0.0000 0.0000 0.0000 5.3606 0.0000 -14.0842
# 5 3.7213 -6.1961 7.6671 0.0000 27.2079 0.0000
# 6 0.0000 0.0000 0.0000 -14.0842 0.0000 30.4900
#
#
#
# Elastic Compliance Matrix: (Units=1/GPa)
#
#
# Indices 1 2 3 4 5 6 
#
# 1 0.007074 -0.000445 -0.004388 0.000000 0.000168 0.000000
# 2 -0.000445 0.008026 -0.004203 0.000000 0.003073 0.000000
# 3 -0.004388 -0.004203 0.030791 0.000000 -0.009034 0.000000
# 4 0.000000 0.000000 0.000000 -0.873203 0.000000 -0.403357
# 5 0.000168 0.003073 -0.009034 0.000000 0.039977 0.000000
# 6 0.000000 0.000000 0.000000 -0.403357 0.000000 -0.153524
#
#
# Mechanical properties :
#
#
# Convention : Reuss Voigt Hill
#
# Bulk Modulus (GPa) = 35.94617 52.84551 44.39584
# Shear Modulus (GPa) = -5.47337 30.67404 12.60034
#
# Velocity S-wave (km/s) = -1.52868 3.61888 2.31942
# Velocity P-wave (km/s) = 3.49735 6.32647 5.11154
#
# Compressibility (1/GPa) = 0.02781938
#
# Stress axis : x y z
#
# Youngs Moduli (GPa) = 141.35663 124.59303 32.47736
#
# Poissons Ratio (x) = 0.05538 0.14252
# Poissons Ratio (y) = 0.06284 0.13651
# Poissons Ratio (z) = 0.62031 0.52368
#
# Static dielectric constant tensor:
#      x y z
#    x 1.906130 0.000000 -0.001340 
#    y 0.000000 1.931300 0.000000 
#    z -0.001340 0.000000 1.842050 
# 
# From -- ./inp_files/96844.got.cif
#   From: 2010.05.17/outbox.cif.g08.bks.cpg/sg15_49_cif.got.tgz:96844.got - 2010.06.03 18:47:42.
