data_PCOD9305518
_publ_section_title
;
Structure prediction by ZEFSAII (Michael W. Deem and Ramdas Pophale) SiO2 
 PCOD9305518
Probable space group: C 2/C
;
_chemical_formula_sum "Si O2"
_cell_formula_units_Z 56
_cell_length_a 28.448686
_cell_length_b 7.800047
_cell_length_c 11.113690
_cell_angle_alpha 90.000000
_cell_angle_beta 107.335436
_cell_angle_gamma 90.000000
_cell_volume 2354.119684
_symmetry_space_group_name_H-M "C 2/C"
_symmetry_group_IT_number 15
_symmetry_cell_setting 'monoclinic'
loop_
_space_group_symop_operation_xyz
x,y,z
-x,y,1/2-z
-x,-y,-z
x,-y,1/2+z
1/2+x,1/2+y,z
1/2-x,1/2+y,1/2-z
1/2-x,1/2-y,-z
1/2+x,1/2-y,1/2+z
loop_
_atom_site_type_symbol
_atom_site_label
_atom_site_fract_x
_atom_site_fract_y
_atom_site_fract_z
Si Si1 0.876858 0.187505 0.564508
Si Si2 0.221768 0.325973 0.593387
Si Si3 0.883119 0.790545 0.559281
Si Si4 0.707888 0.177277 0.661598
Si Si5 0.366476 0.986423 0.734370
Si Si6 0.049682 0.610587 0.548374
Si Si7 0.507728 0.610183 0.386968
O O1 0.834430 0.208567 0.431215
O O2 0.863901 0.306460 0.666864
O O3 0.926226 0.276279 0.542386
O O4 0.878578 0.988352 0.601019
O O5 0.250000 0.250000 0.500000
O O6 0.166254 0.250303 0.555061
O O7 0.250557 0.278449 0.736962
O O8 0.223587 0.532059 0.579114
O O9 0.880956 0.632611 0.649492
O O10 0.939024 0.802960 0.555794
O O11 0.682221 0.059053 0.742989
O O12 0.407335 0.991039 0.869326
O O13 0.000000 0.500000 0.500000
O O14 0.034748 0.747935 0.638363
O O15 0.500000 0.524516 0.250000
O O16 0.500000 0.500000 0.500000
#
# Coordination Sequence:
#
# PCOD9305518 Si02
#       7
#     8   8   8   8   8   8   8
#     4  11  24  45  71 109 140 196 255 298 383 453
#     4  12  25  47  76 106 150 192 247 316 386 453
#     4  12  24  46  74 102 148 196 246 317 371 454
#     4  11  24  46  71 109 147 190 247 308 378 461
#     4  11  24  48  71 105 150 191 251 310 372 457
#     4  11  25  43  71 102 152 197 247 311 378 451
#     4  12  26  48  72 108 152 198 256 311 379 459
#
# _framework density 23.788084000000001
#
# number of rings (size 3 to 8) (size 9 to 14) (size 15 to 20)
#    0.000    0.571    5.714    1.714    2.000    2.286 
#    7.714    2.857    0.000    0.000    0.000    0.000 
#    0.000    0.000    0.000    0.000    0.000    0.000 
#
# Total GULP energy -156473.914814 kJ/mol
# GULP energy per Si atom -5588.354101 kJ/mol
# Density = 2.373394 g / cm^3
# Si number density = 23.788084 Si / 1000 Ang^3
#
#
#
# Elastic Constant Matrix: (Units=GPa)
#
#
# Indices 1 2 3 4 5 6 
#
# 1 95.5100 -7.2316 25.4508 0.0000 20.9748 0.0000
# 2 -7.2316 99.1675 13.4538 0.0000 6.3960 0.0000
# 3 25.4508 13.4538 67.6990 0.0000 10.8158 0.0000
# 4 0.0000 0.0000 0.0000 36.4826 0.0000 2.8708
# 5 20.9748 6.3960 10.8158 0.0000 40.7153 0.0000
# 6 0.0000 0.0000 0.0000 2.8708 0.0000 41.6782
#
#
#
# Elastic Compliance Matrix: (Units=1/GPa)
#
#
# Indices 1 2 3 4 5 6 
#
# 1 0.013067 0.001923 -0.004356 0.000000 -0.005876 0.000000
# 2 0.001923 0.010696 -0.002529 0.000000 -0.001999 0.000000
# 3 -0.004356 -0.002529 0.017220 0.000000 -0.001933 0.000000
# 4 0.000000 0.000000 0.000000 0.027560 0.000000 -0.001898
# 5 -0.005876 -0.001999 -0.001933 0.000000 0.028416 0.000000
# 6 0.000000 0.000000 0.000000 -0.001898 0.000000 0.024124
#
#
# Mechanical properties :
#
#
# Convention : Reuss Voigt Hill
#
# Bulk Modulus (GPa) = 32.19645 36.19141 34.19393
# Shear Modulus (GPa) = 35.37069 39.15545 37.26307
#
# Velocity S-wave (km/s) = 3.86023 4.06151 3.96215
# Velocity P-wave (km/s) = 5.78209 6.10259 5.94450
#
# Compressibility (1/GPa) = 0.03105933
#
# Stress axis : x y z
#
# Youngs Moduli (GPa) = 76.52937 93.49095 58.07120
#
# Poissons Ratio (x) = -0.17977 0.25294
# Poissons Ratio (y) = -0.14715 0.14687
# Poissons Ratio (z) = 0.33334 0.23645
#
# Static dielectric constant tensor:
#      x y z
#    x 2.089750 0.000000 -0.357060 
#    y 0.000000 2.339450 0.000000 
#    z -0.357060 0.000000 2.580380 
# 
# From -- ./inp_files/122014.got.cif
#   From: 2010.05.17/outbox.cif.g08.bks.cpg/sg15_62_cif.got.tgz:122014.got - 2010.06.03 18:47:42.
