data_PCOD9305723
_publ_section_title
;
Structure prediction by ZEFSAII (Michael W. Deem and Ramdas Pophale) SiO2 
 PCOD9305723
Probable space group: C 2/C
;
_chemical_formula_sum "Si O2"
_cell_formula_units_Z 56
_cell_length_a 18.638606
_cell_length_b 17.504877
_cell_length_c 8.496418
_cell_angle_alpha 90.000000
_cell_angle_beta 118.754252
_cell_angle_gamma 90.000000
_cell_volume 2430.272311
_symmetry_space_group_name_H-M "C 2/C"
_symmetry_group_IT_number 15
_symmetry_cell_setting 'monoclinic'
loop_
_space_group_symop_operation_xyz
x,y,z
-x,y,1/2-z
-x,-y,-z
x,-y,1/2+z
1/2+x,1/2+y,z
1/2-x,1/2+y,1/2-z
1/2-x,1/2-y,-z
1/2+x,1/2-y,1/2+z
loop_
_atom_site_type_symbol
_atom_site_label
_atom_site_fract_x
_atom_site_fract_y
_atom_site_fract_z
Si Si1 0.371349 0.501610 0.386641
Si Si2 0.371594 0.953495 0.322873
Si Si3 0.750000 0.250000 0.000000
Si Si4 0.904624 0.393650 0.697017
Si Si5 0.490508 0.375386 0.413447
Si Si6 0.107112 0.263348 0.576170
Si Si7 0.000000 0.629641 0.750000
Si Si8 0.281135 0.581459 0.058451
O O1 0.420397 0.439887 0.336942
O O2 0.428676 0.576575 0.457696
O O3 0.351796 0.456167 0.525281
O O4 0.287242 0.529696 0.220000
O O5 0.362095 0.920537 0.488798
O O6 0.455030 0.919379 0.335350
O O7 0.300273 0.924574 0.131633
O O8 0.381738 0.043741 0.305371
O O9 0.805543 0.238077 0.896927
O O10 0.788188 0.169588 0.108310
O O11 0.886520 0.311510 0.755338
O O12 0.000000 0.396003 0.750000
O O13 0.500000 0.342918 0.250000
O O14 0.456882 0.306309 0.480755
O O15 0.069094 0.319039 0.404204
#
# Coordination Sequence:
#
# PCOD9305723 Si02
#       8
#     8   8   4   8   8   8   4   8
#     4  11  25  46  78 105 147 189 247 301 369 443
#     4  12  25  44  75 106 150 193 255 303 372 458
#     4  12  28  48  70 104 156 192 252 310 382 446
#     4  12  24  45  72 109 144 193 245 316 369 446
#     4  11  24  46  76 112 143 191 246 309 367 449
#     4  12  27  46  72 107 150 194 249 312 385 443
#     4  12  24  44  72 108 146 198 250 308 368 456
#     4  12  26  49  69 110 148 200 241 305 378 444
#
# _framework density 23.042684999999999
#
# number of rings (size 3 to 8) (size 9 to 14) (size 15 to 20)
#    0.000    0.286    6.429    2.571    4.000    0.000 
#    0.000    0.714    0.000    0.000    0.000    0.000 
#    0.000    0.000    0.000    0.000    0.000    0.000 
#
# Total GULP energy -155989.639192 kJ/mol
# GULP energy per Si atom -5571.058543 kJ/mol
# Density = 2.299024 g / cm^3
# Si number density = 23.042685 Si / 1000 Ang^3
#
#
#
# Elastic Constant Matrix: (Units=GPa)
#
#
# Indices 1 2 3 4 5 6 
#
# 1 81.4783 12.9902 -0.7380 0.0000 -11.6285 0.0000
# 2 12.9902 75.5662 4.9631 0.0000 -0.3558 0.0000
# 3 -0.7380 4.9631 55.2977 0.0000 -2.8235 0.0000
# 4 0.0000 0.0000 0.0000 30.5859 0.0000 -10.0266
# 5 -11.6285 -0.3558 -2.8235 0.0000 24.2043 0.0000
# 6 0.0000 0.0000 0.0000 -10.0266 0.0000 38.0516
#
#
#
# Elastic Compliance Matrix: (Units=1/GPa)
#
#
# Indices 1 2 3 4 5 6 
#
# 1 0.013594 -0.002354 0.000729 0.000000 0.006582 0.000000
# 2 -0.002354 0.013720 -0.001318 0.000000 -0.001083 0.000000
# 3 0.000729 -0.001318 0.018338 0.000000 0.002470 0.000000
# 4 0.000000 0.000000 0.000000 0.035786 0.000000 0.009430
# 5 0.006582 -0.001083 0.002470 0.000000 0.044749 0.000000
# 6 0.000000 0.000000 0.000000 0.009430 0.000000 0.028765
#
#
# Mechanical properties :
#
#
# Convention : Reuss Voigt Hill
#
# Bulk Modulus (GPa) = 25.14728 27.41920 26.28324
# Shear Modulus (GPa) = 28.72020 31.57683 30.14851
#
# Velocity S-wave (km/s) = 3.53426 3.70586 3.62107
# Velocity P-wave (km/s) = 5.25278 5.49875 5.37717
#
# Compressibility (1/GPa) = 0.03976573
#
# Stress axis : x y z
#
# Youngs Moduli (GPa) = 73.55972 72.88881 54.53137
#
# Poissons Ratio (x) = 0.17157 -0.03974
# Poissons Ratio (y) = 0.17315 0.07188
# Poissons Ratio (z) = -0.05361 0.09607
#
# Static dielectric constant tensor:
#      x y z
#    x 1.907800 0.000000 -0.012780 
#    y 0.000000 1.869210 0.000000 
#    z -0.012780 0.000000 1.907130 
# 
# From -- ./inp_files/49195.got.cif
#   From: 2010.05.17/outbox.cif.g08.bks.cpg/sg15_25_cif.got.tgz:49195.got - 2010.06.03 18:47:42.
