data_PCOD9305634
_publ_section_title
;
Structure prediction by ZEFSAII (Michael W. Deem and Ramdas Pophale) SiO2 
 PCOD9305634
Probable space group: C 2/C
;
_chemical_formula_sum "Si O2"
_cell_formula_units_Z 48
_cell_length_a 16.291866
_cell_length_b 26.302216
_cell_length_c 11.950829
_cell_angle_alpha 90.000000
_cell_angle_beta 26.252528
_cell_angle_gamma 90.000000
_cell_volume 2265.196543
_symmetry_space_group_name_H-M "C 2/C"
_symmetry_group_IT_number 15
_symmetry_cell_setting 'monoclinic'
loop_
_space_group_symop_operation_xyz
x,y,z
-x,y,1/2-z
-x,-y,-z
x,-y,1/2+z
1/2+x,1/2+y,z
1/2-x,1/2+y,1/2-z
1/2-x,1/2-y,-z
1/2+x,1/2-y,1/2+z
loop_
_atom_site_type_symbol
_atom_site_label
_atom_site_fract_x
_atom_site_fract_y
_atom_site_fract_z
Si Si1 0.500000 0.799257 0.750000
Si Si2 0.603466 0.732909 0.405875
Si Si3 0.991791 0.316328 0.393131
Si Si4 0.500000 0.581654 0.750000
Si Si5 0.146464 0.142918 0.758800
Si Si6 0.141520 0.485182 0.679728
Si Si7 0.871399 0.419124 0.163205
O O1 0.533336 0.762918 0.602383
O O2 0.680659 0.835932 0.527410
O O3 0.627578 0.774359 0.279717
O O4 0.445229 0.691756 0.571723
O O5 0.793294 0.701978 0.183073
O O6 0.000000 0.316506 0.250000
O O7 0.043630 0.371160 0.377168
O O8 0.492410 0.618075 0.867033
O O9 0.673957 0.546601 0.568331
O O10 0.225557 0.103585 0.752605
O O11 0.199560 0.538743 0.663125
O O12 0.000000 0.493391 0.750000
O O13 0.028035 0.449703 0.904125
#
# Coordination Sequence:
#
# PCOD9305634 Si02
#       7
#     4   8   8   4   8   8   8
#     4  12  23  42  70 106 152 182 238 301 366 410
#     4  12  25  41  69 105 143 192 242 296 357 435
#     4  12  25  46  67  99 145 201 241 292 355 438
#     4  12  25  42  74 106 140 182 232 311 370 430
#     4  12  24  41  69 111 145 181 235 300 372 438
#     4  11  24  48  72 102 140 182 239 310 371 428
#     4  11  24  46  70  98 142 188 238 301 366 422
#
# _framework density 21.190214000000001
#
# number of rings (size 3 to 8) (size 9 to 14) (size 15 to 20)
#    0.000    0.333    5.000    4.000    2.333    0.667 
#    6.000    0.000    0.000    0.000    0.000    0.000 
#    0.000    0.000    0.000    0.000    0.000    0.000 
#
# Total GULP energy -134181.040964 kJ/mol
# GULP energy per Si atom -5590.876707 kJ/mol
# Density = 2.114198 g / cm^3
# Si number density = 21.190214 Si / 1000 Ang^3
#
#
#
# Elastic Constant Matrix: (Units=GPa)
#
#
# Indices 1 2 3 4 5 6 
#
# 1 154.2918 72.4493 18.6247 -0.0002 7.1852 0.0024
# 2 72.4493 156.8144 15.1389 0.0000 4.8636 -0.0021
# 3 18.6247 15.1389 31.1835 -0.0070 -6.1977 0.0181
# 4 -0.0002 0.0000 -0.0070 23.8577 0.0030 -8.6869
# 5 7.1852 4.8636 -6.1977 0.0030 29.0109 -0.0077
# 6 0.0024 -0.0021 0.0181 -8.6869 -0.0077 75.3969
#
#
#
# Elastic Compliance Matrix: (Units=1/GPa)
#
#
# Indices 1 2 3 4 5 6 
#
# 1 0.008758 -0.003588 -0.003969 -0.000001 -0.002415 0.000000
# 2 -0.003588 0.008262 -0.002054 0.000000 -0.000935 0.000001
# 3 -0.003969 -0.002054 0.037282 0.000007 0.009292 -0.000007
# 4 -0.000001 0.000000 0.000007 0.043751 -0.000001 0.005041
# 5 -0.002415 -0.000935 0.009292 -0.000001 0.037210 0.000001
# 6 0.000000 0.000001 -0.000007 0.005041 0.000001 0.013844
#
#
# Mechanical properties :
#
#
# Convention : Reuss Voigt Hill
#
# Bulk Modulus (GPa) = 28.50561 61.63504 45.07033
# Shear Modulus (GPa) = 27.77452 41.39155 34.58304
#
# Velocity S-wave (km/s) = 3.62432 4.42445 4.04422
# Velocity P-wave (km/s) = 5.56738 7.43308 6.56683
#
# Compressibility (1/GPa) = 0.03508081
#
# Stress axis : x y z
#
# Youngs Moduli (GPa) = 114.18718 121.03711 26.82224
#
# Poissons Ratio (x) = 0.43428 0.10645
# Poissons Ratio (y) = 0.40970 0.05509
# Poissons Ratio (z) = 0.45317 0.24860
#
# Static dielectric constant tensor:
#      x y z
#    x 1.786950 0.000000 -0.032780 
#    y 0.000000 1.757260 0.000000 
#    z -0.032780 0.000000 1.768340 
# 
# From -- ./inp_files/101268.got.cif
#   From: 2010.05.17/outbox.cif.g08.bks.cpg/sg15_51_cif.got.tgz:101268.got - 2010.06.03 18:47:42.
