data_PCOD9305890
_publ_section_title
;
Structure prediction by ZEFSAII (Michael W. Deem and Ramdas Pophale) SiO2 
 PCOD9305890
Probable space group: C 2/C
;
_chemical_formula_sum "Si O2"
_cell_formula_units_Z 44
_cell_length_a 33.836633
_cell_length_b 6.837634
_cell_length_c 9.972374
_cell_angle_alpha 90.000000
_cell_angle_beta 106.223997
_cell_angle_gamma 90.000000
_cell_volume 2215.351971
_symmetry_space_group_name_H-M "C 2/C"
_symmetry_group_IT_number 15
_symmetry_cell_setting 'monoclinic'
loop_
_space_group_symop_operation_xyz
x,y,z
-x,y,1/2-z
-x,-y,-z
x,-y,1/2+z
1/2+x,1/2+y,z
1/2-x,1/2+y,1/2-z
1/2-x,1/2-y,-z
1/2+x,1/2-y,1/2+z
loop_
_atom_site_type_symbol
_atom_site_label
_atom_site_fract_x
_atom_site_fract_y
_atom_site_fract_z
Si Si1 0.103618 0.207495 0.693929
Si Si2 0.044298 0.573819 0.592792
Si Si3 0.199422 0.710374 0.311905
Si Si4 0.239052 0.443921 0.573558
Si Si5 0.500000 0.342622 0.750000
Si Si6 0.069472 0.073257 0.940027
O O1 0.073998 0.394778 0.651897
O O2 0.150931 0.266780 0.748261
O O3 0.090015 0.096182 0.815399
O O4 0.095181 0.066572 0.560772
O O5 0.064145 0.715714 0.501819
O O6 0.000000 0.500000 0.500000
O O7 0.033614 0.706134 0.711283
O O8 0.210135 0.575536 0.450224
O O9 0.218634 0.616437 0.195206
O O10 0.221478 0.919531 0.357701
O O11 0.250000 0.250000 0.500000
O O12 0.524334 0.478645 0.876681
#
# Coordination Sequence:
#
# PCOD9305890 Si02
#       6
#     8   8   8   8   4   8
#     4  12  29  44  70 106 140 182 231 295 346 413
#     4  12  24  44  69  96 138 184 236 278 347 409
#     4  11  27  45  75 106 141 183 232 285 351 418
#     4  11  24  48  73 105 140 186 229 282 348 422
#     4  12  22  46  68  96 136 188 236 286 342 418
#     4  12  26  46  66 101 139 182 232 292 349 403
#
# _framework density 19.861402999999999
#
# number of rings (size 3 to 8) (size 9 to 14) (size 15 to 20)
#    0.000    0.364    5.455    2.727    5.091    1.455 
#    0.000    0.000    0.000    0.000    0.000    0.000 
#    0.000    0.000    0.000    0.000    0.000    0.000 
#
# Total GULP energy -123144.133367 kJ/mol
# GULP energy per Si atom -5597.460608 kJ/mol
# Density = 1.981620 g / cm^3
# Si number density = 19.861403 Si / 1000 Ang^3
#
#
#
# Elastic Constant Matrix: (Units=GPa)
#
#
# Indices 1 2 3 4 5 6 
#
# 1 121.4475 61.7181 57.6552 0.0000 29.9838 0.0000
# 2 61.7181 112.4651 69.5586 0.0000 -6.9828 0.0000
# 3 57.6552 69.5586 126.8106 0.0000 8.7615 0.0000
# 4 0.0000 0.0000 0.0000 20.6419 0.0000 -5.2822
# 5 29.9838 -6.9828 8.7615 0.0000 22.6074 0.0000
# 6 0.0000 0.0000 0.0000 -5.2822 0.0000 15.6697
#
#
#
# Elastic Compliance Matrix: (Units=1/GPa)
#
#
# Indices 1 2 3 4 5 6 
#
# 1 0.027774 -0.017982 0.000170 0.000000 -0.042456 0.000000
# 2 -0.017982 0.026350 -0.008721 0.000000 0.035369 0.000000
# 3 0.000170 -0.008721 0.013146 0.000000 -0.008014 0.000000
# 4 0.000000 0.000000 0.000000 0.053019 0.000000 0.017873
# 5 -0.042456 0.035369 -0.008014 0.000000 0.114572 0.000000
# 6 0.000000 0.000000 0.000000 0.017873 0.000000 0.069842
#
#
# Mechanical properties :
#
#
# Convention : Reuss Voigt Hill
#
# Bulk Modulus (GPa) = 70.41529 82.06523 76.24026
# Shear Modulus (GPa) = 13.79290 23.23655 18.51472
#
# Velocity S-wave (km/s) = 2.63811 3.42414 3.05650
# Velocity P-wave (km/s) = 6.69401 7.55259 7.13623
#
# Compressibility (1/GPa) = 0.01420146
#
# Stress axis : x y z
#
# Youngs Moduli (GPa) = 36.00524 37.95043 76.06726
#
# Poissons Ratio (x) = 0.68244 -0.01290
# Poissons Ratio (y) = 0.64746 0.66342
# Poissons Ratio (z) = -0.00611 0.33098
#
# Static dielectric constant tensor:
#      x y z
#    x 1.630510 0.000000 -0.013170 
#    y 0.000000 1.699340 0.000000 
#    z -0.013170 0.000000 1.714420 
# 
# From -- ./inp_files/125060.got.cif
#   From: 2010.05.17/outbox.cif.g08.bks.cpg/sg15_63_cif.got.tgz:125060.got - 2010.06.03 18:47:42.
