data_PCOD9305734
_publ_section_title
;
Structure prediction by ZEFSAII (Michael W. Deem and Ramdas Pophale) SiO2 
 PCOD9305734
Probable space group: C 2/C
;
_chemical_formula_sum "Si O2"
_cell_formula_units_Z 64
_cell_length_a 16.941786
_cell_length_b 31.145518
_cell_length_c 7.983545
_cell_angle_alpha 90.000000
_cell_angle_beta 44.315637
_cell_angle_gamma 90.000000
_cell_volume 2942.969008
_symmetry_space_group_name_H-M "C 2/C"
_symmetry_group_IT_number 15
_symmetry_cell_setting 'monoclinic'
loop_
_space_group_symop_operation_xyz
x,y,z
-x,y,1/2-z
-x,-y,-z
x,-y,1/2+z
1/2+x,1/2+y,z
1/2-x,1/2+y,1/2-z
1/2-x,1/2-y,-z
1/2+x,1/2-y,1/2+z
loop_
_atom_site_type_symbol
_atom_site_label
_atom_site_fract_x
_atom_site_fract_y
_atom_site_fract_z
Si Si1 0.627978 0.313567 0.615167
Si Si2 0.762933 0.534668 0.711778
Si Si3 0.771031 0.305201 0.076946
Si Si4 0.835238 0.088842 0.355651
Si Si5 0.119832 0.776384 0.001836
Si Si6 0.460764 0.546393 0.621507
Si Si7 0.116495 0.606956 0.124882
Si Si8 0.877038 0.559266 0.031377
O O1 0.500000 0.312509 0.750000
O O2 0.694030 0.295061 0.355497
O O3 0.665732 0.363132 0.574862
O O4 0.639086 0.290107 0.779295
O O5 0.674105 0.544722 0.696864
O O6 0.859203 0.569913 0.546530
O O7 0.822798 0.488772 0.629651
O O8 0.687165 0.549328 0.982979
O O9 0.875374 0.274370 0.963937
O O10 0.715829 0.293441 0.982640
O O11 0.792991 0.355684 0.027692
O O12 0.726036 0.084371 0.402100
O O13 0.961478 0.080743 0.093426
O O14 0.000000 0.794065 0.250000
O O15 0.500000 0.551574 0.750000
O O16 0.500000 0.500000 0.500000
O O17 0.108235 0.583054 0.314456
O O18 0.000000 0.628223 0.250000
O O19 0.000000 0.557617 0.750000
#
# Coordination Sequence:
#
# PCOD9305734 Si02
#       8
#     8   8   8   8   8   8   8   8
#     4  12  24  45  74 109 146 183 229 288 355 424
#     4  12  24  44  68  96 135 187 235 289 344 404
#     4  11  25  48  75 107 143 185 229 289 353 423
#     4  12  25  43  69 100 140 181 232 291 348 412
#     4  11  24  46  78 109 143 182 231 284 354 432
#     4  12  25  42  64  96 135 179 232 290 347 406
#     4  12  26  47  70  96 140 182 230 293 348 409
#     4  12  27  45  67  97 135 187 246 290 342 410
#
# _framework density 21.746746999999999
#
# number of rings (size 3 to 8) (size 9 to 14) (size 15 to 20)
#    0.000    0.250    3.750    6.000    0.000    2.000 
#    0.000    0.000    0.000    0.000    0.000    0.000 
#    0.000    0.000    0.000    0.000    0.000    0.000 
#
# Total GULP energy -178655.798063 kJ/mol
# GULP energy per Si atom -5582.993689 kJ/mol
# Density = 2.169725 g / cm^3
# Si number density = 21.746747 Si / 1000 Ang^3
#
#
#
# Elastic Constant Matrix: (Units=GPa)
#
#
# Indices 1 2 3 4 5 6 
#
# 1 127.7142 43.1140 46.9144 0.0000 7.3876 0.0000
# 2 43.1140 88.5867 25.8335 0.0000 6.8671 0.0000
# 3 46.9144 25.8335 105.6092 0.0000 8.5714 0.0000
# 4 0.0000 0.0000 0.0000 21.2168 0.0000 -5.5645
# 5 7.3876 6.8671 8.5714 0.0000 38.3107 0.0000
# 6 0.0000 0.0000 0.0000 -5.5645 0.0000 -18.1210
#
#
#
# Elastic Compliance Matrix: (Units=1/GPa)
#
#
# Indices 1 2 3 4 5 6 
#
# 1 0.010568 -0.004036 -0.003667 0.000000 -0.000494 0.000000
# 2 -0.004036 0.013787 -0.001469 0.000000 -0.001364 0.000000
# 3 -0.003667 -0.001469 0.011589 0.000000 -0.001622 0.000000
# 4 0.000000 0.000000 0.000000 0.043620 0.000000 -0.013394
# 5 -0.000494 -0.001364 -0.001622 0.000000 0.026805 0.000000
# 6 0.000000 0.000000 0.000000 -0.013394 0.000000 -0.051072
#
#
# Mechanical properties :
#
#
# Convention : Reuss Voigt Hill
#
# Bulk Modulus (GPa) = 56.81855 61.51486 59.16671
# Shear Modulus (GPa) = 62.88736 22.01784 42.45260
#
# Velocity S-wave (km/s) = 5.38338 3.18538 4.42309
# Velocity P-wave (km/s) = 8.05141 6.47126 7.30419
#
# Compressibility (1/GPa) = 0.01759989
#
# Stress axis : x y z
#
# Youngs Moduli (GPa) = 94.62480 72.53433 86.28866
#
# Poissons Ratio (x) = 0.29272 0.31645
# Poissons Ratio (y) = 0.38186 0.12675
# Poissons Ratio (z) = 0.34702 0.10655
#
# Static dielectric constant tensor:
#      x y z
#    x 0.006840 0.000000 0.210800 
#    y 0.000000 1.763370 0.000000 
#    z 0.210800 0.000000 1.857360 
# 
# From -- ./inp_files/52800.got.cif
#   From: 2010.05.17/outbox.cif.g08.bks.cpg/sg15_27_cif.got.tgz:52800.got - 2010.06.03 18:47:42.
