data_PCOD9305627
_publ_section_title
;
Structure prediction by ZEFSAII (Michael W. Deem and Ramdas Pophale) SiO2 
 PCOD9305627
Probable space group: C 2/C
;
_chemical_formula_sum "Si O2"
_cell_formula_units_Z 40
_cell_length_a 11.634433
_cell_length_b 22.466949
_cell_length_c 14.180056
_cell_angle_alpha 90.000000
_cell_angle_beta 151.257439
_cell_angle_gamma 90.000000
_cell_volume 1782.376342
_symmetry_space_group_name_H-M "C 2/C"
_symmetry_group_IT_number 15
_symmetry_cell_setting 'monoclinic'
loop_
_space_group_symop_operation_xyz
x,y,z
-x,y,1/2-z
-x,-y,-z
x,-y,1/2+z
1/2+x,1/2+y,z
1/2-x,1/2+y,1/2-z
1/2-x,1/2-y,-z
1/2+x,1/2-y,1/2+z
loop_
_atom_site_type_symbol
_atom_site_label
_atom_site_fract_x
_atom_site_fract_y
_atom_site_fract_z
Si Si1 0.000000 0.480846 0.750000
Si Si2 0.282261 0.921171 0.960025
Si Si3 0.458163 0.695003 0.975403
Si Si4 0.000000 0.678704 0.750000
Si Si5 0.232466 0.190431 0.857662
Si Si6 0.139116 0.603721 0.191076
O O1 0.842811 0.523027 0.569895
O O2 0.847012 0.440232 0.710912
O O3 0.376947 0.927655 0.921782
O O4 0.000000 0.913212 0.750000
O O5 0.402241 0.864325 0.096961
O O6 0.229936 0.712510 0.874473
O O7 0.359567 0.666083 0.808409
O O8 0.608964 0.752290 0.053488
O O9 0.635127 0.648190 0.150612
O O10 0.000000 0.207180 0.750000
O O11 0.401243 0.143748 0.031574
#
# Coordination Sequence:
#
# PCOD9305627 Si02
#       6
#     4   8   8   4   8   8
#     4  11  28  44  72 106 132 186 244 295 358 418
#     4  11  24  48  72 100 139 181 240 305 350 415
#     4  12  25  43  73 104 144 192 232 287 351 427
#     4  11  24  46  70 106 142 186 244 287 354 418
#     4  12  26  44  70 108 150 186 234 286 351 431
#     4  12  25  47  72 105 143 188 231 294 360 412
#
# _framework density 22.441949000000001
#
# number of rings (size 3 to 8) (size 9 to 14) (size 15 to 20)
#    0.000    0.400    6.000    2.400    1.400    4.000 
#    1.800    0.000    0.000    0.000    0.000    0.000 
#    0.000    0.000    0.000    0.000    0.000    0.000 
#
# Total GULP energy -111988.940654 kJ/mol
# GULP energy per Si atom -5599.447033 kJ/mol
# Density = 2.239087 g / cm^3
# Si number density = 22.441949 Si / 1000 Ang^3
#
#
#
# Elastic Constant Matrix: (Units=GPa)
#
#
# Indices 1 2 3 4 5 6 
#
# 1 177.0779 51.8209 51.9513 -0.0005 22.4415 -0.0004
# 2 51.8209 77.6727 42.3247 0.0002 6.6344 0.0001
# 3 51.9513 42.3247 122.0543 -0.0076 14.3703 -0.0047
# 4 -0.0005 0.0002 -0.0076 -105.1079 -0.0043 -72.7095
# 5 22.4415 6.6344 14.3703 -0.0043 52.7210 -0.0027
# 6 -0.0004 0.0001 -0.0047 -72.7095 -0.0027 -9.4381
#
#
#
# Elastic Compliance Matrix: (Units=1/GPa)
#
#
# Indices 1 2 3 4 5 6 
#
# 1 0.007567 -0.004001 -0.001564 0.000000 -0.002291 0.000000
# 2 -0.004001 0.018003 -0.004622 0.000000 0.000697 0.000000
# 3 -0.001564 -0.004622 0.010657 -0.000001 -0.001657 0.000000
# 4 0.000000 0.000000 -0.000001 0.002198 -0.000001 -0.016930
# 5 -0.002291 0.000697 -0.001657 -0.000001 0.020307 0.000000
# 6 0.000000 0.000000 0.000000 -0.016930 0.000000 0.024474
#
#
# Mechanical properties :
#
#
# Convention : Reuss Voigt Hill
#
# Bulk Modulus (GPa) = 63.07788 74.33317 68.70553
# Shear Modulus (GPa) = 45.92924 3.01554 24.47239
#
# Velocity S-wave (km/s) = 4.52882 1.16044 3.30582
# Velocity P-wave (km/s) = 7.45085 5.91522 6.72700
#
# Compressibility (1/GPa) = 0.01585342
#
# Stress axis : x y z
#
# Youngs Moduli (GPa) = 132.14903 55.54700 93.83851
#
# Poissons Ratio (x) = 0.22223 0.14674
# Poissons Ratio (y) = 0.52870 0.43372
# Poissons Ratio (z) = 0.20665 0.25674
#
# Static dielectric constant tensor:
#      x y z
#    x 1.841420 0.000000 -0.017960 
#    y 0.000000 1.807620 0.000000 
#    z -0.017960 0.000000 1.830670 
# 
# From -- ./inp_files/148198.got.cif
#   From: 2010.05.17/outbox.cif.g08.bks.cpg/sg15_75_cif.got.tgz:148198.got - 2010.06.03 18:47:42.
