data_PCOD9305474
_publ_section_title
;
Structure prediction by ZEFSAII (Michael W. Deem and Ramdas Pophale) SiO2 
 PCOD9305474
Probable space group: C 2/C
;
_chemical_formula_sum "Si O2"
_cell_formula_units_Z 28
_cell_length_a 6.900093
_cell_length_b 13.321502
_cell_length_c 20.665258
_cell_angle_alpha 90.000000
_cell_angle_beta 52.041044
_cell_angle_gamma 90.000000
_cell_volume 1497.697136
_symmetry_space_group_name_H-M "C 2/C"
_symmetry_group_IT_number 15
_symmetry_cell_setting 'monoclinic'
loop_
_space_group_symop_operation_xyz
x,y,z
-x,y,1/2-z
-x,-y,-z
x,-y,1/2+z
1/2+x,1/2+y,z
1/2-x,1/2+y,1/2-z
1/2-x,1/2-y,-z
1/2+x,1/2-y,1/2+z
loop_
_atom_site_type_symbol
_atom_site_label
_atom_site_fract_x
_atom_site_fract_y
_atom_site_fract_z
Si Si1 0.500000 0.808403 0.250000
Si Si2 0.441511 0.335952 0.885424
Si Si3 0.381968 0.202662 0.535021
Si Si4 0.521481 0.441747 0.323161
O O1 0.518476 0.737989 0.183337
O O2 0.260366 0.877728 0.293206
O O3 0.577613 0.288146 0.919076
O O4 0.532869 0.446413 0.849067
O O5 0.151095 0.337395 0.960780
O O6 0.250000 0.250000 0.500000
O O7 0.213443 0.115950 0.599633
O O8 0.500000 0.446595 0.250000
#
# Coordination Sequence:
#
# PCOD9305474 Si02
#       4
#     4   8   8   8
#     4  12  24  42  66 100 128 174 226 264 326 394
#     4  11  25  44  68  97 132 174 218 272 327 391
#     4  11  24  45  69  96 137 172 217 272 328 393
#     4  12  25  42  69  97 132 176 220 270 331 384
#
# _framework density 18.695367999999998
#
# number of rings (size 3 to 8) (size 9 to 14) (size 15 to 20)
#    0.000    0.571    7.143    0.857    0.000    5.714 
#    0.000    0.000    0.000    0.000    0.000    0.000 
#    0.000    0.000    0.000    0.000    0.000    0.000 
#
# Total GULP energy -78333.559277 kJ/mol
# GULP energy per Si atom -5595.254234 kJ/mol
# Density = 1.865282 g / cm^3
# Si number density = 18.695368 Si / 1000 Ang^3
#
#
#
# Elastic Constant Matrix: (Units=GPa)
#
#
# Indices 1 2 3 4 5 6 
#
# 1 123.4184 74.7332 68.2360 0.0003 11.6099 -0.0005
# 2 74.7332 179.7071 93.8329 -0.0002 -7.0858 -0.0001
# 3 68.2360 93.8329 134.2217 0.0000 11.9163 -0.0002
# 4 0.0003 -0.0002 0.0000 9.5997 -0.0004 7.1204
# 5 11.6099 -7.0858 11.9163 -0.0004 36.7315 0.0003
# 6 -0.0005 -0.0001 -0.0002 7.1204 0.0003 13.2001
#
#
#
# Elastic Compliance Matrix: (Units=1/GPa)
#
#
# Indices 1 2 3 4 5 6 
#
# 1 0.012531 -0.003432 -0.003666 -0.000001 -0.003433 0.000001
# 2 -0.003432 0.010247 -0.005859 0.000001 0.004962 -0.000001
# 3 -0.003666 -0.005859 0.013805 -0.000001 -0.004450 0.000000
# 4 -0.000001 0.000001 -0.000001 0.173647 0.000003 -0.093669
# 5 -0.003433 0.004962 -0.004450 0.000003 0.030711 -0.000003
# 6 0.000001 -0.000001 0.000000 -0.093669 -0.000003 0.126284
#
#
# Mechanical properties :
#
#
# Convention : Reuss Voigt Hill
#
# Bulk Modulus (GPa) = 93.73920 101.21684 97.47802
# Shear Modulus (GPa) = 12.60412 25.27592 18.94002
#
# Velocity S-wave (km/s) = 2.59932 3.68093 3.18635
# Velocity P-wave (km/s) = 7.69791 8.50431 8.11114
#
# Compressibility (1/GPa) = 0.01066790
#
# Stress axis : x y z
#
# Youngs Moduli (GPa) = 79.80369 97.59015 72.43513
#
# Poissons Ratio (x) = 0.33494 0.26557
# Poissons Ratio (y) = 0.27390 0.42442
# Poissons Ratio (z) = 0.29258 0.57181
#
# Static dielectric constant tensor:
#      x y z
#    x 1.613130 0.000000 -0.004220 
#    y 0.000000 1.598590 0.000000 
#    z -0.004220 0.000000 1.633360 
# 
# From -- ./inp_files/183504.got.cif
#   From: 2010.05.17/outbox.cif.g08.bks.cpg/sg15_92_cif.got.tgz:183504.got - 2010.06.03 18:47:42.
