data_PCOD9305373
_publ_section_title
;
Structure prediction by ZEFSAII (Michael W. Deem and Ramdas Pophale) SiO2 
 PCOD9305373
Probable space group: C 2/C
;
_chemical_formula_sum "Si O2"
_cell_formula_units_Z 44
_cell_length_a 18.608894
_cell_length_b 6.003390
_cell_length_c 19.132837
_cell_angle_alpha 90.000000
_cell_angle_beta 119.185668
_cell_angle_gamma 90.000000
_cell_volume 1866.090340
_symmetry_space_group_name_H-M "C 2/C"
_symmetry_group_IT_number 15
_symmetry_cell_setting 'monoclinic'
loop_
_space_group_symop_operation_xyz
x,y,z
-x,y,1/2-z
-x,-y,-z
x,-y,1/2+z
1/2+x,1/2+y,z
1/2-x,1/2+y,1/2-z
1/2-x,1/2-y,-z
1/2+x,1/2-y,1/2+z
loop_
_atom_site_type_symbol
_atom_site_label
_atom_site_fract_x
_atom_site_fract_y
_atom_site_fract_z
Si Si1 0.047691 0.566349 0.624988
Si Si2 0.061971 0.199503 0.536920
Si Si3 0.294589 0.555354 0.980473
Si Si4 0.764185 0.623510 0.790785
Si Si5 0.341720 0.298064 0.129727
Si Si6 0.500000 0.024488 0.250000
O O1 0.055099 0.305105 0.609910
O O2 0.137987 0.653155 0.645914
O O3 0.028450 0.613217 0.695929
O O4 0.971800 0.639250 0.540410
O O5 0.153945 0.137787 0.560806
O O6 0.000000 0.000000 0.500000
O O7 0.354252 0.444432 0.066370
O O8 0.250000 0.750000 0.000000
O O9 0.225344 0.385245 0.924194
O O10 0.759813 0.378407 0.748299
O O11 0.704063 0.580777 0.828081
O O12 0.423950 0.177735 0.191930
#
# Coordination Sequence:
#
# PCOD9305373 Si02
#       6
#     8   8   8   8   8   4
#     4  11  26  44  70 107 147 194 258 316 390 464
#     4  11  24  44  72 102 144 198 252 317 383 467
#     4  11  24  44  72 102 144 198 252 317 383 467
#     4  12  28  47  74 106 150 203 252 311 392 464
#     4  11  26  44  70 107 147 194 258 316 390 464
#     4  12  24  46  70 112 154 194 258 324 394 448
#
# _framework density 23.578707999999999
#
# number of rings (size 3 to 8) (size 9 to 14) (size 15 to 20)
#    0.000    0.727    1.818    4.364    7.636    8.727 
#    0.000    1.818    0.000    0.000    0.000    0.000 
#    0.000    0.000    0.000    0.000    0.000    0.000 
#
# Total GULP energy -122933.701415 kJ/mol
# GULP energy per Si atom -5587.895519 kJ/mol
# Density = 2.352504 g / cm^3
# Si number density = 23.578708 Si / 1000 Ang^3
#
#
#
# Elastic Constant Matrix: (Units=GPa)
#
#
# Indices 1 2 3 4 5 6 
#
# 1 88.2197 -2.3420 -1.8256 0.0000 0.8329 0.0000
# 2 -2.3420 67.4683 3.9471 0.0000 -5.8702 0.0000
# 3 -1.8256 3.9471 66.1949 0.0000 4.3969 0.0000
# 4 0.0000 0.0000 0.0000 26.0878 0.0000 4.4376
# 5 0.8329 -5.8702 4.3969 0.0000 46.5133 0.0000
# 6 0.0000 0.0000 0.0000 4.4376 0.0000 30.5315
#
#
#
# Elastic Compliance Matrix: (Units=1/GPa)
#
#
# Indices 1 2 3 4 5 6 
#
# 1 0.011353 0.000360 0.000304 0.000000 -0.000187 0.000000
# 2 0.000360 0.015067 -0.001021 0.000000 0.001992 0.000000
# 3 0.000304 -0.001021 0.015281 0.000000 -0.001579 0.000000
# 4 0.000000 0.000000 0.000000 0.039304 0.000000 -0.005713
# 5 -0.000187 0.001992 -0.001579 0.000000 0.021903 0.000000
# 6 0.000000 0.000000 0.000000 -0.005713 0.000000 0.033583
#
#
# Mechanical properties :
#
#
# Convention : Reuss Voigt Hill
#
# Bulk Modulus (GPa) = 24.39748 24.60467 24.50107
# Shear Modulus (GPa) = 33.14165 35.43342 34.28754
#
# Velocity S-wave (km/s) = 3.75317 3.88077 3.81750
# Velocity P-wave (km/s) = 5.39920 5.52614 5.46304
#
# Compressibility (1/GPa) = 0.04098783
#
# Stress axis : x y z
#
# Youngs Moduli (GPa) = 88.08287 66.36900 65.44067
#
# Poissons Ratio (x) = -0.02390 -0.01990
# Poissons Ratio (y) = -0.03172 0.06680
# Poissons Ratio (z) = -0.02678 0.06775
#
# Static dielectric constant tensor:
#      x y z
#    x 1.812220 0.000000 0.007230 
#    y 0.000000 2.037170 0.000000 
#    z 0.007230 0.000000 1.944410 
# 
# From -- ./inp_files/246536.got.cif
#   From: 2010.05.17/outbox.cif.g08.bks.cpg/sg15_124_cif.got.tgz:246536.got - 2010.06.03 18:47:42.
