data_PCOD9305349
_publ_section_title
;
Structure prediction by ZEFSAII (Michael W. Deem and Ramdas Pophale) SiO2 
 PCOD9305349
Probable space group: C 2/C
;
_chemical_formula_sum "Si O2"
_cell_formula_units_Z 64
_cell_length_a 14.826803
_cell_length_b 10.646565
_cell_length_c 26.900590
_cell_angle_alpha 90.000000
_cell_angle_beta 139.773598
_cell_angle_gamma 90.000000
_cell_volume 2742.352728
_symmetry_space_group_name_H-M "C 2/C"
_symmetry_group_IT_number 15
_symmetry_cell_setting 'monoclinic'
loop_
_space_group_symop_operation_xyz
x,y,z
-x,y,1/2-z
-x,-y,-z
x,-y,1/2+z
1/2+x,1/2+y,z
1/2-x,1/2+y,1/2-z
1/2-x,1/2-y,-z
1/2+x,1/2-y,1/2+z
loop_
_atom_site_type_symbol
_atom_site_label
_atom_site_fract_x
_atom_site_fract_y
_atom_site_fract_z
Si Si1 0.713606 0.560679 0.210662
Si Si2 0.366434 0.665269 0.218586
Si Si3 0.867648 0.761046 0.158226
Si Si4 0.600557 0.264411 0.057874
Si Si5 0.773657 0.994936 0.937176
Si Si6 0.966163 0.413043 0.318365
Si Si7 0.879920 0.690347 0.885507
Si Si8 0.028879 0.865117 0.403856
O O1 0.700686 0.598920 0.262451
O O2 0.870695 0.528675 0.260430
O O3 0.653878 0.674410 0.153423
O O4 0.615850 0.439225 0.164356
O O5 0.500000 0.599176 0.250000
O O6 0.246412 0.696975 0.129115
O O7 0.426111 0.795217 0.267328
O O8 0.779002 0.633655 0.110425
O O9 0.755343 0.848318 0.139646
O O10 0.916460 0.811622 0.125025
O O11 0.000000 0.746033 0.250000
O O12 0.634454 0.409750 0.057379
O O13 0.509749 0.263070 0.070262
O O14 0.511293 0.204164 0.976741
O O15 0.629666 0.065650 0.887382
O O16 0.859332 0.956087 0.022318
O O17 0.915627 0.392370 0.353202
#
# Coordination Sequence:
#
# PCOD9305349 Si02
#       8
#     8   8   8   8   8   8   8   8
#     4  11  24  44  70  95 139 180 217 273 347 396
#     4  11  25  42  68 102 134 171 227 280 327 400
#     4  12  27  42  70 101 137 173 225 278 329 403
#     4  12  24  44  71  97 136 177 226 280 330 394
#     4  12  25  43  73 101 131 177 230 276 332 395
#     4  11  25  42  68 100 134 172 225 277 329 403
#     4  11  25  45  66  99 136 178 222 275 340 400
#     4  12  25  45  69 101 135 178 223 275 339 397
#
# _framework density 23.337627000000001
#
# number of rings (size 3 to 8) (size 9 to 14) (size 15 to 20)
#    0.000    0.500    5.000    3.000    5.250    3.000 
#    0.000    1.250    0.000    0.000    0.000    0.000 
#    0.000    0.000    0.000    0.000    0.000    0.000 
#
# Total GULP energy -179290.613284 kJ/mol
# GULP energy per Si atom -5602.831665 kJ/mol
# Density = 2.328451 g / cm^3
# Si number density = 23.337627 Si / 1000 Ang^3
#
#
#
# Elastic Constant Matrix: (Units=GPa)
#
#
# Indices 1 2 3 4 5 6 
#
# 1 134.7433 12.4201 43.0440 0.0000 -10.8570 0.0000
# 2 12.4201 18.0188 18.7928 0.0000 -9.1987 0.0000
# 3 43.0440 18.7928 164.2429 0.0000 -1.5726 0.0000
# 4 0.0000 0.0000 0.0000 18.6412 0.0000 1.8157
# 5 -10.8570 -9.1987 -1.5726 0.0000 42.6266 0.0000
# 6 0.0000 0.0000 0.0000 1.8157 0.0000 17.3272
#
#
#
# Elastic Compliance Matrix: (Units=1/GPa)
#
#
# Indices 1 2 3 4 5 6 
#
# 1 0.008410 -0.003184 -0.001827 0.000000 0.001388 0.000000
# 2 -0.003184 0.072840 -0.007360 0.000000 0.014636 0.000000
# 3 -0.001827 -0.007360 0.007392 0.000000 -0.001781 0.000000
# 4 0.000000 0.000000 0.000000 0.054198 0.000000 -0.005679
# 5 0.001388 0.014636 -0.001781 0.000000 0.026906 0.000000
# 6 0.000000 0.000000 0.000000 -0.005679 0.000000 0.058308
#
#
# Mechanical properties :
#
#
# Convention : Reuss Voigt Hill
#
# Bulk Modulus (GPa) = 15.64888 51.72429 33.68658
# Shear Modulus (GPa) = 18.24184 31.90220 25.07202
#
# Velocity S-wave (km/s) = 2.79883 3.70129 3.28123
# Velocity P-wave (km/s) = 4.14302 6.36220 5.36853
#
# Compressibility (1/GPa) = 0.06390235
#
# Stress axis : x y z
#
# Youngs Moduli (GPa) = 118.90205 13.72873 135.27561
#
# Poissons Ratio (x) = 0.04371 0.24709
# Poissons Ratio (y) = 0.37854 0.99562
# Poissons Ratio (z) = 0.21718 0.10104
#
# Static dielectric constant tensor:
#      x y z
#    x 1.874840 0.000000 -0.004330 
#    y 0.000000 1.908860 0.000000 
#    z -0.004330 0.000000 1.842810 
# 
# From -- ./inp_files/296165.got.cif
#   From: 2010.05.17/outbox.cif.g08.bks.cpg/sg15_149_cif.got.tgz:296165.got - 2010.06.03 18:47:42.
