data_PCOD9305152
_publ_section_title
;
Structure prediction by ZEFSAII (Michael W. Deem and Ramdas Pophale) SiO2 
 PCOD9305152
Probable space group: C 2/C
;
_chemical_formula_sum "Si O2"
_cell_formula_units_Z 48
_cell_length_a 10.523464
_cell_length_b 9.409487
_cell_length_c 22.085957
_cell_angle_alpha 90.000000
_cell_angle_beta 101.790331
_cell_angle_gamma 90.000000
_cell_volume 2140.819506
_symmetry_space_group_name_H-M "C 2/C"
_symmetry_group_IT_number 15
_symmetry_cell_setting 'monoclinic'
loop_
_space_group_symop_operation_xyz
x,y,z
-x,y,1/2-z
-x,-y,-z
x,-y,1/2+z
1/2+x,1/2+y,z
1/2-x,1/2+y,1/2-z
1/2-x,1/2-y,-z
1/2+x,1/2-y,1/2+z
loop_
_atom_site_type_symbol
_atom_site_label
_atom_site_fract_x
_atom_site_fract_y
_atom_site_fract_z
Si Si1 0.756050 0.475652 0.524523
Si Si2 0.536466 0.773051 0.998456
Si Si3 0.854655 0.772409 0.251149
Si Si4 0.149308 0.077357 0.285647
Si Si5 0.381460 0.400383 0.386500
Si Si6 0.899248 0.146036 0.087740
O O1 0.647905 0.349403 0.513549
O O2 0.890405 0.410908 0.517032
O O3 0.743454 0.539847 0.590253
O O4 0.793998 0.915216 0.530801
O O5 0.440229 0.717667 0.937210
O O6 0.467008 0.772934 0.057011
O O7 0.821859 0.908082 0.205241
O O8 0.000000 0.719462 0.250000
O O9 0.746266 0.651400 0.247237
O O10 0.862920 0.844355 0.317939
O O11 0.157957 0.157004 0.350944
O O12 0.000000 0.088774 0.250000
O O13 0.489148 0.525261 0.394693
#
# Coordination Sequence:
#
# PCOD9305152 Si02
#       6
#     8   8   8   8   8   8
#     4   8  15  27  52  86 118 150 187 239 300 361
#     4   8  15  27  52  86 118 150 187 239 300 361
#     4  11  24  43  64  88 121 164 212 260 307 358
#     4  11  24  43  64  88 121 164 212 260 307 358
#     4   9  16  33  55  83 116 153 200 241 295 366
#     4   9  16  33  55  83 116 153 200 241 295 366
#
# _framework density 22.421320000000001
#
# number of rings (size 3 to 8) (size 9 to 14) (size 15 to 20)
#    0.000    2.667    3.333    2.000    0.000    3.333 
#    0.000    3.333    0.000    2.000    0.000    0.000 
#    0.000    0.000    0.000    0.000    0.000    0.000 
#
# Total GULP energy -134087.898363 kJ/mol
# GULP energy per Si atom -5586.995765 kJ/mol
# Density = 2.237029 g / cm^3
# Si number density = 22.421320 Si / 1000 Ang^3
#
#
#
# Elastic Constant Matrix: (Units=GPa)
#
#
# Indices 1 2 3 4 5 6 
#
# 1 91.4515 57.6588 14.1891 0.0000 -44.4758 0.0000
# 2 57.6588 53.5819 -4.8825 0.0000 -21.2561 0.0000
# 3 14.1891 -4.8825 86.6450 0.0000 -30.7300 0.0000
# 4 0.0000 0.0000 0.0000 22.6536 0.0000 -19.7636
# 5 -44.4758 -21.2561 -30.7300 0.0000 35.5364 0.0000
# 6 0.0000 0.0000 0.0000 -19.7636 0.0000 39.7224
#
#
#
# Elastic Compliance Matrix: (Units=1/GPa)
#
#
# Indices 1 2 3 4 5 6 
#
# 1 0.088812 -0.060371 0.012504 0.000000 0.085855 0.000000
# 2 -0.060371 0.072427 0.003656 0.000000 -0.029074 0.000000
# 3 0.012504 0.003656 0.023115 0.000000 0.037825 0.000000
# 4 0.000000 0.000000 0.000000 0.078001 0.000000 0.038809
# 5 0.085855 -0.029074 0.037825 0.000000 0.150910 0.000000
# 6 0.000000 0.000000 0.000000 0.038809 0.000000 0.044484
#
#
# Mechanical properties :
#
#
# Convention : Reuss Voigt Hill
#
# Bulk Modulus (GPa) = 10.42411 40.62326 25.52368
# Shear Modulus (GPa) = 8.64832 30.56334 19.60583
#
# Velocity S-wave (km/s) = 1.96610 3.69607 2.96028
# Velocity P-wave (km/s) = 3.13263 6.03093 4.80549
#
# Compressibility (1/GPa) = 0.09593143
#
# Stress axis : x y z
#
# Youngs Moduli (GPa) = 11.25980 13.80704 43.26226
#
# Poissons Ratio (x) = 0.83354 -0.54094
# Poissons Ratio (y) = 0.67976 -0.15817
# Poissons Ratio (z) = -0.14079 -0.05048
#
# Static dielectric constant tensor:
#      x y z
#    x 1.844490 0.000000 -0.039850 
#    y 0.000000 1.894090 0.000000 
#    z -0.039850 0.000000 1.819740 
# 
# From -- ./inp_files/267623.got.cif
#   From: 2010.05.17/outbox.cif.g08.bks.cpg/sg15_134_cif.got.tgz:267623.got - 2010.06.03 18:47:42.
