data_PCOD9305972
_publ_section_title
;
Structure prediction by ZEFSAII (Michael W. Deem and Ramdas Pophale) SiO2 
 PCOD9305972
Probable space group: C 2/C
;
_chemical_formula_sum "Si O2"
_cell_formula_units_Z 40
_cell_length_a 24.027683
_cell_length_b 11.377662
_cell_length_c 10.457156
_cell_angle_alpha 90.000000
_cell_angle_beta 147.230210
_cell_angle_gamma 90.000000
_cell_volume 1547.349436
_symmetry_space_group_name_H-M "C 2/C"
_symmetry_group_IT_number 15
_symmetry_cell_setting 'monoclinic'
loop_
_space_group_symop_operation_xyz
x,y,z
-x,y,1/2-z
-x,-y,-z
x,-y,1/2+z
1/2+x,1/2+y,z
1/2-x,1/2+y,1/2-z
1/2-x,1/2-y,-z
1/2+x,1/2-y,1/2+z
loop_
_atom_site_type_symbol
_atom_site_label
_atom_site_fract_x
_atom_site_fract_y
_atom_site_fract_z
Si Si1 0.082205 0.373510 0.318640
Si Si2 0.714112 0.902038 0.048876
Si Si3 0.090244 0.779985 0.156401
Si Si4 0.723311 0.738280 0.296274
Si Si5 0.536626 0.436276 0.443090
O O1 0.156281 0.475219 0.409214
O O2 0.167334 0.296381 0.555437
O O3 0.000000 0.435619 0.250000
O O4 0.010564 0.281176 0.102921
O O5 0.837367 0.882846 0.266532
O O6 0.690868 0.850707 0.147598
O O7 0.665087 0.822634 0.844148
O O8 0.045157 0.828739 0.202811
O O9 0.750000 0.750000 0.500000
O O10 0.644583 0.629602 0.140418
O O11 0.500000 0.508631 0.250000
O O12 0.500000 0.500000 0.500000
#
# Coordination Sequence:
#
# PCOD9305972 Si02
#       5
#     8   8   8   8   8
#     4  12  26  45  78 114 154 213 263 333 415 481
#     4  11  26  46  75 113 155 204 273 333 405 492
#     4  11  24  50  75 108 160 200 267 341 402 482
#     4  12  26  47  74 112 159 204 268 335 398 496
#     4  12  27  48  79 111 155 213 267 333 418 488
#
# _framework density 25.850655
#
# number of rings (size 3 to 8) (size 9 to 14) (size 15 to 20)
#    0.000    0.400    6.000    1.800    2.800    5.600 
#    0.000    0.000    0.000    0.000    0.000    0.000 
#    0.000    0.000    0.000    0.000    0.000    0.000 
#
# Total GULP energy -111398.284301 kJ/mol
# GULP energy per Si atom -5569.914215 kJ/mol
# Density = 2.579182 g / cm^3
# Si number density = 25.850655 Si / 1000 Ang^3
#
#
#
# Elastic Constant Matrix: (Units=GPa)
#
#
# Indices 1 2 3 4 5 6 
#
# 1 118.4145 27.6675 75.3620 0.0000 5.6131 0.0000
# 2 27.6675 75.7501 39.9027 0.0000 7.7065 0.0000
# 3 75.3620 39.9027 165.5798 0.0000 11.2601 0.0000
# 4 0.0000 0.0000 0.0000 45.7704 0.0000 0.2383
# 5 5.6131 7.7065 11.2601 0.0000 58.1084 0.0000
# 6 0.0000 0.0000 0.0000 0.2383 0.0000 32.1788
#
#
#
# Elastic Compliance Matrix: (Units=1/GPa)
#
#
# Indices 1 2 3 4 5 6 
#
# 1 0.012085 -0.001741 -0.005084 0.000000 0.000049 0.000000
# 2 -0.001741 0.015472 -0.002846 0.000000 -0.001332 0.000000
# 3 -0.005084 -0.002846 0.009100 0.000000 -0.000895 0.000000
# 4 0.000000 0.000000 0.000000 0.021849 0.000000 -0.000162
# 5 0.000049 -0.001332 -0.000895 0.000000 0.017555 0.000000
# 6 0.000000 0.000000 0.000000 -0.000162 0.000000 0.031078
#
#
# Mechanical properties :
#
#
# Convention : Reuss Voigt Hill
#
# Bulk Modulus (GPa) = 57.75147 71.73432 64.74290
# Shear Modulus (GPa) = 37.80696 41.66567 39.73631
#
# Velocity S-wave (km/s) = 3.82843 4.01906 3.92490
# Velocity P-wave (km/s) = 6.47545 7.02473 6.75568
#
# Compressibility (1/GPa) = 0.01731558
#
# Stress axis : x y z
#
# Youngs Moduli (GPa) = 82.74686 64.63450 109.89004
#
# Poissons Ratio (x) = 0.11251 0.55870
# Poissons Ratio (y) = 0.14404 0.31270
# Poissons Ratio (z) = 0.42070 0.18392
#
# Static dielectric constant tensor:
#      x y z
#    x 2.003410 0.000000 -0.148140 
#    y 0.000000 2.181570 0.000000 
#    z -0.148140 0.000000 1.949340 
# 
# From -- ./inp_files/122830.got.cif
#   From: 2010.05.17/outbox.cif.g08.bks.cpg/sg15_62_cif.got.tgz:122830.got - 2010.06.03 18:47:42.
