data_PCOD9305066
_publ_section_title
;
Structure prediction by ZEFSAII (Michael W. Deem and Ramdas Pophale) SiO2 
 PCOD9305066
Probable space group: C 2/C
;
_chemical_formula_sum "Si O2"
_cell_formula_units_Z 52
_cell_length_a 19.263807
_cell_length_b 14.586238
_cell_length_c 17.562228
_cell_angle_alpha 90.000000
_cell_angle_beta 28.672026
_cell_angle_gamma 90.000000
_cell_volume 2367.668571
_symmetry_space_group_name_H-M "C 2/C"
_symmetry_group_IT_number 15
_symmetry_cell_setting 'monoclinic'
loop_
_space_group_symop_operation_xyz
x,y,z
-x,y,1/2-z
-x,-y,-z
x,-y,1/2+z
1/2+x,1/2+y,z
1/2-x,1/2+y,1/2-z
1/2-x,1/2-y,-z
1/2+x,1/2-y,1/2+z
loop_
_atom_site_type_symbol
_atom_site_label
_atom_site_fract_x
_atom_site_fract_y
_atom_site_fract_z
Si Si1 0.513802 0.227795 0.862802
Si Si2 0.738814 0.981469 0.474165
Si Si3 0.567018 0.971488 0.282338
Si Si4 0.500000 0.380610 0.750000
Si Si5 0.597324 0.580003 0.818572
Si Si6 0.715837 0.557176 0.322760
Si Si7 0.281024 0.248767 0.203464
O O1 0.511409 0.315654 0.812075
O O2 0.616092 0.234038 0.838295
O O3 0.565206 0.137405 0.768669
O O4 0.355709 0.223868 0.051382
O O5 0.855738 0.058388 0.384844
O O6 0.601741 0.004541 0.551695
O O7 0.650125 0.968955 0.638173
O O8 0.834436 0.912376 0.331187
O O9 0.661198 0.989457 0.265744
O O10 0.654940 0.486543 0.803349
O O11 0.646940 0.665024 0.823632
O O12 0.424356 0.567854 0.987920
O O13 0.785132 0.656640 0.248002
#
# Coordination Sequence:
#
# PCOD9305066 Si02
#       7
#     8   8   8   4   8   8   8
#     4  12  24  40  65 103 142 176 232 289 352 424
#     4  11  25  41  66  97 137 185 226 279 350 418
#     4  11  24  42  65 101 135 179 230 293 348 409
#     4  12  24  42  66 100 144 188 222 278 368 424
#     4  11  24  44  67  98 139 187 237 286 351 428
#     4  11  24  42  68  96 136 185 235 293 351 411
#     4  12  25  42  67 104 137 186 235 293 350 412
#
# _framework density 21.962531999999999
#
# number of rings (size 3 to 8) (size 9 to 14) (size 15 to 20)
#    0.000    0.615    3.077    5.538    4.308    3.077 
#    0.000    0.769    0.000    1.846    0.000    0.000 
#    0.000    0.000    0.000    0.000    0.000    0.000 
#
# Total GULP energy -145138.322841 kJ/mol
# GULP energy per Si atom -5582.243186 kJ/mol
# Density = 2.191254 g / cm^3
# Si number density = 21.962532 Si / 1000 Ang^3
#
#
#
# Elastic Constant Matrix: (Units=GPa)
#
#
# Indices 1 2 3 4 5 6 
#
# 1 58.9912 26.5798 8.6841 0.0002 -18.8081 -0.0001
# 2 26.5798 76.8999 19.1607 0.0002 -6.9142 -0.0001
# 3 8.6841 19.1607 98.0588 0.0001 -4.5080 -0.0001
# 4 0.0002 0.0002 0.0001 12.2547 -0.0002 18.5728
# 5 -18.8081 -6.9142 -4.5080 -0.0002 38.5640 0.0001
# 6 -0.0001 -0.0001 -0.0001 18.5728 0.0001 18.3159
#
#
#
# Elastic Compliance Matrix: (Units=1/GPa)
#
#
# Indices 1 2 3 4 5 6 
#
# 1 0.023424 -0.007133 -0.000215 0.000000 0.010120 0.000000
# 2 -0.007133 0.016021 -0.002540 0.000000 -0.000903 0.000000
# 3 -0.000215 -0.002540 0.010745 0.000000 0.000696 0.000000
# 4 0.000000 0.000000 0.000000 -0.152006 -0.000001 0.154139
# 5 0.010120 -0.000903 0.000696 -0.000001 0.030786 0.000001
# 6 0.000000 0.000000 0.000000 0.154139 0.000001 -0.101703
#
#
# Mechanical properties :
#
#
# Convention : Reuss Voigt Hill
#
# Bulk Modulus (GPa) = 32.88040 38.08879 35.48459
# Shear Modulus (GPa) = -35.00929 25.79527 -4.60701
#
# Velocity S-wave (km/s) = -3.99688 3.43083 -1.44990
# Velocity P-wave (km/s) = 2.50927 5.75104 3.65910
#
# Compressibility (1/GPa) = 0.03041326
#
# Stress axis : x y z
#
# Youngs Moduli (GPa) = 42.69184 62.41805 93.06300
#
# Poissons Ratio (x) = 0.44520 0.02005
# Poissons Ratio (y) = 0.30450 0.23641
# Poissons Ratio (z) = 0.00920 0.15856
#
# Static dielectric constant tensor:
#      x y z
#    x 1.815630 0.000000 0.041230 
#    y 0.000000 1.767340 0.000000 
#    z 0.041230 0.000000 1.813000 
# 
# From -- ./inp_files/215580.got.cif
#   From: 2010.05.17/outbox.cif.g08.bks.cpg/sg15_108_cif.got.tgz:215580.got - 2010.06.03 18:47:42.
