data_PCOD9305501
_publ_section_title
;
Structure prediction by ZEFSAII (Michael W. Deem and Ramdas Pophale) SiO2 
 PCOD9305501
Probable space group: C 2/C
;
_chemical_formula_sum "Si O2"
_cell_formula_units_Z 48
_cell_length_a 22.683691
_cell_length_b 6.981835
_cell_length_c 13.136220
_cell_angle_alpha 90.000000
_cell_angle_beta 121.024427
_cell_angle_gamma 90.000000
_cell_volume 1782.822091
_symmetry_space_group_name_H-M "C 2/C"
_symmetry_group_IT_number 15
_symmetry_cell_setting 'monoclinic'
loop_
_space_group_symop_operation_xyz
x,y,z
-x,y,1/2-z
-x,-y,-z
x,-y,1/2+z
1/2+x,1/2+y,z
1/2-x,1/2+y,1/2-z
1/2-x,1/2-y,-z
1/2+x,1/2-y,1/2+z
loop_
_atom_site_type_symbol
_atom_site_label
_atom_site_fract_x
_atom_site_fract_y
_atom_site_fract_z
Si Si1 0.666019 0.383233 0.930812
Si Si2 0.330006 0.157176 0.376381
Si Si3 0.063374 0.203247 0.857589
Si Si4 0.068719 0.576729 0.748539
Si Si5 0.993068 0.232711 0.996558
Si Si6 0.753591 0.167207 0.618849
O O1 0.618860 0.550168 0.935946
O O2 0.626656 0.204750 0.850070
O O3 0.697656 0.487303 0.861632
O O4 0.700954 0.296050 0.062288
O O5 0.315019 0.938727 0.399737
O O6 0.412142 0.208630 0.438984
O O7 0.288315 0.200278 0.235293
O O8 0.000000 0.088953 0.750000
O O9 0.025611 0.299771 0.918487
O O10 0.089150 0.359134 0.799058
O O11 0.045458 0.668352 0.621742
O O12 0.000000 0.608326 0.750000
O O13 0.000000 0.000000 0.000000
O O14 0.750000 0.250000 0.500000
#
# Coordination Sequence:
#
# PCOD9305501 Si02
#       6
#     8   8   8   8   8   8
#     4  12  25  50  80 114 168 212 265 344 415 500
#     4  12  27  52  84 119 161 225 287 342 427 501
#     4  11  25  43  73 118 164 211 260 328 418 500
#     4  11  24  45  70 121 160 205 262 325 422 502
#     4  12  23  48  84 118 167 214 270 351 426 510
#     4  12  30  55  82 116 158 221 292 355 409 489
#
# _framework density 26.923604999999998
#
# number of rings (size 3 to 8) (size 9 to 14) (size 15 to 20)
#    0.000    0.333    3.333    5.000    2.333    4.000 
#    9.000    0.000    0.000    0.000    0.000    0.000 
#    0.000    0.000    0.000    0.000    0.000    0.000 
#
# Total GULP energy -134221.171204 kJ/mol
# GULP energy per Si atom -5592.548800 kJ/mol
# Density = 2.686233 g / cm^3
# Si number density = 26.923605 Si / 1000 Ang^3
#
#
#
# Elastic Constant Matrix: (Units=GPa)
#
#
# Indices 1 2 3 4 5 6 
#
# 1 83.5391 16.6543 29.2766 0.0000 -10.2914 0.0000
# 2 16.6543 170.9122 61.6253 0.0000 -0.4174 0.0000
# 3 29.2766 61.6253 163.6075 0.0000 -41.1581 0.0000
# 4 0.0000 0.0000 0.0000 48.0855 0.0000 -1.9704
# 5 -10.2914 -0.4174 -41.1581 0.0000 50.8961 0.0000
# 6 0.0000 0.0000 0.0000 -1.9704 0.0000 51.3460
#
#
#
# Elastic Compliance Matrix: (Units=1/GPa)
#
#
# Indices 1 2 3 4 5 6 
#
# 1 0.012858 -0.000608 -0.001782 0.000000 0.001154 0.000000
# 2 -0.000608 0.007067 -0.003226 0.000000 -0.002673 0.000000
# 3 -0.001782 -0.003226 0.009476 0.000000 0.007277 0.000000
# 4 0.000000 0.000000 0.000000 0.020829 0.000000 0.000799
# 5 0.001154 -0.002673 0.007277 0.000000 0.025744 0.000000
# 6 0.000000 0.000000 0.000000 0.000799 0.000000 0.019506
#
#
# Mechanical properties :
#
#
# Convention : Reuss Voigt Hill
#
# Bulk Modulus (GPa) = 55.03095 70.35233 62.69164
# Shear Modulus (GPa) = 44.33904 50.76571 47.55238
#
# Velocity S-wave (km/s) = 4.06254 4.34700 4.20717
# Velocity P-wave (km/s) = 6.51841 7.16814 6.85098
#
# Compressibility (1/GPa) = 0.01817159
#
# Stress axis : x y z
#
# Youngs Moduli (GPa) = 77.77155 141.50939 105.52421
#
# Poissons Ratio (x) = 0.08600 0.18800
# Poissons Ratio (y) = 0.04726 0.34037
# Poissons Ratio (z) = 0.13856 0.45644
#
# Static dielectric constant tensor:
#      x y z
#    x 2.223270 0.000000 0.042960 
#    y 0.000000 2.127950 0.000000 
#    z 0.042960 0.000000 2.182750 
# 
# From -- ./inp_files/173364.got.cif
#   From: 2010.05.17/outbox.cif.g08.bks.cpg/sg15_87_cif.got.tgz:173364.got - 2010.06.03 18:47:42.
