data_PCOD9305231
_publ_section_title
;
Structure prediction by ZEFSAII (Michael W. Deem and Ramdas Pophale) SiO2 
 PCOD9305231
Probable space group: C 2/C
;
_chemical_formula_sum "Si O2"
_cell_formula_units_Z 36
_cell_length_a 14.455414
_cell_length_b 5.539609
_cell_length_c 26.167786
_cell_angle_alpha 90.000000
_cell_angle_beta 139.231472
_cell_angle_gamma 90.000000
_cell_volume 1368.336558
_symmetry_space_group_name_H-M "C 2/C"
_symmetry_group_IT_number 15
_symmetry_cell_setting 'monoclinic'
loop_
_space_group_symop_operation_xyz
x,y,z
-x,y,1/2-z
-x,-y,-z
x,-y,1/2+z
1/2+x,1/2+y,z
1/2-x,1/2+y,1/2-z
1/2-x,1/2-y,-z
1/2+x,1/2-y,1/2+z
loop_
_atom_site_type_symbol
_atom_site_label
_atom_site_fract_x
_atom_site_fract_y
_atom_site_fract_z
Si Si1 0.980343 0.464857 0.345180
Si Si2 0.315795 0.665093 0.728946
Si Si3 0.178090 0.784944 0.571142
Si Si4 0.129246 0.714247 0.008589
Si Si5 0.000000 0.783058 0.750000
O O1 0.819932 0.383257 0.292910
O O2 0.945785 0.744705 0.318517
O O3 0.034023 0.371861 0.313696
O O4 0.073442 0.365234 0.429857
O O5 0.258228 0.834178 0.658543
O O6 0.374945 0.444442 0.721007
O O7 0.215969 0.522355 0.563369
O O8 0.012512 0.744861 0.515992
O O9 0.189726 0.014098 0.538704
#
# Coordination Sequence:
#
# PCOD9305231 Si02
#       5
#     8   8   8   8   4
#     4  11  24  43  73 101 141 186 235 290 353 419
#     4  11  24  43  73 101 141 186 235 290 353 419
#     4   9  20  38  66 100 137 181 231 287 351 417
#     4   9  20  38  66 100 137 181 231 287 351 417
#     4  12  26  44  68 104 140 184 236 296 346 414
#
# _framework density 26.309317
#
# number of rings (size 3 to 8) (size 9 to 14) (size 15 to 20)
#    0.000    1.778    2.222    0.667    6.222    1.778 
#    0.000    2.222    0.000    0.000    0.000    0.000 
#    0.000    0.000    0.000    0.000    0.000    0.000 
#
# Total GULP energy -100560.204615 kJ/mol
# GULP energy per Si atom -5586.678034 kJ/mol
# Density = 2.624944 g / cm^3
# Si number density = 26.309317 Si / 1000 Ang^3
#
#
#
# Elastic Constant Matrix: (Units=GPa)
#
#
# Indices 1 2 3 4 5 6 
#
# 1 160.4204 69.3018 24.1920 -0.0013 -16.0356 0.0035
# 2 69.3018 100.6892 52.6195 -0.0032 -16.1167 0.0061
# 3 24.1920 52.6195 112.3241 -0.0001 -21.2875 -0.0001
# 4 -0.0013 -0.0032 -0.0001 0.2895 0.0002 27.1536
# 5 -16.0356 -16.1167 -21.2875 0.0002 33.0731 -0.0005
# 6 0.0035 0.0061 -0.0001 27.1536 -0.0005 -8.9233
#
#
#
# Elastic Compliance Matrix: (Units=1/GPa)
#
#
# Indices 1 2 3 4 5 6 
#
# 1 0.009140 -0.006793 0.001624 0.000000 0.002167 0.000000
# 2 -0.006793 0.018428 -0.006939 -0.000003 0.001221 0.000002
# 3 0.001624 -0.006939 0.012883 0.000001 0.005699 -0.000001
# 4 0.000000 -0.000003 0.000001 0.012060 0.000000 0.036699
# 5 0.002167 0.001221 0.005699 0.000000 0.035549 0.000000
# 6 0.000000 0.000002 -0.000001 0.036699 0.000000 -0.000391
#
#
# Mechanical properties :
#
#
# Convention : Reuss Voigt Hill
#
# Bulk Modulus (GPa) = 61.58609 73.96228 67.77419
# Shear Modulus (GPa) = 42.62722 20.04256 31.33489
#
# Velocity S-wave (km/s) = 4.02958 2.76308 3.45486
# Velocity P-wave (km/s) = 6.71635 6.19298 6.45997
#
# Compressibility (1/GPa) = 0.01623743
#
# Stress axis : x y z
#
# Youngs Moduli (GPa) = 109.41298 54.26478 77.61891
#
# Poissons Ratio (x) = 0.36860 -0.12607
# Poissons Ratio (y) = 0.74320 0.53856
# Poissons Ratio (z) = -0.17771 0.37652
#
# Static dielectric constant tensor:
#      x y z
#    x 2.032800 0.000000 0.100620 
#    y 0.000000 2.194190 0.000000 
#    z 0.100620 0.000000 2.154770 
# 
# From -- ./inp_files/207837.got.cif
#   From: 2010.05.17/outbox.cif.g08.bks.cpg/sg15_104_cif.got.tgz:207837.got - 2010.06.03 18:47:42.
