data_PCOD9305555
_publ_section_title
;
Structure prediction by ZEFSAII (Michael W. Deem and Ramdas Pophale) SiO2 
 PCOD9305555
Probable space group: C 2/C
;
_chemical_formula_sum "Si O2"
_cell_formula_units_Z 48
_cell_length_a 11.586812
_cell_length_b 21.741981
_cell_length_c 11.521267
_cell_angle_alpha 90.000000
_cell_angle_beta 129.276856
_cell_angle_gamma 90.000000
_cell_volume 2246.767502
_symmetry_space_group_name_H-M "C 2/C"
_symmetry_group_IT_number 15
_symmetry_cell_setting 'monoclinic'
loop_
_space_group_symop_operation_xyz
x,y,z
-x,y,1/2-z
-x,-y,-z
x,-y,1/2+z
1/2+x,1/2+y,z
1/2-x,1/2+y,1/2-z
1/2-x,1/2-y,-z
1/2+x,1/2-y,1/2+z
loop_
_atom_site_type_symbol
_atom_site_label
_atom_site_fract_x
_atom_site_fract_y
_atom_site_fract_z
Si Si1 0.065760 0.180140 0.572967
Si Si2 0.319219 0.110109 0.870330
Si Si3 0.329152 0.989293 0.180456
Si Si4 0.882412 0.324998 0.895932
Si Si5 0.249528 0.620286 0.405827
Si Si6 0.649163 0.602735 0.402298
O O1 0.181761 0.149284 0.734797
O O2 0.099557 0.252105 0.586672
O O3 0.095608 0.149094 0.468202
O O4 0.899065 0.160821 0.502498
O O5 0.327726 0.048388 0.799940
O O6 0.473350 0.145929 0.951819
O O7 0.300276 0.105152 0.995656
O O8 0.500000 0.001876 0.250000
O O9 0.237708 0.052033 0.139839
O O10 0.251077 0.947758 0.031573
O O11 0.864808 0.344394 0.750507
O O12 0.742280 0.356199 0.870907
O O13 0.500000 0.575352 0.250000
#
# Coordination Sequence:
#
# PCOD9305555 Si02
#       6
#     8   8   8   8   8   8
#     4  11  26  45  69 103 144 187 236 292 352 424
#     4  11  26  43  71 104 136 189 235 291 356 428
#     4  11  25  47  74 104 143 184 246 297 354 420
#     4  12  24  46  71 104 143 187 239 288 357 421
#     4  12  27  44  71 105 142 194 226 297 361 421
#     4  11  24  45  74 107 138 189 240 302 351 408
#
# _framework density 21.364027
#
# number of rings (size 3 to 8) (size 9 to 14) (size 15 to 20)
#    0.000    0.667    3.333    3.500    2.333    9.333 
#    0.000    0.000    0.000    0.000    0.000    0.000 
#    0.000    0.000    0.000    0.000    0.000    0.000 
#
# Total GULP energy -134271.506105 kJ/mol
# GULP energy per Si atom -5594.646088 kJ/mol
# Density = 2.131540 g / cm^3
# Si number density = 21.364027 Si / 1000 Ang^3
#
#
#
# Elastic Constant Matrix: (Units=GPa)
#
#
# Indices 1 2 3 4 5 6 
#
# 1 56.0918 7.9342 15.1761 0.0000 0.0842 0.0000
# 2 7.9342 77.7811 15.3851 0.0000 6.9439 0.0000
# 3 15.1761 15.3851 116.2968 0.0000 4.2572 0.0000
# 4 0.0000 0.0000 0.0000 3.7945 0.0000 5.6967
# 5 0.0842 6.9439 4.2572 0.0000 36.9916 0.0000
# 6 0.0000 0.0000 0.0000 5.6967 0.0000 22.3717
#
#
#
# Elastic Compliance Matrix: (Units=1/GPa)
#
#
# Indices 1 2 3 4 5 6 
#
# 1 0.018649 -0.001501 -0.002253 0.000000 0.000499 0.000000
# 2 -0.001501 0.013518 -0.001506 0.000000 -0.002361 0.000000
# 3 -0.002253 -0.001506 0.009120 0.000000 -0.000762 0.000000
# 4 0.000000 0.000000 0.000000 0.426638 0.000000 -0.108638
# 5 0.000499 -0.002361 -0.000762 0.000000 0.027563 0.000000
# 6 0.000000 0.000000 0.000000 -0.108638 0.000000 0.072362
#
#
# Mechanical properties :
#
#
# Convention : Reuss Voigt Hill
#
# Bulk Modulus (GPa) = 32.50298 36.35117 34.42708
# Shear Modulus (GPa) = 8.49434 26.74318 17.61876
#
# Velocity S-wave (km/s) = 1.99616 3.54190 2.87486
# Velocity P-wave (km/s) = 4.53429 5.81195 5.21241
#
# Compressibility (1/GPa) = 0.03076641
#
# Stress axis : x y z
#
# Youngs Moduli (GPa) = 53.62177 73.97330 109.65091
#
# Poissons Ratio (x) = 0.11105 0.24707
# Poissons Ratio (y) = 0.08049 0.16514
# Poissons Ratio (z) = 0.12082 0.11141
#
# Static dielectric constant tensor:
#      x y z
#    x 1.824270 0.000000 -0.012750 
#    y 0.000000 1.734550 0.000000 
#    z -0.012750 0.000000 1.769840 
# 
# From -- ./inp_files/89793.got.cif
#   From: 2010.05.17/outbox.cif.g08.bks.cpg/sg15_45_cif.got.tgz:89793.got - 2010.06.03 18:47:42.
