data_PCOD9305443
_publ_section_title
;
Structure prediction by ZEFSAII (Michael W. Deem and Ramdas Pophale) SiO2 
 PCOD9305443
Probable space group: C 2/C
;
_chemical_formula_sum "Si O2"
_cell_formula_units_Z 36
_cell_length_a 6.615838
_cell_length_b 25.414860
_cell_length_c 12.024036
_cell_angle_alpha 90.000000
_cell_angle_beta 119.561843
_cell_angle_gamma 90.000000
_cell_volume 1758.547408
_symmetry_space_group_name_H-M "C 2/C"
_symmetry_group_IT_number 15
_symmetry_cell_setting 'monoclinic'
loop_
_space_group_symop_operation_xyz
x,y,z
-x,y,1/2-z
-x,-y,-z
x,-y,1/2+z
1/2+x,1/2+y,z
1/2-x,1/2+y,1/2-z
1/2-x,1/2-y,-z
1/2+x,1/2-y,1/2+z
loop_
_atom_site_type_symbol
_atom_site_label
_atom_site_fract_x
_atom_site_fract_y
_atom_site_fract_z
Si Si1 0.113438 0.719869 0.060223
Si Si2 0.618908 0.005476 0.907914
Si Si3 0.483948 0.586153 0.471946
Si Si4 0.893429 0.819467 0.110416
Si Si5 0.500000 0.640125 0.250000
O O1 0.285340 0.677847 0.161040
O O2 0.022708 0.764378 0.120454
O O3 0.250000 0.750000 0.000000
O O4 0.879749 0.691853 0.954018
O O5 0.500000 0.002868 0.750000
O O6 0.800312 0.957382 0.958692
O O7 0.762768 0.060146 0.947715
O O8 0.500000 0.000000 0.000000
O O9 0.448517 0.639821 0.528797
O O10 0.438828 0.602332 0.333960
O O11 0.000000 0.843035 0.250000
#
# Coordination Sequence:
#
# PCOD9305443 Si02
#       5
#     8   8   8   8   4
#     4  11  24  45  66 102 141 188 231 288 343 427
#     4  11  27  49  74 102 141 183 240 308 366 434
#     4  11  27  44  71 106 133 183 238 291 360 430
#     4  11  26  42  67 100 141 181 230 283 349 422
#     4  12  24  46  74 104 144 184 246 286 364 430
#
# _framework density 20.471440000000001
#
# number of rings (size 3 to 8) (size 9 to 14) (size 15 to 20)
#    0.000    0.889    2.222    2.667   12.444    1.778 
#    2.000    0.000    0.000    0.000    0.000    0.000 
#    0.000    0.000    0.000    0.000    0.000    0.000 
#
# Total GULP energy -100510.291463 kJ/mol
# GULP energy per Si atom -5583.905081 kJ/mol
# Density = 2.042485 g / cm^3
# Si number density = 20.471440 Si / 1000 Ang^3
#
#
#
# Elastic Constant Matrix: (Units=GPa)
#
#
# Indices 1 2 3 4 5 6 
#
# 1 137.9207 38.3127 54.9739 0.0000 -8.1784 0.0000
# 2 38.3127 66.9539 3.1383 0.0000 -3.6793 0.0000
# 3 54.9739 3.1383 96.2018 0.0000 -28.3419 0.0000
# 4 0.0000 0.0000 0.0000 37.6325 0.0000 15.1085
# 5 -8.1784 -3.6793 -28.3419 0.0000 30.8540 0.0000
# 6 0.0000 0.0000 0.0000 15.1085 0.0000 -31.7793
#
#
#
# Elastic Compliance Matrix: (Units=1/GPa)
#
#
# Indices 1 2 3 4 5 6 
#
# 1 0.012120 -0.006833 -0.008222 0.000000 -0.005154 0.000000
# 2 -0.006833 0.018887 0.004687 0.000000 0.004746 0.000000
# 3 -0.008222 0.004687 0.019829 0.000000 0.016594 0.000000
# 4 0.000000 0.000000 0.000000 0.022314 0.000000 0.010608
# 5 -0.005154 0.004746 0.016594 0.000000 0.046853 0.000000
# 6 0.000000 0.000000 0.000000 0.010608 0.000000 -0.026424
#
#
# Mechanical properties :
#
#
# Convention : Reuss Voigt Hill
#
# Bulk Modulus (GPa) = 33.22242 54.88071 44.05156
# Shear Modulus (GPa) = 40.20954 20.98487 30.59721
#
# Velocity S-wave (km/s) = 4.43671 3.20516 3.87024
# Velocity P-wave (km/s) = 6.51995 6.36899 6.44491
#
# Compressibility (1/GPa) = 0.03010015
#
# Stress axis : x y z
#
# Youngs Moduli (GPa) = 82.50708 52.94655 50.43169
#
# Poissons Ratio (x) = 0.36180 0.41463
# Poissons Ratio (y) = 0.56380 -0.23637
# Poissons Ratio (z) = 0.67834 -0.24816
#
# Static dielectric constant tensor:
#      x y z
#    x 1.679170 0.000000 0.031330 
#    y 0.000000 1.700770 0.000000 
#    z 0.031330 0.000000 1.703390 
# 
# From -- ./inp_files/72715.got.cif
#   From: 2010.05.17/outbox.cif.g08.bks.cpg/sg15_37_cif.got.tgz:72715.got - 2010.06.03 18:47:42.
