data_PCOD9305872
_publ_section_title
;
Structure prediction by ZEFSAII (Michael W. Deem and Ramdas Pophale) SiO2 
 PCOD9305872
Probable space group: C 2/C
;
_chemical_formula_sum "Si O2"
_cell_formula_units_Z 36
_cell_length_a 25.618260
_cell_length_b 10.513519
_cell_length_c 13.745804
_cell_angle_alpha 90.000000
_cell_angle_beta 27.073504
_cell_angle_gamma 90.000000
_cell_volume 1685.025135
_symmetry_space_group_name_H-M "C 2/C"
_symmetry_group_IT_number 15
_symmetry_cell_setting 'monoclinic'
loop_
_space_group_symop_operation_xyz
x,y,z
-x,y,1/2-z
-x,-y,-z
x,-y,1/2+z
1/2+x,1/2+y,z
1/2-x,1/2+y,1/2-z
1/2-x,1/2-y,-z
1/2+x,1/2-y,1/2+z
loop_
_atom_site_type_symbol
_atom_site_label
_atom_site_fract_x
_atom_site_fract_y
_atom_site_fract_z
Si Si1 0.500000 0.374242 0.750000
Si Si2 0.602116 0.487054 0.908501
Si Si3 0.657204 0.915658 0.532826
Si Si4 0.372999 0.184563 0.818743
Si Si5 0.549543 0.194779 0.020371
O O1 0.417163 0.459734 0.951676
O O2 0.439020 0.288884 0.771137
O O3 0.606011 0.335312 0.920537
O O4 0.500000 0.500000 0.000000
O O5 0.705727 0.571277 0.693104
O O6 0.582740 0.818328 0.723131
O O7 0.617611 0.885083 0.488824
O O8 0.627234 0.057665 0.617077
O O9 0.434084 0.148705 0.616428
O O10 0.250000 0.250000 0.000000
#
# Coordination Sequence:
#
# PCOD9305872 Si02
#       5
#     4   8   8   8   8
#     4  12  24  42  72 102 138 192 240 296 382 438
#     4  12  25  47  71 110 149 192 249 316 379 446
#     4  11  25  44  75 104 145 195 245 311 370 449
#     4  12  23  46  71 103 147 191 245 308 369 448
#     4  11  24  48  71 109 149 192 254 303 377 457
#
# _framework density 21.364666
#
# number of rings (size 3 to 8) (size 9 to 14) (size 15 to 20)
#    0.000    0.444    4.444    4.667    0.000    0.889 
#    0.000    2.222    0.000    0.000    0.000    0.000 
#    0.000    0.000    0.000    0.000    0.000    0.000 
#
# Total GULP energy -100414.094762 kJ/mol
# GULP energy per Si atom -5578.560820 kJ/mol
# Density = 2.131604 g / cm^3
# Si number density = 21.364666 Si / 1000 Ang^3
#
#
#
# Elastic Constant Matrix: (Units=GPa)
#
#
# Indices 1 2 3 4 5 6 
#
# 1 136.5968 56.6424 56.0920 0.0000 7.1128 0.0000
# 2 56.6424 71.0845 8.1127 0.0000 12.5113 0.0000
# 3 56.0920 8.1127 138.1669 0.0000 -0.0741 0.0000
# 4 0.0000 0.0000 0.0000 31.9890 0.0000 3.8383
# 5 7.1128 12.5113 -0.0741 0.0000 35.0107 0.0000
# 6 0.0000 0.0000 0.0000 3.8383 0.0000 46.6697
#
#
#
# Elastic Compliance Matrix: (Units=1/GPa)
#
#
# Indices 1 2 3 4 5 6 
#
# 1 0.013633 -0.010471 -0.004919 0.000000 0.000962 0.000000
# 2 -0.010471 0.023163 0.002887 0.000000 -0.006144 0.000000
# 3 -0.004919 0.002887 0.009065 0.000000 -0.000013 0.000000
# 4 0.000000 0.000000 0.000000 0.031572 0.000000 -0.002597
# 5 0.000962 -0.006144 -0.000013 0.000000 0.030563 0.000000
# 6 0.000000 0.000000 0.000000 -0.002597 0.000000 0.021641
#
#
# Mechanical properties :
#
#
# Convention : Reuss Voigt Hill
#
# Bulk Modulus (GPa) = 47.94801 65.28248 56.61525
# Shear Modulus (GPa) = 30.94186 37.73397 34.33791
#
# Velocity S-wave (km/s) = 3.80975 4.20716 4.01338
# Velocity P-wave (km/s) = 6.46866 7.36362 6.93060
#
# Compressibility (1/GPa) = 0.02085592
#
# Stress axis : x y z
#
# Youngs Moduli (GPa) = 73.35352 43.17228 110.31308
#
# Poissons Ratio (x) = 0.45205 0.54265
# Poissons Ratio (y) = 0.76807 -0.31853
# Poissons Ratio (z) = 0.36084 -0.12466
#
# Static dielectric constant tensor:
#      x y z
#    x 1.721470 0.000000 0.008540 
#    y 0.000000 1.682670 0.000000 
#    z 0.008540 0.000000 1.921780 
# 
# From -- ./inp_files/172865.got.cif
#   From: 2010.05.17/outbox.cif.g08.bks.cpg/sg15_87_cif.got.tgz:172865.got - 2010.06.03 18:47:42.
