data_PCOD9305012
_publ_section_title
;
Structure prediction by ZEFSAII (Michael W. Deem and Ramdas Pophale) SiO2 
 PCOD9305012
Probable space group: C 2/C
;
_chemical_formula_sum "Si O2"
_cell_formula_units_Z 40
_cell_length_a 23.932864
_cell_length_b 6.700737
_cell_length_c 27.645407
_cell_angle_alpha 90.000000
_cell_angle_beta 158.888027
_cell_angle_gamma 90.000000
_cell_volume 1596.886334
_symmetry_space_group_name_H-M "C 2/C"
_symmetry_group_IT_number 15
_symmetry_cell_setting 'monoclinic'
loop_
_space_group_symop_operation_xyz
x,y,z
-x,y,1/2-z
-x,-y,-z
x,-y,1/2+z
1/2+x,1/2+y,z
1/2-x,1/2+y,1/2-z
1/2-x,1/2-y,-z
1/2+x,1/2-y,1/2+z
loop_
_atom_site_type_symbol
_atom_site_label
_atom_site_fract_x
_atom_site_fract_y
_atom_site_fract_z
Si Si1 0.313848 0.824507 0.627400
Si Si2 0.960381 0.658913 0.870842
Si Si3 0.620803 0.018156 0.413030
Si Si4 0.834527 0.942955 0.317420
Si Si5 0.621991 0.815934 0.056896
O O1 0.316556 0.008990 0.591266
O O2 0.481659 0.823869 0.788381
O O3 0.257255 0.628801 0.552274
O O4 0.193231 0.824020 0.573101
O O5 0.795244 0.544827 0.745132
O O6 0.032436 0.643546 0.874938
O O7 0.961663 0.209227 0.940134
O O8 0.079574 0.527465 0.998464
O O9 0.921994 0.128952 0.363344
O O10 0.734462 0.858946 0.191774
#
# Coordination Sequence:
#
# PCOD9305012 Si02
#       5
#     8   8   8   8   8
#     4   9  18  37  68  93 129 174 227 279 339 403
#     4  11  24  41  66 101 140 179 231 283 345 416
#     4   9  19  38  64  98 129 177 229 281 337 413
#     4  12  26  44  69 103 144 186 231 291 349 419
#     4  11  24  44  68 103 140 185 233 285 353 412
#
# _framework density 25.048745
#
# number of rings (size 3 to 8) (size 9 to 14) (size 15 to 20)
#    0.000    1.600    2.000    3.000    0.000    4.000 
#    0.000    1.000    0.000   16.800    0.000    7.000 
#    0.000    0.000    0.000    0.000    0.000    0.000 
#
# Total GULP energy -111582.265152 kJ/mol
# GULP energy per Si atom -5579.113258 kJ/mol
# Density = 2.499173 g / cm^3
# Si number density = 25.048745 Si / 1000 Ang^3
#
#
#
# Elastic Constant Matrix: (Units=GPa)
#
#
# Indices 1 2 3 4 5 6 
#
# 1 179.5940 38.9679 36.1051 -0.0012 -0.1155 0.0006
# 2 38.9679 87.1891 41.6522 0.0004 -4.6143 0.0050
# 3 36.1051 41.6522 129.5997 0.0054 -2.2015 0.0011
# 4 -0.0012 0.0004 0.0054 35.6412 0.0020 14.8481
# 5 -0.1155 -4.6143 -2.2015 0.0020 34.1362 -0.0004
# 6 0.0006 0.0050 0.0011 14.8481 -0.0004 25.6616
#
#
#
# Elastic Compliance Matrix: (Units=1/GPa)
#
#
# Indices 1 2 3 4 5 6 
#
# 1 0.006278 -0.002347 -0.001001 0.000000 -0.000361 0.000000
# 2 -0.002347 0.014510 -0.003981 0.000002 0.001697 -0.000004
# 3 -0.001001 -0.003981 0.009275 -0.000002 0.000057 0.000002
# 4 0.000000 0.000002 -0.000002 0.036969 -0.000002 -0.021391
# 5 -0.000361 0.001697 0.000057 -0.000002 0.029526 0.000002
# 6 0.000000 -0.000004 0.000002 -0.021391 0.000002 0.051346
#
#
# Mechanical properties :
#
#
# Convention : Reuss Voigt Hill
#
# Bulk Modulus (GPa) = 64.90866 69.98148 67.44507
# Shear Modulus (GPa) = 29.81583 37.73163 33.77373
#
# Velocity S-wave (km/s) = 3.45383 3.88536 3.67593
# Velocity P-wave (km/s) = 6.47105 6.93734 6.70825
#
# Compressibility (1/GPa) = 0.01540627
#
# Stress axis : x y z
#
# Youngs Moduli (GPa) = 159.27782 68.91949 107.81424
#
# Poissons Ratio (x) = 0.16175 0.10791
# Poissons Ratio (y) = 0.37381 0.42917
# Poissons Ratio (z) = 0.15942 0.27434
#
# Static dielectric constant tensor:
#      x y z
#    x 2.094590 0.000000 0.011590 
#    y 0.000000 2.044030 0.000000 
#    z 0.011590 0.000000 1.953190 
# 
# From -- ./inp_files/40423.got.cif
#   From: 2010.05.17/outbox.cif.g08.bks.cpg/sg15_21_cif.got.tgz:40423.got - 2010.06.03 18:47:42.
