data_PCOD9305907
_publ_section_title
;
Structure prediction by ZEFSAII (Michael W. Deem and Ramdas Pophale) SiO2 
 PCOD9305907
Probable space group: C 2/C
;
_chemical_formula_sum "Si O2"
_cell_formula_units_Z 40
_cell_length_a 14.075014
_cell_length_b 7.580242
_cell_length_c 20.921698
_cell_angle_alpha 90.000000
_cell_angle_beta 136.251532
_cell_angle_gamma 90.000000
_cell_volume 1543.537156
_symmetry_space_group_name_H-M "C 2/C"
_symmetry_group_IT_number 15
_symmetry_cell_setting 'monoclinic'
loop_
_space_group_symop_operation_xyz
x,y,z
-x,y,1/2-z
-x,-y,-z
x,-y,1/2+z
1/2+x,1/2+y,z
1/2-x,1/2+y,1/2-z
1/2-x,1/2-y,-z
1/2+x,1/2-y,1/2+z
loop_
_atom_site_type_symbol
_atom_site_label
_atom_site_fract_x
_atom_site_fract_y
_atom_site_fract_z
Si Si1 0.890454 0.187080 0.441831
Si Si2 0.541700 0.141423 0.126653
Si Si3 0.364321 0.568944 0.670134
Si Si4 0.752363 0.042334 0.983932
Si Si5 0.161510 0.022118 0.214855
O O1 0.768977 0.324498 0.378939
O O2 0.007785 0.296494 0.536567
O O3 0.092541 0.877001 0.622170
O O4 0.827216 0.028801 0.455805
O O5 0.603369 0.325977 0.181151
O O6 0.672603 0.020769 0.207267
O O7 0.398657 0.052708 0.082089
O O8 0.500000 0.680069 0.750000
O O9 0.344652 0.526337 0.587349
O O10 0.627262 0.417148 0.771142
O O11 0.750000 0.250000 0.000000
#
# Coordination Sequence:
#
# PCOD9305907 Si02
#       5
#     8   8   8   8   8
#     4  11  25  47  78 109 156 203 256 321 388 458
#     4  11  26  48  74 111 157 200 258 315 393 455
#     4  11  24  48  75 105 153 206 257 310 389 463
#     4  11  27  48  75 109 153 202 258 324 382 462
#     4  12  25  45  78 114 151 208 253 323 382 466
#
# _framework density 25.914504000000001
#
# number of rings (size 3 to 8) (size 9 to 14) (size 15 to 20)
#    0.000    0.800    2.000    5.400    2.800    6.400 
#    0.000    0.000    0.000    0.000    0.000    0.000 
#    0.000    0.000    0.000    0.000    0.000    0.000 
#
# Total GULP energy -111599.222572 kJ/mol
# GULP energy per Si atom -5579.961129 kJ/mol
# Density = 2.585552 g / cm^3
# Si number density = 25.914504 Si / 1000 Ang^3
#
#
#
# Elastic Constant Matrix: (Units=GPa)
#
#
# Indices 1 2 3 4 5 6 
#
# 1 99.1158 18.8664 44.5579 0.0000 -30.5370 0.0000
# 2 18.8664 116.7117 33.9426 0.0000 3.8222 0.0000
# 3 44.5579 33.9426 226.7452 0.0000 9.0826 0.0000
# 4 0.0000 0.0000 0.0000 36.8404 0.0000 -3.9121
# 5 -30.5370 3.8222 9.0826 0.0000 48.9668 0.0000
# 6 0.0000 0.0000 0.0000 -3.9121 0.0000 33.9779
#
#
#
# Elastic Compliance Matrix: (Units=1/GPa)
#
#
# Indices 1 2 3 4 5 6 
#
# 1 0.014892 -0.001848 -0.003050 0.000000 0.009997 0.000000
# 2 -0.001848 0.009197 -0.000946 0.000000 -0.001695 0.000000
# 3 -0.003050 -0.000946 0.005264 0.000000 -0.002805 0.000000
# 4 0.000000 0.000000 0.000000 0.027480 0.000000 0.003164
# 5 0.009997 -0.001695 -0.002805 0.000000 0.027309 0.000000
# 6 0.000000 0.000000 0.000000 0.003164 0.000000 0.029795
#
#
# Mechanical properties :
#
#
# Convention : Reuss Voigt Hill
#
# Bulk Modulus (GPa) = 56.60717 70.81181 63.70949
# Shear Modulus (GPa) = 38.01886 46.97076 42.49481
#
# Velocity S-wave (km/s) = 3.83441 4.26200 4.05385
# Velocity P-wave (km/s) = 6.44165 7.18359 6.82271
#
# Compressibility (1/GPa) = 0.01766561
#
# Stress axis : x y z
#
# Youngs Moduli (GPa) = 67.14887 108.72684 189.98392
#
# Poissons Ratio (x) = 0.20089 0.57952
# Poissons Ratio (y) = 0.12407 0.17969
# Poissons Ratio (z) = 0.20483 0.10284
#
# Static dielectric constant tensor:
#      x y z
#    x 2.261770 0.000000 -0.035020 
#    y 0.000000 2.178870 0.000000 
#    z -0.035020 0.000000 2.071710 
# 
# From -- ./inp_files/315412.got.cif
#   From: 2010.05.17/outbox.cif.g08.bks.cpg/sg15_158_cif.got.tgz:315412.got - 2010.06.03 18:47:42.
