data_PCOD9305782
_publ_section_title
;
Structure prediction by ZEFSAII (Michael W. Deem and Ramdas Pophale) SiO2 
 PCOD9305782
Probable space group: C 2/C
;
_chemical_formula_sum "Si O2"
_cell_formula_units_Z 48
_cell_length_a 11.598898
_cell_length_b 14.532071
_cell_length_c 13.417683
_cell_angle_alpha 90.000000
_cell_angle_beta 96.606941
_cell_angle_gamma 90.000000
_cell_volume 2246.611233
_symmetry_space_group_name_H-M "C 2/C"
_symmetry_group_IT_number 15
_symmetry_cell_setting 'monoclinic'
loop_
_space_group_symop_operation_xyz
x,y,z
-x,y,1/2-z
-x,-y,-z
x,-y,1/2+z
1/2+x,1/2+y,z
1/2-x,1/2+y,1/2-z
1/2-x,1/2-y,-z
1/2+x,1/2-y,1/2+z
loop_
_atom_site_type_symbol
_atom_site_label
_atom_site_fract_x
_atom_site_fract_y
_atom_site_fract_z
Si Si1 0.816939 0.838181 0.620274
Si Si2 0.689874 0.178144 0.621984
Si Si3 0.655761 0.343763 0.103986
Si Si4 0.759244 0.488597 0.270596
Si Si5 0.500000 0.239395 0.750000
Si Si6 0.000000 0.578195 0.250000
Si Si7 0.925703 0.266361 0.596273
O O1 0.727358 0.752675 0.621582
O O2 0.816050 0.873088 0.506778
O O3 0.943007 0.798032 0.656771
O O4 0.796851 0.915987 0.700751
O O5 0.727740 0.072449 0.628187
O O6 0.604572 0.186947 0.707482
O O7 0.808184 0.236696 0.642100
O O8 0.620454 0.207368 0.517395
O O9 0.693037 0.423542 0.184706
O O10 0.521363 0.314277 0.103484
O O11 0.885801 0.516853 0.244483
O O12 0.984407 0.646307 0.154707
#
# Coordination Sequence:
#
# PCOD9305782 Si02
#       7
#     8   8   8   8   4   4   8
#     4  11  25  44  72 103 142 192 231 296 363 418
#     4  11  25  43  76 104 141 190 237 292 358 423
#     4  11  24  47  72 101 148 186 233 292 365 420
#     4  12  26  43  70 112 136 186 242 297 353 418
#     4  12  21  48  67 106 142 190 235 288 357 432
#     4  12  25  42  73 104 142 180 245 302 337 422
#     4  11  24  49  72 102 143 195 234 289 360 424
#
# _framework density 21.365514000000001
#
# number of rings (size 3 to 8) (size 9 to 14) (size 15 to 20)
#    0.000    0.667    5.000    2.500    2.333    2.000 
#    0.000    1.667    0.000    0.000    0.000    0.000 
#    0.000    0.000    0.000    0.000    0.000    0.000 
#
# Total GULP energy -134070.398785 kJ/mol
# GULP energy per Si atom -5586.266616 kJ/mol
# Density = 2.131689 g / cm^3
# Si number density = 21.365514 Si / 1000 Ang^3
#
#
#
# Elastic Constant Matrix: (Units=GPa)
#
#
# Indices 1 2 3 4 5 6 
#
# 1 97.3573 30.1943 46.0266 0.0000 6.4157 0.0000
# 2 30.1943 88.9517 43.8329 0.0000 0.0587 0.0000
# 3 46.0266 43.8329 102.8942 0.0000 1.6632 0.0000
# 4 0.0000 0.0000 0.0000 -115.0385 0.0000 117.0562
# 5 6.4157 0.0587 1.6632 0.0000 33.6761 0.0000
# 6 0.0000 0.0000 0.0000 117.0562 0.0000 -74.5134
#
#
#
# Elastic Compliance Matrix: (Units=1/GPa)
#
#
# Indices 1 2 3 4 5 6 
#
# 1 0.013480 -0.002052 -0.005118 0.000000 -0.002312 0.000000
# 2 -0.002052 0.014544 -0.005288 0.000000 0.000627 0.000000
# 3 -0.005118 -0.005288 0.014256 0.000000 0.000280 0.000000
# 4 0.000000 0.000000 0.000000 0.014524 0.000000 0.022817
# 5 -0.002312 0.000627 0.000280 0.000000 0.030120 0.000000
# 6 0.000000 0.000000 0.000000 0.022817 0.000000 0.022424
#
#
# Mechanical properties :
#
#
# Convention : Reuss Voigt Hill
#
# Bulk Modulus (GPa) = 57.59138 58.81230 58.20184
# Shear Modulus (GPa) = 35.70084 -19.89854 7.90115
#
# Velocity S-wave (km/s) = 4.09217 -3.05510 1.92513
# Velocity P-wave (km/s) = 7.02436 3.89123 5.67817
#
# Compressibility (1/GPa) = 0.01736371
#
# Stress axis : x y z
#
# Youngs Moduli (GPa) = 74.18442 68.75715 70.14410
#
# Poissons Ratio (x) = 0.14109 0.35902
# Poissons Ratio (y) = 0.15223 0.37092
# Poissons Ratio (z) = 0.37970 0.36358
#
# Static dielectric constant tensor:
#      x y z
#    x 1.779900 0.000000 -0.017180 
#    y 0.000000 1.780460 0.000000 
#    z -0.017180 0.000000 1.799770 
# 
# From -- ./inp_files/143770.got.cif
#   From: 2010.05.17/outbox.cif.g08.bks.cpg/sg15_72_cif.got.tgz:143770.got - 2010.06.03 18:47:42.
