data_PCOD9305146
_publ_section_title
;
Structure prediction by ZEFSAII (Michael W. Deem and Ramdas Pophale) SiO2 
 PCOD9305146
Probable space group: C 2/C
;
_chemical_formula_sum "Si O2"
_cell_formula_units_Z 60
_cell_length_a 20.812466
_cell_length_b 8.743720
_cell_length_c 21.231531
_cell_angle_alpha 90.000000
_cell_angle_beta 46.763100
_cell_angle_gamma 90.000000
_cell_volume 2814.797202
_symmetry_space_group_name_H-M "C 2/C"
_symmetry_group_IT_number 15
_symmetry_cell_setting 'monoclinic'
loop_
_space_group_symop_operation_xyz
x,y,z
-x,y,1/2-z
-x,-y,-z
x,-y,1/2+z
1/2+x,1/2+y,z
1/2-x,1/2+y,1/2-z
1/2-x,1/2-y,-z
1/2+x,1/2-y,1/2+z
loop_
_atom_site_type_symbol
_atom_site_label
_atom_site_fract_x
_atom_site_fract_y
_atom_site_fract_z
Si Si1 0.769617 0.478323 0.295802
Si Si2 0.491386 0.182088 0.009418
Si Si3 0.368555 0.319622 0.674934
Si Si4 0.000000 0.592370 0.750000
Si Si5 0.560681 0.508353 0.766162
Si Si6 0.336804 0.672842 0.526427
Si Si7 0.657497 0.334621 0.617823
Si Si8 0.448039 0.155858 0.183779
O O1 0.699783 0.546083 0.293891
O O2 0.816331 0.321989 0.241214
O O3 0.713698 0.449563 0.396389
O O4 0.846910 0.601284 0.250326
O O5 0.410864 0.247876 0.020693
O O6 0.477091 0.199069 0.093440
O O7 0.578504 0.259666 0.921416
O O8 0.500000 0.000000 0.000000
O O9 0.438714 0.397199 0.674716
O O10 0.909470 0.693345 0.817755
O O11 0.994470 0.481823 0.691863
O O12 0.500000 0.453946 0.750000
O O13 0.652722 0.473166 0.670708
O O14 0.542986 0.683224 0.788507
O O15 0.366492 0.616455 0.437419
O O16 0.258443 0.785558 0.558290
#
# Coordination Sequence:
#
# PCOD9305146 Si02
#       8
#     8   8   8   4   8   8   8   8
#     4  12  25  48  73 105 142 190 240 298 365 421
#     4  12  26  45  72 106 141 187 242 295 358 426
#     4  12  26  46  74 104 147 188 238 302 356 430
#     4  12  22  50  72 100 140 190 240 290 370 418
#     4  12  24  42  69 106 142 189 238 290 357 425
#     4  11  24  43  69 105 140 183 244 285 352 423
#     4  11  24  42  74  99 142 192 234 293 353 430
#     4  12  26  45  73 106 143 186 238 298 355 433
#
# _framework density 21.315923999999999
#
# number of rings (size 3 to 8) (size 9 to 14) (size 15 to 20)
#    0.000    0.267    5.333    4.000    0.000    4.267 
#    0.000    0.667    0.000    0.000    0.000    0.000 
#    0.000    0.000    0.000    0.000    0.000    0.000 
#
# Total GULP energy -167369.048196 kJ/mol
# GULP energy per Si atom -5578.968273 kJ/mol
# Density = 2.126741 g / cm^3
# Si number density = 21.315924 Si / 1000 Ang^3
#
#
#
# Elastic Constant Matrix: (Units=GPa)
#
#
# Indices 1 2 3 4 5 6 
#
# 1 97.7084 25.7822 33.3680 0.0000 13.9172 -0.0001
# 2 25.7822 90.7721 40.5002 0.0001 12.8511 -0.0003
# 3 33.3680 40.5002 113.6458 0.0000 26.2574 -0.0001
# 4 0.0000 0.0001 0.0000 22.4608 0.0000 10.5610
# 5 13.9172 12.8511 26.2574 0.0000 40.6611 0.0001
# 6 -0.0001 -0.0003 -0.0001 10.5610 0.0001 29.1583
#
#
#
# Elastic Compliance Matrix: (Units=1/GPa)
#
#
# Indices 1 2 3 4 5 6 
#
# 1 0.011837 -0.002066 -0.002297 0.000000 -0.001915 0.000000
# 2 -0.002066 0.013521 -0.003982 0.000000 -0.000995 0.000000
# 3 -0.002297 -0.003982 0.012248 0.000000 -0.005864 0.000000
# 4 0.000000 0.000000 0.000000 0.053661 0.000000 -0.019436
# 5 -0.001915 -0.000995 -0.005864 0.000000 0.029351 0.000000
# 6 0.000000 0.000000 0.000000 -0.019436 0.000000 0.041335
#
#
# Mechanical properties :
#
#
# Convention : Reuss Voigt Hill
#
# Bulk Modulus (GPa) = 47.81064 55.71410 51.76237
# Shear Modulus (GPa) = 26.93774 31.95444 29.44609
#
# Velocity S-wave (km/s) = 3.55877 3.87601 3.72077
# Velocity P-wave (km/s) = 6.27413 6.79892 6.54179
#
# Compressibility (1/GPa) = 0.02091585
#
# Stress axis : x y z
#
# Youngs Moduli (GPa) = 84.48191 73.95922 81.64854
#
# Poissons Ratio (x) = 0.15281 0.18751
# Poissons Ratio (y) = 0.17456 0.32513
# Poissons Ratio (z) = 0.19402 0.29451
#
# Static dielectric constant tensor:
#      x y z
#    x 1.860500 0.000000 -0.119670 
#    y 0.000000 1.740760 0.000000 
#    z -0.119670 0.000000 1.304540 
# 
# From -- ./inp_files/214313.got.cif
#   From: 2010.05.17/outbox.cif.g08.bks.cpg/sg15_108_cif.got.tgz:214313.got - 2010.06.03 18:47:42.
