data_PCOD9305537
_publ_section_title
;
Structure prediction by ZEFSAII (Michael W. Deem and Ramdas Pophale) SiO2 
 PCOD9305537
Probable space group: C 2/C
;
_chemical_formula_sum "Si O2"
_cell_formula_units_Z 32
_cell_length_a 13.210779
_cell_length_b 12.542254
_cell_length_c 9.459909
_cell_angle_alpha 90.000000
_cell_angle_beta 133.856647
_cell_angle_gamma 90.000000
_cell_volume 1130.242827
_symmetry_space_group_name_H-M "C 2/C"
_symmetry_group_IT_number 15
_symmetry_cell_setting 'monoclinic'
loop_
_space_group_symop_operation_xyz
x,y,z
-x,y,1/2-z
-x,-y,-z
x,-y,1/2+z
1/2+x,1/2+y,z
1/2-x,1/2+y,1/2-z
1/2-x,1/2-y,-z
1/2+x,1/2-y,1/2+z
loop_
_atom_site_type_symbol
_atom_site_label
_atom_site_fract_x
_atom_site_fract_y
_atom_site_fract_z
Si Si1 0.463706 0.105010 0.553954
Si Si2 0.273684 0.243041 0.699118
Si Si3 0.163459 0.176526 0.917762
Si Si4 0.901438 0.043639 0.029996
O O1 0.500000 0.076208 0.750000
O O2 0.306631 0.140923 0.361841
O O3 0.559572 0.211351 0.620931
O O4 0.500000 0.000000 0.500000
O O5 0.250000 0.250000 0.500000
O O6 0.194375 0.128072 0.636190
O O7 0.260869 0.240597 0.898129
O O8 0.000000 0.198431 0.750000
O O9 0.178093 0.055584 0.970785
O O10 0.000000 0.086364 0.250000
O O11 0.000000 0.000000 0.000000
#
# Coordination Sequence:
#
# PCOD9305537 Si02
#       4
#     8   8   8   8
#     4  12  29  51  78 115 158 206 262 326 397 474
#     4  12  25  47  77 110 152 202 260 323 387 466
#     4  11  24  45  73 109 151 197 250 313 384 461
#     4  11  24  45  74 110 150 201 254 310 387 469
#
# _framework density 28.3125
#
# number of rings (size 3 to 8) (size 9 to 14) (size 15 to 20)
#    0.000    0.500    0.000    9.000    0.000    9.000 
#    0.000    1.250    0.000    0.000    0.000    0.000 
#    0.000    0.000    0.000    0.000    0.000    0.000 
#
# Total GULP energy -89317.697217 kJ/mol
# GULP energy per Si atom -5582.356076 kJ/mol
# Density = 2.824806 g / cm^3
# Si number density = 28.312500 Si / 1000 Ang^3
#
#
#
# Elastic Constant Matrix: (Units=GPa)
#
#
# Indices 1 2 3 4 5 6 
#
# 1 56.7015 41.1475 -4.2615 0.0000 -3.4841 0.0000
# 2 41.1475 191.6068 58.7587 0.0000 16.2878 0.0000
# 3 -4.2615 58.7587 152.6740 0.0000 -5.5665 0.0000
# 4 0.0000 0.0000 0.0000 79.0907 0.0000 -5.5496
# 5 -3.4841 16.2878 -5.5665 0.0000 52.6162 0.0000
# 6 0.0000 0.0000 0.0000 -5.5496 0.0000 69.1138
#
#
#
# Elastic Compliance Matrix: (Units=1/GPa)
#
#
# Indices 1 2 3 4 5 6 
#
# 1 0.022532 -0.006110 0.003116 0.000000 0.003713 0.000000
# 2 -0.006110 0.007810 -0.003292 0.000000 -0.003171 0.000000
# 3 0.003116 -0.003292 0.007979 0.000000 0.002070 0.000000
# 4 0.000000 0.000000 0.000000 0.012715 0.000000 0.001021
# 5 0.003713 -0.003171 0.002070 0.000000 0.020452 0.000000
# 6 0.000000 0.000000 0.000000 0.001021 0.000000 0.014551
#
#
# Mechanical properties :
#
#
# Convention : Reuss Voigt Hill
#
# Bulk Modulus (GPa) = 38.83550 65.80795 52.32173
# Shear Modulus (GPa) = 46.64374 60.51999 53.58186
#
# Velocity S-wave (km/s) = 4.06330 4.62840 4.35503
# Velocity P-wave (km/s) = 5.98000 7.20116 6.61880
#
# Compressibility (1/GPa) = 0.02574964
#
# Stress axis : x y z
#
# Youngs Moduli (GPa) = 44.38044 128.03794 125.32429
#
# Poissons Ratio (x) = 0.78231 -0.39049
# Poissons Ratio (y) = 0.27116 0.41257
# Poissons Ratio (z) = -0.13828 0.42150
#
# Static dielectric constant tensor:
#      x y z
#    x 2.599190 0.000000 -0.513980 
#    y 0.000000 1.641160 0.000000 
#    z -0.513980 0.000000 2.118730 
# 
# From -- ./inp_files/45957.got.cif
#   From: 2010.05.17/outbox.cif.g08.bks.cpg/sg15_23_cif.got.tgz:45957.got - 2010.06.03 18:47:42.
