data_PCOD9305692
_publ_section_title
;
Structure prediction by ZEFSAII (Michael W. Deem and Ramdas Pophale) SiO2 
 PCOD9305692
Probable space group: C 2/C
;
_chemical_formula_sum "Si O2"
_cell_formula_units_Z 40
_cell_length_a 27.707574
_cell_length_b 12.649672
_cell_length_c 9.804823
_cell_angle_alpha 90.000000
_cell_angle_beta 29.908651
_cell_angle_gamma 90.000000
_cell_volume 1713.507547
_symmetry_space_group_name_H-M "C 2/C"
_symmetry_group_IT_number 15
_symmetry_cell_setting 'monoclinic'
loop_
_space_group_symop_operation_xyz
x,y,z
-x,y,1/2-z
-x,-y,-z
x,-y,1/2+z
1/2+x,1/2+y,z
1/2-x,1/2+y,1/2-z
1/2-x,1/2-y,-z
1/2+x,1/2-y,1/2+z
loop_
_atom_site_type_symbol
_atom_site_label
_atom_site_fract_x
_atom_site_fract_y
_atom_site_fract_z
Si Si1 0.590715 0.061396 0.339692
Si Si2 0.796649 0.571934 0.716083
Si Si3 0.607961 0.715712 0.500990
Si Si4 0.398478 0.510012 0.171842
Si Si5 0.140607 0.214090 0.737929
O O1 0.573899 0.183265 0.423727
O O2 0.668714 0.064933 0.024865
O O3 0.500000 0.000000 0.500000
O O4 0.634262 0.001008 0.361191
O O5 0.815922 0.692066 0.718467
O O6 0.689358 0.533359 0.009401
O O7 0.500000 0.764242 0.750000
O O8 0.605792 0.610187 0.417890
O O9 0.628060 0.689471 0.608623
O O10 0.382472 0.397301 0.136314
O O11 0.500000 0.500000 0.000000
O O12 0.250000 0.250000 0.500000
#
# Coordination Sequence:
#
# PCOD9305692 Si02
#       5
#     8   8   8   8   8
#     4  11  24  46  76 104 147 193 249 310 376 443
#     4  11  25  45  74 108 146 198 248 308 375 453
#     4  11  24  46  74 104 152 198 254 314 382 450
#     4  12  26  45  72 108 148 203 250 307 380 455
#     4  11  24  47  71 106 154 193 249 321 371 450
#
# _framework density 23.343931000000001
#
# number of rings (size 3 to 8) (size 9 to 14) (size 15 to 20)
#    0.000    0.800    4.000    3.600    2.800    0.000 
#    0.000    4.000    0.000    0.000    0.000    0.000 
#    0.000    0.000    0.000    0.000    0.000    0.000 
#
# Total GULP energy -111959.457532 kJ/mol
# GULP energy per Si atom -5597.972877 kJ/mol
# Density = 2.329080 g / cm^3
# Si number density = 23.343931 Si / 1000 Ang^3
#
#
#
# Elastic Constant Matrix: (Units=GPa)
#
#
# Indices 1 2 3 4 5 6 
#
# 1 101.0115 27.2558 9.0106 0.0000 -13.7199 0.0000
# 2 27.2558 209.4897 26.4509 0.0000 -10.8157 0.0000
# 3 9.0106 26.4509 89.0847 0.0000 -25.7527 0.0000
# 4 0.0000 0.0000 0.0000 42.2256 0.0000 -8.1807
# 5 -13.7199 -10.8157 -25.7527 0.0000 44.1913 0.0000
# 6 0.0000 0.0000 0.0000 -8.1807 0.0000 45.9269
#
#
#
# Elastic Compliance Matrix: (Units=1/GPa)
#
#
# Indices 1 2 3 4 5 6 
#
# 1 0.010642 -0.001248 0.000194 0.000000 0.003111 0.000000
# 2 -0.001248 0.005113 -0.001373 0.000000 0.000063 0.000000
# 3 0.000194 -0.001373 0.013870 0.000000 0.007807 0.000000
# 4 0.000000 0.000000 0.000000 0.024529 0.000000 0.004369
# 5 0.003111 0.000063 0.007807 0.000000 0.028160 0.000000
# 6 0.000000 0.000000 0.000000 0.004369 0.000000 0.022552
#
#
# Mechanical properties :
#
#
# Convention : Reuss Voigt Hill
#
# Bulk Modulus (GPa) = 40.37366 58.33563 49.35464
# Shear Modulus (GPa) = 42.38072 48.92667 45.65369
#
# Velocity S-wave (km/s) = 4.26548 4.58307 4.42713
# Velocity P-wave (km/s) = 6.44917 7.28354 6.87902
#
# Compressibility (1/GPa) = 0.02476863
#
# Stress axis : x y z
#
# Youngs Moduli (GPa) = 93.96700 195.59453 72.09638
#
# Poissons Ratio (x) = 0.24418 -0.01396
# Poissons Ratio (y) = 0.11731 0.09902
# Poissons Ratio (z) = -0.01820 0.26864
#
# Static dielectric constant tensor:
#      x y z
#    x 1.868980 0.000000 -0.020730 
#    y 0.000000 1.942920 0.000000 
#    z -0.020730 0.000000 1.968360 
# 
# From -- ./inp_files/122780.got.cif
#   From: 2010.05.17/outbox.cif.g08.bks.cpg/sg15_62_cif.got.tgz:122780.got - 2010.06.03 18:47:42.
