data_PCOD9305943
_publ_section_title
;
Structure prediction by ZEFSAII (Michael W. Deem and Ramdas Pophale) SiO2 
 PCOD9305943
Probable space group: C 2/C
;
_chemical_formula_sum "Si O2"
_cell_formula_units_Z 28
_cell_length_a 17.707787
_cell_length_b 6.879293
_cell_length_c 14.121849
_cell_angle_alpha 90.000000
_cell_angle_beta 50.242841
_cell_angle_gamma 90.000000
_cell_volume 1322.487354
_symmetry_space_group_name_H-M "C 2/C"
_symmetry_group_IT_number 15
_symmetry_cell_setting 'monoclinic'
loop_
_space_group_symop_operation_xyz
x,y,z
-x,y,1/2-z
-x,-y,-z
x,-y,1/2+z
1/2+x,1/2+y,z
1/2-x,1/2+y,1/2-z
1/2-x,1/2-y,-z
1/2+x,1/2-y,1/2+z
loop_
_atom_site_type_symbol
_atom_site_label
_atom_site_fract_x
_atom_site_fract_y
_atom_site_fract_z
Si Si1 0.802037 0.224373 0.357266
Si Si2 0.500000 0.492173 0.750000
Si Si3 0.840552 0.501754 0.165373
Si Si4 0.483611 0.695677 0.954685
O O1 0.750000 0.250000 0.500000
O O2 0.803592 0.422892 0.295640
O O3 0.743409 0.074841 0.337486
O O4 0.911315 0.143595 0.285976
O O5 0.463541 0.628244 0.864295
O O6 0.918226 0.674446 0.118647
O O7 0.898303 0.324783 0.069053
O O8 0.500000 0.500000 0.000000
#
# Coordination Sequence:
#
# PCOD9305943 Si02
#       4
#     8   4   8   8
#     4  12  28  46  75 110 147 195 249 302 372 445
#     4  12  26  44  76 104 148 188 256 298 372 434
#     4  11  27  48  74 104 153 193 246 306 374 434
#     4  11  24  49  75 105 143 195 244 310 365 438
#
# _framework density 21.172225999999998
#
# number of rings (size 3 to 8) (size 9 to 14) (size 15 to 20)
#    0.000    0.571    2.857    3.429   12.000    1.143 
#    0.000    0.000    0.000    0.000    0.000    0.000 
#    0.000    0.000    0.000    0.000    0.000    0.000 
#
# Total GULP energy -78437.519609 kJ/mol
# GULP energy per Si atom -5602.679972 kJ/mol
# Density = 2.112404 g / cm^3
# Si number density = 21.172226 Si / 1000 Ang^3
#
#
#
# Elastic Constant Matrix: (Units=GPa)
#
#
# Indices 1 2 3 4 5 6 
#
# 1 148.8731 52.0651 42.3929 -0.0002 0.2823 0.0003
# 2 52.0651 133.6780 54.6345 -0.0006 7.5259 0.0010
# 3 42.3929 54.6345 144.1546 -0.0001 28.1571 0.0002
# 4 -0.0002 -0.0006 -0.0001 37.6903 0.0000 15.1873
# 5 0.2823 7.5259 28.1571 0.0000 40.3404 -0.0001
# 6 0.0003 0.0010 0.0002 15.1873 -0.0001 38.2470
#
#
#
# Elastic Compliance Matrix: (Units=1/GPa)
#
#
# Indices 1 2 3 4 5 6 
#
# 1 0.008095 -0.002534 -0.001739 0.000000 0.001630 0.000000
# 2 -0.002534 0.009667 -0.002976 0.000000 0.000291 0.000000
# 3 -0.001739 -0.002976 0.009801 0.000000 -0.006274 0.000000
# 4 0.000000 0.000000 0.000000 0.031586 0.000000 -0.012542
# 5 0.001630 0.000291 -0.006274 0.000000 0.029103 0.000000
# 6 0.000000 0.000000 0.000000 -0.012542 0.000000 0.031126
#
#
# Mechanical properties :
#
#
# Convention : Reuss Voigt Hill
#
# Bulk Modulus (GPa) = 76.52445 80.54341 78.53393
# Shear Modulus (GPa) = 36.17124 41.76309 38.96716
#
# Velocity S-wave (km/s) = 4.13780 4.44615 4.29474
# Velocity P-wave (km/s) = 7.68445 8.03008 7.85917
#
# Compressibility (1/GPa) = 0.01306772
#
# Stress axis : x y z
#
# Youngs Moduli (GPa) = 123.52720 103.44032 102.02550
#
# Poissons Ratio (x) = 0.26214 0.17737
# Poissons Ratio (y) = 0.31304 0.30358
# Poissons Ratio (z) = 0.21476 0.30779
#
# Static dielectric constant tensor:
#      x y z
#    x 1.733810 0.000000 0.003790 
#    y 0.000000 1.743680 0.000000 
#    z 0.003790 0.000000 1.810970 
# 
# From -- ./inp_files/109441.got.cif
#   From: 2010.05.17/outbox.cif.g08.bks.cpg/sg15_55_cif.got.tgz:109441.got - 2010.06.03 18:47:42.
