data_PCOD9305298
_publ_section_title
;
Structure prediction by ZEFSAII (Michael W. Deem and Ramdas Pophale) SiO2 
 PCOD9305298
Probable space group: C 2/C
;
_chemical_formula_sum "Si O2"
_cell_formula_units_Z 48
_cell_length_a 18.921019
_cell_length_b 6.344102
_cell_length_c 21.790021
_cell_angle_alpha 90.000000
_cell_angle_beta 124.594564
_cell_angle_gamma 90.000000
_cell_volume 2153.141343
_symmetry_space_group_name_H-M "C 2/C"
_symmetry_group_IT_number 15
_symmetry_cell_setting 'monoclinic'
loop_
_space_group_symop_operation_xyz
x,y,z
-x,y,1/2-z
-x,-y,-z
x,-y,1/2+z
1/2+x,1/2+y,z
1/2-x,1/2+y,1/2-z
1/2-x,1/2-y,-z
1/2+x,1/2-y,1/2+z
loop_
_atom_site_type_symbol
_atom_site_label
_atom_site_fract_x
_atom_site_fract_y
_atom_site_fract_z
Si Si1 0.042156 0.187759 0.933141
Si Si2 0.426374 0.994094 0.163376
Si Si3 0.375121 0.025519 0.937781
Si Si4 0.356282 0.672484 0.832877
Si Si5 0.651540 0.701246 0.466108
Si Si6 0.771456 0.662972 0.167635
O O1 0.047651 0.346553 0.878334
O O2 0.951016 0.070042 0.882678
O O3 0.122834 0.032648 0.967942
O O4 0.051734 0.314678 0.001976
O O5 0.500000 0.977590 0.250000
O O6 0.340728 0.074483 0.154632
O O7 0.404161 0.775555 0.119440
O O8 0.289494 0.165851 0.893769
O O9 0.374341 0.899190 0.873784
O O10 0.370174 0.847484 0.986986
O O11 0.287931 0.525974 0.834493
O O12 0.320436 0.722829 0.748062
O O13 0.750000 0.750000 0.500000
#
# Coordination Sequence:
#
# PCOD9305298 Si02
#       6
#     8   8   8   8   8   8
#     4  11  25  45  71 101 137 180 231 286 346 414
#     4  11  24  44  70 101 138 177 233 289 342 408
#     4  11  24  44  68 100 138 179 231 285 342 414
#     4  12  25  43  69 101 138 184 227 282 353 412
#     4  11  24  45  70 101 135 183 229 283 348 411
#     4  12  25  44  70 101 141 181 228 286 346 415
#
# _framework density 22.293009000000001
#
# number of rings (size 3 to 8) (size 9 to 14) (size 15 to 20)
#    0.000    0.667    3.333    4.500    0.000   10.000 
#    3.000    0.000    0.000    0.000    0.000    0.000 
#    0.000    0.000    0.000    0.000    0.000    0.000 
#
# Total GULP energy -134303.013522 kJ/mol
# GULP energy per Si atom -5595.958897 kJ/mol
# Density = 2.224227 g / cm^3
# Si number density = 22.293009 Si / 1000 Ang^3
#
#
#
# Elastic Constant Matrix: (Units=GPa)
#
#
# Indices 1 2 3 4 5 6 
#
# 1 85.6005 -1.9820 4.9329 0.0000 7.9763 -0.0001
# 2 -1.9820 58.0103 29.5615 0.0000 -1.4922 -0.0001
# 3 4.9329 29.5615 139.5467 0.0000 3.9316 -0.0001
# 4 0.0000 0.0000 0.0000 26.1345 0.0000 5.9954
# 5 7.9763 -1.4922 3.9316 0.0000 38.2349 0.0000
# 6 -0.0001 -0.0001 -0.0001 5.9954 0.0000 30.4680
#
#
#
# Elastic Compliance Matrix: (Units=1/GPa)
#
#
# Indices 1 2 3 4 5 6 
#
# 1 0.011949 0.000590 -0.000479 0.000000 -0.002420 0.000000
# 2 0.000590 0.019407 -0.004162 0.000000 0.001062 0.000000
# 3 -0.000479 -0.004162 0.008090 0.000000 -0.000894 0.000000
# 4 0.000000 0.000000 0.000000 0.040072 0.000000 -0.007885
# 5 -0.002420 0.001062 -0.000894 0.000000 0.026792 0.000000
# 6 0.000000 0.000000 0.000000 -0.007885 0.000000 0.034373
#
#
# Mechanical properties :
#
#
# Convention : Reuss Voigt Hill
#
# Bulk Modulus (GPa) = 31.90434 38.68690 35.29562
# Shear Modulus (GPa) = 31.40051 35.67717 33.53884
#
# Velocity S-wave (km/s) = 3.75712 4.00481 3.88294
# Velocity P-wave (km/s) = 5.75879 6.22705 5.99749
#
# Compressibility (1/GPa) = 0.03134370
#
# Stress axis : x y z
#
# Youngs Moduli (GPa) = 83.68904 51.52869 123.61170
#
# Poissons Ratio (x) = -0.03041 0.05924
# Poissons Ratio (y) = -0.04939 0.51446
# Poissons Ratio (z) = 0.04011 0.21446
#
# Static dielectric constant tensor:
#      x y z
#    x 1.830550 0.000000 0.030310 
#    y 0.000000 1.813870 0.000000 
#    z 0.030310 0.000000 1.803300 
# 
# From -- ./inp_files/279037.got.cif
#   From: 2010.05.17/outbox.cif.g08.bks.cpg/sg15_140_cif.got.tgz:279037.got - 2010.06.03 18:47:42.
