data_PCOD9305200
_publ_section_title
;
Structure prediction by ZEFSAII (Michael W. Deem and Ramdas Pophale) SiO2 
 PCOD9305200
Probable space group: C 2/C
;
_chemical_formula_sum "Si O2"
_cell_formula_units_Z 32
_cell_length_a 21.335878
_cell_length_b 9.848964
_cell_length_c 9.066667
_cell_angle_alpha 90.000000
_cell_angle_beta 140.587767
_cell_angle_gamma 90.000000
_cell_volume 1209.625605
_symmetry_space_group_name_H-M "C 2/C"
_symmetry_group_IT_number 15
_symmetry_cell_setting 'monoclinic'
loop_
_space_group_symop_operation_xyz
x,y,z
-x,y,1/2-z
-x,-y,-z
x,-y,1/2+z
1/2+x,1/2+y,z
1/2-x,1/2+y,1/2-z
1/2-x,1/2-y,-z
1/2+x,1/2-y,1/2+z
loop_
_atom_site_type_symbol
_atom_site_label
_atom_site_fract_x
_atom_site_fract_y
_atom_site_fract_z
Si Si1 0.897147 0.668117 0.249732
Si Si2 0.804025 0.458808 0.872444
Si Si3 0.104011 0.960853 0.359808
Si Si4 0.074359 0.742389 0.742396
O O1 0.845270 0.595598 0.292621
O O2 0.869744 0.826229 0.183488
O O3 0.013028 0.672027 0.500962
O O4 0.862429 0.587132 0.043456
O O5 0.690395 0.487002 0.634630
O O6 0.829257 0.339790 0.035009
O O7 0.000000 0.934808 0.250000
O O8 0.093137 0.099909 0.249838
O O9 0.000000 0.737580 0.750000
#
# Coordination Sequence:
#
# PCOD9305200 Si02
#       4
#     8   8   8   8
#     4  11  24  44  71 102 137 181 229 283 340 406
#     4  11  24  45  71 102 139 181 227 281 342 409
#     4  11  24  43  69 104 138 178 228 286 344 405
#     4   9  21  42  68 100 136 174 223 282 341 402
#
# _framework density 26.454467999999999
#
# number of rings (size 3 to 8) (size 9 to 14) (size 15 to 20)
#    0.000    1.500    0.000    3.750    0.000   11.000 
#    0.000    3.750    0.000    0.000    0.000    0.000 
#    0.000    0.000    0.000    0.000    0.000    0.000 
#
# Total GULP energy -89792.009589 kJ/mol
# GULP energy per Si atom -5612.000599 kJ/mol
# Density = 2.639426 g / cm^3
# Si number density = 26.454468 Si / 1000 Ang^3
#
#
#
# Elastic Constant Matrix: (Units=GPa)
#
#
# Indices 1 2 3 4 5 6 
#
# 1 93.2589 56.0544 76.3798 0.0000 2.2608 0.0000
# 2 56.0544 164.8380 72.9519 0.0000 8.3162 0.0000
# 3 76.3798 72.9519 231.0386 0.0000 0.7204 0.0000
# 4 0.0000 0.0000 0.0000 48.2285 0.0000 -10.3989
# 5 2.2608 8.3162 0.7204 0.0000 11.3434 0.0000
# 6 0.0000 0.0000 0.0000 -10.3989 0.0000 20.3335
#
#
#
# Elastic Compliance Matrix: (Units=1/GPa)
#
#
# Indices 1 2 3 4 5 6 
#
# 1 0.016444 -0.003686 -0.004271 0.000000 -0.000304 0.000000
# 2 -0.003686 0.008177 -0.001347 0.000000 -0.005175 0.000000
# 3 -0.004271 -0.001347 0.006161 0.000000 0.001448 0.000000
# 4 0.000000 0.000000 0.000000 0.023304 0.000000 0.011918
# 5 -0.000304 -0.005175 0.001448 0.000000 0.091919 0.000000
# 6 0.000000 0.000000 0.000000 0.011918 0.000000 0.055275
#
#
# Mechanical properties :
#
#
# Convention : Reuss Voigt Hill
#
# Bulk Modulus (GPa) = 82.14926 99.98975 91.06950
# Shear Modulus (GPa) = 22.32648 34.89771 28.61209
#
# Velocity S-wave (km/s) = 2.90825 3.63597 3.29228
# Velocity P-wave (km/s) = 6.51135 7.45023 6.99656
#
# Compressibility (1/GPa) = 0.01217296
#
# Stress axis : x y z
#
# Youngs Moduli (GPa) = 60.81169 122.28763 162.30362
#
# Poissons Ratio (x) = 0.45078 0.69327
# Poissons Ratio (y) = 0.22417 0.21867
# Poissons Ratio (z) = 0.25975 0.16476
#
# Static dielectric constant tensor:
#      x y z
#    x 2.092270 0.000000 0.008630 
#    y 0.000000 2.028840 0.000000 
#    z 0.008630 0.000000 2.060230 
# 
# From -- ./inp_files/126027.got.cif
#   From: 2010.05.17/outbox.cif.g08.bks.cpg/sg15_64_cif.got.tgz:126027.got - 2010.06.03 18:47:42.
