data_PCOD9305902
_publ_section_title
;
Structure prediction by ZEFSAII (Michael W. Deem and Ramdas Pophale) SiO2 
 PCOD9305902
Probable space group: C 2/C
;
_chemical_formula_sum "Si O2"
_cell_formula_units_Z 24
_cell_length_a 13.223124
_cell_length_b 5.135527
_cell_length_c 18.933792
_cell_angle_alpha 90.000000
_cell_angle_beta 130.823518
_cell_angle_gamma 90.000000
_cell_volume 972.961813
_symmetry_space_group_name_H-M "C 2/C"
_symmetry_group_IT_number 15
_symmetry_cell_setting 'monoclinic'
loop_
_space_group_symop_operation_xyz
x,y,z
-x,y,1/2-z
-x,-y,-z
x,-y,1/2+z
1/2+x,1/2+y,z
1/2-x,1/2+y,1/2-z
1/2-x,1/2-y,-z
1/2+x,1/2-y,1/2+z
loop_
_atom_site_type_symbol
_atom_site_label
_atom_site_fract_x
_atom_site_fract_y
_atom_site_fract_z
Si Si1 0.544341 0.800350 0.959611
Si Si2 0.804000 0.454272 0.082552
Si Si3 0.224929 0.941488 0.194392
O O1 0.429880 0.587432 0.898996
O O2 0.562030 0.939869 0.891718
O O3 0.690407 0.678481 0.038341
O O4 0.500000 0.000000 0.000000
O O5 0.811163 0.354979 0.165451
O O6 0.750000 0.250000 0.000000
O O7 0.248066 0.729678 0.265967
#
# Coordination Sequence:
#
# PCOD9305902 Si02
#       3
#     8   8   8
#     4  11  24  48  75 104 142 195 249 299 354 449
#     4  11  25  46  78 101 137 199 254 286 360 449
#     4  12  28  48  70 111 153 183 234 312 372 421
#
# _framework density 24.666948999999999
#
# number of rings (size 3 to 8) (size 9 to 14) (size 15 to 20)
#    0.000    0.667    3.333    3.000    9.333    1.333 
#    0.000    0.000    0.000    0.000    0.000    0.000 
#    0.000    0.000    0.000    0.000    0.000    0.000 
#
# Total GULP energy -67205.892337 kJ/mol
# GULP energy per Si atom -5600.491028 kJ/mol
# Density = 2.461081 g / cm^3
# Si number density = 24.666949 Si / 1000 Ang^3
#
#
#
# Elastic Constant Matrix: (Units=GPa)
#
#
# Indices 1 2 3 4 5 6 
#
# 1 185.3160 21.0132 26.1805 0.0000 -37.7580 0.0000
# 2 21.0132 72.8996 6.6220 0.0000 -4.0055 -0.0001
# 3 26.1805 6.6220 72.1024 0.0000 -17.7562 0.0000
# 4 0.0000 0.0000 0.0000 51.9100 0.0000 0.4918
# 5 -37.7580 -4.0055 -17.7562 0.0000 50.8351 0.0000
# 6 0.0000 -0.0001 0.0000 0.4918 0.0000 58.9586
#
#
#
# Elastic Compliance Matrix: (Units=1/GPa)
#
#
# Indices 1 2 3 4 5 6 
#
# 1 0.006636 -0.001564 -0.001184 0.000000 0.004392 0.000000
# 2 -0.001564 0.014225 -0.000819 0.000000 -0.000327 0.000000
# 3 -0.001184 -0.000819 0.015473 0.000000 0.004460 0.000000
# 4 0.000000 0.000000 0.000000 0.019266 0.000000 -0.000161
# 5 0.004392 -0.000327 0.004460 0.000000 0.024466 0.000000
# 6 0.000000 0.000000 0.000000 -0.000161 0.000000 0.016962
#
#
# Mechanical properties :
#
#
# Convention : Reuss Voigt Hill
#
# Bulk Modulus (GPa) = 34.24790 48.66103 41.45447
# Shear Modulus (GPa) = 43.90041 50.77422 47.33732
#
# Velocity S-wave (km/s) = 4.22326 4.54187 4.38546
# Velocity P-wave (km/s) = 6.13966 6.87567 6.51806
#
# Compressibility (1/GPa) = 0.02919887
#
# Stress axis : x y z
#
# Youngs Moduli (GPa) = 150.70137 70.30021 64.62940
#
# Poissons Ratio (x) = 0.10994 0.07654
# Poissons Ratio (y) = 0.23567 0.05294
# Poissons Ratio (z) = 0.17847 0.05758
#
# Static dielectric constant tensor:
#      x y z
#    x 1.992610 0.000000 -0.072850 
#    y 0.000000 1.998380 0.000000 
#    z -0.072850 0.000000 2.063220 
# 
# From -- ./inp_files/149354.got.cif
#   From: 2010.05.17/outbox.cif.g08.bks.cpg/sg15_75_cif.got.tgz:149354.got - 2010.06.03 18:47:42.
