data_PCOD9305426
_publ_section_title
;
Structure prediction by ZEFSAII (Michael W. Deem and Ramdas Pophale) SiO2 
 PCOD9305426
Probable space group: C 2/C
;
_chemical_formula_sum "Si O2"
_cell_formula_units_Z 52
_cell_length_a 15.833224
_cell_length_b 18.221275
_cell_length_c 8.445477
_cell_angle_alpha 90.000000
_cell_angle_beta 77.171755
_cell_angle_gamma 90.000000
_cell_volume 2375.717208
_symmetry_space_group_name_H-M "C 2/C"
_symmetry_group_IT_number 15
_symmetry_cell_setting 'monoclinic'
loop_
_space_group_symop_operation_xyz
x,y,z
-x,y,1/2-z
-x,-y,-z
x,-y,1/2+z
1/2+x,1/2+y,z
1/2-x,1/2+y,1/2-z
1/2-x,1/2-y,-z
1/2+x,1/2-y,1/2+z
loop_
_atom_site_type_symbol
_atom_site_label
_atom_site_fract_x
_atom_site_fract_y
_atom_site_fract_z
Si Si1 0.000000 0.686067 0.250000
Si Si2 0.362112 0.295038 0.382693
Si Si3 0.001055 0.413803 0.018786
Si Si4 0.310459 0.422423 0.965172
Si Si5 0.903574 0.954142 0.239376
Si Si6 0.355512 0.875561 0.287522
Si Si7 0.778887 0.779629 0.756983
O O1 0.058502 0.740557 0.124595
O O2 0.041043 0.629283 0.354350
O O3 0.389139 0.376740 0.331219
O O4 0.313376 0.257958 0.251397
O O5 0.309733 0.299985 0.567249
O O6 0.067703 0.393147 0.126361
O O7 0.900945 0.392527 0.099804
O O8 0.000000 0.500000 0.000000
O O9 0.333018 0.486602 0.830551
O O10 0.293906 0.347823 0.869001
O O11 0.388000 0.433362 0.061414
O O12 0.226186 0.422305 0.116187
O O13 0.000000 0.979488 0.250000
O O14 0.331607 0.790110 0.299553
#
# Coordination Sequence:
#
# PCOD9305426 Si02
#       7
#     4   8   8   8   8   8   8
#     4  12  22  44  72 102 140 194 224 312 362 420
#     4  11  24  44  76 105 147 184 248 297 365 438
#     4  11  26  45  68 105 145 184 240 296 358 438
#     4  12  27  47  76 103 150 190 242 308 365 442
#     4  12  27  49  72 110 142 193 248 309 375 433
#     4  11  24  45  70 103 139 191 239 284 365 432
#     4  11  24  47  70 109 139 192 242 296 358 447
#
# _framework density 21.888126
#
# number of rings (size 3 to 8) (size 9 to 14) (size 15 to 20)
#    0.000    0.615    3.846    3.692    4.308    0.000 
#   11.077    0.000    0.000    0.000    0.000    0.000 
#    0.000    0.000    0.000    0.000    0.000    0.000 
#
# Total GULP energy -144902.022546 kJ/mol
# GULP energy per Si atom -5573.154713 kJ/mol
# Density = 2.183831 g / cm^3
# Si number density = 21.888126 Si / 1000 Ang^3
#
#
#
# Elastic Constant Matrix: (Units=GPa)
#
#
# Indices 1 2 3 4 5 6 
#
# 1 66.9112 20.6551 16.6038 0.0000 1.0830 0.0000
# 2 20.6551 138.7802 27.7508 0.0000 -10.9527 0.0000
# 3 16.6038 27.7508 73.4085 0.0000 2.3360 0.0000
# 4 0.0000 0.0000 0.0000 44.3703 0.0000 2.2799
# 5 1.0830 -10.9527 2.3360 0.0000 35.6148 0.0000
# 6 0.0000 0.0000 0.0000 2.2799 0.0000 24.2725
#
#
#
# Elastic Compliance Matrix: (Units=1/GPa)
#
#
# Indices 1 2 3 4 5 6 
#
# 1 0.016276 -0.001906 -0.002932 0.000000 -0.000889 0.000000
# 2 -0.001906 0.008265 -0.002782 0.000000 0.002782 0.000000
# 3 -0.002932 -0.002782 0.015394 0.000000 -0.001776 0.000000
# 4 0.000000 0.000000 0.000000 0.022647 0.000000 -0.002127
# 5 -0.000889 0.002782 -0.001776 0.000000 0.029077 0.000000
# 6 0.000000 0.000000 0.000000 -0.002127 0.000000 0.041399
#
#
# Mechanical properties :
#
#
# Convention : Reuss Voigt Hill
#
# Bulk Modulus (GPa) = 40.49606 45.45769 42.97687
# Shear Modulus (GPa) = 31.94278 35.12419 33.53349
#
# Velocity S-wave (km/s) = 3.82431 4.01023 3.91837
# Velocity P-wave (km/s) = 6.16782 6.50046 6.33632
#
# Compressibility (1/GPa) = 0.02469376
#
# Stress axis : x y z
#
# Youngs Moduli (GPa) = 61.44147 120.98942 64.96108
#
# Poissons Ratio (x) = 0.23062 0.19049
# Poissons Ratio (y) = 0.11712 0.18072
# Poissons Ratio (z) = 0.18017 0.33658
#
# Static dielectric constant tensor:
#      x y z
#    x 1.897070 0.000000 -0.032820 
#    y 0.000000 1.658860 0.000000 
#    z -0.032820 0.000000 2.185090 
# 
# From -- ./inp_files/48502.got.cif
#   From: 2010.05.17/outbox.cif.g08.bks.cpg/sg15_25_cif.got.tgz:48502.got - 2010.06.03 18:47:42.
