data_PCOD9305356
_publ_section_title
;
Structure prediction by ZEFSAII (Michael W. Deem and Ramdas Pophale) SiO2 
 PCOD9305356
Probable space group: C 2/C
;
_chemical_formula_sum "Si O2"
_cell_formula_units_Z 44
_cell_length_a 16.717438
_cell_length_b 15.613648
_cell_length_c 8.183336
_cell_angle_alpha 90.000000
_cell_angle_beta 58.801636
_cell_angle_gamma 90.000000
_cell_volume 1827.103286
_symmetry_space_group_name_H-M "C 2/C"
_symmetry_group_IT_number 15
_symmetry_cell_setting 'monoclinic'
loop_
_space_group_symop_operation_xyz
x,y,z
-x,y,1/2-z
-x,-y,-z
x,-y,1/2+z
1/2+x,1/2+y,z
1/2-x,1/2+y,1/2-z
1/2-x,1/2-y,-z
1/2+x,1/2-y,1/2+z
loop_
_atom_site_type_symbol
_atom_site_label
_atom_site_fract_x
_atom_site_fract_y
_atom_site_fract_z
Si Si1 0.500000 0.233394 0.750000
Si Si2 0.653514 0.121448 0.430022
Si Si3 0.145484 0.871656 0.697289
Si Si4 0.607093 0.545174 0.588502
Si Si5 0.428393 0.946991 0.959162
Si Si6 0.224545 0.348833 0.493123
O O1 0.560685 0.174810 0.565039
O O2 0.574343 0.294458 0.757303
O O3 0.747253 0.157334 0.412583
O O4 0.676813 0.119342 0.213384
O O5 0.637540 0.027055 0.520429
O O6 0.127900 0.944314 0.580622
O O7 0.124884 0.920503 0.888465
O O8 0.500000 0.559943 0.750000
O O9 0.679728 0.598091 0.624168
O O10 0.500000 0.912805 0.750000
O O11 0.351557 0.872197 0.066965
O O12 0.500000 0.000000 0.000000
O O13 0.250000 0.250000 0.500000
#
# Coordination Sequence:
#
# PCOD9305356 Si02
#       6
#     4   8   8   8   8   8
#     4  12  26  44  74 106 150 186 244 312 366 454
#     4  11  25  47  70 108 141 194 246 301 376 441
#     4  11  25  44  71 106 141 191 244 302 374 443
#     4  11  24  44  71 103 139 192 244 298 375 448
#     4  12  24  46  78 105 146 198 251 308 382 455
#     4  11  27  47  73 110 151 195 251 317 369 453
#
# _framework density 24.081834000000001
#
# number of rings (size 3 to 8) (size 9 to 14) (size 15 to 20)
#    0.000    0.727    5.455    1.091    2.545    3.636 
#    3.273    0.000    0.000    0.000    0.000    0.000 
#    0.000    0.000    0.000    0.000    0.000    0.000 
#
# Total GULP energy -122988.857153 kJ/mol
# GULP energy per Si atom -5590.402598 kJ/mol
# Density = 2.402702 g / cm^3
# Si number density = 24.081834 Si / 1000 Ang^3
#
#
#
# Elastic Constant Matrix: (Units=GPa)
#
#
# Indices 1 2 3 4 5 6 
#
# 1 169.9477 55.2901 31.9496 0.0000 -43.2998 0.0000
# 2 55.2901 128.3747 13.9542 0.0000 -13.3781 0.0000
# 3 31.9496 13.9542 65.0746 0.0000 -15.6915 0.0000
# 4 0.0000 0.0000 0.0000 22.8594 0.0000 -18.7555
# 5 -43.2998 -13.3781 -15.6915 0.0000 38.8635 0.0000
# 6 0.0000 0.0000 0.0000 -18.7555 0.0000 46.7874
#
#
#
# Elastic Compliance Matrix: (Units=1/GPa)
#
#
# Indices 1 2 3 4 5 6 
#
# 1 0.009418 -0.002942 -0.001891 0.000000 0.008716 0.000000
# 2 -0.002942 0.009081 -0.000598 0.000000 -0.000393 0.000000
# 3 -0.001891 -0.000598 0.017577 0.000000 0.004784 0.000000
# 4 0.000000 0.000000 0.000000 0.065185 0.000000 0.026130
# 5 0.008716 -0.000393 0.004784 0.000000 0.037239 0.000000
# 6 0.000000 0.000000 0.000000 0.026130 0.000000 0.031848
#
#
# Mechanical properties :
#
#
# Convention : Reuss Voigt Hill
#
# Bulk Modulus (GPa) = 39.66046 62.86495 51.26270
# Shear Modulus (GPa) = 26.36939 39.18228 32.77584
#
# Velocity S-wave (km/s) = 3.31265 4.03804 3.69320
# Velocity P-wave (km/s) = 5.58000 6.92116 6.28645
#
# Compressibility (1/GPa) = 0.02521403
#
# Stress axis : x y z
#
# Youngs Moduli (GPa) = 106.18339 110.12188 56.89174
#
# Poissons Ratio (x) = 0.32400 0.10759
# Poissons Ratio (y) = 0.31241 0.03400
# Poissons Ratio (z) = 0.20080 0.06580
#
# Static dielectric constant tensor:
#      x y z
#    x 2.043450 0.000000 0.087550 
#    y 0.000000 1.914100 0.000000 
#    z 0.087550 0.000000 1.928840 
# 
# From -- ./inp_files/47388.got.cif
#   From: 2010.05.17/outbox.cif.g08.bks.cpg/sg15_24_cif.got.tgz:47388.got - 2010.06.03 18:47:42.
