data_PCOD9305947
_publ_section_title
;
Structure prediction by ZEFSAII (Michael W. Deem and Ramdas Pophale) SiO2 
 PCOD9305947
Probable space group: C 2/C
;
_chemical_formula_sum "Si O2"
_cell_formula_units_Z 48
_cell_length_a 5.513627
_cell_length_b 15.331330
_cell_length_c 26.968941
_cell_angle_alpha 90.000000
_cell_angle_beta 69.312474
_cell_angle_gamma 90.000000
_cell_volume 2132.723880
_symmetry_space_group_name_H-M "C 2/C"
_symmetry_group_IT_number 15
_symmetry_cell_setting 'monoclinic'
loop_
_space_group_symop_operation_xyz
x,y,z
-x,y,1/2-z
-x,-y,-z
x,-y,1/2+z
1/2+x,1/2+y,z
1/2-x,1/2+y,1/2-z
1/2-x,1/2-y,-z
1/2+x,1/2-y,1/2+z
loop_
_atom_site_type_symbol
_atom_site_label
_atom_site_fract_x
_atom_site_fract_y
_atom_site_fract_z
Si Si1 0.581468 0.604443 0.301096
Si Si2 0.500000 0.022819 0.750000
Si Si3 0.814935 0.249180 0.837842
Si Si4 0.196537 0.511114 0.533262
Si Si5 0.000000 0.118141 0.750000
Si Si6 0.094444 0.362762 0.889132
Si Si7 0.171277 0.285592 0.059809
O O1 0.500000 0.591176 0.250000
O O2 0.817894 0.540293 0.295105
O O3 0.661134 0.704447 0.304188
O O4 0.359046 0.587071 0.357359
O O5 0.716590 0.073969 0.765324
O O6 0.969271 0.170276 0.803488
O O7 0.614968 0.231457 0.896884
O O8 0.008996 0.321017 0.843968
O O9 0.500000 0.500000 0.500000
O O10 0.184693 0.609167 0.556583
O O11 0.000000 0.500000 0.500000
O O12 0.107107 0.431305 0.574560
O O13 0.150012 0.277318 0.918830
O O14 0.250000 0.250000 0.000000
#
# Coordination Sequence:
#
# PCOD9305947 Si02
#       7
#     8   4   8   8   4   8   8
#     4  11  24  49  75 109 150 203 246 318 387 460
#     4  12  27  46  75 108 158 192 256 319 368 483
#     4  11  27  46  78 106 155 201 256 320 383 464
#     4  12  28  49  78 112 153 203 256 320 388 464
#     4  12  29  48  71 114 150 198 254 313 396 445
#     4  11  26  48  79 110 153 206 259 318 391 464
#     4  11  25  47  74 112 153 201 258 319 384 462
#
# _framework density 22.506429000000001
#
# number of rings (size 3 to 8) (size 9 to 14) (size 15 to 20)
#    0.000    0.667    2.500    3.500   12.833    1.333 
#    0.000    0.000    0.000    0.000    0.000    0.000 
#    0.000    0.000    0.000    0.000    0.000    0.000 
#
# Total GULP energy -133918.856338 kJ/mol
# GULP energy per Si atom -5579.952347 kJ/mol
# Density = 2.245520 g / cm^3
# Si number density = 22.506429 Si / 1000 Ang^3
#
#
#
# Elastic Constant Matrix: (Units=GPa)
#
#
# Indices 1 2 3 4 5 6 
#
# 1 136.7426 62.8030 56.4749 0.0000 -21.3322 0.0000
# 2 62.8030 133.8882 47.4993 0.0000 -13.1861 0.0000
# 3 56.4749 47.4993 83.1280 0.0000 -5.5812 0.0000
# 4 0.0000 0.0000 0.0000 38.4924 0.0000 -6.4982
# 5 -21.3322 -13.1861 -5.5812 0.0000 46.6339 0.0000
# 6 0.0000 0.0000 0.0000 -6.4982 0.0000 37.8970
#
#
#
# Elastic Compliance Matrix: (Units=1/GPa)
#
#
# Indices 1 2 3 4 5 6 
#
# 1 0.011780 -0.003012 -0.006026 0.000000 0.003816 0.000000
# 2 -0.003012 0.010332 -0.003784 0.000000 0.001091 0.000000
# 3 -0.006026 -0.003784 0.018175 0.000000 -0.001651 0.000000
# 4 0.000000 0.000000 0.000000 0.026754 0.000000 0.004587
# 5 0.003816 0.001091 -0.001651 0.000000 0.023300 0.000000
# 6 0.000000 0.000000 0.000000 0.004587 0.000000 0.027174
#
#
# Mechanical properties :
#
#
# Convention : Reuss Voigt Hill
#
# Bulk Modulus (GPa) = 68.29293 76.36811 72.33052
# Shear Modulus (GPa) = 33.77479 37.07009 35.42244
#
# Velocity S-wave (km/s) = 3.87805 4.06284 3.97152
# Velocity P-wave (km/s) = 7.10366 7.48426 7.29645
#
# Compressibility (1/GPa) = 0.01464281
#
# Stress axis : x y z
#
# Youngs Moduli (GPa) = 84.88610 96.78975 55.02149
#
# Poissons Ratio (x) = 0.29156 0.33156
# Poissons Ratio (y) = 0.25570 0.20819
# Poissons Ratio (z) = 0.51152 0.36624
#
# Static dielectric constant tensor:
#      x y z
#    x 1.893060 0.000000 -0.003570 
#    y 0.000000 1.935080 0.000000 
#    z -0.003570 0.000000 1.809470 
# 
# From -- ./inp_files/305156.got.cif
#   From: 2010.05.17/outbox.cif.g08.bks.cpg/sg15_153_cif.got.tgz:305156.got - 2010.06.03 18:47:42.
