data_PCOD9305765
_publ_section_title
;
Structure prediction by ZEFSAII (Michael W. Deem and Ramdas Pophale) SiO2 
 PCOD9305765
Probable space group: C 2/C
;
_chemical_formula_sum "Si O2"
_cell_formula_units_Z 48
_cell_length_a 12.688897
_cell_length_b 17.132568
_cell_length_c 13.792447
_cell_angle_alpha 90.000000
_cell_angle_beta 42.635061
_cell_angle_gamma 90.000000
_cell_volume 2030.886199
_symmetry_space_group_name_H-M "C 2/C"
_symmetry_group_IT_number 15
_symmetry_cell_setting 'monoclinic'
loop_
_space_group_symop_operation_xyz
x,y,z
-x,y,1/2-z
-x,-y,-z
x,-y,1/2+z
1/2+x,1/2+y,z
1/2-x,1/2+y,1/2-z
1/2-x,1/2-y,-z
1/2+x,1/2-y,1/2+z
loop_
_atom_site_type_symbol
_atom_site_label
_atom_site_fract_x
_atom_site_fract_y
_atom_site_fract_z
Si Si1 0.205373 0.529756 0.798293
Si Si2 0.080578 0.382686 0.994305
Si Si3 0.645154 0.700584 0.496689
Si Si4 0.555208 0.465835 0.102677
Si Si5 0.701132 0.264515 0.299241
Si Si6 0.213747 0.595190 0.609390
O O1 0.184485 0.768513 0.861614
O O2 0.144633 0.529129 0.729093
O O3 0.100177 0.600530 0.911689
O O4 0.167294 0.457533 0.891155
O O5 0.112982 0.377538 0.086786
O O6 0.154198 0.308473 0.896233
O O7 0.750000 0.750000 0.500000
O O8 0.837789 0.893152 0.502834
O O9 0.461384 0.711596 0.641240
O O10 0.500000 0.453450 0.250000
O O11 0.389288 0.463745 0.161412
O O12 0.637890 0.549431 0.035432
O O13 0.750187 0.332233 0.342809
#
# Coordination Sequence:
#
# PCOD9305765 Si02
#       6
#     8   8   8   8   8   8
#     4  11  24  47  70 108 147 194 243 314 375 454
#     4  11  26  46  73 108 151 192 251 308 386 451
#     4  12  28  49  75 110 153 198 254 317 380 453
#     4  12  25  47  78 108 148 199 259 304 385 454
#     4  12  27  46  75 109 149 197 251 314 381 445
#     4  12  25  46  76 104 147 196 250 312 371 459
#
# _framework density 23.635003999999999
#
# number of rings (size 3 to 8) (size 9 to 14) (size 15 to 20)
#    0.000    0.333    3.333    5.000    4.667    0.000 
#    0.000    5.000    0.000    0.000    0.000    0.000 
#    0.000    0.000    0.000    0.000    0.000    0.000 
#
# Total GULP energy -134023.286945 kJ/mol
# GULP energy per Si atom -5584.303623 kJ/mol
# Density = 2.358121 g / cm^3
# Si number density = 23.635004 Si / 1000 Ang^3
#
#
#
# Elastic Constant Matrix: (Units=GPa)
#
#
# Indices 1 2 3 4 5 6 
#
# 1 81.9590 24.4464 1.5742 0.0002 -3.6573 -0.0002
# 2 24.4464 152.7790 49.1107 0.0000 0.6133 0.0000
# 3 1.5742 49.1107 101.0264 0.0001 5.0185 -0.0002
# 4 0.0002 0.0000 0.0001 48.7946 -0.0002 1.9258
# 5 -3.6573 0.6133 5.0185 -0.0002 46.4697 0.0002
# 6 -0.0002 0.0000 -0.0002 1.9258 0.0002 24.4906
#
#
#
# Elastic Compliance Matrix: (Units=1/GPa)
#
#
# Indices 1 2 3 4 5 6 
#
# 1 0.012931 -0.002362 0.000899 0.000000 0.000952 0.000000
# 2 -0.002362 0.008193 -0.003953 0.000000 0.000133 0.000000
# 3 0.000899 -0.003953 0.011863 0.000000 -0.001158 0.000000
# 4 0.000000 0.000000 0.000000 0.020558 0.000000 -0.001617
# 5 0.000952 0.000133 -0.001158 0.000000 0.021718 0.000000
# 6 0.000000 0.000000 0.000000 -0.001617 0.000000 0.040959
#
#
# Mechanical properties :
#
#
# Convention : Reuss Voigt Hill
#
# Bulk Modulus (GPa) = 45.13223 54.00299 49.56761
# Shear Modulus (GPa) = 37.19163 41.32653 39.25908
#
# Velocity S-wave (km/s) = 3.97114 4.18608 4.08003
# Velocity P-wave (km/s) = 6.33748 6.80167 6.57367
#
# Compressibility (1/GPa) = 0.02215712
#
# Stress axis : x y z
#
# Youngs Moduli (GPa) = 77.33381 122.04890 84.29264
#
# Poissons Ratio (x) = 0.28829 -0.07582
# Poissons Ratio (y) = 0.18267 0.33319
# Poissons Ratio (z) = -0.06956 0.48243
#
# Static dielectric constant tensor:
#      x y z
#    x 2.057670 0.000000 -0.017420 
#    y 0.000000 1.946820 0.000000 
#    z -0.017420 0.000000 1.930060 
# 
# From -- ./inp_files/96873.got.cif
#   From: 2010.05.17/outbox.cif.g08.bks.cpg/sg15_49_cif.got.tgz:96873.got - 2010.06.03 18:47:42.
