data_PCOD9305462
_publ_section_title
;
Structure prediction by ZEFSAII (Michael W. Deem and Ramdas Pophale) SiO2 
 PCOD9305462
Probable space group: C 2/C
;
_chemical_formula_sum "Si O2"
_cell_formula_units_Z 60
_cell_length_a 23.351526
_cell_length_b 22.186011
_cell_length_c 8.937176
_cell_angle_alpha 90.000000
_cell_angle_beta 143.168007
_cell_angle_gamma 90.000000
_cell_volume 2775.637232
_symmetry_space_group_name_H-M "C 2/C"
_symmetry_group_IT_number 15
_symmetry_cell_setting 'monoclinic'
loop_
_space_group_symop_operation_xyz
x,y,z
-x,y,1/2-z
-x,-y,-z
x,-y,1/2+z
1/2+x,1/2+y,z
1/2-x,1/2+y,1/2-z
1/2-x,1/2-y,-z
1/2+x,1/2-y,1/2+z
loop_
_atom_site_type_symbol
_atom_site_label
_atom_site_fract_x
_atom_site_fract_y
_atom_site_fract_z
Si Si1 0.769195 0.548559 0.997972
Si Si2 0.237480 0.425248 0.668853
Si Si3 0.500000 0.249920 0.250000
Si Si4 0.796690 0.213406 0.959620
Si Si5 0.650921 0.172915 0.402076
Si Si6 0.042708 0.941114 0.005767
Si Si7 0.092323 0.139498 0.104495
Si Si8 0.890876 0.319432 0.026910
O O1 0.790645 0.481084 0.992083
O O2 0.656702 0.558999 0.731100
O O3 0.778987 0.554791 0.195865
O O4 0.833106 0.600710 0.055167
O O5 0.347861 0.406074 0.873808
O O6 0.172770 0.366189 0.512250
O O7 0.553556 0.205238 0.249003
O O8 0.571139 0.297183 0.479593
O O9 0.727953 0.201788 0.675855
O O10 0.883868 0.254280 0.085972
O O11 0.750000 0.250000 0.000000
O O12 0.837030 0.151753 0.109547
O O13 0.656986 0.184942 0.237351
O O14 0.000000 0.937640 0.750000
O O15 0.004226 0.887001 0.029486
O O16 0.000000 0.000000 0.000000
O O17 0.000000 0.340099 0.250000
#
# Coordination Sequence:
#
# PCOD9305462 Si02
#       8
#     8   8   4   8   8   8   8   8
#     4  11  25  44  67  97 135 183 225 285 348 408
#     4  11  24  45  68  99 133 178 228 281 351 408
#     4  12  24  44  66 104 138 184 230 278 340 416
#     4  12  23  42  69  99 135 185 220 275 347 409
#     4  11  26  44  69 100 139 184 229 284 343 413
#     4  12  25  40  65 100 135 175 225 280 339 410
#     4  12  25  40  70 101 137 177 227 280 341 413
#     4  11  25  46  70 100 137 175 231 290 340 404
#
# _framework density 21.616657
#
# number of rings (size 3 to 8) (size 9 to 14) (size 15 to 20)
#    0.000    0.533    4.000    3.600    2.800    5.867 
#    1.200    1.333    0.000    0.000    0.000    0.000 
#    0.000    0.000    0.000    0.000    0.000    0.000 
#
# Total GULP energy -167683.398357 kJ/mol
# GULP energy per Si atom -5589.446612 kJ/mol
# Density = 2.156746 g / cm^3
# Si number density = 21.616657 Si / 1000 Ang^3
#
#
#
# Elastic Constant Matrix: (Units=GPa)
#
#
# Indices 1 2 3 4 5 6 
#
# 1 74.1473 55.3127 -1.2178 0.0000 -7.2850 0.0000
# 2 55.3127 102.3722 4.4441 0.0000 -14.5027 0.0000
# 3 -1.2178 4.4441 59.1506 0.0000 -14.2584 0.0000
# 4 0.0000 0.0000 0.0000 31.4300 0.0000 1.5325
# 5 -7.2850 -14.5027 -14.2584 0.0000 17.2772 0.0000
# 6 0.0000 0.0000 0.0000 1.5325 0.0000 48.0254
#
#
#
# Elastic Compliance Matrix: (Units=1/GPa)
#
#
# Indices 1 2 3 4 5 6 
#
# 1 0.022711 -0.012261 0.001518 0.000000 0.000537 0.000000
# 2 -0.012261 0.017854 0.000965 0.000000 0.010614 0.000000
# 3 0.001518 0.000965 0.021489 0.000000 0.019184 0.000000
# 4 0.000000 0.000000 0.000000 0.031866 0.000000 -0.001017
# 5 0.000537 0.010614 0.019184 0.000000 0.082848 0.000000
# 6 0.000000 0.000000 0.000000 -0.001017 0.000000 0.020855
#
#
# Mechanical properties :
#
#
# Convention : Reuss Voigt Hill
#
# Bulk Modulus (GPa) = 23.53010 39.19427 31.36219
# Shear Modulus (GPa) = 21.61276 31.15524 26.38400
#
# Velocity S-wave (km/s) = 3.16542 3.80051 3.49741
# Velocity P-wave (km/s) = 4.92632 6.11796 5.55419
#
# Compressibility (1/GPa) = 0.04249875
#
# Stress axis : x y z
#
# Youngs Moduli (GPa) = 44.03241 56.00838 46.53507
#
# Poissons Ratio (x) = 0.68669 -0.07065
# Poissons Ratio (y) = 0.53986 -0.04489
# Poissons Ratio (z) = -0.06685 -0.05402
#
# Static dielectric constant tensor:
#      x y z
#    x 1.787280 0.000000 -0.007390 
#    y 0.000000 1.783730 0.000000 
#    z -0.007390 0.000000 1.811240 
# 
# From -- ./inp_files/63537.got.cif
#   From: 2010.05.17/outbox.cif.g08.bks.cpg/sg15_32_cif.got.tgz:63537.got - 2010.06.03 18:47:42.
