data_PCOD9305832
_publ_section_title
;
Structure prediction by ZEFSAII (Michael W. Deem and Ramdas Pophale) SiO2 
 PCOD9305832
Probable space group: C 2/C
;
_chemical_formula_sum "Si O2"
_cell_formula_units_Z 40
_cell_length_a 9.504171
_cell_length_b 22.832643
_cell_length_c 11.612541
_cell_angle_alpha 90.000000
_cell_angle_beta 141.860506
_cell_angle_gamma 90.000000
_cell_volume 1556.286749
_symmetry_space_group_name_H-M "C 2/C"
_symmetry_group_IT_number 15
_symmetry_cell_setting 'monoclinic'
loop_
_space_group_symop_operation_xyz
x,y,z
-x,y,1/2-z
-x,-y,-z
x,-y,1/2+z
1/2+x,1/2+y,z
1/2-x,1/2+y,1/2-z
1/2-x,1/2-y,-z
1/2+x,1/2-y,1/2+z
loop_
_atom_site_type_symbol
_atom_site_label
_atom_site_fract_x
_atom_site_fract_y
_atom_site_fract_z
Si Si1 0.326087 0.953540 0.537415
Si Si2 0.025301 0.239635 0.881527
Si Si3 0.000493 0.581359 0.596091
Si Si4 0.976209 0.887855 0.454680
Si Si5 0.792134 0.175448 0.182920
O O1 0.500000 0.936060 0.750000
O O2 0.391659 0.919486 0.464184
O O3 0.090749 0.937202 0.446936
O O4 0.370092 0.020845 0.533404
O O5 0.809502 0.249562 0.628108
O O6 0.889326 0.281305 0.879736
O O7 0.983096 0.172014 0.885425
O O8 0.836700 0.635965 0.491801
O O9 0.223097 0.589715 0.816379
O O10 0.111982 0.869125 0.657059
O O11 0.000000 0.205697 0.250000
#
# Coordination Sequence:
#
# PCOD9305832 Si02
#       5
#     8   8   8   8   8
#     4  11  24  47  76 108 150 205 268 328 381 471
#     4  12  24  47  81 115 151 209 266 324 390 477
#     4  11  27  47  73 113 155 204 266 321 407 466
#     4  12  26  50  81 110 158 210 266 327 404 470
#     4  12  29  49  75 120 164 204 263 330 403 480
#
# _framework density 25.702203999999998
#
# number of rings (size 3 to 8) (size 9 to 14) (size 15 to 20)
#    0.000    0.400    4.000    4.200    2.800    4.800 
#    0.000    0.000    0.000    0.000    0.000    0.000 
#    0.000    0.000    0.000    0.000    0.000    0.000 
#
# Total GULP energy -111978.317820 kJ/mol
# GULP energy per Si atom -5598.915891 kJ/mol
# Density = 2.564370 g / cm^3
# Si number density = 25.702204 Si / 1000 Ang^3
#
#
#
# Elastic Constant Matrix: (Units=GPa)
#
#
# Indices 1 2 3 4 5 6 
#
# 1 161.9956 61.0311 55.4679 0.0000 19.6319 0.0000
# 2 61.0311 77.9949 30.4559 0.0000 49.3262 0.0000
# 3 55.4679 30.4559 100.4792 0.0000 25.2316 0.0000
# 4 0.0000 0.0000 0.0000 44.1278 0.0000 2.7475
# 5 19.6319 49.3262 25.2316 0.0000 61.6391 0.0000
# 6 0.0000 0.0000 0.0000 2.7475 0.0000 54.8308
#
#
#
# Elastic Compliance Matrix: (Units=1/GPa)
#
#
# Indices 1 2 3 4 5 6 
#
# 1 0.011348 -0.012128 -0.004590 0.000000 0.007969 0.000000
# 2 -0.012128 0.039732 0.001857 0.000000 -0.028693 0.000000
# 3 -0.004590 0.001857 0.013296 0.000000 -0.005467 0.000000
# 4 0.000000 0.000000 0.000000 0.022732 0.000000 -0.001139
# 5 0.007969 -0.028693 -0.005467 0.000000 0.038884 0.000000
# 6 0.000000 0.000000 0.000000 -0.001139 0.000000 0.018295
#
#
# Mechanical properties :
#
#
# Convention : Reuss Voigt Hill
#
# Bulk Modulus (GPa) = 28.85561 70.48660 49.67111
# Shear Modulus (GPa) = 26.94548 45.02053 35.98301
#
# Velocity S-wave (km/s) = 3.24137 4.18978 3.74571
# Velocity P-wave (km/s) = 5.02592 7.13369 6.17047
#
# Compressibility (1/GPa) = 0.03465531
#
# Stress axis : x y z
#
# Youngs Moduli (GPa) = 88.12356 25.16845 75.21127
#
# Poissons Ratio (x) = 0.30523 0.34519
# Poissons Ratio (y) = 1.06872 -0.13966
# Poissons Ratio (z) = 0.40445 -0.04673
#
# Static dielectric constant tensor:
#      x y z
#    x 2.010150 0.000000 -0.048870 
#    y 0.000000 1.897680 0.000000 
#    z -0.048870 0.000000 3.040490 
# 
# From -- ./inp_files/148433.got.cif
#   From: 2010.05.17/outbox.cif.g08.bks.cpg/sg15_75_cif.got.tgz:148433.got - 2010.06.03 18:47:42.
