data_PCOD9305847
_publ_section_title
;
Structure prediction by ZEFSAII (Michael W. Deem and Ramdas Pophale) SiO2 
 PCOD9305847
Probable space group: C 2/C
;
_chemical_formula_sum "Si O2"
_cell_formula_units_Z 44
_cell_length_a 22.837428
_cell_length_b 5.613222
_cell_length_c 14.899284
_cell_angle_alpha 90.000000
_cell_angle_beta 107.857196
_cell_angle_gamma 90.000000
_cell_volume 1817.947545
_symmetry_space_group_name_H-M "C 2/C"
_symmetry_group_IT_number 15
_symmetry_cell_setting 'monoclinic'
loop_
_space_group_symop_operation_xyz
x,y,z
-x,y,1/2-z
-x,-y,-z
x,-y,1/2+z
1/2+x,1/2+y,z
1/2-x,1/2+y,1/2-z
1/2-x,1/2-y,-z
1/2+x,1/2-y,1/2+z
loop_
_atom_site_type_symbol
_atom_site_label
_atom_site_fract_x
_atom_site_fract_y
_atom_site_fract_z
Si Si1 0.478608 0.702948 0.419820
Si Si2 0.103811 0.465071 0.515606
Si Si3 0.195763 0.100293 0.520573
Si Si4 0.371592 0.260043 0.138288
Si Si5 0.263724 0.845871 0.706855
Si Si6 0.500000 0.559234 0.750000
O O1 0.500000 0.500000 0.500000
O O2 0.537626 0.873739 0.450620
O O3 0.473811 0.595963 0.319190
O O4 0.416821 0.835758 0.422874
O O5 0.149823 0.253416 0.562765
O O6 0.136660 0.571737 0.444430
O O7 0.250000 0.250000 0.500000
O O8 0.154953 0.998480 0.419977
O O9 0.225509 0.897190 0.597196
O O10 0.333538 0.191059 0.207197
O O11 0.443352 0.287616 0.188907
O O12 0.243122 0.594354 0.741297
#
# Coordination Sequence:
#
# PCOD9305847 Si02
#       6
#     8   8   8   8   8   4
#     4  11  24  50  72 117 162 213 273 344 419 497
#     4  11  24  47  81 108 157 213 279 339 425 493
#     4  12  25  52  83 111 159 223 281 344 424 505
#     4  12  27  52  81 116 161 223 275 343 425 505
#     4  12  30  53  81 127 170 219 284 357 422 503
#     4  12  26  52  82 118 170 220 282 350 426 516
#
# _framework density 24.203118
#
# number of rings (size 3 to 8) (size 9 to 14) (size 15 to 20)
#    0.000    0.364    5.455    1.636    2.545    3.636 
#    6.545    0.000    0.000    0.000    0.000    0.000 
#    0.000    0.000    0.000    0.000    0.000    0.000 
#
# Total GULP energy -123213.153295 kJ/mol
# GULP energy per Si atom -5600.597877 kJ/mol
# Density = 2.414803 g / cm^3
# Si number density = 24.203118 Si / 1000 Ang^3
#
#
#
# Elastic Constant Matrix: (Units=GPa)
#
#
# Indices 1 2 3 4 5 6 
#
# 1 139.1312 57.9696 24.2023 0.0000 -8.6210 0.0000
# 2 57.9696 115.3214 39.8761 0.0000 -17.8141 0.0000
# 3 24.2023 39.8761 94.6338 0.0000 -12.1377 0.0000
# 4 0.0000 0.0000 0.0000 30.4592 0.0000 -8.6783
# 5 -8.6210 -17.8141 -12.1377 0.0000 53.1331 0.0000
# 6 0.0000 0.0000 0.0000 -8.6783 0.0000 50.8739
#
#
#
# Elastic Compliance Matrix: (Units=1/GPa)
#
#
# Indices 1 2 3 4 5 6 
#
# 1 0.009110 -0.004432 -0.000477 0.000000 -0.000117 0.000000
# 2 -0.004432 0.012640 -0.003854 0.000000 0.002638 0.000000
# 3 -0.000477 -0.003854 0.012504 0.000000 0.001487 0.000000
# 4 0.000000 0.000000 0.000000 0.034508 0.000000 0.005886
# 5 -0.000117 0.002638 0.001487 0.000000 0.020026 0.000000
# 6 0.000000 0.000000 0.000000 0.005886 0.000000 0.020661
#
#
# Mechanical properties :
#
#
# Convention : Reuss Voigt Hill
#
# Bulk Modulus (GPa) = 59.78670 65.90916 62.84793
# Shear Modulus (GPa) = 37.72144 42.02915 39.87530
#
# Velocity S-wave (km/s) = 3.95211 4.17168 4.06338
# Velocity P-wave (km/s) = 6.75139 7.10596 6.93094
#
# Compressibility (1/GPa) = 0.01672613
#
# Stress axis : x y z
#
# Youngs Moduli (GPa) = 109.76919 79.11562 79.97590
#
# Poissons Ratio (x) = 0.35068 0.03816
# Poissons Ratio (y) = 0.48655 0.30823
# Poissons Ratio (z) = 0.05237 0.30492
#
# Static dielectric constant tensor:
#      x y z
#    x 1.874080 0.000000 0.012750 
#    y 0.000000 2.123290 0.000000 
#    z 0.012750 0.000000 2.063740 
# 
# From -- ./inp_files/212914.got.cif
#   From: 2010.05.17/outbox.cif.g08.bks.cpg/sg15_107_cif.got.tgz:212914.got - 2010.06.03 18:47:42.
