data_PCOD9305993
_publ_section_title
;
Structure prediction by ZEFSAII (Michael W. Deem and Ramdas Pophale) SiO2 
 PCOD9305993
Probable space group: C 2/C
;
_chemical_formula_sum "Si O2"
_cell_formula_units_Z 56
_cell_length_a 8.702512
_cell_length_b 11.863747
_cell_length_c 28.094706
_cell_angle_alpha 90.000000
_cell_angle_beta 62.189498
_cell_angle_gamma 90.000000
_cell_volume 2565.586219
_symmetry_space_group_name_H-M "C 2/C"
_symmetry_group_IT_number 15
_symmetry_cell_setting 'monoclinic'
loop_
_space_group_symop_operation_xyz
x,y,z
-x,y,1/2-z
-x,-y,-z
x,-y,1/2+z
1/2+x,1/2+y,z
1/2-x,1/2+y,1/2-z
1/2-x,1/2-y,-z
1/2+x,1/2-y,1/2+z
loop_
_atom_site_type_symbol
_atom_site_label
_atom_site_fract_x
_atom_site_fract_y
_atom_site_fract_z
Si Si1 0.000000 0.895598 0.250000
Si Si2 0.000000 0.412863 0.250000
Si Si3 0.762169 0.799503 0.927260
Si Si4 0.627207 0.174450 0.051179
Si Si5 0.090807 0.720620 0.164009
Si Si6 0.782010 0.441454 0.728852
Si Si7 0.314389 0.439873 0.015626
Si Si8 0.426979 0.729988 0.184580
O O1 0.977206 0.816427 0.207244
O O2 0.168236 0.971531 0.215441
O O3 0.833168 0.492958 0.269883
O O4 0.986018 0.342927 0.203415
O O5 0.569625 0.825202 0.937829
O O6 0.748754 0.666641 0.943513
O O7 0.903989 0.816025 0.865942
O O8 0.813237 0.880755 0.963830
O O9 0.636424 0.228703 0.102355
O O10 0.687057 0.045108 0.040492
O O11 0.750000 0.250000 0.000000
O O12 0.269074 0.728322 0.168907
O O13 0.961785 0.612076 0.184984
O O14 0.651841 0.343871 0.761908
O O15 0.500000 0.500000 0.000000
#
# Coordination Sequence:
#
# PCOD9305993 Si02
#       8
#     4   4   8   8   8   8   8   8
#     4  12  26  46  76 108 150 198 244 302 374 452
#     4  12  24  44  74 102 150 192 232 292 372 440
#     4  11  28  46  76 110 140 196 247 306 372 440
#     4  12  28  50  76 107 150 195 251 311 370 442
#     4  12  26  50  71 109 151 191 247 304 364 447
#     4  12  25  47  71 104 148 194 236 301 371 441
#     4  11  24  52  77 102 147 189 250 311 371 435
#     4  12  26  46  73 110 147 187 250 299 364 456
#
# _framework density 21.827372
#
# number of rings (size 3 to 8) (size 9 to 14) (size 15 to 20)
#    0.000    0.286    5.714    1.714   10.000    2.286 
#    0.000    0.000    0.000    0.000    0.000    0.000 
#    0.000    0.000    0.000    0.000    0.000    0.000 
#
# Total GULP energy -156284.429457 kJ/mol
# GULP energy per Si atom -5581.586766 kJ/mol
# Density = 2.177769 g / cm^3
# Si number density = 21.827372 Si / 1000 Ang^3
#
#
#
# Elastic Constant Matrix: (Units=GPa)
#
#
# Indices 1 2 3 4 5 6 
#
# 1 140.8311 52.5916 39.7400 0.0000 -13.3757 0.0000
# 2 52.5916 90.6508 25.4649 0.0000 3.5551 0.0000
# 3 39.7400 25.4649 116.3451 0.0000 -2.7413 0.0000
# 4 0.0000 0.0000 0.0000 3.4333 0.0000 7.2405
# 5 -13.3757 3.5551 -2.7413 0.0000 37.7147 0.0000
# 6 0.0000 0.0000 0.0000 7.2405 0.0000 48.1111
#
#
#
# Elastic Compliance Matrix: (Units=1/GPa)
#
#
# Indices 1 2 3 4 5 6 
#
# 1 0.010108 -0.005407 -0.002176 0.000000 0.003936 0.000000
# 2 -0.005407 0.014710 -0.001453 0.000000 -0.003410 0.000000
# 3 -0.002176 -0.001453 0.009658 0.000000 0.000067 0.000000
# 4 0.000000 0.000000 0.000000 0.426693 0.000000 -0.064216
# 5 0.003936 -0.003410 0.000067 0.000000 0.028237 0.000000
# 6 0.000000 0.000000 0.000000 -0.064216 0.000000 0.030449
#
#
# Mechanical properties :
#
#
# Convention : Reuss Voigt Hill
#
# Bulk Modulus (GPa) = 60.96415 64.82443 62.89429
# Shear Modulus (GPa) = 9.20138 33.18717 21.19427
#
# Velocity S-wave (km/s) = 2.05540 3.90351 3.11946
# Velocity P-wave (km/s) = 5.79859 7.07670 6.46929
#
# Compressibility (1/GPa) = 0.01640308
#
# Stress axis : x y z
#
# Youngs Moduli (GPa) = 98.93212 67.97963 103.53981
#
# Poissons Ratio (x) = 0.36758 0.22534
# Poissons Ratio (y) = 0.53495 0.15045
# Poissons Ratio (z) = 0.21531 0.09878
#
# Static dielectric constant tensor:
#      x y z
#    x 1.827280 0.000000 0.012610 
#    y 0.000000 1.821700 0.000000 
#    z 0.012610 0.000000 1.746250 
# 
# From -- ./inp_files/307442.got.cif
#   From: 2010.05.17/outbox.cif.g08.bks.cpg/sg15_154_cif.got.tgz:307442.got - 2010.06.03 18:47:42.
