data_PCOD9305590
_publ_section_title
;
Structure prediction by ZEFSAII (Michael W. Deem and Ramdas Pophale) SiO2 
 PCOD9305590
Probable space group: C 2/C
;
_chemical_formula_sum "Si O2"
_cell_formula_units_Z 36
_cell_length_a 30.884716
_cell_length_b 5.130812
_cell_length_c 24.059976
_cell_angle_alpha 90.000000
_cell_angle_beta 154.717980
_cell_angle_gamma 90.000000
_cell_volume 1628.276559
_symmetry_space_group_name_H-M "C 2/C"
_symmetry_group_IT_number 15
_symmetry_cell_setting 'monoclinic'
loop_
_space_group_symop_operation_xyz
x,y,z
-x,y,1/2-z
-x,-y,-z
x,-y,1/2+z
1/2+x,1/2+y,z
1/2-x,1/2+y,1/2-z
1/2-x,1/2-y,-z
1/2+x,1/2-y,1/2+z
loop_
_atom_site_type_symbol
_atom_site_label
_atom_site_fract_x
_atom_site_fract_y
_atom_site_fract_z
Si Si1 0.428644 0.317831 0.570719
Si Si2 0.000000 0.429459 0.750000
Si Si3 0.880122 0.143711 0.688402
Si Si4 0.514424 0.752151 0.054872
Si Si5 0.202498 0.659900 0.850737
O O1 0.476593 0.114266 0.670502
O O2 0.505663 0.563038 0.660939
O O3 0.436895 0.228174 0.516728
O O4 0.315119 0.358940 0.458606
O O5 0.903489 0.250363 0.653929
O O6 0.834291 0.382152 0.669179
O O7 0.813617 0.886600 0.621485
O O8 0.624711 0.755190 0.211966
O O9 0.500000 0.500000 0.000000
O O10 0.500000 0.000000 0.000000
#
# Coordination Sequence:
#
# PCOD9305590 Si02
#       5
#     8   4   8   8   8
#     4  11  27  48  74 107 146 189 242 294 361 432
#     4  12  24  48  72 102 154 186 236 300 364 410
#     4  11  24  46  66 108 146 182 231 298 348 427
#     4  11  24  46  72 101 145 181 235 301 346 418
#     4  11  26  45  75 106 142 190 241 286 370 426
#
# _framework density 22.109266000000002
#
# number of rings (size 3 to 8) (size 9 to 14) (size 15 to 20)
#    0.000    0.889    4.444    3.333    3.111    3.556 
#    0.000    0.000    0.000    0.000    0.000    0.000 
#    0.000    0.000    0.000    0.000    0.000    0.000 
#
# Total GULP energy -100719.588551 kJ/mol
# GULP energy per Si atom -5595.532697 kJ/mol
# Density = 2.205894 g / cm^3
# Si number density = 22.109266 Si / 1000 Ang^3
#
#
#
# Elastic Constant Matrix: (Units=GPa)
#
#
# Indices 1 2 3 4 5 6 
#
# 1 214.6465 104.0004 80.0054 -0.0001 25.9024 -0.0006
# 2 104.0004 193.6189 62.0051 0.0053 4.3858 0.0013
# 3 80.0054 62.0051 111.5901 0.0006 32.1293 -0.0001
# 4 -0.0001 0.0053 0.0006 26.8745 -0.0005 -1.8240
# 5 25.9024 4.3858 32.1293 -0.0005 58.7627 -0.0002
# 6 -0.0006 0.0013 -0.0001 -1.8240 -0.0002 40.9062
#
#
#
# Elastic Compliance Matrix: (Units=1/GPa)
#
#
# Indices 1 2 3 4 5 6 
#
# 1 0.007478 -0.002901 -0.003398 0.000001 -0.001222 0.000000
# 2 -0.002901 0.007556 -0.002759 -0.000001 0.002223 0.000000
# 3 -0.003398 -0.002759 0.014764 0.000000 -0.006369 0.000000
# 4 0.000001 -0.000001 0.000000 0.037323 0.000000 0.001664
# 5 -0.001222 0.002223 -0.006369 0.000000 0.020873 0.000000
# 6 0.000000 0.000000 0.000000 0.001664 0.000000 0.024520
#
#
# Mechanical properties :
#
#
# Convention : Reuss Voigt Hill
#
# Bulk Modulus (GPa) = 85.59207 112.43081 99.01144
# Shear Modulus (GPa) = 37.16795 43.56499 40.36647
#
# Velocity S-wave (km/s) = 4.10457 4.44378 4.27754
# Velocity P-wave (km/s) = 7.82692 8.79160 8.32325
#
# Compressibility (1/GPa) = 0.01168333
#
# Stress axis : x y z
#
# Youngs Moduli (GPa) = 133.71775 132.34134 67.73205
#
# Poissons Ratio (x) = 0.38394 0.23014
# Poissons Ratio (y) = 0.38794 0.18685
# Poissons Ratio (z) = 0.45435 0.36509
#
# Static dielectric constant tensor:
#      x y z
#    x 1.822950 0.000010 -0.015090 
#    y 0.000010 1.846310 -0.000010 
#    z -0.015090 -0.000010 1.833110 
# 
# From -- ./inp_files/284020.got.cif
#   From: 2010.05.17/outbox.cif.g08.bks.cpg/sg15_143_cif.got.tgz:284020.got - 2010.06.03 18:47:42.
