data_PCOD9305521
_publ_section_title
;
Structure prediction by ZEFSAII (Michael W. Deem and Ramdas Pophale) SiO2 
 PCOD9305521
Probable space group: C 2/C
;
_chemical_formula_sum "Si O2"
_cell_formula_units_Z 40
_cell_length_a 17.778234
_cell_length_b 16.837867
_cell_length_c 7.775055
_cell_angle_alpha 90.000000
_cell_angle_beta 44.805108
_cell_angle_gamma 90.000000
_cell_volume 1640.143597
_symmetry_space_group_name_H-M "C 2/C"
_symmetry_group_IT_number 15
_symmetry_cell_setting 'monoclinic'
loop_
_space_group_symop_operation_xyz
x,y,z
-x,y,1/2-z
-x,-y,-z
x,-y,1/2+z
1/2+x,1/2+y,z
1/2-x,1/2+y,1/2-z
1/2-x,1/2-y,-z
1/2+x,1/2-y,1/2+z
loop_
_atom_site_type_symbol
_atom_site_label
_atom_site_fract_x
_atom_site_fract_y
_atom_site_fract_z
Si Si1 0.819562 0.194955 0.686868
Si Si2 0.078030 0.054330 0.764058
Si Si3 0.389213 0.037751 0.033597
Si Si4 0.903813 0.676632 0.272137
Si Si5 0.248056 0.577893 0.559398
O O1 0.896940 0.266563 0.613181
O O2 0.802227 0.160679 0.523673
O O3 0.866298 0.120307 0.714479
O O4 0.700345 0.204960 0.953451
O O5 0.166961 0.993018 0.554331
O O6 0.000000 0.092088 0.750000
O O7 0.000000 0.000000 0.000000
O O8 0.500000 0.038193 0.750000
O O9 0.300713 0.075727 0.050862
O O10 0.396865 0.089903 0.195100
O O11 0.347432 0.950719 0.158673
O O12 0.000000 0.684510 0.250000
#
# Coordination Sequence:
#
# PCOD9305521 Si02
#       5
#     8   8   8   8   8
#     4  11  24  45  71  99 138 184 225 287 342 414
#     4  12  22  40  66  99 134 175 225 280 341 396
#     4  12  24  42  71 103 141 179 225 285 343 412
#     4  11  25  48  69  96 143 187 229 273 349 422
#     4  12  23  43  67 107 136 170 237 282 339 400
#
# _framework density 24.388107999999999
#
# number of rings (size 3 to 8) (size 9 to 14) (size 15 to 20)
#    0.000    0.400    6.000    2.400    0.000    2.400 
#    3.600    0.000    0.000    0.000    0.000    0.000 
#    0.000    0.000    0.000    0.000    0.000    0.000 
#
# Total GULP energy -111920.894907 kJ/mol
# GULP energy per Si atom -5596.044745 kJ/mol
# Density = 2.433260 g / cm^3
# Si number density = 24.388108 Si / 1000 Ang^3
#
#
#
# Elastic Constant Matrix: (Units=GPa)
#
#
# Indices 1 2 3 4 5 6 
#
# 1 223.7843 36.6768 15.0913 0.0000 -2.6286 0.0000
# 2 36.6768 76.0552 -12.8083 0.0000 -0.4082 0.0000
# 3 15.0913 -12.8083 67.7678 0.0000 -11.5443 0.0000
# 4 0.0000 0.0000 0.0000 13.0347 0.0000 11.7577
# 5 -2.6286 -0.4082 -11.5443 0.0000 37.2691 0.0000
# 6 0.0000 0.0000 0.0000 11.7577 0.0000 42.3019
#
#
#
# Elastic Compliance Matrix: (Units=1/GPa)
#
#
# Indices 1 2 3 4 5 6 
#
# 1 0.005021 -0.002702 -0.001661 0.000000 -0.000190 0.000000
# 2 -0.002702 0.015070 0.003638 0.000000 0.001101 0.000000
# 3 -0.001661 0.003638 0.016681 0.000000 0.005090 0.000000
# 4 0.000000 0.000000 0.000000 0.102389 0.000000 -0.028459
# 5 -0.000190 0.001101 0.005090 0.000000 0.028407 0.000000
# 6 0.000000 0.000000 0.000000 -0.028459 0.000000 0.031550
#
#
# Mechanical properties :
#
#
# Convention : Reuss Voigt Hill
#
# Bulk Modulus (GPa) = 28.31243 49.50300 38.90771
# Shear Modulus (GPa) = 23.54677 40.43097 31.98887
#
# Velocity S-wave (km/s) = 3.11062 4.07604 3.62561
# Velocity P-wave (km/s) = 4.95334 6.51876 5.78921
#
# Compressibility (1/GPa) = 0.03532018
#
# Stress axis : x y z
#
# Youngs Moduli (GPa) = 199.15277 66.35703 59.94933
#
# Poissons Ratio (x) = 0.17931 0.09959
# Poissons Ratio (y) = 0.53816 -0.21807
# Poissons Ratio (z) = 0.33085 -0.24138
#
# Static dielectric constant tensor:
#      x y z
#    x 2.040950 0.000000 0.005060 
#    y 0.000000 1.947190 0.000000 
#    z 0.005060 0.000000 1.974560 
# 
# From -- ./inp_files/48302.got.cif
#   From: 2010.05.17/outbox.cif.g08.bks.cpg/sg15_25_cif.got.tgz:48302.got - 2010.06.03 18:47:42.
