data_PCOD9305926
_publ_section_title
;
Structure prediction by ZEFSAII (Michael W. Deem and Ramdas Pophale) SiO2 
 PCOD9305926
Probable space group: C 2/C
;
_chemical_formula_sum "Si O2"
_cell_formula_units_Z 60
_cell_length_a 10.998623
_cell_length_b 9.628021
_cell_length_c 28.176720
_cell_angle_alpha 90.000000
_cell_angle_beta 109.890284
_cell_angle_gamma 90.000000
_cell_volume 2805.778519
_symmetry_space_group_name_H-M "C 2/C"
_symmetry_group_IT_number 15
_symmetry_cell_setting 'monoclinic'
loop_
_space_group_symop_operation_xyz
x,y,z
-x,y,1/2-z
-x,-y,-z
x,-y,1/2+z
1/2+x,1/2+y,z
1/2-x,1/2+y,1/2-z
1/2-x,1/2-y,-z
1/2+x,1/2-y,1/2+z
loop_
_atom_site_type_symbol
_atom_site_label
_atom_site_fract_x
_atom_site_fract_y
_atom_site_fract_z
Si Si1 0.072928 0.754397 0.355789
Si Si2 0.633218 0.796739 0.130761
Si Si3 0.010422 0.443006 0.934485
Si Si4 0.924283 0.936991 0.621839
Si Si5 0.222549 0.406185 0.244936
Si Si6 0.641889 0.650569 0.283171
Si Si7 0.500000 0.894932 0.750000
Si Si8 0.700868 0.110007 0.018781
O O1 0.228933 0.760879 0.373380
O O2 0.030260 0.653127 0.391910
O O3 0.026371 0.910050 0.359600
O O4 0.025793 0.697431 0.299277
O O5 0.564764 0.918550 0.092258
O O6 0.538513 0.666245 0.122618
O O7 0.660730 0.852076 0.187528
O O8 0.921789 0.368518 0.962303
O O9 0.145133 0.496841 0.974576
O O10 0.856072 0.879383 0.660789
O O11 0.818606 0.943589 0.566420
O O12 0.335850 0.508198 0.242811
O O13 0.240705 0.269673 0.279401
O O14 0.123055 0.506815 0.258326
O O15 0.500000 0.703020 0.250000
O O16 0.750000 0.250000 0.000000
#
# Coordination Sequence:
#
# PCOD9305926 Si02
#       8
#     8   8   8   8   8   8   4   8
#     4  12  28  47  72 110 146 189 246 298 355 440
#     4  12  23  50  69 101 149 187 231 300 356 428
#     4  11  25  49  79 105 144 188 242 304 364 429
#     4  12  26  46  70 105 146 185 243 300 363 430
#     4  12  24  46  70 101 145 192 241 294 352 428
#     4  12  26  45  69 101 146 190 240 295 358 429
#     4  12  26  44  74 106 148 198 240 288 372 428
#     4  11  24  48  80 106 141 192 238 306 374 425
#
# _framework density 21.384440000000001
#
# number of rings (size 3 to 8) (size 9 to 14) (size 15 to 20)
#    0.000    0.267    7.333    0.800    0.933    1.600 
#    0.000    1.333    0.000    0.000    0.000    0.000 
#    0.000    0.000    0.000    0.000    0.000    0.000 
#
# Total GULP energy -168027.537398 kJ/mol
# GULP energy per Si atom -5600.917913 kJ/mol
# Density = 2.133577 g / cm^3
# Si number density = 21.384440 Si / 1000 Ang^3
#
#
#
# Elastic Constant Matrix: (Units=GPa)
#
#
# Indices 1 2 3 4 5 6 
#
# 1 91.4945 65.5058 22.4405 0.0000 -10.7932 0.0000
# 2 65.5058 152.5953 62.6148 0.0000 -10.0990 0.0000
# 3 22.4405 62.6148 113.7298 0.0000 -11.5330 0.0000
# 4 0.0000 0.0000 0.0000 -47.3116 0.0000 23.4820
# 5 -10.7932 -10.0990 -11.5330 0.0000 28.0152 0.0000
# 6 0.0000 0.0000 0.0000 23.4820 0.0000 38.5148
#
#
#
# Elastic Compliance Matrix: (Units=1/GPa)
#
#
# Indices 1 2 3 4 5 6 
#
# 1 0.016285 -0.007196 0.001170 0.000000 0.004162 0.000000
# 2 -0.007196 0.011683 -0.005078 0.000000 -0.000651 0.000000
# 3 0.001170 -0.005078 0.011707 0.000000 0.003439 0.000000
# 4 0.000000 0.000000 0.000000 -0.016226 0.000000 0.009893
# 5 0.004162 -0.000651 0.003439 0.000000 0.038479 0.000000
# 6 0.000000 0.000000 0.000000 0.009893 0.000000 0.019932
#
#
# Mechanical properties :
#
#
# Convention : Reuss Voigt Hill
#
# Bulk Modulus (GPa) = 57.24942 73.21578 65.23260
# Shear Modulus (GPa) = 45.49990 17.66093 31.58042
#
# Velocity S-wave (km/s) = 4.61772 2.87693 3.84708
# Velocity P-wave (km/s) = 7.43376 6.73408 7.09255
#
# Compressibility (1/GPa) = 0.01746743
#
# Stress axis : x y z
#
# Youngs Moduli (GPa) = 61.40485 85.59466 85.42223
#
# Poissons Ratio (x) = 0.61592 -0.09998
# Poissons Ratio (y) = 0.44185 0.43381
# Poissons Ratio (z) = -0.07187 0.43468
#
# Static dielectric constant tensor:
#      x y z
#    x 1.773280 0.000000 0.011150 
#    y 0.000000 1.756630 0.000000 
#    z 0.011150 0.000000 1.760000 
# 
# From -- ./inp_files/309980.got.cif
#   From: 2010.05.17/outbox.cif.g08.bks.cpg/sg15_155_cif.got.tgz:309980.got - 2010.06.03 18:47:42.
