data_PCOD9305092
_publ_section_title
;
Structure prediction by ZEFSAII (Michael W. Deem and Ramdas Pophale) SiO2 
 PCOD9305092
Probable space group: C 2/C
;
_chemical_formula_sum "Si O2"
_cell_formula_units_Z 40
_cell_length_a 9.221719
_cell_length_b 32.217969
_cell_length_c 4.970396
_cell_angle_alpha 90.000000
_cell_angle_beta 98.104223
_cell_angle_gamma 90.000000
_cell_volume 1461.982084
_symmetry_space_group_name_H-M "C 2/C"
_symmetry_group_IT_number 15
_symmetry_cell_setting 'monoclinic'
loop_
_space_group_symop_operation_xyz
x,y,z
-x,y,1/2-z
-x,-y,-z
x,-y,1/2+z
1/2+x,1/2+y,z
1/2-x,1/2+y,1/2-z
1/2-x,1/2-y,-z
1/2+x,1/2-y,1/2+z
loop_
_atom_site_type_symbol
_atom_site_label
_atom_site_fract_x
_atom_site_fract_y
_atom_site_fract_z
Si Si1 0.000000 0.599154 0.750000
Si Si2 0.901359 0.912187 0.481307
Si Si3 0.179661 0.526230 0.078358
Si Si4 0.615041 0.231209 0.036614
Si Si5 0.389631 0.676532 0.970321
Si Si6 0.000000 0.654584 0.250000
O O1 0.903264 0.565992 0.558150
O O2 0.052945 0.627627 0.516500
O O3 0.838702 0.956085 0.560197
O O4 0.000000 0.919423 0.250000
O O5 0.810480 0.868853 0.429654
O O6 0.000000 0.898282 0.750000
O O7 0.153233 0.486943 0.876886
O O8 0.500000 0.227301 0.750000
O O9 0.500000 0.245862 0.250000
O O10 0.704760 0.279491 0.066200
O O11 0.629715 0.184574 0.180901
O O12 0.500000 0.672161 0.750000
O O13 0.500000 0.683623 0.250000
#
# Coordination Sequence:
#
# PCOD9305092 Si02
#       6
#     4   8   8   8   8   4
#     4  12  28  45  78 102 146 184 244 291 370 418
#     4  11  24  42  68 101 137 183 228 292 353 425
#     4  12  26  48  74 103 139 179 236 299 368 434
#     4   8  17  35  65  94 142 183 238 280 345 400
#     4   8  16  35  60  92 137 179 234 277 342 406
#     4  12  22  45  66 110 142 192 238 293 338 430
#
# _framework density 27.360116999999999
#
# number of rings (size 3 to 8) (size 9 to 14) (size 15 to 20)
#    1.200    0.400    1.000    4.200    0.000    4.000 
#    1.800    1.000    0.000    0.000    0.000    0.000 
#    0.000    0.000    0.000    0.000    0.000    0.000 
#
# Total GULP energy -111495.975003 kJ/mol
# GULP energy per Si atom -5574.798750 kJ/mol
# Density = 2.729784 g / cm^3
# Si number density = 27.360117 Si / 1000 Ang^3
#
#
#
# Elastic Constant Matrix: (Units=GPa)
#
#
# Indices 1 2 3 4 5 6 
#
# 1 102.1823 39.5141 43.5892 0.0000 -5.0835 0.0000
# 2 39.5141 157.0643 26.4765 0.0000 -11.7384 0.0000
# 3 43.5892 26.4765 188.3332 0.0000 -16.2265 0.0000
# 4 0.0000 0.0000 0.0000 41.2118 0.0000 -35.8671
# 5 -5.0835 -11.7384 -16.2265 0.0000 48.8341 0.0000
# 6 0.0000 0.0000 0.0000 -35.8671 0.0000 40.5955
#
#
#
# Elastic Compliance Matrix: (Units=1/GPa)
#
#
# Indices 1 2 3 4 5 6 
#
# 1 0.011791 -0.002578 -0.002382 0.000000 -0.000184 0.000000
# 2 -0.002578 0.007166 -0.000294 0.000000 0.001357 0.000000
# 3 -0.002382 -0.000294 0.006048 0.000000 0.001691 0.000000
# 4 0.000000 0.000000 0.000000 0.105017 0.000000 0.092785
# 5 -0.000184 0.001357 0.001691 0.000000 0.021346 0.000000
# 6 0.000000 0.000000 0.000000 0.092785 0.000000 0.106612
#
#
# Mechanical properties :
#
#
# Convention : Reuss Voigt Hill
#
# Bulk Modulus (GPa) = 68.98428 74.08217 71.53322
# Shear Modulus (GPa) = 18.29349 48.66161 33.47755
#
# Velocity S-wave (km/s) = 2.58857 4.22187 3.50178
# Velocity P-wave (km/s) = 5.84829 7.13450 6.52317
#
# Compressibility (1/GPa) = 0.01449606
#
# Stress axis : x y z
#
# Youngs Moduli (GPa) = 84.81338 139.53970 165.34085
#
# Poissons Ratio (x) = 0.35979 0.39389
# Poissons Ratio (y) = 0.21869 0.04858
# Poissons Ratio (z) = 0.20205 0.04100
#
# Static dielectric constant tensor:
#      x y z
#    x 2.671510 0.000000 -0.039100 
#    y 0.000000 2.248500 0.000000 
#    z -0.039100 0.000000 2.037230 
# 
# From -- ./inp_files/5566.got.cif
#   From: 2010.05.17/outbox.cif.g08.bks.cpg/sg15_3_cif.got.tgz:5566.got - 2010.06.03 18:47:42.
