data_PCOD9305905
_publ_section_title
;
Structure prediction by ZEFSAII (Michael W. Deem and Ramdas Pophale) SiO2 
 PCOD9305905
Probable space group: C 2/C
;
_chemical_formula_sum "Si O2"
_cell_formula_units_Z 40
_cell_length_a 24.122456
_cell_length_b 8.113153
_cell_length_c 16.377153
_cell_angle_alpha 90.000000
_cell_angle_beta 149.171332
_cell_angle_gamma 90.000000
_cell_volume 1642.556172
_symmetry_space_group_name_H-M "C 2/C"
_symmetry_group_IT_number 15
_symmetry_cell_setting 'monoclinic'
loop_
_space_group_symop_operation_xyz
x,y,z
-x,y,1/2-z
-x,-y,-z
x,-y,1/2+z
1/2+x,1/2+y,z
1/2-x,1/2+y,1/2-z
1/2-x,1/2-y,-z
1/2+x,1/2-y,1/2+z
loop_
_atom_site_type_symbol
_atom_site_label
_atom_site_fract_x
_atom_site_fract_y
_atom_site_fract_z
Si Si1 0.286792 0.618753 0.117357
Si Si2 0.874850 0.481196 0.830288
Si Si3 0.991349 0.926727 0.332113
Si Si4 0.599190 0.936678 0.818231
Si Si5 0.293825 0.716697 0.312310
O O1 0.410719 0.556863 0.270747
O O2 0.269007 0.680201 0.186184
O O3 0.250000 0.750000 0.000000
O O4 0.208874 0.460491 0.006368
O O5 0.870795 0.521914 0.729606
O O6 0.811649 0.312892 0.766752
O O7 0.827191 0.595176 0.841754
O O8 0.000000 0.500000 0.000000
O O9 0.934834 0.747973 0.249214
O O10 0.000000 0.989114 0.250000
O O11 0.105818 0.887735 0.521594
O O12 0.500000 0.000553 0.750000
#
# Coordination Sequence:
#
# PCOD9305905 Si02
#       5
#     8   8   8   8   8
#     4  12  26  46  70 110 151 196 253 317 379 448
#     4  12  26  50  77 115 153 200 258 316 382 460
#     4  11  26  47  74 106 147 201 255 311 377 462
#     4  11  24  48  75 104 150 203 252 309 378 451
#     4  12  28  47  77 111 149 205 250 318 383 455
#
# _framework density 24.352288000000001
#
# number of rings (size 3 to 8) (size 9 to 14) (size 15 to 20)
#    0.000    0.400    4.000    3.600    5.600    2.400 
#    0.000    0.000    0.000    0.000    0.000    0.000 
#    0.000    0.000    0.000    0.000    0.000    0.000 
#
# Total GULP energy -111624.457615 kJ/mol
# GULP energy per Si atom -5581.222881 kJ/mol
# Density = 2.429686 g / cm^3
# Si number density = 24.352288 Si / 1000 Ang^3
#
#
#
# Elastic Constant Matrix: (Units=GPa)
#
#
# Indices 1 2 3 4 5 6 
#
# 1 164.5483 30.7149 36.6236 0.0000 0.6061 0.0000
# 2 30.7149 45.9982 27.1675 0.0000 9.4149 0.0000
# 3 36.6236 27.1675 57.1773 0.0000 -3.3276 0.0000
# 4 0.0000 0.0000 0.0000 29.4173 0.0000 -0.8859
# 5 0.6061 9.4149 -3.3276 0.0000 46.9891 0.0000
# 6 0.0000 0.0000 0.0000 -0.8859 0.0000 25.5151
#
#
#
# Elastic Compliance Matrix: (Units=1/GPa)
#
#
# Indices 1 2 3 4 5 6 
#
# 1 0.007371 -0.003061 -0.003250 0.000000 0.000288 0.000000
# 2 -0.003061 0.034052 -0.014674 0.000000 -0.007822 0.000000
# 3 -0.003250 -0.014674 0.026827 0.000000 0.004882 0.000000
# 4 0.000000 0.000000 0.000000 0.034029 0.000000 0.001182
# 5 0.000288 -0.007822 0.004882 0.000000 0.023191 0.000000
# 6 0.000000 0.000000 0.000000 0.001182 0.000000 0.039234
#
#
# Mechanical properties :
#
#
# Convention : Reuss Voigt Hill
#
# Bulk Modulus (GPa) = 38.05190 50.74840 44.40015
# Shear Modulus (GPa) = 23.20890 31.93217 27.57053
#
# Velocity S-wave (km/s) = 3.09050 3.62506 3.36840
# Velocity P-wave (km/s) = 5.32864 6.19725 5.77929
#
# Compressibility (1/GPa) = 0.02627989
#
# Stress axis : x y z
#
# Youngs Moduli (GPa) = 135.66751 29.36684 37.27520
#
# Poissons Ratio (x) = 0.08990 0.12114
# Poissons Ratio (y) = 0.41533 0.54698
# Poissons Ratio (z) = 0.44091 0.43093
#
# Static dielectric constant tensor:
#      x y z
#    x 2.031800 0.000000 -0.067840 
#    y 0.000000 2.055450 0.000000 
#    z -0.067840 0.000000 1.937160 
# 
# From -- ./inp_files/218828.got.cif
#   From: 2010.05.17/outbox.cif.g08.bks.cpg/sg15_110_cif.got.tgz:218828.got - 2010.06.03 18:47:42.
