data_PCOD9305002
_publ_section_title
;
Structure prediction by ZEFSAII (Michael W. Deem and Ramdas Pophale) SiO2 
 PCOD9305002
Probable space group: C 2/C
;
_chemical_formula_sum "Si O2"
_cell_formula_units_Z 60
_cell_length_a 23.393407
_cell_length_b 9.480134
_cell_length_c 19.375370
_cell_angle_alpha 90.000000
_cell_angle_beta 142.259074
_cell_angle_gamma 90.000000
_cell_volume 2630.114747
_symmetry_space_group_name_H-M "C 2/C"
_symmetry_group_IT_number 15
_symmetry_cell_setting 'monoclinic'
loop_
_space_group_symop_operation_xyz
x,y,z
-x,y,1/2-z
-x,-y,-z
x,-y,1/2+z
1/2+x,1/2+y,z
1/2-x,1/2+y,1/2-z
1/2-x,1/2-y,-z
1/2+x,1/2-y,1/2+z
loop_
_atom_site_type_symbol
_atom_site_label
_atom_site_fract_x
_atom_site_fract_y
_atom_site_fract_z
Si Si1 0.291733 0.334885 0.160697
Si Si2 0.000000 0.808432 0.750000
Si Si3 0.858263 0.645119 0.808267
Si Si4 0.089453 0.346785 0.908446
Si Si5 0.958291 0.374759 0.074823
Si Si6 0.173841 0.455121 0.842871
Si Si7 0.233464 0.413361 0.682466
Si Si8 0.127485 0.061547 0.903056
O O1 0.333453 0.181802 0.214387
O O2 0.306572 0.474572 0.218868
O O3 0.327375 0.361052 0.118212
O O4 0.180199 0.329354 0.043546
O O5 0.018705 0.717764 0.836011
O O6 0.084881 0.919227 0.833408
O O7 0.848110 0.597707 0.718473
O O8 0.820592 0.513820 0.815752
O O9 0.794064 0.779486 0.763791
O O10 0.970026 0.665227 0.918029
O O11 0.027457 0.461473 0.888367
O O12 0.120360 0.420842 0.864577
O O13 0.059410 0.183707 0.869170
O O14 0.849688 0.362165 0.948467
O O15 0.284512 0.466947 0.964445
#
# Coordination Sequence:
#
# PCOD9305002 Si02
#       8
#     8   4   8   8   8   8   8   8
#     4   8  16  34  58  82 114 151 189 238 291 342
#     4  12  22  32  54  88 126 156 184 236 304 350
#     4  12  24  40  63  83 112 160 203 247 304 350
#     4   8  17  34  58  83 117 152 186 233 292 352
#     4  11  24  41  60  91 124 155 198 247 298 363
#     4   9  17  34  59  88 116 151 196 238 287 356
#     4  11  24  43  62  86 118 157 207 256 294 351
#     4   9  18  33  55  88 121 153 189 237 294 356
#
# _framework density 22.812691999999998
#
# number of rings (size 3 to 8) (size 9 to 14) (size 15 to 20)
#    0.000    2.133    0.000    5.200    0.000    2.667 
#    0.000    7.333    0.000    0.000    0.000    0.000 
#    0.000    0.000    0.000    0.000    0.000    0.000 
#
# Total GULP energy -167209.229175 kJ/mol
# GULP energy per Si atom -5573.640973 kJ/mol
# Density = 2.276077 g / cm^3
# Si number density = 22.812692 Si / 1000 Ang^3
#
#
#
# Elastic Constant Matrix: (Units=GPa)
#
#
# Indices 1 2 3 4 5 6 
#
# 1 51.2483 19.8623 7.9577 0.0000 7.3041 0.0000
# 2 19.8623 99.4587 34.9248 0.0000 5.1019 0.0000
# 3 7.9577 34.9248 48.6851 0.0000 8.5815 0.0000
# 4 0.0000 0.0000 0.0000 33.2602 0.0000 2.6847
# 5 7.3041 5.1019 8.5815 0.0000 25.7523 0.0000
# 6 0.0000 0.0000 0.0000 2.6847 0.0000 34.1593
#
#
#
# Elastic Compliance Matrix: (Units=1/GPa)
#
#
# Indices 1 2 3 4 5 6 
#
# 1 0.021873 -0.004239 0.000437 0.000000 -0.005510 0.000000
# 2 -0.004239 0.014270 -0.009835 0.000000 0.001653 0.000000
# 3 0.000437 -0.009835 0.028900 0.000000 -0.007806 0.000000
# 4 0.000000 0.000000 0.000000 0.030258 0.000000 -0.002378
# 5 -0.005510 0.001653 -0.007806 0.000000 0.042668 0.000000
# 6 0.000000 0.000000 0.000000 -0.002378 0.000000 0.029462
#
#
# Mechanical properties :
#
#
# Convention : Reuss Voigt Hill
#
# Bulk Modulus (GPa) = 26.47704 36.09796 31.28750
# Shear Modulus (GPa) = 24.12032 27.74416 25.93224
#
# Velocity S-wave (km/s) = 3.25517 3.49115 3.37522
# Velocity P-wave (km/s) = 5.07540 5.66646 5.37906
#
# Compressibility (1/GPa) = 0.03776857
#
# Stress axis : x y z
#
# Youngs Moduli (GPa) = 45.71816 70.07846 34.60217
#
# Poissons Ratio (x) = 0.29706 -0.01511
# Poissons Ratio (y) = 0.19379 0.34031
# Poissons Ratio (z) = -0.01997 0.68922
#
# Static dielectric constant tensor:
#      x y z
#    x 1.914960 0.000000 0.020520 
#    y 0.000000 1.882640 0.000000 
#    z 0.020520 0.000000 1.927630 
# 
# From -- ./inp_files/255209.got.cif
#   From: 2010.05.17/outbox.cif.g08.bks.cpg/sg15_128_cif.got.tgz:255209.got - 2010.06.03 18:47:42.
