data_PCOD9305490
_publ_section_title
;
Structure prediction by ZEFSAII (Michael W. Deem and Ramdas Pophale) SiO2 
 PCOD9305490
Probable space group: C 2/C
;
_chemical_formula_sum "Si O2"
_cell_formula_units_Z 44
_cell_length_a 6.739800
_cell_length_b 14.123193
_cell_length_c 24.670919
_cell_angle_alpha 90.000000
_cell_angle_beta 121.530100
_cell_angle_gamma 90.000000
_cell_volume 2001.663739
_symmetry_space_group_name_H-M "C 2/C"
_symmetry_group_IT_number 15
_symmetry_cell_setting 'monoclinic'
loop_
_space_group_symop_operation_xyz
x,y,z
-x,y,1/2-z
-x,-y,-z
x,-y,1/2+z
1/2+x,1/2+y,z
1/2-x,1/2+y,1/2-z
1/2-x,1/2-y,-z
1/2+x,1/2-y,1/2+z
loop_
_atom_site_type_symbol
_atom_site_label
_atom_site_fract_x
_atom_site_fract_y
_atom_site_fract_z
Si Si1 0.631604 0.435053 0.975246
Si Si2 0.000000 0.681618 0.750000
Si Si3 0.826055 0.559859 0.917224
Si Si4 0.775625 0.228088 0.437894
Si Si5 0.270760 0.027745 0.789274
Si Si6 0.087302 0.678377 0.202896
O O1 0.634647 0.495673 0.920466
O O2 0.511785 0.332424 0.962030
O O3 0.500000 0.500000 0.000000
O O4 0.908830 0.432956 0.023754
O O5 0.073331 0.610230 0.713243
O O6 0.216866 0.750119 0.790679
O O7 0.753346 0.668739 0.908314
O O8 0.843701 0.517527 0.861140
O O9 0.750000 0.250000 0.500000
O O10 0.594057 0.170868 0.373355
O O11 0.306893 0.924922 0.768719
O O12 0.000000 0.054003 0.750000
O O13 0.000000 0.712886 0.250000
#
# Coordination Sequence:
#
# PCOD9305490 Si02
#       6
#     8   4   8   8   8   8
#     4  11  24  45  70 102 146 195 241 306 374 449
#     4  12  26  50  80 104 154 198 256 316 384 454
#     4  11  26  44  70 106 146 194 250 301 379 448
#     4  12  26  45  75 109 150 195 252 311 381 450
#     4  12  27  47  77 110 147 199 254 317 379 455
#     4  12  28  50  75 113 149 201 255 313 385 465
#
# _framework density 21.981712999999999
#
# number of rings (size 3 to 8) (size 9 to 14) (size 15 to 20)
#    0.000    0.364    3.636    4.364    7.636    4.364 
#    0.000    0.000    0.000    0.000    0.000    0.000 
#    0.000    0.000    0.000    0.000    0.000    0.000 
#
# Total GULP energy -122695.507520 kJ/mol
# GULP energy per Si atom -5577.068524 kJ/mol
# Density = 2.193168 g / cm^3
# Si number density = 21.981713 Si / 1000 Ang^3
#
#
#
# Elastic Constant Matrix: (Units=GPa)
#
#
# Indices 1 2 3 4 5 6 
#
# 1 128.3532 54.7658 36.0582 0.0000 -6.5193 0.0000
# 2 54.7658 110.3376 13.0796 0.0000 -4.2044 0.0000
# 3 36.0582 13.0796 60.2424 0.0000 0.3778 0.0000
# 4 0.0000 0.0000 0.0000 34.1211 0.0000 5.2125
# 5 -6.5193 -4.2044 0.3778 0.0000 24.3402 0.0000
# 6 0.0000 0.0000 0.0000 5.2125 0.0000 76.5237
#
#
#
# Elastic Compliance Matrix: (Units=1/GPa)
#
#
# Indices 1 2 3 4 5 6 
#
# 1 0.011724 -0.005025 -0.005941 0.000000 0.002364 0.000000
# 2 -0.005025 0.011522 0.000502 0.000000 0.000637 0.000000
# 3 -0.005941 0.000502 0.020058 0.000000 -0.001816 0.000000
# 4 0.000000 0.000000 0.000000 0.029616 0.000000 -0.002017
# 5 0.002364 0.000637 -0.001816 0.000000 0.041856 0.000000
# 6 0.000000 0.000000 0.000000 -0.002017 0.000000 0.013205
#
#
# Mechanical properties :
#
#
# Convention : Reuss Voigt Hill
#
# Bulk Modulus (GPa) = 44.69090 56.30449 50.49770
# Shear Modulus (GPa) = 31.97583 39.99897 35.98740
#
# Velocity S-wave (km/s) = 3.81813 4.27036 4.05056
# Velocity P-wave (km/s) = 6.30972 7.06997 6.70064
#
# Compressibility (1/GPa) = 0.02237592
#
# Stress axis : x y z
#
# Youngs Moduli (GPa) = 85.29342 86.79101 49.85488
#
# Poissons Ratio (x) = 0.43612 0.29621
# Poissons Ratio (y) = 0.42859 -0.02503
# Poissons Ratio (z) = 0.50676 -0.04357
#
# Static dielectric constant tensor:
#      x y z
#    x 1.786730 0.000000 -0.007770 
#    y 0.000000 1.842270 0.000000 
#    z -0.007770 0.000000 1.770820 
# 
# From -- ./inp_files/285636.got.cif
#   From: 2010.05.17/outbox.cif.g08.bks.cpg/sg15_143_cif.got.tgz:285636.got - 2010.06.03 18:47:42.
