data_PCOD9305205
_publ_section_title
;
Structure prediction by ZEFSAII (Michael W. Deem and Ramdas Pophale) SiO2 
 PCOD9305205
Probable space group: C 2/C
;
_chemical_formula_sum "Si O2"
_cell_formula_units_Z 48
_cell_length_a 11.540580
_cell_length_b 15.911430
_cell_length_c 14.687417
_cell_angle_alpha 90.000000
_cell_angle_beta 58.226828
_cell_angle_gamma 90.000000
_cell_volume 2292.832808
_symmetry_space_group_name_H-M "C 2/C"
_symmetry_group_IT_number 15
_symmetry_cell_setting 'monoclinic'
loop_
_space_group_symop_operation_xyz
x,y,z
-x,y,1/2-z
-x,-y,-z
x,-y,1/2+z
1/2+x,1/2+y,z
1/2-x,1/2+y,1/2-z
1/2-x,1/2-y,-z
1/2+x,1/2-y,1/2+z
loop_
_atom_site_type_symbol
_atom_site_label
_atom_site_fract_x
_atom_site_fract_y
_atom_site_fract_z
Si Si1 0.637010 0.344138 0.873920
Si Si2 0.593721 0.183729 0.132076
Si Si3 0.881429 0.682437 0.729681
Si Si4 0.622383 0.065011 0.946095
Si Si5 0.931937 0.844260 0.118902
Si Si6 0.127836 0.988531 0.745900
O O1 0.759950 0.303005 0.881466
O O2 0.593521 0.275323 0.818781
O O3 0.684197 0.427143 0.800712
O O4 0.514162 0.363716 0.993153
O O5 0.500000 0.144241 0.250000
O O6 0.513978 0.267780 0.133281
O O7 0.616731 0.123668 0.036799
O O8 0.887229 0.621672 0.640120
O O9 0.726474 0.679523 0.831668
O O10 0.000000 0.658515 0.750000
O O11 0.761252 0.013511 0.874809
O O12 0.500000 0.000000 0.000000
O O13 0.925882 0.926100 0.184911
O O14 0.000000 0.946240 0.750000
#
# Coordination Sequence:
#
# PCOD9305205 Si02
#       6
#     8   8   8   8   8   8
#     4  12  24  42  71 103 139 191 235 291 359 420
#     4  12  23  43  75 102 138 182 246 291 350 427
#     4  11  26  45  68 101 143 185 235 293 360 432
#     4  11  26  45  69 102 140 187 234 295 358 423
#     4  11  24  43  70 103 137 187 240 295 351 422
#     4  11  25  43  66 104 147 183 237 297 357 423
#
# _framework density 20.934802000000001
#
# number of rings (size 3 to 8) (size 9 to 14) (size 15 to 20)
#    0.000    0.667    3.333    4.000    2.333    5.333 
#    0.000    0.000    0.000    0.000    0.000    0.000 
#    0.000    0.000    0.000    0.000    0.000    0.000 
#
# Total GULP energy -134263.365895 kJ/mol
# GULP energy per Si atom -5594.306912 kJ/mol
# Density = 2.088715 g / cm^3
# Si number density = 20.934802 Si / 1000 Ang^3
#
#
#
# Elastic Constant Matrix: (Units=GPa)
#
#
# Indices 1 2 3 4 5 6 
#
# 1 111.4562 23.5840 30.7159 0.0000 -2.4519 0.0000
# 2 23.5840 77.2799 15.8819 0.0000 -5.7562 0.0000
# 3 30.7159 15.8819 110.7959 0.0000 -19.9977 0.0000
# 4 0.0000 0.0000 0.0000 18.5301 0.0000 -0.6861
# 5 -2.4519 -5.7562 -19.9977 0.0000 35.1167 0.0000
# 6 0.0000 0.0000 0.0000 -0.6861 0.0000 14.1742
#
#
#
# Elastic Compliance Matrix: (Units=1/GPa)
#
#
# Indices 1 2 3 4 5 6 
#
# 1 0.010249 -0.002669 -0.002684 0.000000 -0.001251 0.000000
# 2 -0.002669 0.014075 -0.000997 0.000000 0.001553 0.000000
# 3 -0.002684 -0.000997 0.010978 0.000000 0.005901 0.000000
# 4 0.000000 0.000000 0.000000 0.054063 0.000000 0.002617
# 5 -0.001251 0.001553 0.005901 0.000000 0.032004 0.000000
# 6 0.000000 0.000000 0.000000 0.002617 0.000000 0.070677
#
#
# Mechanical properties :
#
#
# Convention : Reuss Voigt Hill
#
# Bulk Modulus (GPa) = 44.24770 48.87728 46.56249
# Shear Modulus (GPa) = 23.55356 28.85421 26.20389
#
# Velocity S-wave (km/s) = 3.35788 3.71656 3.54176
# Velocity P-wave (km/s) = 6.01794 6.46646 6.24623
#
# Compressibility (1/GPa) = 0.02260004
#
# Stress axis : x y z
#
# Youngs Moduli (GPa) = 97.56808 71.04696 91.09303
#
# Poissons Ratio (x) = 0.18964 0.24454
# Poissons Ratio (y) = 0.26044 0.09085
# Poissons Ratio (z) = 0.26192 0.07086
#
# Static dielectric constant tensor:
#      x y z
#    x 1.784760 0.000000 0.013470 
#    y 0.000000 1.754060 0.000000 
#    z 0.013470 0.000000 1.750370 
# 
# From -- ./inp_files/144069.got.cif
#   From: 2010.05.17/outbox.cif.g08.bks.cpg/sg15_73_cif.got.tgz:144069.got - 2010.06.03 18:47:42.
