data_PCOD9305605
_publ_section_title
;
Structure prediction by ZEFSAII (Michael W. Deem and Ramdas Pophale) SiO2 
 PCOD9305605
Probable space group: C 2/C
;
_chemical_formula_sum "Si O2"
_cell_formula_units_Z 48
_cell_length_a 25.182231
_cell_length_b 13.221386
_cell_length_c 9.052030
_cell_angle_alpha 90.000000
_cell_angle_beta 141.494396
_cell_angle_gamma 90.000000
_cell_volume 1876.377152
_symmetry_space_group_name_H-M "C 2/C"
_symmetry_group_IT_number 15
_symmetry_cell_setting 'monoclinic'
loop_
_space_group_symop_operation_xyz
x,y,z
-x,y,1/2-z
-x,-y,-z
x,-y,1/2+z
1/2+x,1/2+y,z
1/2-x,1/2+y,1/2-z
1/2-x,1/2-y,-z
1/2+x,1/2-y,1/2+z
loop_
_atom_site_type_symbol
_atom_site_label
_atom_site_fract_x
_atom_site_fract_y
_atom_site_fract_z
Si Si1 0.582142 0.607746 0.262587
Si Si2 0.342967 0.055899 0.583196
Si Si3 0.597634 0.687301 0.604127
Si Si4 0.924583 0.347497 0.703241
Si Si5 0.221533 0.942811 0.548294
Si Si6 0.344236 0.761600 0.268093
O O1 0.605265 0.687098 0.444701
O O2 0.641159 0.511596 0.424273
O O3 0.608809 0.657128 0.165001
O O4 0.479784 0.605614 0.041011
O O5 0.385408 0.148955 0.759157
O O6 0.407314 0.966163 0.681643
O O7 0.278988 0.009423 0.564794
O O8 0.283807 0.086561 0.316801
O O9 0.571746 0.789091 0.633428
O O10 0.681610 0.645835 0.864737
O O11 0.846285 0.297898 0.440221
O O12 0.000000 0.326393 0.750000
O O13 0.250000 0.750000 0.000000
#
# Coordination Sequence:
#
# PCOD9305605 Si02
#       6
#     8   8   8   8   8   8
#     4  11  24  46  68 107 138 186 236 287 359 420
#     4  12  26  45  72 102 138 188 233 291 352 416
#     4  11  26  43  72 101 144 186 230 292 357 420
#     4  12  27  49  68 104 142 187 240 286 351 416
#     4  12  24  46  69 106 141 179 238 291 355 421
#     4  12  24  47  74  99 143 183 236 292 348 418
#
# _framework density 25.581211
#
# number of rings (size 3 to 8) (size 9 to 14) (size 15 to 20)
#    0.000    0.333    6.667    1.500    2.333    1.333 
#    6.000    0.000    0.000    0.000    0.000    0.000 
#    0.000    0.000    0.000    0.000    0.000    0.000 
#
# Total GULP energy -134412.212282 kJ/mol
# GULP energy per Si atom -5600.508845 kJ/mol
# Density = 2.552299 g / cm^3
# Si number density = 25.581211 Si / 1000 Ang^3
#
#
#
# Elastic Constant Matrix: (Units=GPa)
#
#
# Indices 1 2 3 4 5 6 
#
# 1 57.0230 9.1808 6.5187 0.0000 -9.0284 0.0000
# 2 9.1808 58.0573 10.2389 0.0000 -6.3086 0.0000
# 3 6.5187 10.2389 103.5862 0.0000 -24.8055 0.0000
# 4 0.0000 0.0000 0.0000 35.1598 0.0000 -3.8253
# 5 -9.0284 -6.3086 -24.8055 0.0000 38.7062 0.0000
# 6 0.0000 0.0000 0.0000 -3.8253 0.0000 47.5698
#
#
#
# Elastic Compliance Matrix: (Units=1/GPa)
#
#
# Indices 1 2 3 4 5 6 
#
# 1 0.018562 -0.002512 0.000022 0.000000 0.003935 0.000000
# 2 -0.002512 0.018010 -0.001252 0.000000 0.001547 0.000000
# 3 0.000022 -0.001252 0.011492 0.000000 0.007166 0.000000
# 4 0.000000 0.000000 0.000000 0.028693 0.000000 0.002307
# 5 0.003935 0.001547 0.007166 0.000000 0.031598 0.000000
# 6 0.000000 0.000000 0.000000 0.002307 0.000000 0.021207
#
#
# Mechanical properties :
#
#
# Convention : Reuss Voigt Hill
#
# Bulk Modulus (GPa) = 24.64119 30.06036 27.35078
# Shear Modulus (GPa) = 33.20683 37.13568 35.17126
#
# Velocity S-wave (km/s) = 3.60682 3.81422 3.71197
# Velocity P-wave (km/s) = 5.19605 5.58339 5.39320
#
# Compressibility (1/GPa) = 0.04058245
#
# Stress axis : x y z
#
# Youngs Moduli (GPa) = 53.87479 55.52346 87.01584
#
# Poissons Ratio (x) = 0.13945 -0.00195
# Poissons Ratio (y) = 0.13531 0.10891
# Poissons Ratio (z) = -0.00121 0.06949
#
# Static dielectric constant tensor:
#      x y z
#    x 2.008890 0.000000 0.019870 
#    y 0.000000 2.037790 0.000000 
#    z 0.019870 0.000000 2.018080 
# 
# From -- ./inp_files/66393.got.cif
#   From: 2010.05.17/outbox.cif.g08.bks.cpg/sg15_34_cif.got.tgz:66393.got - 2010.06.03 18:47:42.
