data_PCOD9305317
_publ_section_title
;
Structure prediction by ZEFSAII (Michael W. Deem and Ramdas Pophale) SiO2 
 PCOD9305317
Probable space group: C 2/C
;
_chemical_formula_sum "Si O2"
_cell_formula_units_Z 32
_cell_length_a 22.859355
_cell_length_b 5.032089
_cell_length_c 10.895982
_cell_angle_alpha 90.000000
_cell_angle_beta 111.570712
_cell_angle_gamma 90.000000
_cell_volume 1165.587957
_symmetry_space_group_name_H-M "C 2/C"
_symmetry_group_IT_number 15
_symmetry_cell_setting 'monoclinic'
loop_
_space_group_symop_operation_xyz
x,y,z
-x,y,1/2-z
-x,-y,-z
x,-y,1/2+z
1/2+x,1/2+y,z
1/2-x,1/2+y,1/2-z
1/2-x,1/2-y,-z
1/2+x,1/2-y,1/2+z
loop_
_atom_site_type_symbol
_atom_site_label
_atom_site_fract_x
_atom_site_fract_y
_atom_site_fract_z
Si Si1 0.552418 0.803273 0.488758
Si Si2 0.549221 0.533801 0.742485
Si Si3 0.180377 0.453544 0.120276
Si Si4 0.815687 0.951382 0.202941
O O1 0.564155 0.603195 0.610737
O O2 0.524377 0.631667 0.355852
O O3 0.615255 0.966537 0.506110
O O4 0.500000 0.000000 0.500000
O O5 0.500000 0.770657 0.750000
O O6 0.623852 0.516465 0.837103
O O7 0.179115 0.168475 0.183942
O O8 0.245082 0.487076 0.095436
O O9 0.183772 0.660406 0.236479
#
# Coordination Sequence:
#
# PCOD9305317 Si02
#       4
#     8   8   8   8
#     4  11  25  45  72 104 144 192 245 304 369 441
#     4  11  24  44  69 101 142 188 242 300 363 435
#     4   9  19  39  66 100 142 185 238 298 364 434
#     4   9  19  38  66 101 141 187 236 297 364 435
#
# _framework density 27.453956000000002
#
# number of rings (size 3 to 8) (size 9 to 14) (size 15 to 20)
#    0.000    2.000    0.000    2.250    0.000    8.000 
#    0.000    1.250    0.000   42.000    0.000    0.000 
#    0.000    0.000    0.000    0.000    0.000    0.000 
#
# Total GULP energy -89188.722034 kJ/mol
# GULP energy per Si atom -5574.295127 kJ/mol
# Density = 2.739147 g / cm^3
# Si number density = 27.453956 Si / 1000 Ang^3
#
#
#
# Elastic Constant Matrix: (Units=GPa)
#
#
# Indices 1 2 3 4 5 6 
#
# 1 317.3927 38.1757 63.5792 0.0000 53.3307 0.0000
# 2 38.1757 79.4791 39.0951 0.0000 -4.7487 0.0000
# 3 63.5792 39.0951 100.5860 0.0000 -3.2236 0.0000
# 4 0.0000 0.0000 0.0000 39.4840 0.0000 -7.3440
# 5 53.3307 -4.7487 -3.2236 0.0000 53.7463 0.0000
# 6 0.0000 0.0000 0.0000 -7.3440 0.0000 38.2906
#
#
#
# Elastic Compliance Matrix: (Units=1/GPa)
#
#
# Indices 1 2 3 4 5 6 
#
# 1 0.004640 -0.001237 -0.002608 0.000000 -0.004870 0.000000
# 2 -0.001237 0.015941 -0.005340 0.000000 0.002315 0.000000
# 3 -0.002608 -0.005340 0.013760 0.000000 0.002942 0.000000
# 4 0.000000 0.000000 0.000000 0.026264 0.000000 0.005037
# 5 -0.004870 0.002315 0.002942 0.000000 0.023819 0.000000
# 6 0.000000 0.000000 0.000000 0.005037 0.000000 0.027082
#
#
# Mechanical properties :
#
#
# Convention : Reuss Voigt Hill
#
# Bulk Modulus (GPa) = 62.61225 86.57309 74.59267
# Shear Modulus (GPa) = 36.98208 50.07801 43.53004
#
# Velocity S-wave (km/s) = 3.67421 4.27555 3.98624
# Velocity P-wave (km/s) = 6.39184 7.48172 6.95815
#
# Compressibility (1/GPa) = 0.01597131
#
# Stress axis : x y z
#
# Youngs Moduli (GPa) = 215.50573 62.73154 72.67308
#
# Poissons Ratio (x) = 0.07758 0.18956
# Poissons Ratio (y) = 0.26652 0.38807
# Poissons Ratio (z) = 0.56213 0.33498
#
# Static dielectric constant tensor:
#      x y z
#    x 2.168350 0.000000 0.169330 
#    y 0.000000 2.063140 0.000000 
#    z 0.169330 0.000000 2.192380 
# 
# From -- ./inp_files/115302.got.cif
#   From: 2010.05.17/outbox.cif.g08.bks.cpg/sg15_58_cif.got.tgz:115302.got - 2010.06.03 18:47:42.
