data_PCOD9305951
_publ_section_title
;
Structure prediction by ZEFSAII (Michael W. Deem and Ramdas Pophale) SiO2 
 PCOD9305951
Probable space group: C 2/C
;
_chemical_formula_sum "Si O2"
_cell_formula_units_Z 36
_cell_length_a 12.605673
_cell_length_b 24.470549
_cell_length_c 5.365252
_cell_angle_alpha 90.000000
_cell_angle_beta 124.118233
_cell_angle_gamma 90.000000
_cell_volume 1370.150438
_symmetry_space_group_name_H-M "C 2/C"
_symmetry_group_IT_number 15
_symmetry_cell_setting 'monoclinic'
loop_
_space_group_symop_operation_xyz
x,y,z
-x,y,1/2-z
-x,-y,-z
x,-y,1/2+z
1/2+x,1/2+y,z
1/2-x,1/2+y,1/2-z
1/2-x,1/2-y,-z
1/2+x,1/2-y,1/2+z
loop_
_atom_site_type_symbol
_atom_site_label
_atom_site_fract_x
_atom_site_fract_y
_atom_site_fract_z
Si Si1 0.500000 0.454248 0.250000
Si Si2 0.271051 0.017783 0.680741
Si Si3 0.500000 0.381628 0.750000
Si Si4 0.360386 0.864954 0.445283
Si Si5 0.322069 0.286420 0.389779
Si Si6 0.500000 0.796973 0.250000
O O1 0.629756 0.491100 0.439557
O O2 0.499942 0.416740 0.496508
O O3 0.287936 0.078075 0.816020
O O4 0.330459 0.018237 0.481925
O O5 0.382384 0.339859 0.598215
O O6 0.267816 0.816777 0.431252
O O7 0.398062 0.837627 0.233371
O O8 0.500000 0.873340 0.750000
O O9 0.250000 0.250000 0.500000
O O10 0.438693 0.245994 0.472002
#
# Coordination Sequence:
#
# PCOD9305951 Si02
#       6
#     4   8   4   8   8   4
#     4  12  24  46  74 106 144 177 244 293 350 400
#     4  12  27  46  73 103 140 185 235 292 348 411
#     4  11  24  49  76 112 138 186 232 300 346 408
#     4  11  25  43  67  99 137 183 230 286 351 424
#     4   9  20  47  72 102 140 178 234 286 357 414
#     4   9  22  45  68  96 136 175 236 291 346 418
#
# _framework density 26.274484999999999
#
# number of rings (size 3 to 8) (size 9 to 14) (size 15 to 20)
#    0.000    1.333    0.000    4.667    3.111    3.556 
#   26.000    0.000    0.000    0.000    0.000    0.000 
#    0.000    0.000    0.000    0.000    0.000    0.000 
#
# Total GULP energy -100368.360234 kJ/mol
# GULP energy per Si atom -5576.020013 kJ/mol
# Density = 2.621468 g / cm^3
# Si number density = 26.274485 Si / 1000 Ang^3
#
#
#
# Elastic Constant Matrix: (Units=GPa)
#
#
# Indices 1 2 3 4 5 6 
#
# 1 66.3165 48.9312 46.9527 0.0000 11.9434 0.0000
# 2 48.9312 184.4890 94.9425 0.0000 28.4575 0.0000
# 3 46.9527 94.9425 171.5126 0.0000 -0.8608 0.0000
# 4 0.0000 0.0000 0.0000 477.6953 0.0000 -44.0612
# 5 11.9434 28.4575 -0.8608 0.0000 50.6211 0.0000
# 6 0.0000 0.0000 0.0000 -44.0612 0.0000 70.5147
#
#
#
# Elastic Compliance Matrix: (Units=1/GPa)
#
#
# Indices 1 2 3 4 5 6 
#
# 1 0.020695 -0.002866 -0.004096 0.000000 -0.003341 0.000000
# 2 -0.002866 0.009063 -0.004255 0.000000 -0.004491 0.000000
# 3 -0.004096 -0.004255 0.009325 0.000000 0.003517 0.000000
# 4 0.000000 0.000000 0.000000 0.002221 0.000000 0.001388
# 5 -0.003341 -0.004491 0.003517 0.000000 0.023128 0.000000
# 6 0.000000 0.000000 0.000000 0.001388 0.000000 0.015049
#
#
# Mechanical properties :
#
#
# Convention : Reuss Voigt Hill
#
# Bulk Modulus (GPa) = 60.06006 89.33011 74.69508
# Shear Modulus (GPa) = 46.52740 135.19900 90.86320
#
# Velocity S-wave (km/s) = 4.21268 7.18109 5.88705
# Velocity P-wave (km/s) = 6.82426 10.14052 8.64293
#
# Compressibility (1/GPa) = 0.01665000
#
# Stress axis : x y z
#
# Youngs Moduli (GPa) = 48.32003 110.34081 107.24149
#
# Poissons Ratio (x) = 0.31620 0.43926
# Poissons Ratio (y) = 0.13847 0.45630
# Poissons Ratio (z) = 0.19792 0.46949
#
# Static dielectric constant tensor:
#      x y z
#    x 2.352250 0.000000 0.156570 
#    y 0.000000 2.007740 0.000000 
#    z 0.156570 0.000000 2.231920 
# 
# From -- ./inp_files/8181.got.cif
#   From: 2010.05.17/outbox.cif.g08.bks.cpg/sg15_5_cif.got.tgz:8181.got - 2010.06.03 18:47:42.
