data_PCOD9305557
_publ_section_title
;
Structure prediction by ZEFSAII (Michael W. Deem and Ramdas Pophale) SiO2 
 PCOD9305557
Probable space group: C 2/C
;
_chemical_formula_sum "Si O2"
_cell_formula_units_Z 36
_cell_length_a 12.206681
_cell_length_b 8.558333
_cell_length_c 13.562719
_cell_angle_alpha 90.000000
_cell_angle_beta 107.719800
_cell_angle_gamma 90.000000
_cell_volume 1349.659512
_symmetry_space_group_name_H-M "C 2/C"
_symmetry_group_IT_number 15
_symmetry_cell_setting 'monoclinic'
loop_
_space_group_symop_operation_xyz
x,y,z
-x,y,1/2-z
-x,-y,-z
x,-y,1/2+z
1/2+x,1/2+y,z
1/2-x,1/2+y,1/2-z
1/2-x,1/2-y,-z
1/2+x,1/2-y,1/2+z
loop_
_atom_site_type_symbol
_atom_site_label
_atom_site_fract_x
_atom_site_fract_y
_atom_site_fract_z
Si Si1 0.500000 0.119967 0.250000
Si Si2 0.437756 0.158420 0.446934
Si Si3 0.508625 0.368768 0.650337
Si Si4 0.721232 0.462972 0.402412
Si Si5 0.251331 0.887408 0.640351
O O1 0.488758 0.200281 0.354356
O O2 0.627138 0.044611 0.291087
O O3 0.467613 0.279915 0.540523
O O4 0.500000 0.000000 0.500000
O O5 0.304363 0.109203 0.400701
O O6 0.500000 0.270474 0.750000
O O7 0.410363 0.493379 0.643946
O O8 0.635089 0.435064 0.663250
O O9 0.747926 0.302284 0.353114
O O10 0.741623 0.429343 0.523318
#
# Coordination Sequence:
#
# PCOD9305557 Si02
#       5
#     4   8   8   8   8
#     4  12  26  46  74 106 146 204 238 312 386 450
#     4  12  24  47  74 104 150 199 252 315 380 455
#     4  12  27  48  74 114 150 199 258 316 382 460
#     4  11  24  48  75 109 149 197 256 314 377 459
#     4  11  24  45  74 107 153 198 248 312 382 454
#
# _framework density 26.673393999999998
#
# number of rings (size 3 to 8) (size 9 to 14) (size 15 to 20)
#    0.000    0.444    4.444    4.000    3.111    0.000 
#    8.000    0.000    0.000    0.000    0.000    0.000 
#    0.000    0.000    0.000    0.000    0.000    0.000 
#
# Total GULP energy -100855.946910 kJ/mol
# GULP energy per Si atom -5603.108162 kJ/mol
# Density = 2.661268 g / cm^3
# Si number density = 26.673394 Si / 1000 Ang^3
#
#
#
# Elastic Constant Matrix: (Units=GPa)
#
#
# Indices 1 2 3 4 5 6 
#
# 1 248.4205 42.1803 56.5552 0.0000 16.6192 0.0000
# 2 42.1803 61.9335 33.4217 0.0000 -5.7037 0.0000
# 3 56.5552 33.4217 170.4617 0.0000 -26.8951 0.0000
# 4 0.0000 0.0000 0.0000 555.7476 0.0000 295.7989
# 5 16.6192 -5.7037 -26.8951 0.0000 65.0285 0.0000
# 6 0.0000 0.0000 0.0000 295.7989 0.0000 196.7573
#
#
#
# Elastic Compliance Matrix: (Units=1/GPa)
#
#
# Indices 1 2 3 4 5 6 
#
# 1 0.004969 -0.002806 -0.001431 0.000000 -0.002108 0.000000
# 2 -0.002806 0.019642 -0.002712 0.000000 0.001318 0.000000
# 3 -0.001431 -0.002712 0.007374 0.000000 0.003178 0.000000
# 4 0.000000 0.000000 0.000000 0.009005 0.000000 -0.013537
# 5 -0.002108 0.001318 0.003178 0.000000 0.017346 0.000000
# 6 0.000000 0.000000 0.000000 -0.013537 0.000000 0.025434
#
#
# Mechanical properties :
#
#
# Convention : Reuss Voigt Hill
#
# Bulk Modulus (GPa) = 55.28776 82.79225 69.04000
# Shear Modulus (GPa) = 48.21706 186.75060 117.48383
#
# Velocity S-wave (km/s) = 4.25630 8.37650 6.64387
# Velocity P-wave (km/s) = 6.70279 11.16517 9.20838
#
# Compressibility (1/GPa) = 0.01808719
#
# Stress axis : x y z
#
# Youngs Moduli (GPa) = 201.26361 50.91041 135.60569
#
# Poissons Ratio (x) = 0.14285 0.19404
# Poissons Ratio (y) = 0.56472 0.36780
# Poissons Ratio (z) = 0.28799 0.13808
#
# Static dielectric constant tensor:
#      x y z
#    x 2.054830 0.000000 0.013430 
#    y 0.000000 2.092430 0.000000 
#    z 0.013430 0.000000 1.999140 
# 
# From -- ./inp_files/84492.got.cif
#   From: 2010.05.17/outbox.cif.g08.bks.cpg/sg15_43_cif.got.tgz:84492.got - 2010.06.03 18:47:42.
