data_PCOD9305387
_publ_section_title
;
Structure prediction by ZEFSAII (Michael W. Deem and Ramdas Pophale) SiO2 
 PCOD9305387
Probable space group: C 2/C
;
_chemical_formula_sum "Si O2"
_cell_formula_units_Z 44
_cell_length_a 13.895583
_cell_length_b 31.683626
_cell_length_c 5.011636
_cell_angle_alpha 90.000000
_cell_angle_beta 116.334896
_cell_angle_gamma 90.000000
_cell_volume 1977.443409
_symmetry_space_group_name_H-M "C 2/C"
_symmetry_group_IT_number 15
_symmetry_cell_setting 'monoclinic'
loop_
_space_group_symop_operation_xyz
x,y,z
-x,y,1/2-z
-x,-y,-z
x,-y,1/2+z
1/2+x,1/2+y,z
1/2-x,1/2+y,1/2-z
1/2-x,1/2-y,-z
1/2+x,1/2-y,1/2+z
loop_
_atom_site_type_symbol
_atom_site_label
_atom_site_fract_x
_atom_site_fract_y
_atom_site_fract_z
Si Si1 0.616046 0.409676 0.315086
Si Si2 0.500000 0.074669 0.250000
Si Si3 0.500000 0.719642 0.250000
Si Si4 0.400416 0.151076 0.823249
Si Si5 0.839313 0.855066 0.642093
Si Si6 0.500000 0.779670 0.750000
Si Si7 0.302249 0.972941 0.732007
O O1 0.500000 0.428558 0.250000
O O2 0.625526 0.391361 0.028020
O O3 0.710830 0.440995 0.518813
O O4 0.628747 0.369601 0.524866
O O5 0.574027 0.106082 0.513120
O O6 0.580853 0.046941 0.175742
O O7 0.600438 0.688298 0.342430
O O8 0.519622 0.749532 0.525635
O O9 0.500000 0.159577 0.750000
O O10 0.287838 0.149630 0.539762
O O11 0.405249 0.187904 0.050268
O O12 0.291834 0.013522 0.525469
#
# Coordination Sequence:
#
# PCOD9305387 Si02
#       7
#     8   4   4   8   8   4   8
#     4  12  24  47  72 103 137 179 239 286 337 422
#     4  11  24  44  72  97 144 188 234 277 332 432
#     4  12  24  46  70 103 140 182 230 295 340 402
#     4  11  25  46  72 102 140 192 231 280 345 412
#     4  12  25  44  76 102 133 187 237 283 339 412
#     4  11  26  46  64 108 148 174 230 286 356 402
#     4  12  27  44  69 107 140 179 226 290 354 400
#
# _framework density 22.250955000000001
#
# number of rings (size 3 to 8) (size 9 to 14) (size 15 to 20)
#    0.000    0.364    4.545    3.818    5.091    2.182 
#    0.000    0.000    0.000    0.000    0.000    0.000 
#    0.000    0.000    0.000    0.000    0.000    0.000 
#
# Total GULP energy -123229.038340 kJ/mol
# GULP energy per Si atom -5601.319925 kJ/mol
# Density = 2.220031 g / cm^3
# Si number density = 22.250955 Si / 1000 Ang^3
#
#
#
# Elastic Constant Matrix: (Units=GPa)
#
#
# Indices 1 2 3 4 5 6 
#
# 1 102.7936 13.9934 17.7059 0.0000 22.1825 0.0000
# 2 13.9934 77.2558 6.3755 0.0000 -2.1785 0.0000
# 3 17.7059 6.3755 70.5601 0.0000 -0.0734 0.0000
# 4 0.0000 0.0000 0.0000 -76.7034 0.0000 -61.0132
# 5 22.1825 -2.1785 -0.0734 0.0000 42.6760 0.0000
# 6 0.0000 0.0000 0.0000 -61.0132 0.0000 -7.4585
#
#
#
# Elastic Compliance Matrix: (Units=1/GPa)
#
#
# Indices 1 2 3 4 5 6 
#
# 1 0.011847 -0.002092 -0.002790 0.000000 -0.006269 0.000000
# 2 -0.002092 0.013430 -0.000687 0.000000 0.001772 0.000000
# 3 -0.002790 -0.000687 0.014936 0.000000 0.001441 0.000000
# 4 0.000000 0.000000 0.000000 0.002367 0.000000 -0.019366
# 5 -0.006269 0.001772 0.001441 0.000000 0.026784 0.000000
# 6 0.000000 0.000000 0.000000 -0.019366 0.000000 0.024346
#
#
# Mechanical properties :
#
#
# Convention : Reuss Voigt Hill
#
# Bulk Modulus (GPa) = 34.39488 36.30655 35.35071
# Shear Modulus (GPa) = 43.65315 5.87181 24.76248
#
# Velocity S-wave (km/s) = 4.43409 1.62623 3.33959
# Velocity P-wave (km/s) = 6.45803 4.45852 5.54908
#
# Compressibility (1/GPa) = 0.02907409
#
# Stress axis : x y z
#
# Youngs Moduli (GPa) = 84.41278 74.46231 66.95235
#
# Poissons Ratio (x) = 0.15580 0.18681
# Poissons Ratio (y) = 0.17662 0.04597
# Poissons Ratio (z) = 0.23553 0.05112
#
# Static dielectric constant tensor:
#      x y z
#    x 1.821780 0.000000 -0.026390 
#    y 0.000000 1.802440 0.000000 
#    z -0.026390 0.000000 1.799920 
# 
# From -- ./inp_files/8333.got.cif
#   From: 2010.05.17/outbox.cif.g08.bks.cpg/sg15_5_cif.got.tgz:8333.got - 2010.06.03 18:47:42.
