data_PCOD9305478
_publ_section_title
;
Structure prediction by ZEFSAII (Michael W. Deem and Ramdas Pophale) SiO2 
 PCOD9305478
Probable space group: C 2/C
;
_chemical_formula_sum "Si O2"
_cell_formula_units_Z 48
_cell_length_a 9.073912
_cell_length_b 15.537384
_cell_length_c 27.401600
_cell_angle_alpha 90.000000
_cell_angle_beta 37.223536
_cell_angle_gamma 90.000000
_cell_volume 2336.957555
_symmetry_space_group_name_H-M "C 2/C"
_symmetry_group_IT_number 15
_symmetry_cell_setting 'monoclinic'
loop_
_space_group_symop_operation_xyz
x,y,z
-x,y,1/2-z
-x,-y,-z
x,-y,1/2+z
1/2+x,1/2+y,z
1/2-x,1/2+y,1/2-z
1/2-x,1/2-y,-z
1/2+x,1/2-y,1/2+z
loop_
_atom_site_type_symbol
_atom_site_label
_atom_site_fract_x
_atom_site_fract_y
_atom_site_fract_z
Si Si1 0.337244 0.175707 0.424413
Si Si2 0.767274 0.931151 0.790914
Si Si3 0.563044 0.047438 0.931305
Si Si4 0.708527 0.530656 0.323034
Si Si5 0.882806 0.129919 0.921291
Si Si6 0.395774 0.660117 0.468730
O O1 0.534380 0.126215 0.340906
O O2 0.305225 0.125864 0.483899
O O3 0.447406 0.269535 0.405788
O O4 0.075151 0.174193 0.467399
O O5 0.844576 0.973718 0.720361
O O6 0.000000 0.880070 0.750000
O O7 0.688418 0.995624 0.854590
O O8 0.751212 0.116793 0.904068
O O9 0.321791 0.090486 0.972440
O O10 0.500000 0.000000 0.000000
O O11 0.585065 0.443237 0.376390
O O12 0.575121 0.615095 0.380969
O O13 0.000000 0.530832 0.250000
O O14 0.250000 0.750000 0.500000
#
# Coordination Sequence:
#
# PCOD9305478 Si02
#       6
#     8   8   8   8   8   8
#     4  11  25  43  70 104 135 181 237 293 342 419
#     4  12  24  42  69  98 137 184 225 293 354 404
#     4  12  22  43  71  97 133 185 237 276 346 433
#     4  12  26  44  67 103 143 181 231 297 353 413
#     4  11  24  45  69  98 140 180 234 285 350 424
#     4  12  25  44  71 101 139 189 236 287 348 423
#
# _framework density 20.539524
#
# number of rings (size 3 to 8) (size 9 to 14) (size 15 to 20)
#    0.000    0.333    8.333    0.000    2.333    2.000 
#    3.000    2.500    0.000    0.000    0.000    0.000 
#    0.000    0.000    0.000    0.000    0.000    0.000 
#
# Total GULP energy -133686.691886 kJ/mol
# GULP energy per Si atom -5570.278829 kJ/mol
# Density = 2.049278 g / cm^3
# Si number density = 20.539524 Si / 1000 Ang^3
#
#
#
# Elastic Constant Matrix: (Units=GPa)
#
#
# Indices 1 2 3 4 5 6 
#
# 1 103.1303 30.3503 23.8169 0.0014 -15.2800 -0.0015
# 2 30.3503 98.9079 55.3812 0.0016 1.8940 -0.0008
# 3 23.8169 55.3812 86.5729 0.0019 0.8094 -0.0011
# 4 0.0014 0.0016 0.0019 22.4937 -0.0010 -2.1220
# 5 -15.2800 1.8940 0.8094 -0.0010 48.5043 0.0011
# 6 -0.0015 -0.0008 -0.0011 -2.1220 0.0011 26.7306
#
#
#
# Elastic Compliance Matrix: (Units=1/GPa)
#
#
# Indices 1 2 3 4 5 6 
#
# 1 0.011388 -0.002792 -0.001382 0.000000 0.003720 0.000000
# 2 -0.002792 0.016447 -0.009741 0.000000 -0.001359 0.000000
# 3 -0.001382 -0.009741 0.018165 -0.000001 -0.000358 0.000000
# 4 0.000000 0.000000 -0.000001 0.044792 0.000001 0.003556
# 5 0.003720 -0.001359 -0.000358 0.000001 0.021848 -0.000001
# 6 0.000000 0.000000 0.000000 0.003556 -0.000001 0.037693
#
#
# Mechanical properties :
#
#
# Convention : Reuss Voigt Hill
#
# Bulk Modulus (GPa) = 55.02853 56.41199 55.72026
# Shear Modulus (GPa) = 27.14153 31.48326 29.31239
#
# Velocity S-wave (km/s) = 3.63909 3.91936 3.78182
# Velocity P-wave (km/s) = 6.67136 6.92868 6.80123
#
# Compressibility (1/GPa) = 0.01817239
#
# Stress axis : x y z
#
# Youngs Moduli (GPa) = 87.80883 60.80060 55.04949
#
# Poissons Ratio (x) = 0.16977 0.07606
# Poissons Ratio (y) = 0.24518 0.53621
# Poissons Ratio (z) = 0.12132 0.59223
#
# Static dielectric constant tensor:
#      x y z
#    x 1.784430 -0.000010 0.009110 
#    y -0.000010 1.831000 -0.000010 
#    z 0.009110 -0.000010 1.744220 
# 
# From -- ./inp_files/289006.got.cif
#   From: 2010.05.17/outbox.cif.g08.bks.cpg/sg15_145_cif.got.tgz:289006.got - 2010.06.03 18:47:42.
