data_PCOD9305543
_publ_section_title
;
Structure prediction by ZEFSAII (Michael W. Deem and Ramdas Pophale) SiO2 
 PCOD9305543
Probable space group: C 2/C
;
_chemical_formula_sum "Si O2"
_cell_formula_units_Z 44
_cell_length_a 14.127669
_cell_length_b 5.038176
_cell_length_c 25.348414
_cell_angle_alpha 90.000000
_cell_angle_beta 99.408647
_cell_angle_gamma 90.000000
_cell_volume 1779.969819
_symmetry_space_group_name_H-M "C 2/C"
_symmetry_group_IT_number 15
_symmetry_cell_setting 'monoclinic'
loop_
_space_group_symop_operation_xyz
x,y,z
-x,y,1/2-z
-x,-y,-z
x,-y,1/2+z
1/2+x,1/2+y,z
1/2-x,1/2+y,1/2-z
1/2-x,1/2-y,-z
1/2+x,1/2-y,1/2+z
loop_
_atom_site_type_symbol
_atom_site_label
_atom_site_fract_x
_atom_site_fract_y
_atom_site_fract_z
Si Si1 0.233532 0.790717 0.869956
Si Si2 0.402617 0.798164 0.632872
Si Si3 0.500000 0.635049 0.750000
Si Si4 0.453193 0.215532 0.016606
Si Si5 0.654258 0.331544 0.021341
Si Si6 0.202680 0.975587 0.230766
O O1 0.149459 0.579437 0.873475
O O2 0.320676 0.736827 0.916765
O O3 0.277989 0.706629 0.818254
O O4 0.178614 0.068484 0.871908
O O5 0.465599 0.782356 0.692806
O O6 0.456903 0.772277 0.581465
O O7 0.405953 0.477966 0.760708
O O8 0.570373 0.101013 0.001287
O O9 0.500000 0.500000 0.000000
O O10 0.351568 0.352651 0.989310
O O11 0.750000 0.250000 0.000000
O O12 0.249486 0.759481 0.274900
#
# Coordination Sequence:
#
# PCOD9305543 Si02
#       6
#     8   8   4   8   8   8
#     4  12  25  48  73 110 147 199 247 317 381 464
#     4  12  27  46  77 107 150 198 257 309 392 456
#     4  12  26  50  78 106 152 202 248 330 378 452
#     4  11  26  46  72 113 144 202 258 312 385 472
#     4  11  24  45  74 101 151 193 246 313 384 450
#     4  12  25  48  72 107 146 192 253 308 381 456
#
# _framework density 24.719521
#
# number of rings (size 3 to 8) (size 9 to 14) (size 15 to 20)
#    0.000    0.364    5.455    2.182    5.091    4.364 
#    3.273    0.000    0.000    0.000    0.000    0.000 
#    0.000    0.000    0.000    0.000    0.000    0.000 
#
# Total GULP energy -122594.797390 kJ/mol
# GULP energy per Si atom -5572.490790 kJ/mol
# Density = 2.466326 g / cm^3
# Si number density = 24.719521 Si / 1000 Ang^3
#
#
#
# Elastic Constant Matrix: (Units=GPa)
#
#
# Indices 1 2 3 4 5 6 
#
# 1 145.6773 66.1447 22.4501 0.0000 -19.8776 0.0000
# 2 66.1447 197.9182 48.7672 0.0000 4.3378 0.0000
# 3 22.4501 48.7672 160.2765 0.0000 -14.7872 0.0000
# 4 0.0000 0.0000 0.0000 22.1964 0.0000 -9.5363
# 5 -19.8776 4.3378 -14.7872 0.0000 53.1087 0.0000
# 6 0.0000 0.0000 0.0000 -9.5363 0.0000 45.9934
#
#
#
# Elastic Compliance Matrix: (Units=1/GPa)
#
#
# Indices 1 2 3 4 5 6 
#
# 1 0.008696 -0.002986 0.000014 0.000000 0.003503 0.000000
# 2 -0.002986 0.006533 -0.001767 0.000000 -0.002143 0.000000
# 3 0.000014 -0.001767 0.006968 0.000000 0.002090 0.000000
# 4 0.000000 0.000000 0.000000 0.049458 0.000000 0.010255
# 5 0.003503 -0.002143 0.002090 0.000000 0.020897 0.000000
# 6 0.000000 0.000000 0.000000 0.010255 0.000000 0.023868
#
#
# Mechanical properties :
#
#
# Convention : Reuss Voigt Hill
#
# Bulk Modulus (GPa) = 78.63347 86.51066 82.57206
# Shear Modulus (GPa) = 38.42017 48.69372 43.55695
#
# Velocity S-wave (km/s) = 3.94667 4.44311 4.20223
# Velocity P-wave (km/s) = 7.25586 7.83547 7.55123
#
# Compressibility (1/GPa) = 0.01271723
#
# Stress axis : x y z
#
# Youngs Moduli (GPa) = 114.99135 153.06638 143.51737
#
# Poissons Ratio (x) = 0.45713 -0.00197
# Poissons Ratio (y) = 0.34342 0.25363
# Poissons Ratio (z) = -0.00158 0.27051
#
# Static dielectric constant tensor:
#      x y z
#    x 1.200570 0.000000 0.186570 
#    y 0.000000 1.847130 0.000000 
#    z 0.186570 0.000000 2.122140 
# 
# From -- ./inp_files/309452.got.cif
#   From: 2010.05.17/outbox.cif.g08.bks.cpg/sg15_155_cif.got.tgz:309452.got - 2010.06.03 18:47:42.
