data_PCOD9305408
_publ_section_title
;
Structure prediction by ZEFSAII (Michael W. Deem and Ramdas Pophale) SiO2 
 PCOD9305408
Probable space group: C 2/C
;
_chemical_formula_sum "Si O2"
_cell_formula_units_Z 48
_cell_length_a 14.745811
_cell_length_b 9.510435
_cell_length_c 26.642955
_cell_angle_alpha 90.000000
_cell_angle_beta 38.781003
_cell_angle_gamma 90.000000
_cell_volume 2340.266490
_symmetry_space_group_name_H-M "C 2/C"
_symmetry_group_IT_number 15
_symmetry_cell_setting 'monoclinic'
loop_
_space_group_symop_operation_xyz
x,y,z
-x,y,1/2-z
-x,-y,-z
x,-y,1/2+z
1/2+x,1/2+y,z
1/2-x,1/2+y,1/2-z
1/2-x,1/2-y,-z
1/2+x,1/2-y,1/2+z
loop_
_atom_site_type_symbol
_atom_site_label
_atom_site_fract_x
_atom_site_fract_y
_atom_site_fract_z
Si Si1 0.915573 0.478203 0.339273
Si Si2 0.616083 0.599660 0.924049
Si Si3 0.097413 0.808641 0.157273
Si Si4 0.436671 0.846166 0.032886
Si Si5 0.896022 0.694601 0.664404
Si Si6 0.623971 0.516311 0.806585
O O1 0.759295 0.412322 0.395539
O O2 0.910454 0.644061 0.354599
O O3 0.000000 0.467827 0.250000
O O4 0.995359 0.392293 0.347833
O O5 0.649776 0.547058 0.853955
O O6 0.500000 0.500000 0.000000
O O7 0.537968 0.748753 0.955099
O O8 0.266688 0.839593 0.092995
O O9 0.000000 0.822760 0.250000
O O10 0.025039 0.914926 0.148716
O O11 0.451539 0.790746 0.083669
O O12 0.500000 0.000000 0.000000
O O13 0.750281 0.601832 0.724203
O O14 0.869962 0.847722 0.700274
#
# Coordination Sequence:
#
# PCOD9305408 Si02
#       6
#     8   8   8   8   8   8
#     4  11  24  44  74 102 137 190 237 282 350 421
#     4  12  25  49  69 101 148 184 223 290 360 408
#     4  11  24  46  73 102 141 185 236 285 346 423
#     4  12  29  47  71 107 147 181 232 298 351 411
#     4  12  26  46  72 107 138 187 238 285 347 423
#     4  12  26  44  75 102 141 187 238 286 347 422
#
# _framework density 20.510484000000002
#
# number of rings (size 3 to 8) (size 9 to 14) (size 15 to 20)
#    0.000    0.333    6.667    1.000    7.000    3.333 
#    0.000    0.000    0.000    0.000    0.000    0.000 
#    0.000    0.000    0.000    0.000    0.000    0.000 
#
# Total GULP energy -134237.091321 kJ/mol
# GULP energy per Si atom -5593.212138 kJ/mol
# Density = 2.046380 g / cm^3
# Si number density = 20.510484 Si / 1000 Ang^3
#
#
#
# Elastic Constant Matrix: (Units=GPa)
#
#
# Indices 1 2 3 4 5 6 
#
# 1 133.5295 46.6505 8.7393 0.0000 -32.3342 0.0000
# 2 46.6505 148.6697 19.3884 0.0000 -31.2286 0.0001
# 3 8.7393 19.3884 46.1148 0.0000 -24.7479 0.0000
# 4 0.0000 0.0000 0.0000 27.7522 0.0000 -0.7586
# 5 -32.3342 -31.2286 -24.7479 0.0000 42.6097 0.0000
# 6 0.0000 0.0001 0.0000 -0.7586 0.0000 29.8894
#
#
#
# Elastic Compliance Matrix: (Units=1/GPa)
#
#
# Indices 1 2 3 4 5 6 
#
# 1 0.009854 -0.001830 0.003189 0.000000 0.007989 0.000000
# 2 -0.001830 0.008293 -0.000906 0.000000 0.004163 0.000000
# 3 0.003189 -0.000906 0.032549 0.000000 0.020661 0.000000
# 4 0.000000 0.000000 0.000000 0.036058 0.000000 0.000915
# 5 0.007989 0.004163 0.020661 0.000000 0.044583 0.000000
# 6 0.000000 0.000000 0.000000 0.000915 0.000000 0.033480
#
#
# Mechanical properties :
#
#
# Convention : Reuss Voigt Hill
#
# Bulk Modulus (GPa) = 19.37832 53.09671 36.23752
# Shear Modulus (GPa) = 27.60732 36.95265 32.27998
#
# Velocity S-wave (km/s) = 3.67278 4.24919 3.97145
# Velocity P-wave (km/s) = 5.23968 7.07233 6.22383
#
# Compressibility (1/GPa) = 0.05160405
#
# Stress axis : x y z
#
# Youngs Moduli (GPa) = 101.48102 120.58117 30.72250
#
# Poissons Ratio (x) = 0.22065 -0.09798
# Poissons Ratio (y) = 0.18570 0.02782
# Poissons Ratio (z) = -0.32364 0.10920
#
# Static dielectric constant tensor:
#      x y z
#    x 1.676380 0.000000 0.036180 
#    y 0.000000 2.153200 0.000000 
#    z 0.036180 0.000000 1.685570 
# 
# From -- ./inp_files/295399.got.cif
#   From: 2010.05.17/outbox.cif.g08.bks.cpg/sg15_148_cif.got.tgz:295399.got - 2010.06.03 18:47:42.
