data_PCOD9305180
_publ_section_title
;
Structure prediction by ZEFSAII (Michael W. Deem and Ramdas Pophale) SiO2 
 PCOD9305180
Probable space group: C 2/C
;
_chemical_formula_sum "Si O2"
_cell_formula_units_Z 48
_cell_length_a 9.419116
_cell_length_b 17.975493
_cell_length_c 18.729375
_cell_angle_alpha 90.000000
_cell_angle_beta 132.557134
_cell_angle_gamma 90.000000
_cell_volume 2335.865831
_symmetry_space_group_name_H-M "C 2/C"
_symmetry_group_IT_number 15
_symmetry_cell_setting 'monoclinic'
loop_
_space_group_symop_operation_xyz
x,y,z
-x,y,1/2-z
-x,-y,-z
x,-y,1/2+z
1/2+x,1/2+y,z
1/2-x,1/2+y,1/2-z
1/2-x,1/2-y,-z
1/2+x,1/2-y,1/2+z
loop_
_atom_site_type_symbol
_atom_site_label
_atom_site_fract_x
_atom_site_fract_y
_atom_site_fract_z
Si Si1 0.401991 0.817682 0.055697
Si Si2 0.131114 0.958722 0.940292
Si Si3 0.692977 0.586820 0.065401
Si Si4 0.500000 0.164987 0.250000
Si Si5 0.207737 0.762656 0.747864
Si Si6 0.500000 0.599239 0.250000
Si Si7 0.548759 0.741632 0.972872
O O1 0.543761 0.796139 0.169489
O O2 0.250000 0.750000 0.000000
O O3 0.282572 0.894074 0.015436
O O4 0.518728 0.805872 0.021414
O O5 0.105888 0.949393 0.846565
O O6 0.920466 0.950879 0.907019
O O7 0.200043 0.035947 0.997928
O O8 0.906209 0.613147 0.158406
O O9 0.566635 0.660371 0.012106
O O10 0.669338 0.216874 0.279763
O O11 0.123136 0.841222 0.746039
O O12 0.363071 0.739210 0.859030
O O13 0.750000 0.750000 0.000000
#
# Coordination Sequence:
#
# PCOD9305180 Si02
#       7
#     8   8   8   4   8   4   8
#     4  12  20  41  64 100 126 167 227 276 321 396
#     4  11  24  43  67  97 138 174 224 281 339 406
#     4  11  24  44  65  96 140 178 215 279 349 410
#     4  12  20  44  66  92 128 188 212 266 358 406
#     4  12  22  36  69  98 127 168 230 277 330 394
#     4  12  20  40  68  96 124 178 220 284 334 390
#     4  12  22  39  67  96 129 170 222 276 328 392
#
# _framework density 20.549126000000001
#
# number of rings (size 3 to 8) (size 9 to 14) (size 15 to 20)
#    0.000    0.333   10.000    0.000    0.000    0.000 
#    6.000    5.833    0.000    0.000    0.000    0.000 
#    0.000    0.000    0.000    0.000    0.000    0.000 
#
# Total GULP energy -133925.596995 kJ/mol
# GULP energy per Si atom -5580.233208 kJ/mol
# Density = 2.050236 g / cm^3
# Si number density = 20.549126 Si / 1000 Ang^3
#
#
#
# Elastic Constant Matrix: (Units=GPa)
#
#
# Indices 1 2 3 4 5 6 
#
# 1 79.3661 -2.2486 -2.5052 0.0000 -0.1266 0.0000
# 2 -2.2486 57.5999 35.1543 0.0000 -0.3674 0.0000
# 3 -2.5052 35.1543 167.0563 0.0000 2.9674 0.0000
# 4 0.0000 0.0000 0.0000 -48.5617 0.0000 25.0171
# 5 -0.1266 -0.3674 2.9674 0.0000 30.5121 0.0000
# 6 0.0000 0.0000 0.0000 25.0171 0.0000 17.8608
#
#
#
# Elastic Compliance Matrix: (Units=1/GPa)
#
#
# Indices 1 2 3 4 5 6 
#
# 1 0.012615 0.000434 0.000097 0.000000 0.000048 0.000000
# 2 0.000434 0.019947 -0.004203 0.000000 0.000651 0.000000
# 3 0.000097 -0.004203 0.006885 0.000000 -0.000720 0.000000
# 4 0.000000 0.000000 0.000000 -0.011961 0.000000 0.016754
# 5 0.000048 0.000651 -0.000720 0.000000 0.032852 0.000000
# 6 0.000000 0.000000 0.000000 0.016754 0.000000 0.032522
#
#
# Mechanical properties :
#
#
# Convention : Reuss Voigt Hill
#
# Bulk Modulus (GPa) = 31.14968 40.53590 35.84279
# Shear Modulus (GPa) = 45.08388 18.20369 31.64379
#
# Velocity S-wave (km/s) = 4.68905 2.97957 3.92842
# Velocity P-wave (km/s) = 6.67142 5.62195 6.16904
#
# Compressibility (1/GPa) = 0.03210306
#
# Stress axis : x y z
#
# Youngs Moduli (GPa) = 79.26908 50.13246 145.25132
#
# Poissons Ratio (x) = -0.02173 -0.01410
# Poissons Ratio (y) = -0.03436 0.61043
# Poissons Ratio (z) = -0.00770 0.21069
#
# Static dielectric constant tensor:
#      x y z
#    x 1.826720 0.000000 -0.042920 
#    y 0.000000 1.751800 0.000000 
#    z -0.042920 0.000000 1.815190 
# 
# From -- ./inp_files/192332.got.cif
#   From: 2010.05.17/outbox.cif.g08.bks.cpg/sg15_97_cif.got.tgz:192332.got - 2010.06.03 18:47:42.
