data_PCOD9305939
_publ_section_title
;
Structure prediction by ZEFSAII (Michael W. Deem and Ramdas Pophale) SiO2 
 PCOD9305939
Probable space group: C 2/C
;
_chemical_formula_sum "Si O2"
_cell_formula_units_Z 32
_cell_length_a 15.563093
_cell_length_b 7.293865
_cell_length_c 24.229521
_cell_angle_alpha 90.000000
_cell_angle_beta 28.862421
_cell_angle_gamma 90.000000
_cell_volume 1327.648265
_symmetry_space_group_name_H-M "C 2/C"
_symmetry_group_IT_number 15
_symmetry_cell_setting 'monoclinic'
loop_
_space_group_symop_operation_xyz
x,y,z
-x,y,1/2-z
-x,-y,-z
x,-y,1/2+z
1/2+x,1/2+y,z
1/2-x,1/2+y,1/2-z
1/2-x,1/2-y,-z
1/2+x,1/2-y,1/2+z
loop_
_atom_site_type_symbol
_atom_site_label
_atom_site_fract_x
_atom_site_fract_y
_atom_site_fract_z
Si Si1 0.400015 0.666319 0.092480
Si Si2 0.302874 0.831838 0.029603
Si Si3 0.687041 0.739178 0.812311
Si Si4 0.307690 0.300224 0.856504
O O1 0.313349 0.712372 0.081077
O O2 0.365906 0.459361 0.132744
O O3 0.293525 0.781499 0.196970
O O4 0.611939 0.711459 0.978279
O O5 0.195725 0.015404 0.105097
O O6 0.250000 0.750000 0.000000
O O7 0.512141 0.860168 0.902499
O O8 0.797491 0.839684 0.797373
O O9 0.500000 0.199465 0.750000
#
# Coordination Sequence:
#
# PCOD9305939 Si02
#       4
#     8   8   8   8
#     4  11  24  49  74 102 143 192 239 295 362 421
#     4  11  25  43  72 103 143 185 237 294 355 431
#     4  11  24  49  74 102 145 189 241 297 355 431
#     4  11  25  46  71 107 144 185 239 293 360 426
#
# _framework density 24.102771000000001
#
# number of rings (size 3 to 8) (size 9 to 14) (size 15 to 20)
#    0.000    1.000    0.000    9.000    7.000    1.000 
#   13.500    1.250    0.000    0.000    0.000    0.000 
#    0.000    0.000    0.000    0.000    0.000    0.000 
#
# Total GULP energy -89145.635575 kJ/mol
# GULP energy per Si atom -5571.602223 kJ/mol
# Density = 2.404791 g / cm^3
# Si number density = 24.102771 Si / 1000 Ang^3
#
#
#
# Elastic Constant Matrix: (Units=GPa)
#
#
# Indices 1 2 3 4 5 6 
#
# 1 142.4579 10.7871 78.8305 -0.0001 24.5271 0.0001
# 2 10.7871 103.8376 38.7140 0.0000 25.5250 0.0001
# 3 78.8305 38.7140 142.4374 -0.0008 20.2407 -0.0001
# 4 -0.0001 0.0000 -0.0008 42.5597 0.0000 8.1955
# 5 24.5271 25.5250 20.2407 0.0000 49.4104 0.0000
# 6 0.0001 0.0001 -0.0001 8.1955 0.0000 23.1559
#
#
#
# Elastic Compliance Matrix: (Units=1/GPa)
#
#
# Indices 1 2 3 4 5 6 
#
# 1 0.010887 0.002105 -0.006026 0.000000 -0.004023 0.000000
# 2 0.002105 0.012213 -0.003652 0.000000 -0.005858 0.000000
# 3 -0.006026 -0.003652 0.011314 0.000000 0.000243 0.000000
# 4 0.000000 0.000000 0.000000 0.025215 0.000000 -0.008924
# 5 -0.004023 -0.005858 0.000243 0.000000 0.025162 0.000000
# 6 0.000000 0.000000 0.000000 -0.008924 0.000000 0.046344
#
#
# Mechanical properties :
#
#
# Convention : Reuss Voigt Hill
#
# Bulk Modulus (GPa) = 51.89937 71.71067 61.80502
# Shear Modulus (GPa) = 32.74299 40.38531 36.56415
#
# Velocity S-wave (km/s) = 3.68975 4.09778 3.89911
# Velocity P-wave (km/s) = 6.30330 7.22535 6.78002
#
# Compressibility (1/GPa) = 0.01926806
#
# Stress axis : x y z
#
# Youngs Moduli (GPa) = 91.84955 81.87783 88.38957
#
# Poissons Ratio (x) = -0.17232 0.53262
# Poissons Ratio (y) = -0.19330 0.32279
# Poissons Ratio (z) = 0.55347 0.29901
#
# Static dielectric constant tensor:
#      x y z
#    x 2.052460 0.000000 -0.022650 
#    y 0.000000 2.048670 0.000000 
#    z -0.022650 0.000000 1.989800 
# 
# From -- ./inp_files/272478.got.cif
#   From: 2010.05.17/outbox.cif.g08.bks.cpg/sg15_137_cif.got.tgz:272478.got - 2010.06.03 18:47:42.
