data_PCOD9305737
_publ_section_title
;
Structure prediction by ZEFSAII (Michael W. Deem and Ramdas Pophale) SiO2 
 PCOD9305737
Probable space group: C 2/C
;
_chemical_formula_sum "Si O2"
_cell_formula_units_Z 20
_cell_length_a 22.253732
_cell_length_b 7.543809
_cell_length_c 6.142178
_cell_angle_alpha 90.000000
_cell_angle_beta 125.840762
_cell_angle_gamma 90.000000
_cell_volume 835.887749
_symmetry_space_group_name_H-M "C 2/C"
_symmetry_group_IT_number 15
_symmetry_cell_setting 'monoclinic'
loop_
_space_group_symop_operation_xyz
x,y,z
-x,y,1/2-z
-x,-y,-z
x,-y,1/2+z
1/2+x,1/2+y,z
1/2-x,1/2+y,1/2-z
1/2-x,1/2-y,-z
1/2+x,1/2-y,1/2+z
loop_
_atom_site_type_symbol
_atom_site_label
_atom_site_fract_x
_atom_site_fract_y
_atom_site_fract_z
Si Si1 0.211905 0.861813 0.230055
Si Si2 0.000000 0.586883 0.250000
Si Si3 0.649256 0.250737 0.702787
O O1 0.250000 0.750000 0.500000
O O2 0.283819 0.877349 0.226248
O O3 0.173548 0.047157 0.201596
O O4 0.150160 0.749357 0.966929
O O5 0.075024 0.700802 0.424688
O O6 0.000000 0.500000 0.500000
#
# Coordination Sequence:
#
# PCOD9305737 Si02
#       3
#     8   4   8
#     4  11  24  46  78 114 150 200 269 318 389 473
#     4  12  34  54  78 118 164 208 266 332 396 466
#     4  11  27  46  78 110 159 205 260 329 392 463
#
# _framework density 23.926658
#
# number of rings (size 3 to 8) (size 9 to 14) (size 15 to 20)
#    0.000    0.800    4.000    0.000   16.800    1.600 
#    0.000    0.000    0.000    0.000    0.000    0.000 
#    0.000    0.000    0.000    0.000    0.000    0.000 
#
# Total GULP energy -55756.236546 kJ/mol
# GULP energy per Si atom -5575.623655 kJ/mol
# Density = 2.387220 g / cm^3
# Si number density = 23.926658 Si / 1000 Ang^3
#
#
#
# Elastic Constant Matrix: (Units=GPa)
#
#
# Indices 1 2 3 4 5 6 
#
# 1 54.9256 40.1363 68.7440 0.0000 8.6680 0.0000
# 2 40.1363 143.1080 106.3686 0.0000 1.8888 0.0000
# 3 68.7440 106.3686 286.9473 0.0000 28.8571 0.0000
# 4 0.0000 0.0000 0.0000 54.2184 0.0000 3.7589
# 5 8.6680 1.8888 28.8571 0.0000 58.4076 0.0000
# 6 0.0000 0.0000 0.0000 3.7589 0.0000 37.0845
#
#
#
# Elastic Compliance Matrix: (Units=1/GPa)
#
#
# Indices 1 2 3 4 5 6 
#
# 1 0.027608 -0.004031 -0.004968 0.000000 -0.001512 0.000000
# 2 -0.004031 0.010365 -0.003055 0.000000 0.001772 0.000000
# 3 -0.004968 -0.003055 0.006023 0.000000 -0.002140 0.000000
# 4 0.000000 0.000000 0.000000 0.018574 0.000000 -0.001883
# 5 -0.001512 0.001772 -0.002140 0.000000 0.018345 0.000000
# 6 0.000000 0.000000 0.000000 -0.001883 0.000000 0.027156
#
#
# Mechanical properties :
#
#
# Convention : Reuss Voigt Hill
#
# Bulk Modulus (GPa) = 50.27791 101.71987 75.99889
# Shear Modulus (GPa) = 36.02067 47.92425 41.97246
#
# Velocity S-wave (km/s) = 3.88424 4.48030 4.19288
# Velocity P-wave (km/s) = 6.41680 8.32884 7.43455
#
# Compressibility (1/GPa) = 0.01988945
#
# Stress axis : x y z
#
# Youngs Moduli (GPa) = 36.22113 96.47413 166.03685
#
# Poissons Ratio (x) = 0.38884 0.82486
# Poissons Ratio (y) = 0.14599 0.50725
# Poissons Ratio (z) = 0.17994 0.29473
#
# Static dielectric constant tensor:
#      x y z
#    x 2.077800 0.000000 -0.261620 
#    y 0.000000 1.982710 0.000000 
#    z -0.261620 0.000000 2.203360 
# 
# From -- ./inp_files/9240.got.cif
#   From: 2010.05.17/outbox.cif.g08.bks.cpg/sg15_5_cif.got.tgz:9240.got - 2010.06.03 18:47:42.
