data_PCOD9305613
_publ_section_title
;
Structure prediction by ZEFSAII (Michael W. Deem and Ramdas Pophale) SiO2 
 PCOD9305613
Probable space group: C 2/C
;
_chemical_formula_sum "Si O2"
_cell_formula_units_Z 40
_cell_length_a 9.580643
_cell_length_b 10.325123
_cell_length_c 33.634587
_cell_angle_alpha 90.000000
_cell_angle_beta 144.242512
_cell_angle_gamma 90.000000
_cell_volume 1944.255313
_symmetry_space_group_name_H-M "C 2/C"
_symmetry_group_IT_number 15
_symmetry_cell_setting 'monoclinic'
loop_
_space_group_symop_operation_xyz
x,y,z
-x,y,1/2-z
-x,-y,-z
x,-y,1/2+z
1/2+x,1/2+y,z
1/2-x,1/2+y,1/2-z
1/2-x,1/2-y,-z
1/2+x,1/2-y,1/2+z
loop_
_atom_site_type_symbol
_atom_site_label
_atom_site_fract_x
_atom_site_fract_y
_atom_site_fract_z
Si Si1 0.735380 0.278866 0.777928
Si Si2 0.834523 0.600556 0.072186
Si Si3 0.530004 0.463778 0.209222
Si Si4 0.389246 0.924158 0.937683
Si Si5 0.695329 0.691741 0.531188
O O1 0.500000 0.249892 0.750000
O O2 0.667472 0.400906 0.735050
O O3 0.948072 0.333069 0.854590
O O4 0.827252 0.155556 0.775611
O O5 0.821497 0.443653 0.071519
O O6 0.894093 0.622616 0.039819
O O7 0.586483 0.658393 0.030325
O O8 0.500000 0.449577 0.250000
O O9 0.281624 0.485805 0.128522
O O10 0.251389 0.801914 0.924115
O O11 0.500000 0.000000 0.000000
O O12 0.750000 0.750000 0.500000
#
# Coordination Sequence:
#
# PCOD9305613 Si02
#       5
#     8   8   8   8   8
#     4  11  25  48  71 100 140 191 237 288 358 425
#     4  11  24  46  69 103 145 182 235 296 351 433
#     4  11  26  48  70 103 144 185 238 293 353 430
#     4  12  23  45  73 100 143 186 230 292 357 415
#     4  11  25  43  70 108 141 184 236 293 362 422
#
# _framework density 20.573429999999998
#
# number of rings (size 3 to 8) (size 9 to 14) (size 15 to 20)
#    0.000    0.800    6.000    1.800    2.800    0.800 
#    3.600    0.000    0.000    0.000    0.000    0.000 
#    0.000    0.000    0.000    0.000    0.000    0.000 
#
# Total GULP energy -111764.511854 kJ/mol
# GULP energy per Si atom -5588.225593 kJ/mol
# Density = 2.052660 g / cm^3
# Si number density = 20.573430 Si / 1000 Ang^3
#
#
#
# Elastic Constant Matrix: (Units=GPa)
#
#
# Indices 1 2 3 4 5 6 
#
# 1 155.4982 96.4130 66.5719 0.0000 3.3366 0.0000
# 2 96.4130 169.2448 61.0430 0.0000 -3.6218 0.0000
# 3 66.5719 61.0430 127.5684 0.0000 0.9478 0.0000
# 4 0.0000 0.0000 0.0000 21.6888 0.0000 1.4088
# 5 3.3366 -3.6218 0.9478 0.0000 30.7326 0.0000
# 6 0.0000 0.0000 0.0000 1.4088 0.0000 50.1063
#
#
#
# Elastic Compliance Matrix: (Units=1/GPa)
#
#
# Indices 1 2 3 4 5 6 
#
# 1 0.011078 -0.005157 -0.003301 0.000000 -0.001709 0.000000
# 2 -0.005157 0.009569 -0.001901 0.000000 0.001746 0.000000
# 3 -0.003301 -0.001901 0.010472 0.000000 -0.000189 0.000000
# 4 0.000000 0.000000 0.000000 0.046191 0.000000 -0.001299
# 5 -0.001709 0.001746 -0.000189 0.000000 0.032936 0.000000
# 6 0.000000 0.000000 0.000000 -0.001299 0.000000 0.019994
#
#
# Mechanical properties :
#
#
# Convention : Reuss Voigt Hill
#
# Bulk Modulus (GPa) = 96.12845 100.04080 98.08463
# Shear Modulus (GPa) = 32.37803 35.72444 34.05124
#
# Velocity S-wave (km/s) = 3.97139 4.17158 4.07271
# Velocity P-wave (km/s) = 8.23743 8.48142 8.36032
#
# Compressibility (1/GPa) = 0.01040275
#
# Stress axis : x y z
#
# Youngs Moduli (GPa) = 90.26770 104.50125 95.48842
#
# Poissons Ratio (x) = 0.53890 0.31519
# Poissons Ratio (y) = 0.46550 0.18151
# Poissons Ratio (z) = 0.29796 0.19864
#
# Static dielectric constant tensor:
#      x y z
#    x 1.736280 0.000000 0.018150 
#    y 0.000000 1.765820 0.000000 
#    z 0.018150 0.000000 1.748200 
# 
# From -- ./inp_files/307350.got.cif
#   From: 2010.05.17/outbox.cif.g08.bks.cpg/sg15_154_cif.got.tgz:307350.got - 2010.06.03 18:47:42.
