data_PCOD9305826
_publ_section_title
;
Structure prediction by ZEFSAII (Michael W. Deem and Ramdas Pophale) SiO2 
 PCOD9305826
Probable space group: C 2/C
;
_chemical_formula_sum "Si O2"
_cell_formula_units_Z 44
_cell_length_a 15.123902
_cell_length_b 8.803137
_cell_length_c 19.400363
_cell_angle_alpha 90.000000
_cell_angle_beta 131.838987
_cell_angle_gamma 90.000000
_cell_volume 1924.333916
_symmetry_space_group_name_H-M "C 2/C"
_symmetry_group_IT_number 15
_symmetry_cell_setting 'monoclinic'
loop_
_space_group_symop_operation_xyz
x,y,z
-x,y,1/2-z
-x,-y,-z
x,-y,1/2+z
1/2+x,1/2+y,z
1/2-x,1/2+y,1/2-z
1/2-x,1/2-y,-z
1/2+x,1/2-y,1/2+z
loop_
_atom_site_type_symbol
_atom_site_label
_atom_site_fract_x
_atom_site_fract_y
_atom_site_fract_z
Si Si1 0.957746 0.602714 0.042147
Si Si2 0.672160 0.154361 0.262708
Si Si3 0.130456 0.004732 0.724358
Si Si4 0.661931 0.035991 0.894985
Si Si5 0.000000 0.215586 0.250000
Si Si6 0.418436 0.554194 0.518700
O O1 0.071012 0.627260 0.151965
O O2 0.862386 0.525098 0.041844
O O3 0.901447 0.766757 0.995619
O O4 0.000000 0.500000 0.000000
O O5 0.787884 0.071460 0.291747
O O6 0.686504 0.335601 0.276015
O O7 0.638157 0.079572 0.318208
O O8 0.102760 0.883839 0.768612
O O9 0.998693 0.041119 0.628065
O O10 0.572930 0.175391 0.838939
O O11 0.803290 0.050867 0.962745
O O12 0.500000 0.500000 0.500000
#
# Coordination Sequence:
#
# PCOD9305826 Si02
#       6
#     8   8   8   8   4   8
#     4  11  27  45  72 108 145 192 239 297 370 428
#     4  11  24  47  76 101 146 194 245 297 361 435
#     4  11  27  45  73 106 145 193 243 299 367 430
#     4  12  25  48  76 104 148 192 243 300 361 433
#     4  12  28  44  76 110 142 194 244 302 356 438
#     4  11  26  46  70 106 147 187 240 301 364 429
#
# _framework density 22.865054000000001
#
# number of rings (size 3 to 8) (size 9 to 14) (size 15 to 20)
#    0.000    0.727    3.636    1.636   12.727    2.182 
#    0.000    0.000    0.000    0.000    0.000    0.000 
#    0.000    0.000    0.000    0.000    0.000    0.000 
#
# Total GULP energy -123019.600206 kJ/mol
# GULP energy per Si atom -5591.800009 kJ/mol
# Density = 2.281301 g / cm^3
# Si number density = 22.865054 Si / 1000 Ang^3
#
#
#
# Elastic Constant Matrix: (Units=GPa)
#
#
# Indices 1 2 3 4 5 6 
#
# 1 126.2193 13.4411 -3.4370 0.0000 -11.3443 0.0000
# 2 13.4411 82.6256 -4.1208 0.0000 -14.4444 0.0000
# 3 -3.4370 -4.1208 50.4292 0.0000 4.3330 0.0000
# 4 0.0000 0.0000 0.0000 21.1306 0.0000 -8.0161
# 5 -11.3443 -14.4444 4.3330 0.0000 54.7948 0.0000
# 6 0.0000 0.0000 0.0000 -8.0161 0.0000 31.0124
#
#
#
# Elastic Compliance Matrix: (Units=1/GPa)
#
#
# Indices 1 2 3 4 5 6 
#
# 1 0.008170 -0.001070 0.000351 0.000000 0.001382 0.000000
# 2 -0.001070 0.012856 0.000710 0.000000 0.003111 0.000000
# 3 0.000351 0.000710 0.020025 0.000000 -0.001324 0.000000
# 4 0.000000 0.000000 0.000000 0.052470 0.000000 0.013562
# 5 0.001382 0.003111 -0.001324 0.000000 0.019461 0.000000
# 6 0.000000 0.000000 0.000000 0.013562 0.000000 0.035751
#
#
# Mechanical properties :
#
#
# Convention : Reuss Voigt Hill
#
# Bulk Modulus (GPa) = 24.37013 30.11563 27.24288
# Shear Modulus (GPa) = 30.78256 38.28028 34.53142
#
# Velocity S-wave (km/s) = 3.67314 4.09612 3.89038
# Velocity P-wave (km/s) = 5.35450 5.96410 5.66750
#
# Compressibility (1/GPa) = 0.04103384
#
# Stress axis : x y z
#
# Youngs Moduli (GPa) = 122.39290 77.78348 49.93647
#
# Poissons Ratio (x) = 0.08323 -0.01751
# Poissons Ratio (y) = 0.13097 -0.03547
# Poissons Ratio (z) = -0.04292 -0.05525
#
# Static dielectric constant tensor:
#      x y z
#    x 1.803670 0.000000 0.040670 
#    y 0.000000 1.885550 0.000000 
#    z 0.040670 0.000000 1.928580 
# 
# From -- ./inp_files/203069.got.cif
#   From: 2010.05.17/outbox.cif.g08.bks.cpg/sg15_102_cif.got.tgz:203069.got - 2010.06.03 18:47:42.
