data_PCOD9305645
_publ_section_title
;
Structure prediction by ZEFSAII (Michael W. Deem and Ramdas Pophale) SiO2 
 PCOD9305645
Probable space group: C 2/C
;
_chemical_formula_sum "Si O2"
_cell_formula_units_Z 52
_cell_length_a 27.094716
_cell_length_b 5.129024
_cell_length_c 15.135671
_cell_angle_alpha 90.000000
_cell_angle_beta 103.597731
_cell_angle_gamma 90.000000
_cell_volume 2044.438324
_symmetry_space_group_name_H-M "C 2/C"
_symmetry_group_IT_number 15
_symmetry_cell_setting 'monoclinic'
loop_
_space_group_symop_operation_xyz
x,y,z
-x,y,1/2-z
-x,-y,-z
x,-y,1/2+z
1/2+x,1/2+y,z
1/2-x,1/2+y,1/2-z
1/2-x,1/2-y,-z
1/2+x,1/2-y,1/2+z
loop_
_atom_site_type_symbol
_atom_site_label
_atom_site_fract_x
_atom_site_fract_y
_atom_site_fract_z
Si Si1 0.846595 0.723049 0.130590
Si Si2 0.726304 0.084348 0.694660
Si Si3 0.750000 0.750000 0.000000
Si Si4 0.944438 0.597284 0.456770
Si Si5 0.362140 0.601104 0.289206
Si Si6 0.609777 0.567428 0.015718
Si Si7 0.441953 0.037166 0.758716
O O1 0.899461 0.573300 0.172631
O O2 0.838067 0.912536 0.208734
O O3 0.796031 0.587280 0.073081
O O4 0.855815 0.926736 0.054344
O O5 0.754123 0.309952 0.763028
O O6 0.730816 0.133487 0.590920
O O7 0.668940 0.133897 0.706742
O O8 0.908350 0.360715 0.472554
O O9 0.941045 0.627118 0.349448
O O10 0.000000 0.500000 0.500000
O O11 0.935013 0.859786 0.507679
O O12 0.361604 0.472582 0.385020
O O13 0.417833 0.686285 0.278635
O O14 0.500000 0.049618 0.750000
#
# Coordination Sequence:
#
# PCOD9305645 Si02
#       7
#     8   8   4   8   8   8   8
#     4  12  25  48  75 112 153 204 264 320 394 474
#     4  12  27  51  79 116 160 207 262 332 401 478
#     4  12  26  50  82 118 154 216 266 330 408 484
#     4  11  24  46  71 106 147 197 252 315 382 449
#     4  11  25  48  72 109 159 198 258 321 394 462
#     4  11  25  44  72 104 150 194 249 316 379 459
#     4  11  26  46  74 110 152 207 258 323 386 468
#
# _framework density 25.434857999999998
#
# number of rings (size 3 to 8) (size 9 to 14) (size 15 to 20)
#    0.000    0.615    4.615    2.308    4.308    1.231 
#    2.769    0.000    0.000    0.000    0.000    0.000 
#    0.000    0.000    0.000    0.000    0.000    0.000 
#
# Total GULP energy -144883.161328 kJ/mol
# GULP energy per Si atom -5572.429282 kJ/mol
# Density = 2.537697 g / cm^3
# Si number density = 25.434858 Si / 1000 Ang^3
#
#
#
# Elastic Constant Matrix: (Units=GPa)
#
#
# Indices 1 2 3 4 5 6 
#
# 1 76.3383 28.9116 24.4569 0.0000 -2.4426 0.0000
# 2 28.9116 72.1427 20.3498 0.0000 -13.6390 0.0000
# 3 24.4569 20.3498 178.1638 0.0000 -8.9922 0.0000
# 4 0.0000 0.0000 0.0000 19.8762 0.0000 4.2268
# 5 -2.4426 -13.6390 -8.9922 0.0000 59.0028 0.0000
# 6 0.0000 0.0000 0.0000 4.2268 0.0000 35.2757
#
#
#
# Elastic Compliance Matrix: (Units=1/GPa)
#
#
# Indices 1 2 3 4 5 6 
#
# 1 0.015875 -0.006118 -0.001530 0.000000 -0.000990 0.000000
# 2 -0.006118 0.017260 -0.000950 0.000000 0.003592 0.000000
# 3 -0.001530 -0.000950 0.005963 0.000000 0.000626 0.000000
# 4 0.000000 0.000000 0.000000 0.051627 0.000000 -0.006186
# 5 -0.000990 0.003592 0.000626 0.000000 0.017833 0.000000
# 6 0.000000 0.000000 0.000000 -0.006186 0.000000 0.029089
#
#
# Mechanical properties :
#
#
# Convention : Reuss Voigt Hill
#
# Bulk Modulus (GPa) = 45.65885 52.67572 49.16728
# Shear Modulus (GPa) = 30.83659 39.69269 35.26464
#
# Velocity S-wave (km/s) = 3.48570 3.95468 3.72757
# Velocity P-wave (km/s) = 5.84725 6.45040 6.15622
#
# Compressibility (1/GPa) = 0.02190156
#
# Stress axis : x y z
#
# Youngs Moduli (GPa) = 62.99163 57.93681 167.69979
#
# Poissons Ratio (x) = 0.35443 0.25665
# Poissons Ratio (y) = 0.38535 0.15938
# Poissons Ratio (z) = 0.09641 0.05506
#
# Static dielectric constant tensor:
#      x y z
#    x 2.062900 0.000000 -0.088200 
#    y 0.000000 2.071200 0.000000 
#    z -0.088200 0.000000 1.808390 
# 
# From -- ./inp_files/180150.got.cif
#   From: 2010.05.17/outbox.cif.g08.bks.cpg/sg15_91_cif.got.tgz:180150.got - 2010.06.03 18:47:42.
