data_PCOD9305715
_publ_section_title
;
Structure prediction by ZEFSAII (Michael W. Deem and Ramdas Pophale) SiO2 
 PCOD9305715
Probable space group: C 2/C
;
_chemical_formula_sum "Si O2"
_cell_formula_units_Z 32
_cell_length_a 9.150386
_cell_length_b 15.470287
_cell_length_c 13.168423
_cell_angle_alpha 90.000000
_cell_angle_beta 144.675622
_cell_angle_gamma 90.000000
_cell_volume 1077.837430
_symmetry_space_group_name_H-M "C 2/C"
_symmetry_group_IT_number 15
_symmetry_cell_setting 'monoclinic'
loop_
_space_group_symop_operation_xyz
x,y,z
-x,y,1/2-z
-x,-y,-z
x,-y,1/2+z
1/2+x,1/2+y,z
1/2-x,1/2+y,1/2-z
1/2-x,1/2-y,-z
1/2+x,1/2-y,1/2+z
loop_
_atom_site_type_symbol
_atom_site_label
_atom_site_fract_x
_atom_site_fract_y
_atom_site_fract_z
Si Si1 0.630846 0.265460 0.712538
Si Si2 0.717942 0.330995 0.551704
Si Si3 0.781397 0.010056 0.958884
Si Si4 0.452201 0.899916 0.008697
O O1 0.500000 0.253508 0.750000
O O2 0.833175 0.339914 0.855712
O O3 0.271970 0.415446 0.535713
O O4 0.649506 0.165167 0.679260
O O5 0.750000 0.250000 0.500000
O O6 0.671357 0.417250 0.461510
O O7 0.548904 0.308088 0.554984
O O8 0.000000 0.345163 0.750000
O O9 0.500000 0.016262 0.750000
O O10 0.000000 0.000000 0.000000
O O11 0.500000 0.000000 0.000000
#
# Coordination Sequence:
#
# PCOD9305715 Si02
#       4
#     8   8   8   8
#     4  12  26  48  79 119 166 221 290 362 435 523
#     4  11  24  46  75 111 158 214 275 342 420 510
#     4  11  25  49  79 115 164 222 283 353 434 523
#     4  12  27  51  81 121 173 229 288 363 446 526
#
# _framework density 29.689077999999999
#
# number of rings (size 3 to 8) (size 9 to 14) (size 15 to 20)
#    0.000    0.500    0.000    9.000    0.000    6.000 
#    0.000    6.250    0.000    0.000    0.000    0.000 
#    0.000    0.000    0.000    0.000    0.000    0.000 
#
# Total GULP energy -89112.011835 kJ/mol
# GULP energy per Si atom -5569.500740 kJ/mol
# Density = 2.962150 g / cm^3
# Si number density = 29.689078 Si / 1000 Ang^3
#
#
#
# Elastic Constant Matrix: (Units=GPa)
#
#
# Indices 1 2 3 4 5 6 
#
# 1 229.7751 81.1570 47.2216 0.0004 -3.0710 -0.0001
# 2 81.1570 252.0234 63.6434 0.0009 -30.8982 0.0002
# 3 47.2216 63.6434 108.5906 0.0044 -7.4333 0.0009
# 4 0.0004 0.0009 0.0044 39.7257 0.0010 -13.3769
# 5 -3.0710 -30.8982 -7.4333 0.0010 58.6006 -0.0003
# 6 -0.0001 0.0002 0.0009 -13.3769 -0.0003 92.6354
#
#
#
# Elastic Compliance Matrix: (Units=1/GPa)
#
#
# Indices 1 2 3 4 5 6 
#
# 1 0.005126 -0.001355 -0.001478 0.000000 -0.000633 0.000000
# 2 -0.001355 0.005294 -0.002348 0.000000 0.002423 0.000000
# 3 -0.001478 -0.002348 0.011235 -0.000001 0.000110 0.000000
# 4 0.000000 0.000000 -0.000001 0.026459 -0.000001 0.003821
# 5 -0.000633 0.002423 0.000110 -0.000001 0.018323 0.000000
# 6 0.000000 0.000000 0.000000 0.003821 0.000000 0.011347
#
#
# Mechanical properties :
#
#
# Convention : Reuss Voigt Hill
#
# Bulk Modulus (GPa) = 88.54817 108.27035 98.40926
# Shear Modulus (GPa) = 54.40066 64.75013 59.57540
#
# Velocity S-wave (km/s) = 4.28523 4.67512 4.48442
# Velocity P-wave (km/s) = 7.37389 8.10491 7.74803
#
# Compressibility (1/GPa) = 0.01129329
#
# Stress axis : x y z
#
# Youngs Moduli (GPa) = 195.08307 188.88887 89.00566
#
# Poissons Ratio (x) = 0.25595 0.13158
# Poissons Ratio (y) = 0.26434 0.20896
# Poissons Ratio (z) = 0.28839 0.44346
#
# Static dielectric constant tensor:
#      x y z
#    x 2.352460 0.000000 0.100620 
#    y 0.000000 -2.176780 0.000000 
#    z 0.100620 0.000000 2.518360 
# 
# From -- ./inp_files/237843.got.cif
#   From: 2010.05.17/outbox.cif.g08.bks.cpg/sg15_119_cif.got.tgz:237843.got - 2010.06.03 18:47:42.
