data_PCOD9305148
_publ_section_title
;
Structure prediction by ZEFSAII (Michael W. Deem and Ramdas Pophale) SiO2 
 PCOD9305148
Probable space group: C 2/C
;
_chemical_formula_sum "Si O2"
_cell_formula_units_Z 36
_cell_length_a 7.501457
_cell_length_b 12.515755
_cell_length_c 18.009089
_cell_angle_alpha 90.000000
_cell_angle_beta 117.201054
_cell_angle_gamma 90.000000
_cell_volume 1503.818543
_symmetry_space_group_name_H-M "C 2/C"
_symmetry_group_IT_number 15
_symmetry_cell_setting 'monoclinic'
loop_
_space_group_symop_operation_xyz
x,y,z
-x,y,1/2-z
-x,-y,-z
x,-y,1/2+z
1/2+x,1/2+y,z
1/2-x,1/2+y,1/2-z
1/2-x,1/2-y,-z
1/2+x,1/2-y,1/2+z
loop_
_atom_site_type_symbol
_atom_site_label
_atom_site_fract_x
_atom_site_fract_y
_atom_site_fract_z
Si Si1 0.288117 0.915720 0.686266
Si Si2 0.045024 0.162578 0.996790
Si Si3 0.621216 0.136834 0.871439
Si Si4 0.632471 0.102702 0.544322
Si Si5 0.000000 0.170233 0.250000
O O1 0.500000 0.863713 0.750000
O O2 0.178440 0.865754 0.593658
O O3 0.144790 0.901217 0.728615
O O4 0.336310 0.036698 0.672633
O O5 0.055043 0.290108 0.988449
O O6 0.187370 0.864167 0.037433
O O7 0.141928 0.100394 0.944741
O O8 0.416384 0.122766 0.878641
O O9 0.615043 0.247432 0.826263
O O10 0.500000 0.000000 0.500000
#
# Coordination Sequence:
#
# PCOD9305148 Si02
#       5
#     8   8   8   8   4
#     4  12  28  48  72 108 147 193 246 302 371 437
#     4  11  26  45  75 109 138 193 245 300 365 436
#     4  12  26  49  71 105 149 189 248 300 368 436
#     4  11  24  42  76 109 142 184 245 307 359 436
#     4  12  30  48  72 106 154 196 236 312 366 438
#
# _framework density 23.939059
#
# number of rings (size 3 to 8) (size 9 to 14) (size 15 to 20)
#    0.000    0.444    5.556    1.333    6.222    1.778 
#    2.000    0.000    0.000    0.000    0.000    0.000 
#    0.000    0.000    0.000    0.000    0.000    0.000 
#
# Total GULP energy -100698.481435 kJ/mol
# GULP energy per Si atom -5594.360080 kJ/mol
# Density = 2.388457 g / cm^3
# Si number density = 23.939059 Si / 1000 Ang^3
#
#
#
# Elastic Constant Matrix: (Units=GPa)
#
#
# Indices 1 2 3 4 5 6 
#
# 1 155.7667 26.9851 73.2333 0.0000 -35.0944 0.0000
# 2 26.9851 102.7449 10.9239 0.0000 -19.5620 0.0000
# 3 73.2333 10.9239 106.1848 0.0000 -3.0419 0.0000
# 4 0.0000 0.0000 0.0000 21.1539 0.0000 -17.3208
# 5 -35.0944 -19.5620 -3.0419 0.0000 66.5664 0.0000
# 6 0.0000 0.0000 0.0000 -17.3208 0.0000 41.0384
#
#
#
# Elastic Compliance Matrix: (Units=1/GPa)
#
#
# Indices 1 2 3 4 5 6 
#
# 1 0.011381 -0.001173 -0.007577 0.000000 0.005310 0.000000
# 2 -0.001173 0.010532 -0.000204 0.000000 0.002468 0.000000
# 3 -0.007577 -0.000204 0.014567 0.000000 -0.003389 0.000000
# 4 0.000000 0.000000 0.000000 0.072237 0.000000 0.030488
# 5 0.005310 0.002468 -0.003389 0.000000 0.018392 0.000000
# 6 0.000000 0.000000 0.000000 0.030488 0.000000 0.037235
#
#
# Mechanical properties :
#
#
# Convention : Reuss Voigt Hill
#
# Bulk Modulus (GPa) = 53.83964 65.22013 59.52989
# Shear Modulus (GPa) = 26.53315 42.65533 34.59424
#
# Velocity S-wave (km/s) = 3.33282 4.22575 3.80557
# Velocity P-wave (km/s) = 6.11141 7.14931 6.65064
#
# Compressibility (1/GPa) = 0.01857367
#
# Stress axis : x y z
#
# Youngs Moduli (GPa) = 87.86192 94.94548 68.64824
#
# Poissons Ratio (x) = 0.11135 0.52013
# Poissons Ratio (y) = 0.10304 0.01400
# Poissons Ratio (z) = 0.66571 0.01937
#
# Static dielectric constant tensor:
#      x y z
#    x 1.939970 0.000000 -0.001560 
#    y 0.000000 1.927860 0.000000 
#    z -0.001560 0.000000 1.955310 
# 
# From -- ./inp_files/229586.got.cif
#   From: 2010.05.17/outbox.cif.g08.bks.cpg/sg15_115_cif.got.tgz:229586.got - 2010.06.03 18:47:42.
