data_PCOD9305664
_publ_section_title
;
Structure prediction by ZEFSAII (Michael W. Deem and Ramdas Pophale) SiO2 
 PCOD9305664
Probable space group: C 2/C
;
_chemical_formula_sum "Si O2"
_cell_formula_units_Z 44
_cell_length_a 16.388445
_cell_length_b 8.953594
_cell_length_c 17.130755
_cell_angle_alpha 90.000000
_cell_angle_beta 133.332187
_cell_angle_gamma 90.000000
_cell_volume 1828.426075
_symmetry_space_group_name_H-M "C 2/C"
_symmetry_group_IT_number 15
_symmetry_cell_setting 'monoclinic'
loop_
_space_group_symop_operation_xyz
x,y,z
-x,y,1/2-z
-x,-y,-z
x,-y,1/2+z
1/2+x,1/2+y,z
1/2-x,1/2+y,1/2-z
1/2-x,1/2-y,-z
1/2+x,1/2-y,1/2+z
loop_
_atom_site_type_symbol
_atom_site_label
_atom_site_fract_x
_atom_site_fract_y
_atom_site_fract_z
Si Si1 0.365256 0.747209 0.621419
Si Si2 0.913051 0.086919 0.384091
Si Si3 0.000000 0.506871 0.750000
Si Si4 0.724336 0.696376 0.768019
Si Si5 0.112363 0.075781 0.415565
Si Si6 0.792419 0.299544 0.146910
O O1 0.250000 0.750000 0.500000
O O2 0.434659 0.895395 0.649245
O O3 0.346165 0.741964 0.702364
O O4 0.416263 0.591825 0.626701
O O5 0.846548 0.231577 0.373400
O O6 0.997449 0.142846 0.372254
O O7 0.824177 0.967744 0.288730
O O8 0.000000 0.000000 0.500000
O O9 0.096232 0.600620 0.770361
O O10 0.729388 0.757289 0.682315
O O11 0.168208 0.163958 0.381295
O O12 0.205332 0.094264 0.543824
#
# Coordination Sequence:
#
# PCOD9305664 Si02
#       6
#     8   8   4   8   8   8
#     4  12  25  46  70 105 145 191 233 306 365 434
#     4  12  25  49  74 109 152 192 240 315 355 437
#     4  12  24  44  74 100 148 174 248 290 356 430
#     4  12  26  45  76 106 143 188 253 285 374 434
#     4  11  24  47  74  98 151 189 235 288 376 416
#     4  11  24  46  72 109 135 193 241 295 345 445
#
# _framework density 24.064415
#
# number of rings (size 3 to 8) (size 9 to 14) (size 15 to 20)
#    0.000    0.364    3.636    5.455    0.000    2.182 
#    0.000    1.818    0.000    0.000    0.000    0.000 
#    0.000    0.000    0.000    0.000    0.000    0.000 
#
# Total GULP energy -122643.714127 kJ/mol
# GULP energy per Si atom -5574.714278 kJ/mol
# Density = 2.400964 g / cm^3
# Si number density = 24.064415 Si / 1000 Ang^3
#
#
#
# Elastic Constant Matrix: (Units=GPa)
#
#
# Indices 1 2 3 4 5 6 
#
# 1 105.6175 20.6614 38.1786 0.0000 0.5402 0.0000
# 2 20.6614 95.6976 59.2783 0.0000 18.0620 0.0000
# 3 38.1786 59.2783 137.6400 0.0000 9.2933 0.0000
# 4 0.0000 0.0000 0.0000 50.4127 0.0000 12.8589
# 5 0.5402 18.0620 9.2933 0.0000 52.6536 0.0000
# 6 0.0000 0.0000 0.0000 12.8589 0.0000 21.0780
#
#
#
# Elastic Compliance Matrix: (Units=1/GPa)
#
#
# Indices 1 2 3 4 5 6 
#
# 1 0.010570 -0.000760 -0.002647 0.000000 0.000619 0.000000
# 2 -0.000760 0.015122 -0.006024 0.000000 -0.004116 0.000000
# 3 -0.002647 -0.006024 0.010579 0.000000 0.000227 0.000000
# 4 0.000000 0.000000 0.000000 0.023492 0.000000 -0.014332
# 5 0.000619 -0.004116 0.000227 0.000000 0.020358 0.000000
# 6 0.000000 0.000000 0.000000 -0.014332 0.000000 0.056186
#
#
# Mechanical properties :
#
#
# Convention : Reuss Voigt Hill
#
# Bulk Modulus (GPa) = 57.43747 63.91017 60.67382
# Shear Modulus (GPa) = 31.06155 39.55129 35.30642
#
# Velocity S-wave (km/s) = 3.59662 4.05848 3.83451
# Velocity P-wave (km/s) = 6.41620 6.96974 6.69869
#
# Compressibility (1/GPa) = 0.01741024
#
# Stress axis : x y z
#
# Youngs Moduli (GPa) = 94.60492 66.12879 94.53058
#
# Poissons Ratio (x) = 0.05023 0.25019
# Poissons Ratio (y) = 0.07186 0.56946
# Poissons Ratio (z) = 0.25039 0.39836
#
# Static dielectric constant tensor:
#      x y z
#    x 1.919160 0.000000 -0.008980 
#    y 0.000000 1.971880 0.000000 
#    z -0.008980 0.000000 2.013370 
# 
# From -- ./inp_files/209746.got.cif
#   From: 2010.05.17/outbox.cif.g08.bks.cpg/sg15_105_cif.got.tgz:209746.got - 2010.06.03 18:47:42.
