data_PCOD9305750
_publ_section_title
;
Structure prediction by ZEFSAII (Michael W. Deem and Ramdas Pophale) SiO2 
 PCOD9305750
Probable space group: C 2/C
;
_chemical_formula_sum "Si O2"
_cell_formula_units_Z 40
_cell_length_a 11.569678
_cell_length_b 15.868899
_cell_length_c 9.231888
_cell_angle_alpha 90.000000
_cell_angle_beta 79.787956
_cell_angle_gamma 90.000000
_cell_volume 1668.105760
_symmetry_space_group_name_H-M "C 2/C"
_symmetry_group_IT_number 15
_symmetry_cell_setting 'monoclinic'
loop_
_space_group_symop_operation_xyz
x,y,z
-x,y,1/2-z
-x,-y,-z
x,-y,1/2+z
1/2+x,1/2+y,z
1/2-x,1/2+y,1/2-z
1/2-x,1/2-y,-z
1/2+x,1/2-y,1/2+z
loop_
_atom_site_type_symbol
_atom_site_label
_atom_site_fract_x
_atom_site_fract_y
_atom_site_fract_z
Si Si1 0.773721 0.405472 0.512645
Si Si2 0.485921 0.588916 0.422116
Si Si3 0.006679 0.369150 0.593124
Si Si4 0.688801 0.073326 0.827494
Si Si5 0.394336 0.312142 0.378202
O O1 0.642630 0.370769 0.523464
O O2 0.757357 0.488307 0.616665
O O3 0.818093 0.430826 0.343323
O O4 0.874403 0.351175 0.568269
O O5 0.500000 0.577313 0.250000
O O6 0.500000 0.500000 0.500000
O O7 0.583719 0.648768 0.469040
O O8 0.070934 0.414699 0.446559
O O9 0.083923 0.286896 0.612554
O O10 0.000000 0.415907 0.750000
O O11 0.774011 0.152027 0.843992
O O12 0.500000 0.343928 0.250000
#
# Coordination Sequence:
#
# PCOD9305750 Si02
#       5
#     8   8   8   8   8
#     4  12  25  43  74 102 138 183 237 288 349 416
#     4  12  24  41  69 102 138 176 235 289 348 410
#     4  11  27  46  67 102 143 187 230 284 353 422
#     4  12  24  45  73 101 141 183 232 292 347 421
#     4  11  24  47  69 101 140 183 228 288 351 418
#
# _framework density 23.979295
#
# number of rings (size 3 to 8) (size 9 to 14) (size 15 to 20)
#    0.000    0.400    4.000    4.800    2.800    2.400 
#    0.000    0.000    0.000    0.000    0.000    0.000 
#    0.000    0.000    0.000    0.000    0.000    0.000 
#
# Total GULP energy -111951.085422 kJ/mol
# GULP energy per Si atom -5597.554271 kJ/mol
# Density = 2.392472 g / cm^3
# Si number density = 23.979295 Si / 1000 Ang^3
#
#
#
# Elastic Constant Matrix: (Units=GPa)
#
#
# Indices 1 2 3 4 5 6 
#
# 1 109.9354 5.4295 23.2647 0.0000 4.3099 0.0000
# 2 5.4295 49.7408 10.8607 0.0000 1.4575 0.0000
# 3 23.2647 10.8607 206.5433 0.0000 3.5995 0.0000
# 4 0.0000 0.0000 0.0000 20.8964 0.0000 -3.4830
# 5 4.3099 1.4575 3.5995 0.0000 42.6834 0.0000
# 6 0.0000 0.0000 0.0000 -3.4830 0.0000 31.4209
#
#
#
# Elastic Compliance Matrix: (Units=1/GPa)
#
#
# Indices 1 2 3 4 5 6 
#
# 1 0.009379 -0.000781 -0.001001 0.000000 -0.000836 0.000000
# 2 -0.000781 0.020418 -0.000976 0.000000 -0.000536 0.000000
# 3 -0.001001 -0.000976 0.005011 0.000000 -0.000288 0.000000
# 4 0.000000 0.000000 0.000000 0.048756 0.000000 0.005405
# 5 -0.000836 -0.000536 -0.000288 0.000000 0.023555 0.000000
# 6 0.000000 0.000000 0.000000 0.005405 0.000000 0.032425
#
#
# Mechanical properties :
#
#
# Convention : Reuss Voigt Hill
#
# Bulk Modulus (GPa) = 34.13854 49.48103 41.80978
# Shear Modulus (GPa) = 32.29453 40.77777 36.53615
#
# Velocity S-wave (km/s) = 3.67381 4.12824 3.90764
# Velocity P-wave (km/s) = 5.68009 6.58808 6.15086
#
# Compressibility (1/GPa) = 0.02929241
#
# Stress axis : x y z
#
# Youngs Moduli (GPa) = 106.61670 48.97557 199.57306
#
# Poissons Ratio (x) = 0.03824 0.19974
# Poissons Ratio (y) = 0.08324 0.19486
# Poissons Ratio (z) = 0.10671 0.04782
#
# Static dielectric constant tensor:
#      x y z
#    x 1.955910 0.000000 -0.036360 
#    y 0.000000 1.945920 0.000000 
#    z -0.036360 0.000000 1.889770 
# 
# From -- ./inp_files/29041.got.cif
#   From: 2010.05.17/outbox.cif.g08.bks.cpg/sg15_15_cif.got.tgz:29041.got - 2010.06.03 18:47:42.
