data_PCOD9305618
_publ_section_title
;
Structure prediction by ZEFSAII (Michael W. Deem and Ramdas Pophale) SiO2 
 PCOD9305618
Probable space group: C 2/C
;
_chemical_formula_sum "Si O2"
_cell_formula_units_Z 52
_cell_length_a 6.132518
_cell_length_b 19.069978
_cell_length_c 26.260727
_cell_angle_alpha 90.000000
_cell_angle_beta 50.798736
_cell_angle_gamma 90.000000
_cell_volume 2379.899119
_symmetry_space_group_name_H-M "C 2/C"
_symmetry_group_IT_number 15
_symmetry_cell_setting 'monoclinic'
loop_
_space_group_symop_operation_xyz
x,y,z
-x,y,1/2-z
-x,-y,-z
x,-y,1/2+z
1/2+x,1/2+y,z
1/2-x,1/2+y,1/2-z
1/2-x,1/2-y,-z
1/2+x,1/2-y,1/2+z
loop_
_atom_site_type_symbol
_atom_site_label
_atom_site_fract_x
_atom_site_fract_y
_atom_site_fract_z
Si Si1 0.516913 0.325794 0.346028
Si Si2 0.012012 0.566201 0.461231
Si Si3 0.832749 0.325107 0.719203
Si Si4 0.500000 0.425985 0.250000
Si Si5 0.522006 0.969177 0.848773
Si Si6 0.106434 0.324558 0.023475
Si Si7 0.368920 0.589452 0.575303
O O1 0.625798 0.250541 0.312769
O O2 0.490944 0.376725 0.301158
O O3 0.684533 0.366380 0.365451
O O4 0.221127 0.313333 0.417749
O O5 0.686271 0.589561 0.507846
O O6 0.000000 0.500000 0.500000
O O7 0.132135 0.543117 0.389857
O O8 0.167003 0.631564 0.463666
O O9 0.500000 0.340863 0.750000
O O10 0.991616 0.393264 0.673806
O O11 0.000000 0.317197 0.750000
O O12 0.768539 0.477632 0.210434
O O13 0.230167 0.010573 0.898775
O O14 0.195302 0.374351 0.056558
O O15 0.250000 0.250000 0.000000
#
# Coordination Sequence:
#
# PCOD9305618 Si02
#       7
#     8   8   8   4   8   8   8
#     4  11  27  47  75 104 149 198 254 312 377 463
#     4  11  24  46  69 109 143 186 251 314 381 453
#     4  12  31  51  73 114 156 200 257 318 381 448
#     4  12  24  52  70 106 146 200 250 300 378 470
#     4  12  26  46  77 107 149 197 250 316 384 458
#     4  11  26  45  73 105 144 193 253 313 387 450
#     4  11  25  45  75 104 139 198 250 307 382 457
#
# _framework density 21.849667
#
# number of rings (size 3 to 8) (size 9 to 14) (size 15 to 20)
#    0.000    0.615    4.615    1.385   10.769    2.462 
#    0.000    0.000    0.000    0.000    0.000    0.000 
#    0.000    0.000    0.000    0.000    0.000    0.000 
#
# Total GULP energy -145136.536783 kJ/mol
# GULP energy per Si atom -5582.174492 kJ/mol
# Density = 2.179994 g / cm^3
# Si number density = 21.849667 Si / 1000 Ang^3
#
#
#
# Elastic Constant Matrix: (Units=GPa)
#
#
# Indices 1 2 3 4 5 6 
#
# 1 67.7185 24.5064 9.4460 -0.0001 8.0336 0.0000
# 2 24.5064 160.1413 32.4010 0.0000 16.1171 0.0000
# 3 9.4460 32.4010 58.2659 0.0000 13.4624 0.0000
# 4 -0.0001 0.0000 0.0000 43.5982 0.0000 -1.8975
# 5 8.0336 16.1171 13.4624 0.0000 17.0300 0.0000
# 6 0.0000 0.0000 0.0000 -1.8975 0.0000 37.2322
#
#
#
# Elastic Compliance Matrix: (Units=1/GPa)
#
#
# Indices 1 2 3 4 5 6 
#
# 1 0.016144 -0.001844 -0.000288 0.000000 -0.005643 0.000000
# 2 -0.001844 0.007522 -0.002985 0.000000 -0.003889 0.000000
# 3 -0.000288 -0.002985 0.022249 0.000000 -0.014627 0.000000
# 4 0.000000 0.000000 0.000000 0.022988 0.000000 0.001172
# 5 -0.005643 -0.003889 -0.014627 0.000000 0.076625 0.000000
# 6 0.000000 0.000000 0.000000 0.001172 0.000000 0.026918
#
#
# Mechanical properties :
#
#
# Convention : Reuss Voigt Hill
#
# Bulk Modulus (GPa) = 28.02703 46.53693 37.28198
# Shear Modulus (GPa) = 25.69708 34.22357 29.96032
#
# Velocity S-wave (km/s) = 3.43313 3.96197 3.70699
# Velocity P-wave (km/s) = 5.34511 6.50189 5.95167
#
# Compressibility (1/GPa) = 0.03567984
#
# Stress axis : x y z
#
# Youngs Moduli (GPa) = 61.94246 132.94066 44.94561
#
# Poissons Ratio (x) = 0.24519 0.01294
# Poissons Ratio (y) = 0.11425 0.13418
# Poissons Ratio (z) = 0.01783 0.39689
#
# Static dielectric constant tensor:
#      x y z
#    x 1.910250 0.000000 -0.042040 
#    y 0.000000 1.778630 0.000000 
#    z -0.042040 0.000000 1.807980 
# 
# From -- ./inp_files/285982.got.cif
#   From: 2010.05.17/outbox.cif.g08.bks.cpg/sg15_143_cif.got.tgz:285982.got - 2010.06.03 18:47:42.
