data_PCOD9305406
_publ_section_title
;
Structure prediction by ZEFSAII (Michael W. Deem and Ramdas Pophale) SiO2 
 PCOD9305406
Probable space group: C 2/C
;
_chemical_formula_sum "Si O2"
_cell_formula_units_Z 40
_cell_length_a 4.737227
_cell_length_b 13.721568
_cell_length_c 23.785546
_cell_angle_alpha 90.000000
_cell_angle_beta 107.596245
_cell_angle_gamma 90.000000
_cell_volume 1473.770546
_symmetry_space_group_name_H-M "C 2/C"
_symmetry_group_IT_number 15
_symmetry_cell_setting 'monoclinic'
loop_
_space_group_symop_operation_xyz
x,y,z
-x,y,1/2-z
-x,-y,-z
x,-y,1/2+z
1/2+x,1/2+y,z
1/2-x,1/2+y,1/2-z
1/2-x,1/2-y,-z
1/2+x,1/2-y,1/2+z
loop_
_atom_site_type_symbol
_atom_site_label
_atom_site_fract_x
_atom_site_fract_y
_atom_site_fract_z
Si Si1 0.902348 0.338732 0.083782
Si Si2 0.676185 0.586628 0.312171
Si Si3 0.707797 0.535575 0.114550
Si Si4 0.529648 0.834103 0.968326
Si Si5 0.833948 0.291317 0.289692
O O1 0.708720 0.422718 0.099852
O O2 0.744914 0.233361 0.068984
O O3 0.162495 0.328743 0.145907
O O4 0.957027 0.379395 0.024438
O O5 0.500000 0.537369 0.250000
O O6 0.590802 0.549961 0.368941
O O7 0.548261 0.696339 0.305538
O O8 0.024663 0.569443 0.327742
O O9 0.793113 0.599709 0.065216
O O10 0.750000 0.750000 0.000000
O O11 0.500000 0.272144 0.250000
O O12 0.000000 0.351859 0.250000
#
# Coordination Sequence:
#
# PCOD9305406 Si02
#       5
#     8   8   8   8   8
#     4  11  27  46  71 113 143 195 250 313 367 457
#     4  11  24  46  72 105 147 193 244 305 372 442
#     4  12  26  45  75 106 149 191 249 308 377 441
#     4  11  26  47  76 102 151 195 249 304 381 444
#     4  11  24  44  74 101 142 193 241 296 370 440
#
# _framework density 27.141264
#
# number of rings (size 3 to 8) (size 9 to 14) (size 15 to 20)
#    0.000    0.800    2.000    4.800    8.400    3.200 
#    0.000    0.000    0.000    0.000    0.000    0.000 
#    0.000    0.000    0.000    0.000    0.000    0.000 
#
# Total GULP energy -111854.436025 kJ/mol
# GULP energy per Si atom -5592.721801 kJ/mol
# Density = 2.707949 g / cm^3
# Si number density = 27.141264 Si / 1000 Ang^3
#
#
#
# Elastic Constant Matrix: (Units=GPa)
#
#
# Indices 1 2 3 4 5 6 
#
# 1 106.2461 8.5993 22.8265 0.0000 1.5815 0.0000
# 2 8.5993 81.3301 24.6031 0.0000 -17.1592 0.0000
# 3 22.8265 24.6031 176.7580 0.0000 -5.1726 0.0000
# 4 0.0000 0.0000 0.0000 18.4599 0.0000 -16.3182
# 5 1.5815 -17.1592 -5.1726 0.0000 40.2652 0.0000
# 6 0.0000 0.0000 0.0000 -16.3182 0.0000 32.2952
#
#
#
# Elastic Compliance Matrix: (Units=1/GPa)
#
#
# Indices 1 2 3 4 5 6 
#
# 1 0.009746 -0.000869 -0.001164 0.000000 -0.000903 0.000000
# 2 -0.000869 0.014129 -0.001684 0.000000 0.005839 0.000000
# 3 -0.001164 -0.001684 0.006045 0.000000 0.000105 0.000000
# 4 0.000000 0.000000 0.000000 0.097899 0.000000 0.049467
# 5 -0.000903 0.005839 0.000105 0.000000 0.027373 0.000000
# 6 0.000000 0.000000 0.000000 0.049467 0.000000 0.055959
#
#
# Mechanical properties :
#
#
# Convention : Reuss Voigt Hill
#
# Bulk Modulus (GPa) = 44.47008 52.93245 48.70126
# Shear Modulus (GPa) = 22.11622 38.75775 30.43699
#
# Velocity S-wave (km/s) = 2.85766 3.78299 3.35241
# Velocity P-wave (km/s) = 5.22576 6.21500 5.74173
#
# Compressibility (1/GPa) = 0.02248703
#
# Stress axis : x y z
#
# Youngs Moduli (GPa) = 102.60665 70.77851 165.42104
#
# Poissons Ratio (x) = 0.06149 0.19256
# Poissons Ratio (y) = 0.08914 0.27849
# Poissons Ratio (z) = 0.11944 0.11916
#
# Static dielectric constant tensor:
#      x y z
#    x 1.987100 0.000000 0.275120 
#    y 0.000000 2.149200 0.000000 
#    z 0.275120 0.000000 1.598580 
# 
# From -- ./inp_files/260470.got.cif
#   From: 2010.05.17/outbox.cif.g08.bks.cpg/sg15_131_cif.got.tgz:260470.got - 2010.06.03 18:47:42.
