data_PCOD9305249
_publ_section_title
;
Structure prediction by ZEFSAII (Michael W. Deem and Ramdas Pophale) SiO2 
 PCOD9305249
Probable space group: C 2/C
;
_chemical_formula_sum "Si O2"
_cell_formula_units_Z 40
_cell_length_a 17.437522
_cell_length_b 10.963009
_cell_length_c 18.120685
_cell_angle_alpha 90.000000
_cell_angle_beta 30.615430
_cell_angle_gamma 90.000000
_cell_volume 1764.168127
_symmetry_space_group_name_H-M "C 2/C"
_symmetry_group_IT_number 15
_symmetry_cell_setting 'monoclinic'
loop_
_space_group_symop_operation_xyz
x,y,z
-x,y,1/2-z
-x,-y,-z
x,-y,1/2+z
1/2+x,1/2+y,z
1/2-x,1/2+y,1/2-z
1/2-x,1/2-y,-z
1/2+x,1/2-y,1/2+z
loop_
_atom_site_type_symbol
_atom_site_label
_atom_site_fract_x
_atom_site_fract_y
_atom_site_fract_z
Si Si1 0.823562 0.342894 0.378933
Si Si2 0.415025 0.777815 0.890996
Si Si3 0.958260 0.998604 0.369757
Si Si4 0.849419 0.196165 0.205508
Si Si5 0.517711 0.867643 0.952124
O O1 0.750000 0.250000 0.500000
O O2 0.713764 0.459769 0.473289
O O3 0.816579 0.279940 0.304436
O O4 0.000000 0.363559 0.250000
O O5 0.500000 0.827932 0.750000
O O6 0.481832 0.645615 0.858971
O O7 0.427899 0.862623 0.950291
O O8 0.250000 0.750000 0.000000
O O9 0.000000 0.028008 0.250000
O O10 0.063262 0.078244 0.335879
O O11 0.693479 0.160390 0.296271
O O12 0.950625 0.269964 0.064504
O O13 0.500000 0.000000 0.000000
#
# Coordination Sequence:
#
# PCOD9305249 Si02
#       5
#     8   8   8   8   8
#     4  12  20  38  66 110 150 193 248 296 370 443
#     4  11  28  52  76 104 146 198 252 301 386 457
#     4  11  24  43  75 105 151 194 244 312 365 452
#     4  12  24  44  71 109 147 195 248 309 378 436
#     4  12  30  49  76 109 151 194 252 318 376 448
#
# _framework density 22.673576000000001
#
# number of rings (size 3 to 8) (size 9 to 14) (size 15 to 20)
#    0.000    0.400    6.000    1.200    8.400    4.800 
#    0.000    1.000    0.000    0.000    0.000    0.000 
#    0.000    0.000    0.000    0.000    0.000    0.000 
#
# Total GULP energy -112124.511647 kJ/mol
# GULP energy per Si atom -5606.225582 kJ/mol
# Density = 2.262197 g / cm^3
# Si number density = 22.673576 Si / 1000 Ang^3
#
#
#
# Elastic Constant Matrix: (Units=GPa)
#
#
# Indices 1 2 3 4 5 6 
#
# 1 133.8398 27.8128 41.1963 0.0000 0.9943 0.0000
# 2 27.8128 88.5342 12.7967 0.0000 8.1665 0.0000
# 3 41.1963 12.7967 105.2518 -0.0001 -14.1062 0.0001
# 4 0.0000 0.0000 -0.0001 20.6711 0.0001 1.6413
# 5 0.9943 8.1665 -14.1062 0.0001 50.1366 0.0000
# 6 0.0000 0.0000 0.0001 1.6413 0.0000 39.6673
#
#
#
# Elastic Compliance Matrix: (Units=1/GPa)
#
#
# Indices 1 2 3 4 5 6 
#
# 1 0.008976 -0.002268 -0.003338 0.000000 -0.000748 0.000000
# 2 -0.002268 0.012344 -0.000911 0.000000 -0.002222 0.000000
# 3 -0.003338 -0.000911 0.011376 0.000000 0.003415 0.000000
# 4 0.000000 0.000000 0.000000 0.048536 0.000000 -0.002008
# 5 -0.000748 -0.002222 0.003415 0.000000 0.021283 0.000000
# 6 0.000000 0.000000 0.000000 -0.002008 0.000000 0.025293
#
#
# Mechanical properties :
#
#
# Convention : Reuss Voigt Hill
#
# Bulk Modulus (GPa) = 50.85834 54.58192 52.72013
# Shear Modulus (GPa) = 33.92226 38.48299 36.20262
#
# Velocity S-wave (km/s) = 3.87216 4.12425 4.00019
# Velocity P-wave (km/s) = 6.51697 6.84138 6.68114
#
# Compressibility (1/GPa) = 0.01966246
#
# Stress axis : x y z
#
# Youngs Moduli (GPa) = 111.40953 81.00919 87.90553
#
# Poissons Ratio (x) = 0.18376 0.29340
# Poissons Ratio (y) = 0.25272 0.08006
# Poissons Ratio (z) = 0.37184 0.07378
#
# Static dielectric constant tensor:
#      x y z
#    x 1.780170 0.000000 0.041710 
#    y 0.000000 1.859820 0.000000 
#    z 0.041710 0.000000 1.721690 
# 
# From -- ./inp_files/210756.got.cif
#   From: 2010.05.17/outbox.cif.g08.bks.cpg/sg15_106_cif.got.tgz:210756.got - 2010.06.03 18:47:42.
