data_PCOD9305147
_publ_section_title
;
Structure prediction by ZEFSAII (Michael W. Deem and Ramdas Pophale) SiO2 
 PCOD9305147
Probable space group: C 2/C
;
_chemical_formula_sum "Si O2"
_cell_formula_units_Z 56
_cell_length_a 11.901427
_cell_length_b 9.856707
_cell_length_c 18.950870
_cell_angle_alpha 90.000000
_cell_angle_beta 103.235984
_cell_angle_gamma 90.000000
_cell_volume 2164.049181
_symmetry_space_group_name_H-M "C 2/C"
_symmetry_group_IT_number 15
_symmetry_cell_setting 'monoclinic'
loop_
_space_group_symop_operation_xyz
x,y,z
-x,y,1/2-z
-x,-y,-z
x,-y,1/2+z
1/2+x,1/2+y,z
1/2-x,1/2+y,1/2-z
1/2-x,1/2-y,-z
1/2+x,1/2-y,1/2+z
loop_
_atom_site_type_symbol
_atom_site_label
_atom_site_fract_x
_atom_site_fract_y
_atom_site_fract_z
Si Si1 0.550947 0.833860 0.374015
Si Si2 0.983088 0.802282 0.387571
Si Si3 0.788365 0.945266 0.457389
Si Si4 0.695108 0.484093 0.388986
Si Si5 0.811126 0.362115 0.773338
Si Si6 0.650633 0.131380 0.749879
Si Si7 0.124055 0.749876 0.541348
O O1 0.478686 0.744382 0.416872
O O2 0.655168 0.909639 0.425921
O O3 0.446108 0.912236 0.319831
O O4 0.605792 0.780653 0.309290
O O5 0.926115 0.704902 0.321867
O O6 0.061943 0.726778 0.457071
O O7 0.876122 0.866799 0.417301
O O8 0.068996 0.914033 0.365843
O O9 0.817589 0.103595 0.452712
O O10 0.810042 0.916412 0.543761
O O11 0.745085 0.558924 0.327797
O O12 0.787717 0.368341 0.425360
O O13 0.812919 0.483861 0.716967
O O14 0.744617 0.232107 0.732417
#
# Coordination Sequence:
#
# PCOD9305147 Si02
#       7
#     8   8   8   8   8   8   8
#     4  11  25  46  71 102 142 200 240 314 360 450
#     4  11  25  44  74 112 149 190 243 314 379 458
#     4  11  24  42  75 112 148 189 240 308 389 451
#     4  11  25  44  74 112 149 190 243 314 379 458
#     4  12  27  52  73 110 146 205 260 310 382 445
#     4  11  28  48  73 102 147 202 260 307 366 441
#     4  11  24  42  75 112 148 189 240 308 389 451
#
# _framework density 25.877414999999999
#
# number of rings (size 3 to 8) (size 9 to 14) (size 15 to 20)
#    0.000    0.857    2.857    4.286   10.000    2.286 
#    5.143    0.000    0.000    0.000    0.000    0.000 
#    0.000    0.000    0.000    0.000    0.000    0.000 
#
# Total GULP energy -156536.063096 kJ/mol
# GULP energy per Si atom -5590.573682 kJ/mol
# Density = 2.581852 g / cm^3
# Si number density = 25.877415 Si / 1000 Ang^3
#
#
#
# Elastic Constant Matrix: (Units=GPa)
#
#
# Indices 1 2 3 4 5 6 
#
# 1 117.8951 60.2874 53.8387 0.0000 23.3654 0.0000
# 2 60.2874 94.4910 17.6405 0.0000 28.1645 0.0000
# 3 53.8387 17.6405 76.8217 0.0000 -6.7191 0.0000
# 4 0.0000 0.0000 0.0000 29.6699 0.0000 0.2601
# 5 23.3654 28.1645 -6.7191 0.0000 31.9230 0.0000
# 6 0.0000 0.0000 0.0000 0.2601 0.0000 47.8151
#
#
#
# Elastic Compliance Matrix: (Units=1/GPa)
#
#
# Indices 1 2 3 4 5 6 
#
# 1 0.020956 -0.007170 -0.014087 0.000000 -0.011977 0.000000
# 2 -0.007170 0.018511 -0.000199 0.000000 -0.011125 0.000000
# 3 -0.014087 -0.000199 0.024300 0.000000 0.015601 0.000000
# 4 0.000000 0.000000 0.000000 0.033706 0.000000 -0.000183
# 5 -0.011977 -0.011125 0.015601 0.000000 0.053191 0.000000
# 6 0.000000 0.000000 0.000000 -0.000183 0.000000 0.020915
#
#
# Mechanical properties :
#
#
# Convention : Reuss Voigt Hill
#
# Bulk Modulus (GPa) = 47.95188 61.41567 54.68378
# Shear Modulus (GPa) = 22.57930 32.37769 27.47850
#
# Velocity S-wave (km/s) = 2.95710 3.54106 3.26217
# Velocity P-wave (km/s) = 5.49817 6.36425 5.94700
#
# Compressibility (1/GPa) = 0.02085424
#
# Stress axis : x y z
#
# Youngs Moduli (GPa) = 47.71983 54.02224 41.15217
#
# Poissons Ratio (x) = 0.38735 0.57973
# Poissons Ratio (y) = 0.34216 0.00817
# Poissons Ratio (z) = 0.67225 0.01073
#
# Static dielectric constant tensor:
#      x y z
#    x 2.199230 0.000000 -0.046460 
#    y 0.000000 2.106310 0.000000 
#    z -0.046460 0.000000 2.061600 
# 
# From -- ./inp_files/237120.got.cif
#   From: 2010.05.17/outbox.cif.g08.bks.cpg/sg15_119_cif.got.tgz:237120.got - 2010.06.03 18:47:42.
