data_PCOD9305089
_publ_section_title
;
Structure prediction by ZEFSAII (Michael W. Deem and Ramdas Pophale) SiO2 
 PCOD9305089
Probable space group: C 2/C
;
_chemical_formula_sum "Si O2"
_cell_formula_units_Z 44
_cell_length_a 15.800369
_cell_length_b 13.122747
_cell_length_c 27.275170
_cell_angle_alpha 90.000000
_cell_angle_beta 157.398851
_cell_angle_gamma 90.000000
_cell_volume 2173.429074
_symmetry_space_group_name_H-M "C 2/C"
_symmetry_group_IT_number 15
_symmetry_cell_setting 'monoclinic'
loop_
_space_group_symop_operation_xyz
x,y,z
-x,y,1/2-z
-x,-y,-z
x,-y,1/2+z
1/2+x,1/2+y,z
1/2-x,1/2+y,1/2-z
1/2-x,1/2-y,-z
1/2+x,1/2-y,1/2+z
loop_
_atom_site_type_symbol
_atom_site_label
_atom_site_fract_x
_atom_site_fract_y
_atom_site_fract_z
Si Si1 0.500000 0.253949 0.750000
Si Si2 0.760588 0.630642 0.885040
Si Si3 0.423082 0.510153 0.377837
Si Si4 0.973094 0.839184 0.480396
Si Si5 0.676288 0.354523 0.935754
Si Si6 0.551163 0.008745 0.601771
O O1 0.277801 0.187552 0.637234
O O2 0.508354 0.324140 0.802918
O O3 0.500000 0.645158 0.750000
O O4 0.796951 0.546216 0.861840
O O5 0.883597 0.737025 0.941932
O O6 0.891968 0.583077 0.001307
O O7 0.471801 0.399098 0.427499
O O8 0.423955 0.584922 0.424631
O O9 0.589884 0.561712 0.427966
O O10 0.194607 0.509218 0.226460
O O11 0.750000 0.250000 0.000000
O O12 0.890012 0.397687 0.024222
#
# Coordination Sequence:
#
# PCOD9305089 Si02
#       6
#     4   8   8   8   8   8
#     4  12  22  44  76  98 142 186 240 286 340 420
#     4  11  24  44  67  98 139 181 225 285 352 411
#     4  11  25  43  67 103 136 174 235 286 352 404
#     4  11  25  45  68 102 139 182 231 291 347 416
#     4  12  23  42  70 101 132 181 231 286 340 411
#     4  11  24  42  67  98 135 179 230 280 341 420
#
# _framework density 20.244506000000001
#
# number of rings (size 3 to 8) (size 9 to 14) (size 15 to 20)
#    0.000    0.727    3.636    3.273    3.818    2.909 
#    3.273    2.727    0.000    0.000    0.000    0.000 
#    0.000    0.000    0.000    0.000    0.000    0.000 
#
# Total GULP energy -122890.113716 kJ/mol
# GULP energy per Si atom -5585.914260 kJ/mol
# Density = 2.019843 g / cm^3
# Si number density = 20.244506 Si / 1000 Ang^3
#
#
#
# Elastic Constant Matrix: (Units=GPa)
#
#
# Indices 1 2 3 4 5 6 
#
# 1 -339.8662 100.1378 -283.4139 0.0049 -214.1471 0.0047
# 2 100.1378 88.4542 108.9917 -0.0017 37.8170 -0.0017
# 3 -283.4139 108.9917 -105.9522 0.0069 -171.6505 0.0032
# 4 0.0049 -0.0017 0.0069 71.9813 0.0003 2.6730
# 5 -214.1471 37.8170 -171.6505 0.0003 -53.0451 0.0017
# 6 0.0047 -0.0017 0.0032 2.6730 0.0017 46.4343
#
#
#
# Elastic Compliance Matrix: (Units=1/GPa)
#
#
# Indices 1 2 3 4 5 6 
#
# 1 0.007280 0.002553 -0.006557 0.000000 -0.006352 0.000000
# 2 0.002553 0.009590 -0.002041 0.000000 0.003133 0.000000
# 3 -0.006557 -0.002041 0.008139 0.000000 -0.001318 0.000000
# 4 0.000000 0.000000 0.000000 0.013922 0.000001 -0.000801
# 5 -0.006352 0.003133 -0.001318 0.000001 0.013291 0.000000
# 6 0.000000 0.000000 0.000000 -0.000801 0.000000 0.021582
#
#
# Mechanical properties :
#
#
# Convention : Reuss Voigt Hill
#
# Bulk Modulus (GPa) = 77.40526 -56.21479 10.59524
# Shear Modulus (GPa) = 55.43250 -5.79789 24.81730
#
# Velocity S-wave (km/s) = 5.23841 -1.69415 3.50505
# Velocity P-wave (km/s) = 8.65483 5.62628 4.65033
#
# Compressibility (1/GPa) = 0.01291902
#
# Stress axis : x y z
#
# Youngs Moduli (GPa) = 137.35680 104.27555 122.87238
#
# Poissons Ratio (x) = -0.26626 0.80571
# Poissons Ratio (y) = -0.35073 0.25078
# Poissons Ratio (z) = 0.90069 0.21283
#
# Static dielectric constant tensor:
#      x y z
#    x 1.632030 0.000000 -0.131560 
#    y 0.000000 1.703930 0.000000 
#    z -0.131560 0.000000 1.565000 
# 
# From -- ./inp_files/316140.got.cif
#   From: 2010.05.17/outbox.cif.g08.bks.cpg/sg15_159_cif.got.tgz:316140.got - 2010.06.03 18:47:42.
