data_PCOD9305733
_publ_section_title
;
Structure prediction by ZEFSAII (Michael W. Deem and Ramdas Pophale) SiO2 
 PCOD9305733
Probable space group: C 2/C
;
_chemical_formula_sum "Si O2"
_cell_formula_units_Z 44
_cell_length_a 8.432667
_cell_length_b 16.875321
_cell_length_c 17.268292
_cell_angle_alpha 90.000000
_cell_angle_beta 132.328188
_cell_angle_gamma 90.000000
_cell_volume 1816.715934
_symmetry_space_group_name_H-M "C 2/C"
_symmetry_group_IT_number 15
_symmetry_cell_setting 'monoclinic'
loop_
_space_group_symop_operation_xyz
x,y,z
-x,y,1/2-z
-x,-y,-z
x,-y,1/2+z
1/2+x,1/2+y,z
1/2-x,1/2+y,1/2-z
1/2-x,1/2-y,-z
1/2+x,1/2-y,1/2+z
loop_
_atom_site_type_symbol
_atom_site_label
_atom_site_fract_x
_atom_site_fract_y
_atom_site_fract_z
Si Si1 0.855898 0.327611 0.568624
Si Si2 0.677589 0.030836 0.689891
Si Si3 0.500000 0.098051 0.250000
Si Si4 0.229068 0.766970 0.865299
Si Si5 0.377051 0.529955 0.591983
Si Si6 0.744376 0.375334 0.022981
O O1 0.750000 0.250000 0.500000
O O2 0.764375 0.401141 0.490910
O O3 0.828356 0.347016 0.649934
O O4 0.106079 0.309079 0.637759
O O5 0.756594 0.003127 0.631286
O O6 0.489954 0.094820 0.616405
O O7 0.890082 0.059587 0.804574
O O8 0.589069 0.959951 0.713334
O O9 0.309214 0.681202 0.922572
O O10 0.000000 0.758894 0.750000
O O11 0.220709 0.822130 0.938681
O O12 0.385294 0.455926 0.536166
#
# Coordination Sequence:
#
# PCOD9305733 Si02
#       6
#     8   8   4   8   8   8
#     4  12  29  49  72 111 158 204 254 324 391 463
#     4  11  25  46  78 116 145 201 255 321 377 471
#     4  12  28  46  76 112 154 192 270 314 390 456
#     4  11  28  46  75 110 151 200 247 316 385 460
#     4  11  25  48  83 105 154 202 255 315 397 452
#     4  11  24  46  78 108 145 191 259 305 378 457
#
# _framework density 24.219526999999999
#
# number of rings (size 3 to 8) (size 9 to 14) (size 15 to 20)
#    0.000    0.727    3.636    1.636   11.455    3.636 
#    0.000    0.000    0.000    0.000    0.000    0.000 
#    0.000    0.000    0.000    0.000    0.000    0.000 
#
# Total GULP energy -123258.288572 kJ/mol
# GULP energy per Si atom -5602.649481 kJ/mol
# Density = 2.416440 g / cm^3
# Si number density = 24.219527 Si / 1000 Ang^3
#
#
#
# Elastic Constant Matrix: (Units=GPa)
#
#
# Indices 1 2 3 4 5 6 
#
# 1 50.4661 26.0336 37.0893 0.0000 -16.4321 0.0000
# 2 26.0336 127.0678 65.4162 0.0000 -37.5734 0.0000
# 3 37.0893 65.4162 187.8969 0.0000 -8.5225 0.0000
# 4 0.0000 0.0000 0.0000 46.0572 0.0000 -7.8858
# 5 -16.4321 -37.5734 -8.5225 0.0000 24.0823 0.0000
# 6 0.0000 0.0000 0.0000 -7.8858 0.0000 34.3678
#
#
#
# Elastic Compliance Matrix: (Units=1/GPa)
#
#
# Indices 1 2 3 4 5 6 
#
# 1 0.030633 0.004799 -0.006535 0.000000 0.026076 0.000000
# 2 0.004799 0.019356 -0.006268 0.000000 0.031255 0.000000
# 3 -0.006535 -0.006268 0.008281 0.000000 -0.011308 0.000000
# 4 0.000000 0.000000 0.000000 0.022600 0.000000 0.005186
# 5 0.026076 0.031255 -0.011308 0.000000 0.104079 0.000000
# 6 0.000000 0.000000 0.000000 0.005186 0.000000 0.030287
#
#
# Mechanical properties :
#
#
# Convention : Reuss Voigt Hill
#
# Bulk Modulus (GPa) = 23.66223 69.16768 46.41495
# Shear Modulus (GPa) = 20.38062 36.69422 28.53742
#
# Velocity S-wave (km/s) = 2.90400 3.89661 3.43633
# Velocity P-wave (km/s) = 4.58644 6.99038 5.91189
#
# Compressibility (1/GPa) = 0.04226145
#
# Stress axis : x y z
#
# Youngs Moduli (GPa) = 32.64463 51.66488 120.75359
#
# Poissons Ratio (x) = -0.24792 0.78908
# Poissons Ratio (y) = -0.15665 0.75691
# Poissons Ratio (z) = 0.21332 0.32385
#
# Static dielectric constant tensor:
#      x y z
#    x 1.948140 0.000000 0.035570 
#    y 0.000000 1.897470 0.000000 
#    z 0.035570 0.000000 1.925680 
# 
# From -- ./inp_files/191180.got.cif
#   From: 2010.05.17/outbox.cif.g08.bks.cpg/sg15_96_cif.got.tgz:191180.got - 2010.06.03 18:47:42.
