data_PCOD9305610
_publ_section_title
;
Structure prediction by ZEFSAII (Michael W. Deem and Ramdas Pophale) SiO2 
 PCOD9305610
Probable space group: C 2/C
;
_chemical_formula_sum "Si O2"
_cell_formula_units_Z 44
_cell_length_a 23.160919
_cell_length_b 6.173725
_cell_length_c 21.790061
_cell_angle_alpha 90.000000
_cell_angle_beta 145.012130
_cell_angle_gamma 90.000000
_cell_volume 1786.575922
_symmetry_space_group_name_H-M "C 2/C"
_symmetry_group_IT_number 15
_symmetry_cell_setting 'monoclinic'
loop_
_space_group_symop_operation_xyz
x,y,z
-x,y,1/2-z
-x,-y,-z
x,-y,1/2+z
1/2+x,1/2+y,z
1/2-x,1/2+y,1/2-z
1/2-x,1/2-y,-z
1/2+x,1/2-y,1/2+z
loop_
_atom_site_type_symbol
_atom_site_label
_atom_site_fract_x
_atom_site_fract_y
_atom_site_fract_z
Si Si1 0.637056 0.502905 0.915527
Si Si2 0.000000 0.370203 0.250000
Si Si3 0.008481 0.963394 0.606429
Si Si4 0.833829 0.632450 0.158064
Si Si5 0.169704 0.380406 0.229185
Si Si6 0.606213 0.779401 0.593127
O O1 0.587615 0.276004 0.854612
O O2 0.551439 0.575790 0.890144
O O3 0.653685 0.643152 0.868160
O O4 0.742641 0.512691 0.042822
O O5 0.941794 0.521116 0.245591
O O6 0.106160 0.813998 0.705353
O O7 0.933138 0.794189 0.507524
O O8 0.043574 0.140730 0.588005
O O9 0.811990 0.587204 0.210109
O O10 0.277342 0.291306 0.304426
O O11 0.109109 0.471774 0.117632
#
# Coordination Sequence:
#
# PCOD9305610 Si02
#       6
#     8   4   8   8   8   8
#     4  11  25  45  70 101 138 186 236 292 354 416
#     4  12  24  44  68  98 138 180 236 284 364 408
#     4  11  24  46  69 101 142 181 233 288 345 419
#     4  11  26  44  68 105 139 184 234 292 349 423
#     4  12  23  45  71 103 142 181 233 282 352 417
#     4  11  25  42  70 106 138 184 229 282 348 419
#
# _framework density 24.628118000000001
#
# number of rings (size 3 to 8) (size 9 to 14) (size 15 to 20)
#    0.000    0.727    5.455    1.636    5.091    0.000 
#    0.000    1.818    0.000    0.000    0.000    0.000 
#    0.000    0.000    0.000    0.000    0.000    0.000 
#
# Total GULP energy -122931.177845 kJ/mol
# GULP energy per Si atom -5587.780811 kJ/mol
# Density = 2.457206 g / cm^3
# Si number density = 24.628118 Si / 1000 Ang^3
#
#
#
# Elastic Constant Matrix: (Units=GPa)
#
#
# Indices 1 2 3 4 5 6 
#
# 1 117.3303 28.0261 20.5526 0.0007 16.7219 -0.0009
# 2 28.0261 57.3366 45.2025 0.0052 7.8076 -0.0063
# 3 20.5526 45.2025 104.6718 0.0033 6.5376 -0.0039
# 4 0.0007 0.0052 0.0033 173.5692 -0.0002 -92.8330
# 5 16.7219 7.8076 6.5376 -0.0002 38.9759 0.0000
# 6 -0.0009 -0.0063 -0.0039 -92.8330 0.0000 98.7349
#
#
#
# Elastic Compliance Matrix: (Units=1/GPa)
#
#
# Indices 1 2 3 4 5 6 
#
# 1 0.010081 -0.004652 0.000244 0.000000 -0.003434 0.000000
# 2 -0.004652 0.029049 -0.011513 0.000000 -0.001892 0.000002
# 3 0.000244 -0.011513 0.014492 0.000000 -0.000229 0.000000
# 4 0.000000 0.000000 0.000000 0.011589 0.000000 0.010897
# 5 -0.003434 -0.001892 -0.000229 0.000000 0.027548 0.000000
# 6 0.000000 0.000002 0.000000 0.010897 0.000000 0.020373
#
#
# Mechanical properties :
#
#
# Convention : Reuss Voigt Hill
#
# Bulk Modulus (GPa) = 45.91521 51.87788 48.89655
# Shear Modulus (GPa) = 32.84387 74.62652 53.73519
#
# Velocity S-wave (km/s) = 3.65580 5.51064 4.67611
# Velocity P-wave (km/s) = 6.04183 7.84855 7.00369
#
# Compressibility (1/GPa) = 0.02177927
#
# Stress axis : x y z
#
# Youngs Moduli (GPa) = 99.19760 34.42424 69.00350
#
# Poissons Ratio (x) = 0.16016 -0.01685
# Poissons Ratio (y) = 0.46151 0.79445
# Poissons Ratio (z) = -0.02423 0.39633
#
# Static dielectric constant tensor:
#      x y z
#    x 1.983180 0.000000 -0.069130 
#    y 0.000000 2.022630 0.000000 
#    z -0.069130 0.000000 1.958430 
# 
# From -- ./inp_files/281259.got.cif
#   From: 2010.05.17/outbox.cif.g08.bks.cpg/sg15_141_cif.got.tgz:281259.got - 2010.06.03 18:47:42.
