data_PCOD9305352
_publ_section_title
;
Structure prediction by ZEFSAII (Michael W. Deem and Ramdas Pophale) SiO2 
 PCOD9305352
Probable space group: C 2/C
;
_chemical_formula_sum "Si O2"
_cell_formula_units_Z 40
_cell_length_a 17.037667
_cell_length_b 8.835018
_cell_length_c 14.780760
_cell_angle_alpha 90.000000
_cell_angle_beta 120.325061
_cell_angle_gamma 90.000000
_cell_volume 1920.494541
_symmetry_space_group_name_H-M "C 2/C"
_symmetry_group_IT_number 15
_symmetry_cell_setting 'monoclinic'
loop_
_space_group_symop_operation_xyz
x,y,z
-x,y,1/2-z
-x,-y,-z
x,-y,1/2+z
1/2+x,1/2+y,z
1/2-x,1/2+y,1/2-z
1/2-x,1/2-y,-z
1/2+x,1/2-y,1/2+z
loop_
_atom_site_type_symbol
_atom_site_label
_atom_site_fract_x
_atom_site_fract_y
_atom_site_fract_z
Si Si1 0.621166 0.180901 0.674561
Si Si2 0.030368 0.826581 0.014220
Si Si3 0.740236 0.670373 0.590826
Si Si4 0.938993 0.643430 0.300220
Si Si5 0.757410 0.306086 0.605610
O O1 0.523476 0.255528 0.601349
O O2 0.681479 0.229084 0.795747
O O3 0.680269 0.231776 0.622849
O O4 0.601520 0.003024 0.672773
O O5 0.138083 0.804217 0.066471
O O6 0.007410 0.742071 0.095024
O O7 0.000000 0.000000 0.000000
O O8 0.750000 0.750000 0.500000
O O9 0.750849 0.488382 0.596541
O O10 0.853727 0.732376 0.208131
O O11 0.000000 0.595713 0.250000
O O12 0.750000 0.250000 0.500000
#
# Coordination Sequence:
#
# PCOD9305352 Si02
#       5
#     8   8   8   8   8
#     4  11  25  47  71  99 141 185 231 290 354 418
#     4  12  25  46  70 102 141 183 237 294 355 413
#     4  11  27  44  69 104 141 186 235 288 353 419
#     4  11  26  45  70 104 141 187 240 289 353 427
#     4  11  24  44  71 101 139 185 234 287 354 421
#
# _framework density 20.827967999999998
#
# number of rings (size 3 to 8) (size 9 to 14) (size 15 to 20)
#    0.000    0.800    4.000    1.800    8.400    1.600 
#    0.000    0.000    0.000    0.000    0.000    0.000 
#    0.000    0.000    0.000    0.000    0.000    0.000 
#
# Total GULP energy -111794.645257 kJ/mol
# GULP energy per Si atom -5589.732263 kJ/mol
# Density = 2.078056 g / cm^3
# Si number density = 20.827968 Si / 1000 Ang^3
#
#
#
# Elastic Constant Matrix: (Units=GPa)
#
#
# Indices 1 2 3 4 5 6 
#
# 1 51.1655 23.5873 41.3169 0.0000 -3.9787 0.0000
# 2 23.5873 82.9530 66.6304 0.0000 -12.9532 0.0000
# 3 41.3169 66.6304 195.7685 0.0000 9.8363 0.0000
# 4 0.0000 0.0000 0.0000 40.3146 0.0000 -1.9706
# 5 -3.9787 -12.9532 9.8363 0.0000 50.8366 0.0000
# 6 0.0000 0.0000 0.0000 -1.9706 0.0000 34.5386
#
#
#
# Elastic Compliance Matrix: (Units=1/GPa)
#
#
# Indices 1 2 3 4 5 6 
#
# 1 0.024584 -0.003381 -0.004131 0.000000 0.001862 0.000000
# 2 -0.003381 0.018648 -0.005916 0.000000 0.005632 0.000000
# 3 -0.004131 -0.005916 0.008165 0.000000 -0.003411 0.000000
# 4 0.000000 0.000000 0.000000 0.024874 0.000000 0.001419
# 5 0.001862 0.005632 -0.003411 0.000000 0.021911 0.000000
# 6 0.000000 0.000000 0.000000 0.001419 0.000000 0.029034
#
#
# Mechanical properties :
#
#
# Convention : Reuss Voigt Hill
#
# Bulk Modulus (GPa) = 40.75074 65.88402 53.31738
# Shear Modulus (GPa) = 30.81591 38.36145 34.58868
#
# Velocity S-wave (km/s) = 3.85066 4.29630 4.07957
# Velocity P-wave (km/s) = 6.27519 7.50414 6.91701
#
# Compressibility (1/GPa) = 0.02453943
#
# Stress axis : x y z
#
# Youngs Moduli (GPa) = 40.67689 53.62518 122.47536
#
# Poissons Ratio (x) = 0.18133 0.50596
# Poissons Ratio (y) = 0.13754 0.72459
# Poissons Ratio (z) = 0.16804 0.31726
#
# Static dielectric constant tensor:
#      x y z
#    x 1.784730 0.000000 0.025700 
#    y 0.000000 0.463080 0.000000 
#    z 0.025700 0.000000 1.763190 
# 
# From -- ./inp_files/159495.got.cif
#   From: 2010.05.17/outbox.cif.g08.bks.cpg/sg15_80_cif.got.tgz:159495.got - 2010.06.03 18:47:42.
