data_PCOD9305302
_publ_section_title
;
Structure prediction by ZEFSAII (Michael W. Deem and Ramdas Pophale) SiO2 
 PCOD9305302
Probable space group: C 2/C
;
_chemical_formula_sum "Si O2"
_cell_formula_units_Z 60
_cell_length_a 14.863192
_cell_length_b 28.321479
_cell_length_c 14.611416
_cell_angle_alpha 90.000000
_cell_angle_beta 29.690596
_cell_angle_gamma 90.000000
_cell_volume 3046.511074
_symmetry_space_group_name_H-M "C 2/C"
_symmetry_group_IT_number 15
_symmetry_cell_setting 'monoclinic'
loop_
_space_group_symop_operation_xyz
x,y,z
-x,y,1/2-z
-x,-y,-z
x,-y,1/2+z
1/2+x,1/2+y,z
1/2-x,1/2+y,1/2-z
1/2-x,1/2-y,-z
1/2+x,1/2-y,1/2+z
loop_
_atom_site_type_symbol
_atom_site_label
_atom_site_fract_x
_atom_site_fract_y
_atom_site_fract_z
Si Si1 0.538510 0.291573 0.011553
Si Si2 0.485541 0.882089 0.369945
Si Si3 0.500000 0.682267 0.750000
Si Si4 0.868843 0.624832 0.451939
Si Si5 0.866371 0.047912 0.780999
Si Si6 0.888087 0.111257 0.586671
Si Si7 0.574864 0.187059 0.417747
Si Si8 0.630094 0.560664 0.223735
O O1 0.517950 0.288889 0.139910
O O2 0.407702 0.333192 0.091357
O O3 0.501995 0.239702 0.006253
O O4 0.735140 0.307965 0.803361
O O5 0.500000 0.871010 0.250000
O O6 0.684571 0.897593 0.229801
O O7 0.419560 0.837860 0.489081
O O8 0.330300 0.921140 0.522425
O O9 0.678474 0.650008 0.597374
O O10 0.823097 0.571077 0.519200
O O11 0.000000 0.627497 0.250000
O O12 0.953122 0.653366 0.461630
O O13 0.925319 0.082116 0.646479
O O14 0.000000 0.049622 0.750000
O O15 0.858374 0.993940 0.756516
O O16 0.035014 0.093330 0.383695
O O17 0.500000 0.562923 0.250000
#
# Coordination Sequence:
#
# PCOD9305302 Si02
#       8
#     8   8   4   8   8   8   8   8
#     4  12  25  43  72 100 143 182 225 280 343 421
#     4  12  25  46  73  98 135 182 237 297 342 402
#     4  12  22  42  66 100 142 184 222 272 334 418
#     4  12  23  40  64 100 142 184 222 271 341 414
#     4  11  24  44  68 103 144 179 228 283 342 415
#     4  12  23  46  71 101 139 179 230 284 348 411
#     4  12  26  44  66 103 139 181 232 282 344 413
#     4  11  25  46  71 100 134 184 233 287 351 404
#
# _framework density 19.694661
#
# number of rings (size 3 to 8) (size 9 to 14) (size 15 to 20)
#    0.000    0.267    7.333    2.000    0.933    2.133 
#    0.000    3.333    0.000    0.000    0.000    0.000 
#    0.000    0.000    0.000    0.000    0.000    0.000 
#
# Total GULP energy -167762.476263 kJ/mol
# GULP energy per Si atom -5592.082542 kJ/mol
# Density = 1.964983 g / cm^3
# Si number density = 19.694661 Si / 1000 Ang^3
#
#
#
# Elastic Constant Matrix: (Units=GPa)
#
#
# Indices 1 2 3 4 5 6 
#
# 1 81.7120 34.6894 33.3418 -0.0008 9.2857 -0.0011
# 2 34.6894 115.2203 18.2969 -0.0001 6.6622 0.0009
# 3 33.3418 18.2969 118.3224 -0.0011 3.2585 0.0017
# 4 -0.0008 -0.0001 -0.0011 22.6024 0.0032 -0.1917
# 5 9.2857 6.6622 3.2585 0.0032 45.0763 -0.0009
# 6 -0.0011 0.0009 0.0017 -0.1917 -0.0009 10.9210
#
#
#
# Elastic Compliance Matrix: (Units=1/GPa)
#
#
# Indices 1 2 3 4 5 6 
#
# 1 0.015739 -0.004006 -0.003750 0.000001 -0.002379 0.000002
# 2 -0.004006 0.009984 -0.000398 0.000000 -0.000622 -0.000001
# 3 -0.003750 -0.000398 0.009566 0.000000 0.000140 -0.000002
# 4 0.000001 0.000000 0.000000 0.044250 -0.000003 0.000777
# 5 -0.002379 -0.000622 0.000140 -0.000003 0.022756 0.000002
# 6 0.000002 -0.000001 -0.000002 0.000777 0.000002 0.091581
#
#
# Mechanical properties :
#
#
# Convention : Reuss Voigt Hill
#
# Bulk Modulus (GPa) = 52.68233 54.21232 53.44732
# Shear Modulus (GPa) = 23.09355 30.98172 27.03763
#
# Velocity S-wave (km/s) = 3.42801 3.97054 3.70921
# Velocity P-wave (km/s) = 6.51736 6.97183 6.74842
#
# Compressibility (1/GPa) = 0.01898170
#
# Stress axis : x y z
#
# Youngs Moduli (GPa) = 63.53577 100.15893 104.53753
#
# Poissons Ratio (x) = 0.40119 0.39204
# Poissons Ratio (y) = 0.25449 0.04161
# Poissons Ratio (z) = 0.23827 0.03987
#
# Static dielectric constant tensor:
#      x y z
#    x 1.695490 0.000000 -0.005750 
#    y 0.000000 1.685320 0.000000 
#    z -0.005750 0.000000 1.704730 
# 
# From -- ./inp_files/157336.got.cif
#   From: 2010.05.17/outbox.cif.g08.bks.cpg/sg15_79_cif.got.tgz:157336.got - 2010.06.03 18:47:42.
