data_PCOD9305485
_publ_section_title
;
Structure prediction by ZEFSAII (Michael W. Deem and Ramdas Pophale) SiO2 
 PCOD9305485
Probable space group: C 2/C
;
_chemical_formula_sum "Si O2"
_cell_formula_units_Z 52
_cell_length_a 11.916032
_cell_length_b 7.978460
_cell_length_c 28.427904
_cell_angle_alpha 90.000000
_cell_angle_beta 57.631389
_cell_angle_gamma 90.000000
_cell_volume 2282.746190
_symmetry_space_group_name_H-M "C 2/C"
_symmetry_group_IT_number 15
_symmetry_cell_setting 'monoclinic'
loop_
_space_group_symop_operation_xyz
x,y,z
-x,y,1/2-z
-x,-y,-z
x,-y,1/2+z
1/2+x,1/2+y,z
1/2-x,1/2+y,1/2-z
1/2-x,1/2-y,-z
1/2+x,1/2-y,1/2+z
loop_
_atom_site_type_symbol
_atom_site_label
_atom_site_fract_x
_atom_site_fract_y
_atom_site_fract_z
Si Si1 0.208920 0.185562 0.259265
Si Si2 0.000000 0.030527 0.750000
Si Si3 0.425908 0.428202 0.568999
Si Si4 0.926812 0.519632 0.165137
Si Si5 0.827072 0.073993 0.986892
Si Si6 0.443901 0.923653 0.464443
Si Si7 0.656621 0.842181 0.678849
O O1 0.149912 0.350582 0.298668
O O2 0.303587 0.100373 0.277719
O O3 0.085779 0.081042 0.266484
O O4 0.319022 0.173227 0.192523
O O5 0.904248 0.156752 0.800403
O O6 0.525474 0.566244 0.569020
O O7 0.365646 0.467113 0.531734
O O8 0.520601 0.269181 0.544277
O O9 0.298117 0.361046 0.623831
O O10 0.988928 0.496976 0.098743
O O11 0.050464 0.555646 0.172296
O O12 0.750000 0.250000 0.000000
O O13 0.713209 0.949292 0.996870
O O14 0.500000 0.000000 0.500000
#
# Coordination Sequence:
#
# PCOD9305485 Si02
#       7
#     8   4   8   8   8   8   8
#     4  12  25  47  73 111 146 189 247 300 381 439
#     4  12  26  44  74 108 148 188 240 306 368 462
#     4  11  24  45  70 102 141 188 237 304 359 433
#     4  12  25  48  76 110 151 197 243 311 369 444
#     4  11  24  45  70 100 142 188 248 294 363 427
#     4  12  24  47  76 108 148 194 249 303 367 439
#     4  12  24  48  73 103 152 186 245 307 371 441
#
# _framework density 22.779582999999999
#
# number of rings (size 3 to 8) (size 9 to 14) (size 15 to 20)
#    0.000    0.308    7.692    0.462    2.154    1.231 
#    5.538    1.538    0.000    0.000    0.000    0.000 
#    0.000    0.000    0.000    0.000    0.000    0.000 
#
# Total GULP energy -144926.583710 kJ/mol
# GULP energy per Si atom -5574.099373 kJ/mol
# Density = 2.272774 g / cm^3
# Si number density = 22.779583 Si / 1000 Ang^3
#
#
#
# Elastic Constant Matrix: (Units=GPa)
#
#
# Indices 1 2 3 4 5 6 
#
# 1 203.1876 50.7858 49.0122 0.0000 -14.1228 0.0000
# 2 50.7858 68.2869 35.7950 0.0000 -12.6295 0.0000
# 3 49.0122 35.7950 87.9516 0.0000 -11.7705 0.0000
# 4 0.0000 0.0000 0.0000 165.3344 0.0000 -87.9497
# 5 -14.1228 -12.6295 -11.7705 0.0000 50.5693 0.0000
# 6 0.0000 0.0000 0.0000 -87.9497 0.0000 95.1832
#
#
#
# Elastic Compliance Matrix: (Units=1/GPa)
#
#
# Indices 1 2 3 4 5 6 
#
# 1 0.006330 -0.003575 -0.002018 0.000000 0.000405 0.000000
# 2 -0.003575 0.021079 -0.006209 0.000000 0.002821 0.000000
# 3 -0.002018 -0.006209 0.015213 0.000000 0.001426 0.000000
# 4 0.000000 0.000000 0.000000 0.011895 0.000000 0.010991
# 5 0.000405 0.002821 0.001426 0.000000 0.020925 0.000000
# 6 0.000000 0.000000 0.000000 0.010991 0.000000 0.020662
#
#
# Mechanical properties :
#
#
# Convention : Reuss Voigt Hill
#
# Bulk Modulus (GPa) = 52.58464 70.06801 61.32632
# Shear Modulus (GPa) = 39.66754 77.13960 58.40357
#
# Velocity S-wave (km/s) = 4.17749 5.82555 5.06895
# Velocity P-wave (km/s) = 6.81196 8.72211 7.82554
#
# Compressibility (1/GPa) = 0.01901696
#
# Stress axis : x y z
#
# Youngs Moduli (GPa) = 157.97525 47.43995 65.73463
#
# Poissons Ratio (x) = 0.16959 0.13268
# Poissons Ratio (y) = 0.56473 0.40817
# Poissons Ratio (z) = 0.31886 0.29457
#
# Static dielectric constant tensor:
#      x y z
#    x 1.892330 0.000000 -0.094410 
#    y 0.000000 1.979150 0.000000 
#    z -0.094410 0.000000 1.684140 
# 
# From -- ./inp_files/309878.got.cif
#   From: 2010.05.17/outbox.cif.g08.bks.cpg/sg15_155_cif.got.tgz:309878.got - 2010.06.03 18:47:42.
