data_PCOD9305889
_publ_section_title
;
Structure prediction by ZEFSAII (Michael W. Deem and Ramdas Pophale) SiO2 
 PCOD9305889
Probable space group: C 2/C
;
_chemical_formula_sum "Si O2"
_cell_formula_units_Z 32
_cell_length_a 11.289179
_cell_length_b 15.413944
_cell_length_c 9.416681
_cell_angle_alpha 90.000000
_cell_angle_beta 121.676789
_cell_angle_gamma 90.000000
_cell_volume 1394.491135
_symmetry_space_group_name_H-M "C 2/C"
_symmetry_group_IT_number 15
_symmetry_cell_setting 'monoclinic'
loop_
_space_group_symop_operation_xyz
x,y,z
-x,y,1/2-z
-x,-y,-z
x,-y,1/2+z
1/2+x,1/2+y,z
1/2-x,1/2+y,1/2-z
1/2-x,1/2-y,-z
1/2+x,1/2-y,1/2+z
loop_
_atom_site_type_symbol
_atom_site_label
_atom_site_fract_x
_atom_site_fract_y
_atom_site_fract_z
Si Si1 0.367364 0.323759 0.560825
Si Si2 0.287274 0.109420 0.934905
Si Si3 0.556680 0.278888 0.426574
Si Si4 0.155134 0.543165 0.836800
O O1 0.500000 0.321788 0.750000
O O2 0.250000 0.250000 0.500000
O O3 0.436434 0.312355 0.450777
O O4 0.274780 0.410211 0.505005
O O5 0.145771 0.141204 0.921672
O O6 0.295775 0.054221 0.795081
O O7 0.356899 0.202986 0.943069
O O8 0.357350 0.050890 0.100328
O O9 0.500000 0.233936 0.250000
O O10 0.000000 0.584037 0.750000
#
# Coordination Sequence:
#
# PCOD9305889 Si02
#       4
#     8   8   8   8
#     4  12  27  46  76 109 150 193 251 310 372 447
#     4  11  26  45  75 107 149 198 250 307 377 444
#     4  11  24  48  73 104 149 200 247 302 378 453
#     4  12  26  48  73 112 150 195 254 309 376 441
#
# _framework density 22.947438999999999
#
# number of rings (size 3 to 8) (size 9 to 14) (size 15 to 20)
#    0.000    0.500    2.500    5.250    7.000    2.000 
#    0.000    0.000    0.000    0.000    0.000    0.000 
#    0.000    0.000    0.000    0.000    0.000    0.000 
#
# Total GULP energy -89311.707854 kJ/mol
# GULP energy per Si atom -5581.981741 kJ/mol
# Density = 2.289521 g / cm^3
# Si number density = 22.947439 Si / 1000 Ang^3
#
#
#
# Elastic Constant Matrix: (Units=GPa)
#
#
# Indices 1 2 3 4 5 6 
#
# 1 169.6110 48.6872 57.0975 0.0000 5.4714 0.0000
# 2 48.6872 73.0758 48.8467 0.0000 1.8405 0.0000
# 3 57.0975 48.8467 129.6227 0.0000 7.6115 0.0000
# 4 0.0000 0.0000 0.0000 31.1668 0.0000 6.2851
# 5 5.4714 1.8405 7.6115 0.0000 47.4121 0.0000
# 6 0.0000 0.0000 0.0000 6.2851 0.0000 -7.9550
#
#
#
# Elastic Compliance Matrix: (Units=1/GPa)
#
#
# Indices 1 2 3 4 5 6 
#
# 1 0.007645 -0.003808 -0.001907 0.000000 -0.000428 0.000000
# 2 -0.003808 0.020196 -0.005969 0.000000 0.000614 0.000000
# 3 -0.001907 -0.005969 0.010880 0.000000 -0.001295 0.000000
# 4 0.000000 0.000000 0.000000 0.027676 0.000000 0.021866
# 5 -0.000428 0.000614 -0.001295 0.000000 0.021325 0.000000
# 6 0.000000 0.000000 0.000000 0.021866 0.000000 -0.108432
#
#
# Mechanical properties :
#
#
# Convention : Reuss Voigt Hill
#
# Bulk Modulus (GPa) = 65.13698 75.73025 70.43362
# Shear Modulus (GPa) = 642.92332 28.63666 335.77999
#
# Velocity S-wave (km/s) = 16.75650 3.53643 12.10964
# Velocity P-wave (km/s) = 20.07039 7.05325 15.04276
#
# Compressibility (1/GPa) = 0.01535226
#
# Stress axis : x y z
#
# Youngs Moduli (GPa) = 130.80882 49.51475 91.90781
#
# Poissons Ratio (x) = 0.18853 0.17531
# Poissons Ratio (y) = 0.49806 0.54864
# Poissons Ratio (z) = 0.24951 0.29558
#
# Static dielectric constant tensor:
#      x y z
#    x 1.863450 0.000000 0.097310 
#    y 0.000000 1.883020 0.000000 
#    z 0.097310 0.000000 1.962910 
# 
# From -- ./inp_files/28017.got.cif
#   From: 2010.05.17/outbox.cif.g08.bks.cpg/sg15_15_cif.got.tgz:28017.got - 2010.06.03 18:47:42.
