data_PCOD9305439
_publ_section_title
;
Structure prediction by ZEFSAII (Michael W. Deem and Ramdas Pophale) SiO2 
 PCOD9305439
Probable space group: C 2/C
;
_chemical_formula_sum "Si O2"
_cell_formula_units_Z 40
_cell_length_a 20.642578
_cell_length_b 6.874953
_cell_length_c 14.588520
_cell_angle_alpha 90.000000
_cell_angle_beta 134.407119
_cell_angle_gamma 90.000000
_cell_volume 1479.032375
_symmetry_space_group_name_H-M "C 2/C"
_symmetry_group_IT_number 15
_symmetry_cell_setting 'monoclinic'
loop_
_space_group_symop_operation_xyz
x,y,z
-x,y,1/2-z
-x,-y,-z
x,-y,1/2+z
1/2+x,1/2+y,z
1/2-x,1/2+y,1/2-z
1/2-x,1/2-y,-z
1/2+x,1/2-y,1/2+z
loop_
_atom_site_type_symbol
_atom_site_label
_atom_site_fract_x
_atom_site_fract_y
_atom_site_fract_z
Si Si1 0.178088 0.747081 0.508642
Si Si2 0.898139 0.231723 0.335752
Si Si3 0.989382 0.071317 0.611811
Si Si4 0.153413 0.314541 0.698034
Si Si5 0.212374 0.672822 0.062053
O O1 0.250000 0.750000 0.500000
O O2 0.090280 0.874500 0.397276
O O3 0.245833 0.802853 0.659209
O O4 0.153592 0.520380 0.489934
O O5 0.920950 0.799328 0.315865
O O6 0.977413 0.150057 0.348392
O O7 0.933169 0.142538 0.465575
O O8 0.807897 0.135086 0.206629
O O9 0.620788 0.959899 0.170936
O O10 0.160994 0.234434 0.600424
O O11 0.250000 0.750000 0.000000
#
# Coordination Sequence:
#
# PCOD9305439 Si02
#       5
#     8   8   8   8   8
#     4  12  27  49  78 113 164 209 264 343 406 488
#     4  11  24  44  80 113 149 212 259 334 396 486
#     4  11  25  47  80 116 152 205 272 322 407 483
#     4  12  24  51  79 112 160 209 272 336 408 482
#     4  12  25  47  77 116 156 214 269 328 412 483
#
# _framework density 27.044708
#
# number of rings (size 3 to 8) (size 9 to 14) (size 15 to 20)
#    0.000    0.400    6.000    1.800    0.000    4.000 
#    0.000    3.000    0.000    0.000    0.000    0.000 
#    0.000    0.000    0.000    0.000    0.000    0.000 
#
# Total GULP energy -111608.767061 kJ/mol
# GULP energy per Si atom -5580.438353 kJ/mol
# Density = 2.698315 g / cm^3
# Si number density = 27.044708 Si / 1000 Ang^3
#
#
#
# Elastic Constant Matrix: (Units=GPa)
#
#
# Indices 1 2 3 4 5 6 
#
# 1 203.9507 50.4606 47.9365 0.0000 8.0328 0.0000
# 2 50.4606 146.0012 7.4050 0.0000 6.5395 0.0000
# 3 47.9365 7.4050 57.0120 0.0000 4.5207 0.0000
# 4 0.0000 0.0000 0.0000 30.7463 0.0000 10.8083
# 5 8.0328 6.5395 4.5207 0.0000 71.2804 0.0000
# 6 0.0000 0.0000 0.0000 10.8083 0.0000 53.8622
#
#
#
# Elastic Compliance Matrix: (Units=1/GPa)
#
#
# Indices 1 2 3 4 5 6 
#
# 1 0.006663 -0.002023 -0.005322 0.000000 -0.000228 0.000000
# 2 -0.002023 0.007533 0.000763 0.000000 -0.000511 0.000000
# 3 -0.005322 0.000763 0.021984 0.000000 -0.000865 0.000000
# 4 0.000000 0.000000 0.000000 0.034993 0.000000 -0.007022
# 5 -0.000228 -0.000511 -0.000865 0.000000 0.014157 0.000000
# 6 0.000000 0.000000 0.000000 -0.007022 0.000000 0.019975
#
#
# Mechanical properties :
#
#
# Convention : Reuss Voigt Hill
#
# Bulk Modulus (GPa) = 43.44633 68.72981 56.08807
# Shear Modulus (GPa) = 39.63835 51.25523 45.44679
#
# Velocity S-wave (km/s) = 3.83255 4.35812 4.10375
# Velocity P-wave (km/s) = 5.97361 7.12691 6.57559
#
# Compressibility (1/GPa) = 0.02301690
#
# Stress axis : x y z
#
# Youngs Moduli (GPa) = 150.07171 132.75606 45.48688
#
# Poissons Ratio (x) = 0.26855 0.24208
# Poissons Ratio (y) = 0.30358 -0.03471
# Poissons Ratio (z) = 0.79867 -0.10130
#
# Static dielectric constant tensor:
#      x y z
#    x 2.705410 0.000000 -0.368810 
#    y 0.000000 2.344370 0.000000 
#    z -0.368810 0.000000 2.262720 
# 
# From -- ./inp_files/171506.got.cif
#   From: 2010.05.17/outbox.cif.g08.bks.cpg/sg15_86_cif.got.tgz:171506.got - 2010.06.03 18:47:42.
