data_PCOD9305060
_publ_section_title
;
Structure prediction by ZEFSAII (Michael W. Deem and Ramdas Pophale) SiO2 
 PCOD9305060
Probable space group: C 2/C
;
_chemical_formula_sum "Si O2"
_cell_formula_units_Z 48
_cell_length_a 10.253133
_cell_length_b 15.147222
_cell_length_c 31.244095
_cell_angle_alpha 90.000000
_cell_angle_beta 145.125404
_cell_angle_gamma 90.000000
_cell_volume 2774.521815
_symmetry_space_group_name_H-M "C 2/C"
_symmetry_group_IT_number 15
_symmetry_cell_setting 'monoclinic'
loop_
_space_group_symop_operation_xyz
x,y,z
-x,y,1/2-z
-x,-y,-z
x,-y,1/2+z
1/2+x,1/2+y,z
1/2-x,1/2+y,1/2-z
1/2-x,1/2-y,-z
1/2+x,1/2-y,1/2+z
loop_
_atom_site_type_symbol
_atom_site_label
_atom_site_fract_x
_atom_site_fract_y
_atom_site_fract_z
Si Si1 0.745930 0.022763 0.546325
Si Si2 0.235031 0.271171 0.445695
Si Si3 0.243447 0.478829 0.445696
Si Si4 0.735696 0.227237 0.546325
Si Si5 0.065563 0.374730 0.838820
Si Si6 0.878535 0.875270 0.838819
O O1 0.799445 0.125000 0.569778
O O2 0.500000 0.000000 0.500000
O O3 0.723067 0.007740 0.489317
O O4 0.946021 0.957341 0.615974
O O5 0.250000 0.250000 0.500000
O O6 0.200446 0.375000 0.430178
O O7 0.473517 0.242259 0.489316
O O8 0.029010 0.212138 0.373296
O O9 0.500000 0.500000 0.500000
O O10 0.087472 0.537863 0.373297
O O11 0.750000 0.250000 0.500000
O O12 0.883844 0.292659 0.615973
O O13 0.259665 0.375000 0.853866
O O14 0.824809 0.375000 0.750000
#
# Coordination Sequence:
#
# PCOD9305060 Si02
#       6
#     8   8   8   8   8   8
#     4  12  22  37  64  94 120 159 205 256 301 366
#     4  12  20  39  66  90 117 166 213 243 300 378
#     4  12  20  39  66  90 117 166 213 243 300 378
#     4  12  22  37  64  94 120 159 205 256 301 366
#     4  11  24  42  63  93 127 161 208 264 314 364
#     4  11  24  42  63  93 127 161 208 264 314 364
#
# _framework density 17.300277999999999
#
# number of rings (size 3 to 8) (size 9 to 14) (size 15 to 20)
#    0.000    0.333   10.000    0.000    0.000    1.333 
#    0.000    3.333    0.000    0.000    0.000    0.000 
#    0.000    0.000    0.000    0.000    0.000    0.000 
#
# Total GULP energy -134106.952996 kJ/mol
# GULP energy per Si atom -5587.789708 kJ/mol
# Density = 1.726090 g / cm^3
# Si number density = 17.300278 Si / 1000 Ang^3
#
#
#
# Elastic Constant Matrix: (Units=GPa)
#
#
# Indices 1 2 3 4 5 6 
#
# 1 139.5643 51.6885 65.9953 0.0000 -1.5684 0.0000
# 2 51.6885 217.6201 86.8392 0.0000 1.9395 0.0000
# 3 65.9953 86.8392 139.9237 -0.0001 1.5888 0.0000
# 4 0.0000 0.0000 -0.0001 35.2146 0.0000 0.3565
# 5 -1.5684 1.9395 1.5888 0.0000 22.7373 0.0000
# 6 0.0000 0.0000 0.0000 0.3565 0.0000 28.7523
#
#
#
# Elastic Compliance Matrix: (Units=1/GPa)
#
#
# Indices 1 2 3 4 5 6 
#
# 1 0.009304 -0.000615 -0.004017 0.000000 0.000975 0.000000
# 2 -0.000615 0.006150 -0.003523 0.000000 -0.000321 0.000000
# 3 -0.004017 -0.003523 0.011236 0.000000 -0.000762 0.000000
# 4 0.000000 0.000000 0.000000 0.028401 0.000000 -0.000352
# 5 0.000975 -0.000321 -0.000762 0.000000 0.044128 0.000000
# 6 0.000000 0.000000 0.000000 -0.000352 0.000000 0.034784
#
#
# Mechanical properties :
#
#
# Convention : Reuss Voigt Hill
#
# Bulk Modulus (GPa) = 96.34765 100.68377 98.51571
# Shear Modulus (GPa) = 32.51518 36.84650 34.68084
#
# Velocity S-wave (km/s) = 4.33998 4.62001 4.48218
# Velocity P-wave (km/s) = 8.99590 9.31576 9.15722
#
# Compressibility (1/GPa) = 0.01037908
#
# Stress axis : x y z
#
# Youngs Moduli (GPa) = 107.48479 162.60250 88.99586
#
# Poissons Ratio (x) = 0.10007 0.35751
# Poissons Ratio (y) = 0.06615 0.31352
# Poissons Ratio (z) = 0.43179 0.57283
#
# Static dielectric constant tensor:
#      x y z
#    x 1.667300 0.000000 -0.006120 
#    y 0.000000 1.599450 0.000000 
#    z -0.006120 0.000000 1.556310 
# 
# From -- ./inp_files/289075.got.cif
#   From: 2010.05.17/outbox.cif.g08.bks.cpg/sg15_145_cif.got.tgz:289075.got - 2010.06.03 18:47:42.
