data_PCOD9305456
_publ_section_title
;
Structure prediction by ZEFSAII (Michael W. Deem and Ramdas Pophale) SiO2 
 PCOD9305456
Probable space group: C 2/C
;
_chemical_formula_sum "Si O2"
_cell_formula_units_Z 64
_cell_length_a 30.066592
_cell_length_b 17.502015
_cell_length_c 9.389754
_cell_angle_alpha 90.000000
_cell_angle_beta 38.303761
_cell_angle_gamma 90.000000
_cell_volume 3062.664640
_symmetry_space_group_name_H-M "C 2/C"
_symmetry_group_IT_number 15
_symmetry_cell_setting 'monoclinic'
loop_
_space_group_symop_operation_xyz
x,y,z
-x,y,1/2-z
-x,-y,-z
x,-y,1/2+z
1/2+x,1/2+y,z
1/2-x,1/2+y,1/2-z
1/2-x,1/2-y,-z
1/2+x,1/2-y,1/2+z
loop_
_atom_site_type_symbol
_atom_site_label
_atom_site_fract_x
_atom_site_fract_y
_atom_site_fract_z
Si Si1 0.781419 0.693436 0.302996
Si Si2 0.441958 0.221857 0.516426
Si Si3 0.073417 0.451755 0.342035
Si Si4 0.568035 0.732992 0.151138
Si Si5 0.674651 0.970293 0.814496
Si Si6 0.172305 0.041309 0.112854
Si Si7 0.303242 0.301961 0.775199
Si Si8 0.417514 0.561367 0.448173
O O1 0.750000 0.750000 0.500000
O O2 0.800119 0.610119 0.315570
O O3 0.727969 0.684513 0.303451
O O4 0.856359 0.725653 0.054554
O O5 0.441743 0.136149 0.579889
O O6 0.448869 0.274846 0.639110
O O7 0.372421 0.249085 0.606661
O O8 0.500000 0.228282 0.250000
O O9 0.117106 0.488075 0.361616
O O10 0.000000 0.500000 0.500000
O O11 0.130861 0.454485 0.068984
O O12 0.500000 0.774529 0.250000
O O13 0.576947 0.652649 0.047988
O O14 0.748511 0.017604 0.641318
O O15 0.181898 0.118349 0.181648
O O16 0.119456 0.051032 0.112197
O O17 0.134450 0.978439 0.307957
O O18 0.250000 0.250000 0.000000
O O19 0.500000 0.531637 0.250000
#
# Coordination Sequence:
#
# PCOD9305456 Si02
#       8
#     8   8   8   8   8   8   8   8
#     4  12  26  43  70 105 139 187 234 296 361 426
#     4  12  26  47  74 103 138 194 238 291 363 432
#     4  12  27  46  70 107 144 187 237 297 357 431
#     4  11  25  46  69 101 144 180 236 298 354 432
#     4  12  25  45  69 103 144 184 238 292 359 427
#     4  12  24  44  72 102 142 192 236 301 362 431
#     4  12  24  47  70  99 142 186 244 290 350 427
#     4  11  24  45  68 104 142 188 238 300 366 431
#
# _framework density 20.896833999999998
#
# number of rings (size 3 to 8) (size 9 to 14) (size 15 to 20)
#    0.000    0.250    3.750    5.250    3.500    2.500 
#    2.250    0.000    0.000    0.000    0.000    0.000 
#    0.000    0.000    0.000    0.000    0.000    0.000 
#
# Total GULP energy -178912.308782 kJ/mol
# GULP energy per Si atom -5591.009649 kJ/mol
# Density = 2.084927 g / cm^3
# Si number density = 20.896834 Si / 1000 Ang^3
#
#
#
# Elastic Constant Matrix: (Units=GPa)
#
#
# Indices 1 2 3 4 5 6 
#
# 1 115.9819 -5.1245 40.9421 0.0000 -31.0751 0.0000
# 2 -5.1245 60.5160 19.8400 0.0000 -27.2544 0.0000
# 3 40.9421 19.8400 140.7457 0.0000 -29.8264 0.0000
# 4 0.0000 0.0000 0.0000 14.7880 0.0000 7.1996
# 5 -31.0751 -27.2544 -29.8264 0.0000 34.9470 0.0000
# 6 0.0000 0.0000 0.0000 7.1996 0.0000 22.3564
#
#
#
# Elastic Compliance Matrix: (Units=1/GPa)
#
#
# Indices 1 2 3 4 5 6 
#
# 1 0.015344 0.011336 -0.001583 0.000000 0.021134 0.000000
# 2 0.011336 0.033912 -0.000412 0.000000 0.036176 0.000000
# 3 -0.001583 -0.000412 0.008860 0.000000 0.005833 0.000000
# 4 0.000000 0.000000 0.000000 0.080196 0.000000 -0.025826
# 5 0.021134 0.036176 0.005833 0.000000 0.080599 0.000000
# 6 0.000000 0.000000 0.000000 -0.025826 0.000000 0.053047
#
#
# Mechanical properties :
#
#
# Convention : Reuss Voigt Hill
#
# Bulk Modulus (GPa) = 13.02087 47.61765 30.31926
# Shear Modulus (GPa) = 17.92926 31.85735 24.89331
#
# Velocity S-wave (km/s) = 2.93232 3.90873 3.45519
# Velocity P-wave (km/s) = 4.20824 6.57323 5.51890
#
# Compressibility (1/GPa) = 0.07679981
#
# Stress axis : x y z
#
# Youngs Moduli (GPa) = 65.17125 29.48791 112.87232
#
# Poissons Ratio (x) = -0.33429 0.17866
# Poissons Ratio (y) = -0.73881 0.04647
# Poissons Ratio (z) = 0.10316 0.01214
#
# Static dielectric constant tensor:
#      x y z
#    x 1.734410 0.000000 -0.006990 
#    y 0.000000 1.761470 0.000000 
#    z -0.006990 0.000000 1.689280 
# 
# From -- ./inp_files/70582.got.cif
#   From: 2010.05.17/outbox.cif.g08.bks.cpg/sg15_36_cif.got.tgz:70582.got - 2010.06.03 18:47:42.
