data_PCOD9305545
_publ_section_title
;
Structure prediction by ZEFSAII (Michael W. Deem and Ramdas Pophale) SiO2 
 PCOD9305545
Probable space group: C 2/C
;
_chemical_formula_sum "Si O2"
_cell_formula_units_Z 32
_cell_length_a 16.465083
_cell_length_b 16.521995
_cell_length_c 9.163579
_cell_angle_alpha 90.000000
_cell_angle_beta 146.369718
_cell_angle_gamma 90.000000
_cell_volume 1380.604675
_symmetry_space_group_name_H-M "C 2/C"
_symmetry_group_IT_number 15
_symmetry_cell_setting 'monoclinic'
loop_
_space_group_symop_operation_xyz
x,y,z
-x,y,1/2-z
-x,-y,-z
x,-y,1/2+z
1/2+x,1/2+y,z
1/2-x,1/2+y,1/2-z
1/2-x,1/2-y,-z
1/2+x,1/2-y,1/2+z
loop_
_atom_site_type_symbol
_atom_site_label
_atom_site_fract_x
_atom_site_fract_y
_atom_site_fract_z
Si Si1 0.114047 0.159793 0.053414
Si Si2 0.656862 0.840824 0.142691
Si Si3 0.836305 0.603894 0.162229
Si Si4 0.863540 0.948026 0.642049
O O1 0.116973 0.249456 0.124289
O O2 0.268711 0.140128 0.208171
O O3 0.084269 0.092394 0.130022
O O4 0.000000 0.160030 0.750000
O O5 0.782992 0.878458 0.428499
O O6 0.697143 0.842117 0.031093
O O7 0.511595 0.896568 0.937363
O O8 0.754212 0.519220 0.011884
O O9 0.000000 0.977014 0.750000
#
# Coordination Sequence:
#
# PCOD9305545 Si02
#       4
#     8   8   8   8
#     4  12  25  45  73 104 143 194 233 292 353 425
#     4  11  25  46  72 104 147 187 235 292 356 426
#     4  11  24  45  74 102 143 188 237 285 362 416
#     4  12  27  45  71 110 145 183 241 296 351 416
#
# _framework density 23.178249999999998
#
# number of rings (size 3 to 8) (size 9 to 14) (size 15 to 20)
#    0.000    0.500    2.500    6.000    3.500    6.000 
#    0.000    0.000    0.000    0.000    0.000    0.000 
#    0.000    0.000    0.000    0.000    0.000    0.000 
#
# Total GULP energy -89674.155659 kJ/mol
# GULP energy per Si atom -5604.634729 kJ/mol
# Density = 2.312550 g / cm^3
# Si number density = 23.178250 Si / 1000 Ang^3
#
#
#
# Elastic Constant Matrix: (Units=GPa)
#
#
# Indices 1 2 3 4 5 6 
#
# 1 98.3121 16.4444 5.5996 0.0000 6.9024 0.0000
# 2 16.4444 133.1746 21.9537 0.0000 2.6461 0.0000
# 3 5.5996 21.9537 83.3559 0.0000 -7.4238 0.0000
# 4 0.0000 0.0000 0.0000 -1.5093 0.0000 -1.7098
# 5 6.9024 2.6461 -7.4238 0.0000 23.3474 0.0000
# 6 0.0000 0.0000 0.0000 -1.7098 0.0000 33.0338
#
#
#
# Elastic Compliance Matrix: (Units=1/GPa)
#
#
# Indices 1 2 3 4 5 6 
#
# 1 0.010628 -0.001132 -0.000704 0.000000 -0.003238 0.000000
# 2 -0.001132 0.008028 -0.002151 0.000000 -0.001259 0.000000
# 3 -0.000704 -0.002151 0.013019 0.000000 0.004592 0.000000
# 4 0.000000 0.000000 0.000000 -0.625866 0.000000 -0.032394
# 5 -0.003238 -0.001259 0.004592 0.000000 0.045391 0.000000
# 6 0.000000 0.000000 0.000000 -0.032394 0.000000 0.028595
#
#
# Mechanical properties :
#
#
# Convention : Reuss Voigt Hill
#
# Bulk Modulus (GPa) = 42.18932 44.75977 43.47454
# Shear Modulus (GPa) = -9.91417 29.03071 9.55827
#
# Velocity S-wave (km/s) = -2.07042 3.54290 2.03292
# Velocity P-wave (km/s) = 3.53922 6.00743 4.93028
#
# Compressibility (1/GPa) = 0.02370268
#
# Stress axis : x y z
#
# Youngs Moduli (GPa) = 94.08696 124.56025 76.80855
#
# Poissons Ratio (x) = 0.14100 0.05409
# Poissons Ratio (y) = 0.10650 0.16518
# Poissons Ratio (z) = 0.06626 0.26787
#
# Static dielectric constant tensor:
#      x y z
#    x 1.861660 0.000000 0.020730 
#    y 0.000000 1.863560 0.000000 
#    z 0.020730 0.000000 1.853500 
# 
# From -- ./inp_files/40475.got.cif
#   From: 2010.05.17/outbox.cif.g08.bks.cpg/sg15_21_cif.got.tgz:40475.got - 2010.06.03 18:47:42.
