data_PCOD9305738
_publ_section_title
;
Structure prediction by ZEFSAII (Michael W. Deem and Ramdas Pophale) SiO2 
 PCOD9305738
Probable space group: C 2/C
;
_chemical_formula_sum "Si O2"
_cell_formula_units_Z 40
_cell_length_a 19.859291
_cell_length_b 13.189612
_cell_length_c 9.166893
_cell_angle_alpha 90.000000
_cell_angle_beta 142.070263
_cell_angle_gamma 90.000000
_cell_volume 1475.969425
_symmetry_space_group_name_H-M "C 2/C"
_symmetry_group_IT_number 15
_symmetry_cell_setting 'monoclinic'
loop_
_space_group_symop_operation_xyz
x,y,z
-x,y,1/2-z
-x,-y,-z
x,-y,1/2+z
1/2+x,1/2+y,z
1/2-x,1/2+y,1/2-z
1/2-x,1/2-y,-z
1/2+x,1/2-y,1/2+z
loop_
_atom_site_type_symbol
_atom_site_label
_atom_site_fract_x
_atom_site_fract_y
_atom_site_fract_z
Si Si1 0.645969 0.811172 0.878932
Si Si2 0.461907 0.112113 0.846667
Si Si3 0.607327 0.676913 0.334978
Si Si4 0.792936 0.459539 0.283274
Si Si5 0.608431 0.620914 0.008114
O O1 0.557897 0.829712 0.601018
O O2 0.707692 0.624904 0.584772
O O3 0.610798 0.734495 0.947809
O O4 0.673124 0.918141 0.000534
O O5 0.500000 0.076373 0.750000
O O6 0.377643 0.203133 0.661763
O O7 0.397305 0.043461 0.854087
O O8 0.500000 0.666194 0.250000
O O9 0.720445 0.438870 0.663616
O O10 0.592887 0.625254 0.153707
O O11 0.750000 0.250000 0.500000
O O12 0.500000 0.572042 0.750000
#
# Coordination Sequence:
#
# PCOD9305738 Si02
#       5
#     8   8   8   8   8
#     4  12  26  50  82 117 157 217 272 333 409 483
#     4  11  24  50  84 114 156 215 273 334 403 482
#     4  11  24  46  78 116 152 205 272 337 399 467
#     4  12  27  45  79 120 162 208 262 335 413 475
#     4  12  27  49  81 120 163 209 271 340 400 487
#
# _framework density 27.100833000000002
#
# number of rings (size 3 to 8) (size 9 to 14) (size 15 to 20)
#    0.000    0.400    4.000    4.200    5.600    1.600 
#    0.000    3.000    4.400    0.000    0.000    0.000 
#    0.000    0.000    0.000    0.000    0.000    0.000 
#
# Total GULP energy -112314.377941 kJ/mol
# GULP energy per Si atom -5615.718897 kJ/mol
# Density = 2.703915 g / cm^3
# Si number density = 27.100833 Si / 1000 Ang^3
#
#
#
# Elastic Constant Matrix: (Units=GPa)
#
#
# Indices 1 2 3 4 5 6 
#
# 1 220.6697 26.9132 70.3896 0.0000 -2.9675 0.0000
# 2 26.9132 99.4252 44.8915 0.0000 -1.3190 0.0000
# 3 70.3896 44.8915 179.5647 0.0000 -24.5212 0.0000
# 4 0.0000 0.0000 0.0000 54.5556 0.0000 -2.5113
# 5 -2.9675 -1.3190 -24.5212 0.0000 50.6149 0.0000
# 6 0.0000 0.0000 0.0000 -2.5113 0.0000 54.0910
#
#
#
# Elastic Compliance Matrix: (Units=1/GPa)
#
#
# Indices 1 2 3 4 5 6 
#
# 1 0.005228 -0.000515 -0.002014 0.000000 -0.000682 0.000000
# 2 -0.000515 0.011452 -0.002810 0.000000 -0.001093 0.000000
# 3 -0.002014 -0.002810 0.007533 0.000000 0.003458 0.000000
# 4 0.000000 0.000000 0.000000 0.018369 0.000000 0.000853
# 5 -0.000682 -0.001093 0.003458 0.000000 0.021364 0.000000
# 6 0.000000 0.000000 0.000000 0.000853 0.000000 0.018527
#
#
# Mechanical properties :
#
#
# Convention : Reuss Voigt Hill
#
# Bulk Modulus (GPa) = 73.88521 87.11646 80.50083
# Shear Modulus (GPa) = 51.19697 55.68334 53.44015
#
# Velocity S-wave (km/s) = 4.35113 4.53777 4.44543
# Velocity P-wave (km/s) = 7.25020 7.72465 7.49118
#
# Compressibility (1/GPa) = 0.01353451
#
# Stress axis : x y z
#
# Youngs Moduli (GPa) = 191.29185 87.32408 132.74458
#
# Poissons Ratio (x) = 0.04496 0.26731
# Poissons Ratio (y) = 0.09850 0.37306
# Poissons Ratio (z) = 0.38521 0.24541
#
# Static dielectric constant tensor:
#      x y z
#    x 2.108090 0.000000 0.054570 
#    y 0.000000 2.162430 0.000000 
#    z 0.054570 0.000000 2.096320 
# 
# From -- ./inp_files/48146.got.cif
#   From: 2010.05.17/outbox.cif.g08.bks.cpg/sg15_25_cif.got.tgz:48146.got - 2010.06.03 18:47:42.
