data_PCOD9305805
_publ_section_title
;
Structure prediction by ZEFSAII (Michael W. Deem and Ramdas Pophale) SiO2 
 PCOD9305805
Probable space group: C 2/C
;
_chemical_formula_sum "Si O2"
_cell_formula_units_Z 40
_cell_length_a 13.614998
_cell_length_b 23.753115
_cell_length_c 8.989785
_cell_angle_alpha 90.000000
_cell_angle_beta 139.190116
_cell_angle_gamma 90.000000
_cell_volume 1900.058897
_symmetry_space_group_name_H-M "C 2/C"
_symmetry_group_IT_number 15
_symmetry_cell_setting 'monoclinic'
loop_
_space_group_symop_operation_xyz
x,y,z
-x,y,1/2-z
-x,-y,-z
x,-y,1/2+z
1/2+x,1/2+y,z
1/2-x,1/2+y,1/2-z
1/2-x,1/2-y,-z
1/2+x,1/2-y,1/2+z
loop_
_atom_site_type_symbol
_atom_site_label
_atom_site_fract_x
_atom_site_fract_y
_atom_site_fract_z
Si Si1 0.893583 0.851620 0.342444
Si Si2 0.135561 0.739972 0.000507
Si Si3 0.767387 0.849605 0.876963
Si Si4 0.104947 0.035019 0.504988
Si Si5 0.895688 0.536289 0.273886
O O1 0.900052 0.799838 0.463692
O O2 0.832723 0.909577 0.341935
O O3 0.065719 0.863581 0.491811
O O4 0.796222 0.836771 0.084502
O O5 0.000000 0.713875 0.750000
O O6 0.250000 0.750000 0.000000
O O7 0.200144 0.700862 0.203958
O O8 0.657097 0.902415 0.734070
O O9 0.237914 0.997795 0.586052
O O10 0.000000 0.000000 0.500000
O O11 0.000000 0.054684 0.250000
O O12 0.000000 0.542790 0.250000
O O13 0.000000 0.500000 0.500000
#
# Coordination Sequence:
#
# PCOD9305805 Si02
#       5
#     8   8   8   8   8
#     4  11  24  47  74 104 137 193 250 287 350 445
#     4  12  26  46  72 107 143 181 240 301 363 426
#     4  11  25  47  73 100 147 191 239 296 361 431
#     4  12  24  44  77 103 140 194 247 293 353 441
#     4  12  27  45  67 109 147 181 234 301 363 415
#
# _framework density 21.051977999999998
#
# number of rings (size 3 to 8) (size 9 to 14) (size 15 to 20)
#    0.000    0.400    4.000    4.800    0.000    4.000 
#    3.600    0.000    0.000    0.000    0.000    0.000 
#    0.000    0.000    0.000    0.000    0.000    0.000 
#
# Total GULP energy -111803.895110 kJ/mol
# GULP energy per Si atom -5590.194756 kJ/mol
# Density = 2.100406 g / cm^3
# Si number density = 21.051978 Si / 1000 Ang^3
#
#
#
# Elastic Constant Matrix: (Units=GPa)
#
#
# Indices 1 2 3 4 5 6 
#
# 1 118.4159 53.0376 32.4023 0.0000 -1.2992 0.0000
# 2 53.0376 122.5915 39.5342 0.0000 -14.3623 0.0000
# 3 32.4023 39.5342 113.5394 0.0000 -11.8140 0.0000
# 4 0.0000 0.0000 0.0000 39.9469 0.0000 -0.1295
# 5 -1.2992 -14.3623 -11.8140 0.0000 37.7221 0.0000
# 6 0.0000 0.0000 0.0000 -0.1295 0.0000 33.3233
#
#
#
# Elastic Compliance Matrix: (Units=1/GPa)
#
#
# Indices 1 2 3 4 5 6 
#
# 1 0.010854 -0.004337 -0.001778 0.000000 -0.001834 0.000000
# 2 -0.004337 0.011172 -0.002300 0.000000 0.003384 0.000000
# 3 -0.001778 -0.002300 0.010356 0.000000 0.002306 0.000000
# 4 0.000000 0.000000 0.000000 0.025034 0.000000 0.000097
# 5 -0.001834 0.003384 0.002306 0.000000 0.028457 0.000000
# 6 0.000000 0.000000 0.000000 0.000097 0.000000 0.030009
#
#
# Mechanical properties :
#
#
# Convention : Reuss Voigt Hill
#
# Bulk Modulus (GPa) = 64.30694 67.16612 65.73653
# Shear Modulus (GPa) = 36.25914 37.50330 36.88122
#
# Velocity S-wave (km/s) = 4.15464 4.22532 4.19013
# Velocity P-wave (km/s) = 7.32310 7.46850 7.39616
#
# Compressibility (1/GPa) = 0.01555042
#
# Stress axis : x y z
#
# Youngs Moduli (GPa) = 92.13299 89.51082 96.56377
#
# Poissons Ratio (x) = 0.38823 0.17171
# Poissons Ratio (y) = 0.39960 0.22211
# Poissons Ratio (z) = 0.16383 0.20589
#
# Static dielectric constant tensor:
#      x y z
#    x 1.672990 0.000000 -0.025960 
#    y 0.000000 2.060780 0.000000 
#    z -0.025960 0.000000 1.737260 
# 
# From -- ./inp_files/41935.got.cif
#   From: 2010.05.17/outbox.cif.g08.bks.cpg/sg15_21_cif.got.tgz:41935.got - 2010.06.03 18:47:42.
