data_PCOD9305841
_publ_section_title
;
Structure prediction by ZEFSAII (Michael W. Deem and Ramdas Pophale) SiO2 
 PCOD9305841
Probable space group: C 2/C
;
_chemical_formula_sum "Si O2"
_cell_formula_units_Z 40
_cell_length_a 23.405808
_cell_length_b 6.853219
_cell_length_c 9.366200
_cell_angle_alpha 90.000000
_cell_angle_beta 73.806248
_cell_angle_gamma 90.000000
_cell_volume 1442.777979
_symmetry_space_group_name_H-M "C 2/C"
_symmetry_group_IT_number 15
_symmetry_cell_setting 'monoclinic'
loop_
_space_group_symop_operation_xyz
x,y,z
-x,y,1/2-z
-x,-y,-z
x,-y,1/2+z
1/2+x,1/2+y,z
1/2-x,1/2+y,1/2-z
1/2-x,1/2-y,-z
1/2+x,1/2-y,1/2+z
loop_
_atom_site_type_symbol
_atom_site_label
_atom_site_fract_x
_atom_site_fract_y
_atom_site_fract_z
Si Si1 0.452537 0.628116 0.155571
Si Si2 0.117020 0.429016 0.604016
Si Si3 0.295053 0.621288 0.060104
Si Si4 0.450201 0.808577 0.573517
Si Si5 0.320869 0.276089 0.848977
O O1 0.500000 0.597392 0.250000
O O2 0.482462 0.798365 0.036850
O O3 0.389817 0.677463 0.267028
O O4 0.441035 0.425530 0.083313
O O5 0.199946 0.901082 0.500958
O O6 0.093382 0.580873 0.503442
O O7 0.172632 0.544254 0.637917
O O8 0.067108 0.379343 0.756220
O O9 0.357899 0.731291 0.980999
O O10 0.285848 0.648011 0.234809
O O11 0.250000 0.750000 0.000000
#
# Coordination Sequence:
#
# PCOD9305841 Si02
#       5
#     8   8   8   8   8
#     4  11  24  47  77 114 160 208 252 320 394 467
#     4  12  25  51  79 114 156 207 269 321 391 480
#     4  12  31  52  82 114 155 208 268 341 403 464
#     4  11  25  46  77 111 159 205 258 313 388 473
#     4  12  27  51  79 112 161 200 263 328 392 476
#
# _framework density 27.724294
#
# number of rings (size 3 to 8) (size 9 to 14) (size 15 to 20)
#    0.000    0.400    6.000    1.200    5.600    1.600 
#    7.200    0.000    0.000    3.600    0.000    0.000 
#    0.000    0.000    0.000    0.000    0.000    0.000 
#
# Total GULP energy -112240.841139 kJ/mol
# GULP energy per Si atom -5612.042057 kJ/mol
# Density = 2.766119 g / cm^3
# Si number density = 27.724294 Si / 1000 Ang^3
#
#
#
# Elastic Constant Matrix: (Units=GPa)
#
#
# Indices 1 2 3 4 5 6 
#
# 1 98.3007 16.4841 18.0429 0.0000 -7.0567 0.0000
# 2 16.4841 127.4844 58.1050 0.0000 -5.2823 0.0000
# 3 18.0429 58.1050 168.3239 0.0000 -4.2288 0.0000
# 4 0.0000 0.0000 0.0000 64.4255 0.0000 -11.2482
# 5 -7.0567 -5.2823 -4.2288 0.0000 50.0786 0.0000
# 6 0.0000 0.0000 0.0000 -11.2482 0.0000 55.9461
#
#
#
# Elastic Compliance Matrix: (Units=1/GPa)
#
#
# Indices 1 2 3 4 5 6 
#
# 1 0.010570 -0.000962 -0.000768 0.000000 0.001323 0.000000
# 2 -0.000962 0.009422 -0.003134 0.000000 0.000594 0.000000
# 3 -0.000768 -0.003134 0.007109 0.000000 0.000162 0.000000
# 4 0.000000 0.000000 0.000000 0.016086 0.000000 0.003234
# 5 0.001323 0.000594 0.000162 0.000000 0.020231 0.000000
# 6 0.000000 0.000000 0.000000 0.003234 0.000000 0.018525
#
#
# Mechanical properties :
#
#
# Convention : Reuss Voigt Hill
#
# Bulk Modulus (GPa) = 57.56080 64.37475 60.96778
# Shear Modulus (GPa) = 51.30189 54.18852 52.74521
#
# Velocity S-wave (km/s) = 4.30633 4.42583 4.36649
# Velocity P-wave (km/s) = 6.74781 7.02761 6.88913
#
# Compressibility (1/GPa) = 0.01737293
#
# Stress axis : x y z
#
# Youngs Moduli (GPa) = 94.60670 106.13872 140.66228
#
# Poissons Ratio (x) = 0.10211 0.10799
# Poissons Ratio (y) = 0.09101 0.44088
# Poissons Ratio (z) = 0.07263 0.33267
#
# Static dielectric constant tensor:
#      x y z
#    x 2.289520 0.000000 0.002950 
#    y 0.000000 2.203640 0.000000 
#    z 0.002950 0.000000 2.155910 
# 
# From -- ./inp_files/179508.got.cif
#   From: 2010.05.17/outbox.cif.g08.bks.cpg/sg15_90_cif.got.tgz:179508.got - 2010.06.03 18:47:42.
