data_PCOD9305143
_publ_section_title
;
Structure prediction by ZEFSAII (Michael W. Deem and Ramdas Pophale) SiO2 
 PCOD9305143
Probable space group: C 2/C
;
_chemical_formula_sum "Si O2"
_cell_formula_units_Z 64
_cell_length_a 11.135045
_cell_length_b 14.312375
_cell_length_c 18.521066
_cell_angle_alpha 90.000000
_cell_angle_beta 88.312285
_cell_angle_gamma 90.000000
_cell_volume 2950.402204
_symmetry_space_group_name_H-M "C 2/C"
_symmetry_group_IT_number 15
_symmetry_cell_setting 'monoclinic'
loop_
_space_group_symop_operation_xyz
x,y,z
-x,y,1/2-z
-x,-y,-z
x,-y,1/2+z
1/2+x,1/2+y,z
1/2-x,1/2+y,1/2-z
1/2-x,1/2-y,-z
1/2+x,1/2-y,1/2+z
loop_
_atom_site_type_symbol
_atom_site_label
_atom_site_fract_x
_atom_site_fract_y
_atom_site_fract_z
Si Si1 0.181417 0.154581 0.482131
Si Si2 0.515627 0.117114 0.664365
Si Si3 0.175554 0.646978 0.427877
Si Si4 0.641586 0.792550 0.763368
Si Si5 0.071951 0.765747 0.551400
Si Si6 0.772285 0.552457 0.609491
Si Si7 0.142677 0.923551 0.253747
Si Si8 0.794018 0.453951 0.849454
O O1 0.250000 0.250000 0.500000
O O2 0.178393 0.100171 0.557851
O O3 0.258813 0.092945 0.425220
O O4 0.051282 0.177438 0.451788
O O5 0.500000 0.130464 0.750000
O O6 0.580844 0.201482 0.622443
O O7 0.384677 0.115529 0.630178
O O8 0.586715 0.019058 0.652142
O O9 0.160556 0.680762 0.346179
O O10 0.082216 0.697578 0.482062
O O11 0.309790 0.671041 0.452141
O O12 0.167924 0.536401 0.428748
O O13 0.500000 0.794412 0.750000
O O14 0.681442 0.685367 0.750758
O O15 0.696174 0.869102 0.708186
O O16 0.704803 0.526878 0.684398
O O17 0.000000 0.928367 0.250000
O O18 0.191735 0.974739 0.323579
#
# Coordination Sequence:
#
# PCOD9305143 Si02
#       8
#     8   8   8   8   8   8   8   8
#     4  12  28  45  72 105 143 187 238 292 362 420
#     4  12  24  46  73 104 140 182 242 298 352 419
#     4  11  25  47  69 101 142 184 234 288 359 418
#     4  11  24  42  74 102 141 185 235 289 352 428
#     4  11  28  46  69 103 141 189 234 294 353 426
#     4  12  25  46  70 102 138 186 235 291 356 423
#     4  11  26  45  68 105 144 186 230 293 354 421
#     4  12  25  45  73 108 139 187 240 291 355 428
#
# _framework density 21.691959000000001
#
# number of rings (size 3 to 8) (size 9 to 14) (size 15 to 20)
#    0.000    0.500    3.750    3.375    8.750    2.500 
#    0.000    0.000    0.000    0.000    0.000    0.000 
#    0.000    0.000    0.000    0.000    0.000    0.000 
#
# Total GULP energy -179061.332691 kJ/mol
# GULP energy per Si atom -5595.666647 kJ/mol
# Density = 2.164259 g / cm^3
# Si number density = 21.691959 Si / 1000 Ang^3
#
#
#
# Elastic Constant Matrix: (Units=GPa)
#
#
# Indices 1 2 3 4 5 6 
#
# 1 65.1086 12.1914 11.9642 0.0000 8.1664 0.0000
# 2 12.1914 66.3552 20.4956 0.0000 14.2415 0.0000
# 3 11.9642 20.4956 91.0334 0.0000 4.7511 0.0000
# 4 0.0000 0.0000 0.0000 34.6714 0.0000 2.4053
# 5 8.1664 14.2415 4.7511 0.0000 28.5395 0.0000
# 6 0.0000 0.0000 0.0000 2.4053 0.0000 30.4129
#
#
#
# Elastic Compliance Matrix: (Units=1/GPa)
#
#
# Indices 1 2 3 4 5 6 
#
# 1 0.016425 -0.001768 -0.001575 0.000000 -0.003555 0.000000
# 2 -0.001768 0.018173 -0.003442 0.000000 -0.007990 0.000000
# 3 -0.001575 -0.003442 0.011958 0.000000 0.000178 0.000000
# 4 0.000000 0.000000 0.000000 0.029001 0.000000 -0.002294
# 5 -0.003555 -0.007990 0.000178 0.000000 0.040014 0.000000
# 6 0.000000 0.000000 0.000000 -0.002294 0.000000 0.033062
#
#
# Mechanical properties :
#
#
# Convention : Reuss Voigt Hill
#
# Bulk Modulus (GPa) = 30.31646 34.64439 32.48043
# Shear Modulus (GPa) = 28.86838 30.58116 29.72477
#
# Velocity S-wave (km/s) = 3.65202 3.75879 3.70579
# Velocity P-wave (km/s) = 5.63819 5.90286 5.77204
#
# Compressibility (1/GPa) = 0.03298538
#
# Stress axis : x y z
#
# Youngs Moduli (GPa) = 60.88122 55.02584 83.62810
#
# Poissons Ratio (x) = 0.09730 0.13172
# Poissons Ratio (y) = 0.10765 0.28787
# Poissons Ratio (z) = 0.09589 0.18941
#
# Static dielectric constant tensor:
#      x y z
#    x 1.777160 0.000000 0.024830 
#    y 0.000000 1.790640 0.000000 
#    z 0.024830 0.000000 1.800390 
# 
# From -- ./inp_files/198335.got.cif
#   From: 2010.05.17/outbox.cif.g08.bks.cpg/sg15_100_cif.got.tgz:198335.got - 2010.06.03 18:47:42.
