data_PCOD9305351
_publ_section_title
;
Structure prediction by ZEFSAII (Michael W. Deem and Ramdas Pophale) SiO2 
 PCOD9305351
Probable space group: C 2/C
;
_chemical_formula_sum "Si O2"
_cell_formula_units_Z 40
_cell_length_a 17.114515
_cell_length_b 22.646429
_cell_length_c 7.851815
_cell_angle_alpha 90.000000
_cell_angle_beta 143.593519
_cell_angle_gamma 90.000000
_cell_volume 1806.185590
_symmetry_space_group_name_H-M "C 2/C"
_symmetry_group_IT_number 15
_symmetry_cell_setting 'monoclinic'
loop_
_space_group_symop_operation_xyz
x,y,z
-x,y,1/2-z
-x,-y,-z
x,-y,1/2+z
1/2+x,1/2+y,z
1/2-x,1/2+y,1/2-z
1/2-x,1/2-y,-z
1/2+x,1/2-y,1/2+z
loop_
_atom_site_type_symbol
_atom_site_label
_atom_site_fract_x
_atom_site_fract_y
_atom_site_fract_z
Si Si1 0.755081 0.531105 0.155331
Si Si2 0.000000 0.593580 0.750000
Si Si3 0.000000 0.895824 0.250000
Si Si4 0.938084 0.189960 0.333486
Si Si5 0.368644 0.820512 0.285058
Si Si6 0.653121 0.078151 0.536416
O O1 0.877291 0.554957 0.478164
O O2 0.773349 0.460516 0.190141
O O3 0.622525 0.560134 0.988945
O O4 0.773498 0.557681 0.001905
O O5 0.956121 0.634583 0.828862
O O6 0.997731 0.853691 0.414144
O O7 0.941212 0.257974 0.402996
O O8 0.000000 0.184778 0.250000
O O9 0.779457 0.180780 0.049540
O O10 0.346628 0.852306 0.427040
O O11 0.500000 0.061954 0.250000
#
# Coordination Sequence:
#
# PCOD9305351 Si02
#       6
#     8   4   4   8   8   8
#     4  12  26  44  69 103 140 184 236 292 350 424
#     4  12  20  44  69  97 138 180 232 290 346 410
#     4  12  28  46  71 109 146 188 236 282 362 434
#     4  11  25  47  70 104 146 187 231 293 358 424
#     4  11  24  44  71 100 138 185 236 292 351 417
#     4  12  24  43  71  99 135 184 242 296 345 414
#
# _framework density 22.146117
#
# number of rings (size 3 to 8) (size 9 to 14) (size 15 to 20)
#    0.000    0.400    6.000    3.000    1.400    0.800 
#    1.800    4.000    0.000    0.000    0.000    0.000 
#    0.000    0.000    0.000    0.000    0.000    0.000 
#
# Total GULP energy -111761.972045 kJ/mol
# GULP energy per Si atom -5588.098602 kJ/mol
# Density = 2.209571 g / cm^3
# Si number density = 22.146117 Si / 1000 Ang^3
#
#
#
# Elastic Constant Matrix: (Units=GPa)
#
#
# Indices 1 2 3 4 5 6 
#
# 1 81.6311 22.7222 11.7129 0.0000 -10.0596 0.0000
# 2 22.7222 103.7695 36.8065 0.0000 2.5413 0.0000
# 3 11.7129 36.8065 88.8349 0.0000 12.7173 0.0000
# 4 0.0000 0.0000 0.0000 -1.9706 0.0000 16.1609
# 5 -10.0596 2.5413 12.7173 0.0000 32.5242 0.0000
# 6 0.0000 0.0000 0.0000 16.1609 0.0000 -1.1072
#
#
#
# Elastic Compliance Matrix: (Units=1/GPa)
#
#
# Indices 1 2 3 4 5 6 
#
# 1 0.013813 -0.002633 -0.001453 0.000000 0.005046 0.000000
# 2 -0.002633 0.011830 -0.004561 0.000000 0.000045 0.000000
# 3 -0.001453 -0.004561 0.014143 0.000000 -0.005623 0.000000
# 4 0.000000 0.000000 0.000000 0.004275 0.000000 0.062399
# 5 0.005046 0.000045 -0.005623 0.000000 0.034502 0.000000
# 6 0.000000 0.000000 0.000000 0.062399 0.000000 0.007609
#
#
# Mechanical properties :
#
#
# Convention : Reuss Voigt Hill
#
# Bulk Modulus (GPa) = 44.45745 46.30209 45.37977
# Shear Modulus (GPa) = 45.06021 19.42221 32.24121
#
# Velocity S-wave (km/s) = 4.51563 2.96464 3.81969
# Velocity P-wave (km/s) = 6.87794 5.71592 6.32368
#
# Compressibility (1/GPa) = 0.02249342
#
# Stress axis : x y z
#
# Youngs Moduli (GPa) = 72.39325 84.53215 70.70667
#
# Poissons Ratio (x) = 0.22257 0.10272
# Poissons Ratio (y) = 0.19061 0.32247
# Poissons Ratio (z) = 0.10517 0.38552
#
# Static dielectric constant tensor:
#      x y z
#    x 1.870770 0.000000 -0.039110 
#    y 0.000000 1.841690 0.000000 
#    z -0.039110 0.000000 1.827150 
# 
# From -- ./inp_files/30238.got.cif
#   From: 2010.05.17/outbox.cif.g08.bks.cpg/sg15_16_cif.got.tgz:30238.got - 2010.06.03 18:47:42.
