data_PCOD9305825
_publ_section_title
;
Structure prediction by ZEFSAII (Michael W. Deem and Ramdas Pophale) SiO2 
 PCOD9305825
Probable space group: C 2/C
;
_chemical_formula_sum "Si O2"
_cell_formula_units_Z 32
_cell_length_a 8.278167
_cell_length_b 22.343123
_cell_length_c 11.446889
_cell_angle_alpha 90.000000
_cell_angle_beta 143.189289
_cell_angle_gamma 90.000000
_cell_volume 1268.580315
_symmetry_space_group_name_H-M "C 2/C"
_symmetry_group_IT_number 15
_symmetry_cell_setting 'monoclinic'
loop_
_space_group_symop_operation_xyz
x,y,z
-x,y,1/2-z
-x,-y,-z
x,-y,1/2+z
1/2+x,1/2+y,z
1/2-x,1/2+y,1/2-z
1/2-x,1/2-y,-z
1/2+x,1/2-y,1/2+z
loop_
_atom_site_type_symbol
_atom_site_label
_atom_site_fract_x
_atom_site_fract_y
_atom_site_fract_z
Si Si1 0.954121 0.852298 0.359198
Si Si2 0.876898 0.397023 0.982077
Si Si3 0.769115 0.740934 0.393241
Si Si4 0.909019 0.060879 0.387728
O O1 0.928538 0.789809 0.410230
O O2 0.160424 0.893110 0.549442
O O3 0.000000 0.843445 0.250000
O O4 0.675054 0.890386 0.204205
O O5 0.815971 0.329634 0.900700
O O6 0.826931 0.441566 0.845249
O O7 0.659823 0.412843 0.956132
O O8 0.968243 0.749207 0.636780
O O9 0.000000 0.000000 0.500000
#
# Coordination Sequence:
#
# PCOD9305825 Si02
#       4
#     8   8   8   8
#     4  12  27  44  69 111 150 187 239 304 365 430
#     4  11  24  47  76 101 141 196 237 298 370 431
#     4  12  19  42  75 102 139 185 240 291 364 444
#     4  11  25  47  73 104 137 188 255 294 359 440
#
# _framework density 25.225048000000001
#
# number of rings (size 3 to 8) (size 9 to 14) (size 15 to 20)
#    0.000    0.500    7.500    0.750    3.500    3.000 
#    4.500    0.000    0.000    0.000    0.000    0.000 
#    0.000    0.000    0.000    0.000    0.000    0.000 
#
# Total GULP energy -89509.534295 kJ/mol
# GULP energy per Si atom -5594.345893 kJ/mol
# Density = 2.516763 g / cm^3
# Si number density = 25.225048 Si / 1000 Ang^3
#
#
#
# Elastic Constant Matrix: (Units=GPa)
#
#
# Indices 1 2 3 4 5 6 
#
# 1 109.8546 41.9130 46.7930 0.0000 -52.3172 0.0000
# 2 41.9130 154.3168 37.2267 0.0000 -37.6980 0.0000
# 3 46.7930 37.2267 156.9719 0.0000 -41.8441 0.0000
# 4 0.0000 0.0000 0.0000 56.6565 0.0000 -27.6202
# 5 -52.3172 -37.6980 -41.8441 0.0000 65.7016 0.0000
# 6 0.0000 0.0000 0.0000 -27.6202 0.0000 15.4973
#
#
#
# Elastic Compliance Matrix: (Units=1/GPa)
#
#
# Indices 1 2 3 4 5 6 
#
# 1 0.015161 -0.001215 -0.001444 0.000000 0.010455 0.000000
# 2 -0.001215 0.007711 -0.000656 0.000000 0.003039 0.000000
# 3 -0.001444 -0.000656 0.007889 0.000000 0.003498 0.000000
# 4 0.000000 0.000000 0.000000 0.134586 0.000000 0.239866
# 5 0.010455 0.003039 0.003498 0.000000 0.027517 0.000000
# 6 0.000000 0.000000 0.000000 0.239866 0.000000 0.492030
#
#
# Mechanical properties :
#
#
# Convention : Reuss Voigt Hill
#
# Bulk Modulus (GPa) = 41.44312 74.77875 58.11093
# Shear Modulus (GPa) = 7.14726 47.25177 27.19951
#
# Velocity S-wave (km/s) = 1.68510 4.33275 3.28727
# Velocity P-wave (km/s) = 4.50012 7.39860 6.12333
#
# Compressibility (1/GPa) = 0.02412946
#
# Stress axis : x y z
#
# Youngs Moduli (GPa) = 65.95846 129.68676 126.75602
#
# Poissons Ratio (x) = 0.15760 0.18306
# Poissons Ratio (y) = 0.08016 0.08320
# Poissons Ratio (z) = 0.09525 0.08513
#
# Static dielectric constant tensor:
#      x y z
#    x 1.958650 0.000000 0.021810 
#    y 0.000000 1.872840 0.000000 
#    z 0.021810 0.000000 2.254210 
# 
# From -- ./inp_files/79634.got.cif
#   From: 2010.05.17/outbox.cif.g08.bks.cpg/sg15_40_cif.got.tgz:79634.got - 2010.06.03 18:47:42.
