data_PCOD9305260
_publ_section_title
;
Structure prediction by ZEFSAII (Michael W. Deem and Ramdas Pophale) SiO2 
 PCOD9305260
Probable space group: C 2/C
;
_chemical_formula_sum "Si O2"
_cell_formula_units_Z 36
_cell_length_a 21.351329
_cell_length_b 7.739631
_cell_length_c 9.088503
_cell_angle_alpha 90.000000
_cell_angle_beta 90.791164
_cell_angle_gamma 90.000000
_cell_volume 1501.744734
_symmetry_space_group_name_H-M "C 2/C"
_symmetry_group_IT_number 15
_symmetry_cell_setting 'monoclinic'
loop_
_space_group_symop_operation_xyz
x,y,z
-x,y,1/2-z
-x,-y,-z
x,-y,1/2+z
1/2+x,1/2+y,z
1/2-x,1/2+y,1/2-z
1/2-x,1/2-y,-z
1/2+x,1/2-y,1/2+z
loop_
_atom_site_type_symbol
_atom_site_label
_atom_site_fract_x
_atom_site_fract_y
_atom_site_fract_z
Si Si1 0.402275 0.161625 0.460763
Si Si2 0.192807 0.840538 0.643387
Si Si3 0.674544 0.976882 0.800090
Si Si4 0.111999 0.971459 0.384568
Si Si5 0.000000 0.744114 0.250000
O O1 0.379584 0.031143 0.586563
O O2 0.406620 0.352095 0.531016
O O3 0.466462 0.131793 0.374847
O O4 0.350183 0.147556 0.329764
O O5 0.192556 0.654094 0.717804
O O6 0.158315 0.964890 0.758964
O O7 0.262895 0.907545 0.621799
O O8 0.150602 0.853309 0.497803
O O9 0.052538 0.869205 0.321597
#
# Coordination Sequence:
#
# PCOD9305260 Si02
#       5
#     8   8   8   8   4
#     4  11  26  47  72 106 145 188 239 291 355 422
#     4  11  24  43  76 107 145 181 237 298 364 424
#     4  11  26  46  73 113 144 182 236 298 367 427
#     4  11  24  46  74 106 138 197 238 295 350 423
#     4  12  26  48  76 100 146 194 250 284 346 430
#
# _framework density 23.972117000000001
#
# number of rings (size 3 to 8) (size 9 to 14) (size 15 to 20)
#    0.000    0.889    2.222    3.333    3.111    6.222 
#    0.000    0.000    0.000    0.000    0.000    0.000 
#    0.000    0.000    0.000    0.000    0.000    0.000 
#
# Total GULP energy -100931.593435 kJ/mol
# GULP energy per Si atom -5607.310746 kJ/mol
# Density = 2.391756 g / cm^3
# Si number density = 23.972117 Si / 1000 Ang^3
#
#
#
# Elastic Constant Matrix: (Units=GPa)
#
#
# Indices 1 2 3 4 5 6 
#
# 1 123.4925 46.2959 62.5123 0.0000 -17.0038 0.0000
# 2 46.2959 102.7150 40.7517 0.0000 6.7607 0.0000
# 3 62.5123 40.7517 134.3557 0.0000 -9.6155 0.0000
# 4 0.0000 0.0000 0.0000 45.0167 0.0000 2.6923
# 5 -17.0038 6.7607 -9.6155 0.0000 57.9031 0.0000
# 6 0.0000 0.0000 0.0000 2.6923 0.0000 31.3456
#
#
#
# Elastic Compliance Matrix: (Units=1/GPa)
#
#
# Indices 1 2 3 4 5 6 
#
# 1 0.012212 -0.004055 -0.004212 0.000000 0.003360 0.000000
# 2 -0.004055 0.012618 -0.002157 0.000000 -0.003022 0.000000
# 3 -0.004212 -0.002157 0.010106 0.000000 0.000693 0.000000
# 4 0.000000 0.000000 0.000000 0.022329 0.000000 -0.001918
# 5 0.003360 -0.003022 0.000693 0.000000 0.018725 0.000000
# 6 0.000000 0.000000 0.000000 -0.001918 0.000000 0.032067
#
#
# Mechanical properties :
#
#
# Convention : Reuss Voigt Hill
#
# Bulk Modulus (GPa) = 70.97234 73.29811 72.13522
# Shear Modulus (GPa) = 37.42496 40.91997 39.17247
#
# Velocity S-wave (km/s) = 3.95547 4.13605 4.04677
# Velocity P-wave (km/s) = 7.10855 7.31108 7.21053
#
# Compressibility (1/GPa) = 0.01409000
#
# Stress axis : x y z
#
# Youngs Moduli (GPa) = 81.88410 79.25307 98.94682
#
# Poissons Ratio (x) = 0.32133 0.41675
# Poissons Ratio (y) = 0.33200 0.21342
# Poissons Ratio (z) = 0.34488 0.17094
#
# Static dielectric constant tensor:
#      x y z
#    x 1.866510 0.000000 -0.029450 
#    y 0.000000 1.899540 0.000000 
#    z -0.029450 0.000000 1.938800 
# 
# From -- ./inp_files/53603.got.cif
#   From: 2010.05.17/outbox.cif.g08.bks.cpg/sg15_27_cif.got.tgz:53603.got - 2010.06.03 18:47:42.
