data_PCOD9305598
_publ_section_title
;
Structure prediction by ZEFSAII (Michael W. Deem and Ramdas Pophale) SiO2 
 PCOD9305598
Probable space group: C 2/C
;
_chemical_formula_sum "Si O2"
_cell_formula_units_Z 56
_cell_length_a 18.889738
_cell_length_b 11.236451
_cell_length_c 18.615106
_cell_angle_alpha 90.000000
_cell_angle_beta 43.481992
_cell_angle_gamma 90.000000
_cell_volume 2718.873046
_symmetry_space_group_name_H-M "C 2/C"
_symmetry_group_IT_number 15
_symmetry_cell_setting 'monoclinic'
loop_
_space_group_symop_operation_xyz
x,y,z
-x,y,1/2-z
-x,-y,-z
x,-y,1/2+z
1/2+x,1/2+y,z
1/2-x,1/2+y,1/2-z
1/2-x,1/2-y,-z
1/2+x,1/2-y,1/2+z
loop_
_atom_site_type_symbol
_atom_site_label
_atom_site_fract_x
_atom_site_fract_y
_atom_site_fract_z
Si Si1 0.493455 0.337378 0.672561
Si Si2 0.102060 0.025274 0.970745
Si Si3 0.619041 0.312653 0.176235
Si Si4 0.207451 0.852773 0.265293
Si Si5 0.165818 0.343329 0.030732
Si Si6 0.737224 0.079013 0.051660
Si Si7 0.243010 0.115074 0.194603
O O1 0.500000 0.369959 0.750000
O O2 0.564361 0.419247 0.572066
O O3 0.550172 0.209652 0.621759
O O4 0.377135 0.362305 0.735340
O O5 0.158334 0.117431 0.878121
O O6 0.184774 0.930104 0.937900
O O7 0.000000 0.000000 0.000000
O O8 0.500000 0.332701 0.250000
O O9 0.638939 0.342139 0.244605
O O10 0.653812 0.178733 0.131641
O O11 0.693809 0.386891 0.068616
O O12 0.243204 0.717913 0.255338
O O13 0.265084 0.979833 0.206127
O O14 0.194919 0.367774 0.925951
O O15 0.250000 0.250000 0.000000
O O16 0.181702 0.457529 0.069738
#
# Coordination Sequence:
#
# PCOD9305598 Si02
#       7
#     8   8   8   8   8   8   8
#     4  12  25  41  71 103 135 183 243 292 350 423
#     4  12  23  39  70 101 136 181 240 289 348 426
#     4  11  26  45  71  98 139 190 235 289 364 434
#     4  12  25  45  71 101 147 180 233 298 359 423
#     4  12  22  43  70 102 136 180 239 294 346 423
#     4  11  24  46  68 101 142 181 239 298 348 429
#     4  12  25  45  70 106 140 189 231 296 363 420
#
# _framework density 20.596768999999998
#
# number of rings (size 3 to 8) (size 9 to 14) (size 15 to 20)
#    0.000    0.286    7.143    1.714    0.000    0.571 
#    2.571    0.714    0.000    0.000    0.000    0.000 
#    0.000    0.000    0.000    0.000    0.000    0.000 
#
# Total GULP energy -156125.234408 kJ/mol
# GULP energy per Si atom -5575.901229 kJ/mol
# Density = 2.054989 g / cm^3
# Si number density = 20.596769 Si / 1000 Ang^3
#
#
#
# Elastic Constant Matrix: (Units=GPa)
#
#
# Indices 1 2 3 4 5 6 
#
# 1 49.2156 23.5032 13.4734 0.0000 18.3925 0.0000
# 2 23.5032 96.7136 2.7061 0.0000 24.2454 0.0000
# 3 13.4734 2.7061 102.2589 0.0000 32.7877 0.0000
# 4 0.0000 0.0000 0.0000 23.3703 0.0000 10.2235
# 5 18.3925 24.2454 32.7877 0.0000 27.6188 0.0000
# 6 0.0000 0.0000 0.0000 10.2235 0.0000 69.3071
#
#
#
# Elastic Compliance Matrix: (Units=1/GPa)
#
#
# Indices 1 2 3 4 5 6 
#
# 1 0.028069 -0.001698 0.003006 0.000000 -0.020770 0.000000
# 2 -0.001698 0.015560 0.006182 0.000000 -0.019868 0.000000
# 3 0.003006 0.006182 0.018731 0.000000 -0.029666 0.000000
# 4 0.000000 0.000000 0.000000 0.045741 0.000000 -0.006747
# 5 -0.020770 -0.019868 -0.029666 0.000000 0.102699 0.000000
# 6 0.000000 0.000000 0.000000 -0.006747 0.000000 0.015424
#
#
# Mechanical properties :
#
#
# Convention : Reuss Voigt Hill
#
# Bulk Modulus (GPa) = 12.92968 36.39485 24.66226
# Shear Modulus (GPa) = 21.09483 37.95958 29.52720
#
# Velocity S-wave (km/s) = 3.20376 4.29766 3.79038
# Velocity P-wave (km/s) = 4.46951 6.50654 5.58174
#
# Compressibility (1/GPa) = 0.07734145
#
# Stress axis : x y z
#
# Youngs Moduli (GPa) = 35.62654 64.26553 53.38616
#
# Poissons Ratio (x) = 0.10915 -0.16049
# Poissons Ratio (y) = 0.06051 -0.33006
# Poissons Ratio (z) = -0.10710 -0.39732
#
# Static dielectric constant tensor:
#      x y z
#    x 1.708900 0.000000 -0.026710 
#    y 0.000000 1.848500 0.000000 
#    z -0.026710 0.000000 1.665390 
# 
# From -- ./inp_files/210547.got.cif
#   From: 2010.05.17/outbox.cif.g08.bks.cpg/sg15_106_cif.got.tgz:210547.got - 2010.06.03 18:47:42.
