data_PCOD9305534
_publ_section_title
;
Structure prediction by ZEFSAII (Michael W. Deem and Ramdas Pophale) SiO2 
 PCOD9305534
Probable space group: C 2/C
;
_chemical_formula_sum "Si O2"
_cell_formula_units_Z 56
_cell_length_a 14.095530
_cell_length_b 11.760542
_cell_length_c 14.107976
_cell_angle_alpha 90.000000
_cell_angle_beta 111.385844
_cell_angle_gamma 90.000000
_cell_volume 2177.665708
_symmetry_space_group_name_H-M "C 2/C"
_symmetry_group_IT_number 15
_symmetry_cell_setting 'monoclinic'
loop_
_space_group_symop_operation_xyz
x,y,z
-x,y,1/2-z
-x,-y,-z
x,-y,1/2+z
1/2+x,1/2+y,z
1/2-x,1/2+y,1/2-z
1/2-x,1/2-y,-z
1/2+x,1/2-y,1/2+z
loop_
_atom_site_type_symbol
_atom_site_label
_atom_site_fract_x
_atom_site_fract_y
_atom_site_fract_z
Si Si1 0.651609 0.374175 0.972326
Si Si2 0.861786 0.307138 0.543531
Si Si3 0.183833 0.829102 0.760259
Si Si4 0.254100 0.585545 0.733597
Si Si5 0.917419 0.915744 0.140929
Si Si6 0.011367 0.701073 0.591349
Si Si7 0.641331 0.957906 0.356684
O O1 0.678869 0.341213 0.872846
O O2 0.588227 0.490475 0.941364
O O3 0.580009 0.276835 0.987045
O O4 0.752565 0.403269 0.066960
O O5 0.750000 0.250000 0.500000
O O6 0.935274 0.208722 0.608786
O O7 0.908745 0.340788 0.458847
O O8 0.860851 0.413072 0.612290
O O9 0.260392 0.723732 0.760743
O O10 0.075323 0.786488 0.681188
O O11 0.202401 0.955552 0.723604
O O12 0.306043 0.585166 0.650007
O O13 0.146495 0.562624 0.746103
O O14 0.000000 0.945244 0.250000
O O15 0.948174 0.607475 0.624325
#
# Coordination Sequence:
#
# PCOD9305534 Si02
#       7
#     8   8   8   8   8   8   8
#     4  11  24  45  73 106 147 189 249 300 376 442
#     4  12  26  50  72 108 153 194 243 311 380 433
#     4  11  25  46  74 107 150 195 249 308 372 440
#     4  11  24  46  76 105 148 194 249 305 382 432
#     4  11  25  44  72 106 147 190 253 308 367 439
#     4  12  26  46  74 107 146 192 248 305 365 449
#     4  12  26  46  75 110 147 199 244 307 377 446
#
# _framework density 25.715610000000002
#
# number of rings (size 3 to 8) (size 9 to 14) (size 15 to 20)
#    0.000    0.571    2.857    5.571    4.000    0.571 
#    5.143    0.000    0.000    0.000    0.000    0.000 
#    0.000    0.000    0.000    0.000    0.000    0.000 
#
# Total GULP energy -156295.882654 kJ/mol
# GULP energy per Si atom -5581.995809 kJ/mol
# Density = 2.565708 g / cm^3
# Si number density = 25.715610 Si / 1000 Ang^3
#
#
#
# Elastic Constant Matrix: (Units=GPa)
#
#
# Indices 1 2 3 4 5 6 
#
# 1 134.8702 34.2289 21.1565 0.0000 -14.2687 0.0000
# 2 34.2289 162.6969 8.0745 0.0000 0.4345 0.0000
# 3 21.1565 8.0745 57.3824 0.0000 2.1425 0.0000
# 4 0.0000 0.0000 0.0000 33.2525 0.0000 -8.1377
# 5 -14.2687 0.4345 2.1425 0.0000 64.6060 0.0000
# 6 0.0000 0.0000 0.0000 -8.1377 0.0000 22.7851
#
#
#
# Elastic Compliance Matrix: (Units=1/GPa)
#
#
# Indices 1 2 3 4 5 6 
#
# 1 0.008511 -0.001648 -0.002980 0.000000 0.001990 0.000000
# 2 -0.001648 0.006509 -0.000293 0.000000 -0.000398 0.000000
# 3 -0.002980 -0.000293 0.018615 0.000000 -0.001274 0.000000
# 4 0.000000 0.000000 0.000000 0.032953 0.000000 0.011769
# 5 0.001990 -0.000398 -0.001274 0.000000 0.015963 0.000000
# 6 0.000000 0.000000 0.000000 0.011769 0.000000 0.048092
#
#
# Mechanical properties :
#
#
# Convention : Reuss Voigt Hill
#
# Bulk Modulus (GPa) = 42.03302 53.54105 47.78704
# Shear Modulus (GPa) = 33.68929 43.56135 38.62532
#
# Velocity S-wave (km/s) = 3.62342 4.12025 3.87979
# Velocity P-wave (km/s) = 5.82120 6.59552 6.22042
#
# Compressibility (1/GPa) = 0.02379082
#
# Stress axis : x y z
#
# Youngs Moduli (GPa) = 117.49838 153.63994 53.72136
#
# Poissons Ratio (x) = 0.25319 0.16010
# Poissons Ratio (y) = 0.19363 0.01576
# Poissons Ratio (z) = 0.35017 0.04508
#
# Static dielectric constant tensor:
#      x y z
#    x 2.010650 0.000000 0.016330 
#    y 0.000000 2.063520 0.000000 
#    z 0.016330 0.000000 2.170490 
# 
# From -- ./inp_files/204120.got.cif
#   From: 2010.05.17/outbox.cif.g08.bks.cpg/sg15_103_cif.got.tgz:204120.got - 2010.06.03 18:47:42.
