data_PCOD9305038
_publ_section_title
;
Structure prediction by ZEFSAII (Michael W. Deem and Ramdas Pophale) SiO2 
 PCOD9305038
Probable space group: C 2/C
;
_chemical_formula_sum "Si O2"
_cell_formula_units_Z 56
_cell_length_a 5.830029
_cell_length_b 19.164536
_cell_length_c 23.062625
_cell_angle_alpha 90.000000
_cell_angle_beta 112.283349
_cell_angle_gamma 90.000000
_cell_volume 2384.348261
_symmetry_space_group_name_H-M "C 2/C"
_symmetry_group_IT_number 15
_symmetry_cell_setting 'monoclinic'
loop_
_space_group_symop_operation_xyz
x,y,z
-x,y,1/2-z
-x,-y,-z
x,-y,1/2+z
1/2+x,1/2+y,z
1/2-x,1/2+y,1/2-z
1/2-x,1/2-y,-z
1/2+x,1/2-y,1/2+z
loop_
_atom_site_type_symbol
_atom_site_label
_atom_site_fract_x
_atom_site_fract_y
_atom_site_fract_z
Si Si1 0.798299 0.201863 0.682525
Si Si2 0.500724 0.548137 0.817475
Si Si3 0.814995 0.096098 0.123145
Si Si4 0.644028 0.326224 0.481360
Si Si5 0.449948 0.923776 0.018640
Si Si6 0.682655 0.125000 0.871770
Si Si7 0.804439 0.346098 0.623145
O O1 0.883274 0.125000 0.672182
O O2 0.517082 0.180606 0.671506
O O3 0.806711 0.263625 0.637094
O O4 0.000000 0.223227 0.750000
O O5 0.500000 0.526773 0.750000
O O6 0.645430 0.486375 0.862906
O O7 0.252562 0.569394 0.828494
O O8 0.716026 0.109501 0.048502
O O9 0.589779 0.125000 0.143186
O O10 0.100867 0.125000 0.150578
O O11 0.750000 0.250000 0.500000
O O12 0.384742 0.326083 0.423676
O O13 0.679479 0.359501 0.548502
O O14 0.812562 0.375000 0.458375
O O15 0.363714 0.923917 0.076324
O O16 0.500000 0.000000 0.000000
#
# Coordination Sequence:
#
# PCOD9305038 Si02
#       7
#     8   8   8   8   8   8   8
#     4  11  28  50  72 108 146 209 267 318 382 472
#     4  11  28  50  72 108 146 209 267 318 382 472
#     4  11  26  48  76 115 156 199 255 324 398 468
#     4  11  24  41  70 110 152 190 245 311 396 468
#     4  11  24  41  70 110 152 190 245 311 396 468
#     4  12  24  45  80 102 150 196 254 326 388 464
#     4  11  26  48  76 115 156 199 255 324 398 468
#
# _framework density 23.486502999999999
#
# number of rings (size 3 to 8) (size 9 to 14) (size 15 to 20)
#    0.000    0.857    1.429    4.286   12.000    5.714 
#    0.000    0.000    0.000    0.000    0.000    0.000 
#    0.000    0.000    0.000    0.000    0.000    0.000 
#
# Total GULP energy -155992.144217 kJ/mol
# GULP energy per Si atom -5571.148008 kJ/mol
# Density = 2.343305 g / cm^3
# Si number density = 23.486503 Si / 1000 Ang^3
#
#
#
# Elastic Constant Matrix: (Units=GPa)
#
#
# Indices 1 2 3 4 5 6 
#
# 1 140.3640 54.0476 39.0649 0.0000 1.1353 0.0000
# 2 54.0476 72.5068 -10.8323 0.0000 -1.1552 0.0000
# 3 39.0649 -10.8323 120.7704 0.0000 -1.4854 0.0000
# 4 0.0000 0.0000 0.0000 34.1324 0.0000 -0.2347
# 5 1.1353 -1.1552 -1.4854 0.0000 82.5439 0.0000
# 6 0.0000 0.0000 0.0000 -0.2347 0.0000 47.3269
#
#
#
# Elastic Compliance Matrix: (Units=1/GPa)
#
#
# Indices 1 2 3 4 5 6 
#
# 1 0.012294 -0.009898 -0.004869 0.000000 -0.000395 0.000000
# 2 -0.009898 0.021952 0.005177 0.000000 0.000537 0.000000
# 3 -0.004869 0.005177 0.010324 0.000000 0.000325 0.000000
# 4 0.000000 0.000000 0.000000 0.029299 0.000000 0.000145
# 5 -0.000395 0.000537 0.000325 0.000000 0.012134 0.000000
# 6 0.000000 0.000000 0.000000 0.000145 0.000000 0.021130
#
#
# Mechanical properties :
#
#
# Convention : Reuss Voigt Hill
#
# Bulk Modulus (GPa) = 39.38667 55.35573 47.37120
# Shear Modulus (GPa) = 37.09897 49.55805 43.32851
#
# Velocity S-wave (km/s) = 3.97871 4.59853 4.29980
# Velocity P-wave (km/s) = 6.15737 7.19831 6.69809
#
# Compressibility (1/GPa) = 0.02538930
#
# Stress axis : x y z
#
# Youngs Moduli (GPa) = 81.34143 45.55451 96.86593
#
# Poissons Ratio (x) = 0.45089 0.47166
# Poissons Ratio (y) = 0.80510 -0.50148
# Poissons Ratio (z) = 0.39607 -0.23584
#
# Static dielectric constant tensor:
#      x y z
#    x 2.452050 0.000000 -0.009450 
#    y 0.000000 1.846560 0.000000 
#    z -0.009450 0.000000 1.920750 
# 
# From -- ./inp_files/261394.got.cif
#   From: 2010.05.17/outbox.cif.g08.bks.cpg/sg15_131_cif.got.tgz:261394.got - 2010.06.03 18:47:42.
