data_PCOD9305970
_publ_section_title
;
Structure prediction by ZEFSAII (Michael W. Deem and Ramdas Pophale) SiO2 
 PCOD9305970
Probable space group: C 2/C
;
_chemical_formula_sum "Si O2"
_cell_formula_units_Z 56
_cell_length_a 12.963123
_cell_length_b 22.389097
_cell_length_c 16.139155
_cell_angle_alpha 90.000000
_cell_angle_beta 32.684766
_cell_angle_gamma 90.000000
_cell_volume 2529.496532
_symmetry_space_group_name_H-M "C 2/C"
_symmetry_group_IT_number 15
_symmetry_cell_setting 'monoclinic'
loop_
_space_group_symop_operation_xyz
x,y,z
-x,y,1/2-z
-x,-y,-z
x,-y,1/2+z
1/2+x,1/2+y,z
1/2-x,1/2+y,1/2-z
1/2-x,1/2-y,-z
1/2+x,1/2-y,1/2+z
loop_
_atom_site_type_symbol
_atom_site_label
_atom_site_fract_x
_atom_site_fract_y
_atom_site_fract_z
Si Si1 0.778425 0.138292 0.925634
Si Si2 0.000000 0.681031 0.250000
Si Si3 0.307506 0.722336 0.607154
Si Si4 0.003999 0.455002 0.574141
Si Si5 0.279970 0.237031 0.659527
Si Si6 0.000000 0.477869 0.250000
Si Si7 0.219337 0.880104 0.496414
Si Si8 0.729620 0.363902 0.675693
O O1 0.680950 0.190614 0.938805
O O2 0.000000 0.145723 0.750000
O O3 0.676331 0.146710 0.084933
O O4 0.712462 0.074362 0.938552
O O5 0.894997 0.723123 0.253681
O O6 0.535929 0.722684 0.449677
O O7 0.253894 0.699389 0.734316
O O8 0.231041 0.682119 0.584281
O O9 0.246992 0.791898 0.653696
O O10 0.859497 0.399962 0.652672
O O11 0.000000 0.500000 0.500000
O O12 0.969997 0.484416 0.686542
O O13 0.817265 0.434445 0.383265
O O14 0.291007 0.883949 0.542060
O O15 0.989905 0.880882 0.658370
#
# Coordination Sequence:
#
# PCOD9305970 Si02
#       8
#     8   4   8   8   8   4   8   8
#     4  12  26  45  75 108 148 205 254 318 390 453
#     4  12  23  46  68 112 162 187 258 314 384 472
#     4  12  24  40  70 113 148 195 242 305 390 469
#     4  12  27  51  76 104 149 198 259 325 373 458
#     4  12  22  40  69 106 153 195 239 307 379 462
#     4  12  29  52  78 110 144 201 266 326 384 456
#     4  11  27  45  75 110 147 194 250 313 391 462
#     4  11  24  50  74 106 154 198 247 312 383 465
#
# _framework density 22.138793
#
# number of rings (size 3 to 8) (size 9 to 14) (size 15 to 20)
#    0.000    0.286    6.429    2.143    4.000    2.857 
#    2.571    0.000    0.000    0.000    0.000    0.000 
#    0.000    0.000    0.000    0.000    0.000    0.000 
#
# Total GULP energy -156345.269398 kJ/mol
# GULP energy per Si atom -5583.759621 kJ/mol
# Density = 2.208840 g / cm^3
# Si number density = 22.138793 Si / 1000 Ang^3
#
#
#
# Elastic Constant Matrix: (Units=GPa)
#
#
# Indices 1 2 3 4 5 6 
#
# 1 87.6669 59.9364 56.5401 0.0033 21.2346 0.0030
# 2 59.9364 118.0634 49.6383 -0.0215 11.9894 0.0082
# 3 56.5401 49.6383 138.7655 -0.0359 19.5059 0.0068
# 4 0.0033 -0.0215 -0.0359 39.7652 0.0016 7.8583
# 5 21.2346 11.9894 19.5059 0.0016 33.9570 -0.0009
# 6 0.0030 0.0082 0.0068 7.8583 -0.0009 44.2409
#
#
#
# Elastic Compliance Matrix: (Units=1/GPa)
#
#
# Indices 1 2 3 4 5 6 
#
# 1 0.022330 -0.008433 -0.004936 -0.000011 -0.008151 0.000003
# 2 -0.008433 0.013235 -0.001504 0.000007 0.001465 -0.000003
# 3 -0.004936 -0.001504 0.010059 0.000009 -0.002161 -0.000003
# 4 -0.000011 0.000007 0.000009 0.026062 -0.000002 -0.004629
# 5 -0.008151 0.001465 -0.002161 -0.000002 0.035270 0.000002
# 6 0.000003 -0.000003 -0.000003 -0.004629 0.000002 0.023426
#
#
# Mechanical properties :
#
#
# Convention : Reuss Voigt Hill
#
# Bulk Modulus (GPa) = 62.98091 75.19171 69.08631
# Shear Modulus (GPa) = 30.22575 35.48472 32.85524
#
# Velocity S-wave (km/s) = 3.69898 4.00788 3.85653
# Velocity P-wave (km/s) = 6.83764 7.44681 7.14872
#
# Compressibility (1/GPa) = 0.01587783
#
# Stress axis : x y z
#
# Youngs Moduli (GPa) = 44.78237 75.55799 99.41017
#
# Poissons Ratio (x) = 0.63719 0.49069
# Poissons Ratio (y) = 0.37766 0.14952
# Poissons Ratio (z) = 0.22105 0.11364
#
# Static dielectric constant tensor:
#      x y z
#    x 1.876270 0.000000 0.031830 
#    y 0.000000 1.840250 0.000010 
#    z 0.031830 0.000010 1.887190 
# 
# From -- ./inp_files/206947.got.cif
#   From: 2010.05.17/outbox.cif.g08.bks.cpg/sg15_104_cif.got.tgz:206947.got - 2010.06.03 18:47:42.
