data_PCOD9305190
_publ_section_title
;
Structure prediction by ZEFSAII (Michael W. Deem and Ramdas Pophale) SiO2 
 PCOD9305190
Probable space group: C 2/C
;
_chemical_formula_sum "Si O2"
_cell_formula_units_Z 56
_cell_length_a 19.976967
_cell_length_b 14.514489
_cell_length_c 8.828134
_cell_angle_alpha 90.000000
_cell_angle_beta 70.390101
_cell_angle_gamma 90.000000
_cell_volume 2411.297987
_symmetry_space_group_name_H-M "C 2/C"
_symmetry_group_IT_number 15
_symmetry_cell_setting 'monoclinic'
loop_
_space_group_symop_operation_xyz
x,y,z
-x,y,1/2-z
-x,-y,-z
x,-y,1/2+z
1/2+x,1/2+y,z
1/2-x,1/2+y,1/2-z
1/2-x,1/2-y,-z
1/2+x,1/2-y,1/2+z
loop_
_atom_site_type_symbol
_atom_site_label
_atom_site_fract_x
_atom_site_fract_y
_atom_site_fract_z
Si Si1 0.854674 0.542381 0.996379
Si Si2 0.475207 0.783908 0.597455
Si Si3 0.812142 0.905872 0.151306
Si Si4 0.198231 0.706264 0.301658
Si Si5 0.258495 0.584205 0.019191
Si Si6 0.447576 0.061450 0.662038
Si Si7 0.525679 0.406186 0.557671
O O1 0.797977 0.614481 0.101014
O O2 0.818279 0.445453 0.987138
O O3 0.913073 0.513456 0.077433
O O4 0.885417 0.590349 0.823494
O O5 0.500000 0.797923 0.750000
O O6 0.388239 0.788035 0.659399
O O7 0.515155 0.855849 0.455339
O O8 0.497718 0.683238 0.519741
O O9 0.779604 0.804363 0.148724
O O10 0.811105 0.910387 0.336365
O O11 0.889446 0.905636 0.019036
O O12 0.776272 0.996873 0.111926
O O13 0.246279 0.676607 0.122903
O O14 0.500000 0.018874 0.750000
O O15 0.500000 0.400117 0.750000
O O16 0.500000 0.500000 0.500000
#
# Coordination Sequence:
#
# PCOD9305190 Si02
#       7
#     8   8   8   8   8   8   8
#     4  12  24  41  67  98 140 183 225 281 341 411
#     4  11  25  41  68 105 140 184 229 277 348 412
#     4  11  26  44  72  97 133 180 232 282 347 405
#     4  11  24  43  68  98 139 175 237 282 339 409
#     4  12  23  48  66  99 136 185 228 287 337 405
#     4  12  24  39  65 101 142 184 220 275 343 414
#     4  11  24  47  72 101 138 176 229 293 346 411
#
# _framework density 23.224005999999999
#
# number of rings (size 3 to 8) (size 9 to 14) (size 15 to 20)
#    0.000    0.571    4.286    3.429    2.000    1.714 
#    0.000    1.429    0.000    0.000    0.000    0.000 
#    0.000    0.000    0.000    0.000    0.000    0.000 
#
# Total GULP energy -156423.738962 kJ/mol
# GULP energy per Si atom -5586.562106 kJ/mol
# Density = 2.317115 g / cm^3
# Si number density = 23.224006 Si / 1000 Ang^3
#
#
#
# Elastic Constant Matrix: (Units=GPa)
#
#
# Indices 1 2 3 4 5 6 
#
# 1 43.8404 23.2786 28.9090 0.0000 1.6913 0.0000
# 2 23.2786 151.1653 54.1922 0.0000 3.6274 0.0000
# 3 28.9090 54.1922 201.7554 0.0000 -10.2503 0.0000
# 4 0.0000 0.0000 0.0000 49.4970 0.0000 -1.6114
# 5 1.6913 3.6274 -10.2503 0.0000 28.7944 0.0000
# 6 0.0000 0.0000 0.0000 -1.6114 0.0000 25.6975
#
#
#
# Elastic Compliance Matrix: (Units=1/GPa)
#
#
# Indices 1 2 3 4 5 6 
#
# 1 0.026508 -0.002903 -0.003136 0.000000 -0.002308 0.000000
# 2 -0.002903 0.007716 -0.001729 0.000000 -0.001417 0.000000
# 3 -0.003136 -0.001729 0.005999 0.000000 0.002538 0.000000
# 4 0.000000 0.000000 0.000000 0.020245 0.000000 0.001269
# 5 -0.002308 -0.001417 0.002538 0.000000 0.035946 0.000000
# 6 0.000000 0.000000 0.000000 0.001269 0.000000 0.038994
#
#
# Mechanical properties :
#
#
# Convention : Reuss Voigt Hill
#
# Bulk Modulus (GPa) = 40.50380 67.72453 54.11417
# Shear Modulus (GPa) = 31.41263 40.15652 35.78457
#
# Velocity S-wave (km/s) = 3.68175 4.16275 3.92962
# Velocity P-wave (km/s) = 5.96256 7.23391 6.62878
#
# Compressibility (1/GPa) = 0.02468904
#
# Stress axis : x y z
#
# Youngs Moduli (GPa) = 37.72433 129.60155 166.69263
#
# Poissons Ratio (x) = 0.37617 0.52273
# Poissons Ratio (y) = 0.10950 0.28815
# Poissons Ratio (z) = 0.11830 0.22403
#
# Static dielectric constant tensor:
#      x y z
#    x 1.945570 0.000000 -0.021300 
#    y 0.000000 1.847850 0.000000 
#    z -0.021300 0.000000 1.928480 
# 
# From -- ./inp_files/61794.got.cif
#   From: 2010.05.17/outbox.cif.g08.bks.cpg/sg15_31_cif.got.tgz:61794.got - 2010.06.03 18:47:42.
