data_PCOD9305268
_publ_section_title
;
Structure prediction by ZEFSAII (Michael W. Deem and Ramdas Pophale) SiO2 
 PCOD9305268
Probable space group: C 2/C
;
_chemical_formula_sum "Si O2"
_cell_formula_units_Z 44
_cell_length_a 19.942402
_cell_length_b 17.453480
_cell_length_c 9.239651
_cell_angle_alpha 90.000000
_cell_angle_beta 47.438354
_cell_angle_gamma 90.000000
_cell_volume 2368.739572
_symmetry_space_group_name_H-M "C 2/C"
_symmetry_group_IT_number 15
_symmetry_cell_setting 'monoclinic'
loop_
_space_group_symop_operation_xyz
x,y,z
-x,y,1/2-z
-x,-y,-z
x,-y,1/2+z
1/2+x,1/2+y,z
1/2-x,1/2+y,1/2-z
1/2-x,1/2-y,-z
1/2+x,1/2-y,1/2+z
loop_
_atom_site_type_symbol
_atom_site_label
_atom_site_fract_x
_atom_site_fract_y
_atom_site_fract_z
Si Si1 0.832882 0.958670 0.560059
Si Si2 0.365175 0.665548 0.254749
Si Si3 0.190958 0.335483 0.222582
Si Si4 0.500000 0.571760 0.250000
Si Si5 0.723880 0.933659 0.428942
Si Si6 0.435764 0.032134 0.716884
O O1 0.849706 0.884611 0.633782
O O2 0.795339 0.937032 0.456541
O O3 0.757674 0.006663 0.757839
O O4 0.920240 0.014719 0.421234
O O5 0.282656 0.658504 0.491966
O O6 0.359857 0.754802 0.222651
O O7 0.453797 0.627782 0.199545
O O8 0.214370 0.354793 0.355069
O O9 0.126343 0.401525 0.256239
O O10 0.628636 0.964850 0.628140
O O11 0.500000 0.062469 0.750000
O O12 0.500000 0.000000 0.500000
#
# Coordination Sequence:
#
# PCOD9305268 Si02
#       6
#     8   8   8   4   8   8
#     4  12  22  40  68  95 124 168 216 265 318 391
#     4  11  25  42  65  94 134 169 211 268 324 387
#     4  11  24  44  62  95 132 170 211 261 336 377
#     4  12  22  40  70  98 124 168 224 262 314 392
#     4  12  21  42  65  95 128 169 216 261 327 386
#     4  12  22  37  66  94 119 164 216 268 308 385
#
# _framework density 18.575279999999999
#
# number of rings (size 3 to 8) (size 9 to 14) (size 15 to 20)
#    0.000    0.364    9.091    0.545    1.273    0.727 
#    0.000    1.818    0.000    0.000    0.000    0.000 
#    0.000    0.000    0.000    0.000    0.000    0.000 
#
# Total GULP energy -122865.705691 kJ/mol
# GULP energy per Si atom -5584.804804 kJ/mol
# Density = 1.853300 g / cm^3
# Si number density = 18.575280 Si / 1000 Ang^3
#
#
#
# Elastic Constant Matrix: (Units=GPa)
#
#
# Indices 1 2 3 4 5 6 
#
# 1 148.8470 62.4151 43.0218 0.0000 20.7203 0.0000
# 2 62.4151 105.6897 43.8067 0.0000 18.8225 0.0000
# 3 43.0218 43.8067 103.4027 0.0000 5.7415 0.0000
# 4 0.0000 0.0000 0.0000 23.4001 0.0000 10.1773
# 5 20.7203 18.8225 5.7415 0.0000 29.9134 0.0000
# 6 0.0000 0.0000 0.0000 10.1773 0.0000 30.2474
#
#
#
# Elastic Compliance Matrix: (Units=1/GPa)
#
#
# Indices 1 2 3 4 5 6 
#
# 1 0.009547 -0.004163 -0.002008 0.000000 -0.003608 0.000000
# 2 -0.004163 0.014627 -0.004158 0.000000 -0.005522 0.000000
# 3 -0.002008 -0.004158 0.012175 0.000000 0.001670 0.000000
# 4 0.000000 0.000000 0.000000 0.050061 0.000000 -0.016844
# 5 -0.003608 -0.005522 0.001670 0.000000 0.039083 0.000000
# 6 0.000000 0.000000 0.000000 -0.016844 0.000000 0.038728
#
#
# Mechanical properties :
#
#
# Convention : Reuss Voigt Hill
#
# Bulk Modulus (GPa) = 63.73194 72.93630 68.33412
# Shear Modulus (GPa) = 26.30073 30.62523 28.46298
#
# Velocity S-wave (km/s) = 3.76693 4.06483 3.91871
# Velocity P-wave (km/s) = 7.30097 7.83460 7.57249
#
# Compressibility (1/GPa) = 0.01569072
#
# Stress axis : x y z
#
# Youngs Moduli (GPa) = 104.75022 68.36689 82.13418
#
# Poissons Ratio (x) = 0.28460 0.16492
# Poissons Ratio (y) = 0.43606 0.34152
# Poissons Ratio (z) = 0.21034 0.28428
#
# Static dielectric constant tensor:
#      x y z
#    x 1.633870 0.000000 0.002000 
#    y 0.000000 1.627440 0.000000 
#    z 0.002000 0.000000 1.641830 
# 
# From -- ./inp_files/39093.got.cif
#   From: 2010.05.17/outbox.cif.g08.bks.cpg/sg15_20_cif.got.tgz:39093.got - 2010.06.03 18:47:42.
