data_PCOD9305966
_publ_section_title
;
Structure prediction by ZEFSAII (Michael W. Deem and Ramdas Pophale) SiO2 
 PCOD9305966
Probable space group: C 2/C
;
_chemical_formula_sum "Si O2"
_cell_formula_units_Z 40
_cell_length_a 16.047238
_cell_length_b 12.450463
_cell_length_c 17.200617
_cell_angle_alpha 90.000000
_cell_angle_beta 35.215977
_cell_angle_gamma 90.000000
_cell_volume 1981.754104
_symmetry_space_group_name_H-M "C 2/C"
_symmetry_group_IT_number 15
_symmetry_cell_setting 'monoclinic'
loop_
_space_group_symop_operation_xyz
x,y,z
-x,y,1/2-z
-x,-y,-z
x,-y,1/2+z
1/2+x,1/2+y,z
1/2-x,1/2+y,1/2-z
1/2-x,1/2-y,-z
1/2+x,1/2-y,1/2+z
loop_
_atom_site_type_symbol
_atom_site_label
_atom_site_fract_x
_atom_site_fract_y
_atom_site_fract_z
Si Si1 0.698784 0.490714 0.416349
Si Si2 0.895649 0.488949 0.505921
Si Si3 0.067735 0.689986 0.782111
Si Si4 0.119146 0.077707 0.307958
Si Si5 0.362598 0.843353 0.900792
O O1 0.786564 0.380024 0.339117
O O2 0.678348 0.547685 0.348428
O O3 0.541240 0.471523 0.572741
O O4 0.792773 0.565068 0.400231
O O5 0.733239 0.468746 0.659266
O O6 0.905401 0.596035 0.447070
O O7 0.000000 0.500000 0.500000
O O8 0.954128 0.388699 0.411275
O O9 0.101991 0.795812 0.805234
O O10 0.000000 0.719281 0.750000
O O11 0.500000 0.799936 0.750000
O O12 0.250000 0.750000 0.000000
#
# Coordination Sequence:
#
# PCOD9305966 Si02
#       5
#     8   8   8   8   8
#     4  11  24  50  64 105 146 173 234 291 334 421
#     4  12  24  47  71 101 139 180 230 287 344 413
#     4  12  24  47  72 101 143 183 229 290 349 407
#     4  11  27  40  75 103 135 184 229 280 347 415
#     4  12  27  47  72  99 140 185 229 288 348 411
#
# _framework density 20.184138999999998
#
# number of rings (size 3 to 8) (size 9 to 14) (size 15 to 20)
#    0.000    0.400    6.000    1.200    8.400    1.600 
#    3.600    0.000    0.000    0.000    0.000    0.000 
#    0.000    0.000    0.000    0.000    0.000    0.000 
#
# Total GULP energy -111941.462234 kJ/mol
# GULP energy per Si atom -5597.073112 kJ/mol
# Density = 2.013820 g / cm^3
# Si number density = 20.184139 Si / 1000 Ang^3
#
#
#
# Elastic Constant Matrix: (Units=GPa)
#
#
# Indices 1 2 3 4 5 6 
#
# 1 85.7041 20.9643 19.8222 0.0000 -6.8847 0.0000
# 2 20.9643 89.5806 33.2946 0.0000 1.3769 0.0000
# 3 19.8222 33.2946 178.1320 0.0001 -13.6423 0.0000
# 4 0.0000 0.0000 0.0001 36.9654 0.0000 -10.1243
# 5 -6.8847 1.3769 -13.6423 0.0000 22.4789 0.0000
# 6 0.0000 0.0000 0.0000 -10.1243 0.0000 6.8819
#
#
#
# Elastic Compliance Matrix: (Units=1/GPa)
#
#
# Indices 1 2 3 4 5 6 
#
# 1 0.012800 -0.002826 -0.000611 0.000000 0.003722 0.000000
# 2 -0.002826 0.012725 -0.002297 0.000000 -0.003039 0.000000
# 3 -0.000611 -0.002297 0.006405 0.000000 0.003841 0.000000
# 4 0.000000 0.000000 0.000000 0.045308 0.000000 0.066656
# 5 0.003722 -0.003039 0.003841 0.000000 0.048143 0.000000
# 6 0.000000 0.000000 0.000000 0.066656 0.000000 0.243368
#
#
# Mechanical properties :
#
#
# Convention : Reuss Voigt Hill
#
# Bulk Modulus (GPa) = 48.86897 55.73099 52.29998
# Shear Modulus (GPa) = 12.91865 31.88761 22.40313
#
# Velocity S-wave (km/s) = 2.53265 3.97903 3.33519
# Velocity P-wave (km/s) = 5.72857 6.98437 6.38741
#
# Compressibility (1/GPa) = 0.02046288
#
# Stress axis : x y z
#
# Youngs Moduli (GPa) = 78.12762 78.58736 156.12223
#
# Poissons Ratio (x) = 0.22205 0.09541
# Poissons Ratio (y) = 0.22075 0.35856
# Poissons Ratio (z) = 0.04774 0.18049
#
# Static dielectric constant tensor:
#      x y z
#    x 1.722210 0.000000 -0.038700 
#    y 0.000000 1.673190 0.000000 
#    z -0.038700 0.000000 1.788170 
# 
# From -- ./inp_files/46249.got.cif
#   From: 2010.05.17/outbox.cif.g08.bks.cpg/sg15_24_cif.got.tgz:46249.got - 2010.06.03 18:47:42.
