data_PCOD9305863
_publ_section_title
;
Structure prediction by ZEFSAII (Michael W. Deem and Ramdas Pophale) SiO2 
 PCOD9305863
Probable space group: C 2/C
;
_chemical_formula_sum "Si O2"
_cell_formula_units_Z 48
_cell_length_a 16.640462
_cell_length_b 15.413205
_cell_length_c 10.912154
_cell_angle_alpha 90.000000
_cell_angle_beta 127.863869
_cell_angle_gamma 90.000000
_cell_volume 2209.556783
_symmetry_space_group_name_H-M "C 2/C"
_symmetry_group_IT_number 15
_symmetry_cell_setting 'monoclinic'
loop_
_space_group_symop_operation_xyz
x,y,z
-x,y,1/2-z
-x,-y,-z
x,-y,1/2+z
1/2+x,1/2+y,z
1/2-x,1/2+y,1/2-z
1/2-x,1/2-y,-z
1/2+x,1/2-y,1/2+z
loop_
_atom_site_type_symbol
_atom_site_label
_atom_site_fract_x
_atom_site_fract_y
_atom_site_fract_z
Si Si1 0.878732 0.486204 0.153536
Si Si2 0.444489 0.324122 0.567598
Si Si3 0.242241 0.148093 0.967296
Si Si4 0.704284 0.817433 0.559020
Si Si5 0.865837 0.883629 0.894407
Si Si6 0.280945 0.434585 0.309359
O O1 0.829122 0.460466 0.239139
O O2 0.000000 0.482497 0.250000
O O3 0.836135 0.582819 0.086253
O O4 0.828022 0.412129 0.019922
O O5 0.500000 0.323845 0.750000
O O6 0.399083 0.230069 0.497739
O O7 0.523654 0.353550 0.539800
O O8 0.350909 0.391005 0.478583
O O9 0.222879 0.130317 0.807185
O O10 0.250000 0.250000 0.000000
O O11 0.155797 0.117243 0.981654
O O12 0.750000 0.750000 0.500000
O O13 0.784497 0.825348 0.743879
O O14 0.840756 0.979886 0.825202
#
# Coordination Sequence:
#
# PCOD9305863 Si02
#       6
#     8   8   8   8   8   8
#     4  11  25  46  76 106 140 191 245 307 366 433
#     4  12  24  40  77 108 137 188 246 299 369 425
#     4  11  26  48  69  99 151 193 237 299 369 446
#     4  12  22  43  74 105 146 180 247 312 354 420
#     4  11  25  46  68 105 145 193 246 300 365 437
#     4  11  24  48  70 102 152 188 239 305 362 443
#
# _framework density 21.723813
#
# number of rings (size 3 to 8) (size 9 to 14) (size 15 to 20)
#    0.000    0.667    5.000    2.000    2.333    1.333 
#    9.000    0.000    0.000    0.000    0.000    0.000 
#    0.000    0.000    0.000    0.000    0.000    0.000 
#
# Total GULP energy -134090.920123 kJ/mol
# GULP energy per Si atom -5587.121672 kJ/mol
# Density = 2.167437 g / cm^3
# Si number density = 21.723813 Si / 1000 Ang^3
#
#
#
# Elastic Constant Matrix: (Units=GPa)
#
#
# Indices 1 2 3 4 5 6 
#
# 1 136.7689 49.2918 35.6389 0.0000 27.5761 0.0000
# 2 49.2918 157.2336 36.2860 0.0000 7.1106 0.0000
# 3 35.6389 36.2860 63.7955 0.0000 8.3376 0.0000
# 4 0.0000 0.0000 0.0000 29.7608 0.0000 -8.0076
# 5 27.5761 7.1106 8.3376 0.0000 22.7358 0.0000
# 6 0.0000 0.0000 0.0000 -8.0076 0.0000 36.2777
#
#
#
# Elastic Compliance Matrix: (Units=1/GPa)
#
#
# Indices 1 2 3 4 5 6 
#
# 1 0.011437 -0.002224 -0.003573 0.000000 -0.011865 0.000000
# 2 -0.002224 0.007767 -0.003372 0.000000 0.001505 0.000000
# 3 -0.003573 -0.003372 0.019836 0.000000 -0.001885 0.000000
# 4 0.000000 0.000000 0.000000 0.035723 0.000000 0.007885
# 5 -0.011865 0.001505 -0.001885 0.000000 0.058596 0.000000
# 6 0.000000 0.000000 0.000000 0.007885 0.000000 0.029306
#
#
# Mechanical properties :
#
#
# Convention : Reuss Voigt Hill
#
# Bulk Modulus (GPa) = 48.30759 66.69239 57.49999
# Shear Modulus (GPa) = 26.60944 33.52695 30.06819
#
# Velocity S-wave (km/s) = 3.50365 3.93278 3.72440
# Velocity P-wave (km/s) = 6.21714 7.16862 6.70977
#
# Compressibility (1/GPa) = 0.02070068
#
# Stress axis : x y z
#
# Youngs Moduli (GPa) = 87.43817 128.74369 50.41411
#
# Poissons Ratio (x) = 0.28634 0.18014
# Poissons Ratio (y) = 0.19447 0.17001
# Poissons Ratio (z) = 0.31244 0.43415
#
# Static dielectric constant tensor:
#      x y z
#    x 1.814490 0.000000 -0.026620 
#    y 0.000000 1.831320 0.000000 
#    z -0.026620 0.000000 1.808860 
# 
# From -- ./inp_files/97178.got.cif
#   From: 2010.05.17/outbox.cif.g08.bks.cpg/sg15_49_cif.got.tgz:97178.got - 2010.06.03 18:47:42.
