data_PCOD9305965
_publ_section_title
;
Structure prediction by ZEFSAII (Michael W. Deem and Ramdas Pophale) SiO2 
 PCOD9305965
Probable space group: C 2/C
;
_chemical_formula_sum "Si O2"
_cell_formula_units_Z 40
_cell_length_a 17.554533
_cell_length_b 15.766728
_cell_length_c 13.619144
_cell_angle_alpha 90.000000
_cell_angle_beta 23.860605
_cell_angle_gamma 90.000000
_cell_volume 1524.800470
_symmetry_space_group_name_H-M "C 2/C"
_symmetry_group_IT_number 15
_symmetry_cell_setting 'monoclinic'
loop_
_space_group_symop_operation_xyz
x,y,z
-x,y,1/2-z
-x,-y,-z
x,-y,1/2+z
1/2+x,1/2+y,z
1/2-x,1/2+y,1/2-z
1/2-x,1/2-y,-z
1/2+x,1/2-y,1/2+z
loop_
_atom_site_type_symbol
_atom_site_label
_atom_site_fract_x
_atom_site_fract_y
_atom_site_fract_z
Si Si1 0.830269 0.160093 0.374410
Si Si2 0.226036 0.675305 0.108919
Si Si3 0.787312 0.036312 0.733537
Si Si4 0.119891 0.512164 0.718342
Si Si5 0.495427 0.689143 0.543849
O O1 0.750000 0.250000 0.500000
O O2 0.000000 0.144431 0.250000
O O3 0.688601 0.084172 0.564067
O O4 0.888436 0.171141 0.192039
O O5 0.066326 0.713720 0.369747
O O6 0.250000 0.750000 0.000000
O O7 0.175865 0.584295 0.124268
O O8 0.399501 0.664170 0.979540
O O9 0.601447 0.992083 0.995910
O O10 0.811121 0.131306 0.746179
O O11 0.737629 0.032647 0.677937
O O12 0.000000 0.000000 0.500000
#
# Coordination Sequence:
#
# PCOD9305965 Si02
#       5
#     8   8   8   8   8
#     4  12  28  51  80 129 180 234 295 370 463 549
#     4  12  28  52  85 125 172 232 305 377 450 543
#     4  11  24  49  87 122 168 232 292 364 440 536
#     4  11  27  52  86 124 177 230 301 361 448 546
#     4  12  26  50  83 125 180 229 300 380 453 534
#
# _framework density 26.232941
#
# number of rings (size 3 to 8) (size 9 to 14) (size 15 to 20)
#    0.000    0.400    4.000    3.000    5.600    4.800 
#    0.000    4.000    0.000    0.000    0.000    0.000 
#    0.000    0.000    0.000    0.000    0.000    0.000 
#
# Total GULP energy -112080.969529 kJ/mol
# GULP energy per Si atom -5604.048476 kJ/mol
# Density = 2.617323 g / cm^3
# Si number density = 26.232941 Si / 1000 Ang^3
#
#
#
# Elastic Constant Matrix: (Units=GPa)
#
#
# Indices 1 2 3 4 5 6 
#
# 1 213.9339 57.4586 84.9430 -0.0037 1.0421 0.0009
# 2 57.4586 196.2584 96.6856 -0.0059 10.0569 0.0029
# 3 84.9430 96.6856 176.6273 -0.0046 6.9647 0.0032
# 4 -0.0037 -0.0059 -0.0046 54.7388 0.0041 -7.6550
# 5 1.0421 10.0569 6.9647 0.0041 62.8249 -0.0021
# 6 0.0009 0.0029 0.0032 -7.6550 -0.0021 46.0134
#
#
#
# Elastic Compliance Matrix: (Units=1/GPa)
#
#
# Indices 1 2 3 4 5 6 
#
# 1 0.005810 -0.000456 -0.002555 0.000000 0.000260 0.000000
# 2 -0.000456 0.007043 -0.003608 0.000000 -0.000720 0.000000
# 3 -0.002555 -0.003608 0.008880 0.000000 -0.000364 0.000000
# 4 0.000000 0.000000 0.000000 0.018704 -0.000001 0.003112
# 5 0.000260 -0.000720 -0.000364 -0.000001 0.016069 0.000001
# 6 0.000000 0.000000 0.000000 0.003112 0.000001 0.022250
#
#
# Mechanical properties :
#
#
# Convention : Reuss Voigt Hill
#
# Bulk Modulus (GPa) = 117.70525 118.33269 118.01897
# Shear Modulus (GPa) = 52.72932 55.89757 54.31345
#
# Velocity S-wave (km/s) = 4.48821 4.62108 4.55513
# Velocity P-wave (km/s) = 8.47499 8.58364 8.52949
#
# Compressibility (1/GPa) = 0.00849580
#
# Stress axis : x y z
#
# Youngs Moduli (GPa) = 172.12066 141.98547 112.61731
#
# Poissons Ratio (x) = 0.06469 0.28773
# Poissons Ratio (y) = 0.07842 0.40630
# Poissons Ratio (z) = 0.43975 0.51226
#
# Static dielectric constant tensor:
#      x y z
#    x 2.161210 0.000000 0.036860 
#    y 0.000000 2.101500 0.000000 
#    z 0.036860 0.000000 2.150490 
# 
# From -- ./inp_files/95988.got.cif
#   From: 2010.05.17/outbox.cif.g08.bks.cpg/sg15_48_cif.got.tgz:95988.got - 2010.06.03 18:47:42.
