data_PCOD9305858
_publ_section_title
;
Structure prediction by ZEFSAII (Michael W. Deem and Ramdas Pophale) SiO2 
 PCOD9305858
Probable space group: C 2/C
;
_chemical_formula_sum "Si O2"
_cell_formula_units_Z 60
_cell_length_a 11.605275
_cell_length_b 26.707082
_cell_length_c 9.448771
_cell_angle_alpha 90.000000
_cell_angle_beta 90.896298
_cell_angle_gamma 90.000000
_cell_volume 2928.222398
_symmetry_space_group_name_H-M "C 2/C"
_symmetry_group_IT_number 15
_symmetry_cell_setting 'monoclinic'
loop_
_space_group_symop_operation_xyz
x,y,z
-x,y,1/2-z
-x,-y,-z
x,-y,1/2+z
1/2+x,1/2+y,z
1/2-x,1/2+y,1/2-z
1/2-x,1/2-y,-z
1/2+x,1/2-y,1/2+z
loop_
_atom_site_type_symbol
_atom_site_label
_atom_site_fract_x
_atom_site_fract_y
_atom_site_fract_z
Si Si1 0.069103 0.176817 0.032285
Si Si2 0.665890 0.641484 0.327549
Si Si3 0.562358 0.203698 0.508221
Si Si4 0.000000 0.367794 0.750000
Si Si5 0.363680 0.952600 0.219474
Si Si6 0.183109 0.444672 0.618819
Si Si7 0.698719 0.802804 0.459242
Si Si8 0.740373 0.353200 0.316782
O O1 0.146175 0.162372 0.170618
O O2 0.943421 0.159383 0.081988
O O3 0.074622 0.236075 0.996380
O O4 0.122654 0.147597 0.901450
O O5 0.695602 0.582985 0.343035
O O6 0.776650 0.666634 0.399623
O O7 0.554804 0.169962 0.366906
O O8 0.436306 0.197258 0.578070
O O9 0.667280 0.181057 0.598121
O O10 0.915057 0.407346 0.824734
O O11 0.500000 0.944723 0.250000
O O12 0.294518 0.907267 0.290453
O O13 0.328867 0.003988 0.295333
O O14 0.336501 0.952293 0.050232
O O15 0.750000 0.750000 0.500000
O O16 0.769738 0.827160 0.334709
#
# Coordination Sequence:
#
# PCOD9305858 Si02
#       8
#     8   8   8   4   8   8   8   8
#     4  11  27  46  71  97 146 198 236 280 350 428
#     4  11  24  48  68  98 145 188 234 293 351 412
#     4  12  25  40  69 107 143 188 228 289 352 423
#     4  12  24  40  70 108 148 174 234 282 348 434
#     4  12  26  46  75 106 141 180 229 301 373 416
#     4  12  26  46  72 107 136 186 231 299 363 420
#     4  12  23  41  68  97 146 182 230 287 351 421
#     4  12  26  43  68 105 137 184 241 286 347 428
#
# _framework density 20.490247
#
# number of rings (size 3 to 8) (size 9 to 14) (size 15 to 20)
#    0.000    0.267    4.667    4.400    7.467    0.533 
#    0.000    0.667    0.000    0.000    0.000    0.000 
#    0.000    0.000    0.000    0.000    0.000    0.000 
#
# Total GULP energy -167653.886455 kJ/mol
# GULP energy per Si atom -5588.462882 kJ/mol
# Density = 2.044361 g / cm^3
# Si number density = 20.490247 Si / 1000 Ang^3
#
#
#
# Elastic Constant Matrix: (Units=GPa)
#
#
# Indices 1 2 3 4 5 6 
#
# 1 44.8713 42.5949 13.5984 0.0000 -8.6673 0.0000
# 2 42.5949 183.6771 68.0868 0.0000 -20.9871 0.0000
# 3 13.5984 68.0868 72.5442 0.0000 -1.8964 0.0000
# 4 0.0000 0.0000 0.0000 44.0222 0.0000 -2.1418
# 5 -8.6673 -20.9871 -1.8964 0.0000 34.5371 0.0000
# 6 0.0000 0.0000 0.0000 -2.1418 0.0000 40.3506
#
#
#
# Elastic Compliance Matrix: (Units=1/GPa)
#
#
# Indices 1 2 3 4 5 6 
#
# 1 0.028989 -0.006698 0.000938 0.000000 0.003256 0.000000
# 2 -0.006698 0.010716 -0.008688 0.000000 0.004354 0.000000
# 3 0.000938 -0.008688 0.021662 0.000000 -0.003855 0.000000
# 4 0.000000 0.000000 0.000000 0.022775 0.000000 0.001209
# 5 0.003256 0.004354 -0.003855 0.000000 0.032205 0.000000
# 6 0.000000 0.000000 0.000000 0.001209 0.000000 0.024847
#
#
# Mechanical properties :
#
#
# Convention : Reuss Voigt Hill
#
# Bulk Modulus (GPa) = 30.79737 61.07254 45.93496
# Shear Modulus (GPa) = 27.63753 35.56947 31.60350
#
# Velocity S-wave (km/s) = 3.67660 4.17096 3.93156
# Velocity P-wave (km/s) = 5.75205 7.28466 6.56324
#
# Compressibility (1/GPa) = 0.03247031
#
# Stress axis : x y z
#
# Youngs Moduli (GPa) = 34.49577 93.32271 46.16362
#
# Poissons Ratio (x) = 0.62509 -0.04329
# Poissons Ratio (y) = 0.23106 0.40106
# Poissons Ratio (z) = -0.03235 0.81076
#
# Static dielectric constant tensor:
#      x y z
#    x 1.764160 0.000000 -0.011780 
#    y 0.000000 1.622600 0.000000 
#    z -0.011780 0.000000 1.755480 
# 
# From -- ./inp_files/34278.got.cif
#   From: 2010.05.17/outbox.cif.g08.bks.cpg/sg15_18_cif.got.tgz:34278.got - 2010.06.03 18:47:42.
