data_PCOD9305895
_publ_section_title
;
Structure prediction by ZEFSAII (Michael W. Deem and Ramdas Pophale) SiO2 
 PCOD9305895
Probable space group: C 2/C
;
_chemical_formula_sum "Si O2"
_cell_formula_units_Z 36
_cell_length_a 20.843090
_cell_length_b 9.335155
_cell_length_c 12.767326
_cell_angle_alpha 90.000000
_cell_angle_beta 41.594744
_cell_angle_gamma 90.000000
_cell_volume 1649.143790
_symmetry_space_group_name_H-M "C 2/C"
_symmetry_group_IT_number 15
_symmetry_cell_setting 'monoclinic'
loop_
_space_group_symop_operation_xyz
x,y,z
-x,y,1/2-z
-x,-y,-z
x,-y,1/2+z
1/2+x,1/2+y,z
1/2-x,1/2+y,1/2-z
1/2-x,1/2-y,-z
1/2+x,1/2-y,1/2+z
loop_
_atom_site_type_symbol
_atom_site_label
_atom_site_fract_x
_atom_site_fract_y
_atom_site_fract_z
Si Si1 0.890629 0.170220 0.252909
Si Si2 0.142703 0.295977 0.599511
Si Si3 0.500000 0.434180 0.250000
Si Si4 0.040933 0.659438 0.445473
Si Si5 0.333230 0.113735 0.009118
O O1 0.782517 0.128271 0.352050
O O2 0.876937 0.289452 0.361696
O O3 0.950017 0.036904 0.226426
O O4 0.954084 0.237401 0.084099
O O5 0.250000 0.250000 0.500000
O O6 0.086969 0.169588 0.607630
O O7 0.085996 0.313060 0.777961
O O8 0.141358 0.447617 0.542280
O O9 0.121900 0.668832 0.437522
O O10 0.000000 0.500000 0.500000
#
# Coordination Sequence:
#
# PCOD9305895 Si02
#       5
#     8   8   4   8   8
#     4  11  24  48  74 103 140 200 240 293 354 439
#     4  12  27  47  69 111 147 184 238 308 360 420
#     4  12  24  46  74  98 152 182 242 300 358 426
#     4  12  25  45  79 105 140 195 240 291 365 428
#     4  11  24  49  74 102 151 186 243 294 362 434
#
# _framework density 21.829511
#
# number of rings (size 3 to 8) (size 9 to 14) (size 15 to 20)
#    0.000    0.444    6.667    1.333    0.000    4.444 
#    4.000    0.000    0.000    0.000    0.000    0.000 
#    0.000    0.000    0.000    0.000    0.000    0.000 
#
# Total GULP energy -100829.041862 kJ/mol
# GULP energy per Si atom -5601.613437 kJ/mol
# Density = 2.177983 g / cm^3
# Si number density = 21.829511 Si / 1000 Ang^3
#
#
#
# Elastic Constant Matrix: (Units=GPa)
#
#
# Indices 1 2 3 4 5 6 
#
# 1 88.9669 21.1563 52.6155 0.0000 -13.2146 0.0000
# 2 21.1563 137.7644 51.6393 0.0000 -15.6434 0.0000
# 3 52.6155 51.6393 125.1786 0.0000 -19.5717 0.0000
# 4 0.0000 0.0000 0.0000 35.9470 0.0000 -10.0128
# 5 -13.2146 -15.6434 -19.5717 0.0000 38.5368 0.0000
# 6 0.0000 0.0000 0.0000 -10.0128 0.0000 42.0141
#
#
#
# Elastic Compliance Matrix: (Units=1/GPa)
#
#
# Indices 1 2 3 4 5 6 
#
# 1 0.015122 0.000212 -0.006104 0.000000 0.002172 0.000000
# 2 0.000212 0.008710 -0.003387 0.000000 0.001888 0.000000
# 3 -0.006104 -0.003387 0.012394 0.000000 0.002826 0.000000
# 4 0.000000 0.000000 0.000000 0.029797 0.000000 0.007101
# 5 0.002172 0.001888 0.002826 0.000000 0.028896 0.000000
# 6 0.000000 0.000000 0.000000 0.007101 0.000000 0.025494
#
#
# Mechanical properties :
#
#
# Convention : Reuss Voigt Hill
#
# Bulk Modulus (GPa) = 56.60021 66.97024 61.78523
# Shear Modulus (GPa) = 34.51605 38.39949 36.45777
#
# Velocity S-wave (km/s) = 3.98070 4.19867 4.09114
# Velocity P-wave (km/s) = 6.86386 7.36549 7.11909
#
# Compressibility (1/GPa) = 0.01766778
#
# Stress axis : x y z
#
# Youngs Moduli (GPa) = 66.12727 114.80744 80.68689
#
# Poissons Ratio (x) = -0.02439 0.49254
# Poissons Ratio (y) = -0.01405 0.27331
# Poissons Ratio (z) = 0.40367 0.38888
#
# Static dielectric constant tensor:
#      x y z
#    x 1.807680 0.000000 -0.006840 
#    y 0.000000 1.792610 0.000000 
#    z -0.006840 0.000000 1.750350 
# 
# From -- ./inp_files/159575.got.cif
#   From: 2010.05.17/outbox.cif.g08.bks.cpg/sg15_80_cif.got.tgz:159575.got - 2010.06.03 18:47:42.
