data_PCOD9305004
_publ_section_title
;
Structure prediction by ZEFSAII (Michael W. Deem and Ramdas Pophale) SiO2 
 PCOD9305004
Probable space group: C 2/C
;
_chemical_formula_sum "Si O2"
_cell_formula_units_Z 56
_cell_length_a 8.926431
_cell_length_b 27.565567
_cell_length_c 16.493834
_cell_angle_alpha 90.000000
_cell_angle_beta 141.036499
_cell_angle_gamma 90.000000
_cell_volume 2552.092076
_symmetry_space_group_name_H-M "C 2/C"
_symmetry_group_IT_number 15
_symmetry_cell_setting 'monoclinic'
loop_
_space_group_symop_operation_xyz
x,y,z
-x,y,1/2-z
-x,-y,-z
x,-y,1/2+z
1/2+x,1/2+y,z
1/2-x,1/2+y,1/2-z
1/2-x,1/2-y,-z
1/2+x,1/2-y,1/2+z
loop_
_atom_site_type_symbol
_atom_site_label
_atom_site_fract_x
_atom_site_fract_y
_atom_site_fract_z
Si Si1 0.244693 0.049984 0.653025
Si Si2 0.009100 0.595343 0.069033
Si Si3 0.622215 0.477635 0.726319
Si Si4 0.203098 0.107101 0.468367
Si Si5 0.498694 0.735500 0.650730
Si Si6 0.647776 0.677713 0.229406
Si Si7 0.019262 0.875640 0.161956
O O1 0.500000 0.026048 0.750000
O O2 0.216811 0.080240 0.559501
O O3 0.227236 0.091270 0.714466
O O4 0.096142 0.007127 0.632305
O O5 0.117229 0.542666 0.138954
O O6 0.076249 0.608145 0.002714
O O7 0.146527 0.636914 0.177591
O O8 0.732245 0.601261 0.971827
O O9 0.500000 0.505706 0.750000
O O10 0.470356 0.429075 0.653341
O O11 0.057767 0.157562 0.417413
O O12 0.500000 0.736882 0.750000
O O13 0.250000 0.750000 0.500000
O O14 0.713100 0.772214 0.720978
O O15 0.544798 0.679885 0.645686
O O16 0.500000 0.678520 0.250000
O O17 0.000000 0.875368 0.250000
#
# Coordination Sequence:
#
# PCOD9305004 Si02
#       7
#     8   8   8   8   8   8   8
#     4  12  25  39  56  88 131 165 216 263 327 371
#     4   9  18  40  65  90 122 165 217 255 328 379
#     4   9  20  39  63  90 122 167 213 261 319 390
#     4   9  20  37  64  93 124 164 211 273 312 391
#     4  11  24  42  68 100 135 170 221 271 325 391
#     4   9  19  39  67  95 127 166 214 263 324 387
#     4  11  24  41  62  88 129 172 211 265 326 385
#
# _framework density 21.942781
#
# number of rings (size 3 to 8) (size 9 to 14) (size 15 to 20)
#    0.000    2.000    1.429    3.429    2.000    2.857 
#    0.000    7.143    0.000    0.000    0.000    0.000 
#    0.000    0.000    0.000    0.000    0.000    0.000 
#
# Total GULP energy -155932.037262 kJ/mol
# GULP energy per Si atom -5569.001331 kJ/mol
# Density = 2.189284 g / cm^3
# Si number density = 21.942781 Si / 1000 Ang^3
#
#
#
# Elastic Constant Matrix: (Units=GPa)
#
#
# Indices 1 2 3 4 5 6 
#
# 1 58.9603 17.4921 15.8679 0.0000 2.2474 0.0000
# 2 17.4921 86.3017 0.9580 0.0000 12.3431 0.0000
# 3 15.8679 0.9580 47.1256 0.0000 -1.8663 0.0000
# 4 0.0000 0.0000 0.0000 15.7284 0.0000 -4.7180
# 5 2.2474 12.3431 -1.8663 0.0000 28.0257 0.0000
# 6 0.0000 0.0000 0.0000 -4.7180 0.0000 19.1306
#
#
#
# Elastic Compliance Matrix: (Units=1/GPa)
#
#
# Indices 1 2 3 4 5 6 
#
# 1 0.019923 -0.003919 -0.006641 0.000000 -0.000314 0.000000
# 2 -0.003919 0.013148 0.000838 0.000000 -0.005420 0.000000
# 3 -0.006641 0.000838 0.023507 0.000000 0.001729 0.000000
# 4 0.000000 0.000000 0.000000 0.068659 0.000000 0.016933
# 5 -0.000314 -0.005420 0.001729 0.000000 0.038209 0.000000
# 6 0.000000 0.000000 0.000000 0.016933 0.000000 0.056448
#
#
# Mechanical properties :
#
#
# Convention : Reuss Voigt Hill
#
# Bulk Modulus (GPa) = 26.93066 29.00263 27.96665
# Shear Modulus (GPa) = 19.86363 23.11490 21.48927
#
# Velocity S-wave (km/s) = 3.01200 3.24916 3.13282
# Velocity P-wave (km/s) = 4.93922 5.22706 5.08518
#
# Compressibility (1/GPa) = 0.03713239
#
# Stress axis : x y z
#
# Youngs Moduli (GPa) = 50.19418 76.05936 42.53968
#
# Poissons Ratio (x) = 0.29811 0.28251
# Poissons Ratio (y) = 0.19673 -0.03564
# Poissons Ratio (z) = 0.33334 -0.06372
#
# Static dielectric constant tensor:
#      x y z
#    x 1.803030 0.000000 -0.005680 
#    y 0.000000 1.805090 0.000000 
#    z -0.005680 0.000000 1.891890 
# 
# From -- ./inp_files/81437.got.cif
#   From: 2010.05.17/outbox.cif.g08.bks.cpg/sg15_41_cif.got.tgz:81437.got - 2010.06.03 18:47:42.
