data_PCOD9305614
_publ_section_title
;
Structure prediction by ZEFSAII (Michael W. Deem and Ramdas Pophale) SiO2 
 PCOD9305614
Probable space group: C 2/C
;
_chemical_formula_sum "Si O2"
_cell_formula_units_Z 60
_cell_length_a 5.643965
_cell_length_b 18.186141
_cell_length_c 28.515852
_cell_angle_alpha 90.000000
_cell_angle_beta 112.148740
_cell_angle_gamma 90.000000
_cell_volume 2710.939738
_symmetry_space_group_name_H-M "C 2/C"
_symmetry_group_IT_number 15
_symmetry_cell_setting 'monoclinic'
loop_
_space_group_symop_operation_xyz
x,y,z
-x,y,1/2-z
-x,-y,-z
x,-y,1/2+z
1/2+x,1/2+y,z
1/2-x,1/2+y,1/2-z
1/2-x,1/2-y,-z
1/2+x,1/2-y,1/2+z
loop_
_atom_site_type_symbol
_atom_site_label
_atom_site_fract_x
_atom_site_fract_y
_atom_site_fract_z
Si Si1 0.879111 0.945188 0.594941
Si Si2 0.500000 0.689630 0.750000
Si Si3 0.145868 0.776820 0.122256
Si Si4 0.733674 0.104527 0.566702
Si Si5 0.779268 0.678515 0.283681
Si Si6 0.987654 0.544436 0.157780
Si Si7 0.599884 0.117451 0.658513
Si Si8 0.362257 0.810547 0.972956
O O1 0.691550 0.943243 0.628162
O O2 0.823721 0.875497 0.557999
O O3 0.183990 0.947045 0.625946
O O4 0.809493 0.020961 0.562951
O O5 0.703540 0.749706 0.747986
O O6 0.374842 0.640683 0.700048
O O7 0.124513 0.717064 0.161179
O O8 0.422762 0.811831 0.151404
O O9 0.086820 0.733979 0.070289
O O10 0.965686 0.847507 0.104317
O O11 0.559508 0.101851 0.600158
O O12 0.598414 0.147944 0.514969
O O13 0.500000 0.649965 0.250000
O O14 0.946689 0.604981 0.298286
O O15 0.027876 0.459924 0.176402
O O16 0.250000 0.750000 0.000000
#
# Coordination Sequence:
#
# PCOD9305614 Si02
#       8
#     8   4   8   8   8   8   8   8
#     4  11  26  49  72 104 146 195 240 298 359 431
#     4  12  26  44  76 102 144 184 244 296 366 426
#     4  12  23  46  68 103 144 179 246 291 366 425
#     4  11  24  46  70 101 141 191 236 298 356 432
#     4  12  27  44  72 107 141 190 238 303 363 427
#     4  11  27  48  75 102 148 192 238 301 363 427
#     4  11  24  46  69 104 138 187 237 297 353 435
#     4  12  26  42  73 108 142 190 242 297 361 428
#
# _framework density 22.132546999999999
#
# number of rings (size 3 to 8) (size 9 to 14) (size 15 to 20)
#    0.000    0.533    6.667    0.800    6.533    1.067 
#    0.000    4.000    0.000    0.000    0.000    0.000 
#    0.000    0.000    0.000    0.000    0.000    0.000 
#
# Total GULP energy -167128.371335 kJ/mol
# GULP energy per Si atom -5570.945711 kJ/mol
# Density = 2.208217 g / cm^3
# Si number density = 22.132547 Si / 1000 Ang^3
#
#
#
# Elastic Constant Matrix: (Units=GPa)
#
#
# Indices 1 2 3 4 5 6 
#
# 1 71.5215 22.1352 24.4345 0.0000 22.1266 0.0000
# 2 22.1352 127.6499 41.7532 0.0000 -1.6362 0.0000
# 3 24.4345 41.7532 70.9247 0.0000 3.6282 0.0000
# 4 0.0000 0.0000 0.0000 17.1644 0.0000 25.1587
# 5 22.1266 -1.6362 3.6282 0.0000 30.0212 0.0000
# 6 0.0000 0.0000 0.0000 25.1587 0.0000 26.4469
#
#
#
# Elastic Compliance Matrix: (Units=1/GPa)
#
#
# Indices 1 2 3 4 5 6 
#
# 1 0.021078 -0.002135 -0.005237 0.000000 -0.015019 0.000000
# 2 -0.002135 0.009963 -0.005271 0.000000 0.002753 0.000000
# 3 -0.005237 -0.005271 0.018941 0.000000 0.001283 0.000000
# 4 0.000000 0.000000 0.000000 -0.147737 0.000000 0.140541
# 5 -0.015019 0.002753 0.001283 0.000000 0.044374 0.000000
# 6 0.000000 0.000000 0.000000 0.140541 0.000000 -0.095884
#
#
# Mechanical properties :
#
#
# Convention : Reuss Voigt Hill
#
# Bulk Modulus (GPa) = 40.48956 49.63801 45.06379
# Shear Modulus (GPa) = -43.19726 26.84472 -8.17627
#
# Velocity S-wave (km/s) = -4.42266 3.48646 -1.92412
# Velocity P-wave (km/s) = 2.78317 6.21961 3.93303
#
# Compressibility (1/GPa) = 0.02469772
#
# Stress axis : x y z
#
# Youngs Moduli (GPa) = 47.44331 100.36698 52.79586
#
# Poissons Ratio (x) = 0.21425 0.27647
# Poissons Ratio (y) = 0.10127 0.27828
# Poissons Ratio (z) = 0.24844 0.52902
#
# Static dielectric constant tensor:
#      x y z
#    x 2.984080 0.000000 0.151950 
#    y 0.000000 1.288190 0.000000 
#    z 0.151950 0.000000 1.860900 
# 
# From -- ./inp_files/305826.got.cif
#   From: 2010.05.17/outbox.cif.g08.bks.cpg/sg15_153_cif.got.tgz:305826.got - 2010.06.03 18:47:42.
