data_PCOD9305053
_publ_section_title
;
Structure prediction by ZEFSAII (Michael W. Deem and Ramdas Pophale) SiO2 
 PCOD9305053
Probable space group: C 2/C
;
_chemical_formula_sum "Si O2"
_cell_formula_units_Z 64
_cell_length_a 16.273895
_cell_length_b 14.525890
_cell_length_c 14.071951
_cell_angle_alpha 90.000000
_cell_angle_beta 121.114262
_cell_angle_gamma 90.000000
_cell_volume 2847.951531
_symmetry_space_group_name_H-M "C 2/C"
_symmetry_group_IT_number 15
_symmetry_cell_setting 'monoclinic'
loop_
_space_group_symop_operation_xyz
x,y,z
-x,y,1/2-z
-x,-y,-z
x,-y,1/2+z
1/2+x,1/2+y,z
1/2-x,1/2+y,1/2-z
1/2-x,1/2-y,-z
1/2+x,1/2-y,1/2+z
loop_
_atom_site_type_symbol
_atom_site_label
_atom_site_fract_x
_atom_site_fract_y
_atom_site_fract_z
Si Si1 0.731402 0.434681 0.841602
Si Si2 0.891884 0.429651 0.652723
Si Si3 0.032079 0.757875 0.539335
Si Si4 0.083034 0.056529 0.100205
Si Si5 0.907860 0.564497 0.940851
Si Si6 0.680927 0.264824 0.160318
Si Si7 0.246308 0.776450 0.606558
Si Si8 0.231417 0.057994 0.567477
O O1 0.636869 0.465886 0.730106
O O2 0.817332 0.502673 0.860131
O O3 0.763875 0.330513 0.832586
O O4 0.716198 0.438432 0.945211
O O5 0.888314 0.406560 0.538546
O O6 0.825733 0.355736 0.665351
O O7 0.842852 0.527701 0.641728
O O8 0.000000 0.426171 0.750000
O O9 0.024458 0.849396 0.596491
O O10 0.060862 0.657525 0.594356
O O11 0.132994 0.793627 0.553840
O O12 0.934507 0.750083 0.419821
O O13 0.169151 0.023300 0.078423
O O14 0.000000 0.000000 0.000000
O O15 0.000000 0.500000 0.000000
O O16 0.717993 0.291193 0.288247
O O17 0.709212 0.346518 0.105945
O O18 0.250000 0.750000 0.500000
#
# Coordination Sequence:
#
# PCOD9305053 Si02
#       8
#     8   8   8   8   8   8   8   8
#     4  11  26  48  73 103 150 191 243 315 361 439
#     4  11  24  44  68 103 144 182 241 305 358 435
#     4  12  24  44  73 109 144 188 249 298 372 443
#     4  12  26  48  71 105 150 193 244 301 370 446
#     4  11  24  41  72 107 138 186 240 299 372 429
#     4  12  25  47  75 102 151 196 240 308 361 446
#     4  12  26  44  69 106 146 187 239 305 371 432
#     4  11  26  46  73 107 144 196 250 291 374 442
#
# _framework density 22.472291999999999
#
# number of rings (size 3 to 8) (size 9 to 14) (size 15 to 20)
#    0.000    0.500    6.250    1.125    3.500    0.500 
#    0.000    1.250    0.000    0.000    0.000    0.000 
#    0.000    0.000    0.000    0.000    0.000    0.000 
#
# Total GULP energy -178308.922588 kJ/mol
# GULP energy per Si atom -5572.153831 kJ/mol
# Density = 2.242114 g / cm^3
# Si number density = 22.472292 Si / 1000 Ang^3
#
#
#
# Elastic Constant Matrix: (Units=GPa)
#
#
# Indices 1 2 3 4 5 6 
#
# 1 77.3914 15.9469 50.5949 0.0000 18.6514 0.0000
# 2 15.9469 137.3899 30.8929 0.0000 1.9608 0.0000
# 3 50.5949 30.8929 156.3891 0.0000 10.8945 0.0000
# 4 0.0000 0.0000 0.0000 22.7349 0.0000 8.4917
# 5 18.6514 1.9608 10.8945 0.0000 49.1689 0.0000
# 6 0.0000 0.0000 0.0000 8.4917 0.0000 38.7142
#
#
#
# Elastic Compliance Matrix: (Units=1/GPa)
#
#
# Indices 1 2 3 4 5 6 
#
# 1 0.017850 -0.000817 -0.005225 0.000000 -0.005581 0.000000
# 2 -0.000817 0.007654 -0.001267 0.000000 0.000286 0.000000
# 3 -0.005225 -0.001267 0.008322 0.000000 0.000189 0.000000
# 4 0.000000 0.000000 0.000000 0.047911 0.000000 -0.010509
# 5 -0.005581 0.000286 0.000189 0.000000 0.022402 0.000000
# 6 0.000000 0.000000 0.000000 -0.010509 0.000000 0.028135
#
#
# Mechanical properties :
#
#
# Convention : Reuss Voigt Hill
#
# Bulk Modulus (GPa) = 52.06325 62.89334 57.47830
# Shear Modulus (GPa) = 32.61658 40.37264 36.49461
#
# Velocity S-wave (km/s) = 3.81387 4.24317 4.03424
# Velocity P-wave (km/s) = 6.52780 7.21484 6.87990
#
# Compressibility (1/GPa) = 0.01920740
#
# Stress axis : x y z
#
# Youngs Moduli (GPa) = 56.02091 130.64448 120.16569
#
# Poissons Ratio (x) = 0.10680 0.62783
# Poissons Ratio (y) = 0.04579 0.15231
# Poissons Ratio (z) = 0.29269 0.16559
#
# Static dielectric constant tensor:
#      x y z
#    x 1.881930 0.000000 0.076510 
#    y 0.000000 1.884630 0.000000 
#    z 0.076510 0.000000 1.960630 
# 
# From -- ./inp_files/162592.got.cif
#   From: 2010.05.17/outbox.cif.g08.bks.cpg/sg15_82_cif.got.tgz:162592.got - 2010.06.03 18:47:42.
