data_PCOD9305843
_publ_section_title
;
Structure prediction by ZEFSAII (Michael W. Deem and Ramdas Pophale) SiO2 
 PCOD9305843
Probable space group: C 2/C
;
_chemical_formula_sum "Si O2"
_cell_formula_units_Z 40
_cell_length_a 7.926984
_cell_length_b 17.647467
_cell_length_c 12.183894
_cell_angle_alpha 90.000000
_cell_angle_beta 85.007209
_cell_angle_gamma 90.000000
_cell_volume 1697.952260
_symmetry_space_group_name_H-M "C 2/C"
_symmetry_group_IT_number 15
_symmetry_cell_setting 'monoclinic'
loop_
_space_group_symop_operation_xyz
x,y,z
-x,y,1/2-z
-x,-y,-z
x,-y,1/2+z
1/2+x,1/2+y,z
1/2-x,1/2+y,1/2-z
1/2-x,1/2-y,-z
1/2+x,1/2-y,1/2+z
loop_
_atom_site_type_symbol
_atom_site_label
_atom_site_fract_x
_atom_site_fract_y
_atom_site_fract_z
Si Si1 0.315784 0.794602 0.214453
Si Si2 0.695980 0.613428 0.273368
Si Si3 0.169932 0.535286 0.439493
Si Si4 0.676358 0.325632 0.445435
Si Si5 0.192161 0.115427 0.519486
O O1 0.500000 0.815016 0.250000
O O2 0.296371 0.704538 0.224573
O O3 0.185906 0.823895 0.313492
O O4 0.294228 0.829263 0.095083
O O5 0.500000 0.594494 0.250000
O O6 0.821285 0.575439 0.179216
O O7 0.748350 0.594080 0.393831
O O8 0.222718 0.602210 0.517601
O O9 0.305908 0.466667 0.423892
O O10 0.000000 0.500000 0.500000
O O11 0.750000 0.250000 0.500000
O O12 0.484298 0.341798 0.488854
#
# Coordination Sequence:
#
# PCOD9305843 Si02
#       5
#     8   8   8   8   8
#     4  11  24  47  78 117 161 209 271 338 401 492
#     4  11  24  49  78 112 160 212 270 333 404 496
#     4  12  28  49  75 118 162 209 272 344 407 478
#     4  12  24  50  80 112 162 215 267 332 404 497
#     4  12  27  47  82 112 156 216 273 329 422 477
#
# _framework density 23.557787999999999
#
# number of rings (size 3 to 8) (size 9 to 14) (size 15 to 20)
#    0.000    0.400    4.000    4.200    2.800    2.400 
#    3.600    0.000    0.000    0.000    0.000    0.000 
#    0.000    0.000    0.000    0.000    0.000    0.000 
#
# Total GULP energy -111867.076106 kJ/mol
# GULP energy per Si atom -5593.353805 kJ/mol
# Density = 2.350417 g / cm^3
# Si number density = 23.557788 Si / 1000 Ang^3
#
#
#
# Elastic Constant Matrix: (Units=GPa)
#
#
# Indices 1 2 3 4 5 6 
#
# 1 94.0149 69.6996 46.1746 0.0000 15.0333 0.0000
# 2 69.6996 135.1094 40.0911 0.0000 16.0868 0.0000
# 3 46.1746 40.0911 168.2272 0.0000 12.5318 0.0000
# 4 0.0000 0.0000 0.0000 43.4740 0.0000 -0.9383
# 5 15.0333 16.0868 12.5318 0.0000 34.2367 0.0000
# 6 0.0000 0.0000 0.0000 -0.9383 0.0000 32.8012
#
#
#
# Elastic Compliance Matrix: (Units=1/GPa)
#
#
# Indices 1 2 3 4 5 6 
#
# 1 0.018880 -0.008489 -0.002918 0.000000 -0.003233 0.000000
# 2 -0.008489 0.012122 -0.000424 0.000000 -0.001813 0.000000
# 3 -0.002918 -0.000424 0.006925 0.000000 -0.001054 0.000000
# 4 0.000000 0.000000 0.000000 0.023016 0.000000 0.000658
# 5 -0.003233 -0.001813 -0.001054 0.000000 0.031866 0.000000
# 6 0.000000 0.000000 0.000000 0.000658 0.000000 0.030506
#
#
# Mechanical properties :
#
#
# Convention : Reuss Voigt Hill
#
# Bulk Modulus (GPa) = 70.09988 78.80912 74.45450
# Shear Modulus (GPa) = 32.95260 38.19480 35.57370
#
# Velocity S-wave (km/s) = 3.74411 4.03093 3.89017
# Velocity P-wave (km/s) = 6.96508 7.42905 7.20080
#
# Compressibility (1/GPa) = 0.01426536
#
# Stress axis : x y z
#
# Youngs Moduli (GPa) = 52.96492 82.49246 144.40662
#
# Poissons Ratio (x) = 0.70028 0.42143
# Poissons Ratio (y) = 0.44962 0.06120
# Poissons Ratio (z) = 0.15457 0.03496
#
# Static dielectric constant tensor:
#      x y z
#    x 2.112200 0.000000 0.018280 
#    y 0.000000 1.875600 0.000000 
#    z 0.018280 0.000000 1.965870 
# 
# From -- ./inp_files/76786.got.cif
#   From: 2010.05.17/outbox.cif.g08.bks.cpg/sg15_39_cif.got.tgz:76786.got - 2010.06.03 18:47:42.
