data_PCOD9305453
_publ_section_title
;
Structure prediction by ZEFSAII (Michael W. Deem and Ramdas Pophale) SiO2 
 PCOD9305453
Probable space group: C 2/C
;
_chemical_formula_sum "Si O2"
_cell_formula_units_Z 52
_cell_length_a 14.796540
_cell_length_b 13.397167
_cell_length_c 14.324707
_cell_angle_alpha 90.000000
_cell_angle_beta 62.232668
_cell_angle_gamma 90.000000
_cell_volume 2512.620799
_symmetry_space_group_name_H-M "C 2/C"
_symmetry_group_IT_number 15
_symmetry_cell_setting 'monoclinic'
loop_
_space_group_symop_operation_xyz
x,y,z
-x,y,1/2-z
-x,-y,-z
x,-y,1/2+z
1/2+x,1/2+y,z
1/2-x,1/2+y,1/2-z
1/2-x,1/2-y,-z
1/2+x,1/2-y,1/2+z
loop_
_atom_site_type_symbol
_atom_site_label
_atom_site_fract_x
_atom_site_fract_y
_atom_site_fract_z
Si Si1 0.711984 0.552538 0.661633
Si Si2 0.657961 0.554961 0.359933
Si Si3 0.923537 0.954307 0.922418
Si Si4 0.151821 0.257496 0.981936
Si Si5 0.812775 0.273329 0.757685
Si Si6 0.914279 0.519245 0.965049
Si Si7 0.000000 0.598265 0.250000
O O1 0.729328 0.509930 0.757570
O O2 0.623567 0.487830 0.653133
O O3 0.687793 0.668492 0.687319
O O4 0.811682 0.531515 0.552943
O O5 0.644376 0.518342 0.471782
O O6 0.544080 0.530905 0.376326
O O7 0.708909 0.664030 0.328554
O O8 0.910939 0.839697 0.958767
O O9 0.177360 0.257124 0.859037
O O10 0.250000 0.250000 0.000000
O O11 0.100807 0.362237 0.031621
O O12 0.911565 0.335129 0.744613
O O13 0.946848 0.470280 0.852885
O O14 0.000000 0.500000 0.000000
#
# Coordination Sequence:
#
# PCOD9305453 Si02
#       7
#     8   8   8   8   8   8   4
#     4  12  25  46  73 103 148 188 247 306 371 442
#     4  11  24  45  68 102 140 186 244 298 363 441
#     4  11  25  43  71 101 142 189 242 302 363 439
#     4  12  24  47  72 104 145 195 244 304 375 443
#     4  12  27  45  77 107 145 196 249 308 381 445
#     4  12  26  47  74 106 151 196 250 311 379 452
#     4  12  28  48  74 108 152 190 256 314 374 452
#
# _framework density 20.695522
#
# number of rings (size 3 to 8) (size 9 to 14) (size 15 to 20)
#    0.000    0.308    6.154    1.385    4.308    3.692 
#    2.769    0.000    0.000    0.000    0.000    0.000 
#    0.000    0.000    0.000    0.000    0.000    0.000 
#
# Total GULP energy -145308.324542 kJ/mol
# GULP energy per Si atom -5588.781713 kJ/mol
# Density = 2.064842 g / cm^3
# Si number density = 20.695522 Si / 1000 Ang^3
#
#
#
# Elastic Constant Matrix: (Units=GPa)
#
#
# Indices 1 2 3 4 5 6 
#
# 1 98.4184 19.3227 28.2830 0.0000 9.8535 0.0000
# 2 19.3227 152.2293 55.2597 0.0000 1.5366 0.0000
# 3 28.2830 55.2597 143.8583 0.0000 9.7492 0.0000
# 4 0.0000 0.0000 0.0000 20.0183 0.0000 15.3344
# 5 9.8535 1.5366 9.7492 0.0000 31.1803 0.0000
# 6 0.0000 0.0000 0.0000 15.3344 0.0000 29.1728
#
#
#
# Elastic Compliance Matrix: (Units=1/GPa)
#
#
# Indices 1 2 3 4 5 6 
#
# 1 0.011090 -0.000766 -0.001687 0.000000 -0.002939 0.000000
# 2 -0.000766 0.007696 -0.002857 0.000000 0.000756 0.000000
# 3 -0.001687 -0.002857 0.008515 0.000000 -0.001989 0.000000
# 4 0.000000 0.000000 0.000000 0.083627 0.000000 -0.043958
# 5 -0.002939 0.000756 -0.001989 0.000000 0.033585 0.000000
# 6 0.000000 0.000000 0.000000 -0.043958 0.000000 0.057384
#
#
# Mechanical properties :
#
#
# Convention : Reuss Voigt Hill
#
# Bulk Modulus (GPa) = 59.94518 66.69299 63.31908
# Shear Modulus (GPa) = 22.92776 35.51698 29.22237
#
# Velocity S-wave (km/s) = 3.33207 4.14716 3.76175
# Velocity P-wave (km/s) = 6.62055 7.43153 7.03773
#
# Compressibility (1/GPa) = 0.01668191
#
# Stress axis : x y z
#
# Youngs Moduli (GPa) = 90.17027 129.94416 117.43855
#
# Poissons Ratio (x) = 0.09949 0.19813
# Poissons Ratio (y) = 0.06904 0.33550
# Poissons Ratio (z) = 0.15212 0.37122
#
# Static dielectric constant tensor:
#      x y z
#    x 1.431350 0.000000 0.164590 
#    y 0.000000 1.759650 0.000000 
#    z 0.164590 0.000000 1.628730 
# 
# From -- ./inp_files/153874.got.cif
#   From: 2010.05.17/outbox.cif.g08.bks.cpg/sg15_77_cif.got.tgz:153874.got - 2010.06.03 18:47:42.
