data_PCOD9305631
_publ_section_title
;
Structure prediction by ZEFSAII (Michael W. Deem and Ramdas Pophale) SiO2 
 PCOD9305631
Probable space group: C 2/C
;
_chemical_formula_sum "Si O2"
_cell_formula_units_Z 48
_cell_length_a 9.192216
_cell_length_b 11.275599
_cell_length_c 27.486533
_cell_angle_alpha 90.000000
_cell_angle_beta 53.423552
_cell_angle_gamma 90.000000
_cell_volume 2287.858439
_symmetry_space_group_name_H-M "C 2/C"
_symmetry_group_IT_number 15
_symmetry_cell_setting 'monoclinic'
loop_
_space_group_symop_operation_xyz
x,y,z
-x,y,1/2-z
-x,-y,-z
x,-y,1/2+z
1/2+x,1/2+y,z
1/2-x,1/2+y,1/2-z
1/2-x,1/2-y,-z
1/2+x,1/2-y,1/2+z
loop_
_atom_site_type_symbol
_atom_site_label
_atom_site_fract_x
_atom_site_fract_y
_atom_site_fract_z
Si Si1 0.055209 0.488277 0.388565
Si Si2 0.444864 0.227883 0.438139
Si Si3 0.565775 0.397199 0.682871
Si Si4 0.458477 0.516508 0.614748
Si Si5 0.184268 0.638340 0.482987
Si Si6 0.922565 0.615089 0.820081
O O1 0.954071 0.613742 0.402063
O O2 0.959633 0.428219 0.453900
O O3 0.050450 0.414834 0.339983
O O4 0.259583 0.521553 0.359974
O O5 0.250000 0.250000 0.500000
O O6 0.485006 0.345610 0.399226
O O7 0.580528 0.190821 0.455961
O O8 0.500000 0.415154 0.750000
O O9 0.426112 0.447759 0.671668
O O10 0.609822 0.257348 0.669698
O O11 0.632874 0.442538 0.559523
O O12 0.256663 0.535976 0.633549
O O13 0.250000 0.750000 0.500000
O O14 0.000000 0.593892 0.750000
#
# Coordination Sequence:
#
# PCOD9305631 Si02
#       6
#     8   8   8   8   8   8
#     4  12  23  45  68  98 138 175 226 274 340 406
#     4  12  24  41  65 101 139 175 216 278 339 407
#     4  11  24  46  70  95 133 181 230 282 332 396
#     4  12  22  44  67  96 138 174 222 276 343 396
#     4  12  26  42  68 104 135 177 224 274 344 409
#     4  11  26  46  68  98 133 177 230 280 331 395
#
# _framework density 20.980318
#
# number of rings (size 3 to 8) (size 9 to 14) (size 15 to 20)
#    0.000    0.333    5.000    4.500    2.333    1.333 
#    3.000    0.833    0.000    0.000    0.000    0.000 
#    0.000    0.000    0.000    0.000    0.000    0.000 
#
# Total GULP energy -133766.216871 kJ/mol
# GULP energy per Si atom -5573.592370 kJ/mol
# Density = 2.093257 g / cm^3
# Si number density = 20.980318 Si / 1000 Ang^3
#
#
#
# Elastic Constant Matrix: (Units=GPa)
#
#
# Indices 1 2 3 4 5 6 
#
# 1 79.5090 41.5227 12.7630 0.0000 2.6594 0.0000
# 2 41.5227 127.8081 53.3431 0.0000 8.5709 0.0000
# 3 12.7630 53.3431 62.7145 0.0000 17.1355 0.0000
# 4 0.0000 0.0000 0.0000 -68.7675 0.0000 5.3150
# 5 2.6594 8.5709 17.1355 0.0000 32.1712 0.0000
# 6 0.0000 0.0000 0.0000 5.3150 0.0000 37.0815
#
#
#
# Elastic Compliance Matrix: (Units=1/GPa)
#
#
# Indices 1 2 3 4 5 6 
#
# 1 0.015283 -0.005743 0.001992 0.000000 -0.000794 0.000000
# 2 -0.005743 0.014485 -0.011969 0.000000 0.002991 0.000000
# 3 0.001992 -0.011969 0.029134 0.000000 -0.012494 0.000000
# 4 0.000000 0.000000 0.000000 -0.014382 0.000000 0.002061
# 5 -0.000794 0.002991 -0.012494 0.000000 0.037007 0.000000
# 6 0.000000 0.000000 0.000000 0.002061 0.000000 0.026672
#
#
# Mechanical properties :
#
#
# Convention : Reuss Voigt Hill
#
# Bulk Modulus (GPa) = 36.41456 53.92101 45.16778
# Shear Modulus (GPa) = 33.60350 10.92388 22.26369
#
# Velocity S-wave (km/s) = 4.00643 2.28430 3.26109
# Velocity P-wave (km/s) = 6.22866 5.71961 5.97955
#
# Compressibility (1/GPa) = 0.02746154
#
# Stress axis : x y z
#
# Youngs Moduli (GPa) = 65.43026 69.03679 34.32424
#
# Poissons Ratio (x) = 0.39651 -0.06837
# Poissons Ratio (y) = 0.37579 0.41082
# Poissons Ratio (z) = -0.13033 0.82629
#
# Static dielectric constant tensor:
#      x y z
#    x 1.702860 0.000000 -0.279970 
#    y 0.000000 1.742230 0.000000 
#    z -0.279970 0.000000 0.698070 
# 
# From -- ./inp_files/263065.got.cif
#   From: 2010.05.17/outbox.cif.g08.bks.cpg/sg15_132_cif.got.tgz:263065.got - 2010.06.03 18:47:42.
