data_PCOD9305666
_publ_section_title
;
Structure prediction by ZEFSAII (Michael W. Deem and Ramdas Pophale) SiO2 
 PCOD9305666
Probable space group: C 2/C
;
_chemical_formula_sum "Si O2"
_cell_formula_units_Z 60
_cell_length_a 16.714141
_cell_length_b 29.958199
_cell_length_c 10.304586
_cell_angle_alpha 90.000000
_cell_angle_beta 146.755003
_cell_angle_gamma 90.000000
_cell_volume 2828.689952
_symmetry_space_group_name_H-M "C 2/C"
_symmetry_group_IT_number 15
_symmetry_cell_setting 'monoclinic'
loop_
_space_group_symop_operation_xyz
x,y,z
-x,y,1/2-z
-x,-y,-z
x,-y,1/2+z
1/2+x,1/2+y,z
1/2-x,1/2+y,1/2-z
1/2-x,1/2-y,-z
1/2+x,1/2-y,1/2+z
loop_
_atom_site_type_symbol
_atom_site_label
_atom_site_fract_x
_atom_site_fract_y
_atom_site_fract_z
Si Si1 0.739317 0.022426 0.262752
Si Si2 0.834077 0.093005 0.200469
Si Si3 0.155983 0.549310 0.432005
Si Si4 0.124831 0.777819 0.259425
Si Si5 0.188847 0.253645 0.220113
Si Si6 0.583783 0.380599 0.230545
Si Si7 0.840837 0.677841 0.594752
Si Si8 0.000000 0.977249 0.750000
O O1 0.743259 0.069151 0.191973
O O2 0.660192 0.027052 0.294199
O O3 0.904175 0.007294 0.523553
O O4 0.680614 0.986686 0.079719
O O5 0.973705 0.114475 0.460778
O O6 0.891009 0.054515 0.181932
O O7 0.740997 0.130851 0.004084
O O8 0.284640 0.585156 0.608504
O O9 0.000000 0.570709 0.250000
O O10 0.250000 0.750000 0.500000
O O11 0.174473 0.770588 0.178192
O O12 0.134475 0.829579 0.308388
O O13 0.959877 0.760673 0.053736
O O14 0.146723 0.294073 0.257278
O O15 0.243911 0.209988 0.371241
O O16 0.500000 0.391519 0.250000
O O17 0.000000 0.671296 0.750000
#
# Coordination Sequence:
#
# PCOD9305666 Si02
#       8
#     8   8   8   8   8   8   8   4
#     4  12  24  47  74 102 144 188 242 295 364 431
#     4  12  25  42  74 105 137 187 242 297 348 435
#     4  12  27  47  72 106 150 191 237 301 370 431
#     4  12  26  45  73 104 141 189 236 290 357 428
#     4  11  24  46  72  99 142 184 235 289 357 418
#     4  12  25  46  71 101 140 189 241 294 348 426
#     4  11  25  45  71 102 139 181 233 297 356 415
#     4  12  24  44  74 108 138 184 248 294 366 432
#
# _framework density 21.211231999999999
#
# number of rings (size 3 to 8) (size 9 to 14) (size 15 to 20)
#    0.000    0.267    6.667    2.800    1.867    1.600 
#    4.800    0.000    0.000    0.000    0.000    0.000 
#    0.000    0.000    0.000    0.000    0.000    0.000 
#
# Total GULP energy -167881.107375 kJ/mol
# GULP energy per Si atom -5596.036913 kJ/mol
# Density = 2.116295 g / cm^3
# Si number density = 21.211232 Si / 1000 Ang^3
#
#
#
# Elastic Constant Matrix: (Units=GPa)
#
#
# Indices 1 2 3 4 5 6 
#
# 1 83.9535 23.5982 15.0219 0.0000 10.9152 0.0000
# 2 23.5982 110.9618 37.5670 0.0000 7.1004 0.0000
# 3 15.0219 37.5670 66.4355 0.0000 5.6324 0.0000
# 4 0.0000 0.0000 0.0000 27.4230 0.0000 15.5395
# 5 10.9152 7.1004 5.6324 0.0000 34.2698 0.0000
# 6 0.0000 0.0000 0.0000 15.5395 0.0000 87.3382
#
#
#
# Elastic Compliance Matrix: (Units=1/GPa)
#
#
# Indices 1 2 3 4 5 6 
#
# 1 0.013225 -0.002072 -0.001519 0.000000 -0.003533 0.000000
# 2 -0.002072 0.011527 -0.005987 0.000000 -0.000744 0.000000
# 3 -0.001519 -0.005987 0.018898 0.000000 -0.001382 0.000000
# 4 0.000000 0.000000 0.000000 0.040555 0.000000 -0.007216
# 5 -0.003533 -0.000744 -0.001382 0.000000 0.030687 0.000000
# 6 0.000000 0.000000 0.000000 -0.007216 0.000000 0.012734
#
#
# Mechanical properties :
#
#
# Convention : Reuss Voigt Hill
#
# Bulk Modulus (GPa) = 40.82526 45.96943 43.39735
# Shear Modulus (GPa) = 32.26934 42.15046 37.20990
#
# Velocity S-wave (km/s) = 3.90466 4.46261 4.19293
# Velocity P-wave (km/s) = 6.29422 6.94784 6.62909
#
# Compressibility (1/GPa) = 0.02449464
#
# Stress axis : x y z
#
# Youngs Moduli (GPa) = 75.61442 86.75099 52.91552
#
# Poissons Ratio (x) = 0.17976 0.08038
# Poissons Ratio (y) = 0.15669 0.31678
# Poissons Ratio (z) = 0.11486 0.51934
#
# Static dielectric constant tensor:
#      x y z
#    x 1.816780 0.000000 -0.002890 
#    y 0.000000 1.719420 0.000000 
#    z -0.002890 0.000000 1.790090 
# 
# From -- ./inp_files/108441.got.cif
#   From: 2010.05.17/outbox.cif.g08.bks.cpg/sg15_55_cif.got.tgz:108441.got - 2010.06.03 18:47:42.
