data_PCOD9305957
_publ_section_title
;
Structure prediction by ZEFSAII (Michael W. Deem and Ramdas Pophale) SiO2 
 PCOD9305957
Probable space group: C 2/C
;
_chemical_formula_sum "Si O2"
_cell_formula_units_Z 28
_cell_length_a 7.507636
_cell_length_b 13.077312
_cell_length_c 12.008972
_cell_angle_alpha 90.000000
_cell_angle_beta 110.906013
_cell_angle_gamma 90.000000
_cell_volume 1101.417726
_symmetry_space_group_name_H-M "C 2/C"
_symmetry_group_IT_number 15
_symmetry_cell_setting 'monoclinic'
loop_
_space_group_symop_operation_xyz
x,y,z
-x,y,1/2-z
-x,-y,-z
x,-y,1/2+z
1/2+x,1/2+y,z
1/2-x,1/2+y,1/2-z
1/2-x,1/2-y,-z
1/2+x,1/2-y,1/2+z
loop_
_atom_site_type_symbol
_atom_site_label
_atom_site_fract_x
_atom_site_fract_y
_atom_site_fract_z
Si Si1 0.717305 0.674592 0.326878
Si Si2 0.489350 0.358884 0.379729
Si Si3 0.251797 0.995105 0.025052
Si Si4 0.000000 0.559346 0.250000
O O1 0.500000 0.706246 0.250000
O O2 0.863205 0.764565 0.394470
O O3 0.717318 0.586902 0.420696
O O4 0.820305 0.629508 0.240352
O O5 0.500000 0.354120 0.250000
O O6 0.373772 0.457204 0.397857
O O7 0.696160 0.390798 0.472313
O O8 0.457761 0.996284 0.128849
#
# Coordination Sequence:
#
# PCOD9305957 Si02
#       4
#     8   8   8   4
#     4  12  26  49  77 114 151 194 258 310 380 460
#     4  11  24  49  78 108 151 196 251 317 378 451
#     4  11  25  47  76 110 154 199 249 317 375 453
#     4  12  26  48  76 108 150 206 246 306 390 438
#
# _framework density 25.421780999999999
#
# number of rings (size 3 to 8) (size 9 to 14) (size 15 to 20)
#    0.000    0.571    1.429    7.714    2.000    1.143 
#    5.143    0.000    0.000    0.000    0.000    0.000 
#    0.000    0.000    0.000    0.000    0.000    0.000 
#
# Total GULP energy -78231.713640 kJ/mol
# GULP energy per Si atom -5587.979546 kJ/mol
# Density = 2.536392 g / cm^3
# Si number density = 25.421781 Si / 1000 Ang^3
#
#
#
# Elastic Constant Matrix: (Units=GPa)
#
#
# Indices 1 2 3 4 5 6 
#
# 1 112.3710 41.9492 34.6344 0.0000 -12.9132 0.0000
# 2 41.9492 128.5111 61.0681 0.0000 14.2242 0.0000
# 3 34.6344 61.0681 139.6889 0.0000 15.8803 0.0000
# 4 0.0000 0.0000 0.0000 29.6150 0.0000 -0.9380
# 5 -12.9132 14.2242 15.8803 0.0000 40.3968 0.0000
# 6 0.0000 0.0000 0.0000 -0.9380 0.0000 40.5780
#
#
#
# Elastic Compliance Matrix: (Units=1/GPa)
#
#
# Indices 1 2 3 4 5 6 
#
# 1 0.011432 -0.003413 -0.001983 0.000000 0.005636 0.000000
# 2 -0.003413 0.010975 -0.003547 0.000000 -0.003561 0.000000
# 3 -0.001983 -0.003547 0.009558 0.000000 -0.003142 0.000000
# 4 0.000000 0.000000 0.000000 0.033791 0.000000 0.000781
# 5 0.005636 -0.003561 -0.003142 0.000000 0.029045 0.000000
# 6 0.000000 0.000000 0.000000 0.000781 0.000000 0.024662
#
#
# Mechanical properties :
#
#
# Convention : Reuss Voigt Hill
#
# Bulk Modulus (GPa) = 71.02604 72.87495 71.95049
# Shear Modulus (GPa) = 35.20044 38.31256 36.75650
#
# Velocity S-wave (km/s) = 3.72513 3.88632 3.80658
# Velocity P-wave (km/s) = 6.81923 6.99046 6.90538
#
# Compressibility (1/GPa) = 0.01407934
#
# Stress axis : x y z
#
# Youngs Moduli (GPa) = 87.47306 91.11411 104.62102
#
# Poissons Ratio (x) = 0.31099 0.20746
# Poissons Ratio (y) = 0.29856 0.37109
# Poissons Ratio (z) = 0.17346 0.32318
#
# Static dielectric constant tensor:
#      x y z
#    x 2.321650 0.000000 0.189690 
#    y 0.000000 2.025180 0.000000 
#    z 0.189690 0.000000 2.059250 
# 
# From -- ./inp_files/75216.got.cif
#   From: 2010.05.17/outbox.cif.g08.bks.cpg/sg15_38_cif.got.tgz:75216.got - 2010.06.03 18:47:42.
