data_PCOD9305726
_publ_section_title
;
Structure prediction by ZEFSAII (Michael W. Deem and Ramdas Pophale) SiO2 
 PCOD9305726
Probable space group: C 2/C
;
_chemical_formula_sum "Si O2"
_cell_formula_units_Z 44
_cell_length_a 11.349429
_cell_length_b 14.267160
_cell_length_c 11.397622
_cell_angle_alpha 90.000000
_cell_angle_beta 81.638169
_cell_angle_gamma 90.000000
_cell_volume 1825.930659
_symmetry_space_group_name_H-M "C 2/C"
_symmetry_group_IT_number 15
_symmetry_cell_setting 'monoclinic'
loop_
_space_group_symop_operation_xyz
x,y,z
-x,y,1/2-z
-x,-y,-z
x,-y,1/2+z
1/2+x,1/2+y,z
1/2-x,1/2+y,1/2-z
1/2-x,1/2-y,-z
1/2+x,1/2-y,1/2+z
loop_
_atom_site_type_symbol
_atom_site_label
_atom_site_fract_x
_atom_site_fract_y
_atom_site_fract_z
Si Si1 0.120456 0.229970 0.309652
Si Si2 0.081295 0.879738 0.055448
Si Si3 0.130171 0.552407 0.787232
Si Si4 0.326534 0.142006 0.120063
Si Si5 0.310142 0.563080 0.554247
Si Si6 0.000000 0.756082 0.250000
O O1 0.108529 0.179097 0.435576
O O2 0.140403 0.340552 0.326922
O O3 0.223297 0.178700 0.221183
O O4 0.000000 0.219678 0.250000
O O5 0.097080 0.820417 0.170784
O O6 0.939916 0.901908 0.074337
O O7 0.154388 0.975768 0.034686
O O8 0.139032 0.467118 0.875207
O O9 0.231143 0.532920 0.675243
O O10 0.000000 0.545360 0.750000
O O11 0.441096 0.196690 0.153173
O O12 0.267356 0.143055 0.999820
#
# Coordination Sequence:
#
# PCOD9305726 Si02
#       6
#     8   8   8   8   8   4
#     4  11  24  46  77 107 144 194 253 299 375 439
#     4  11  26  48  76 114 143 198 256 311 366 437
#     4  11  26  46  69 109 148 199 238 306 375 440
#     4  12  26  47  71 111 153 191 248 307 373 447
#     4  11  26  46  79 105 151 194 254 316 367 433
#     4  12  30  44  72 112 158 194 248 302 374 450
#
# _framework density 24.097300000000001
#
# number of rings (size 3 to 8) (size 9 to 14) (size 15 to 20)
#    0.000    0.727    4.545    1.091   10.182    4.364 
#    0.000    0.000    0.000    0.000    0.000    0.000 
#    0.000    0.000    0.000    0.000    0.000    0.000 
#
# Total GULP energy -123142.196882 kJ/mol
# GULP energy per Si atom -5597.372586 kJ/mol
# Density = 2.404245 g / cm^3
# Si number density = 24.097300 Si / 1000 Ang^3
#
#
#
# Elastic Constant Matrix: (Units=GPa)
#
#
# Indices 1 2 3 4 5 6 
#
# 1 107.3612 26.9763 -18.1588 0.0000 8.3100 0.0000
# 2 26.9763 109.8871 -5.3311 0.0000 25.9807 0.0000
# 3 -18.1588 -5.3311 36.0819 0.0000 3.9035 0.0000
# 4 0.0000 0.0000 0.0000 25.9704 0.0000 0.6394
# 5 8.3100 25.9807 3.9035 0.0000 29.4321 0.0000
# 6 0.0000 0.0000 0.0000 0.6394 0.0000 -8.4405
#
#
#
# Elastic Compliance Matrix: (Units=1/GPa)
#
#
# Indices 1 2 3 4 5 6 
#
# 1 0.010873 -0.001909 0.005418 0.000000 -0.002103 0.000000
# 2 -0.001909 0.012129 0.001959 0.000000 -0.010428 0.000000
# 3 0.005418 0.001959 0.031536 0.000000 -0.007442 0.000000
# 4 0.000000 0.000000 0.000000 0.038434 0.000000 0.002911
# 5 -0.002103 -0.010428 -0.007442 0.000000 0.044762 0.000000
# 6 0.000000 0.000000 0.000000 0.002911 0.000000 -0.118256
#
#
# Mechanical properties :
#
#
# Convention : Reuss Voigt Hill
#
# Bulk Modulus (GPa) = 15.27321 28.92256 22.09788
# Shear Modulus (GPa) = 164.64861 26.04865 95.34863
#
# Velocity S-wave (km/s) = 8.27496 3.29139 6.29715
# Velocity P-wave (km/s) = 9.88189 5.14517 7.87796
#
# Compressibility (1/GPa) = 0.06547414
#
# Stress axis : x y z
#
# Youngs Moduli (GPa) = 91.96946 82.44368 31.70999
#
# Poissons Ratio (x) = 0.15740 -0.17179
# Poissons Ratio (y) = 0.17559 -0.06213
# Poissons Ratio (z) = -0.49825 -0.16154
#
# Static dielectric constant tensor:
#      x y z
#    x 1.960250 0.000000 0.049530 
#    y 0.000000 1.935130 0.000000 
#    z 0.049530 0.000000 1.859870 
# 
# From -- ./inp_files/86048.got.cif
#   From: 2010.05.17/outbox.cif.g08.bks.cpg/sg15_44_cif.got.tgz:86048.got - 2010.06.03 18:47:42.
