data_PCOD9305914
_publ_section_title
;
Structure prediction by ZEFSAII (Michael W. Deem and Ramdas Pophale) SiO2 
 PCOD9305914
Probable space group: C 2/C
;
_chemical_formula_sum "Si O2"
_cell_formula_units_Z 36
_cell_length_a 9.392251
_cell_length_b 16.629477
_cell_length_c 12.733041
_cell_angle_alpha 90.000000
_cell_angle_beta 134.427491
_cell_angle_gamma 90.000000
_cell_volume 1420.240485
_symmetry_space_group_name_H-M "C 2/C"
_symmetry_group_IT_number 15
_symmetry_cell_setting 'monoclinic'
loop_
_space_group_symop_operation_xyz
x,y,z
-x,y,1/2-z
-x,-y,-z
x,-y,1/2+z
1/2+x,1/2+y,z
1/2-x,1/2+y,1/2-z
1/2-x,1/2-y,-z
1/2+x,1/2-y,1/2+z
loop_
_atom_site_type_symbol
_atom_site_label
_atom_site_fract_x
_atom_site_fract_y
_atom_site_fract_z
Si Si1 0.669886 0.801722 0.754151
Si Si2 0.417381 0.376568 0.473833
Si Si3 0.000000 0.356338 0.250000
Si Si4 0.101057 0.358031 0.069341
Si Si5 0.626334 0.526904 0.910680
O O1 0.500000 0.829254 0.750000
O O2 0.381427 0.652529 0.367264
O O3 0.738024 0.713192 0.827853
O O4 0.568214 0.816818 0.589582
O O5 0.222855 0.319842 0.379644
O O6 0.338654 0.458934 0.485678
O O7 0.495649 0.404057 0.400202
O O8 0.036840 0.389689 0.150864
O O9 0.186916 0.429944 0.044285
O O10 0.500000 0.490997 0.750000
#
# Coordination Sequence:
#
# PCOD9305914 Si02
#       5
#     8   8   4   8   8
#     4  12  26  48  83 115 148 208 269 325 395 470
#     4  11  27  46  74 114 153 203 259 323 399 468
#     4  12  28  48  72 116 160 204 260 326 400 464
#     4  12  27  47  81 113 160 206 267 326 392 473
#     4  11  24  48  75 109 156 206 263 319 390 471
#
# _framework density 25.347819999999999
#
# number of rings (size 3 to 8) (size 9 to 14) (size 15 to 20)
#    0.000    0.444    4.444    2.667    3.111    8.000 
#    0.000    0.000    0.000    0.000    0.000    0.000 
#    0.000    0.000    0.000    0.000    0.000    0.000 
#
# Total GULP energy -100465.237554 kJ/mol
# GULP energy per Si atom -5581.402086 kJ/mol
# Density = 2.529013 g / cm^3
# Si number density = 25.347820 Si / 1000 Ang^3
#
#
#
# Elastic Constant Matrix: (Units=GPa)
#
#
# Indices 1 2 3 4 5 6 
#
# 1 207.9858 54.8749 83.6313 -0.0001 10.2132 0.0000
# 2 54.8749 81.7929 35.0734 0.0000 3.6168 0.0000
# 3 83.6313 35.0734 165.2813 -0.0001 -3.3640 0.0000
# 4 -0.0001 0.0000 -0.0001 9.9824 -0.0001 -0.6259
# 5 10.2132 3.6168 -3.3640 -0.0001 58.1425 0.0000
# 6 0.0000 0.0000 0.0000 -0.6259 0.0000 45.0230
#
#
#
# Elastic Compliance Matrix: (Units=1/GPa)
#
#
# Indices 1 2 3 4 5 6 
#
# 1 0.006874 -0.003365 -0.002788 0.000000 -0.001159 0.000000
# 2 -0.003365 0.015156 -0.001522 0.000000 -0.000440 0.000000
# 3 -0.002788 -0.001522 0.007805 0.000000 0.001036 0.000000
# 4 0.000000 0.000000 0.000000 0.100264 0.000000 0.001394
# 5 -0.001159 -0.000440 0.001036 0.000000 0.017490 0.000000
# 6 0.000000 0.000000 0.000000 0.001394 0.000000 0.022230
#
#
# Mechanical properties :
#
#
# Convention : Reuss Voigt Hill
#
# Bulk Modulus (GPa) = 69.03924 89.13545 79.08734
# Shear Modulus (GPa) = 26.31621 41.39493 33.85557
#
# Velocity S-wave (km/s) = 3.22561 4.04552 3.65861
# Velocity P-wave (km/s) = 6.41628 7.55400 7.00827
#
# Compressibility (1/GPa) = 0.01448452
#
# Stress axis : x y z
#
# Youngs Moduli (GPa) = 145.48346 65.98124 128.12406
#
# Poissons Ratio (x) = 0.22202 0.35715
# Poissons Ratio (y) = 0.48954 0.19506
# Poissons Ratio (z) = 0.40554 0.10045
#
# Static dielectric constant tensor:
#      x y z
#    x 1.999080 0.000000 0.071470 
#    y 0.000000 2.052830 0.000000 
#    z 0.071470 0.000000 2.045680 
# 
# From -- ./inp_files/76989.got.cif
#   From: 2010.05.17/outbox.cif.g08.bks.cpg/sg15_39_cif.got.tgz:76989.got - 2010.06.03 18:47:42.
