data_PCOD9305722
_publ_section_title
;
Structure prediction by ZEFSAII (Michael W. Deem and Ramdas Pophale) SiO2 
 PCOD9305722
Probable space group: C 2/C
;
_chemical_formula_sum "Si O2"
_cell_formula_units_Z 28
_cell_length_a 16.998937
_cell_length_b 15.391288
_cell_length_c 5.024860
_cell_angle_alpha 90.000000
_cell_angle_beta 52.824396
_cell_angle_gamma 90.000000
_cell_volume 1047.521841
_symmetry_space_group_name_H-M "C 2/C"
_symmetry_group_IT_number 15
_symmetry_cell_setting 'monoclinic'
loop_
_space_group_symop_operation_xyz
x,y,z
-x,y,1/2-z
-x,-y,-z
x,-y,1/2+z
1/2+x,1/2+y,z
1/2-x,1/2+y,1/2-z
1/2-x,1/2-y,-z
1/2+x,1/2-y,1/2+z
loop_
_atom_site_type_symbol
_atom_site_label
_atom_site_fract_x
_atom_site_fract_y
_atom_site_fract_z
Si Si1 0.404168 0.291135 0.139404
Si Si2 0.329866 0.941142 0.372178
Si Si3 0.500000 0.435865 0.250000
Si Si4 0.000000 0.360265 0.750000
Si Si5 0.250000 0.250000 0.000000
O O1 0.414385 0.367958 0.335774
O O2 0.419055 0.204118 0.284658
O O3 0.312472 0.288067 0.134397
O O4 0.500000 0.297886 0.750000
O O5 0.281173 0.848822 0.516997
O O6 0.305543 0.007415 0.654131
O O7 0.444730 0.914896 0.085890
O O8 0.500000 0.500000 0.500000
#
# Coordination Sequence:
#
# PCOD9305722 Si02
#       5
#     8   8   4   4   4
#     4  11  24  48  79 115 157 229 269 346 446 497
#     4  12  28  49  80 120 159 217 276 347 428 505
#     4  11  24  46  76 109 158 214 282 343 400 507
#     4  11  24  48  80 115 166 210 284 349 432 525
#     4  12  28  52  82 118 176 212 286 364 416 522
#
# _framework density 26.729752999999999
#
# number of rings (size 3 to 8) (size 9 to 14) (size 15 to 20)
#    0.000    0.571    4.286    2.571    0.000    6.857 
#    0.000    0.000    0.000    0.000    0.000    0.000 
#    0.000    0.000    0.000    0.000    0.000    0.000 
#
# Total GULP energy -77990.355560 kJ/mol
# GULP energy per Si atom -5570.739683 kJ/mol
# Density = 2.666891 g / cm^3
# Si number density = 26.729753 Si / 1000 Ang^3
#
#
#
# Elastic Constant Matrix: (Units=GPa)
#
#
# Indices 1 2 3 4 5 6 
#
# 1 185.3397 24.5945 28.9247 0.0000 31.1741 0.0000
# 2 24.5945 182.4347 49.3085 0.0000 -6.4462 0.0000
# 3 28.9247 49.3085 117.9369 0.0000 26.8243 0.0000
# 4 0.0000 0.0000 0.0000 -17.5792 0.0000 49.4369
# 5 31.1741 -6.4462 26.8243 0.0000 43.0091 0.0000
# 6 0.0000 0.0000 0.0000 49.4369 0.0000 43.7488
#
#
#
# Elastic Compliance Matrix: (Units=1/GPa)
#
#
# Indices 1 2 3 4 5 6 
#
# 1 0.006329 -0.001001 -0.000065 0.000000 -0.004697 0.000000
# 2 -0.001001 0.006679 -0.003425 0.000000 0.003863 0.000000
# 3 -0.000065 -0.003425 0.011692 0.000000 -0.007758 0.000000
# 4 0.000000 0.000000 0.000000 -0.013616 0.000000 0.015386
# 5 -0.004697 0.003863 -0.007758 0.000000 0.032073 0.000000
# 6 0.000000 0.000000 0.000000 0.015386 0.000000 0.005471
#
#
# Mechanical properties :
#
#
# Convention : Reuss Voigt Hill
#
# Bulk Modulus (GPa) = 63.63381 76.81850 70.22616
# Shear Modulus (GPa) = 79.55495 39.36132 59.45814
#
# Velocity S-wave (km/s) = 5.46144 3.84157 4.72149
# Velocity P-wave (km/s) = 7.97670 6.96263 7.48685
#
# Compressibility (1/GPa) = 0.01571492
#
# Stress axis : x y z
#
# Youngs Moduli (GPa) = 158.01473 149.72842 85.52994
#
# Poissons Ratio (x) = 0.14995 0.00557
# Poissons Ratio (y) = 0.15825 0.29298
# Poissons Ratio (z) = 0.01030 0.51288
#
# Static dielectric constant tensor:
#      x y z
#    x 2.059340 0.000000 -0.058520 
#    y 0.000000 2.033690 0.000000 
#    z -0.058520 0.000000 2.285390 
# 
# From -- ./inp_files/9486.got.cif
#   From: 2010.05.17/outbox.cif.g08.bks.cpg/sg15_5_cif.got.tgz:9486.got - 2010.06.03 18:47:42.
