data_PCOD9305981
_publ_section_title
;
Structure prediction by ZEFSAII (Michael W. Deem and Ramdas Pophale) SiO2 
 PCOD9305981
Probable space group: C 2/C
;
_chemical_formula_sum "Si O2"
_cell_formula_units_Z 36
_cell_length_a 4.825328
_cell_length_b 13.714220
_cell_length_c 19.833460
_cell_angle_alpha 90.000000
_cell_angle_beta 93.416466
_cell_angle_gamma 90.000000
_cell_volume 1310.158675
_symmetry_space_group_name_H-M "C 2/C"
_symmetry_group_IT_number 15
_symmetry_cell_setting 'monoclinic'
loop_
_space_group_symop_operation_xyz
x,y,z
-x,y,1/2-z
-x,-y,-z
x,-y,1/2+z
1/2+x,1/2+y,z
1/2-x,1/2+y,1/2-z
1/2-x,1/2-y,-z
1/2+x,1/2-y,1/2+z
loop_
_atom_site_type_symbol
_atom_site_label
_atom_site_fract_x
_atom_site_fract_y
_atom_site_fract_z
Si Si1 0.000000 0.040227 0.250000
Si Si2 0.327018 0.451109 0.068015
Si Si3 0.354234 0.086918 0.658315
Si Si4 0.582040 0.160434 0.032393
Si Si5 0.663798 0.201531 0.181794
O O1 0.873303 0.112629 0.192904
O O2 0.767491 0.977085 0.283386
O O3 0.642559 0.433525 0.093462
O O4 0.264555 0.561033 0.043144
O O5 0.155659 0.434649 0.134709
O O6 0.183499 0.374153 0.014877
O O7 0.328359 0.198559 0.677411
O O8 0.502871 0.188626 0.108597
O O9 0.750000 0.250000 0.000000
O O10 0.500000 0.203706 0.250000
#
# Coordination Sequence:
#
# PCOD9305981 Si02
#       5
#     4   8   8   8   8
#     4  12  28  50  80 110 168 206 268 326 406 470
#     4  11  27  51  79 116 162 202 265 334 398 463
#     4  12  27  52  82 115 158 212 264 329 398 477
#     4  11  24  50  79 119 156 212 265 329 396 477
#     4  12  27  49  78 115 154 216 261 327 399 479
#
# _framework density 27.477589999999999
#
# number of rings (size 3 to 8) (size 9 to 14) (size 15 to 20)
#    0.000    0.444    5.556    1.333    3.111    4.444 
#    8.000    0.000    0.000    0.000    0.000    0.000 
#    0.000    0.000    0.000    0.000    0.000    0.000 
#
# Total GULP energy -101200.572640 kJ/mol
# GULP energy per Si atom -5622.254036 kJ/mol
# Density = 2.741505 g / cm^3
# Si number density = 27.477590 Si / 1000 Ang^3
#
#
#
# Elastic Constant Matrix: (Units=GPa)
#
#
# Indices 1 2 3 4 5 6 
#
# 1 65.9591 14.1312 26.2231 0.0000 -17.1337 0.0000
# 2 14.1312 199.1330 49.6134 0.0000 -16.1252 0.0000
# 3 26.2231 49.6134 216.9829 0.0000 -21.3429 0.0000
# 4 0.0000 0.0000 0.0000 43.3967 0.0000 4.8802
# 5 -17.1337 -16.1252 -21.3429 0.0000 53.9100 0.0000
# 6 0.0000 0.0000 0.0000 4.8802 0.0000 18.0738
#
#
#
# Elastic Compliance Matrix: (Units=1/GPa)
#
#
# Indices 1 2 3 4 5 6 
#
# 1 0.017074 -0.000458 -0.001497 0.000000 0.004697 0.000000
# 2 -0.000458 0.005408 -0.001078 0.000000 0.001045 0.000000
# 3 -0.001497 -0.001078 0.005158 0.000000 0.001244 0.000000
# 4 0.000000 0.000000 0.000000 0.023765 0.000000 -0.006417
# 5 0.004697 0.001045 0.001244 0.000000 0.020847 0.000000
# 6 0.000000 0.000000 0.000000 -0.006417 0.000000 0.057061
#
#
# Mechanical properties :
#
#
# Convention : Reuss Voigt Hill
#
# Bulk Modulus (GPa) = 46.35310 73.55672 59.95491
# Shear Modulus (GPa) = 35.07008 49.21659 42.14334
#
# Velocity S-wave (km/s) = 3.57643 4.23679 3.92054
# Velocity P-wave (km/s) = 5.82757 7.12473 6.50854
#
# Compressibility (1/GPa) = 0.02157353
#
# Stress axis : x y z
#
# Youngs Moduli (GPa) = 58.56782 184.92630 193.85683
#
# Poissons Ratio (x) = 0.08477 0.29014
# Poissons Ratio (y) = 0.02685 0.20903
# Poissons Ratio (z) = 0.08766 0.19940
#
# Static dielectric constant tensor:
#      x y z
#    x 2.132570 0.000000 0.012400 
#    y 0.000000 2.063540 0.000000 
#    z 0.012400 0.000000 2.231940 
# 
# From -- ./inp_files/226551.got.cif
#   From: 2010.05.17/outbox.cif.g08.bks.cpg/sg15_114_cif.got.tgz:226551.got - 2010.06.03 18:47:42.
