data_PCOD9305867
_publ_section_title
;
Structure prediction by ZEFSAII (Michael W. Deem and Ramdas Pophale) SiO2 
 PCOD9305867
Probable space group: C 2/C
;
_chemical_formula_sum "Si O2"
_cell_formula_units_Z 56
_cell_length_a 9.106600
_cell_length_b 13.635831
_cell_length_c 23.015902
_cell_angle_alpha 90.000000
_cell_angle_beta 60.636222
_cell_angle_gamma 90.000000
_cell_volume 2490.836456
_symmetry_space_group_name_H-M "C 2/C"
_symmetry_group_IT_number 15
_symmetry_cell_setting 'monoclinic'
loop_
_space_group_symop_operation_xyz
x,y,z
-x,y,1/2-z
-x,-y,-z
x,-y,1/2+z
1/2+x,1/2+y,z
1/2-x,1/2+y,1/2-z
1/2-x,1/2-y,-z
1/2+x,1/2-y,1/2+z
loop_
_atom_site_type_symbol
_atom_site_label
_atom_site_fract_x
_atom_site_fract_y
_atom_site_fract_z
Si Si1 0.227029 0.991557 0.299611
Si Si2 0.747014 0.124084 0.586139
Si Si3 0.390257 0.615891 0.859594
Si Si4 0.622670 0.856850 0.310551
Si Si5 0.167062 0.468602 0.502514
Si Si6 0.469794 0.790935 0.595801
Si Si7 0.685780 0.336441 0.735265
O O1 0.232243 0.950250 0.363349
O O2 0.374337 0.954840 0.228233
O O3 0.055748 0.942320 0.307912
O O4 0.221239 0.105925 0.287902
O O5 0.561686 0.169991 0.631163
O O6 0.883140 0.212453 0.567236
O O7 0.733020 0.054812 0.532310
O O8 0.249326 0.628938 0.838577
O O9 0.445092 0.721537 0.872852
O O10 0.310734 0.557192 0.928821
O O11 0.683911 0.776887 0.252682
O O12 0.000000 0.500000 0.500000
O O13 0.104666 0.368417 0.545820
O O14 0.319693 0.849282 0.657689
O O15 0.500000 0.362768 0.750000
#
# Coordination Sequence:
#
# PCOD9305867 Si02
#       7
#     8   8   8   8   8   8   8
#     4  11  25  41  71 103 139 176 232 289 350 428
#     4  11  24  48  70  99 139 181 234 291 351 421
#     4  11  25  46  67  99 141 183 229 291 341 419
#     4  12  21  44  69 101 141 173 220 290 359 411
#     4  12  27  47  71  98 137 189 240 288 345 411
#     4  11  26  46  69 104 139 183 236 287 350 425
#     4  12  23  40  71 104 138 176 224 284 359 424
#
# _framework density 22.482406000000001
#
# number of rings (size 3 to 8) (size 9 to 14) (size 15 to 20)
#    0.000    0.571    5.714    3.000    4.000    2.857 
#    2.571    0.000    0.000    0.000    0.000    0.000 
#    0.000    0.000    0.000    0.000    0.000    0.000 
#
# Total GULP energy -156540.771305 kJ/mol
# GULP energy per Si atom -5590.741832 kJ/mol
# Density = 2.243124 g / cm^3
# Si number density = 22.482406 Si / 1000 Ang^3
#
#
#
# Elastic Constant Matrix: (Units=GPa)
#
#
# Indices 1 2 3 4 5 6 
#
# 1 93.5754 8.8215 5.8993 0.0000 16.2535 0.0000
# 2 8.8215 63.6536 16.5421 0.0000 7.7892 0.0000
# 3 5.8993 16.5421 52.8775 0.0000 -0.4879 0.0000
# 4 0.0000 0.0000 0.0000 14.6171 0.0000 14.0664
# 5 16.2535 7.7892 -0.4879 0.0000 34.7618 0.0000
# 6 0.0000 0.0000 0.0000 14.0664 0.0000 19.7202
#
#
#
# Elastic Compliance Matrix: (Units=1/GPa)
#
#
# Indices 1 2 3 4 5 6 
#
# 1 0.011754 -0.000674 -0.001150 0.000000 -0.005361 0.000000
# 2 -0.000674 0.017687 -0.005492 0.000000 -0.003725 0.000000
# 3 -0.001150 -0.005492 0.020777 0.000000 0.002060 0.000000
# 4 0.000000 0.000000 0.000000 0.218171 0.000000 -0.155621
# 5 -0.005361 -0.003725 0.002060 0.000000 0.032137 0.000000
# 6 0.000000 0.000000 0.000000 -0.155621 0.000000 0.161714
#
#
# Mechanical properties :
#
#
# Convention : Reuss Voigt Hill
#
# Bulk Modulus (GPa) = 28.10169 30.29248 29.19708
# Shear Modulus (GPa) = 10.23052 25.74272 17.98662
#
# Velocity S-wave (km/s) = 2.13549 3.38748 2.83155
# Velocity P-wave (km/s) = 4.31358 5.36686 4.86878
#
# Compressibility (1/GPa) = 0.03558505
#
# Stress axis : x y z
#
# Youngs Moduli (GPa) = 85.07928 56.54000 48.12991
#
# Poissons Ratio (x) = 0.03811 0.05534
# Poissons Ratio (y) = 0.05735 0.26434
# Poissons Ratio (z) = 0.09783 0.31053
#
# Static dielectric constant tensor:
#      x y z
#    x 1.884280 0.000000 -0.010890 
#    y 0.000000 1.816620 0.000000 
#    z -0.010890 0.000000 1.816740 
# 
# From -- ./inp_files/264246.got.cif
#   From: 2010.05.17/outbox.cif.g08.bks.cpg/sg15_133_cif.got.tgz:264246.got - 2010.06.03 18:47:42.
