data_PCOD9305822
_publ_section_title
;
Structure prediction by ZEFSAII (Michael W. Deem and Ramdas Pophale) SiO2 
 PCOD9305822
Probable space group: C 2/C
;
_chemical_formula_sum "Si O2"
_cell_formula_units_Z 44
_cell_length_a 26.031451
_cell_length_b 8.539679
_cell_length_c 11.084934
_cell_angle_alpha 90.000000
_cell_angle_beta 54.253950
_cell_angle_gamma 90.000000
_cell_volume 1999.966414
_symmetry_space_group_name_H-M "C 2/C"
_symmetry_group_IT_number 15
_symmetry_cell_setting 'monoclinic'
loop_
_space_group_symop_operation_xyz
x,y,z
-x,y,1/2-z
-x,-y,-z
x,-y,1/2+z
1/2+x,1/2+y,z
1/2-x,1/2+y,1/2-z
1/2-x,1/2-y,-z
1/2+x,1/2-y,1/2+z
loop_
_atom_site_type_symbol
_atom_site_label
_atom_site_fract_x
_atom_site_fract_y
_atom_site_fract_z
Si Si1 0.603947 0.081160 0.997735
Si Si2 0.675901 0.581751 0.098620
Si Si3 0.500000 0.852100 0.250000
Si Si4 0.293326 0.276893 0.553622
Si Si5 0.549751 0.639905 0.398956
Si Si6 0.710144 0.852657 0.882872
O O1 0.552085 0.967955 0.123160
O O2 0.644729 0.171854 0.041278
O O3 0.572822 0.220970 0.960480
O O4 0.661155 0.963218 0.876240
O O5 0.614168 0.560107 0.263818
O O6 0.736582 0.571279 0.103404
O O7 0.683029 0.454142 0.985149
O O8 0.673333 0.745310 0.030053
O O9 0.522084 0.739508 0.326564
O O10 0.250000 0.250000 0.500000
O O11 0.252379 0.255527 0.730342
O O12 0.500000 0.500000 0.500000
#
# Coordination Sequence:
#
# PCOD9305822 Si02
#       6
#     8   8   4   8   8   8
#     4  12  27  49  75 109 152 200 261 313 385 465
#     4  11  25  46  73 110 156 197 251 327 389 463
#     4  12  30  52  74 108 150 214 258 324 376 468
#     4  12  26  41  76 114 149 195 244 320 395 465
#     4  12  30  52  76 109 153 211 266 322 384 471
#     4  11  24  47  75 109 152 193 254 322 401 453
#
# _framework density 22.000371000000001
#
# number of rings (size 3 to 8) (size 9 to 14) (size 15 to 20)
#    0.000    0.364    5.455    1.636   10.182    1.455 
#    0.000    0.000    0.000    0.000    0.000    0.000 
#    0.000    0.000    0.000    0.000    0.000    0.000 
#
# Total GULP energy -122712.534000 kJ/mol
# GULP energy per Si atom -5577.842455 kJ/mol
# Density = 2.195030 g / cm^3
# Si number density = 22.000371 Si / 1000 Ang^3
#
#
#
# Elastic Constant Matrix: (Units=GPa)
#
#
# Indices 1 2 3 4 5 6 
#
# 1 114.9478 45.5845 24.3128 0.0000 -5.7799 0.0000
# 2 45.5845 91.6281 34.3161 0.0000 -14.9636 0.0000
# 3 24.3128 34.3161 90.0664 0.0000 -24.8446 0.0000
# 4 0.0000 0.0000 0.0000 31.6026 0.0000 -8.5558
# 5 -5.7799 -14.9636 -24.8446 0.0000 42.9418 0.0000
# 6 0.0000 0.0000 0.0000 -8.5558 0.0000 48.8920
#
#
#
# Elastic Compliance Matrix: (Units=1/GPa)
#
#
# Indices 1 2 3 4 5 6 
#
# 1 0.010958 -0.005141 -0.001293 0.000000 -0.001065 0.000000
# 2 -0.005141 0.015280 -0.003755 0.000000 0.002460 0.000000
# 3 -0.001293 -0.003755 0.014843 0.000000 0.007105 0.000000
# 4 0.000000 0.000000 0.000000 0.033217 0.000000 0.005813
# 5 -0.001065 0.002460 0.007105 0.000000 0.028112 0.000000
# 6 0.000000 0.000000 0.000000 0.005813 0.000000 0.021470
#
#
# Mechanical properties :
#
#
# Convention : Reuss Voigt Hill
#
# Bulk Modulus (GPa) = 48.30588 56.11879 52.21234
# Shear Modulus (GPa) = 33.07773 37.51587 35.29680
#
# Velocity S-wave (km/s) = 3.88172 4.13393 4.00981
# Velocity P-wave (km/s) = 6.48805 6.95337 6.72474
#
# Compressibility (1/GPa) = 0.02070141
#
# Stress axis : x y z
#
# Youngs Moduli (GPa) = 91.25378 65.44670 67.37378
#
# Poissons Ratio (x) = 0.33649 0.08711
# Poissons Ratio (y) = 0.46917 0.25301
# Poissons Ratio (z) = 0.11798 0.24577
#
# Static dielectric constant tensor:
#      x y z
#    x 1.796050 0.000000 -0.014690 
#    y 0.000000 1.962770 0.000000 
#    z -0.014690 0.000000 1.868940 
# 
# From -- ./inp_files/116681.got.cif
#   From: 2010.05.17/outbox.cif.g08.bks.cpg/sg15_59_cif.got.tgz:116681.got - 2010.06.03 18:47:42.
