data_PCOD9305151
_publ_section_title
;
Structure prediction by ZEFSAII (Michael W. Deem and Ramdas Pophale) SiO2 
 PCOD9305151
Probable space group: C 2/C
;
_chemical_formula_sum "Si O2"
_cell_formula_units_Z 44
_cell_length_a 21.628072
_cell_length_b 6.264390
_cell_length_c 23.681801
_cell_angle_alpha 90.000000
_cell_angle_beta 144.419858
_cell_angle_gamma 90.000000
_cell_volume 1866.877131
_symmetry_space_group_name_H-M "C 2/C"
_symmetry_group_IT_number 15
_symmetry_cell_setting 'monoclinic'
loop_
_space_group_symop_operation_xyz
x,y,z
-x,y,1/2-z
-x,-y,-z
x,-y,1/2+z
1/2+x,1/2+y,z
1/2-x,1/2+y,1/2-z
1/2-x,1/2-y,-z
1/2+x,1/2-y,1/2+z
loop_
_atom_site_type_symbol
_atom_site_label
_atom_site_fract_x
_atom_site_fract_y
_atom_site_fract_z
Si Si1 0.000000 0.075350 0.750000
Si Si2 0.878126 0.309708 0.207742
Si Si3 0.630609 0.921042 0.034264
Si Si4 0.399017 0.041450 0.112100
Si Si5 0.590322 0.249160 0.101401
Si Si6 0.758303 0.075457 0.314491
O O1 0.920753 0.926051 0.727287
O O2 0.928094 0.223991 0.656511
O O3 0.845170 0.413289 0.123232
O O4 0.789900 0.375577 0.186734
O O5 0.984789 0.432470 0.306996
O O6 0.720555 0.780834 0.131277
O O7 0.595978 0.124573 0.045899
O O8 0.657728 0.969344 0.989828
O O9 0.523984 0.777207 0.955502
O O10 0.676481 0.133879 0.205186
O O11 0.629586 0.491531 0.125595
#
# Coordination Sequence:
#
# PCOD9305151 Si02
#       6
#     4   8   8   8   8   8
#     4   8  18  36  62  92 120 164 208 254 318 358
#     4   9  20  37  62  94 129 157 206 267 302 374
#     4  11  24  43  63  90 130 164 210 261 308 379
#     4   9  19  39  64  92 123 166 203 257 324 363
#     4  11  25  42  62  95 124 167 210 260 310 370
#     4  12  23  41  65  93 127 166 213 256 315 374
#
# _framework density 23.568773
#
# number of rings (size 3 to 8) (size 9 to 14) (size 15 to 20)
#    0.000    2.182    3.636    0.545    0.000    8.000 
#    0.000    1.818    0.000    0.000    0.000    0.000 
#    0.000    0.000    0.000    0.000    0.000    0.000 
#
# Total GULP energy -123057.390120 kJ/mol
# GULP energy per Si atom -5593.517733 kJ/mol
# Density = 2.351513 g / cm^3
# Si number density = 23.568773 Si / 1000 Ang^3
#
#
#
# Elastic Constant Matrix: (Units=GPa)
#
#
# Indices 1 2 3 4 5 6 
#
# 1 48.4517 12.5828 19.9896 0.0002 -12.1593 0.0009
# 2 12.5828 66.8399 7.2052 0.0005 -0.0399 -0.0014
# 3 19.9896 7.2052 80.2692 0.0001 -27.2519 -0.0001
# 4 0.0002 0.0005 0.0001 19.3842 0.0001 18.3774
# 5 -12.1593 -0.0399 -27.2519 0.0001 38.2961 0.0002
# 6 0.0009 -0.0014 -0.0001 18.3774 0.0002 -0.1119
#
#
#
# Elastic Compliance Matrix: (Units=1/GPa)
#
#
# Indices 1 2 3 4 5 6 
#
# 1 0.024650 -0.004196 -0.004096 -0.000002 0.004908 0.000002
# 2 -0.004196 0.015867 -0.001089 0.000001 -0.002091 -0.000002
# 3 -0.004096 -0.001089 0.017318 0.000000 0.011022 0.000000
# 4 -0.000002 0.000001 0.000000 0.000329 -0.000001 0.054067
# 5 0.004908 -0.002091 0.011022 -0.000001 0.035512 0.000000
# 6 0.000002 -0.000002 0.000000 0.054067 0.000000 -0.057029
#
#
# Mechanical properties :
#
#
# Convention : Reuss Voigt Hill
#
# Bulk Modulus (GPa) = 25.59306 30.56845 28.08076
# Shear Modulus (GPa) = 73.06391 21.89924 47.48157
#
# Velocity S-wave (km/s) = 5.57383 3.05152 4.49330
# Velocity P-wave (km/s) = 7.23228 5.04121 6.23377
#
# Compressibility (1/GPa) = 0.03907309
#
# Stress axis : x y z
#
# Youngs Moduli (GPa) = 40.56763 63.02305 57.74378
#
# Poissons Ratio (x) = 0.26445 0.23651
# Poissons Ratio (y) = 0.17022 0.06290
# Poissons Ratio (z) = 0.16616 0.06865
#
# Static dielectric constant tensor:
#      x y z
#    x 1.889850 0.000000 0.010280 
#    y 0.000000 1.898960 0.000000 
#    z 0.010280 0.000000 1.873900 
# 
# From -- ./inp_files/170789.got.cif
#   From: 2010.05.17/outbox.cif.g08.bks.cpg/sg15_86_cif.got.tgz:170789.got - 2010.06.03 18:47:42.
