data_PCOD9305025
_publ_section_title
;
Structure prediction by ZEFSAII (Michael W. Deem and Ramdas Pophale) SiO2 
 PCOD9305025
Probable space group: C 2/C
;
_chemical_formula_sum "Si O2"
_cell_formula_units_Z 44
_cell_length_a 26.942115
_cell_length_b 9.545049
_cell_length_c 9.652313
_cell_angle_alpha 90.000000
_cell_angle_beta 61.642430
_cell_angle_gamma 90.000000
_cell_volume 2184.359868
_symmetry_space_group_name_H-M "C 2/C"
_symmetry_group_IT_number 15
_symmetry_cell_setting 'monoclinic'
loop_
_space_group_symop_operation_xyz
x,y,z
-x,y,1/2-z
-x,-y,-z
x,-y,1/2+z
1/2+x,1/2+y,z
1/2-x,1/2+y,1/2-z
1/2-x,1/2-y,-z
1/2+x,1/2-y,1/2+z
loop_
_atom_site_type_symbol
_atom_site_label
_atom_site_fract_x
_atom_site_fract_y
_atom_site_fract_z
Si Si1 0.786753 0.860890 0.535337
Si Si2 0.585157 0.762857 0.312708
Si Si3 0.211219 0.856275 0.635925
Si Si4 0.581213 0.309843 0.129122
Si Si5 0.959841 0.541999 0.177800
Si Si6 0.000000 0.073122 0.250000
O O1 0.750000 0.750000 0.500000
O O2 0.774825 0.865942 0.717384
O O3 0.853062 0.829191 0.434252
O O4 0.778648 0.002389 0.461281
O O5 0.645062 0.686611 0.211851
O O6 0.574634 0.766154 0.490827
O O7 0.533334 0.676140 0.311733
O O8 0.588645 0.923691 0.256811
O O9 0.250000 0.750000 0.500000
O O10 0.558502 0.203596 0.277667
O O11 0.549313 0.458470 0.151479
O O12 0.000000 0.509172 0.250000
O O13 0.000000 0.500000 0.000000
#
# Coordination Sequence:
#
# PCOD9305025 Si02
#       6
#     8   8   8   8   8   4
#     4  11  25  48  71 102 135 182 230 292 347 412
#     4  11  24  41  67  99 136 179 224 278 341 413
#     4  11  25  48  70 101 137 179 237 286 349 411
#     4  11  24  43  67  99 138 175 226 279 341 410
#     4  12  23  43  63  95 136 175 222 268 329 402
#     4  12  20  42  68 102 138 174 218 274 350 404
#
# _framework density 20.143203
#
# number of rings (size 3 to 8) (size 9 to 14) (size 15 to 20)
#    0.000    0.727    5.455    1.636    2.545    0.000 
#    6.545    0.000    0.000    0.000    0.000    0.000 
#    0.000    0.000    0.000    0.000    0.000    0.000 
#
# Total GULP energy -122625.258188 kJ/mol
# GULP energy per Si atom -5573.875372 kJ/mol
# Density = 2.009736 g / cm^3
# Si number density = 20.143203 Si / 1000 Ang^3
#
#
#
# Elastic Constant Matrix: (Units=GPa)
#
#
# Indices 1 2 3 4 5 6 
#
# 1 138.6828 61.2832 60.6945 0.0000 11.3326 0.0000
# 2 61.2832 137.3523 60.6479 0.0000 2.6568 0.0000
# 3 60.6945 60.6479 141.8218 0.0000 8.6220 0.0000
# 4 0.0000 0.0000 0.0000 32.9877 0.0000 -1.6088
# 5 11.3326 2.6568 8.6220 0.0000 30.7059 0.0000
# 6 0.0000 0.0000 0.0000 -1.6088 0.0000 33.1560
#
#
#
# Elastic Compliance Matrix: (Units=1/GPa)
#
#
# Indices 1 2 3 4 5 6 
#
# 1 0.010060 -0.003214 -0.002769 0.000000 -0.002657 0.000000
# 2 -0.003214 0.010005 -0.002973 0.000000 0.001156 0.000000
# 3 -0.002769 -0.002973 0.009594 0.000000 -0.001415 0.000000
# 4 0.000000 0.000000 0.000000 0.030386 0.000000 0.001474
# 5 -0.002657 0.001156 -0.001415 0.000000 0.033845 0.000000
# 6 0.000000 0.000000 0.000000 0.001474 0.000000 0.030232
#
#
# Mechanical properties :
#
#
# Convention : Reuss Voigt Hill
#
# Bulk Modulus (GPa) = 85.13994 87.01204 86.07599
# Shear Modulus (GPa) = 34.25804 35.05202 34.65503
#
# Velocity S-wave (km/s) = 4.12846 4.17603 4.15231
# Velocity P-wave (km/s) = 8.06751 8.15737 8.11256
#
# Compressibility (1/GPa) = 0.01174537
#
# Stress axis : x y z
#
# Youngs Moduli (GPa) = 99.40102 99.94795 104.23551
#
# Poissons Ratio (x) = 0.32128 0.28866
# Poissons Ratio (y) = 0.31952 0.30991
# Poissons Ratio (z) = 0.27527 0.29716
#
# Static dielectric constant tensor:
#      x y z
#    x 1.651620 0.000000 0.000540 
#    y 0.000000 2.363580 0.000000 
#    z 0.000540 0.000000 1.692090 
# 
# From -- ./inp_files/68503.got.cif
#   From: 2010.05.17/outbox.cif.g08.bks.cpg/sg15_35_cif.got.tgz:68503.got - 2010.06.03 18:47:42.
