data_PCOD9305153
_publ_section_title
;
Structure prediction by ZEFSAII (Michael W. Deem and Ramdas Pophale) SiO2 
 PCOD9305153
Probable space group: C 2/C
;
_chemical_formula_sum "Si O2"
_cell_formula_units_Z 56
_cell_length_a 23.590233
_cell_length_b 10.932674
_cell_length_c 12.537555
_cell_angle_alpha 90.000000
_cell_angle_beta 55.729796
_cell_angle_gamma 90.000000
_cell_volume 2672.127543
_symmetry_space_group_name_H-M "C 2/C"
_symmetry_group_IT_number 15
_symmetry_cell_setting 'monoclinic'
loop_
_space_group_symop_operation_xyz
x,y,z
-x,y,1/2-z
-x,-y,-z
x,-y,1/2+z
1/2+x,1/2+y,z
1/2-x,1/2+y,1/2-z
1/2-x,1/2-y,-z
1/2+x,1/2-y,1/2+z
loop_
_atom_site_type_symbol
_atom_site_label
_atom_site_fract_x
_atom_site_fract_y
_atom_site_fract_z
Si Si1 0.276998 0.208146 0.087550
Si Si2 0.706768 0.372382 0.031518
Si Si3 0.161254 0.520397 0.046015
Si Si4 0.436858 0.108313 0.166083
Si Si5 0.137680 0.150771 0.831345
Si Si6 0.586723 0.133339 0.948681
Si Si7 0.853161 0.117801 0.139140
O O1 0.305080 0.310293 0.140878
O O2 0.216388 0.135736 0.216165
O O3 0.250000 0.250000 0.000000
O O4 0.341111 0.118321 0.992131
O O5 0.663357 0.375654 0.184260
O O6 0.750000 0.250000 0.000000
O O7 0.765886 0.473742 0.972452
O O8 0.667030 0.373258 0.963818
O O9 0.106139 0.579468 0.182720
O O10 0.153610 0.600541 0.947520
O O11 0.408142 0.227733 0.135235
O O12 0.425080 0.981313 0.115711
O O13 0.517535 0.133019 0.092062
O O14 0.111985 0.015172 0.888329
O O15 0.599756 0.265149 0.883537
#
# Coordination Sequence:
#
# PCOD9305153 Si02
#       7
#     8   8   8   8   8   8   8
#     4  12  24  38  64 102 140 171 210 279 346 397
#     4  12  21  38  65  96 131 170 212 267 331 405
#     4  12  21  39  66  96 126 167 219 265 324 393
#     4  11  24  43  67  89 125 176 229 267 314 390
#     4  12  24  41  65  98 135 172 220 275 336 395
#     4  11  24  43  64  92 125 176 221 269 319 390
#     4  12  25  41  65  99 138 171 216 273 342 401
#
# _framework density 20.957082
#
# number of rings (size 3 to 8) (size 9 to 14) (size 15 to 20)
#    0.000    0.286    7.143    2.143    0.000    0.571 
#    0.000    0.000    0.000    0.000    0.000    0.000 
#    0.000    0.000    0.000    0.000    0.000    0.000 
#
# Total GULP energy -156076.857789 kJ/mol
# GULP energy per Si atom -5574.173492 kJ/mol
# Density = 2.090938 g / cm^3
# Si number density = 20.957082 Si / 1000 Ang^3
#
#
#
# Elastic Constant Matrix: (Units=GPa)
#
#
# Indices 1 2 3 4 5 6 
#
# 1 70.0980 35.7537 24.8223 0.0000 13.6221 0.0000
# 2 35.7537 170.4696 28.3858 0.0000 1.3137 0.0000
# 3 24.8223 28.3858 50.8586 0.0000 22.8022 0.0000
# 4 0.0000 0.0000 0.0000 26.0382 0.0000 2.3345
# 5 13.6221 1.3137 22.8022 0.0000 27.2169 0.0000
# 6 0.0000 0.0000 0.0000 2.3345 0.0000 13.1865
#
#
#
# Elastic Compliance Matrix: (Units=1/GPa)
#
#
# Indices 1 2 3 4 5 6 
#
# 1 0.018575 -0.002980 -0.005284 0.000000 -0.004726 0.000000
# 2 -0.002980 0.007282 -0.004999 0.000000 0.005328 0.000000
# 3 -0.005284 -0.004999 0.038018 0.000000 -0.028965 0.000000
# 4 0.000000 0.000000 0.000000 0.039025 0.000000 -0.006909
# 5 -0.004726 0.005328 -0.028965 0.000000 0.063117 0.000000
# 6 0.000000 0.000000 0.000000 -0.006909 0.000000 0.077058
#
#
# Mechanical properties :
#
#
# Convention : Reuss Voigt Hill
#
# Bulk Modulus (GPa) = 26.77367 52.14996 39.46181
# Shear Modulus (GPa) = 17.72734 26.78594 22.25664
#
# Velocity S-wave (km/s) = 2.91157 3.57898 3.26239
# Velocity P-wave (km/s) = 4.90981 6.48205 5.74992
#
# Compressibility (1/GPa) = 0.03735013
#
# Stress axis : x y z
#
# Youngs Moduli (GPa) = 53.83587 137.31652 26.30356
#
# Poissons Ratio (x) = 0.40915 0.13898
# Poissons Ratio (y) = 0.16041 0.13149
# Poissons Ratio (z) = 0.28446 0.68646
#
# Static dielectric constant tensor:
#      x y z
#    x 1.752610 0.000000 -0.010460 
#    y 0.000000 1.900940 0.000000 
#    z -0.010460 0.000000 1.559470 
# 
# From -- ./inp_files/117498.got.cif
#   From: 2010.05.17/outbox.cif.g08.bks.cpg/sg15_59_cif.got.tgz:117498.got - 2010.06.03 18:47:42.
