data_PCOD9305743
_publ_section_title
;
Structure prediction by ZEFSAII (Michael W. Deem and Ramdas Pophale) SiO2 
 PCOD9305743
Probable space group: C 2/C
;
_chemical_formula_sum "Si O2"
_cell_formula_units_Z 48
_cell_length_a 10.032960
_cell_length_b 17.806557
_cell_length_c 11.127655
_cell_angle_alpha 90.000000
_cell_angle_beta 120.784312
_cell_angle_gamma 90.000000
_cell_volume 1707.876409
_symmetry_space_group_name_H-M "C 2/C"
_symmetry_group_IT_number 15
_symmetry_cell_setting 'monoclinic'
loop_
_space_group_symop_operation_xyz
x,y,z
-x,y,1/2-z
-x,-y,-z
x,-y,1/2+z
1/2+x,1/2+y,z
1/2-x,1/2+y,1/2-z
1/2-x,1/2-y,-z
1/2+x,1/2-y,1/2+z
loop_
_atom_site_type_symbol
_atom_site_label
_atom_site_fract_x
_atom_site_fract_y
_atom_site_fract_z
Si Si1 0.146991 0.963087 0.184989
Si Si2 0.181126 0.663237 0.839716
Si Si3 0.784338 0.590567 0.397799
Si Si4 0.127655 0.159256 0.941356
Si Si5 0.790331 0.283471 0.717966
Si Si6 0.646521 0.965189 0.906399
O O1 0.291557 0.905753 0.240133
O O2 0.009041 0.902282 0.133770
O O3 0.160402 0.030719 0.286047
O O4 0.190809 0.006753 0.082413
O O5 0.272453 0.729783 0.821370
O O6 0.000000 0.680326 0.750000
O O7 0.248306 0.643944 0.002678
O O8 0.843313 0.640289 0.312263
O O9 0.889401 0.530425 0.515880
O O10 0.131808 0.191727 0.078350
O O11 0.292171 0.113651 0.012628
O O12 0.137179 0.229911 0.854122
O O13 0.500000 0.962510 0.750000
#
# Coordination Sequence:
#
# PCOD9305743 Si02
#       6
#     8   8   8   8   8   8
#     4  11  24  50  82 118 160 215 272 338 397 490
#     4  11  27  50  77 118 168 213 268 339 410 490
#     4  11  24  46  84 118 157 211 270 335 400 481
#     4  11  26  53  81 122 169 213 269 337 416 481
#     4  11  26  50  78 124 166 214 265 340 412 496
#     4  11  25  47  80 120 160 213 275 341 395 478
#
# _framework density 28.105080000000001
#
# number of rings (size 3 to 8) (size 9 to 14) (size 15 to 20)
#    0.000    1.000    1.667    4.000    0.000   10.667 
#    9.000    0.833    0.000    3.000    0.000    0.000 
#    0.000    0.000    0.000    0.000    0.000    0.000 
#
# Total GULP energy -133729.813319 kJ/mol
# GULP energy per Si atom -5572.075555 kJ/mol
# Density = 2.804111 g / cm^3
# Si number density = 28.105080 Si / 1000 Ang^3
#
#
#
# Elastic Constant Matrix: (Units=GPa)
#
#
# Indices 1 2 3 4 5 6 
#
# 1 93.2642 46.3266 68.0110 0.0000 4.0678 0.0000
# 2 46.3266 198.7153 100.4477 0.0000 -5.0833 0.0000
# 3 68.0110 100.4477 209.6518 0.0000 -21.1502 0.0000
# 4 0.0000 0.0000 0.0000 76.4346 0.0000 -13.0270
# 5 4.0678 -5.0833 -21.1502 0.0000 27.5525 0.0000
# 6 0.0000 0.0000 0.0000 -13.0270 0.0000 0.8634
#
#
#
# Elastic Compliance Matrix: (Units=1/GPa)
#
#
# Indices 1 2 3 4 5 6 
#
# 1 0.015242 -0.001179 -0.005017 0.000000 -0.006319 0.000000
# 2 -0.001179 0.006776 -0.002949 0.000000 -0.000839 0.000000
# 3 -0.005017 -0.002949 0.008487 0.000000 0.006712 0.000000
# 4 0.000000 0.000000 0.000000 -0.008326 0.000000 -0.125614
# 5 -0.006319 -0.000839 0.006712 0.000000 0.042225 0.000000
# 6 0.000000 0.000000 0.000000 -0.125614 0.000000 -0.737027
#
#
# Mechanical properties :
#
#
# Convention : Reuss Voigt Hill
#
# Bulk Modulus (GPa) = 81.86130 103.46689 92.66410
# Shear Modulus (GPa) = -7.68923 40.09318 16.20198
#
# Velocity S-wave (km/s) = -1.65585 3.78106 2.40360
# Velocity P-wave (km/s) = 5.05315 7.48038 6.38320
#
# Compressibility (1/GPa) = 0.01221579
#
# Stress axis : x y z
#
# Youngs Moduli (GPa) = 65.60758 147.57289 117.82235
#
# Poissons Ratio (x) = 0.17398 0.59114
# Poissons Ratio (y) = 0.07735 0.34744
# Poissons Ratio (z) = 0.32917 0.43517
#
# Static dielectric constant tensor:
#      x y z
#    x 2.268010 0.000000 -0.044580 
#    y 0.000000 2.341320 0.000000 
#    z -0.044580 0.000000 2.294890 
# 
# From -- ./inp_files/104969.got.cif
#   From: 2010.05.17/outbox.cif.g08.bks.cpg/sg15_53_cif.got.tgz:104969.got - 2010.06.03 18:47:42.
