data_PCOD9305840
_publ_section_title
;
Structure prediction by ZEFSAII (Michael W. Deem and Ramdas Pophale) SiO2 
 PCOD9305840
Probable space group: C 2/C
;
_chemical_formula_sum "Si O2"
_cell_formula_units_Z 56
_cell_length_a 25.534922
_cell_length_b 10.585889
_cell_length_c 21.145752
_cell_angle_alpha 90.000000
_cell_angle_beta 158.542465
_cell_angle_gamma 90.000000
_cell_volume 2090.944048
_symmetry_space_group_name_H-M "C 2/C"
_symmetry_group_IT_number 15
_symmetry_cell_setting 'monoclinic'
loop_
_space_group_symop_operation_xyz
x,y,z
-x,y,1/2-z
-x,-y,-z
x,-y,1/2+z
1/2+x,1/2+y,z
1/2-x,1/2+y,1/2-z
1/2-x,1/2-y,-z
1/2+x,1/2-y,1/2+z
loop_
_atom_site_type_symbol
_atom_site_label
_atom_site_fract_x
_atom_site_fract_y
_atom_site_fract_z
Si Si1 0.393154 0.223449 0.224199
Si Si2 0.778454 0.603355 0.413637
Si Si3 0.785399 0.968639 0.909481
Si Si4 0.500000 0.014923 0.250000
Si Si5 0.000000 0.922518 0.250000
Si Si6 0.446915 0.823671 0.348681
Si Si7 0.426060 0.256588 0.951563
Si Si8 0.167781 0.075594 0.677356
O O1 0.263147 0.170556 0.120695
O O2 0.390244 0.335425 0.168965
O O3 0.507042 0.260791 0.404953
O O4 0.456228 0.107276 0.256750
O O5 0.857271 0.557098 0.565866
O O6 0.646948 0.699232 0.271068
O O7 0.733860 0.492391 0.314018
O O8 0.908033 0.677461 0.525977
O O9 0.814765 0.994142 0.868161
O O10 0.656420 0.060889 0.782432
O O11 0.917834 0.999474 0.104040
O O12 0.481322 0.843941 0.461664
O O13 0.506130 0.375910 0.008247
O O14 0.264590 0.203671 0.775484
#
# Coordination Sequence:
#
# PCOD9305840 Si02
#       8
#     8   8   8   4   4   8   8   8
#     4  11  24  47  77 110 154 203 259 336 402 471
#     4  12  26  50  74 114 157 213 265 323 393 475
#     4  11  24  48  73 108 159 201 257 329 404 461
#     4  11  24  49  76 108 154 213 252 319 406 464
#     4  11  28  43  78 116 154 207 266 329 400 484
#     4  11  25  48  77 109 158 209 265 323 391 472
#     4  11  24  48  82 117 151 201 266 336 406 463
#     4  11  26  49  84 115 163 205 265 338 397 480
#
# _framework density 26.782160000000001
#
# number of rings (size 3 to 8) (size 9 to 14) (size 15 to 20)
#    0.000    0.857    2.857    3.000    4.000    5.143 
#    7.714    0.000    0.000    0.000    0.000    0.000 
#    0.000    0.000    0.000    0.000    0.000    0.000 
#
# Total GULP energy -156561.877161 kJ/mol
# GULP energy per Si atom -5591.495613 kJ/mol
# Density = 2.672120 g / cm^3
# Si number density = 26.782160 Si / 1000 Ang^3
#
#
#
# Elastic Constant Matrix: (Units=GPa)
#
#
# Indices 1 2 3 4 5 6 
#
# 1 104.6142 51.1259 39.0430 0.0003 -24.8610 -0.0002
# 2 51.1259 89.7201 53.5299 0.0002 -1.9325 -0.0002
# 3 39.0430 53.5299 129.9793 0.0001 -18.6704 -0.0003
# 4 0.0003 0.0002 0.0001 63.9791 0.0001 2.0191
# 5 -24.8610 -1.9325 -18.6704 0.0001 48.2981 -0.0002
# 6 -0.0002 -0.0002 -0.0003 2.0191 -0.0002 56.0400
#
#
#
# Elastic Compliance Matrix: (Units=1/GPa)
#
#
# Indices 1 2 3 4 5 6 
#
# 1 0.015678 -0.008776 0.000015 0.000000 0.007725 0.000000
# 2 -0.008776 0.019850 -0.006430 0.000000 -0.006209 0.000000
# 3 0.000015 -0.006430 0.010907 0.000000 0.003967 0.000000
# 4 0.000000 0.000000 0.000000 0.015648 0.000000 -0.000564
# 5 0.007725 -0.006209 0.003967 0.000000 0.025966 0.000000
# 6 0.000000 0.000000 0.000000 -0.000564 0.000000 0.017865
#
#
# Mechanical properties :
#
#
# Convention : Reuss Voigt Hill
#
# Bulk Modulus (GPa) = 62.30241 67.96790 65.13516
# Shear Modulus (GPa) = 35.29858 45.70442 40.50150
#
# Velocity S-wave (km/s) = 3.63435 4.13549 3.89299
# Velocity P-wave (km/s) = 6.39722 6.94523 6.67685
#
# Compressibility (1/GPa) = 0.01605074
#
# Stress axis : x y z
#
# Youngs Moduli (GPa) = 63.78218 50.37834 91.68260
#
# Poissons Ratio (x) = 0.44214 -0.00134
# Poissons Ratio (y) = 0.55978 0.58956
# Poissons Ratio (z) = -0.00093 0.32396
#
# Static dielectric constant tensor:
#      x y z
#    x 2.141670 0.000000 0.011620 
#    y 0.000000 2.241230 0.000000 
#    z 0.011620 0.000000 2.093800 
# 
# From -- ./inp_files/111041.got.cif
#   From: 2010.05.17/outbox.cif.g08.bks.cpg/sg15_56_cif.got.tgz:111041.got - 2010.06.03 18:47:42.
