data_PCOD9305245
_publ_section_title
;
Structure prediction by ZEFSAII (Michael W. Deem and Ramdas Pophale) SiO2 
 PCOD9305245
Probable space group: C 2/C
;
_chemical_formula_sum "Si O2"
_cell_formula_units_Z 48
_cell_length_a 19.031245
_cell_length_b 14.699405
_cell_length_c 11.090057
_cell_angle_alpha 90.000000
_cell_angle_beta 43.111239
_cell_angle_gamma 90.000000
_cell_volume 2120.247228
_symmetry_space_group_name_H-M "C 2/C"
_symmetry_group_IT_number 15
_symmetry_cell_setting 'monoclinic'
loop_
_space_group_symop_operation_xyz
x,y,z
-x,y,1/2-z
-x,-y,-z
x,-y,1/2+z
1/2+x,1/2+y,z
1/2-x,1/2+y,1/2-z
1/2-x,1/2-y,-z
1/2+x,1/2-y,1/2+z
loop_
_atom_site_type_symbol
_atom_site_label
_atom_site_fract_x
_atom_site_fract_y
_atom_site_fract_z
Si Si1 0.407093 0.915933 0.511860
Si Si2 0.622028 0.249743 0.287620
Si Si3 0.959868 0.103079 0.060791
Si Si4 0.882882 0.604779 0.663439
Si Si5 0.733311 0.357371 0.540453
Si Si6 0.137368 0.765927 0.989981
O O1 0.392781 0.852431 0.647161
O O2 0.529715 0.900892 0.341570
O O3 0.316733 0.886815 0.536157
O O4 0.394839 0.020610 0.559943
O O5 0.555984 0.326178 0.440687
O O6 0.743324 0.261571 0.153167
O O7 0.599571 0.258469 0.174032
O O8 0.880410 0.117968 0.271298
O O9 0.892368 0.136569 0.029292
O O10 0.000000 0.000000 0.000000
O O11 0.900644 0.695218 0.563628
O O12 0.772885 0.600147 0.866164
O O13 0.750000 0.250000 0.500000
#
# Coordination Sequence:
#
# PCOD9305245 Si02
#       6
#     8   8   8   8   8   8
#     4  11  24  43  74 111 144 192 260 311 380 460
#     4  11  24  45  75 105 145 199 246 316 379 458
#     4  12  27  47  72 112 151 200 257 314 387 467
#     4  11  25  43  75 112 145 198 250 318 382 455
#     4  12  24  50  74 108 161 198 255 318 389 461
#     4  11  24  47  74 102 152 192 248 309 390 454
#
# _framework density 22.638867000000001
#
# number of rings (size 3 to 8) (size 9 to 14) (size 15 to 20)
#    0.000    0.667    5.000    1.000    4.667    1.333 
#    3.000    0.833    0.000    0.000    0.000    0.000 
#    0.000    0.000    0.000    0.000    0.000    0.000 
#
# Total GULP energy -134024.550708 kJ/mol
# GULP energy per Si atom -5584.356279 kJ/mol
# Density = 2.258734 g / cm^3
# Si number density = 22.638867 Si / 1000 Ang^3
#
#
#
# Elastic Constant Matrix: (Units=GPa)
#
#
# Indices 1 2 3 4 5 6 
#
# 1 97.9011 38.0471 7.3672 0.0000 -14.2175 0.0000
# 2 38.0471 146.9797 52.9406 0.0000 -8.0203 0.0000
# 3 7.3672 52.9406 148.5103 0.0000 -12.1953 0.0000
# 4 0.0000 0.0000 0.0000 23.9473 0.0000 -10.0599
# 5 -14.2175 -8.0203 -12.1953 0.0000 33.9187 0.0000
# 6 0.0000 0.0000 0.0000 -10.0599 0.0000 29.1332
#
#
#
# Elastic Compliance Matrix: (Units=1/GPa)
#
#
# Indices 1 2 3 4 5 6 
#
# 1 0.012062 -0.003202 0.000923 0.000000 0.004631 0.000000
# 2 -0.003202 0.008681 -0.002965 0.000000 -0.000356 0.000000
# 3 0.000923 -0.002965 0.007954 0.000000 0.002546 0.000000
# 4 0.000000 0.000000 0.000000 0.048844 0.000000 0.016866
# 5 0.004631 -0.000356 0.002546 0.000000 0.032255 0.000000
# 6 0.000000 0.000000 0.000000 0.016866 0.000000 0.040149
#
#
# Mechanical properties :
#
#
# Convention : Reuss Voigt Hill
#
# Bulk Modulus (GPa) = 54.91742 65.56677 60.24209
# Shear Modulus (GPa) = 30.02976 37.06889 33.54932
#
# Velocity S-wave (km/s) = 3.64602 4.05087 3.85377
# Velocity P-wave (km/s) = 6.48347 7.13473 6.81688
#
# Compressibility (1/GPa) = 0.01820916
#
# Stress axis : x y z
#
# Youngs Moduli (GPa) = 82.90581 115.19216 125.72720
#
# Poissons Ratio (x) = 0.36888 -0.11610
# Poissons Ratio (y) = 0.26549 0.37278
# Poissons Ratio (z) = -0.07656 0.34154
#
# Static dielectric constant tensor:
#      x y z
#    x 1.905680 0.000000 -0.070660 
#    y 0.000000 1.775250 0.000000 
#    z -0.070660 0.000000 1.869170 
# 
# From -- ./inp_files/112936.got.cif
#   From: 2010.05.17/outbox.cif.g08.bks.cpg/sg15_57_cif.got.tgz:112936.got - 2010.06.03 18:47:42.
