data_PCOD9305159
_publ_section_title
;
Structure prediction by ZEFSAII (Michael W. Deem and Ramdas Pophale) SiO2 
 PCOD9305159
Probable space group: C 2/C
;
_chemical_formula_sum "Si O2"
_cell_formula_units_Z 32
_cell_length_a 7.121495
_cell_length_b 7.255879
_cell_length_c 27.898478
_cell_angle_alpha 90.000000
_cell_angle_beta 57.250472
_cell_angle_gamma 90.000000
_cell_volume 1212.439731
_symmetry_space_group_name_H-M "C 2/C"
_symmetry_group_IT_number 15
_symmetry_cell_setting 'monoclinic'
loop_
_space_group_symop_operation_xyz
x,y,z
-x,y,1/2-z
-x,-y,-z
x,-y,1/2+z
1/2+x,1/2+y,z
1/2-x,1/2+y,1/2-z
1/2-x,1/2-y,-z
1/2+x,1/2-y,1/2+z
loop_
_atom_site_type_symbol
_atom_site_label
_atom_site_fract_x
_atom_site_fract_y
_atom_site_fract_z
Si Si1 0.976953 0.382080 0.697329
Si Si2 0.268987 0.355129 0.098320
Si Si3 0.952588 0.472823 0.951262
Si Si4 0.141255 0.004734 0.165497
O O1 0.754445 0.449827 0.700927
O O2 0.000000 0.423630 0.750000
O O3 0.188354 0.474094 0.641125
O O4 0.973707 0.162008 0.691038
O O5 0.100228 0.195701 0.142855
O O6 0.250922 0.426697 0.046257
O O7 0.503149 0.243227 0.068711
O O8 0.154075 0.569367 0.894881
O O9 0.000000 0.500000 0.000000
#
# Coordination Sequence:
#
# PCOD9305159 Si02
#       4
#     8   8   8   8
#     4  11  24  43  65  93 129 172 214 267 324 380
#     4   9  21  40  62  94 132 160 222 260 317 387
#     4   9  18  40  67  93 129 171 209 265 324 378
#     4   9  24  40  64  94 129 163 220 262 319 388
#
# _framework density 26.393068
#
# number of rings (size 3 to 8) (size 9 to 14) (size 15 to 20)
#    1.500    1.000    0.000    0.750    3.500    5.000 
#    0.000    6.250    0.000    0.000    0.000    0.000 
#    0.000    0.000    0.000    0.000    0.000    0.000 
#
# Total GULP energy -89228.541503 kJ/mol
# GULP energy per Si atom -5576.783844 kJ/mol
# Density = 2.633300 g / cm^3
# Si number density = 26.393068 Si / 1000 Ang^3
#
#
#
# Elastic Constant Matrix: (Units=GPa)
#
#
# Indices 1 2 3 4 5 6 
#
# 1 71.9068 62.4583 35.8282 0.0000 23.0609 0.0000
# 2 62.4583 166.0017 43.8730 0.0000 18.9546 0.0000
# 3 35.8282 43.8730 135.8217 0.0000 46.2565 0.0000
# 4 0.0000 0.0000 0.0000 32.9810 0.0000 10.8381
# 5 23.0609 18.9546 46.2565 0.0000 31.9333 0.0000
# 6 0.0000 0.0000 0.0000 10.8381 0.0000 50.6321
#
#
#
# Elastic Compliance Matrix: (Units=1/GPa)
#
#
# Indices 1 2 3 4 5 6 
#
# 1 0.025144 -0.008034 0.001031 0.000000 -0.014883 0.000000
# 2 -0.008034 0.009197 -0.001911 0.000000 0.003111 0.000000
# 3 0.001031 -0.001911 0.014951 0.000000 -0.021267 0.000000
# 4 0.000000 0.000000 0.000000 0.032615 0.000000 -0.006981
# 5 -0.014883 0.003111 -0.021267 0.000000 0.071023 0.000000
# 6 0.000000 0.000000 0.000000 -0.006981 0.000000 0.021245
#
#
# Mechanical properties :
#
#
# Convention : Reuss Voigt Hill
#
# Bulk Modulus (GPa) = 31.78213 73.11658 52.44935
# Shear Modulus (GPa) = 24.69270 38.54731 31.62000
#
# Velocity S-wave (km/s) = 3.06204 3.82581 3.46503
# Velocity P-wave (km/s) = 4.95675 6.87596 5.99367
#
# Compressibility (1/GPa) = 0.03146423
#
# Stress axis : x y z
#
# Youngs Moduli (GPa) = 39.77042 108.73653 66.88628
#
# Poissons Ratio (x) = 0.87355 -0.06895
# Poissons Ratio (y) = 0.31950 0.12781
# Poissons Ratio (z) = -0.04100 0.20779
#
# Static dielectric constant tensor:
#      x y z
#    x 2.322780 0.000000 0.091510 
#    y 0.000000 2.029770 0.000000 
#    z 0.091510 0.000000 2.137550 
# 
# From -- ./inp_files/306170.got.cif
#   From: 2010.05.17/outbox.cif.g08.bks.cpg/sg15_154_cif.got.tgz:306170.got - 2010.06.03 18:47:42.
