data_PCOD9305551
_publ_section_title
;
Structure prediction by ZEFSAII (Michael W. Deem and Ramdas Pophale) SiO2 
 PCOD9305551
Probable space group: C 2/C
;
_chemical_formula_sum "Si O2"
_cell_formula_units_Z 40
_cell_length_a 5.382012
_cell_length_b 24.887332
_cell_length_c 13.436674
_cell_angle_alpha 90.000000
_cell_angle_beta 74.995161
_cell_angle_gamma 90.000000
_cell_volume 1738.396072
_symmetry_space_group_name_H-M "C 2/C"
_symmetry_group_IT_number 15
_symmetry_cell_setting 'monoclinic'
loop_
_space_group_symop_operation_xyz
x,y,z
-x,y,1/2-z
-x,-y,-z
x,-y,1/2+z
1/2+x,1/2+y,z
1/2-x,1/2+y,1/2-z
1/2-x,1/2-y,-z
1/2+x,1/2-y,1/2+z
loop_
_atom_site_type_symbol
_atom_site_label
_atom_site_fract_x
_atom_site_fract_y
_atom_site_fract_z
Si Si1 0.202949 0.310919 0.640300
Si Si2 0.005538 0.284893 0.057950
Si Si3 0.470554 0.905322 0.437365
Si Si4 0.045153 0.086112 0.128555
Si Si5 0.514888 0.463743 0.368238
O O1 0.349965 0.254927 0.646158
O O2 0.386484 0.362327 0.610430
O O3 0.000000 0.320538 0.750000
O O4 0.110661 0.299108 0.538252
O O5 0.031698 0.344029 0.100525
O O6 0.250000 0.250000 0.000000
O O7 0.333675 0.905880 0.559845
O O8 0.748768 0.932543 0.420326
O O9 0.270642 0.936490 0.386046
O O10 0.000000 0.086101 0.250000
O O11 0.974593 0.026264 0.100954
O O12 0.500000 0.463484 0.250000
#
# Coordination Sequence:
#
# PCOD9305551 Si02
#       5
#     8   8   8   8   8
#     4  11  25  45  73 103 139 189 242 300 368 420
#     4  11  25  46  68 100 145 182 241 300 352 439
#     4  12  24  47  75 102 148 192 238 295 374 423
#     4  11  24  45  74 106 142 184 244 302 359 433
#     4  11  27  47  71 110 146 192 242 297 360 442
#
# _framework density 23.009716000000001
#
# number of rings (size 3 to 8) (size 9 to 14) (size 15 to 20)
#    0.000    0.800    2.000    4.200    2.800    5.600 
#    3.600    0.000    0.000    0.000    0.000    0.000 
#    0.000    0.000    0.000    0.000    0.000    0.000 
#
# Total GULP energy -111762.970672 kJ/mol
# GULP energy per Si atom -5588.148534 kJ/mol
# Density = 2.295734 g / cm^3
# Si number density = 23.009716 Si / 1000 Ang^3
#
#
#
# Elastic Constant Matrix: (Units=GPa)
#
#
# Indices 1 2 3 4 5 6 
#
# 1 81.8905 78.7290 8.6908 0.0000 -0.8801 0.0000
# 2 78.7290 243.6448 21.2209 0.0000 -6.8825 0.0000
# 3 8.6908 21.2209 83.2010 0.0000 -13.3797 0.0000
# 4 0.0000 0.0000 0.0000 31.1061 0.0000 3.5897
# 5 -0.8801 -6.8825 -13.3797 0.0000 41.9378 0.0000
# 6 0.0000 0.0000 0.0000 3.5897 0.0000 30.3820
#
#
#
# Elastic Compliance Matrix: (Units=1/GPa)
#
#
# Indices 1 2 3 4 5 6 
#
# 1 0.017749 -0.005711 -0.000515 0.000000 -0.000729 0.000000
# 2 -0.005711 0.006040 -0.000847 0.000000 0.000601 0.000000
# 3 -0.000515 -0.000847 0.012928 0.000000 0.003975 0.000000
# 4 0.000000 0.000000 0.000000 0.032592 0.000000 -0.003851
# 5 -0.000729 0.000601 0.003975 0.000000 0.025196 0.000000
# 6 0.000000 0.000000 0.000000 -0.003851 0.000000 0.033369
#
#
# Mechanical properties :
#
#
# Convention : Reuss Voigt Hill
#
# Bulk Modulus (GPa) = 44.30379 69.55752 56.93065
# Shear Modulus (GPa) = 33.43476 40.69153 37.06315
#
# Velocity S-wave (km/s) = 3.81605 4.20986 4.01778
# Velocity P-wave (km/s) = 6.22194 7.34342 6.80582
#
# Compressibility (1/GPa) = 0.02257143
#
# Stress axis : x y z
#
# Youngs Moduli (GPa) = 56.34236 165.54943 77.35048
#
# Poissons Ratio (x) = 0.94544 0.03980
# Poissons Ratio (y) = 0.32177 0.06555
# Poissons Ratio (z) = 0.02899 0.14030
#
# Static dielectric constant tensor:
#      x y z
#    x 1.912220 0.000000 0.024230 
#    y 0.000000 1.986760 0.000000 
#    z 0.024230 0.000000 1.885110 
# 
# From -- ./inp_files/129286.got.cif
#   From: 2010.05.17/outbox.cif.g08.bks.cpg/sg15_65_cif.got.tgz:129286.got - 2010.06.03 18:47:42.
