data_PCOD9305648
_publ_section_title
;
Structure prediction by ZEFSAII (Michael W. Deem and Ramdas Pophale) SiO2 
 PCOD9305648
Probable space group: C 2/C
;
_chemical_formula_sum "Si O2"
_cell_formula_units_Z 40
_cell_length_a 9.703634
_cell_length_b 17.943786
_cell_length_c 12.047784
_cell_angle_alpha 90.000000
_cell_angle_beta 114.698430
_cell_angle_gamma 90.000000
_cell_volume 1905.855525
_symmetry_space_group_name_H-M "C 2/C"
_symmetry_group_IT_number 15
_symmetry_cell_setting 'monoclinic'
loop_
_space_group_symop_operation_xyz
x,y,z
-x,y,1/2-z
-x,-y,-z
x,-y,1/2+z
1/2+x,1/2+y,z
1/2-x,1/2+y,1/2-z
1/2-x,1/2-y,-z
1/2+x,1/2-y,1/2+z
loop_
_atom_site_type_symbol
_atom_site_label
_atom_site_fract_x
_atom_site_fract_y
_atom_site_fract_z
Si Si1 0.175680 0.352992 0.133468
Si Si2 0.296527 0.444989 0.365318
Si Si3 0.181464 0.330825 0.511346
Si Si4 0.149595 0.203370 0.227246
Si Si5 0.634405 0.399271 0.512998
O O1 0.204412 0.422806 0.224397
O O2 0.230322 0.280046 0.219520
O O3 0.999528 0.335664 0.053123
O O4 0.264101 0.364934 0.049601
O O5 0.241288 0.391673 0.445625
O O6 0.474752 0.426759 0.408572
O O7 0.286782 0.529391 0.403521
O O8 0.250000 0.250000 0.500000
O O9 0.243094 0.343838 0.655876
O O10 0.106493 0.159490 0.101899
O O11 0.000000 0.219786 0.250000
#
# Coordination Sequence:
#
# PCOD9305648 Si02
#       5
#     8   8   8   8   8
#     4  12  25  45  71 105 140 177 239 299 342 416
#     4  11  24  46  71  99 140 190 228 289 358 421
#     4  12  23  44  72 100 133 189 232 283 356 422
#     4  12  23  44  73  95 139 187 233 283 355 426
#     4  11  27  44  71 104 139 182 237 289 353 421
#
# _framework density 20.987950999999999
#
# number of rings (size 3 to 8) (size 9 to 14) (size 15 to 20)
#    0.000    0.400    6.000    1.800    2.800    1.600 
#    7.200    0.000    0.000    0.000    0.000    0.000 
#    0.000    0.000    0.000    0.000    0.000    0.000 
#
# Total GULP energy -111898.165397 kJ/mol
# GULP energy per Si atom -5594.908270 kJ/mol
# Density = 2.094018 g / cm^3
# Si number density = 20.987951 Si / 1000 Ang^3
#
#
#
# Elastic Constant Matrix: (Units=GPa)
#
#
# Indices 1 2 3 4 5 6 
#
# 1 109.3940 32.5634 55.2637 0.0000 -27.6876 0.0000
# 2 32.5634 84.3920 19.5467 0.0000 -37.6536 0.0000
# 3 55.2637 19.5467 119.2080 0.0000 -15.2691 0.0000
# 4 0.0000 0.0000 0.0000 32.7978 0.0000 4.0041
# 5 -27.6876 -37.6536 -15.2691 0.0000 40.7349 0.0000
# 6 0.0000 0.0000 0.0000 4.0041 0.0000 14.3163
#
#
#
# Elastic Compliance Matrix: (Units=1/GPa)
#
#
# Indices 1 2 3 4 5 6 
#
# 1 0.013822 -0.001351 -0.005402 0.000000 0.006121 0.000000
# 2 -0.001351 0.020405 -0.000442 0.000000 0.017777 0.000000
# 3 -0.005402 -0.000442 0.010970 0.000000 0.000031 0.000000
# 4 0.000000 0.000000 0.000000 0.031568 0.000000 -0.008829
# 5 0.006121 0.017777 0.000031 0.000000 0.045154 0.000000
# 6 0.000000 0.000000 0.000000 -0.008829 0.000000 0.072320
#
#
# Mechanical properties :
#
#
# Convention : Reuss Voigt Hill
#
# Bulk Modulus (GPa) = 32.46196 58.63795 45.54995
# Shear Modulus (GPa) = 22.84180 31.27782 27.05981
#
# Velocity S-wave (km/s) = 3.30256 3.86460 3.59458
# Velocity P-wave (km/s) = 5.48116 6.92192 6.24324
#
# Compressibility (1/GPa) = 0.03080529
#
# Stress axis : x y z
#
# Youngs Moduli (GPa) = 72.35034 49.00735 91.16128
#
# Poissons Ratio (x) = 0.06621 0.49246
# Poissons Ratio (y) = 0.09775 0.04034
# Poissons Ratio (z) = 0.39084 0.02168
#
# Static dielectric constant tensor:
#      x y z
#    x 1.733440 0.000000 0.046490 
#    y 0.000000 1.759980 0.000000 
#    z 0.046490 0.000000 1.776430 
# 
# From -- ./inp_files/76710.got.cif
#   From: 2010.05.17/outbox.cif.g08.bks.cpg/sg15_39_cif.got.tgz:76710.got - 2010.06.03 18:47:42.
