data_PCOD9305104
_publ_section_title
;
Structure prediction by ZEFSAII (Michael W. Deem and Ramdas Pophale) SiO2 
 PCOD9305104
Probable space group: C 2/C
;
_chemical_formula_sum "Si O2"
_cell_formula_units_Z 32
_cell_length_a 5.342308
_cell_length_b 27.938107
_cell_length_c 9.302343
_cell_angle_alpha 90.000000
_cell_angle_beta 74.630096
_cell_angle_gamma 90.000000
_cell_volume 1338.754772
_symmetry_space_group_name_H-M "C 2/C"
_symmetry_group_IT_number 15
_symmetry_cell_setting 'monoclinic'
loop_
_space_group_symop_operation_xyz
x,y,z
-x,y,1/2-z
-x,-y,-z
x,-y,1/2+z
1/2+x,1/2+y,z
1/2-x,1/2+y,1/2-z
1/2-x,1/2-y,-z
1/2+x,1/2-y,1/2+z
loop_
_atom_site_type_symbol
_atom_site_label
_atom_site_fract_x
_atom_site_fract_y
_atom_site_fract_z
Si Si1 0.339755 0.978681 0.152565
Si Si2 0.817249 0.856929 0.995613
Si Si3 0.500000 0.436898 0.750000
Si Si4 0.848881 0.700370 0.420202
Si Si5 0.500000 0.397845 0.250000
O O1 0.500000 0.952228 0.250000
O O2 0.152197 0.936531 0.127870
O O3 0.213700 0.023184 0.259053
O O4 0.500000 0.000000 0.000000
O O5 0.835348 0.866948 0.163562
O O6 0.555886 0.829305 0.986854
O O7 0.861196 0.904096 0.890168
O O8 0.085635 0.828425 0.927025
O O9 0.750000 0.750000 0.500000
O O10 0.000000 0.709474 0.250000
#
# Coordination Sequence:
#
# PCOD9305104 Si02
#       5
#     8   8   4   8   4
#     4  11  24  42  69 102 159 200 255 317 370 436
#     4  12  27  48  81 109 154 198 262 308 385 472
#     4  11  24  44  70 108 146 208 256 312 372 455
#     4  12  28  54  81 115 149 195 250 326 401 466
#     4  11  28  44  68 120 146 208 258 310 376 449
#
# _framework density 23.902809000000001
#
# number of rings (size 3 to 8) (size 9 to 14) (size 15 to 20)
#    0.000    0.500    2.500    3.750   12.250    4.000 
#    0.000    0.000    0.000    0.000    0.000    0.000 
#    0.000    0.000    0.000    0.000    0.000    0.000 
#
# Total GULP energy -89361.469223 kJ/mol
# GULP energy per Si atom -5585.091826 kJ/mol
# Density = 2.384840 g / cm^3
# Si number density = 23.902809 Si / 1000 Ang^3
#
#
#
# Elastic Constant Matrix: (Units=GPa)
#
#
# Indices 1 2 3 4 5 6 
#
# 1 126.6970 51.7500 17.8383 0.0000 7.3733 0.0000
# 2 51.7500 113.7209 30.3667 0.0000 5.9394 0.0000
# 3 17.8383 30.3667 98.4651 0.0000 7.6646 0.0000
# 4 0.0000 0.0000 0.0000 35.9458 0.0000 -14.6440
# 5 7.3733 5.9394 7.6646 0.0000 42.2302 0.0000
# 6 0.0000 0.0000 0.0000 -14.6440 0.0000 45.7111
#
#
#
# Elastic Compliance Matrix: (Units=1/GPa)
#
#
# Indices 1 2 3 4 5 6 
#
# 1 0.009756 -0.004288 -0.000364 0.000000 -0.001034 0.000000
# 2 -0.004288 0.011496 -0.002740 0.000000 -0.000371 0.000000
# 3 -0.000364 -0.002740 0.011190 0.000000 -0.001582 0.000000
# 4 0.000000 0.000000 0.000000 0.031995 0.000000 0.010250
# 5 -0.001034 -0.000371 -0.001582 0.000000 0.024200 0.000000
# 6 0.000000 0.000000 0.000000 0.010250 0.000000 0.025160
#
#
# Mechanical properties :
#
#
# Convention : Reuss Voigt Hill
#
# Bulk Modulus (GPa) = 56.63421 59.86590 58.25005
# Shear Modulus (GPa) = 37.18385 40.70596 38.94490
#
# Velocity S-wave (km/s) = 3.94842 4.13119 4.04084
# Velocity P-wave (km/s) = 6.67321 6.91777 6.79659
#
# Compressibility (1/GPa) = 0.01765717
#
# Stress axis : x y z
#
# Youngs Moduli (GPa) = 102.50234 86.98849 89.36606
#
# Poissons Ratio (x) = 0.37302 0.03257
# Poissons Ratio (y) = 0.43955 0.24482
# Poissons Ratio (z) = 0.03735 0.23831
#
# Static dielectric constant tensor:
#      x y z
#    x 2.133990 0.000000 -0.037060 
#    y 0.000000 1.887340 0.000000 
#    z -0.037060 0.000000 1.955330 
# 
# From -- ./inp_files/20199.got.cif
#   From: 2010.05.17/outbox.cif.g08.bks.cpg/sg15_11_cif.got.tgz:20199.got - 2010.06.03 18:47:42.
