data_PCOD9305746
_publ_section_title
;
Structure prediction by ZEFSAII (Michael W. Deem and Ramdas Pophale) SiO2 
 PCOD9305746
Probable space group: C 2/C
;
_chemical_formula_sum "Si O2"
_cell_formula_units_Z 48
_cell_length_a 11.120918
_cell_length_b 9.915088
_cell_length_c 24.140669
_cell_angle_alpha 90.000000
_cell_angle_beta 65.883423
_cell_angle_gamma 90.000000
_cell_volume 2429.529499
_symmetry_space_group_name_H-M "C 2/C"
_symmetry_group_IT_number 15
_symmetry_cell_setting 'monoclinic'
loop_
_space_group_symop_operation_xyz
x,y,z
-x,y,1/2-z
-x,-y,-z
x,-y,1/2+z
1/2+x,1/2+y,z
1/2-x,1/2+y,1/2-z
1/2-x,1/2-y,-z
1/2+x,1/2-y,1/2+z
loop_
_atom_site_type_symbol
_atom_site_label
_atom_site_fract_x
_atom_site_fract_y
_atom_site_fract_z
Si Si1 0.291871 0.871165 0.951878
Si Si2 0.137594 0.353048 0.004406
Si Si3 0.894387 0.784971 0.610093
Si Si4 0.284714 0.447817 0.311521
Si Si5 0.453461 0.456085 0.167965
Si Si6 0.088458 0.680325 0.383188
O O1 0.186466 0.863173 0.922581
O O2 0.437168 0.856147 0.898746
O O3 0.306606 0.003380 0.986751
O O4 0.250000 0.750000 0.000000
O O5 0.005259 0.309067 0.061260
O O6 0.250000 0.250000 0.000000
O O7 0.108197 0.341569 0.944991
O O8 0.802425 0.685120 0.662610
O O9 0.952067 0.901049 0.637765
O O10 0.357357 0.453905 0.239056
O O11 0.398740 0.438519 0.336623
O O12 0.192940 0.579763 0.335601
O O13 0.404424 0.335566 0.137283
#
# Coordination Sequence:
#
# PCOD9305746 Si02
#       6
#     8   8   8   8   8   8
#     4  12  24  41  67 101 132 176 214 268 337 397
#     4  12  26  40  66 101 135 172 215 275 336 395
#     4  12  24  44  69  98 136 171 223 272 330 398
#     4  11  24  47  67  94 134 174 223 276 325 381
#     4  11  26  43  70  97 127 180 225 268 326 394
#     4  12  23  43  68  97 134 172 219 271 334 391
#
# _framework density 19.756910000000001
#
# number of rings (size 3 to 8) (size 9 to 14) (size 15 to 20)
#    0.000    0.333    5.000    4.500    2.333    1.333 
#    0.000    0.000    0.000    0.000    0.000    0.000 
#    0.000    0.000    0.000    0.000    0.000    0.000 
#
# Total GULP energy -134223.368240 kJ/mol
# GULP energy per Si atom -5592.640343 kJ/mol
# Density = 1.971194 g / cm^3
# Si number density = 19.756910 Si / 1000 Ang^3
#
#
#
# Elastic Constant Matrix: (Units=GPa)
#
#
# Indices 1 2 3 4 5 6 
#
# 1 57.1544 24.4729 0.0847 0.0000 -9.0061 0.0000
# 2 24.4729 153.2312 27.3340 0.0000 -2.2453 0.0000
# 3 0.0847 27.3340 43.1907 0.0000 -7.0330 0.0000
# 4 0.0000 0.0000 0.0000 40.2971 0.0000 1.0649
# 5 -9.0061 -2.2453 -7.0330 0.0000 33.8103 0.0000
# 6 0.0000 0.0000 0.0000 1.0649 0.0000 46.7254
#
#
#
# Elastic Compliance Matrix: (Units=1/GPa)
#
#
# Indices 1 2 3 4 5 6 
#
# 1 0.019974 -0.003681 0.003226 0.000000 0.005747 0.000000
# 2 -0.003681 0.008043 -0.005337 0.000000 -0.001557 0.000000
# 3 0.003226 -0.005337 0.027539 0.000000 0.006234 0.000000
# 4 0.000000 0.000000 0.000000 0.024831 0.000000 -0.000566
# 5 0.005747 -0.001557 0.006234 0.000000 0.032301 0.000000
# 6 0.000000 0.000000 0.000000 -0.000566 0.000000 0.021415
#
#
# Mechanical properties :
#
#
# Convention : Reuss Voigt Hill
#
# Bulk Modulus (GPa) = 22.74114 39.70660 31.22387
# Shear Modulus (GPa) = 31.18323 37.61220 34.39771
#
# Velocity S-wave (km/s) = 3.97715 4.36793 4.17711
# Velocity P-wave (km/s) = 5.71190 6.75127 6.25321
#
# Compressibility (1/GPa) = 0.04397317
#
# Stress axis : x y z
#
# Youngs Moduli (GPa) = 50.06604 124.32882 36.31195
#
# Poissons Ratio (x) = 0.45770 -0.11716
# Poissons Ratio (y) = 0.18431 0.19378
# Poissons Ratio (z) = -0.16154 0.66348
#
# Static dielectric constant tensor:
#      x y z
#    x 1.681460 0.000000 -0.006100 
#    y 0.000000 1.694780 0.000000 
#    z -0.006100 0.000000 1.688650 
# 
# From -- ./inp_files/291044.got.cif
#   From: 2010.05.17/outbox.cif.g08.bks.cpg/sg15_146_cif.got.tgz:291044.got - 2010.06.03 18:47:42.
