data_PCOD9305122
_publ_section_title
;
Structure prediction by ZEFSAII (Michael W. Deem and Ramdas Pophale) SiO2 
 PCOD9305122
Probable space group: C 2/C
;
_chemical_formula_sum "Si O2"
_cell_formula_units_Z 44
_cell_length_a 9.448424
_cell_length_b 27.083901
_cell_length_c 12.289163
_cell_angle_alpha 90.000000
_cell_angle_beta 138.385838
_cell_angle_gamma 90.000000
_cell_volume 2088.495715
_symmetry_space_group_name_H-M "C 2/C"
_symmetry_group_IT_number 15
_symmetry_cell_setting 'monoclinic'
loop_
_space_group_symop_operation_xyz
x,y,z
-x,y,1/2-z
-x,-y,-z
x,-y,1/2+z
1/2+x,1/2+y,z
1/2-x,1/2+y,1/2-z
1/2-x,1/2-y,-z
1/2+x,1/2-y,1/2+z
loop_
_atom_site_type_symbol
_atom_site_label
_atom_site_fract_x
_atom_site_fract_y
_atom_site_fract_z
Si Si1 0.500000 0.876013 0.750000
Si Si2 0.337055 0.058358 0.989518
Si Si3 0.835909 0.281713 0.444224
Si Si4 0.401850 0.053694 0.574848
Si Si5 0.000000 0.884231 0.750000
Si Si6 0.282578 0.686489 0.291982
Si Si7 0.500000 0.634216 0.750000
O O1 0.517922 0.912181 0.658540
O O2 0.296327 0.840650 0.643387
O O3 0.407134 0.057043 0.904243
O O4 0.134353 0.093257 0.894448
O O5 0.324028 0.003371 0.027608
O O6 0.750000 0.250000 0.500000
O O7 0.865983 0.240261 0.369901
O O8 0.678871 0.325820 0.315865
O O9 0.060254 0.305373 0.602040
O O10 0.500000 0.066306 0.750000
O O11 0.200684 0.084601 0.412659
O O12 0.930008 0.848449 0.807608
#
# Coordination Sequence:
#
# PCOD9305122 Si02
#       7
#     4   8   8   8   4   8   4
#     4  12  19  42  70  97 139 178 228 297 330 410
#     4  11  24  42  70 107 136 182 243 282 354 419
#     4  12  21  39  66  99 130 176 237 287 340 409
#     4  11  25  48  69 102 148 189 231 293 350 435
#     4  12  27  50  68 101 151 188 231 286 380 412
#     4  12  25  43  69 100 139 183 232 296 351 428
#     4  12  20  38  68 100 134 174 233 295 344 412
#
# _framework density 21.067793999999999
#
# number of rings (size 3 to 8) (size 9 to 14) (size 15 to 20)
#    0.000    0.364    8.182    0.545    0.000    3.636 
#    3.273    3.636    0.000    0.000    0.000    0.000 
#    0.000    0.000    0.000    0.000    0.000    0.000 
#
# Total GULP energy -122604.454185 kJ/mol
# GULP energy per Si atom -5572.929736 kJ/mol
# Density = 2.101984 g / cm^3
# Si number density = 21.067794 Si / 1000 Ang^3
#
#
#
# Elastic Constant Matrix: (Units=GPa)
#
#
# Indices 1 2 3 4 5 6 
#
# 1 48.2879 26.4056 19.6914 0.0000 -3.9892 0.0000
# 2 26.4056 157.2230 45.1958 0.0000 7.5868 0.0000
# 3 19.6914 45.1958 91.8967 0.0000 2.7077 0.0000
# 4 0.0000 0.0000 0.0000 43.8683 0.0000 -72.0616
# 5 -3.9892 7.5868 2.7077 0.0000 30.8471 0.0000
# 6 0.0000 0.0000 0.0000 -72.0616 0.0000 738.8612
#
#
#
# Elastic Compliance Matrix: (Units=1/GPa)
#
#
# Indices 1 2 3 4 5 6 
#
# 1 0.024354 -0.003215 -0.003764 0.000000 0.004270 0.000000
# 2 -0.003215 0.007902 -0.003136 0.000000 -0.002084 0.000000
# 3 -0.003764 -0.003136 0.013257 0.000000 -0.000879 0.000000
# 4 0.000000 0.000000 0.000000 0.027144 0.000000 0.002647
# 5 0.004270 -0.002084 -0.000879 0.000000 0.033560 0.000000
# 6 0.000000 0.000000 0.000000 0.002647 0.000000 0.001612
#
#
# Mechanical properties :
#
#
# Convention : Reuss Voigt Hill
#
# Bulk Modulus (GPa) = 39.54947 53.33259 46.44103
# Shear Modulus (GPa) = 36.63372 176.45631 106.54502
#
# Velocity S-wave (km/s) = 4.17448 9.16178 7.11915
# Velocity P-wave (km/s) = 6.48446 11.71697 9.46931
#
# Compressibility (1/GPa) = 0.02528479
#
# Stress axis : x y z
#
# Youngs Moduli (GPa) = 41.06024 126.54382 75.43422
#
# Poissons Ratio (x) = 0.40678 0.28390
# Poissons Ratio (y) = 0.13199 0.23658
# Poissons Ratio (z) = 0.15453 0.39688
#
# Static dielectric constant tensor:
#      x y z
#    x 1.830900 0.000000 -0.013340 
#    y 0.000000 1.768890 0.000000 
#    z -0.013340 0.000000 1.937920 
# 
# From -- ./inp_files/81616.got.cif
#   From: 2010.05.17/outbox.cif.g08.bks.cpg/sg15_41_cif.got.tgz:81616.got - 2010.06.03 18:47:42.
