data_PCOD9305985
_publ_section_title
;
Structure prediction by ZEFSAII (Michael W. Deem and Ramdas Pophale) SiO2 
 PCOD9305985
Probable space group: C 2/C
;
_chemical_formula_sum "Si O2"
_cell_formula_units_Z 40
_cell_length_a 12.014157
_cell_length_b 13.949098
_cell_length_c 15.196445
_cell_angle_alpha 90.000000
_cell_angle_beta 38.163273
_cell_angle_gamma 90.000000
_cell_volume 1573.630662
_symmetry_space_group_name_H-M "C 2/C"
_symmetry_group_IT_number 15
_symmetry_cell_setting 'monoclinic'
loop_
_space_group_symop_operation_xyz
x,y,z
-x,y,1/2-z
-x,-y,-z
x,-y,1/2+z
1/2+x,1/2+y,z
1/2-x,1/2+y,1/2-z
1/2-x,1/2-y,-z
1/2+x,1/2-y,1/2+z
loop_
_atom_site_type_symbol
_atom_site_label
_atom_site_fract_x
_atom_site_fract_y
_atom_site_fract_z
Si Si1 0.750000 0.250000 0.500000
Si Si2 0.500000 0.902695 0.750000
Si Si3 0.879483 0.984395 0.694140
Si Si4 0.658165 0.704521 0.391168
Si Si5 0.772664 0.523469 0.025103
Si Si6 0.712809 0.668434 0.829525
O O1 0.777600 0.361850 0.513609
O O2 0.780446 0.286170 0.377300
O O3 0.664424 0.833967 0.674067
O O4 0.571646 0.969099 0.625171
O O5 0.815914 0.054753 0.656080
O O6 0.888244 0.876484 0.653345
O O7 0.747218 0.996167 0.858883
O O8 0.080341 0.008864 0.602338
O O9 0.487734 0.710990 0.559916
O O10 0.674635 0.799535 0.323994
#
# Coordination Sequence:
#
# PCOD9305985 Si02
#       6
#     4   4   8   8   8   8
#     4  12  24  48  78 118 144 200 264 316 382 458
#     4  12  28  46  74 108 146 208 254 304 382 472
#     4  11  24  51  74 110 156 200 239 326 392 443
#     4  12  27  49  71 111 150 196 257 313 379 458
#     4  11  25  46  81 109 153 198 259 311 385 461
#     4  12  27  46  80 106 155 196 250 318 386 447
#
# _framework density 25.418925000000002
#
# number of rings (size 3 to 8) (size 9 to 14) (size 15 to 20)
#    0.000    0.400    6.000    1.800    2.800    8.800 
#    0.000    0.000    0.000    0.000    0.000    0.000 
#    0.000    0.000    0.000    0.000    0.000    0.000 
#
# Total GULP energy -111605.200981 kJ/mol
# GULP energy per Si atom -5580.260049 kJ/mol
# Density = 2.536107 g / cm^3
# Si number density = 25.418925 Si / 1000 Ang^3
#
#
#
# Elastic Constant Matrix: (Units=GPa)
#
#
# Indices 1 2 3 4 5 6 
#
# 1 74.0124 1.4461 15.7513 -0.0002 -5.0538 0.0001
# 2 1.4461 96.7651 -3.1943 -0.0003 14.3630 0.0002
# 3 15.7513 -3.1943 99.8158 -0.0007 -2.4807 0.0005
# 4 -0.0002 -0.0003 -0.0007 38.3816 0.0003 17.4312
# 5 -5.0538 14.3630 -2.4807 0.0003 41.2605 -0.0002
# 6 0.0001 0.0002 0.0005 17.4312 -0.0002 27.4021
#
#
#
# Elastic Compliance Matrix: (Units=1/GPa)
#
#
# Indices 1 2 3 4 5 6 
#
# 1 0.014112 -0.000549 -0.002200 0.000000 0.001787 0.000000
# 2 -0.000549 0.010925 0.000341 0.000000 -0.003850 0.000000
# 3 -0.002200 0.000341 0.010382 0.000000 0.000236 0.000000
# 4 0.000000 0.000000 0.000000 0.036639 0.000000 -0.023307
# 5 0.001787 -0.003850 0.000236 0.000000 0.025810 0.000000
# 6 0.000000 0.000000 0.000000 -0.023307 0.000000 0.051320
#
#
# Mechanical properties :
#
#
# Convention : Reuss Voigt Hill
#
# Bulk Modulus (GPa) = 32.67645 33.17773 32.92709
# Shear Modulus (GPa) = 30.44954 38.51488 34.48221
#
# Velocity S-wave (km/s) = 3.46484 3.89679 3.68714
# Velocity P-wave (km/s) = 5.37493 5.77298 5.57751
#
# Compressibility (1/GPa) = 0.03060308
#
# Stress axis : x y z
#
# Youngs Moduli (GPa) = 70.86051 91.53157 96.31683
#
# Poissons Ratio (x) = 0.05023 0.21191
# Poissons Ratio (y) = 0.03889 -0.03280
# Poissons Ratio (z) = 0.15590 -0.03117
#
# Static dielectric constant tensor:
#      x y z
#    x 2.017210 0.000000 -0.110670 
#    y 0.000000 1.900590 0.000000 
#    z -0.110670 0.000000 2.033870 
# 
# From -- ./inp_files/205627.got.cif
#   From: 2010.05.17/outbox.cif.g08.bks.cpg/sg15_103_cif.got.tgz:205627.got - 2010.06.03 18:47:42.
