data_PCOD9305516
_publ_section_title
;
Structure prediction by ZEFSAII (Michael W. Deem and Ramdas Pophale) SiO2 
 PCOD9305516
Probable space group: C 2/C
;
_chemical_formula_sum "Si O2"
_cell_formula_units_Z 44
_cell_length_a 6.999902
_cell_length_b 13.086538
_cell_length_c 18.971796
_cell_angle_alpha 90.000000
_cell_angle_beta 82.442623
_cell_angle_gamma 90.000000
_cell_volume 1722.805558
_symmetry_space_group_name_H-M "C 2/C"
_symmetry_group_IT_number 15
_symmetry_cell_setting 'monoclinic'
loop_
_space_group_symop_operation_xyz
x,y,z
-x,y,1/2-z
-x,-y,-z
x,-y,1/2+z
1/2+x,1/2+y,z
1/2-x,1/2+y,1/2-z
1/2-x,1/2-y,-z
1/2+x,1/2-y,1/2+z
loop_
_atom_site_type_symbol
_atom_site_label
_atom_site_fract_x
_atom_site_fract_y
_atom_site_fract_z
Si Si1 0.502816 0.411480 0.172394
Si Si2 0.429933 0.868873 0.934194
Si Si3 0.250000 0.250000 0.000000
Si Si4 0.366010 0.213011 0.821164
Si Si5 0.594190 0.079568 0.906318
Si Si6 0.023888 0.882668 0.898967
O O1 0.500000 0.459328 0.250000
O O2 0.350377 0.319672 0.183760
O O3 0.720341 0.383963 0.144132
O O4 0.450450 0.498418 0.118362
O O5 0.579057 0.783456 0.950989
O O6 0.236379 0.838371 0.903721
O O7 0.533002 0.964487 0.890913
O O8 0.364033 0.913721 0.013339
O O9 0.119735 0.148569 0.031774
O O10 0.500000 0.175664 0.750000
O O11 0.421050 0.156768 0.893626
O O12 0.427606 0.327380 0.835978
#
# Coordination Sequence:
#
# PCOD9305516 Si02
#       6
#     8   8   4   8   8   8
#     4  12  26  48  76 103 148 196 241 307 366 438
#     4  11  25  45  72 105 148 189 235 311 361 444
#     4  12  24  42  68 104 144 182 234 298 360 432
#     4  12  26  48  72 105 147 191 247 300 360 447
#     4  11  24  45  71 106 142 190 243 293 374 429
#     4  12  27  45  73 109 144 189 246 299 375 441
#
# _framework density 25.539736000000001
#
# number of rings (size 3 to 8) (size 9 to 14) (size 15 to 20)
#    0.000    0.364    7.273    1.091    2.545    0.727 
#    0.000    0.000    0.000    0.000    0.000    0.000 
#    0.000    0.000    0.000    0.000    0.000    0.000 
#
# Total GULP energy -122751.191896 kJ/mol
# GULP energy per Si atom -5579.599632 kJ/mol
# Density = 2.548161 g / cm^3
# Si number density = 25.539736 Si / 1000 Ang^3
#
#
#
# Elastic Constant Matrix: (Units=GPa)
#
#
# Indices 1 2 3 4 5 6 
#
# 1 172.8593 31.7606 25.0181 0.0000 -18.1968 0.0000
# 2 31.7606 75.6047 20.8750 0.0000 1.3122 0.0000
# 3 25.0181 20.8750 66.9312 0.0000 -12.3431 0.0000
# 4 0.0000 0.0000 0.0000 39.8600 0.0000 10.1226
# 5 -18.1968 1.3122 -12.3431 0.0000 32.3083 0.0000
# 6 0.0000 0.0000 0.0000 10.1226 0.0000 27.3900
#
#
#
# Elastic Compliance Matrix: (Units=1/GPa)
#
#
# Indices 1 2 3 4 5 6 
#
# 1 0.006792 -0.002618 -0.001073 0.000000 0.003522 0.000000
# 2 -0.002618 0.015671 -0.004624 0.000000 -0.003878 0.000000
# 3 -0.001073 -0.004624 0.017973 0.000000 0.006450 0.000000
# 4 0.000000 0.000000 0.000000 0.027686 0.000000 -0.010232
# 5 0.003522 -0.003878 0.006450 0.000000 0.035557 0.000000
# 6 0.000000 0.000000 0.000000 -0.010232 0.000000 0.040291
#
#
# Mechanical properties :
#
#
# Convention : Reuss Voigt Hill
#
# Bulk Modulus (GPa) = 42.00557 52.30028 47.15293
# Shear Modulus (GPa) = 29.66730 35.76110 32.71420
#
# Velocity S-wave (km/s) = 3.41194 3.74600 3.58287
# Velocity P-wave (km/s) = 5.65727 6.26359 5.96813
#
# Compressibility (1/GPa) = 0.02380636
#
# Stress axis : x y z
#
# Youngs Moduli (GPa) = 147.22917 63.81393 55.63804
#
# Poissons Ratio (x) = 0.16708 0.05968
# Poissons Ratio (y) = 0.38548 0.25726
# Poissons Ratio (z) = 0.15793 0.29507
#
# Static dielectric constant tensor:
#      x y z
#    x 1.955740 0.000000 0.175590 
#    y 0.000000 1.317740 0.000000 
#    z 0.175590 0.000000 1.518180 
# 
# From -- ./inp_files/260366.got.cif
#   From: 2010.05.17/outbox.cif.g08.bks.cpg/sg15_131_cif.got.tgz:260366.got - 2010.06.03 18:47:42.
