data_PCOD9305510
_publ_section_title
;
Structure prediction by ZEFSAII (Michael W. Deem and Ramdas Pophale) SiO2 
 PCOD9305510
Probable space group: C 2/C
;
_chemical_formula_sum "Si O2"
_cell_formula_units_Z 64
_cell_length_a 15.007219
_cell_length_b 28.901030
_cell_length_c 19.306894
_cell_angle_alpha 90.000000
_cell_angle_beta 158.938165
_cell_angle_gamma 90.000000
_cell_volume 3009.360094
_symmetry_space_group_name_H-M "C 2/C"
_symmetry_group_IT_number 15
_symmetry_cell_setting 'monoclinic'
loop_
_space_group_symop_operation_xyz
x,y,z
-x,y,1/2-z
-x,-y,-z
x,-y,1/2+z
1/2+x,1/2+y,z
1/2-x,1/2+y,1/2-z
1/2-x,1/2-y,-z
1/2+x,1/2-y,1/2+z
loop_
_atom_site_type_symbol
_atom_site_label
_atom_site_fract_x
_atom_site_fract_y
_atom_site_fract_z
Si Si1 0.746648 0.184833 0.750069
Si Si2 0.449243 0.370728 0.821044
Si Si3 0.422099 0.109716 0.569440
Si Si4 0.151986 0.789966 0.656479
Si Si5 0.994539 0.881500 0.321116
Si Si6 0.907464 0.942733 0.471911
Si Si7 0.215546 0.034430 0.065781
Si Si8 0.376621 0.200108 0.086607
O O1 0.566854 0.157840 0.670682
O O2 0.637182 0.234467 0.650631
O O3 0.799420 0.149695 0.724102
O O4 0.991305 0.194521 0.973187
O O5 0.229575 0.391105 0.613477
O O6 0.413580 0.317644 0.820516
O O7 0.706607 0.383259 0.969490
O O8 0.472978 0.397168 0.909978
O O9 0.638118 0.071471 0.742449
O O10 0.432710 0.800481 0.837808
O O11 0.070088 0.923596 0.425164
O O12 0.190970 0.841693 0.445420
O O13 0.000000 0.905876 0.250000
O O14 0.127096 0.960207 0.580916
O O15 0.859445 0.980624 0.497591
O O16 0.500000 0.039726 0.250000
O O17 0.500000 0.192748 0.250000
O O18 0.250000 0.250000 0.000000
#
# Coordination Sequence:
#
# PCOD9305510 Si02
#       8
#     8   8   8   8   8   8   8   8
#     4  12  25  42  65  99 143 185 240 290 353 421
#     4  11  25  44  73 101 137 187 236 299 359 425
#     4  11  24  45  71 103 135 183 241 292 360 430
#     4  12  24  40  65  99 139 191 235 293 347 426
#     4  12  26  40  64  99 144 185 226 292 344 423
#     4  11  24  49  76 100 144 184 233 297 362 426
#     4  11  25  46  72 106 138 184 234 292 361 424
#     4  12  23  38  61  92 135 183 231 274 345 418
#
# _framework density 21.26698
#
# number of rings (size 3 to 8) (size 9 to 14) (size 15 to 20)
#    0.000    0.500    5.000    2.625    5.250    0.500 
#    4.500    1.250    0.000    0.000    0.000    0.000 
#    0.000    0.000    0.000    0.000    0.000    0.000 
#
# Total GULP energy -178315.045184 kJ/mol
# GULP energy per Si atom -5572.345162 kJ/mol
# Density = 2.121858 g / cm^3
# Si number density = 21.266980 Si / 1000 Ang^3
#
#
#
# Elastic Constant Matrix: (Units=GPa)
#
#
# Indices 1 2 3 4 5 6 
#
# 1 54.1984 12.3878 13.2601 -0.0035 10.4593 -0.0021
# 2 12.3878 104.6498 17.6143 0.0016 10.5032 -0.0020
# 3 13.2601 17.6143 54.6760 -0.0190 18.3977 -0.0002
# 4 -0.0035 0.0016 -0.0190 14.2643 0.0018 8.3026
# 5 10.4593 10.5032 18.3977 0.0018 32.7013 -0.0010
# 6 -0.0021 -0.0020 -0.0002 8.3026 -0.0010 30.7958
#
#
#
# Elastic Compliance Matrix: (Units=1/GPa)
#
#
# Indices 1 2 3 4 5 6 
#
# 1 0.020360 -0.001468 -0.003000 0.000001 -0.004353 0.000001
# 2 -0.001468 0.010291 -0.002473 -0.000006 -0.001444 0.000002
# 3 -0.003000 -0.002473 0.023713 0.000039 -0.011587 -0.000011
# 4 0.000001 -0.000006 0.000039 0.083153 -0.000026 -0.022418
# 5 -0.004353 -0.001444 -0.011587 -0.000026 0.038955 0.000008
# 6 0.000001 0.000002 -0.000011 -0.022418 0.000008 0.038516
#
#
# Mechanical properties :
#
#
# Convention : Reuss Voigt Hill
#
# Bulk Modulus (GPa) = 24.70331 33.33873 29.02102
# Shear Modulus (GPa) = 20.63009 26.90309 23.76659
#
# Velocity S-wave (km/s) = 3.11795 3.56057 3.34658
# Velocity P-wave (km/s) = 4.96015 5.71085 5.34869
#
# Compressibility (1/GPa) = 0.04048040
#
# Stress axis : x y z
#
# Youngs Moduli (GPa) = 49.11515 97.17500 42.17141
#
# Poissons Ratio (x) = 0.14268 0.12652
# Poissons Ratio (y) = 0.07212 0.10430
# Poissons Ratio (z) = 0.14735 0.24033
#
# Static dielectric constant tensor:
#      x y z
#    x 1.738170 0.000000 -0.002260 
#    y 0.000000 1.786480 -0.000010 
#    z -0.002260 -0.000010 1.823040 
# 
# From -- ./inp_files/245996.got.cif
#   From: 2010.05.17/outbox.cif.g08.bks.cpg/sg15_123_cif.got.tgz:245996.got - 2010.06.03 18:47:42.
