data_PCOD9305582
_publ_section_title
;
Structure prediction by ZEFSAII (Michael W. Deem and Ramdas Pophale) SiO2 
 PCOD9305582
Probable space group: C 2/C
;
_chemical_formula_sum "Si O2"
_cell_formula_units_Z 40
_cell_length_a 7.324774
_cell_length_b 17.614165
_cell_length_c 12.070402
_cell_angle_alpha 90.000000
_cell_angle_beta 91.170622
_cell_angle_gamma 90.000000
_cell_volume 1556.995556
_symmetry_space_group_name_H-M "C 2/C"
_symmetry_group_IT_number 15
_symmetry_cell_setting 'monoclinic'
loop_
_space_group_symop_operation_xyz
x,y,z
-x,y,1/2-z
-x,-y,-z
x,-y,1/2+z
1/2+x,1/2+y,z
1/2-x,1/2+y,1/2-z
1/2-x,1/2-y,-z
1/2+x,1/2-y,1/2+z
loop_
_atom_site_type_symbol
_atom_site_label
_atom_site_fract_x
_atom_site_fract_y
_atom_site_fract_z
Si Si1 0.655784 0.438692 0.599179
Si Si2 0.358024 0.312095 0.076425
Si Si3 0.264675 0.200447 0.671971
Si Si4 0.716533 0.626920 0.324395
Si Si5 0.119728 0.571758 0.964702
O O1 0.679468 0.390544 0.488135
O O2 0.449327 0.425407 0.636117
O O3 0.766420 0.400582 0.702669
O O4 0.706787 0.525588 0.583033
O O5 0.290793 0.313970 0.201975
O O6 0.578389 0.300605 0.094084
O O7 0.250000 0.250000 0.000000
O O8 0.340393 0.285710 0.671875
O O9 0.403127 0.138048 0.625322
O O10 0.863861 0.615852 0.420167
O O11 0.000000 0.500000 0.000000
#
# Coordination Sequence:
#
# PCOD9305582 Si02
#       5
#     8   8   8   8   8
#     4  11  26  47  74 106 148 197 240 306 377 440
#     4  11  24  45  79 115 148 194 255 305 379 450
#     4  11  26  48  79 111 152 198 250 317 369 450
#     4  11  25  50  76 105 150 195 250 306 376 448
#     4  12  29  47  73 109 154 196 250 309 375 443
#
# _framework density 25.690505000000002
#
# number of rings (size 3 to 8) (size 9 to 14) (size 15 to 20)
#    0.000    0.800    4.000    1.200    5.600    2.400 
#    0.000    0.000    0.000    0.000    0.000    0.000 
#    0.000    0.000    0.000    0.000    0.000    0.000 
#
# Total GULP energy -111938.413421 kJ/mol
# GULP energy per Si atom -5596.920671 kJ/mol
# Density = 2.563203 g / cm^3
# Si number density = 25.690505 Si / 1000 Ang^3
#
#
#
# Elastic Constant Matrix: (Units=GPa)
#
#
# Indices 1 2 3 4 5 6 
#
# 1 80.7322 23.4451 27.2324 0.0000 -2.0120 0.0000
# 2 23.4451 152.3027 47.3015 0.0000 8.3472 0.0000
# 3 27.2324 47.3015 183.8447 0.0000 16.4412 0.0000
# 4 0.0000 0.0000 0.0000 -112.9714 0.0000 -214.0501
# 5 -2.0120 8.3472 16.4412 0.0000 43.9490 0.0000
# 6 0.0000 0.0000 0.0000 -214.0501 0.0000 -237.2746
#
#
#
# Elastic Compliance Matrix: (Units=1/GPa)
#
#
# Indices 1 2 3 4 5 6 
#
# 1 0.013478 -0.001627 -0.001718 0.000000 0.001569 0.000000
# 2 -0.001627 0.007353 -0.001572 0.000000 -0.000883 0.000000
# 3 -0.001718 -0.001572 0.006289 0.000000 -0.002133 0.000000
# 4 0.000000 0.000000 0.000000 0.012480 0.000000 -0.011259
# 5 0.001569 -0.000883 -0.002133 0.000000 0.023791 0.000000
# 6 0.000000 0.000000 0.000000 -0.011259 0.000000 0.005942
#
#
# Mechanical properties :
#
#
# Convention : Reuss Voigt Hill
#
# Bulk Modulus (GPa) = 57.85149 68.09306 62.97227
# Shear Modulus (GPa) = 58.87274 -39.99935 9.43670
#
# Velocity S-wave (km/s) = 4.79227 -3.95013 1.91864
# Velocity P-wave (km/s) = 7.29306 2.39959 5.42894
#
# Compressibility (1/GPa) = 0.01728564
#
# Stress axis : x y z
#
# Youngs Moduli (GPa) = 74.19612 136.00048 159.00709
#
# Poissons Ratio (x) = 0.22129 0.27319
# Poissons Ratio (y) = 0.12073 0.24993
# Poissons Ratio (z) = 0.12748 0.21377
#
# Static dielectric constant tensor:
#      x y z
#    x 2.228710 0.000000 0.028050 
#    y 0.000000 1.931530 0.000000 
#    z 0.028050 0.000000 2.019010 
# 
# From -- ./inp_files/76704.got.cif
#   From: 2010.05.17/outbox.cif.g08.bks.cpg/sg15_39_cif.got.tgz:76704.got - 2010.06.03 18:47:42.
