data_PCOD9305086
_publ_section_title
;
Structure prediction by ZEFSAII (Michael W. Deem and Ramdas Pophale) SiO2 
 PCOD9305086
Probable space group: C 2/C
;
_chemical_formula_sum "Si O2"
_cell_formula_units_Z 44
_cell_length_a 7.545782
_cell_length_b 22.684406
_cell_length_c 12.687661
_cell_angle_alpha 90.000000
_cell_angle_beta 119.818323
_cell_angle_gamma 90.000000
_cell_volume 1884.239129
_symmetry_space_group_name_H-M "C 2/C"
_symmetry_group_IT_number 15
_symmetry_cell_setting 'monoclinic'
loop_
_space_group_symop_operation_xyz
x,y,z
-x,y,1/2-z
-x,-y,-z
x,-y,1/2+z
1/2+x,1/2+y,z
1/2-x,1/2+y,1/2-z
1/2-x,1/2-y,-z
1/2+x,1/2-y,1/2+z
loop_
_atom_site_type_symbol
_atom_site_label
_atom_site_fract_x
_atom_site_fract_y
_atom_site_fract_z
Si Si1 0.213777 0.088986 0.565845
Si Si2 0.198453 0.139644 0.992602
Si Si3 0.831473 0.602005 0.358039
Si Si4 0.673001 0.713005 0.189218
Si Si5 0.000000 0.311652 0.250000
Si Si6 0.000000 0.491639 0.750000
Si Si7 0.500000 0.702572 0.750000
O O1 0.242808 0.093591 0.448531
O O2 0.320104 0.143656 0.661024
O O3 0.342721 0.032563 0.639784
O O4 0.975025 0.092247 0.526194
O O5 0.145876 0.162831 0.861951
O O6 0.430521 0.119734 0.062428
O O7 0.176098 0.192163 0.070366
O O8 0.703415 0.653419 0.263426
O O9 0.858185 0.546863 0.286874
O O10 0.502186 0.762087 0.157732
O O11 0.866768 0.752855 0.278816
#
# Coordination Sequence:
#
# PCOD9305086 Si02
#       7
#     8   8   8   8   4   4   4
#     4  11  27  45  73 105 140 187 238 291 350 420
#     4  12  25  44  70 108 142 187 239 282 358 419
#     4  12  25  49  72 102 143 186 236 298 350 415
#     4  12  23  42  71 102 149 187 225 289 355 423
#     4  11  24  42  67 109 148 177 232 288 350 425
#     4  11  25  54  70 102 142 186 242 298 354 407
#     4  12  23  38  67 105 146 189 224 280 344 430
#
# _framework density 23.351600000000001
#
# number of rings (size 3 to 8) (size 9 to 14) (size 15 to 20)
#    0.000    0.364    5.455    3.273    5.091    2.182 
#    0.000    1.818    0.000    0.000    0.000    0.000 
#    0.000    0.000    0.000    0.000    0.000    0.000 
#
# Total GULP energy -122922.228157 kJ/mol
# GULP energy per Si atom -5587.374007 kJ/mol
# Density = 2.329845 g / cm^3
# Si number density = 23.351600 Si / 1000 Ang^3
#
#
#
# Elastic Constant Matrix: (Units=GPa)
#
#
# Indices 1 2 3 4 5 6 
#
# 1 101.5437 36.5439 23.4024 0.0000 0.9041 0.0000
# 2 36.5439 126.6455 46.1110 0.0000 -11.7367 0.0000
# 3 23.4024 46.1110 110.9751 0.0000 -14.3985 0.0000
# 4 0.0000 0.0000 0.0000 27.4984 0.0000 12.8711
# 5 0.9041 -11.7367 -14.3985 0.0000 41.5749 0.0000
# 6 0.0000 0.0000 0.0000 12.8711 0.0000 40.4895
#
#
#
# Elastic Compliance Matrix: (Units=1/GPa)
#
#
# Indices 1 2 3 4 5 6 
#
# 1 0.011213 -0.002880 -0.001367 0.000000 -0.001530 0.000000
# 2 -0.002880 0.010116 -0.003369 0.000000 0.001752 0.000000
# 3 -0.001367 -0.003369 0.011077 0.000000 0.002915 0.000000
# 4 0.000000 0.000000 0.000000 0.042723 0.000000 -0.013581
# 5 -0.001530 0.001752 0.002915 0.000000 0.025590 0.000000
# 6 0.000000 0.000000 0.000000 -0.013581 0.000000 0.029015
#
#
# Mechanical properties :
#
#
# Convention : Reuss Voigt Hill
#
# Bulk Modulus (GPa) = 58.22079 61.25320 59.73700
# Shear Modulus (GPa) = 33.18093 37.45305 35.31699
#
# Velocity S-wave (km/s) = 3.77361 4.00919 3.89318
# Velocity P-wave (km/s) = 6.63123 6.90791 6.77098
#
# Compressibility (1/GPa) = 0.01717600
#
# Stress axis : x y z
#
# Youngs Moduli (GPa) = 89.18287 98.85457 90.27618
#
# Poissons Ratio (x) = 0.28468 0.12336
# Poissons Ratio (y) = 0.25683 0.30411
# Poissons Ratio (z) = 0.12187 0.33301
#
# Static dielectric constant tensor:
#      x y z
#    x 2.132890 0.000000 -0.002310 
#    y 0.000000 1.873850 0.000000 
#    z -0.002310 0.000000 1.835520 
# 
# From -- ./inp_files/137592.got.cif
#   From: 2010.05.17/outbox.cif.g08.bks.cpg/sg15_69_cif.got.tgz:137592.got - 2010.06.03 18:47:42.
