data_PCOD9305622
_publ_section_title
;
Structure prediction by ZEFSAII (Michael W. Deem and Ramdas Pophale) SiO2 
 PCOD9305622
Probable space group: C 2/C
;
_chemical_formula_sum "Si O2"
_cell_formula_units_Z 48
_cell_length_a 29.847662
_cell_length_b 8.169358
_cell_length_c 13.944777
_cell_angle_alpha 90.000000
_cell_angle_beta 33.013863
_cell_angle_gamma 90.000000
_cell_volume 1852.594414
_symmetry_space_group_name_H-M "C 2/C"
_symmetry_group_IT_number 15
_symmetry_cell_setting 'monoclinic'
loop_
_space_group_symop_operation_xyz
x,y,z
-x,y,1/2-z
-x,-y,-z
x,-y,1/2+z
1/2+x,1/2+y,z
1/2-x,1/2+y,1/2-z
1/2-x,1/2-y,-z
1/2+x,1/2-y,1/2+z
loop_
_atom_site_type_symbol
_atom_site_label
_atom_site_fract_x
_atom_site_fract_y
_atom_site_fract_z
Si Si1 0.141176 0.580566 0.912332
Si Si2 0.581241 0.387984 0.748346
Si Si3 0.764535 0.930226 0.351897
Si Si4 0.487824 0.697574 0.923973
Si Si5 0.750000 0.750000 0.000000
Si Si6 0.134210 0.645927 0.248600
Si Si7 0.500000 0.146408 0.750000
O O1 0.226445 0.588141 0.814984
O O2 0.149215 0.513448 0.788308
O O3 0.085154 0.742002 0.011825
O O4 0.079694 0.455887 0.076347
O O5 0.552255 0.566840 0.767992
O O6 0.675526 0.338769 0.572307
O O7 0.527022 0.258228 0.789162
O O8 0.556214 0.374236 0.903985
O O9 0.841517 0.809241 0.234631
O O10 0.694823 0.863842 0.550164
O O11 0.768760 0.117741 0.377408
O O12 0.544028 0.844448 0.864858
#
# Coordination Sequence:
#
# PCOD9305622 Si02
#       7
#     8   8   8   8   4   8   4
#     4  12  25  43  72 105 146 190 249 307 373 449
#     4  11  25  44  72 101 144 190 244 301 376 433
#     4  11  26  45  72 106 143 192 244 302 379 447
#     4  11  24  46  70 101 139 195 241 304 363 453
#     4  12  22  46  70 100 142 186 232 306 364 442
#     4  11  24  47  69 101 144 191 242 303 368 448
#     4  12  24  42  70 108 134 188 244 306 368 454
#
# _framework density 25.909611999999999
#
# number of rings (size 3 to 8) (size 9 to 14) (size 15 to 20)
#    0.000    0.667    5.000    2.500    0.000    4.667 
#    0.000    0.000    0.000    0.000    0.000    0.000 
#    0.000    0.000    0.000    0.000    0.000    0.000 
#
# Total GULP energy -134003.238105 kJ/mol
# GULP energy per Si atom -5583.468254 kJ/mol
# Density = 2.585064 g / cm^3
# Si number density = 25.909612 Si / 1000 Ang^3
#
#
#
# Elastic Constant Matrix: (Units=GPa)
#
#
# Indices 1 2 3 4 5 6 
#
# 1 100.3138 31.1657 11.7122 0.0000 -20.7542 0.0000
# 2 31.1657 100.3315 15.1674 -0.0001 -14.6970 0.0001
# 3 11.7122 15.1674 75.4629 0.0000 -15.1220 0.0000
# 4 0.0000 -0.0001 0.0000 33.9515 0.0000 16.2707
# 5 -20.7542 -14.6970 -15.1220 0.0000 33.3704 0.0000
# 6 0.0000 0.0001 0.0000 16.2707 0.0000 -37.3536
#
#
#
# Elastic Compliance Matrix: (Units=1/GPa)
#
#
# Indices 1 2 3 4 5 6 
#
# 1 0.012160 -0.002848 -0.000056 0.000000 0.006283 0.000000
# 2 -0.002848 0.011443 -0.001323 0.000000 0.002668 0.000000
# 3 -0.000056 -0.001323 0.014741 0.000000 0.006063 0.000000
# 4 0.000000 0.000000 0.000000 0.024367 0.000000 0.010614
# 5 0.006283 0.002668 0.006063 0.000000 0.037797 0.000000
# 6 0.000000 0.000000 0.000000 0.010614 0.000000 -0.022148
#
#
# Mechanical properties :
#
#
# Convention : Reuss Voigt Hill
#
# Bulk Modulus (GPa) = 33.45683 43.57766 38.51724
# Shear Modulus (GPa) = 51.66486 20.53118 36.09802
#
# Velocity S-wave (km/s) = 4.47031 2.81804 3.73665
# Velocity P-wave (km/s) = 6.29173 5.23871 5.78921
#
# Compressibility (1/GPa) = 0.02988927
#
# Stress axis : x y z
#
# Youngs Moduli (GPa) = 82.23623 87.39211 67.83793
#
# Poissons Ratio (x) = 0.24893 0.00378
# Poissons Ratio (y) = 0.23425 0.08975
# Poissons Ratio (z) = 0.00458 0.11562
#
# Static dielectric constant tensor:
#      x y z
#    x 2.000310 0.000000 0.022690 
#    y 0.000000 2.168580 0.000000 
#    z 0.022690 0.000000 2.030180 
# 
# From -- ./inp_files/224570.got.cif
#   From: 2010.05.17/outbox.cif.g08.bks.cpg/sg15_113_cif.got.tgz:224570.got - 2010.06.03 18:47:42.
