data_PCOD9305225
_publ_section_title
;
Structure prediction by ZEFSAII (Michael W. Deem and Ramdas Pophale) SiO2 
 PCOD9305225
Probable space group: C 2/C
;
_chemical_formula_sum "Si O2"
_cell_formula_units_Z 48
_cell_length_a 12.630108
_cell_length_b 14.693549
_cell_length_c 11.867936
_cell_angle_alpha 90.000000
_cell_angle_beta 111.568951
_cell_angle_gamma 90.000000
_cell_volume 2048.238999
_symmetry_space_group_name_H-M "C 2/C"
_symmetry_group_IT_number 15
_symmetry_cell_setting 'monoclinic'
loop_
_space_group_symop_operation_xyz
x,y,z
-x,y,1/2-z
-x,-y,-z
x,-y,1/2+z
1/2+x,1/2+y,z
1/2-x,1/2+y,1/2-z
1/2-x,1/2-y,-z
1/2+x,1/2-y,1/2+z
loop_
_atom_site_type_symbol
_atom_site_label
_atom_site_fract_x
_atom_site_fract_y
_atom_site_fract_z
Si Si1 0.278314 0.599137 0.992254
Si Si2 0.720810 0.775623 0.659836
Si Si3 0.526053 0.762053 0.891166
Si Si4 0.406099 0.563616 0.620809
Si Si5 0.982580 0.539031 0.619603
Si Si6 0.684200 0.159051 0.622652
O O1 0.285104 0.677492 0.902617
O O2 0.149954 0.563641 0.932908
O O3 0.291318 0.652232 0.116353
O O4 0.367420 0.517418 0.024540
O O5 0.589214 0.803485 0.603722
O O6 0.770379 0.750793 0.800370
O O7 0.500000 0.765032 0.750000
O O8 0.549142 0.655151 0.922767
O O9 0.630599 0.817343 0.981013
O O10 0.500000 0.536653 0.750000
O O11 0.291457 0.593656 0.644295
O O12 0.081118 0.617264 0.656467
O O13 0.000000 0.490847 0.750000
O O14 0.000000 0.500000 0.500000
#
# Coordination Sequence:
#
# PCOD9305225 Si02
#       6
#     8   8   8   8   8   8
#     4  11  25  46  70 103 141 190 243 298 371 446
#     4  11  24  45  70 101 142 188 244 296 371 448
#     4  11  24  43  72 105 142 189 244 301 369 446
#     4  11  24  45  69 103 145 182 243 308 372 432
#     4  12  25  46  74 105 145 192 244 304 366 437
#     4  12  23  45  71 101 146 189 235 305 367 439
#
# _framework density 23.434766
#
# number of rings (size 3 to 8) (size 9 to 14) (size 15 to 20)
#    0.000    0.667    8.333    0.500    0.000    2.667 
#    6.000    0.000    0.000    0.000    0.000    0.000 
#    0.000    0.000    0.000    0.000    0.000    0.000 
#
# Total GULP energy -134053.647191 kJ/mol
# GULP energy per Si atom -5585.568633 kJ/mol
# Density = 2.338143 g / cm^3
# Si number density = 23.434766 Si / 1000 Ang^3
#
#
#
# Elastic Constant Matrix: (Units=GPa)
#
#
# Indices 1 2 3 4 5 6 
#
# 1 65.0608 7.0689 28.1561 0.0000 25.6446 0.0000
# 2 7.0689 68.4529 35.1112 0.0000 7.4043 0.0000
# 3 28.1561 35.1112 144.2252 0.0000 16.9030 0.0000
# 4 0.0000 0.0000 0.0000 19.6460 0.0000 -3.3481
# 5 25.6446 7.4043 16.9030 0.0000 40.0462 0.0000
# 6 0.0000 0.0000 0.0000 -3.3481 0.0000 39.0068
#
#
#
# Elastic Compliance Matrix: (Units=1/GPa)
#
#
# Indices 1 2 3 4 5 6 
#
# 1 0.021553 0.000621 -0.002870 0.000000 -0.012705 0.000000
# 2 0.000621 0.016790 -0.003996 0.000000 -0.001815 0.000000
# 3 -0.002870 -0.003996 0.008590 0.000000 -0.001049 0.000000
# 4 0.000000 0.000000 0.000000 0.051657 0.000000 0.004434
# 5 -0.012705 -0.001815 -0.001049 0.000000 0.033886 0.000000
# 6 0.000000 0.000000 0.000000 0.004434 0.000000 0.026017
#
#
# Mechanical properties :
#
#
# Convention : Reuss Voigt Hill
#
# Bulk Modulus (GPa) = 29.03387 46.49017 37.76202
# Shear Modulus (GPa) = 27.40279 33.56666 30.48472
#
# Velocity S-wave (km/s) = 3.42324 3.78874 3.61062
# Velocity P-wave (km/s) = 5.29537 6.24664 5.79057
#
# Compressibility (1/GPa) = 0.03444253
#
# Stress axis : x y z
#
# Youngs Moduli (GPa) = 46.39799 59.55753 116.42016
#
# Poissons Ratio (x) = -0.03696 0.33408
# Poissons Ratio (y) = -0.02879 0.46521
# Poissons Ratio (z) = 0.13314 0.23799
#
# Static dielectric constant tensor:
#      x y z
#    x 2.006580 0.000000 -0.000730 
#    y 0.000000 1.915050 0.000000 
#    z -0.000730 0.000000 1.886210 
# 
# From -- ./inp_files/97195.got.cif
#   From: 2010.05.17/outbox.cif.g08.bks.cpg/sg15_49_cif.got.tgz:97195.got - 2010.06.03 18:47:42.
