data_PCOD9305922
_publ_section_title
;
Structure prediction by ZEFSAII (Michael W. Deem and Ramdas Pophale) SiO2 
 PCOD9305922
Probable space group: C 2/C
;
_chemical_formula_sum "Si O2"
_cell_formula_units_Z 40
_cell_length_a 5.221800
_cell_length_b 17.248274
_cell_length_c 19.212018
_cell_angle_alpha 90.000000
_cell_angle_beta 96.691221
_cell_angle_gamma 90.000000
_cell_volume 1718.583152
_symmetry_space_group_name_H-M "C 2/C"
_symmetry_group_IT_number 15
_symmetry_cell_setting 'monoclinic'
loop_
_space_group_symop_operation_xyz
x,y,z
-x,y,1/2-z
-x,-y,-z
x,-y,1/2+z
1/2+x,1/2+y,z
1/2-x,1/2+y,1/2-z
1/2-x,1/2-y,-z
1/2+x,1/2-y,1/2+z
loop_
_atom_site_type_symbol
_atom_site_label
_atom_site_fract_x
_atom_site_fract_y
_atom_site_fract_z
Si Si1 0.241349 0.205360 0.926651
Si Si2 0.778060 0.940986 0.689638
Si Si3 0.229232 0.980208 0.455065
Si Si4 0.000000 0.682167 0.250000
Si Si5 0.801965 0.717353 0.664430
Si Si6 0.500000 0.077597 0.750000
O O1 0.246694 0.111496 0.936096
O O2 0.469651 0.235904 0.882687
O O3 0.967912 0.223492 0.883319
O O4 0.250000 0.250000 0.000000
O O5 0.538474 0.880974 0.689011
O O6 0.000000 0.911431 0.750000
O O7 0.827487 0.962763 0.612173
O O8 0.699707 0.022496 0.719450
O O9 0.500000 0.000000 0.500000
O O10 0.000000 0.000000 0.500000
O O11 0.232762 0.738912 0.235282
O O12 0.859520 0.630413 0.689774
#
# Coordination Sequence:
#
# PCOD9305922 Si02
#       6
#     8   8   8   4   8   4
#     4  12  28  48  77 107 156 205 255 309 391 473
#     4  11  27  49  78 112 152 205 262 321 394 464
#     4  12  29  50  77 110 156 203 256 318 388 462
#     4  11  30  42  78 111 156 194 260 333 388 452
#     4  12  26  48  75 115 147 197 257 322 388 450
#     4  11  24  48  78 105 148 192 264 319 388 458
#
# _framework density 23.274986999999999
#
# number of rings (size 3 to 8) (size 9 to 14) (size 15 to 20)
#    0.000    0.400    2.000    4.200   16.800    0.000 
#    0.000    0.000    0.000    0.000    0.000    0.000 
#    0.000    0.000    0.000    0.000    0.000    0.000 
#
# Total GULP energy -111652.372055 kJ/mol
# GULP energy per Si atom -5582.618603 kJ/mol
# Density = 2.322201 g / cm^3
# Si number density = 23.274987 Si / 1000 Ang^3
#
#
#
# Elastic Constant Matrix: (Units=GPa)
#
#
# Indices 1 2 3 4 5 6 
#
# 1 204.2014 36.1773 96.8564 0.0000 -21.3427 0.0000
# 2 36.1773 109.8759 33.3510 0.0000 -13.5850 0.0000
# 3 96.8564 33.3510 157.3987 0.0000 -30.0600 0.0000
# 4 0.0000 0.0000 0.0000 31.4471 0.0000 -5.9696
# 5 -21.3427 -13.5850 -30.0600 0.0000 60.2957 0.0000
# 6 0.0000 0.0000 0.0000 -5.9696 0.0000 30.0065
#
#
#
# Elastic Compliance Matrix: (Units=1/GPa)
#
#
# Indices 1 2 3 4 5 6 
#
# 1 0.007034 -0.001055 -0.004062 0.000000 0.000227 0.000000
# 2 -0.001055 0.009976 -0.001223 0.000000 0.001264 0.000000
# 3 -0.004062 -0.001223 0.009709 0.000000 0.003127 0.000000
# 4 0.000000 0.000000 0.000000 0.033047 0.000000 0.006575
# 5 0.000227 0.001264 0.003127 0.000000 0.018509 0.000000
# 6 0.000000 0.000000 0.000000 0.006575 0.000000 0.034634
#
#
# Mechanical properties :
#
#
# Convention : Reuss Voigt Hill
#
# Bulk Modulus (GPa) = 71.22602 89.36061 80.29331
# Shear Modulus (GPa) = 38.38187 44.68931 41.53559
#
# Velocity S-wave (km/s) = 4.06527 4.38660 4.22899
# Velocity P-wave (km/s) = 7.25972 8.00831 7.64319
#
# Compressibility (1/GPa) = 0.01403981
#
# Stress axis : x y z
#
# Youngs Moduli (GPa) = 142.16004 100.23895 102.99702
#
# Poissons Ratio (x) = 0.10577 0.41834
# Poissons Ratio (y) = 0.15000 0.12597
# Poissons Ratio (z) = 0.57740 0.12260
#
# Static dielectric constant tensor:
#      x y z
#    x 1.609570 0.000000 -0.336990 
#    y 0.000000 1.918380 0.000000 
#    z -0.336990 0.000000 1.506840 
# 
# From -- ./inp_files/184362.got.cif
#   From: 2010.05.17/outbox.cif.g08.bks.cpg/sg15_93_cif.got.tgz:184362.got - 2010.06.03 18:47:42.
