data_PCOD9305915
_publ_section_title
;
Structure prediction by ZEFSAII (Michael W. Deem and Ramdas Pophale) SiO2 
 PCOD9305915
Probable space group: C 2/C
;
_chemical_formula_sum "Si O2"
_cell_formula_units_Z 32
_cell_length_a 28.755322
_cell_length_b 5.014136
_cell_length_c 9.273342
_cell_angle_alpha 90.000000
_cell_angle_beta 115.665822
_cell_angle_gamma 90.000000
_cell_volume 1205.138942
_symmetry_space_group_name_H-M "C 2/C"
_symmetry_group_IT_number 15
_symmetry_cell_setting 'monoclinic'
loop_
_space_group_symop_operation_xyz
x,y,z
-x,y,1/2-z
-x,-y,-z
x,-y,1/2+z
1/2+x,1/2+y,z
1/2-x,1/2+y,1/2-z
1/2-x,1/2-y,-z
1/2+x,1/2-y,1/2+z
loop_
_atom_site_type_symbol
_atom_site_label
_atom_site_fract_x
_atom_site_fract_y
_atom_site_fract_z
Si Si1 0.589599 0.331133 0.430467
Si Si2 0.687105 0.337381 0.075143
Si Si3 0.290718 0.943892 0.630577
Si Si4 0.445549 0.157082 0.436582
O O1 0.649355 0.419548 0.498547
O O2 0.678551 0.869815 0.435426
O O3 0.559673 0.583524 0.464736
O O4 0.568292 0.253400 0.244025
O O5 0.675579 0.224611 0.216253
O O6 0.749311 0.372089 0.159929
O O7 0.586885 0.920662 0.032108
O O8 0.250000 0.750000 0.500000
O O9 0.500000 0.000000 0.500000
#
# Coordination Sequence:
#
# PCOD9305915 Si02
#       4
#     8   8   8   8
#     4  12  30  54  89 124 171 216 293 348 420 523
#     4  11  27  46  78 118 161 228 276 343 408 489
#     4  11  24  48  75 110 172 220 275 331 410 489
#     4  12  29  57  88 125 166 224 275 362 440 511
#
# _framework density 26.552955000000001
#
# number of rings (size 3 to 8) (size 9 to 14) (size 15 to 20)
#    0.000    0.500    2.500    3.000    7.000    4.000 
#    0.000    0.000    0.000    0.000    0.000    0.000 
#    0.000    0.000    0.000    0.000    0.000    0.000 
#
# Total GULP energy -89762.447563 kJ/mol
# GULP energy per Si atom -5610.152973 kJ/mol
# Density = 2.649252 g / cm^3
# Si number density = 26.552955 Si / 1000 Ang^3
#
#
#
# Elastic Constant Matrix: (Units=GPa)
#
#
# Indices 1 2 3 4 5 6 
#
# 1 129.2453 65.7813 62.8952 0.0000 -2.3419 0.0000
# 2 65.7813 205.0526 93.1905 0.0000 -21.1151 0.0000
# 3 62.8952 93.1905 176.5497 0.0000 -11.2346 0.0000
# 4 0.0000 0.0000 0.0000 68.4206 0.0000 -6.9654
# 5 -2.3419 -21.1151 -11.2346 0.0000 38.3141 0.0000
# 6 0.0000 0.0000 0.0000 -6.9654 0.0000 83.4411
#
#
#
# Elastic Compliance Matrix: (Units=1/GPa)
#
#
# Indices 1 2 3 4 5 6 
#
# 1 0.010062 -0.002235 -0.002491 0.000000 -0.001347 0.000000
# 2 -0.002235 0.007175 -0.002800 0.000000 0.002996 0.000000
# 3 -0.002491 -0.002800 0.008072 0.000000 0.000671 0.000000
# 4 0.000000 0.000000 0.000000 0.014741 0.000000 0.001231
# 5 -0.001347 0.002996 0.000671 0.000000 0.027866 0.000000
# 6 0.000000 0.000000 0.000000 0.001231 0.000000 0.012087
#
#
# Mechanical properties :
#
#
# Convention : Reuss Voigt Hill
#
# Bulk Modulus (GPa) = 97.48745 106.06461 101.77603
# Shear Modulus (GPa) = 50.77442 57.30057 54.03749
#
# Velocity S-wave (km/s) = 4.37761 4.65044 4.51608
# Velocity P-wave (km/s) = 7.89591 8.29860 8.09975
#
# Compressibility (1/GPa) = 0.01025773
#
# Stress axis : x y z
#
# Youngs Moduli (GPa) = 99.38076 139.37304 123.87887
#
# Poissons Ratio (x) = 0.31146 0.30856
# Poissons Ratio (y) = 0.22209 0.34692
# Poissons Ratio (z) = 0.24754 0.39031
#
# Static dielectric constant tensor:
#      x y z
#    x 2.303390 0.000000 0.011000 
#    y 0.000000 2.156950 0.000000 
#    z 0.011000 0.000000 1.999800 
# 
# From -- ./inp_files/115486.got.cif
#   From: 2010.05.17/outbox.cif.g08.bks.cpg/sg15_58_cif.got.tgz:115486.got - 2010.06.03 18:47:42.
