data_PCOD9305612
_publ_section_title
;
Structure prediction by ZEFSAII (Michael W. Deem and Ramdas Pophale) SiO2 
 PCOD9305612
Probable space group: C 2/C
;
_chemical_formula_sum "Si O2"
_cell_formula_units_Z 36
_cell_length_a 12.274782
_cell_length_b 19.874001
_cell_length_c 15.656357
_cell_angle_alpha 90.000000
_cell_angle_beta 154.437140
_cell_angle_gamma 90.000000
_cell_volume 1648.054974
_symmetry_space_group_name_H-M "C 2/C"
_symmetry_group_IT_number 15
_symmetry_cell_setting 'monoclinic'
loop_
_space_group_symop_operation_xyz
x,y,z
-x,y,1/2-z
-x,-y,-z
x,-y,1/2+z
1/2+x,1/2+y,z
1/2-x,1/2+y,1/2-z
1/2-x,1/2-y,-z
1/2+x,1/2-y,1/2+z
loop_
_atom_site_type_symbol
_atom_site_label
_atom_site_fract_x
_atom_site_fract_y
_atom_site_fract_z
Si Si1 0.758372 0.802948 0.134833
Si Si2 0.444235 0.669501 0.946325
Si Si3 0.000000 0.639317 0.750000
Si Si4 0.620166 0.913221 0.671078
Si Si5 0.290648 0.042011 0.458729
O O1 0.607752 0.737355 0.058164
O O2 0.000000 0.783961 0.250000
O O3 0.849113 0.842077 0.283243
O O4 0.573405 0.851805 0.952664
O O5 0.618519 0.608218 0.100825
O O6 0.207080 0.678914 0.841388
O O7 0.846024 0.593717 0.573772
O O8 0.486140 0.980815 0.607755
O O9 0.662197 0.923163 0.599530
O O10 0.000000 0.018277 0.250000
#
# Coordination Sequence:
#
# PCOD9305612 Si02
#       5
#     8   8   4   8   8
#     4  12  26  47  70 105 144 186 234 291 352 416
#     4  12  26  45  73 106 139 186 236 291 350 416
#     4  12  26  46  74 106 142 184 242 286 348 418
#     4  11  25  44  72 103 140 184 237 283 355 418
#     4  11  24  46  69 103 144 184 228 292 349 418
#
# _framework density 21.843931999999999
#
# number of rings (size 3 to 8) (size 9 to 14) (size 15 to 20)
#    0.000    0.444    6.667    1.333    0.000    5.333 
#    2.000    0.000    0.000    0.000    0.000    0.000 
#    0.000    0.000    0.000    0.000    0.000    0.000 
#
# Total GULP energy -100778.379572 kJ/mol
# GULP energy per Si atom -5598.798865 kJ/mol
# Density = 2.179421 g / cm^3
# Si number density = 21.843932 Si / 1000 Ang^3
#
#
#
# Elastic Constant Matrix: (Units=GPa)
#
#
# Indices 1 2 3 4 5 6 
#
# 1 141.1589 26.7917 37.5113 -0.0004 33.7521 -0.0014
# 2 26.7917 39.2306 8.9471 0.0014 13.5630 -0.0036
# 3 37.5113 8.9471 91.9724 -0.0008 19.6630 -0.0046
# 4 -0.0004 0.0014 -0.0008 -20.2722 -0.0010 26.4264
# 5 33.7521 13.5630 19.6630 -0.0010 39.6793 -0.0008
# 6 -0.0014 -0.0036 -0.0046 26.4264 -0.0008 23.4613
#
#
#
# Elastic Compliance Matrix: (Units=1/GPa)
#
#
# Indices 1 2 3 4 5 6 
#
# 1 0.009906 -0.004215 -0.002390 0.000000 -0.005802 0.000000
# 2 -0.004215 0.030750 0.000233 0.000003 -0.007041 0.000001
# 3 -0.002390 0.000233 0.012759 0.000001 -0.004369 0.000001
# 4 0.000000 0.000003 0.000001 -0.019985 -0.000001 0.022510
# 5 -0.005802 -0.007041 -0.004369 -0.000001 0.034709 0.000000
# 6 0.000000 0.000001 0.000001 0.022510 0.000000 0.017268
#
#
# Mechanical properties :
#
#
# Convention : Reuss Voigt Hill
#
# Bulk Modulus (GPa) = 24.58697 46.54024 35.56360
# Shear Modulus (GPa) = 44.75933 21.84779 33.30356
#
# Velocity S-wave (km/s) = 4.53156 3.16599 3.90887
# Velocity P-wave (km/s) = 6.21773 5.89209 6.05710
#
# Compressibility (1/GPa) = 0.04067195
#
# Stress axis : x y z
#
# Youngs Moduli (GPa) = 100.94406 32.52062 78.37549
#
# Poissons Ratio (x) = 0.13706 0.18732
# Poissons Ratio (y) = 0.42543 -0.01826
# Poissons Ratio (z) = 0.24126 -0.00757
#
# Static dielectric constant tensor:
#      x y z
#    x 1.772350 0.000000 0.008580 
#    y 0.000000 1.771180 0.000000 
#    z 0.008580 0.000000 1.810090 
# 
# From -- ./inp_files/99637.got.cif
#   From: 2010.05.17/outbox.cif.g08.bks.cpg/sg15_50_cif.got.tgz:99637.got - 2010.06.03 18:47:42.
