data_PCOD9305321
_publ_section_title
;
Structure prediction by ZEFSAII (Michael W. Deem and Ramdas Pophale) SiO2 
 PCOD9305321
Probable space group: C 2/C
;
_chemical_formula_sum "Si O2"
_cell_formula_units_Z 40
_cell_length_a 25.027542
_cell_length_b 6.465750
_cell_length_c 10.874938
_cell_angle_alpha 90.000000
_cell_angle_beta 96.584707
_cell_angle_gamma 90.000000
_cell_volume 1748.193667
_symmetry_space_group_name_H-M "C 2/C"
_symmetry_group_IT_number 15
_symmetry_cell_setting 'monoclinic'
loop_
_space_group_symop_operation_xyz
x,y,z
-x,y,1/2-z
-x,-y,-z
x,-y,1/2+z
1/2+x,1/2+y,z
1/2-x,1/2+y,1/2-z
1/2-x,1/2-y,-z
1/2+x,1/2-y,1/2+z
loop_
_atom_site_type_symbol
_atom_site_label
_atom_site_fract_x
_atom_site_fract_y
_atom_site_fract_z
Si Si1 0.609360 0.349014 0.263106
Si Si2 0.941822 0.088617 0.016564
Si Si3 0.701690 0.640311 0.325272
Si Si4 0.290373 0.877312 0.425199
Si Si5 0.384305 0.956251 0.094176
O O1 0.578273 0.458173 0.369372
O O2 0.590282 0.417945 0.122409
O O3 0.670613 0.425056 0.293514
O O4 0.604122 0.104277 0.287184
O O5 0.934894 0.328870 0.056768
O O6 0.000000 0.000000 0.000000
O O7 0.708109 0.758438 0.200978
O O8 0.759508 0.592936 0.396337
O O9 0.659999 0.780840 0.388611
O O10 0.250000 0.750000 0.500000
O O11 0.350710 0.902170 0.490776
#
# Coordination Sequence:
#
# PCOD9305321 Si02
#       5
#     8   8   8   8   8
#     4  11  24  47  73 106 144 189 241 310 376 443
#     4  11  26  47  76 105 143 187 250 312 378 443
#     4  11  25  39  63 100 143 186 239 292 352 441
#     4  12  23  40  66 101 147 195 239 288 362 440
#     4  11  24  44  69 102 143 191 240 302 367 441
#
# _framework density 22.880759999999999
#
# number of rings (size 3 to 8) (size 9 to 14) (size 15 to 20)
#    0.000    0.800    2.000    4.800    5.600    2.400 
#    0.000    4.000    0.000    0.000    0.000    0.000 
#    0.000    0.000    0.000    0.000    0.000    0.000 
#
# Total GULP energy -111725.828180 kJ/mol
# GULP energy per Si atom -5586.291409 kJ/mol
# Density = 2.282868 g / cm^3
# Si number density = 22.880760 Si / 1000 Ang^3
#
#
#
# Elastic Constant Matrix: (Units=GPa)
#
#
# Indices 1 2 3 4 5 6 
#
# 1 48.2069 15.4041 2.1465 0.0000 -5.5914 0.0000
# 2 15.4041 88.2249 20.2616 0.0000 -3.9663 0.0000
# 3 2.1465 20.2616 85.6952 0.0000 -0.7757 0.0000
# 4 0.0000 0.0000 0.0000 48.9942 0.0000 -12.2450
# 5 -5.5914 -3.9663 -0.7757 0.0000 34.0045 0.0000
# 6 0.0000 0.0000 0.0000 -12.2450 0.0000 39.0906
#
#
#
# Elastic Compliance Matrix: (Units=1/GPa)
#
#
# Indices 1 2 3 4 5 6 
#
# 1 0.022329 -0.003840 0.000378 0.000000 0.003232 0.000000
# 2 -0.003840 0.012707 -0.002901 0.000000 0.000784 0.000000
# 3 0.000378 -0.002901 0.012346 0.000000 0.000005 0.000000
# 4 0.000000 0.000000 0.000000 0.022144 0.000000 0.006937
# 5 0.003232 0.000784 0.000005 0.000000 0.030031 0.000000
# 6 0.000000 0.000000 0.000000 0.006937 0.000000 0.027754
#
#
# Mechanical properties :
#
#
# Convention : Reuss Voigt Hill
#
# Bulk Modulus (GPa) = 28.85590 33.08349 30.96969
# Shear Modulus (GPa) = 32.98382 36.70551 34.84466
#
# Velocity S-wave (km/s) = 3.80090 4.00960 3.90664
# Velocity P-wave (km/s) = 5.64812 5.99386 5.82356
#
# Compressibility (1/GPa) = 0.03465496
#
# Stress axis : x y z
#
# Youngs Moduli (GPa) = 44.78465 78.69879 80.99944
#
# Poissons Ratio (x) = 0.30222 -0.03061
# Poissons Ratio (y) = 0.17198 0.23498
# Poissons Ratio (z) = -0.01693 0.22831
#
# Static dielectric constant tensor:
#      x y z
#    x 1.825400 0.000000 0.011160 
#    y 0.000000 1.916760 0.000000 
#    z 0.011160 0.000000 1.871740 
# 
# From -- ./inp_files/120750.got.cif
#   From: 2010.05.17/outbox.cif.g08.bks.cpg/sg15_61_cif.got.tgz:120750.got - 2010.06.03 18:47:42.
