data_PCOD9305013
_publ_section_title
;
Structure prediction by ZEFSAII (Michael W. Deem and Ramdas Pophale) SiO2 
 PCOD9305013
Probable space group: C 2/C
;
_chemical_formula_sum "Si O2"
_cell_formula_units_Z 60
_cell_length_a 17.835277
_cell_length_b 20.635860
_cell_length_c 11.428747
_cell_angle_alpha 90.000000
_cell_angle_beta 141.616695
_cell_angle_gamma 90.000000
_cell_volume 2611.778118
_symmetry_space_group_name_H-M "C 2/C"
_symmetry_group_IT_number 15
_symmetry_cell_setting 'monoclinic'
loop_
_space_group_symop_operation_xyz
x,y,z
-x,y,1/2-z
-x,-y,-z
x,-y,1/2+z
1/2+x,1/2+y,z
1/2-x,1/2+y,1/2-z
1/2-x,1/2-y,-z
1/2+x,1/2-y,1/2+z
loop_
_atom_site_type_symbol
_atom_site_label
_atom_site_fract_x
_atom_site_fract_y
_atom_site_fract_z
Si Si1 0.568273 0.754234 0.958196
Si Si2 0.292525 0.635789 0.289352
Si Si3 0.500000 0.512717 0.250000
Si Si4 0.537135 0.810808 0.426060
Si Si5 0.249740 0.953178 0.552231
Si Si6 0.236186 0.372834 0.143258
Si Si7 0.020935 0.075472 0.487833
Si Si8 0.410915 0.054518 0.838536
O O1 0.500000 0.763423 0.750000
O O2 0.624337 0.682796 0.030597
O O3 0.499693 0.771286 0.998775
O O4 0.681927 0.802867 0.096230
O O5 0.248993 0.576365 0.316476
O O6 0.389478 0.606648 0.319170
O O7 0.180351 0.675293 0.103001
O O8 0.611106 0.467618 0.348853
O O9 0.568838 0.561489 0.418705
O O10 0.500000 0.785402 0.250000
O O11 0.475500 0.881694 0.367574
O O12 0.300131 0.898884 0.528180
O O13 0.330350 0.016990 0.645012
O O14 0.380037 0.380233 0.330319
O O15 0.174084 0.420270 0.160823
O O16 0.000000 0.000000 0.500000
O O17 0.500000 0.000000 0.000000
#
# Coordination Sequence:
#
# PCOD9305013 Si02
#       8
#     8   8   4   8   8   8   8   8
#     4  11  29  51  76 105 143 195 253 306 362 432
#     4  12  27  47  74 103 144 193 245 304 368 434
#     4  12  24  40  66 104 148 184 234 292 382 444
#     4  11  28  49  73 107 146 194 246 300 369 437
#     4  12  23  39  70 105 141 185 233 301 363 441
#     4  11  25  43  67 102 142 182 242 296 357 432
#     4  12  24  42  67 104 141 181 234 294 371 435
#     4  11  24  41  66 102 146 184 231 293 363 435
#
# _framework density 22.972854999999999
#
# number of rings (size 3 to 8) (size 9 to 14) (size 15 to 20)
#    0.000    0.533    5.333    0.800   10.267    1.600 
#    1.200    0.000    0.000    0.000    0.000    0.000 
#    0.000    0.000    0.000    0.000    0.000    0.000 
#
# Total GULP energy -167405.455233 kJ/mol
# GULP energy per Si atom -5580.181841 kJ/mol
# Density = 2.292057 g / cm^3
# Si number density = 22.972855 Si / 1000 Ang^3
#
#
#
# Elastic Constant Matrix: (Units=GPa)
#
#
# Indices 1 2 3 4 5 6 
#
# 1 79.9071 6.8864 27.9081 0.0000 5.2835 0.0000
# 2 6.8864 66.0197 13.5559 0.0000 8.8875 0.0000
# 3 27.9081 13.5559 107.5671 0.0000 12.2168 0.0000
# 4 0.0000 0.0000 0.0000 36.0458 0.0000 3.2468
# 5 5.2835 8.8875 12.2168 0.0000 37.7853 0.0000
# 6 0.0000 0.0000 0.0000 3.2468 0.0000 13.1895
#
#
#
# Elastic Compliance Matrix: (Units=1/GPa)
#
#
# Indices 1 2 3 4 5 6 
#
# 1 0.013811 -0.000647 -0.003425 0.000000 -0.000672 0.000000
# 2 -0.000647 0.015947 -0.001480 0.000000 -0.003182 0.000000
# 3 -0.003425 -0.001480 0.010670 0.000000 -0.002623 0.000000
# 4 0.000000 0.000000 0.000000 0.028372 0.000000 -0.006984
# 5 -0.000672 -0.003182 -0.002623 0.000000 0.028156 0.000000
# 6 0.000000 0.000000 0.000000 -0.006984 0.000000 0.077537
#
#
# Mechanical properties :
#
#
# Convention : Reuss Voigt Hill
#
# Bulk Modulus (GPa) = 34.10414 38.91050 36.50732
# Shear Modulus (GPa) = 25.59228 31.08035 28.33632
#
# Velocity S-wave (km/s) = 3.34132 3.68219 3.51589
# Velocity P-wave (km/s) = 5.45560 5.92051 5.69280
#
# Compressibility (1/GPa) = 0.02932195
#
# Stress axis : x y z
#
# Youngs Moduli (GPa) = 72.40583 62.70857 93.72355
#
# Poissons Ratio (x) = 0.04056 0.32105
# Poissons Ratio (y) = 0.04684 0.13875
# Poissons Ratio (z) = 0.24802 0.09284
#
# Static dielectric constant tensor:
#      x y z
#    x 1.943370 0.000000 -0.058800 
#    y 0.000000 1.820500 0.000000 
#    z -0.058800 0.000000 1.850580 
# 
# From -- ./inp_files/107639.got.cif
#   From: 2010.05.17/outbox.cif.g08.bks.cpg/sg15_54_cif.got.tgz:107639.got - 2010.06.03 18:47:42.
