data_PCOD9305285
_publ_section_title
;
Structure prediction by ZEFSAII (Michael W. Deem and Ramdas Pophale) SiO2 
 PCOD9305285
Probable space group: C 2/C
;
_chemical_formula_sum "Si O2"
_cell_formula_units_Z 44
_cell_length_a 8.261526
_cell_length_b 14.843208
_cell_length_c 16.754474
_cell_angle_alpha 90.000000
_cell_angle_beta 82.985387
_cell_angle_gamma 90.000000
_cell_volume 2039.181773
_symmetry_space_group_name_H-M "C 2/C"
_symmetry_group_IT_number 15
_symmetry_cell_setting 'monoclinic'
loop_
_space_group_symop_operation_xyz
x,y,z
-x,y,1/2-z
-x,-y,-z
x,-y,1/2+z
1/2+x,1/2+y,z
1/2-x,1/2+y,1/2-z
1/2-x,1/2-y,-z
1/2+x,1/2-y,1/2+z
loop_
_atom_site_type_symbol
_atom_site_label
_atom_site_fract_x
_atom_site_fract_y
_atom_site_fract_z
Si Si1 0.813333 0.476097 0.502059
Si Si2 0.127634 0.638290 0.642989
Si Si3 0.354305 0.333656 0.459580
Si Si4 0.000000 0.052597 0.250000
Si Si5 0.253659 0.608582 0.801527
Si Si6 0.907096 0.839999 0.910355
O O1 0.786505 0.435906 0.416226
O O2 0.721482 0.568289 0.520869
O O3 0.753073 0.400602 0.567574
O O4 0.000000 0.500000 0.500000
O O5 0.228372 0.652787 0.717277
O O6 0.120896 0.736013 0.605024
O O7 0.938926 0.604010 0.662244
O O8 0.250000 0.250000 0.500000
O O9 0.350588 0.334471 0.363036
O O10 0.508934 0.338520 0.507792
O O11 0.848599 0.984672 0.277469
O O12 0.007191 0.115108 0.329818
#
# Coordination Sequence:
#
# PCOD9305285 Si02
#       6
#     8   8   8   4   8   8
#     4  12  23  45  69 102 137 182 230 292 348 426
#     4  11  24  46  68  97 142 182 228 292 351 423
#     4  12  24  44  68 101 135 181 234 288 348 419
#     4  12  24  44  70 100 136 184 230 290 344 432
#     4  11  24  44  66  97 139 177 229 284 349 413
#     4  12  25  43  73 100 137 185 234 282 360 419
#
# _framework density 21.577282
#
# number of rings (size 3 to 8) (size 9 to 14) (size 15 to 20)
#    0.000    0.364    5.455    3.273    2.545    0.000 
#    0.000    0.000    0.000    0.000    0.000    0.000 
#    0.000    0.000    0.000    0.000    0.000    0.000 
#
# Total GULP energy -122720.256193 kJ/mol
# GULP energy per Si atom -5578.193463 kJ/mol
# Density = 2.152817 g / cm^3
# Si number density = 21.577282 Si / 1000 Ang^3
#
#
#
# Elastic Constant Matrix: (Units=GPa)
#
#
# Indices 1 2 3 4 5 6 
#
# 1 71.4778 30.9286 39.2409 0.0000 10.7599 0.0000
# 2 30.9286 92.4387 15.6494 0.0000 -0.2384 0.0000
# 3 39.2409 15.6494 149.1076 0.0000 33.2375 0.0000
# 4 0.0000 0.0000 0.0000 32.4381 0.0000 9.0258
# 5 10.7599 -0.2384 33.2375 0.0000 40.6986 0.0000
# 6 0.0000 0.0000 0.0000 9.0258 0.0000 22.4542
#
#
#
# Elastic Compliance Matrix: (Units=1/GPa)
#
#
# Indices 1 2 3 4 5 6 
#
# 1 0.018889 -0.005650 -0.003982 0.000000 -0.001775 0.000000
# 2 -0.005650 0.012755 -0.000246 0.000000 0.001770 0.000000
# 3 -0.003982 -0.000246 0.009226 0.000000 -0.006483 0.000000
# 4 0.000000 0.000000 0.000000 0.034710 0.000000 -0.013952
# 5 -0.001775 0.001770 -0.006483 0.000000 0.030345 0.000000
# 6 0.000000 0.000000 0.000000 -0.013952 0.000000 0.050143
#
#
# Mechanical properties :
#
#
# Convention : Reuss Voigt Hill
#
# Bulk Modulus (GPa) = 47.36772 53.85132 50.60952
# Shear Modulus (GPa) = 27.34309 34.26520 30.80414
#
# Velocity S-wave (km/s) = 3.56366 3.98932 3.78248
# Velocity P-wave (km/s) = 6.23964 6.79935 6.52550
#
# Compressibility (1/GPa) = 0.02111142
#
# Stress axis : x y z
#
# Youngs Moduli (GPa) = 52.94186 78.40252 108.39488
#
# Poissons Ratio (x) = 0.44299 0.43167
# Poissons Ratio (y) = 0.29913 0.02668
# Poissons Ratio (z) = 0.21083 0.01930
#
# Static dielectric constant tensor:
#      x y z
#    x 1.813820 0.000000 -0.004920 
#    y 0.000000 1.713990 0.000000 
#    z -0.004920 0.000000 1.875970 
# 
# From -- ./inp_files/188885.got.cif
#   From: 2010.05.17/outbox.cif.g08.bks.cpg/sg15_95_cif.got.tgz:188885.got - 2010.06.03 18:47:42.
