data_PCOD9305475
_publ_section_title
;
Structure prediction by ZEFSAII (Michael W. Deem and Ramdas Pophale) SiO2 
 PCOD9305475
Probable space group: C 2/C
;
_chemical_formula_sum "Si O2"
_cell_formula_units_Z 40
_cell_length_a 8.581879
_cell_length_b 22.883523
_cell_length_c 9.129269
_cell_angle_alpha 90.000000
_cell_angle_beta 94.590695
_cell_angle_gamma 90.000000
_cell_volume 1787.087319
_symmetry_space_group_name_H-M "C 2/C"
_symmetry_group_IT_number 15
_symmetry_cell_setting 'monoclinic'
loop_
_space_group_symop_operation_xyz
x,y,z
-x,y,1/2-z
-x,-y,-z
x,-y,1/2+z
1/2+x,1/2+y,z
1/2-x,1/2+y,1/2-z
1/2-x,1/2-y,-z
1/2+x,1/2-y,1/2+z
loop_
_atom_site_type_symbol
_atom_site_label
_atom_site_fract_x
_atom_site_fract_y
_atom_site_fract_z
Si Si1 0.676122 0.579079 0.761670
Si Si2 0.301692 0.861124 0.993449
Si Si3 0.681264 0.715960 0.234490
Si Si4 0.890186 0.474125 0.862335
Si Si5 0.836344 0.666921 0.956368
O O1 0.500000 0.557744 0.750000
O O2 0.706702 0.624973 0.633025
O O3 0.797435 0.525897 0.774714
O O4 0.716708 0.615982 0.907804
O O5 0.258483 0.804957 0.892793
O O6 0.279359 0.922497 0.907413
O O7 0.486432 0.855725 0.039170
O O8 0.500000 0.698985 0.250000
O O9 0.675409 0.781391 0.166067
O O10 0.784347 0.686545 0.113754
O O11 0.000000 0.445411 0.750000
O O12 0.000000 0.500000 0.000000
#
# Coordination Sequence:
#
# PCOD9305475 Si02
#       5
#     8   8   8   8   8
#     4  12  26  43  68 102 137 177 228 293 339 398
#     4  12  25  45  72  96 139 185 229 278 344 419
#     4  11  25  42  68 103 137 177 232 290 337 398
#     4  12  23  45  72  98 133 183 228 275 341 422
#     4  11  24  45  69  97 137 185 232 273 347 413
#
# _framework density 22.382788999999999
#
# number of rings (size 3 to 8) (size 9 to 14) (size 15 to 20)
#    0.000    0.400    4.000    4.800    0.000    8.000 
#    0.000    0.000    0.000    0.000    0.000    0.000 
#    0.000    0.000    0.000    0.000    0.000    0.000 
#
# Total GULP energy -111663.191760 kJ/mol
# GULP energy per Si atom -5583.159588 kJ/mol
# Density = 2.233184 g / cm^3
# Si number density = 22.382789 Si / 1000 Ang^3
#
#
#
# Elastic Constant Matrix: (Units=GPa)
#
#
# Indices 1 2 3 4 5 6 
#
# 1 91.6341 -0.6297 16.3075 0.0000 3.3686 0.0000
# 2 -0.6297 56.3794 30.9794 0.0000 6.5085 0.0000
# 3 16.3075 30.9794 81.4227 0.0000 -7.7190 0.0000
# 4 0.0000 0.0000 0.0000 31.3375 0.0000 0.9989
# 5 3.3686 6.5085 -7.7190 0.0000 38.1606 0.0000
# 6 0.0000 0.0000 0.0000 0.9989 0.0000 10.5411
#
#
#
# Elastic Compliance Matrix: (Units=1/GPa)
#
#
# Indices 1 2 3 4 5 6 
#
# 1 0.011604 0.002220 -0.003366 0.000000 -0.002084 0.000000
# 2 0.002220 0.024116 -0.010225 0.000000 -0.006377 0.000000
# 3 -0.003366 -0.010225 0.017373 0.000000 0.005555 0.000000
# 4 0.000000 0.000000 0.000000 0.032007 0.000000 -0.003033
# 5 -0.002084 -0.006377 0.005555 0.000000 0.028600 0.000000
# 6 0.000000 0.000000 0.000000 -0.003033 0.000000 0.095155
#
#
# Mechanical properties :
#
#
# Convention : Reuss Voigt Hill
#
# Bulk Modulus (GPa) = 32.94840 35.86119 34.40479
# Shear Modulus (GPa) = 20.68555 28.19309 24.43932
#
# Velocity S-wave (km/s) = 3.04332 3.55292 3.30795
# Velocity P-wave (km/s) = 5.20590 5.73476 5.47672
#
# Compressibility (1/GPa) = 0.03035049
#
# Stress axis : x y z
#
# Youngs Moduli (GPa) = 86.17797 41.46559 57.56141
#
# Poissons Ratio (x) = -0.09205 0.19376
# Poissons Ratio (y) = -0.19130 0.58856
# Poissons Ratio (z) = 0.29009 0.42398
#
# Static dielectric constant tensor:
#      x y z
#    x 1.781920 0.000000 0.001420 
#    y 0.000000 1.851130 0.000000 
#    z 0.001420 0.000000 1.898390 
# 
# From -- ./inp_files/23497.got.cif
#   From: 2010.05.17/outbox.cif.g08.bks.cpg/sg15_12_cif.got.tgz:23497.got - 2010.06.03 18:47:42.
