data_PCOD9305935
_publ_section_title
;
Structure prediction by ZEFSAII (Michael W. Deem and Ramdas Pophale) SiO2 
 PCOD9305935
Probable space group: C 2/C
;
_chemical_formula_sum "Si O2"
_cell_formula_units_Z 60
_cell_length_a 14.452795
_cell_length_b 13.936962
_cell_length_c 14.157084
_cell_angle_alpha 90.000000
_cell_angle_beta 57.476503
_cell_angle_gamma 90.000000
_cell_volume 2404.415080
_symmetry_space_group_name_H-M "C 2/C"
_symmetry_group_IT_number 15
_symmetry_cell_setting 'monoclinic'
loop_
_space_group_symop_operation_xyz
x,y,z
-x,y,1/2-z
-x,-y,-z
x,-y,1/2+z
1/2+x,1/2+y,z
1/2-x,1/2+y,1/2-z
1/2-x,1/2-y,-z
1/2+x,1/2-y,1/2+z
loop_
_atom_site_type_symbol
_atom_site_label
_atom_site_fract_x
_atom_site_fract_y
_atom_site_fract_z
Si Si1 0.000000 0.919505 0.250000
Si Si2 0.073837 0.444076 0.560628
Si Si3 0.104555 0.198293 0.028973
Si Si4 0.258230 0.745983 0.276415
Si Si5 0.444671 0.597726 0.991839
Si Si6 0.705564 0.442791 0.628283
Si Si7 0.472522 0.134108 0.615596
Si Si8 0.785876 0.320621 0.896377
O O1 0.979650 0.875309 0.365394
O O2 0.890571 0.983230 0.294209
O O3 0.183282 0.500833 0.461144
O O4 0.029993 0.380932 0.497061
O O5 0.110014 0.376709 0.624692
O O6 0.988708 0.525109 0.638350
O O7 0.184011 0.209841 0.897998
O O8 0.988814 0.170530 0.046022
O O9 0.153736 0.120880 0.072041
O O10 0.076755 0.301266 0.089259
O O11 0.277661 0.636342 0.299761
O O12 0.363765 0.813723 0.209209
O O13 0.202115 0.739129 0.205292
O O14 0.500000 0.500000 0.000000
O O15 0.313727 0.603691 0.063243
O O16 0.750000 0.250000 0.000000
#
# Coordination Sequence:
#
# PCOD9305935 Si02
#       8
#     4   8   8   8   8   8   8   8
#     4  12  24  38  76 104 138 192 234 304 368 428
#     4  11  24  49  72 104 151 191 235 316 361 430
#     4  12  25  48  70 107 144 196 245 308 365 442
#     4  12  26  45  76 104 140 203 241 297 382 441
#     4  12  24  44  69 107 146 184 244 310 358 435
#     4  12  25  47  72 108 146 186 250 305 365 445
#     4  11  25  49  73 103 152 189 247 307 363 444
#     4  12  24  48  71 104 147 194 243 302 365 440
#
# _framework density 24.954093
#
# number of rings (size 3 to 8) (size 9 to 14) (size 15 to 20)
#    0.000    0.267    6.667    2.000    3.733    0.000 
#    0.000    1.333    0.000    0.000    0.000    0.000 
#    0.000    0.000    0.000    0.000    0.000    0.000 
#
# Total GULP energy -168099.447547 kJ/mol
# GULP energy per Si atom -5603.314918 kJ/mol
# Density = 2.489730 g / cm^3
# Si number density = 24.954093 Si / 1000 Ang^3
#
#
#
# Elastic Constant Matrix: (Units=GPa)
#
#
# Indices 1 2 3 4 5 6 
#
# 1 85.5972 16.6969 21.4905 0.0000 17.0158 0.0000
# 2 16.6969 75.3014 13.7363 0.0000 -3.6207 0.0000
# 3 21.4905 13.7363 81.0519 0.0000 17.0412 0.0000
# 4 0.0000 0.0000 0.0000 26.9738 0.0000 -11.2171
# 5 17.0158 -3.6207 17.0412 0.0000 47.1297 0.0000
# 6 0.0000 0.0000 0.0000 -11.2171 0.0000 37.1165
#
#
#
# Elastic Compliance Matrix: (Units=1/GPa)
#
#
# Indices 1 2 3 4 5 6 
#
# 1 0.013658 -0.002831 -0.002228 0.000000 -0.004343 0.000000
# 2 -0.002831 0.014475 -0.002328 0.000000 0.002976 0.000000
# 3 -0.002228 -0.002328 0.014277 0.000000 -0.004537 0.000000
# 4 0.000000 0.000000 0.000000 0.042402 0.000000 0.012814
# 5 -0.004343 0.002976 -0.004537 0.000000 0.024655 0.000000
# 6 0.000000 0.000000 0.000000 0.012814 0.000000 0.030815
#
#
# Mechanical properties :
#
#
# Convention : Reuss Voigt Hill
#
# Bulk Modulus (GPa) = 36.18591 38.42199 37.30395
# Shear Modulus (GPa) = 30.43802 34.91247 32.67524
#
# Velocity S-wave (km/s) = 3.49630 3.74447 3.62251
# Velocity P-wave (km/s) = 5.55259 5.84168 5.69897
#
# Compressibility (1/GPa) = 0.02763506
#
# Stress axis : x y z
#
# Youngs Moduli (GPa) = 73.21969 69.08254 70.04237
#
# Poissons Ratio (x) = 0.19555 0.15609
# Poissons Ratio (y) = 0.20726 0.16309
# Poissons Ratio (z) = 0.16317 0.16085
#
# Static dielectric constant tensor:
#      x y z
#    x 1.988550 0.000000 -0.042770 
#    y 0.000000 2.016660 0.000000 
#    z -0.042770 0.000000 2.028950 
# 
# From -- ./inp_files/154234.got.cif
#   From: 2010.05.17/outbox.cif.g08.bks.cpg/sg15_78_cif.got.tgz:154234.got - 2010.06.03 18:47:42.
