data_PCOD9305398
_publ_section_title
;
Structure prediction by ZEFSAII (Michael W. Deem and Ramdas Pophale) SiO2 
 PCOD9305398
Probable space group: C 2/C
;
_chemical_formula_sum "Si O2"
_cell_formula_units_Z 40
_cell_length_a 33.247795
_cell_length_b 8.825259
_cell_length_c 13.119737
_cell_angle_alpha 90.000000
_cell_angle_beta 25.373476
_cell_angle_gamma 90.000000
_cell_volume 1649.618039
_symmetry_space_group_name_H-M "C 2/C"
_symmetry_group_IT_number 15
_symmetry_cell_setting 'monoclinic'
loop_
_space_group_symop_operation_xyz
x,y,z
-x,y,1/2-z
-x,-y,-z
x,-y,1/2+z
1/2+x,1/2+y,z
1/2-x,1/2+y,1/2-z
1/2-x,1/2-y,-z
1/2+x,1/2-y,1/2+z
loop_
_atom_site_type_symbol
_atom_site_label
_atom_site_fract_x
_atom_site_fract_y
_atom_site_fract_z
Si Si1 0.265100 0.575409 0.324196
Si Si2 0.587250 0.065707 0.865169
Si Si3 0.158868 0.388860 0.407811
Si Si4 0.048315 0.101827 0.041646
Si Si5 0.041831 0.188047 0.837657
O O1 0.185562 0.534877 0.587921
O O2 0.222975 0.512386 0.315071
O O3 0.360633 0.488159 0.129434
O O4 0.280489 0.755052 0.282245
O O5 0.596297 0.033089 0.963923
O O6 0.562810 0.243991 0.917162
O O7 0.500000 0.000000 0.000000
O O8 0.098431 0.294526 0.629946
O O9 0.076978 0.190465 0.873530
O O10 0.000000 0.180584 0.250000
O O11 0.971257 0.979052 0.177666
#
# Coordination Sequence:
#
# PCOD9305398 Si02
#       5
#     8   8   8   8   8
#     4  12  28  43  76 104 149 193 243 300 367 441
#     4  12  26  47  71 103 140 194 242 302 365 434
#     4  12  27  49  71 108 148 192 244 305 369 439
#     4  11  24  44  73 107 144 193 241 304 363 437
#     4  11  24  46  75  99 148 191 243 298 374 428
#
# _framework density 24.248035999999999
#
# number of rings (size 3 to 8) (size 9 to 14) (size 15 to 20)
#    0.000    0.400    6.000    1.200    5.600    2.400 
#    0.000    0.000    0.000    0.000    0.000    0.000 
#    0.000    0.000    0.000    0.000    0.000    0.000 
#
# Total GULP energy -111854.871725 kJ/mol
# GULP energy per Si atom -5592.743586 kJ/mol
# Density = 2.419285 g / cm^3
# Si number density = 24.248036 Si / 1000 Ang^3
#
#
#
# Elastic Constant Matrix: (Units=GPa)
#
#
# Indices 1 2 3 4 5 6 
#
# 1 201.0327 35.7911 42.8756 0.0000 18.6811 0.0000
# 2 35.7911 43.0767 11.5776 0.0000 -0.0017 0.0000
# 3 42.8756 11.5776 121.3436 0.0000 22.9616 0.0000
# 4 0.0000 0.0000 0.0000 35.4913 0.0000 4.7931
# 5 18.6811 -0.0017 22.9616 0.0000 31.3220 0.0000
# 6 0.0000 0.0000 0.0000 4.7931 0.0000 44.6148
#
#
#
# Elastic Compliance Matrix: (Units=1/GPa)
#
#
# Indices 1 2 3 4 5 6 
#
# 1 0.006395 -0.004982 -0.001234 0.000000 -0.002910 0.000000
# 2 -0.004982 0.027808 -0.001690 0.000000 0.004212 0.000000
# 3 -0.001234 -0.001690 0.010100 0.000000 -0.006668 0.000000
# 4 0.000000 0.000000 0.000000 0.028591 0.000000 -0.003072
# 5 -0.002910 0.004212 -0.006668 0.000000 0.038551 0.000000
# 6 0.000000 0.000000 0.000000 -0.003072 0.000000 0.022744
#
#
# Mechanical properties :
#
#
# Convention : Reuss Voigt Hill
#
# Bulk Modulus (GPa) = 35.09724 60.66017 47.87871
# Shear Modulus (GPa) = 31.34873 40.63288 35.99081
#
# Velocity S-wave (km/s) = 3.59950 4.09799 3.85681
# Velocity P-wave (km/s) = 5.63746 6.88929 6.29457
#
# Compressibility (1/GPa) = 0.02849227
#
# Stress axis : x y z
#
# Youngs Moduli (GPa) = 156.37829 35.96097 99.00966
#
# Poissons Ratio (x) = 0.17915 0.12213
# Poissons Ratio (y) = 0.77904 0.16731
# Poissons Ratio (z) = 0.19290 0.06077
#
# Static dielectric constant tensor:
#      x y z
#    x 1.971750 0.000000 0.061440 
#    y 0.000000 1.977940 0.000000 
#    z 0.061440 0.000000 1.926320 
# 
# From -- ./inp_files/126345.got.cif
#   From: 2010.05.17/outbox.cif.g08.bks.cpg/sg15_64_cif.got.tgz:126345.got - 2010.06.03 18:47:42.
