data_PCOD9305128
_publ_section_title
;
Structure prediction by ZEFSAII (Michael W. Deem and Ramdas Pophale) SiO2 
 PCOD9305128
Probable space group: C 2/C
;
_chemical_formula_sum "Si O2"
_cell_formula_units_Z 48
_cell_length_a 7.608448
_cell_length_b 13.027540
_cell_length_c 30.082850
_cell_angle_alpha 90.000000
_cell_angle_beta 134.129448
_cell_angle_gamma 90.000000
_cell_volume 2140.237072
_symmetry_space_group_name_H-M "C 2/C"
_symmetry_group_IT_number 15
_symmetry_cell_setting 'monoclinic'
loop_
_space_group_symop_operation_xyz
x,y,z
-x,y,1/2-z
-x,-y,-z
x,-y,1/2+z
1/2+x,1/2+y,z
1/2-x,1/2+y,1/2-z
1/2-x,1/2-y,-z
1/2+x,1/2-y,1/2+z
loop_
_atom_site_type_symbol
_atom_site_label
_atom_site_fract_x
_atom_site_fract_y
_atom_site_fract_z
Si Si1 0.340381 0.365665 0.593825
Si Si2 0.700747 0.575096 0.882426
Si Si3 0.214213 0.291844 0.189724
Si Si4 0.900773 0.736798 0.982311
Si Si5 0.895660 0.052618 0.437443
Si Si6 0.640457 0.068355 0.816849
O O1 0.245319 0.452821 0.610574
O O2 0.589251 0.315613 0.654698
O O3 0.382706 0.433386 0.557683
O O4 0.175912 0.270836 0.549108
O O5 0.776995 0.630833 0.850643
O O6 0.846262 0.633016 0.946812
O O7 0.412558 0.592616 0.844884
O O8 0.500000 0.277190 0.250000
O O9 0.039842 0.340732 0.197517
O O10 0.831553 0.831592 0.939303
O O11 0.750000 0.750000 0.000000
O O12 0.696899 0.995754 0.371862
O O13 0.000000 0.000000 0.500000
O O14 0.500000 0.018759 0.750000
#
# Coordination Sequence:
#
# PCOD9305128 Si02
#       6
#     8   8   8   8   8   8
#     4  11  25  45  72 104 150 186 247 309 373 449
#     4  11  25  46  69 110 140 194 247 306 372 451
#     4  12  25  48  76 100 145 200 248 305 384 445
#     4  12  24  43  70 106 147 191 244 307 372 445
#     4  11  24  42  71 103 141 189 236 301 372 432
#     4  11  25  48  71 105 151 188 251 316 369 459
#
# _framework density 22.427420999999999
#
# number of rings (size 3 to 8) (size 9 to 14) (size 15 to 20)
#    0.000    0.667    3.333    5.000    4.667    2.667 
#    0.000    0.833    0.000    0.000    0.000    0.000 
#    0.000    0.000    0.000    0.000    0.000    0.000 
#
# Total GULP energy -133939.959082 kJ/mol
# GULP energy per Si atom -5580.831628 kJ/mol
# Density = 2.237638 g / cm^3
# Si number density = 22.427421 Si / 1000 Ang^3
#
#
#
# Elastic Constant Matrix: (Units=GPa)
#
#
# Indices 1 2 3 4 5 6 
#
# 1 55.6166 10.4345 22.6375 0.0000 2.8597 0.0000
# 2 10.4345 103.8738 47.6908 0.0000 -7.0600 0.0000
# 3 22.6375 47.6908 139.3159 0.0000 1.3072 0.0000
# 4 0.0000 0.0000 0.0000 32.2750 0.0000 2.0517
# 5 2.8597 -7.0600 1.3072 0.0000 38.6634 0.0000
# 6 0.0000 0.0000 0.0000 2.0517 0.0000 36.5952
#
#
#
# Elastic Compliance Matrix: (Units=1/GPa)
#
#
# Indices 1 2 3 4 5 6 
#
# 1 0.019366 -0.000720 -0.002887 0.000000 -0.001466 0.000000
# 2 -0.000720 0.011642 -0.003890 0.000000 0.002311 0.000000
# 3 -0.002887 -0.003890 0.008986 0.000000 -0.000801 0.000000
# 4 0.000000 0.000000 0.000000 0.031095 0.000000 -0.001743
# 5 -0.001466 0.002311 -0.000801 0.000000 0.026422 0.000000
# 6 0.000000 0.000000 0.000000 -0.001743 0.000000 0.027424
#
#
# Mechanical properties :
#
#
# Convention : Reuss Voigt Hill
#
# Bulk Modulus (GPa) = 39.99797 51.14797 45.57297
# Shear Modulus (GPa) = 33.72432 36.04296 34.88364
#
# Velocity S-wave (km/s) = 3.88198 4.01321 3.94814
# Velocity P-wave (km/s) = 6.16166 6.65807 6.41467
#
# Compressibility (1/GPa) = 0.02500127
#
# Stress axis : x y z
#
# Youngs Moduli (GPa) = 51.63802 85.89224 111.28185
#
# Poissons Ratio (x) = 0.06182 0.32123
# Poissons Ratio (y) = 0.03716 0.43291
# Poissons Ratio (z) = 0.14906 0.33414
#
# Static dielectric constant tensor:
#      x y z
#    x 1.867340 0.000000 -0.033430 
#    y 0.000000 1.921170 0.000000 
#    z -0.033430 0.000000 1.954240 
# 
# From -- ./inp_files/308117.got.cif
#   From: 2010.05.17/outbox.cif.g08.bks.cpg/sg15_155_cif.got.tgz:308117.got - 2010.06.03 18:47:42.
