data_PCOD9305689
_publ_section_title
;
Structure prediction by ZEFSAII (Michael W. Deem and Ramdas Pophale) SiO2 
 PCOD9305689
Probable space group: C 2/C
;
_chemical_formula_sum "Si O2"
_cell_formula_units_Z 36
_cell_length_a 6.728608
_cell_length_b 27.413120
_cell_length_c 12.575704
_cell_angle_alpha 90.000000
_cell_angle_beta 44.898046
_cell_angle_gamma 90.000000
_cell_volume 1637.294598
_symmetry_space_group_name_H-M "C 2/C"
_symmetry_group_IT_number 15
_symmetry_cell_setting 'monoclinic'
loop_
_space_group_symop_operation_xyz
x,y,z
-x,y,1/2-z
-x,-y,-z
x,-y,1/2+z
1/2+x,1/2+y,z
1/2-x,1/2+y,1/2-z
1/2-x,1/2-y,-z
1/2+x,1/2-y,1/2+z
loop_
_atom_site_type_symbol
_atom_site_label
_atom_site_fract_x
_atom_site_fract_y
_atom_site_fract_z
Si Si1 0.000000 0.900741 0.750000
Si Si2 0.545169 0.226701 0.852656
Si Si3 0.390594 0.144706 0.497707
Si Si4 0.311456 0.516378 0.168892
Si Si5 0.500000 0.197527 0.250000
Si Si6 0.000000 0.934893 0.250000
O O1 0.281813 0.870375 0.626344
O O2 0.052734 0.936687 0.828324
O O3 0.500000 0.207975 0.750000
O O4 0.782430 0.268541 0.768320
O O5 0.250000 0.250000 0.000000
O O6 0.640106 0.185581 0.899885
O O7 0.336777 0.166007 0.400423
O O8 0.193111 0.099385 0.603094
O O9 0.309070 0.471445 0.252865
O O10 0.000000 0.528434 0.250000
O O11 0.500000 0.500000 0.000000
#
# Coordination Sequence:
#
# PCOD9305689 Si02
#       6
#     4   8   8   8   4   4
#     4  11  26  46  67 108 138 182 235 280 348 429
#     4  12  26  48  70 100 140 188 238 292 357 412
#     4  12  26  45  74 104 144 184 241 292 345 425
#     4  11  24  46  73  97 145 185 222 288 360 411
#     4  12  27  48  71 100 146 194 233 292 359 420
#     4  11  27  44  66 114 136 176 244 290 341 419
#
# _framework density 21.987490999999999
#
# number of rings (size 3 to 8) (size 9 to 14) (size 15 to 20)
#    0.000    0.444    2.222    5.333    7.778    6.222 
#    0.000    0.000    0.000    0.000    0.000    0.000 
#    0.000    0.000    0.000    0.000    0.000    0.000 
#
# Total GULP energy -100879.089456 kJ/mol
# GULP energy per Si atom -5604.393859 kJ/mol
# Density = 2.193745 g / cm^3
# Si number density = 21.987491 Si / 1000 Ang^3
#
#
#
# Elastic Constant Matrix: (Units=GPa)
#
#
# Indices 1 2 3 4 5 6 
#
# 1 71.8594 8.9331 5.3039 0.0000 12.8262 0.0000
# 2 8.9331 84.7866 14.1610 0.0000 17.1312 0.0000
# 3 5.3039 14.1610 77.5883 0.0000 22.0126 0.0000
# 4 0.0000 0.0000 0.0000 49.6929 0.0000 -8.7235
# 5 12.8262 17.1312 22.0126 0.0000 53.8231 0.0000
# 6 0.0000 0.0000 0.0000 -8.7235 0.0000 13.0959
#
#
#
# Elastic Compliance Matrix: (Units=1/GPa)
#
#
# Indices 1 2 3 4 5 6 
#
# 1 0.014598 -0.000900 0.000081 0.000000 -0.003226 0.000000
# 2 -0.000900 0.012780 -0.001332 0.000000 -0.003308 0.000000
# 3 0.000081 -0.001332 0.014719 0.000000 -0.005615 0.000000
# 4 0.000000 0.000000 0.000000 0.022788 0.000000 0.015180
# 5 -0.003226 -0.003308 -0.005615 0.000000 0.022698 0.000000
# 6 0.000000 0.000000 0.000000 0.015180 0.000000 0.086472
#
#
# Mechanical properties :
#
#
# Convention : Reuss Voigt Hill
#
# Bulk Modulus (GPa) = 26.45829 32.33670 29.39749
# Shear Modulus (GPa) = 26.18420 37.04480 31.61450
#
# Velocity S-wave (km/s) = 3.45464 4.10910 3.79600
# Velocity P-wave (km/s) = 5.28887 6.10342 5.71069
#
# Compressibility (1/GPa) = 0.03779534
#
# Stress axis : x y z
#
# Youngs Moduli (GPa) = 68.50423 78.24646 67.93827
#
# Poissons Ratio (x) = 0.07041 -0.00554
# Poissons Ratio (y) = 0.06165 0.09052
# Poissons Ratio (z) = -0.00558 0.10426
#
# Static dielectric constant tensor:
#      x y z
#    x 1.777820 0.000000 0.023230 
#    y 0.000000 1.793570 0.000000 
#    z 0.023230 0.000000 1.807750 
# 
# From -- ./inp_files/73563.got.cif
#   From: 2010.05.17/outbox.cif.g08.bks.cpg/sg15_37_cif.got.tgz:73563.got - 2010.06.03 18:47:42.
