data_PCOD9305203
_publ_section_title
;
Structure prediction by ZEFSAII (Michael W. Deem and Ramdas Pophale) SiO2 
 PCOD9305203
Probable space group: C 2/C
;
_chemical_formula_sum "Si O2"
_cell_formula_units_Z 36
_cell_length_a 9.068939
_cell_length_b 17.361848
_cell_length_c 11.865315
_cell_angle_alpha 90.000000
_cell_angle_beta 71.237912
_cell_angle_gamma 90.000000
_cell_volume 1768.962085
_symmetry_space_group_name_H-M "C 2/C"
_symmetry_group_IT_number 15
_symmetry_cell_setting 'monoclinic'
loop_
_space_group_symop_operation_xyz
x,y,z
-x,y,1/2-z
-x,-y,-z
x,-y,1/2+z
1/2+x,1/2+y,z
1/2-x,1/2+y,1/2-z
1/2-x,1/2-y,-z
1/2+x,1/2-y,1/2+z
loop_
_atom_site_type_symbol
_atom_site_label
_atom_site_fract_x
_atom_site_fract_y
_atom_site_fract_z
Si Si1 0.472501 0.545429 0.886406
Si Si2 0.000000 0.409388 0.250000
Si Si3 0.795996 0.821162 0.112295
Si Si4 0.338595 0.998690 0.604727
Si Si5 0.329186 0.334221 0.845019
O O1 0.500000 0.512490 0.750000
O O2 0.581160 0.620437 0.862526
O O3 0.286355 0.551823 0.929042
O O4 0.500000 0.500000 0.000000
O O5 0.878983 0.357078 0.348888
O O6 0.882485 0.463300 0.211386
O O7 0.771655 0.738055 0.175035
O O8 0.853809 0.814833 0.970423
O O9 0.265484 0.913994 0.635652
O O10 0.500000 0.000000 0.500000
O O11 0.500000 0.338867 0.750000
#
# Coordination Sequence:
#
# PCOD9305203 Si02
#       5
#     8   4   8   8   8
#     4  12  24  44  73 105 141 187 243 296 357 430
#     4  12  22  44  66 102 138 184 242 294 358 424
#     4  11  24  43  70  97 140 187 236 296 366 422
#     4  12  25  42  69 101 141 187 242 298 353 433
#     4  11  24  43  70 101 139 191 236 291 363 436
#
# _framework density 20.350918
#
# number of rings (size 3 to 8) (size 9 to 14) (size 15 to 20)
#    0.000    0.444    7.778    0.667    0.000    0.000 
#    2.000    1.111    0.000    0.000    0.000    0.000 
#    0.000    0.000    0.000    0.000    0.000    0.000 
#
# Total GULP energy -100266.879374 kJ/mol
# GULP energy per Si atom -5570.382187 kJ/mol
# Density = 2.030460 g / cm^3
# Si number density = 20.350918 Si / 1000 Ang^3
#
#
#
# Elastic Constant Matrix: (Units=GPa)
#
#
# Indices 1 2 3 4 5 6 
#
# 1 154.0059 66.9691 37.8559 0.0000 -21.5097 0.0000
# 2 66.9691 154.9913 32.4430 0.0000 -21.0353 0.0000
# 3 37.8559 32.4430 120.0423 0.0000 -25.7068 0.0000
# 4 0.0000 0.0000 0.0000 20.2887 0.0000 -4.6469
# 5 -21.5097 -21.0353 -25.7068 0.0000 53.5587 0.0000
# 6 0.0000 0.0000 0.0000 -4.6469 0.0000 35.4587
#
#
#
# Elastic Compliance Matrix: (Units=1/GPa)
#
#
# Indices 1 2 3 4 5 6 
#
# 1 0.008424 -0.003131 -0.001504 0.000000 0.001432 0.000000
# 2 -0.003131 0.008201 -0.000901 0.000000 0.001531 0.000000
# 3 -0.001504 -0.000901 0.009856 0.000000 0.003773 0.000000
# 4 0.000000 0.000000 0.000000 0.050814 0.000000 0.006659
# 5 0.001432 0.001531 0.003773 0.000000 0.021658 0.000000
# 6 0.000000 0.000000 0.000000 0.006659 0.000000 0.029075
#
#
# Mechanical properties :
#
#
# Convention : Reuss Voigt Hill
#
# Bulk Modulus (GPa) = 64.89435 78.17505 71.53470
# Shear Modulus (GPa) = 34.66520 41.31266 37.98893
#
# Velocity S-wave (km/s) = 4.13167 4.51046 4.32521
# Velocity P-wave (km/s) = 7.39715 8.10077 7.75694
#
# Compressibility (1/GPa) = 0.01540966
#
# Stress axis : x y z
#
# Youngs Moduli (GPa) = 118.70328 121.93292 101.45941
#
# Poissons Ratio (x) = 0.38176 0.15258
# Poissons Ratio (y) = 0.37165 0.09144
# Poissons Ratio (z) = 0.17851 0.10989
#
# Static dielectric constant tensor:
#      x y z
#    x 1.737700 0.000000 -0.000580 
#    y 0.000000 1.856230 0.000000 
#    z -0.000580 0.000000 1.855910 
# 
# From -- ./inp_files/76562.got.cif
#   From: 2010.05.17/outbox.cif.g08.bks.cpg/sg15_39_cif.got.tgz:76562.got - 2010.06.03 18:47:42.
