data_PCOD9305429
_publ_section_title
;
Structure prediction by ZEFSAII (Michael W. Deem and Ramdas Pophale) SiO2 
 PCOD9305429
Probable space group: C 2/C
;
_chemical_formula_sum "Si O2"
_cell_formula_units_Z 40
_cell_length_a 8.426304
_cell_length_b 15.898345
_cell_length_c 14.763909
_cell_angle_alpha 90.000000
_cell_angle_beta 117.707362
_cell_angle_gamma 90.000000
_cell_volume 1751.045735
_symmetry_space_group_name_H-M "C 2/C"
_symmetry_group_IT_number 15
_symmetry_cell_setting 'monoclinic'
loop_
_space_group_symop_operation_xyz
x,y,z
-x,y,1/2-z
-x,-y,-z
x,-y,1/2+z
1/2+x,1/2+y,z
1/2-x,1/2+y,1/2-z
1/2-x,1/2-y,-z
1/2+x,1/2-y,1/2+z
loop_
_atom_site_type_symbol
_atom_site_label
_atom_site_fract_x
_atom_site_fract_y
_atom_site_fract_z
Si Si1 0.153517 0.698817 0.865226
Si Si2 0.859660 0.531990 0.535893
Si Si3 0.282712 0.136425 0.086051
Si Si4 0.957038 0.878966 0.634175
Si Si5 0.976179 0.189458 0.640053
O O1 0.090747 0.622250 0.910858
O O2 0.159017 0.793390 0.904707
O O3 0.341776 0.677271 0.867974
O O4 0.000000 0.706680 0.750000
O O5 0.856010 0.457756 0.607907
O O6 0.661627 0.547780 0.441556
O O7 0.000000 0.500000 0.500000
O O8 0.425421 0.211211 0.130964
O O9 0.135547 0.141857 0.125749
O O10 0.181884 0.149045 0.962361
O O11 0.000000 0.897205 0.750000
O O12 0.000000 0.159563 0.750000
#
# Coordination Sequence:
#
# PCOD9305429 Si02
#       5
#     8   8   8   8   8
#     4  11  25  44  70 100 137 184 230 278 344 419
#     4  12  27  43  67 101 144 179 227 289 347 405
#     4  11  26  45  71 104 135 180 231 288 348 404
#     4  11  24  46  73 100 138 182 232 282 345 409
#     4  11  24  44  76  99 138 179 235 282 347 412
#
# _framework density 22.843492999999999
#
# number of rings (size 3 to 8) (size 9 to 14) (size 15 to 20)
#    0.000    0.800    2.000    4.800    8.400    3.200 
#    0.000    0.000    0.000    0.000    0.000    0.000 
#    0.000    0.000    0.000    0.000    0.000    0.000 
#
# Total GULP energy -111920.281493 kJ/mol
# GULP energy per Si atom -5596.014075 kJ/mol
# Density = 2.279150 g / cm^3
# Si number density = 22.843493 Si / 1000 Ang^3
#
#
#
# Elastic Constant Matrix: (Units=GPa)
#
#
# Indices 1 2 3 4 5 6 
#
# 1 84.0121 0.9279 -5.4187 0.0000 -19.1829 0.0000
# 2 0.9279 96.0674 9.3951 0.0000 -7.2728 0.0000
# 3 -5.4187 9.3951 66.6517 0.0000 -11.5639 0.0000
# 4 0.0000 0.0000 0.0000 17.2983 0.0000 -3.2103
# 5 -19.1829 -7.2728 -11.5639 0.0000 37.4755 0.0000
# 6 0.0000 0.0000 0.0000 -3.2103 0.0000 39.8976
#
#
#
# Elastic Compliance Matrix: (Units=1/GPa)
#
#
# Indices 1 2 3 4 5 6 
#
# 1 0.013864 0.000223 0.002466 0.000000 0.007901 0.000000
# 2 0.000223 0.010659 -0.001168 0.000000 0.001822 0.000000
# 3 0.002466 -0.001168 0.016428 0.000000 0.006105 0.000000
# 4 0.000000 0.000000 0.000000 0.058686 0.000000 0.004722
# 5 0.007901 0.001822 0.006105 0.000000 0.032966 0.000000
# 6 0.000000 0.000000 0.000000 0.004722 0.000000 0.025444
#
#
# Mechanical properties :
#
#
# Convention : Reuss Voigt Hill
#
# Bulk Modulus (GPa) = 22.73070 28.50442 25.61756
# Shear Modulus (GPa) = 29.46926 35.05608 32.26267
#
# Velocity S-wave (km/s) = 3.59562 3.92167 3.76218
# Velocity P-wave (km/s) = 5.21634 5.74554 5.48733
#
# Compressibility (1/GPa) = 0.04399336
#
# Stress axis : x y z
#
# Youngs Moduli (GPa) = 72.13068 93.81384 60.87258
#
# Poissons Ratio (x) = -0.02092 -0.15014
# Poissons Ratio (y) = -0.01609 0.07111
# Poissons Ratio (z) = -0.17791 0.10960
#
# Static dielectric constant tensor:
#      x y z
#    x 1.844510 0.000000 0.019940 
#    y 0.000000 1.829450 0.000000 
#    z 0.019940 0.000000 1.910990 
# 
# From -- ./inp_files/133295.got.cif
#   From: 2010.05.17/outbox.cif.g08.bks.cpg/sg15_67_cif.got.tgz:133295.got - 2010.06.03 18:47:42.
