data_PCOD9305887
_publ_section_title
;
Structure prediction by ZEFSAII (Michael W. Deem and Ramdas Pophale) SiO2 
 PCOD9305887
Probable space group: C 2/C
;
_chemical_formula_sum "Si O2"
_cell_formula_units_Z 52
_cell_length_a 5.636401
_cell_length_b 15.206133
_cell_length_c 30.121653
_cell_angle_alpha 90.000000
_cell_angle_beta 125.035674
_cell_angle_gamma 90.000000
_cell_volume 2113.851741
_symmetry_space_group_name_H-M "C 2/C"
_symmetry_group_IT_number 15
_symmetry_cell_setting 'monoclinic'
loop_
_space_group_symop_operation_xyz
x,y,z
-x,y,1/2-z
-x,-y,-z
x,-y,1/2+z
1/2+x,1/2+y,z
1/2-x,1/2+y,1/2-z
1/2-x,1/2-y,-z
1/2+x,1/2-y,1/2+z
loop_
_atom_site_type_symbol
_atom_site_label
_atom_site_fract_x
_atom_site_fract_y
_atom_site_fract_z
Si Si1 0.475471 0.870085 0.343380
Si Si2 0.512055 0.178583 0.986602
Si Si3 0.474121 0.825471 0.582924
Si Si4 0.500000 0.078090 0.250000
Si Si5 0.000000 0.687254 0.750000
Si Si6 0.796697 0.475694 0.056184
Si Si7 0.500000 0.481533 0.250000
Si Si8 0.065053 0.719641 0.323441
O O1 0.581216 0.862441 0.303954
O O2 0.705666 0.915106 0.400196
O O3 0.347429 0.781655 0.352036
O O4 0.184138 0.926758 0.305596
O O5 0.225652 0.238294 0.949013
O O6 0.527475 0.088632 0.959357
O O7 0.750000 0.250000 0.000000
O O8 0.594189 0.158892 0.046393
O O9 0.569138 0.798541 0.642505
O O10 0.389623 0.927678 0.582216
O O11 0.239032 0.031365 0.247261
O O12 0.645490 0.133312 0.305323
O O13 0.713049 0.740511 0.732132
O O14 0.500000 0.500000 0.000000
#
# Coordination Sequence:
#
# PCOD9305887 Si02
#       8
#     8   8   8   4   4   8   4   8
#     4  12  26  48  77 114 156 214 268 342 415 503
#     4  11  24  48  73 103 148 198 259 320 383 478
#     4  11  26  46  74 108 145 203 258 325 399 476
#     4  12  26  48  77 115 168 200 268 341 417 509
#     4  12  24  48  82 108 162 202 282 336 432 496
#     4  12  26  50  77 113 160 211 267 337 412 492
#     4  12  26  50  75 123 164 208 274 345 419 495
#     4  12  25  47  74 111 149 211 264 335 419 498
#
# _framework density 24.599644000000001
#
# number of rings (size 3 to 8) (size 9 to 14) (size 15 to 20)
#    0.000    0.308    6.154    2.308    2.154    0.000 
#    5.538    0.000    0.000    0.000    0.000    0.000 
#    0.000    0.000    0.000    0.000    0.000    0.000 
#
# Total GULP energy -144949.124797 kJ/mol
# GULP energy per Si atom -5574.966338 kJ/mol
# Density = 2.454365 g / cm^3
# Si number density = 24.599644 Si / 1000 Ang^3
#
#
#
# Elastic Constant Matrix: (Units=GPa)
#
#
# Indices 1 2 3 4 5 6 
#
# 1 66.7987 41.9533 21.7418 0.0000 -24.9598 0.0000
# 2 41.9533 125.9437 38.7889 0.0000 3.2938 0.0000
# 3 21.7418 38.7889 137.7117 0.0000 -33.9392 0.0000
# 4 0.0000 0.0000 0.0000 74.5293 0.0000 6.9353
# 5 -24.9598 3.2938 -33.9392 0.0000 35.2311 0.0000
# 6 0.0000 0.0000 0.0000 6.9353 0.0000 55.4819
#
#
#
# Elastic Compliance Matrix: (Units=1/GPa)
#
#
# Indices 1 2 3 4 5 6 
#
# 1 0.033011 -0.013707 0.006201 0.000000 0.030642 0.000000
# 2 -0.013707 0.014877 -0.006245 0.000000 -0.017118 0.000000
# 3 0.006201 -0.006245 0.012154 0.000000 0.016685 0.000000
# 4 0.000000 0.000000 0.000000 0.013575 0.000000 -0.001697
# 5 0.030642 -0.017118 0.016685 0.000000 0.067766 0.000000
# 6 0.000000 0.000000 0.000000 -0.001697 0.000000 0.018236
#
#
# Mechanical properties :
#
#
# Convention : Reuss Voigt Hill
#
# Bulk Modulus (GPa) = 30.73299 59.49135 45.11217
# Shear Modulus (GPa) = 25.25658 48.24644 36.75151
#
# Velocity S-wave (km/s) = 3.20770 4.43342 3.86940
# Velocity P-wave (km/s) = 5.12245 7.10235 6.19204
#
# Compressibility (1/GPa) = 0.03253832
#
# Stress axis : x y z
#
# Youngs Moduli (GPa) = 30.29333 67.21677 82.28000
#
# Poissons Ratio (x) = 0.92137 -0.51021
# Poissons Ratio (y) = 0.41524 0.51385
# Poissons Ratio (z) = -0.18785 0.41978
#
# Static dielectric constant tensor:
#      x y z
#    x 2.006280 0.000000 0.076100 
#    y 0.000000 2.115630 0.000000 
#    z 0.076100 0.000000 1.993030 
# 
# From -- ./inp_files/305481.got.cif
#   From: 2010.05.17/outbox.cif.g08.bks.cpg/sg15_153_cif.got.tgz:305481.got - 2010.06.03 18:47:42.
