data_PCOD9305917
_publ_section_title
;
Structure prediction by ZEFSAII (Michael W. Deem and Ramdas Pophale) SiO2 
 PCOD9305917
Probable space group: C 2/C
;
_chemical_formula_sum "Si O2"
_cell_formula_units_Z 40
_cell_length_a 14.664245
_cell_length_b 11.288115
_cell_length_c 9.633815
_cell_angle_alpha 90.000000
_cell_angle_beta 72.831980
_cell_angle_gamma 90.000000
_cell_volume 1523.646922
_symmetry_space_group_name_H-M "C 2/C"
_symmetry_group_IT_number 15
_symmetry_cell_setting 'monoclinic'
loop_
_space_group_symop_operation_xyz
x,y,z
-x,y,1/2-z
-x,-y,-z
x,-y,1/2+z
1/2+x,1/2+y,z
1/2-x,1/2+y,1/2-z
1/2-x,1/2-y,-z
1/2+x,1/2-y,1/2+z
loop_
_atom_site_type_symbol
_atom_site_label
_atom_site_fract_x
_atom_site_fract_y
_atom_site_fract_z
Si Si1 0.262002 0.086234 0.713531
Si Si2 0.002002 0.274420 0.491350
Si Si3 0.625242 0.960510 0.089357
Si Si4 0.936960 0.043568 0.154608
Si Si5 0.367386 0.213518 0.296037
O O1 0.311716 0.120864 0.837267
O O2 0.226988 0.208257 0.658200
O O3 0.320907 0.016657 0.567509
O O4 0.170154 0.002934 0.788819
O O5 0.969099 0.393200 0.423657
O O6 0.907050 0.249235 0.625541
O O7 0.047795 0.184022 0.362866
O O8 0.073599 0.263048 0.589964
O O9 0.621676 0.071889 0.197919
O O10 0.000000 0.993592 0.250000
O O11 0.000000 0.000000 0.000000
#
# Coordination Sequence:
#
# PCOD9305917 Si02
#       5
#     8   8   8   8   8
#     4  12  26  45  81 115 156 199 261 326 392 454
#     4  11  25  47  76 108 157 208 261 311 393 473
#     4  12  26  48  74 118 157 200 258 329 396 461
#     4  12  25  47  75 113 152 204 257 314 384 468
#     4  11  24  48  76 108 160 210 253 321 391 476
#
# _framework density 26.252801000000002
#
# number of rings (size 3 to 8) (size 9 to 14) (size 15 to 20)
#    0.000    0.400    4.000    4.800    0.000    4.000 
#    3.600    0.000    0.000    0.000    0.000    0.000 
#    0.000    0.000    0.000    0.000    0.000    0.000 
#
# Total GULP energy -111571.608275 kJ/mol
# GULP energy per Si atom -5578.580414 kJ/mol
# Density = 2.619305 g / cm^3
# Si number density = 26.252801 Si / 1000 Ang^3
#
#
#
# Elastic Constant Matrix: (Units=GPa)
#
#
# Indices 1 2 3 4 5 6 
#
# 1 96.5805 47.8054 47.1089 0.0000 9.5306 0.0000
# 2 47.8054 133.9756 27.5997 0.0000 -0.0539 0.0000
# 3 47.1089 27.5997 145.6728 0.0000 17.1879 0.0000
# 4 0.0000 0.0000 0.0000 53.6011 0.0000 -8.5514
# 5 9.5306 -0.0539 17.1879 0.0000 61.8819 0.0000
# 6 0.0000 0.0000 0.0000 -8.5514 0.0000 34.1214
#
#
#
# Elastic Compliance Matrix: (Units=1/GPa)
#
#
# Indices 1 2 3 4 5 6 
#
# 1 0.014453 -0.004395 -0.003699 0.000000 -0.001202 0.000000
# 2 -0.004395 0.009115 -0.000399 0.000000 0.000796 0.000000
# 3 -0.003699 -0.000399 0.008343 0.000000 -0.001748 0.000000
# 4 0.000000 0.000000 0.000000 0.019433 0.000000 0.004870
# 5 -0.001202 0.000796 -0.001748 0.000000 0.016831 0.000000
# 6 0.000000 0.000000 0.000000 0.004870 0.000000 0.030528
#
#
# Mechanical properties :
#
#
# Convention : Reuss Voigt Hill
#
# Bulk Modulus (GPa) = 67.01314 69.02856 68.02085
# Shear Modulus (GPa) = 41.43696 46.83522 44.13609
#
# Velocity S-wave (km/s) = 3.97720 4.22833 4.10469
# Velocity P-wave (km/s) = 6.83171 7.08444 6.95922
#
# Compressibility (1/GPa) = 0.01492245
#
# Stress axis : x y z
#
# Youngs Moduli (GPa) = 69.19112 109.70867 119.86257
#
# Poissons Ratio (x) = 0.48222 0.44340
# Poissons Ratio (y) = 0.30413 0.04788
# Poissons Ratio (z) = 0.25595 0.04382
#
# Static dielectric constant tensor:
#      x y z
#    x 2.176560 0.000000 0.065320 
#    y 0.000000 2.502110 0.000000 
#    z 0.065320 0.000000 2.179060 
# 
# From -- ./inp_files/46084.got.cif
#   From: 2010.05.17/outbox.cif.g08.bks.cpg/sg15_24_cif.got.tgz:46084.got - 2010.06.03 18:47:42.
