data_PCOD9305949
_publ_section_title
;
Structure prediction by ZEFSAII (Michael W. Deem and Ramdas Pophale) SiO2 
 PCOD9305949
Probable space group: C 2/C
;
_chemical_formula_sum "Si O2"
_cell_formula_units_Z 40
_cell_length_a 13.726772
_cell_length_b 24.641287
_cell_length_c 8.279513
_cell_angle_alpha 90.000000
_cell_angle_beta 141.676015
_cell_angle_gamma 90.000000
_cell_volume 1736.615138
_symmetry_space_group_name_H-M "C 2/C"
_symmetry_group_IT_number 15
_symmetry_cell_setting 'monoclinic'
loop_
_space_group_symop_operation_xyz
x,y,z
-x,y,1/2-z
-x,-y,-z
x,-y,1/2+z
1/2+x,1/2+y,z
1/2-x,1/2+y,1/2-z
1/2-x,1/2-y,-z
1/2+x,1/2-y,1/2+z
loop_
_atom_site_type_symbol
_atom_site_label
_atom_site_fract_x
_atom_site_fract_y
_atom_site_fract_z
Si Si1 0.181662 0.005324 0.686337
Si Si2 0.687072 0.306520 0.491895
Si Si3 0.315246 0.805261 0.018132
Si Si4 0.617335 0.915178 0.247483
Si Si5 0.315826 0.079805 0.139224
O O1 0.242270 0.044446 0.619166
O O2 0.227613 0.945530 0.681933
O O3 0.277957 0.035090 0.954372
O O4 0.000000 0.000000 0.500000
O O5 0.500000 0.305199 0.250000
O O6 0.750000 0.250000 0.500000
O O7 0.749685 0.362324 0.494278
O O8 0.747350 0.313060 0.752620
O O9 0.500000 0.798124 0.250000
O O10 0.299286 0.858246 0.107140
O O11 0.250000 0.750000 0.000000
O O12 0.500000 0.927271 0.250000
O O13 0.492506 0.913258 0.936431
#
# Coordination Sequence:
#
# PCOD9305949 Si02
#       5
#     8   8   8   8   8
#     4  12  27  48  78 115 157 203 265 336 405 478
#     4  12  27  47  76 114 160 202 271 335 406 482
#     4  11  24  49  76 110 157 207 270 329 408 479
#     4  11  24  50  80 111 155 213 267 327 403 489
#     4  12  26  50  76 113 156 207 267 328 404 488
#
# _framework density 23.033313
#
# number of rings (size 3 to 8) (size 9 to 14) (size 15 to 20)
#    0.000    0.400    4.000    5.400    2.800    0.000 
#    7.200    0.000    0.000    0.000    0.000    0.000 
#    0.000    0.000    0.000    0.000    0.000    0.000 
#
# Total GULP energy -111694.320831 kJ/mol
# GULP energy per Si atom -5584.716042 kJ/mol
# Density = 2.298089 g / cm^3
# Si number density = 23.033313 Si / 1000 Ang^3
#
#
#
# Elastic Constant Matrix: (Units=GPa)
#
#
# Indices 1 2 3 4 5 6 
#
# 1 95.3120 81.0054 42.4408 0.0000 15.3187 0.0000
# 2 81.0054 209.2110 51.8499 0.0000 9.6769 0.0000
# 3 42.4408 51.8499 145.5637 0.0000 4.7488 0.0000
# 4 0.0000 0.0000 0.0000 46.1996 0.0000 -0.3940
# 5 15.3187 9.6769 4.7488 0.0000 47.2440 0.0000
# 6 0.0000 0.0000 0.0000 -0.3940 0.0000 62.1960
#
#
#
# Elastic Compliance Matrix: (Units=1/GPa)
#
#
# Indices 1 2 3 4 5 6 
#
# 1 0.017389 -0.005833 -0.002857 0.000000 -0.004157 0.000000
# 2 -0.005833 0.007237 -0.000893 0.000000 0.000499 0.000000
# 3 -0.002857 -0.000893 0.008011 0.000000 0.000304 0.000000
# 4 0.000000 0.000000 0.000000 0.021646 0.000000 0.000137
# 5 -0.004157 0.000499 0.000304 0.000000 0.022382 0.000000
# 6 0.000000 0.000000 0.000000 0.000137 0.000000 0.016079
#
#
# Mechanical properties :
#
#
# Convention : Reuss Voigt Hill
#
# Bulk Modulus (GPa) = 74.23297 88.96430 81.59863
# Shear Modulus (GPa) = 42.95526 49.44730 46.20128
#
# Velocity S-wave (km/s) = 4.32316 4.63835 4.48353
# Velocity P-wave (km/s) = 7.56426 8.20937 7.89341
#
# Compressibility (1/GPa) = 0.01347110
#
# Stress axis : x y z
#
# Youngs Moduli (GPa) = 57.50695 138.18640 124.82721
#
# Poissons Ratio (x) = 0.80600 0.35661
# Poissons Ratio (y) = 0.33542 0.11151
# Poissons Ratio (z) = 0.16429 0.12345
#
# Static dielectric constant tensor:
#      x y z
#    x 2.015370 0.000000 -0.131280 
#    y 0.000000 1.731510 0.000000 
#    z -0.131280 0.000000 1.919330 
# 
# From -- ./inp_files/42409.got.cif
#   From: 2010.05.17/outbox.cif.g08.bks.cpg/sg15_22_cif.got.tgz:42409.got - 2010.06.03 18:47:42.
