data_PCOD9305399
_publ_section_title
;
Structure prediction by ZEFSAII (Michael W. Deem and Ramdas Pophale) SiO2 
 PCOD9305399
Probable space group: C 2/C
;
_chemical_formula_sum "Si O2"
_cell_formula_units_Z 36
_cell_length_a 7.805767
_cell_length_b 26.844240
_cell_length_c 9.678468
_cell_angle_alpha 90.000000
_cell_angle_beta 136.988784
_cell_angle_gamma 90.000000
_cell_volume 1383.400078
_symmetry_space_group_name_H-M "C 2/C"
_symmetry_group_IT_number 15
_symmetry_cell_setting 'monoclinic'
loop_
_space_group_symop_operation_xyz
x,y,z
-x,y,1/2-z
-x,-y,-z
x,-y,1/2+z
1/2+x,1/2+y,z
1/2-x,1/2+y,1/2-z
1/2-x,1/2-y,-z
1/2+x,1/2-y,1/2+z
loop_
_atom_site_type_symbol
_atom_site_label
_atom_site_fract_x
_atom_site_fract_y
_atom_site_fract_z
Si Si1 0.036893 0.139774 0.512027
Si Si2 0.000000 0.704102 0.750000
Si Si3 0.249098 0.737650 0.361417
Si Si4 0.354144 0.066587 0.803009
Si Si5 0.189848 0.038935 0.243349
O O1 0.257806 0.170477 0.564873
O O2 0.178560 0.114334 0.726545
O O3 0.818087 0.179014 0.402532
O O4 0.929454 0.089507 0.383291
O O5 0.899769 0.735011 0.822322
O O6 0.454633 0.755882 0.613750
O O7 0.500000 0.080175 0.750000
O O8 0.236247 0.012964 0.693335
O O9 0.541473 0.055637 0.037448
O O10 0.000000 0.022151 0.250000
#
# Coordination Sequence:
#
# PCOD9305399 Si02
#       5
#     8   4   8   8   8
#     4  12  25  48  77 108 151 207 259 315 398 464
#     4  12  26  52  86 108 162 208 254 346 382 456
#     4  12  29  52  76 117 156 203 267 325 394 467
#     4  11  24  45  70 109 152 193 251 315 382 465
#     4  11  24  44  73 109 147 194 255 311 384 467
#
# _framework density 26.022842000000001
#
# number of rings (size 3 to 8) (size 9 to 14) (size 15 to 20)
#    0.000    0.444    5.556    1.333    1.556    2.667 
#    8.000    0.000    0.000    0.000    0.000    0.000 
#    0.000    0.000    0.000    0.000    0.000    0.000 
#
# Total GULP energy -100511.972885 kJ/mol
# GULP energy per Si atom -5583.998494 kJ/mol
# Density = 2.596361 g / cm^3
# Si number density = 26.022842 Si / 1000 Ang^3
#
#
#
# Elastic Constant Matrix: (Units=GPa)
#
#
# Indices 1 2 3 4 5 6 
#
# 1 156.6757 85.7117 59.1698 0.0000 9.8848 0.0000
# 2 85.7117 202.6024 78.6207 0.0000 15.3739 0.0000
# 3 59.1698 78.6207 157.2849 0.0000 31.3889 0.0000
# 4 0.0000 0.0000 0.0000 532.7160 0.0000 -191.0382
# 5 9.8848 15.3739 31.3889 0.0000 44.7668 0.0000
# 6 0.0000 0.0000 0.0000 -191.0382 0.0000 126.1825
#
#
#
# Elastic Compliance Matrix: (Units=1/GPa)
#
#
# Indices 1 2 3 4 5 6 
#
# 1 0.008693 -0.002987 -0.001859 0.000000 0.000410 0.000000
# 2 -0.002987 0.007150 -0.002432 0.000000 -0.000091 0.000000
# 3 -0.001859 -0.002432 0.009330 0.000000 -0.005296 0.000000
# 4 0.000000 0.000000 0.000000 0.004107 0.000000 0.006218
# 5 0.000410 -0.000091 -0.005296 0.000000 0.025992 0.000000
# 6 0.000000 0.000000 0.000000 0.006218 0.000000 0.017339
#
#
# Mechanical properties :
#
#
# Convention : Reuss Voigt Hill
#
# Bulk Modulus (GPa) = 94.19423 107.06303 100.62863
# Shear Modulus (GPa) = 55.12273 160.27045 107.69659
#
# Velocity S-wave (km/s) = 4.60743 7.85634 6.44013
# Velocity P-wave (km/s) = 8.03616 11.11429 9.69813
#
# Compressibility (1/GPa) = 0.01061636
#
# Stress axis : x y z
#
# Youngs Moduli (GPa) = 115.03453 139.85367 107.18285
#
# Poissons Ratio (x) = 0.41780 0.19923
# Poissons Ratio (y) = 0.34366 0.26070
# Poissons Ratio (z) = 0.21382 0.34016
#
# Static dielectric constant tensor:
#      x y z
#    x 2.045950 0.000000 0.004510 
#    y 0.000000 1.927330 0.000000 
#    z 0.004510 0.000000 2.270040 
# 
# From -- ./inp_files/147955.got.cif
#   From: 2010.05.17/outbox.cif.g08.bks.cpg/sg15_74_cif.got.tgz:147955.got - 2010.06.03 18:47:42.
