data_PCOD9305484
_publ_section_title
;
Structure prediction by ZEFSAII (Michael W. Deem and Ramdas Pophale) SiO2 
 PCOD9305484
Probable space group: C 2/C
;
_chemical_formula_sum "Si O2"
_cell_formula_units_Z 48
_cell_length_a 21.682580
_cell_length_b 18.760918
_cell_length_c 14.715481
_cell_angle_alpha 90.000000
_cell_angle_beta 21.584313
_cell_angle_gamma 90.000000
_cell_volume 2202.083833
_symmetry_space_group_name_H-M "C 2/C"
_symmetry_group_IT_number 15
_symmetry_cell_setting 'monoclinic'
loop_
_space_group_symop_operation_xyz
x,y,z
-x,y,1/2-z
-x,-y,-z
x,-y,1/2+z
1/2+x,1/2+y,z
1/2-x,1/2+y,1/2-z
1/2-x,1/2-y,-z
1/2+x,1/2-y,1/2+z
loop_
_atom_site_type_symbol
_atom_site_label
_atom_site_fract_x
_atom_site_fract_y
_atom_site_fract_z
Si Si1 0.184048 0.521378 0.274168
Si Si2 0.124669 0.791732 0.305569
Si Si3 0.900280 0.194288 0.292266
Si Si4 0.696144 0.058470 0.944499
Si Si5 0.364636 0.664052 0.011084
Si Si6 0.642438 0.534521 0.131881
O O1 0.221825 0.468220 0.305571
O O2 0.255838 0.598934 0.200869
O O3 0.000000 0.500000 0.500000
O O4 0.247853 0.511873 0.084997
O O5 0.248371 0.859433 0.125630
O O6 0.234683 0.720495 0.147179
O O7 0.031404 0.794151 0.530791
O O8 0.977352 0.798512 0.433468
O O9 0.750000 0.250000 0.500000
O O10 0.819962 0.115415 0.392759
O O11 0.000000 0.200050 0.250000
O O12 0.836483 0.012568 0.807190
O O13 0.500000 0.047982 0.250000
O O14 0.500000 0.639191 0.750000
O O15 0.500000 0.545606 0.250000
#
# Coordination Sequence:
#
# PCOD9305484 Si02
#       6
#     8   8   8   8   8   8
#     4  12  26  43  73 103 141 187 242 293 356 419
#     4  12  27  46  73 104 145 186 236 290 356 426
#     4  11  25  44  70  98 137 181 230 288 349 418
#     4  12  25  44  71 105 140 187 236 293 351 424
#     4  12  28  47  74 105 145 190 236 294 354 425
#     4  11  24  45  70 100 139 181 233 294 349 416
#
# _framework density 21.797535
#
# number of rings (size 3 to 8) (size 9 to 14) (size 15 to 20)
#    0.000    0.333    1.667    7.500    4.667    2.667 
#    0.000    0.000    0.000    0.000    0.000    0.000 
#    0.000    0.000    0.000    0.000    0.000    0.000 
#
# Total GULP energy -133673.148441 kJ/mol
# GULP energy per Si atom -5569.714518 kJ/mol
# Density = 2.174792 g / cm^3
# Si number density = 21.797535 Si / 1000 Ang^3
#
#
#
# Elastic Constant Matrix: (Units=GPa)
#
#
# Indices 1 2 3 4 5 6 
#
# 1 2.4153 -89.2069 88.7555 -0.0012 -11.7418 -0.0003
# 2 -89.2069 36.9169 82.9990 -0.0049 -36.7380 0.0002
# 3 88.7555 82.9990 10.8600 -0.0080 -7.1477 0.0002
# 4 -0.0012 -0.0049 -0.0080 76.7667 0.0007 -13.8365
# 5 -11.7418 -36.7380 -7.1477 0.0007 36.7805 0.0008
# 6 -0.0003 0.0002 0.0002 -13.8365 0.0008 39.5784
#
#
#
# Elastic Compliance Matrix: (Units=1/GPa)
#
#
# Indices 1 2 3 4 5 6 
#
# 1 0.004066 -0.005313 0.005426 0.000000 -0.002954 0.000000
# 2 -0.005313 0.005295 0.006098 0.000001 0.004778 0.000000
# 3 0.005426 0.006098 0.007202 0.000001 0.009223 0.000000
# 4 0.000000 0.000001 0.000001 0.013903 0.000001 0.004860
# 5 -0.002954 0.004778 0.009223 0.000001 0.032810 0.000000
# 6 0.000000 0.000000 0.000000 0.004860 0.000000 0.026965
#
#
# Mechanical properties :
#
#
# Convention : Reuss Voigt Hill
#
# Bulk Modulus (GPa) = 34.50040 23.92083 29.21062
# Shear Modulus (GPa) = 57.15656 28.46807 42.81232
#
# Velocity S-wave (km/s) = 5.12626 3.61781 4.43661
# Velocity P-wave (km/s) = 7.13442 5.33379 6.29878
#
# Compressibility (1/GPa) = 0.02898517
#
# Stress axis : x y z
#
# Youngs Moduli (GPa) = 245.92695 188.87214 138.85831
#
# Poissons Ratio (x) = 1.00340 -0.75342
# Poissons Ratio (y) = 1.30651 -0.84677
# Poissons Ratio (z) = -1.33436 -1.15177
#
# Static dielectric constant tensor:
#      x y z
#    x 1.815390 0.000000 0.000400 
#    y 0.000000 1.774340 0.000000 
#    z 0.000400 0.000000 1.858930 
# 
# From -- ./inp_files/174502.got.cif
#   From: 2010.05.17/outbox.cif.g08.bks.cpg/sg15_88_cif.got.tgz:174502.got - 2010.06.03 18:47:42.
