data_PCOD9305388
_publ_section_title
;
Structure prediction by ZEFSAII (Michael W. Deem and Ramdas Pophale) SiO2 
 PCOD9305388
Probable space group: C 2/C
;
_chemical_formula_sum "Si O2"
_cell_formula_units_Z 44
_cell_length_a 9.482674
_cell_length_b 13.616558
_cell_length_c 16.854493
_cell_angle_alpha 90.000000
_cell_angle_beta 130.989025
_cell_angle_gamma 90.000000
_cell_volume 1642.729355
_symmetry_space_group_name_H-M "C 2/C"
_symmetry_group_IT_number 15
_symmetry_cell_setting 'monoclinic'
loop_
_space_group_symop_operation_xyz
x,y,z
-x,y,1/2-z
-x,-y,-z
x,-y,1/2+z
1/2+x,1/2+y,z
1/2-x,1/2+y,1/2-z
1/2-x,1/2-y,-z
1/2+x,1/2-y,1/2+z
loop_
_atom_site_type_symbol
_atom_site_label
_atom_site_fract_x
_atom_site_fract_y
_atom_site_fract_z
Si Si1 0.514505 0.111085 0.839135
Si Si2 0.044632 0.114139 0.498989
Si Si3 0.652326 0.374646 0.417445
Si Si4 0.000000 0.029432 0.250000
Si Si5 0.315049 0.318396 0.763294
Si Si6 0.000000 0.500000 0.000000
Si Si7 0.000000 0.278286 0.750000
O O1 0.500000 0.052764 0.750000
O O2 0.735654 0.135311 0.926755
O O3 0.381819 0.206909 0.775468
O O4 0.457523 0.061527 0.900442
O O5 0.941166 0.163170 0.536141
O O6 0.953370 0.144501 0.382875
O O7 0.000000 0.000000 0.500000
O O8 0.514829 0.458098 0.329555
O O9 0.846879 0.430532 0.491840
O O10 0.646324 0.289803 0.350261
O O11 0.831278 0.107524 0.194706
O O12 0.112584 0.331422 0.724257
#
# Coordination Sequence:
#
# PCOD9305388 Si02
#       7
#     8   8   8   4   8   4   4
#     4  12  26  48  76 110 153 203 259 320 388 461
#     4  12  25  46  71 109 148 196 254 319 383 455
#     4  11  25  47  71 103 152 197 251 316 386 459
#     4  11  24  44  72  99 142 200 248 303 386 460
#     4  12  25  47  74 111 149 200 254 322 382 461
#     4  12  24  46  76 110 148 208 252 316 388 460
#     4  11  26  48  72 109 152 194 252 325 380 462
#
# _framework density 26.784693000000001
#
# number of rings (size 3 to 8) (size 9 to 14) (size 15 to 20)
#    0.000    0.364    6.364    1.636    2.545    2.182 
#    1.636    0.000    0.000    0.000    0.000    0.000 
#    0.000    0.000    0.000    0.000    0.000    0.000 
#
# Total GULP energy -122760.047244 kJ/mol
# GULP energy per Si atom -5580.002147 kJ/mol
# Density = 2.672373 g / cm^3
# Si number density = 26.784693 Si / 1000 Ang^3
#
#
#
# Elastic Constant Matrix: (Units=GPa)
#
#
# Indices 1 2 3 4 5 6 
#
# 1 154.2990 21.1267 13.4030 0.0000 -15.5875 0.0000
# 2 21.1267 74.9688 24.7429 0.0000 -11.0024 0.0000
# 3 13.4030 24.7429 96.2524 0.0000 -19.7180 0.0000
# 4 0.0000 0.0000 0.0000 29.5011 0.0000 -1.7273
# 5 -15.5875 -11.0024 -19.7180 0.0000 65.9104 0.0000
# 6 0.0000 0.0000 0.0000 -1.7273 0.0000 30.2602
#
#
#
# Elastic Compliance Matrix: (Units=1/GPa)
#
#
# Indices 1 2 3 4 5 6 
#
# 1 0.006859 -0.001658 -0.000270 0.000000 0.001265 0.000000
# 2 -0.001658 0.015098 -0.003424 0.000000 0.001104 0.000000
# 3 -0.000270 -0.003424 0.011907 0.000000 0.002927 0.000000
# 4 0.000000 0.000000 0.000000 0.034011 0.000000 0.001941
# 5 0.001265 0.001104 0.002927 0.000000 0.016531 0.000000
# 6 0.000000 0.000000 0.000000 0.001941 0.000000 0.033158
#
#
# Mechanical properties :
#
#
# Convention : Reuss Voigt Hill
#
# Bulk Modulus (GPa) = 43.17858 49.34062 46.25960
# Shear Modulus (GPa) = 36.76801 42.88419 39.82610
#
# Velocity S-wave (km/s) = 3.70905 4.00568 3.86021
# Velocity P-wave (km/s) = 5.87353 6.31309 6.09727
#
# Compressibility (1/GPa) = 0.02315963
#
# Stress axis : x y z
#
# Youngs Moduli (GPa) = 145.79024 66.23256 83.98641
#
# Poissons Ratio (x) = 0.10984 0.02266
# Poissons Ratio (y) = 0.24177 0.28758
# Poissons Ratio (z) = 0.03933 0.22679
#
# Static dielectric constant tensor:
#      x y z
#    x 2.138460 0.000000 0.052620 
#    y 0.000000 2.142720 0.000000 
#    z 0.052620 0.000000 2.178130 
# 
# From -- ./inp_files/189360.got.cif
#   From: 2010.05.17/outbox.cif.g08.bks.cpg/sg15_95_cif.got.tgz:189360.got - 2010.06.03 18:47:42.
