data_PCOD9305250
_publ_section_title
;
Structure prediction by ZEFSAII (Michael W. Deem and Ramdas Pophale) SiO2 
 PCOD9305250
Probable space group: C 2/C
;
_chemical_formula_sum "Si O2"
_cell_formula_units_Z 44
_cell_length_a 8.368375
_cell_length_b 16.789515
_cell_length_c 14.065411
_cell_angle_alpha 90.000000
_cell_angle_beta 61.184369
_cell_angle_gamma 90.000000
_cell_volume 1731.500722
_symmetry_space_group_name_H-M "C 2/C"
_symmetry_group_IT_number 15
_symmetry_cell_setting 'monoclinic'
loop_
_space_group_symop_operation_xyz
x,y,z
-x,y,1/2-z
-x,-y,-z
x,-y,1/2+z
1/2+x,1/2+y,z
1/2-x,1/2+y,1/2-z
1/2-x,1/2-y,-z
1/2+x,1/2-y,1/2+z
loop_
_atom_site_type_symbol
_atom_site_label
_atom_site_fract_x
_atom_site_fract_y
_atom_site_fract_z
Si Si1 0.357433 0.794675 0.621313
Si Si2 0.500000 0.692229 0.750000
Si Si3 0.259305 0.059465 0.630005
Si Si4 0.239432 0.566672 0.226057
Si Si5 0.551933 0.679282 0.056950
Si Si6 0.169245 0.545609 0.572008
O O1 0.385819 0.741320 0.705919
O O2 0.379780 0.882488 0.662238
O O3 0.481951 0.753786 0.503524
O O4 0.165499 0.796521 0.619285
O O5 0.641725 0.637496 0.653300
O O6 0.466420 0.075787 0.605714
O O7 0.176112 0.002817 0.734800
O O8 0.265154 0.007839 0.534155
O O9 0.377860 0.630177 0.141125
O O10 0.165175 0.514347 0.160813
O O11 0.689030 0.618614 0.961747
#
# Coordination Sequence:
#
# PCOD9305250 Si02
#       6
#     8   4   8   8   8   8
#     4  11  27  43  72 111 154 197 260 319 391 464
#     4  12  26  46  72 110 156 204 258 318 400 460
#     4  11  25  44  71 108 148 202 266 320 381 474
#     4  12  24  46  79 111 154 207 257 326 390 467
#     4  11  24  49  74 108 155 210 258 319 404 475
#     4  11  24  43  75 106 149 197 268 325 384 462
#
# _framework density 25.411481999999999
#
# number of rings (size 3 to 8) (size 9 to 14) (size 15 to 20)
#    0.000    0.727    1.818    4.909    2.545    4.364 
#    0.000    2.727    0.000    0.000    0.000    0.000 
#    0.000    0.000    0.000    0.000    0.000    0.000 
#
# Total GULP energy -123124.564053 kJ/mol
# GULP energy per Si atom -5596.571093 kJ/mol
# Density = 2.535364 g / cm^3
# Si number density = 25.411482 Si / 1000 Ang^3
#
#
#
# Elastic Constant Matrix: (Units=GPa)
#
#
# Indices 1 2 3 4 5 6 
#
# 1 68.7264 63.2417 49.0156 0.0000 8.2115 0.0000
# 2 63.2417 134.3395 48.7904 0.0000 9.1183 0.0000
# 3 49.0156 48.7904 98.7902 0.0000 20.9114 0.0000
# 4 0.0000 0.0000 0.0000 52.5343 0.0000 -3.8832
# 5 8.2115 9.1183 20.9114 0.0000 38.2356 0.0000
# 6 0.0000 0.0000 0.0000 -3.8832 0.0000 1.8787
#
#
#
# Elastic Compliance Matrix: (Units=1/GPa)
#
#
# Indices 1 2 3 4 5 6 
#
# 1 0.032790 -0.011592 -0.010901 0.000000 0.001684 0.000000
# 2 -0.011592 0.013172 -0.000697 0.000000 -0.000271 0.000000
# 3 -0.010901 -0.000697 0.017353 0.000000 -0.006983 0.000000
# 4 0.000000 0.000000 0.000000 0.022468 0.000000 0.046440
# 5 0.001684 -0.000271 -0.006983 0.000000 0.029676 0.000000
# 6 0.000000 0.000000 0.000000 0.046440 0.000000 0.628275
#
#
# Mechanical properties :
#
#
# Convention : Reuss Voigt Hill
#
# Bulk Modulus (GPa) = 59.04143 69.32795 64.18469
# Shear Modulus (GPa) = 6.28331 27.91694 17.10013
#
# Velocity S-wave (km/s) = 1.57417 3.31810 2.59690
# Velocity P-wave (km/s) = 5.15641 6.48237 5.85703
#
# Compressibility (1/GPa) = 0.01693726
#
# Stress axis : x y z
#
# Youngs Moduli (GPa) = 30.49692 75.91764 57.62574
#
# Poissons Ratio (x) = 0.88001 0.62816
# Poissons Ratio (y) = 0.35351 0.04016
# Poissons Ratio (z) = 0.33244 0.05291
#
# Static dielectric constant tensor:
#      x y z
#    x 2.196700 0.000000 -0.009670 
#    y 0.000000 1.972410 0.000000 
#    z -0.009670 0.000000 2.000190 
# 
# From -- ./inp_files/134268.got.cif
#   From: 2010.05.17/outbox.cif.g08.bks.cpg/sg15_68_cif.got.tgz:134268.got - 2010.06.03 18:47:42.
