data_PCOD9305175
_publ_section_title
;
Structure prediction by ZEFSAII (Michael W. Deem and Ramdas Pophale) SiO2 
 PCOD9305175
Probable space group: C 2/C
;
_chemical_formula_sum "Si O2"
_cell_formula_units_Z 64
_cell_length_a 23.053212
_cell_length_b 18.269716
_cell_length_c 20.568268
_cell_angle_alpha 90.000000
_cell_angle_beta 160.392547
_cell_angle_gamma 90.000000
_cell_volume 2907.029299
_symmetry_space_group_name_H-M "C 2/C"
_symmetry_group_IT_number 15
_symmetry_cell_setting 'monoclinic'
loop_
_space_group_symop_operation_xyz
x,y,z
-x,y,1/2-z
-x,-y,-z
x,-y,1/2+z
1/2+x,1/2+y,z
1/2-x,1/2+y,1/2-z
1/2-x,1/2-y,-z
1/2+x,1/2-y,1/2+z
loop_
_atom_site_type_symbol
_atom_site_label
_atom_site_fract_x
_atom_site_fract_y
_atom_site_fract_z
Si Si1 0.151332 0.655924 0.729876
Si Si2 0.963502 0.920648 0.497548
Si Si3 0.276100 0.185504 0.157460
Si Si4 0.889017 0.328264 0.567440
Si Si5 0.532164 0.598000 0.711975
Si Si6 0.684307 0.167663 0.917782
Si Si7 0.077787 0.926914 0.765875
Si Si8 0.238757 0.308298 0.713527
O O1 0.191482 0.643738 0.849119
O O2 0.214082 0.738879 0.780764
O O3 0.943075 0.654388 0.499494
O O4 0.262187 0.604263 0.796493
O O5 0.023330 0.910975 0.635826
O O6 0.095364 0.861751 0.606063
O O7 0.000000 0.000000 0.500000
O O8 0.465660 0.162984 0.334187
O O9 0.291338 0.218903 0.244797
O O10 0.193458 0.247654 0.024477
O O11 0.135402 0.120989 0.005588
O O12 0.717905 0.377222 0.381756
O O13 0.000000 0.339984 0.750000
O O14 0.500000 0.629681 0.750000
O O15 0.544344 0.512081 0.732983
O O16 0.500000 0.181121 0.750000
O O17 0.750000 0.250000 0.000000
O O18 0.735466 0.102108 0.021722
O O19 0.000000 0.890089 0.750000
#
# Coordination Sequence:
#
# PCOD9305175 Si02
#       8
#     8   8   8   8   8   8   8   8
#     4  12  25  47  74 111 150 191 254 312 372 456
#     4  12  27  49  75 107 153 202 244 306 383 453
#     4  12  24  40  66  98 140 188 240 292 357 431
#     4  12  23  39  66 100 137 180 240 303 361 422
#     4  11  24  43  67 100 140 186 232 298 362 431
#     4  12  25  44  79 113 145 185 240 313 384 445
#     4  11  24  47  71 102 143 183 239 296 371 441
#     4  12  27  45  71 108 146 195 247 306 373 455
#
# _framework density 22.015602000000001
#
# number of rings (size 3 to 8) (size 9 to 14) (size 15 to 20)
#    0.000    0.250    5.000    4.875    0.000    4.000 
#    0.000    0.000    0.000    0.000    0.000    0.000 
#    0.000    0.000    0.000    0.000    0.000    0.000 
#
# Total GULP energy -178229.721390 kJ/mol
# GULP energy per Si atom -5569.678793 kJ/mol
# Density = 2.196549 g / cm^3
# Si number density = 22.015602 Si / 1000 Ang^3
#
#
#
# Elastic Constant Matrix: (Units=GPa)
#
#
# Indices 1 2 3 4 5 6 
#
# 1 121.8469 46.7135 50.6293 0.0123 17.9513 0.0145
# 2 46.7135 326.4563 161.8120 0.0536 55.0588 0.0338
# 3 50.6293 161.8120 175.0265 0.0288 56.5014 0.0297
# 4 0.0123 0.0536 0.0288 34.4397 0.0107 3.9500
# 5 17.9513 55.0588 56.5014 0.0107 50.9952 0.0093
# 6 0.0145 0.0338 0.0297 3.9500 0.0093 31.7154
#
#
#
# Elastic Compliance Matrix: (Units=1/GPa)
#
#
# Indices 1 2 3 4 5 6 
#
# 1 0.009335 0.000012 -0.002563 -0.000001 -0.000459 -0.000002
# 2 0.000012 0.005662 -0.005080 -0.000004 -0.000489 -0.000001
# 3 -0.002563 -0.005080 0.014151 0.000000 -0.009292 -0.000004
# 4 -0.000001 -0.000004 0.000000 0.029457 -0.000001 -0.003669
# 5 -0.000459 -0.000489 -0.009292 -0.000001 0.030594 0.000001
# 6 -0.000002 -0.000001 -0.000004 -0.003669 0.000001 0.031987
#
#
# Mechanical properties :
#
#
# Convention : Reuss Voigt Hill
#
# Bulk Modulus (GPa) = 72.01880 126.84883 99.43381
# Shear Modulus (GPa) = 35.44141 47.70836 41.57489
#
# Velocity S-wave (km/s) = 4.01662 4.66018 4.35032
# Velocity P-wave (km/s) = 7.36849 9.31124 8.39624
#
# Compressibility (1/GPa) = 0.01388526
#
# Stress axis : x y z
#
# Youngs Moduli (GPa) = 107.12234 176.61713 70.66550
#
# Poissons Ratio (x) = -0.00216 0.18115
# Poissons Ratio (y) = -0.00131 0.35900
# Poissons Ratio (z) = 0.27460 0.89727
#
# Static dielectric constant tensor:
#      x y z
#    x 1.889590 0.000010 -0.027590 
#    y 0.000010 1.797900 -0.000020 
#    z -0.027590 -0.000020 1.852330 
# 
# From -- ./inp_files/256048.got.cif
#   From: 2010.05.17/outbox.cif.g08.bks.cpg/sg15_129_cif.got.tgz:256048.got - 2010.06.03 18:47:42.
