data_PCOD9305876
_publ_section_title
;
Structure prediction by ZEFSAII (Michael W. Deem and Ramdas Pophale) SiO2 
 PCOD9305876
Probable space group: C 2/C
;
_chemical_formula_sum "Si O2"
_cell_formula_units_Z 40
_cell_length_a 14.836740
_cell_length_b 8.108411
_cell_length_c 14.579571
_cell_angle_alpha 90.000000
_cell_angle_beta 113.335024
_cell_angle_gamma 90.000000
_cell_volume 1610.491229
_symmetry_space_group_name_H-M "C 2/C"
_symmetry_group_IT_number 15
_symmetry_cell_setting 'monoclinic'
loop_
_space_group_symop_operation_xyz
x,y,z
-x,y,1/2-z
-x,-y,-z
x,-y,1/2+z
1/2+x,1/2+y,z
1/2-x,1/2+y,1/2-z
1/2-x,1/2-y,-z
1/2+x,1/2-y,1/2+z
loop_
_atom_site_type_symbol
_atom_site_label
_atom_site_fract_x
_atom_site_fract_y
_atom_site_fract_z
Si Si1 0.787969 0.590881 0.460850
Si Si2 0.893396 0.909407 0.852262
Si Si3 0.585909 0.912025 0.841337
Si Si4 0.292382 0.757086 0.769539
Si Si5 0.411716 0.432432 0.078987
O O1 0.750000 0.750000 0.500000
O O2 0.870757 0.509865 0.556345
O O3 0.819959 0.647328 0.373813
O O4 0.693529 0.471493 0.420040
O O5 0.826217 0.762331 0.787321
O O6 0.838656 0.076647 0.797383
O O7 0.895441 0.912187 0.963700
O O8 0.007069 0.927491 0.870013
O O9 0.500000 0.997029 0.750000
O O10 0.668933 0.857799 0.802438
O O11 0.546923 0.738334 0.865565
#
# Coordination Sequence:
#
# PCOD9305876 Si02
#       5
#     8   8   8   8   8
#     4  12  26  47  70 107 150 185 240 306 359 422
#     4  11  25  45  74 106 140 190 244 297 365 436
#     4  12  26  48  75 103 144 196 243 292 363 437
#     4  12  24  46  71 106 142 188 242 295 363 431
#     4  11  24  48  72 103 142 191 243 294 362 435
#
# _framework density 24.837142
#
# number of rings (size 3 to 8) (size 9 to 14) (size 15 to 20)
#    0.000    0.400    6.000    1.800    2.800    0.800 
#    7.200    0.000    0.000    0.000    0.000    0.000 
#    0.000    0.000    0.000    0.000    0.000    0.000 
#
# Total GULP energy -112151.982964 kJ/mol
# GULP energy per Si atom -5607.599148 kJ/mol
# Density = 2.478061 g / cm^3
# Si number density = 24.837142 Si / 1000 Ang^3
#
#
#
# Elastic Constant Matrix: (Units=GPa)
#
#
# Indices 1 2 3 4 5 6 
#
# 1 52.6861 -2.4927 22.3059 0.0000 29.8008 0.0000
# 2 -2.4927 44.1649 20.5148 0.0000 10.2621 0.0000
# 3 22.3059 20.5148 159.6995 0.0000 9.6015 0.0000
# 4 0.0000 0.0000 0.0000 45.9653 0.0000 3.3450
# 5 29.8008 10.2621 9.6015 0.0000 51.0667 0.0000
# 6 0.0000 0.0000 0.0000 3.3450 0.0000 28.6035
#
#
#
# Elastic Compliance Matrix: (Units=1/GPa)
#
#
# Indices 1 2 3 4 5 6 
#
# 1 0.032474 0.008500 -0.004436 0.000000 -0.019825 0.000000
# 2 0.008500 0.027278 -0.004110 0.000000 -0.009669 0.000000
# 3 -0.004436 -0.004110 0.007286 0.000000 0.002044 0.000000
# 4 0.000000 0.000000 0.000000 0.021942 0.000000 -0.002566
# 5 -0.019825 -0.009669 0.002044 0.000000 0.032710 0.000000
# 6 0.000000 0.000000 0.000000 -0.002566 0.000000 0.035261
#
#
# Mechanical properties :
#
#
# Convention : Reuss Voigt Hill
#
# Bulk Modulus (GPa) = 14.93735 37.46738 26.20237
# Shear Modulus (GPa) = 27.87712 39.54193 33.70953
#
# Velocity S-wave (km/s) = 3.35385 3.99438 3.68805
# Velocity P-wave (km/s) = 4.58530 6.03253 5.35800
#
# Compressibility (1/GPa) = 0.06694628
#
# Stress axis : x y z
#
# Youngs Moduli (GPa) = 30.79400 36.65963 137.24274
#
# Poissons Ratio (x) = -0.31160 0.60877
# Poissons Ratio (y) = -0.26174 0.56406
# Poissons Ratio (z) = 0.13659 0.15067
#
# Static dielectric constant tensor:
#      x y z
#    x 2.038530 0.000000 0.026530 
#    y 0.000000 2.045470 0.000000 
#    z 0.026530 0.000000 1.933620 
# 
# From -- ./inp_files/150758.got.cif
#   From: 2010.05.17/outbox.cif.g08.bks.cpg/sg15_76_cif.got.tgz:150758.got - 2010.06.03 18:47:42.
