data_PCOD9305709
_publ_section_title
;
Structure prediction by ZEFSAII (Michael W. Deem and Ramdas Pophale) SiO2 
 PCOD9305709
Probable space group: C 2/C
;
_chemical_formula_sum "Si O2"
_cell_formula_units_Z 36
_cell_length_a 7.084432
_cell_length_b 17.396160
_cell_length_c 13.856947
_cell_angle_alpha 90.000000
_cell_angle_beta 130.939266
_cell_angle_gamma 90.000000
_cell_volume 1290.047203
_symmetry_space_group_name_H-M "C 2/C"
_symmetry_group_IT_number 15
_symmetry_cell_setting 'monoclinic'
loop_
_space_group_symop_operation_xyz
x,y,z
-x,y,1/2-z
-x,-y,-z
x,-y,1/2+z
1/2+x,1/2+y,z
1/2-x,1/2+y,1/2-z
1/2-x,1/2-y,-z
1/2+x,1/2-y,1/2+z
loop_
_atom_site_type_symbol
_atom_site_label
_atom_site_fract_x
_atom_site_fract_y
_atom_site_fract_z
Si Si1 0.841095 0.876210 0.048385
Si Si2 0.310741 0.288875 0.419300
Si Si3 0.134493 0.402142 0.181196
Si Si4 0.000000 0.158175 0.250000
Si Si5 0.264952 0.561903 0.330594
O O1 0.653930 0.893483 0.071704
O O2 0.894839 0.806669 0.992284
O O3 0.111779 0.862983 0.191668
O O4 0.833477 0.944717 0.967378
O O5 0.250000 0.250000 0.500000
O O6 0.226184 0.218999 0.322006
O O7 0.120874 0.362594 0.369836
O O8 0.184713 0.487550 0.239268
O O9 0.031042 0.104141 0.167183
O O10 0.000000 0.605833 0.250000
#
# Coordination Sequence:
#
# PCOD9305709 Si02
#       5
#     8   8   8   4   8
#     4  11  24  46  75 107 147 196 250 308 377 444
#     4  12  25  48  76 107 153 200 251 315 377 450
#     4  11  26  47  74 111 150 196 255 310 381 450
#     4  12  26  48  74 112 152 196 254 308 382 450
#     4  12  28  46  73 111 152 197 251 313 377 455
#
# _framework density 27.905956
#
# number of rings (size 3 to 8) (size 9 to 14) (size 15 to 20)
#    0.000    0.444    4.444    3.333    3.111    3.556 
#    0.000    0.000    0.000    1.333    0.000    0.000 
#    0.000    0.000    0.000    0.000    0.000    0.000 
#
# Total GULP energy -100275.793272 kJ/mol
# GULP energy per Si atom -5570.877404 kJ/mol
# Density = 2.784244 g / cm^3
# Si number density = 27.905956 Si / 1000 Ang^3
#
#
#
# Elastic Constant Matrix: (Units=GPa)
#
#
# Indices 1 2 3 4 5 6 
#
# 1 195.0451 63.0226 37.4756 0.0000 -53.3757 0.0000
# 2 63.0226 133.1969 30.9405 0.0000 -5.6618 0.0000
# 3 37.4756 30.9405 86.7933 0.0000 -28.2349 0.0000
# 4 0.0000 0.0000 0.0000 14.6088 0.0000 -8.1720
# 5 -53.3757 -5.6618 -28.2349 0.0000 58.7930 0.0000
# 6 0.0000 0.0000 0.0000 -8.1720 0.0000 21.7544
#
#
#
# Elastic Compliance Matrix: (Units=1/GPa)
#
#
# Indices 1 2 3 4 5 6 
#
# 1 0.008242 -0.003609 0.000058 0.000000 0.007163 0.000000
# 2 -0.003609 0.009792 -0.003190 0.000000 -0.003865 0.000000
# 3 0.000058 -0.003190 0.014875 0.000000 0.006889 0.000000
# 4 0.000000 0.000000 0.000000 0.086662 0.000000 0.032554
# 5 0.007163 -0.003865 0.006889 0.000000 0.026448 0.000000
# 6 0.000000 0.000000 0.000000 0.032554 0.000000 0.058197
#
#
# Mechanical properties :
#
#
# Convention : Reuss Voigt Hill
#
# Bulk Modulus (GPa) = 51.47380 75.32363 63.39872
# Shear Modulus (GPa) = 22.30419 37.93769 30.12094
#
# Velocity S-wave (km/s) = 2.83019 3.69112 3.28895
# Velocity P-wave (km/s) = 5.40051 6.72431 6.09843
#
# Compressibility (1/GPa) = 0.01942736
#
# Stress axis : x y z
#
# Youngs Moduli (GPa) = 121.32719 102.12560 67.22776
#
# Poissons Ratio (x) = 0.36855 -0.00389
# Poissons Ratio (y) = 0.43784 0.21445
# Poissons Ratio (z) = -0.00702 0.32577
#
# Static dielectric constant tensor:
#      x y z
#    x 2.964830 0.000000 -0.354180 
#    y 0.000000 3.566910 0.000000 
#    z -0.354180 0.000000 2.847220 
# 
# From -- ./inp_files/134038.got.cif
#   From: 2010.05.17/outbox.cif.g08.bks.cpg/sg15_68_cif.got.tgz:134038.got - 2010.06.03 18:47:42.
