data_PCOD9305486
_publ_section_title
;
Structure prediction by ZEFSAII (Michael W. Deem and Ramdas Pophale) SiO2 
 PCOD9305486
Probable space group: C 2/C
;
_chemical_formula_sum "Si O2"
_cell_formula_units_Z 60
_cell_length_a 8.672886
_cell_length_b 15.257890
_cell_length_c 20.005543
_cell_angle_alpha 90.000000
_cell_angle_beta 104.381082
_cell_angle_gamma 90.000000
_cell_volume 2564.378743
_symmetry_space_group_name_H-M "C 2/C"
_symmetry_group_IT_number 15
_symmetry_cell_setting 'monoclinic'
loop_
_space_group_symop_operation_xyz
x,y,z
-x,y,1/2-z
-x,-y,-z
x,-y,1/2+z
1/2+x,1/2+y,z
1/2-x,1/2+y,1/2-z
1/2-x,1/2-y,-z
1/2+x,1/2-y,1/2+z
loop_
_atom_site_type_symbol
_atom_site_label
_atom_site_fract_x
_atom_site_fract_y
_atom_site_fract_z
Si Si1 0.686063 0.426418 0.556336
Si Si2 0.500000 0.391817 0.750000
Si Si3 0.459073 0.720783 0.376972
Si Si4 0.298401 0.241485 0.389809
Si Si5 0.274850 0.537277 0.693000
Si Si6 0.541064 0.056362 0.071065
Si Si7 0.312848 0.712924 0.742389
Si Si8 0.498681 0.416630 0.094770
O O1 0.588122 0.341427 0.568109
O O2 0.636714 0.439884 0.474315
O O3 0.630010 0.509335 0.593687
O O4 0.872532 0.412560 0.582185
O O5 0.501654 0.340257 0.681785
O O6 0.345077 0.452051 0.734233
O O7 0.628242 0.768670 0.404512
O O8 0.298633 0.766747 0.333610
O O9 0.355225 0.146531 0.424044
O O10 0.276162 0.236315 0.306564
O O11 0.425952 0.320693 0.408750
O O12 0.126626 0.508692 0.632476
O O13 0.260608 0.612057 0.746802
O O14 0.411602 0.571785 0.656247
O O15 0.500000 0.000000 0.000000
O O16 0.500000 0.725026 0.750000
#
# Coordination Sequence:
#
# PCOD9305486 Si02
#       8
#     8   4   8   8   8   8   8   8
#     4  11  26  45  69 105 140 189 242 288 362 433
#     4  12  20  44  70  92 136 200 222 286 368 426
#     4  12  25  44  70 100 145 186 237 298 362 430
#     4  12  25  46  69 105 143 188 241 302 365 426
#     4  12  23  45  73 102 143 194 237 297 371 428
#     4  12  26  47  75 105 145 191 244 297 365 445
#     4  12  24  42  72 105 138 181 244 299 358 429
#     4  11  24  45  70 100 143 186 239 294 356 434
#
# _framework density 23.397479000000001
#
# number of rings (size 3 to 8) (size 9 to 14) (size 15 to 20)
#    0.000    0.267    7.333    0.800    3.733    2.133 
#    0.000    0.000    0.000    0.000    0.000    0.000 
#    0.000    0.000    0.000    0.000    0.000    0.000 
#
# Total GULP energy -167667.914122 kJ/mol
# GULP energy per Si atom -5588.930471 kJ/mol
# Density = 2.334423 g / cm^3
# Si number density = 23.397479 Si / 1000 Ang^3
#
#
#
# Elastic Constant Matrix: (Units=GPa)
#
#
# Indices 1 2 3 4 5 6 
#
# 1 122.4634 19.9610 15.8837 0.0000 24.4060 0.0000
# 2 19.9610 79.6704 10.9679 0.0000 11.1513 0.0000
# 3 15.8837 10.9679 69.7766 0.0000 11.2345 0.0000
# 4 0.0000 0.0000 0.0000 62.9679 0.0000 17.4551
# 5 24.4060 11.1513 11.2345 0.0000 32.5212 0.0000
# 6 0.0000 0.0000 0.0000 17.4551 0.0000 39.2296
#
#
#
# Elastic Compliance Matrix: (Units=1/GPa)
#
#
# Indices 1 2 3 4 5 6 
#
# 1 0.009828 -0.001412 -0.000959 0.000000 -0.006560 0.000000
# 2 -0.001412 0.013522 -0.001300 0.000000 -0.003128 0.000000
# 3 -0.000959 -0.001300 0.015424 0.000000 -0.004163 0.000000
# 4 0.000000 0.000000 0.000000 0.018116 0.000000 -0.008060
# 5 -0.006560 -0.003128 -0.004163 0.000000 0.038183 0.000000
# 6 0.000000 0.000000 0.000000 -0.008060 0.000000 0.029077
#
#
# Mechanical properties :
#
#
# Convention : Reuss Voigt Hill
#
# Bulk Modulus (GPa) = 31.81553 40.61507 36.21530
# Shear Modulus (GPa) = 35.21873 41.95026 38.58449
#
# Velocity S-wave (km/s) = 3.88395 4.23891 4.06530
# Velocity P-wave (km/s) = 5.80868 6.43072 6.12760
#
# Compressibility (1/GPa) = 0.03143119
#
# Stress axis : x y z
#
# Youngs Moduli (GPa) = 101.75468 73.95180 64.83230
#
# Poissons Ratio (x) = 0.10442 0.06217
# Poissons Ratio (y) = 0.14368 0.08431
# Poissons Ratio (z) = 0.09758 0.09617
#
# Static dielectric constant tensor:
#      x y z
#    x 1.989930 0.000000 0.192040 
#    y 0.000000 1.938870 0.000000 
#    z 0.192040 0.000000 2.176680 
# 
# From -- ./inp_files/232751.got.cif
#   From: 2010.05.17/outbox.cif.g08.bks.cpg/sg15_117_cif.got.tgz:232751.got - 2010.06.03 18:47:42.
