data_PCOD9305413
_publ_section_title
;
Structure prediction by ZEFSAII (Michael W. Deem and Ramdas Pophale) SiO2 
 PCOD9305413
Probable space group: C 2/C
;
_chemical_formula_sum "Si O2"
_cell_formula_units_Z 52
_cell_length_a 6.207958
_cell_length_b 21.547094
_cell_length_c 18.586315
_cell_angle_alpha 90.000000
_cell_angle_beta 62.381845
_cell_angle_gamma 90.000000
_cell_volume 2202.887403
_symmetry_space_group_name_H-M "C 2/C"
_symmetry_group_IT_number 15
_symmetry_cell_setting 'monoclinic'
loop_
_space_group_symop_operation_xyz
x,y,z
-x,y,1/2-z
-x,-y,-z
x,-y,1/2+z
1/2+x,1/2+y,z
1/2-x,1/2+y,1/2-z
1/2-x,1/2-y,-z
1/2+x,1/2-y,1/2+z
loop_
_atom_site_type_symbol
_atom_site_label
_atom_site_fract_x
_atom_site_fract_y
_atom_site_fract_z
Si Si1 0.352193 0.959208 0.930608
Si Si2 0.620764 0.661428 0.461459
Si Si3 0.714566 0.913910 0.981747
Si Si4 0.500000 0.978741 0.750000
Si Si5 0.519072 0.743903 0.885917
Si Si6 0.000000 0.300086 0.250000
Si Si7 0.000000 0.034572 0.750000
Si Si8 0.706400 0.139490 0.859222
O O1 0.186264 0.904096 0.988292
O O2 0.259252 0.026695 0.968742
O O3 0.379965 0.950928 0.841061
O O4 0.612428 0.946241 0.926642
O O5 0.430588 0.634632 0.433725
O O6 0.499488 0.712546 0.532131
O O7 0.877054 0.691766 0.402115
O O8 0.516149 0.872465 0.053562
O O9 0.755287 0.006206 0.748298
O O10 0.790490 0.741879 0.816322
O O11 0.364366 0.696897 0.860998
O O12 0.103790 0.343803 0.296610
O O13 0.874679 0.079472 0.828056
#
# Coordination Sequence:
#
# PCOD9305413 Si02
#       8
#     8   8   8   4   8   4   4   8
#     4  11  26  45  71 110 145 204 254 317 393 473
#     4  11  25  45  72 104 153 193 258 316 391 478
#     4  11  24  44  74 107 146 197 254 324 389 473
#     4  12  29  46  73 110 161 204 261 332 398 468
#     4  11  25  43  71 109 142 205 254 324 392 462
#     4  12  23  44  69 108 149 194 261 336 382 452
#     4  12  26  44  72 112 152 200 260 332 390 456
#     4  12  23  40  72 103 141 190 260 318 390 452
#
# _framework density 23.605383
#
# number of rings (size 3 to 8) (size 9 to 14) (size 15 to 20)
#    0.000    0.615    6.154    0.923    4.308    1.846 
#    2.769    0.769    0.000    0.000    0.000    0.000 
#    0.000    0.000    0.000    0.000    0.000    0.000 
#
# Total GULP energy -145004.862507 kJ/mol
# GULP energy per Si atom -5577.110096 kJ/mol
# Density = 2.355166 g / cm^3
# Si number density = 23.605383 Si / 1000 Ang^3
#
#
#
# Elastic Constant Matrix: (Units=GPa)
#
#
# Indices 1 2 3 4 5 6 
#
# 1 103.6622 58.1213 25.0815 0.0000 -22.5283 0.0000
# 2 58.1213 97.5204 35.4354 0.0000 -16.9232 0.0000
# 3 25.0815 35.4354 75.5600 0.0000 -10.3909 0.0000
# 4 0.0000 0.0000 0.0000 73.5120 0.0000 -37.2604
# 5 -22.5283 -16.9232 -10.3909 0.0000 50.8262 0.0000
# 6 0.0000 0.0000 0.0000 -37.2604 0.0000 54.6014
#
#
#
# Elastic Compliance Matrix: (Units=1/GPa)
#
#
# Indices 1 2 3 4 5 6 
#
# 1 0.015230 -0.008147 -0.000699 0.000000 0.003895 0.000000
# 2 -0.008147 0.017185 -0.005211 0.000000 0.001045 0.000000
# 3 -0.000699 -0.005211 0.016081 0.000000 0.001243 0.000000
# 4 0.000000 0.000000 0.000000 0.020796 0.000000 0.014192
# 5 0.003895 0.001045 0.001243 0.000000 0.022003 0.000000
# 6 0.000000 0.000000 0.000000 0.014192 0.000000 0.027999
#
#
# Mechanical properties :
#
#
# Convention : Reuss Voigt Hill
#
# Bulk Modulus (GPa) = 49.06348 57.11321 53.08834
# Shear Modulus (GPa) = 32.42458 46.32820 39.37639
#
# Velocity S-wave (km/s) = 3.71024 4.43494 4.08868
# Velocity P-wave (km/s) = 6.25976 7.10440 6.69541
#
# Compressibility (1/GPa) = 0.02038176
#
# Stress axis : x y z
#
# Youngs Moduli (GPa) = 65.65847 58.19093 62.18406
#
# Poissons Ratio (x) = 0.47409 0.04348
# Poissons Ratio (y) = 0.53493 0.32404
# Poissons Ratio (z) = 0.04591 0.30323
#
# Static dielectric constant tensor:
#      x y z
#    x 2.064690 0.000000 -0.017350 
#    y 0.000000 1.850860 0.000000 
#    z -0.017350 0.000000 1.904380 
# 
# From -- ./inp_files/228080.got.cif
#   From: 2010.05.17/outbox.cif.g08.bks.cpg/sg15_115_cif.got.tgz:228080.got - 2010.06.03 18:47:42.
