data_PCOD9305006
_publ_section_title
;
Structure prediction by ZEFSAII (Michael W. Deem and Ramdas Pophale) SiO2 
 PCOD9305006
Probable space group: C 2/C
;
_chemical_formula_sum "Si O2"
_cell_formula_units_Z 40
_cell_length_a 4.982901
_cell_length_b 10.508545
_cell_length_c 32.165084
_cell_angle_alpha 90.000000
_cell_angle_beta 93.594623
_cell_angle_gamma 90.000000
_cell_volume 1680.947972
_symmetry_space_group_name_H-M "C 2/C"
_symmetry_group_IT_number 15
_symmetry_cell_setting 'monoclinic'
loop_
_space_group_symop_operation_xyz
x,y,z
-x,y,1/2-z
-x,-y,-z
x,-y,1/2+z
1/2+x,1/2+y,z
1/2-x,1/2+y,1/2-z
1/2-x,1/2-y,-z
1/2+x,1/2-y,1/2+z
loop_
_atom_site_type_symbol
_atom_site_label
_atom_site_fract_x
_atom_site_fract_y
_atom_site_fract_z
Si Si1 0.822064 0.716860 0.155307
Si Si2 0.254213 0.914863 0.278782
Si Si3 0.352163 0.887041 0.421611
Si Si4 0.612756 0.630156 0.523325
Si Si5 0.819505 0.082516 0.142458
O O1 0.803473 0.779201 0.200214
O O2 0.666479 0.798446 0.118886
O O3 0.637056 0.592315 0.152401
O O4 0.129385 0.705484 0.144418
O O5 0.500000 0.909413 0.250000
O O6 0.290766 0.004108 0.319057
O O7 0.000000 0.958488 0.250000
O O8 0.148864 0.827793 0.453268
O O9 0.644618 0.907228 0.443356
O O10 0.238557 0.019359 0.402389
O O11 0.500000 0.500000 0.500000
O O12 0.750000 0.750000 0.500000
#
# Coordination Sequence:
#
# PCOD9305006 Si02
#       5
#     8   8   8   8   8
#     4  11  24  42  69  96 130 184 228 278 351 413
#     4  11  24  41  62  98 138 170 228 286 340 416
#     4  11  26  46  70  99 140 178 232 292 341 438
#     4  12  28  47  74 107 144 186 235 296 368 424
#     4  11  24  42  69  96 130 184 228 278 351 413
#
# _framework density 23.796097
#
# number of rings (size 3 to 8) (size 9 to 14) (size 15 to 20)
#    0.000    0.800    0.000    6.000    8.400   11.200 
#    0.000    0.000    0.000    0.000    0.000    0.000 
#    0.000    0.000    0.000    0.000    0.000    0.000 
#
# Total GULP energy -111717.791909 kJ/mol
# GULP energy per Si atom -5585.889595 kJ/mol
# Density = 2.374194 g / cm^3
# Si number density = 23.796097 Si / 1000 Ang^3
#
#
#
# Elastic Constant Matrix: (Units=GPa)
#
#
# Indices 1 2 3 4 5 6 
#
# 1 153.6181 9.7912 38.4430 0.0000 -1.0181 0.0000
# 2 9.7912 38.6734 21.3954 0.0000 -0.1838 0.0000
# 3 38.4430 21.3954 103.9342 0.0000 2.0177 0.0000
# 4 0.0000 0.0000 0.0000 -62.0419 0.0000 63.4056
# 5 -1.0181 -0.1838 2.0177 0.0000 47.6967 0.0000
# 6 0.0000 0.0000 0.0000 63.4056 0.0000 -8.7467
#
#
#
# Elastic Compliance Matrix: (Units=1/GPa)
#
#
# Indices 1 2 3 4 5 6 
#
# 1 0.007182 -0.000389 -0.002582 0.000000 0.000261 0.000000
# 2 -0.000389 0.029208 -0.005876 0.000000 0.000353 0.000000
# 3 -0.002582 -0.005876 0.011797 0.000000 -0.000577 0.000000
# 4 0.000000 0.000000 0.000000 0.002515 0.000000 0.018233
# 5 0.000261 0.000353 -0.000577 0.000000 0.020997 0.000000
# 6 0.000000 0.000000 0.000000 0.018233 0.000000 0.017840
#
#
# Mechanical properties :
#
#
# Convention : Reuss Voigt Hill
#
# Bulk Modulus (GPa) = 32.79197 48.38720 40.58959
# Shear Modulus (GPa) = 42.59030 10.48803 26.53917
#
# Velocity S-wave (km/s) = 4.23519 2.10167 3.34319
# Velocity P-wave (km/s) = 6.14216 5.12519 5.65658
#
# Compressibility (1/GPa) = 0.03049527
#
# Stress axis : x y z
#
# Youngs Moduli (GPa) = 139.23307 34.23684 84.76683
#
# Poissons Ratio (x) = 0.01332 0.21883
# Poissons Ratio (y) = 0.05415 0.49806
# Poissons Ratio (z) = 0.35944 0.20116
#
# Static dielectric constant tensor:
#      x y z
#    x 1.827660 0.000000 0.055960 
#    y 0.000000 2.147970 0.000000 
#    z 0.055960 0.000000 1.773050 
# 
# From -- ./inp_files/290592.got.cif
#   From: 2010.05.17/outbox.cif.g08.bks.cpg/sg15_146_cif.got.tgz:290592.got - 2010.06.03 18:47:42.
