data_PCOD9305099
_publ_section_title
;
Structure prediction by ZEFSAII (Michael W. Deem and Ramdas Pophale) SiO2 
 PCOD9305099
Probable space group: C 2/C
;
_chemical_formula_sum "Si O2"
_cell_formula_units_Z 52
_cell_length_a 11.594869
_cell_length_b 15.791136
_cell_length_c 14.817642
_cell_angle_alpha 90.000000
_cell_angle_beta 116.661950
_cell_angle_gamma 90.000000
_cell_volume 2424.573168
_symmetry_space_group_name_H-M "C 2/C"
_symmetry_group_IT_number 15
_symmetry_cell_setting 'monoclinic'
loop_
_space_group_symop_operation_xyz
x,y,z
-x,y,1/2-z
-x,-y,-z
x,-y,1/2+z
1/2+x,1/2+y,z
1/2-x,1/2+y,1/2-z
1/2-x,1/2-y,-z
1/2+x,1/2-y,1/2+z
loop_
_atom_site_type_symbol
_atom_site_label
_atom_site_fract_x
_atom_site_fract_y
_atom_site_fract_z
Si Si1 0.928251 0.507318 0.838259
Si Si2 0.322081 0.745889 0.929611
Si Si3 0.264609 0.940483 0.923106
Si Si4 0.610185 0.192823 0.723898
Si Si5 0.795163 0.465262 0.610266
Si Si6 0.500000 0.419227 0.750000
Si Si7 0.585053 0.667370 0.088255
O O1 0.869422 0.500550 0.915469
O O2 0.956035 0.605693 0.828998
O O3 0.820864 0.486774 0.724262
O O4 0.055551 0.450952 0.867909
O O5 0.311484 0.847087 0.906108
O O6 0.236697 0.693518 0.829259
O O7 0.250000 0.750000 0.000000
O O8 0.459629 0.701006 0.990579
O O9 0.130403 0.962903 0.828552
O O10 0.254310 0.960110 0.025987
O O11 0.500000 0.233332 0.750000
O O12 0.645643 0.246609 0.648827
O O13 0.686832 0.392170 0.572422
O O14 0.460007 0.376985 0.833364
#
# Coordination Sequence:
#
# PCOD9305099 Si02
#       7
#     8   8   8   8   8   4   8
#     4  11  24  43  68  98 135 186 234 278 334 418
#     4  12  21  37  69  97 128 175 227 282 334 406
#     4  12  24  44  65 103 138 180 228 283 344 411
#     4  12  20  39  67  97 130 178 237 278 325 402
#     4  11  24  42  68  99 137 183 223 281 348 405
#     4  12  22  38  66  94 134 166 212 294 336 390
#     4  12  23  41  65 104 135 168 226 289 345 397
#
# _framework density 21.447074000000001
#
# number of rings (size 3 to 8) (size 9 to 14) (size 15 to 20)
#    0.000    0.308    8.462    2.308    0.000    1.846 
#    0.000    3.077    0.000    3.692    0.000    0.000 
#    0.000    0.000    0.000    0.000    0.000    0.000 
#
# Total GULP energy -144777.816119 kJ/mol
# GULP energy per Si atom -5568.377543 kJ/mol
# Density = 2.139826 g / cm^3
# Si number density = 21.447074 Si / 1000 Ang^3
#
#
#
# Elastic Constant Matrix: (Units=GPa)
#
#
# Indices 1 2 3 4 5 6 
#
# 1 103.3890 59.5124 57.4693 0.0000 17.6670 0.0000
# 2 59.5124 65.9464 15.2885 0.0000 6.1740 0.0000
# 3 57.4693 15.2885 118.6493 0.0000 37.0024 0.0000
# 4 0.0000 0.0000 0.0000 125.6029 0.0000 20.1461
# 5 17.6670 6.1740 37.0024 0.0000 42.2541 0.0000
# 6 0.0000 0.0000 0.0000 20.1461 0.0000 37.2912
#
#
#
# Elastic Compliance Matrix: (Units=1/GPa)
#
#
# Indices 1 2 3 4 5 6 
#
# 1 0.030258 -0.024675 -0.011907 0.000000 0.001381 0.000000
# 2 -0.024675 0.035768 0.007917 0.000000 -0.001843 0.000000
# 3 -0.011907 0.007917 0.016486 0.000000 -0.010615 0.000000
# 4 0.000000 0.000000 0.000000 0.008717 0.000000 -0.004709
# 5 0.001381 -0.001843 -0.010615 0.000000 0.032654 0.000000
# 6 0.000000 0.000000 0.000000 -0.004709 0.000000 0.029360
#
#
# Mechanical properties :
#
#
# Convention : Reuss Voigt Hill
#
# Bulk Modulus (GPa) = 39.70947 61.39168 50.55057
# Shear Modulus (GPa) = 22.83446 51.41058 37.12252
#
# Velocity S-wave (km/s) = 3.26650 4.90132 4.16491
# Velocity P-wave (km/s) = 5.72555 7.79214 6.83738
#
# Compressibility (1/GPa) = 0.02518291
#
# Stress axis : x y z
#
# Youngs Moduli (GPa) = 33.04894 27.95764 60.65777
#
# Poissons Ratio (x) = 0.68985 0.72227
# Poissons Ratio (y) = 0.81548 -0.48025
# Poissons Ratio (z) = 0.39352 -0.22135
#
# Static dielectric constant tensor:
#      x y z
#    x 1.758980 0.000000 0.027130 
#    y 0.000000 1.947940 0.000000 
#    z 0.027130 0.000000 1.818090 
# 
# From -- ./inp_files/145798.got.cif
#   From: 2010.05.17/outbox.cif.g08.bks.cpg/sg15_73_cif.got.tgz:145798.got - 2010.06.03 18:47:42.
