data_PCOD9305856
_publ_section_title
;
Structure prediction by ZEFSAII (Michael W. Deem and Ramdas Pophale) SiO2 
 PCOD9305856
Probable space group: C 2/C
;
_chemical_formula_sum "Si O2"
_cell_formula_units_Z 48
_cell_length_a 10.724970
_cell_length_b 9.182874
_cell_length_c 22.145096
_cell_angle_alpha 90.000000
_cell_angle_beta 91.573789
_cell_angle_gamma 90.000000
_cell_volume 2180.160289
_symmetry_space_group_name_H-M "C 2/C"
_symmetry_group_IT_number 15
_symmetry_cell_setting 'monoclinic'
loop_
_space_group_symop_operation_xyz
x,y,z
-x,y,1/2-z
-x,-y,-z
x,-y,1/2+z
1/2+x,1/2+y,z
1/2-x,1/2+y,1/2-z
1/2-x,1/2-y,-z
1/2+x,1/2-y,1/2+z
loop_
_atom_site_type_symbol
_atom_site_label
_atom_site_fract_x
_atom_site_fract_y
_atom_site_fract_z
Si Si1 0.965485 0.433735 0.935435
Si Si2 0.395864 0.382008 0.482777
Si Si3 0.796876 0.896946 0.610072
Si Si4 0.884340 0.823316 0.165079
Si Si5 0.327966 0.323838 0.302180
Si Si6 0.280363 0.044946 0.114497
O O1 0.831720 0.477462 0.908825
O O2 0.073531 0.490519 0.892688
O O3 0.949930 0.258694 0.948429
O O4 0.000000 0.500000 0.000000
O O5 0.500000 0.500000 0.500000
O O6 0.341872 0.331375 0.546960
O O7 0.295605 0.472229 0.441566
O O8 0.761906 0.783765 0.661729
O O9 0.889434 0.017144 0.636461
O O10 0.800359 0.717827 0.122278
O O11 0.029222 0.781840 0.178844
O O12 0.286668 0.480086 0.327725
O O13 0.321506 0.323358 0.230252
#
# Coordination Sequence:
#
# PCOD9305856 Si02
#       6
#     8   8   8   8   8   8
#     4  12  24  41  66 102 134 177 216 272 340 404
#     4  12  26  42  68 104 137 174 220 279 339 404
#     4  12  23  45  69  99 137 173 222 275 338 397
#     4  11  26  44  70  98 130 182 227 277 330 394
#     4  11  24  48  68  95 136 176 230 278 328 390
#     4  12  22  44  68  96 138 173 222 277 338 395
#
# _framework density 22.016729999999999
#
# number of rings (size 3 to 8) (size 9 to 14) (size 15 to 20)
#    0.000    0.333    5.000    4.500    2.333    1.333 
#    3.000    0.000    0.000    0.000    0.000    0.000 
#    0.000    0.000    0.000    0.000    0.000    0.000 
#
# Total GULP energy -133993.580260 kJ/mol
# GULP energy per Si atom -5583.065844 kJ/mol
# Density = 2.196662 g / cm^3
# Si number density = 22.016730 Si / 1000 Ang^3
#
#
#
# Elastic Constant Matrix: (Units=GPa)
#
#
# Indices 1 2 3 4 5 6 
#
# 1 83.7212 16.4016 12.6989 0.0000 -10.3548 0.0000
# 2 16.4016 93.9974 17.8902 0.0000 4.3468 0.0000
# 3 12.6989 17.8902 92.0411 0.0000 -23.5375 0.0000
# 4 0.0000 0.0000 0.0000 30.6994 0.0000 -2.7462
# 5 -10.3548 4.3468 -23.5375 0.0000 46.7697 0.0000
# 6 0.0000 0.0000 0.0000 -2.7462 0.0000 37.6884
#
#
#
# Elastic Compliance Matrix: (Units=1/GPa)
#
#
# Indices 1 2 3 4 5 6 
#
# 1 0.012817 -0.002242 -0.000636 0.000000 0.002726 0.000000
# 2 -0.002242 0.011683 -0.002716 0.000000 -0.002949 0.000000
# 3 -0.000636 -0.002716 0.013209 0.000000 0.006759 0.000000
# 4 0.000000 0.000000 0.000000 0.032788 0.000000 0.002389
# 5 0.002726 -0.002949 0.006759 0.000000 0.025661 0.000000
# 6 0.000000 0.000000 0.000000 0.002389 0.000000 0.026707
#
#
# Mechanical properties :
#
#
# Convention : Reuss Voigt Hill
#
# Bulk Modulus (GPa) = 37.70261 40.41566 39.05913
# Shear Modulus (GPa) = 34.99167 37.88276 36.43721
#
# Velocity S-wave (km/s) = 3.99095 4.15255 4.07256
# Velocity P-wave (km/s) = 6.19667 6.43337 6.31613
#
# Compressibility (1/GPa) = 0.02652336
#
# Stress axis : x y z
#
# Youngs Moduli (GPa) = 78.02060 85.59484 75.70743
#
# Poissons Ratio (x) = 0.19187 0.04811
# Poissons Ratio (y) = 0.17489 0.20560
# Poissons Ratio (z) = 0.04958 0.23245
#
# Static dielectric constant tensor:
#      x y z
#    x 1.813630 0.000000 -0.036450 
#    y 0.000000 1.848850 0.000000 
#    z -0.036450 0.000000 1.821190 
# 
# From -- ./inp_files/268089.got.cif
#   From: 2010.05.17/outbox.cif.g08.bks.cpg/sg15_135_cif.got.tgz:268089.got - 2010.06.03 18:47:42.
