data_PCOD9305502
_publ_section_title
;
Structure prediction by ZEFSAII (Michael W. Deem and Ramdas Pophale) SiO2 
 PCOD9305502
Probable space group: C 2/C
;
_chemical_formula_sum "Si O2"
_cell_formula_units_Z 32
_cell_length_a 8.578731
_cell_length_b 17.831008
_cell_length_c 10.890052
_cell_angle_alpha 90.000000
_cell_angle_beta 66.804111
_cell_angle_gamma 90.000000
_cell_volume 1531.164026
_symmetry_space_group_name_H-M "C 2/C"
_symmetry_group_IT_number 15
_symmetry_cell_setting 'monoclinic'
loop_
_space_group_symop_operation_xyz
x,y,z
-x,y,1/2-z
-x,-y,-z
x,-y,1/2+z
1/2+x,1/2+y,z
1/2-x,1/2+y,1/2-z
1/2-x,1/2-y,-z
1/2+x,1/2-y,1/2+z
loop_
_atom_site_type_symbol
_atom_site_label
_atom_site_fract_x
_atom_site_fract_y
_atom_site_fract_z
Si Si1 0.937350 0.684304 0.131657
Si Si2 0.319008 0.565696 0.368343
Si Si3 0.606154 0.352644 0.400636
Si Si4 0.756791 0.397356 0.099364
O O1 0.784743 0.625000 0.180512
O O2 0.887066 0.763180 0.087413
O O3 0.000000 0.700689 0.250000
O O4 0.087772 0.646328 0.008149
O O5 0.500000 0.549311 0.250000
O O6 0.345923 0.603671 0.491851
O O7 0.224480 0.486820 0.412585
O O8 0.726553 0.375000 0.250000
O O9 0.415537 0.374999 0.418924
#
# Coordination Sequence:
#
# PCOD9305502 Si02
#       4
#     8   8   8   8
#     4  12  26  44  69 100 133 176 221 273 330 391
#     4  12  26  44  69 100 133 176 221 273 330 391
#     4  11  24  45  70  98 133 175 220 272 331 393
#     4  11  24  45  70  98 133 175 220 272 331 393
#
# _framework density 20.899132999999999
#
# number of rings (size 3 to 8) (size 9 to 14) (size 15 to 20)
#    0.000    0.500    5.000    4.500    7.000    1.000 
#    0.000    0.000    0.000    0.000    0.000    0.000 
#    0.000    0.000    0.000    0.000    0.000    0.000 
#
# Total GULP energy -89624.011157 kJ/mol
# GULP energy per Si atom -5601.500697 kJ/mol
# Density = 2.085157 g / cm^3
# Si number density = 20.899133 Si / 1000 Ang^3
#
#
#
# Elastic Constant Matrix: (Units=GPa)
#
#
# Indices 1 2 3 4 5 6 
#
# 1 27.5035 16.6546 23.1765 0.0000 -0.8099 0.0000
# 2 16.6546 195.0082 42.4863 0.0000 -0.4692 0.0000
# 3 23.1765 42.4863 108.5020 0.0000 -0.6607 0.0000
# 4 0.0000 0.0000 0.0000 104.5017 0.0000 -0.2667
# 5 -0.8099 -0.4692 -0.6607 0.0000 24.4762 0.0000
# 6 0.0000 0.0000 0.0000 -0.2667 0.0000 84.1997
#
#
#
# Elastic Compliance Matrix: (Units=1/GPa)
#
#
# Indices 1 2 3 4 5 6 
#
# 1 0.045019 -0.001911 -0.008860 0.000000 0.001214 0.000000
# 2 -0.001911 0.005687 -0.001819 0.000000 -0.000003 0.000000
# 3 -0.008860 -0.001819 0.011821 0.000000 -0.000009 0.000000
# 4 0.000000 0.000000 0.000000 0.009569 0.000000 0.000030
# 5 0.001214 -0.000003 -0.000009 0.000000 0.040896 0.000000
# 6 0.000000 0.000000 0.000000 0.000030 0.000000 0.011877
#
#
# Mechanical properties :
#
#
# Convention : Reuss Voigt Hill
#
# Bulk Modulus (GPa) = 26.77653 55.07205 40.92429
# Shear Modulus (GPa) = 30.76946 59.21529 44.99238
#
# Velocity S-wave (km/s) = 3.84120 5.32873 4.64490
# Velocity P-wave (km/s) = 5.70203 8.01680 6.95637
#
# Compressibility (1/GPa) = 0.03734614
#
# Stress axis : x y z
#
# Youngs Moduli (GPa) = 22.21303 175.82459 84.59421
#
# Poissons Ratio (x) = 0.33609 0.74953
# Poissons Ratio (y) = 0.04246 0.15386
# Poissons Ratio (z) = 0.19681 0.31979
#
# Static dielectric constant tensor:
#      x y z
#    x 1.742130 0.000000 0.000690 
#    y 0.000000 1.726030 0.000000 
#    z 0.000690 0.000000 1.704180 
# 
# From -- ./inp_files/22130.got.cif
#   From: 2010.05.17/outbox.cif.g08.bks.cpg/sg15_12_cif.got.tgz:22130.got - 2010.06.03 18:47:42.
