data_PCOD9305609
_publ_section_title
;
Structure prediction by ZEFSAII (Michael W. Deem and Ramdas Pophale) SiO2 
 PCOD9305609
Probable space group: C 2/C
;
_chemical_formula_sum "Si O2"
_cell_formula_units_Z 44
_cell_length_a 16.061288
_cell_length_b 11.079939
_cell_length_c 10.832964
_cell_angle_alpha 90.000000
_cell_angle_beta 101.452116
_cell_angle_gamma 90.000000
_cell_volume 1889.432719
_symmetry_space_group_name_H-M "C 2/C"
_symmetry_group_IT_number 15
_symmetry_cell_setting 'monoclinic'
loop_
_space_group_symop_operation_xyz
x,y,z
-x,y,1/2-z
-x,-y,-z
x,-y,1/2+z
1/2+x,1/2+y,z
1/2-x,1/2+y,1/2-z
1/2-x,1/2-y,-z
1/2+x,1/2-y,1/2+z
loop_
_atom_site_type_symbol
_atom_site_label
_atom_site_fract_x
_atom_site_fract_y
_atom_site_fract_z
Si Si1 0.249991 0.253587 0.202031
Si Si2 0.459790 0.046101 0.113656
Si Si3 0.853954 0.836682 0.603707
Si Si4 0.432618 0.724562 0.877782
Si Si5 0.263614 0.051323 0.010725
Si Si6 0.500000 0.505984 0.750000
O O1 0.192355 0.241928 0.306078
O O2 0.348536 0.245279 0.272734
O O3 0.227318 0.142509 0.103766
O O4 0.238169 0.375103 0.119218
O O5 0.500000 0.991625 0.250000
O O6 0.489660 0.185438 0.120710
O O7 0.360023 0.029576 0.077816
O O8 0.500000 0.000000 0.000000
O O9 0.901175 0.766728 0.508817
O O10 0.786645 0.927804 0.520658
O O11 0.923075 0.922868 0.686142
O O12 0.466201 0.593371 0.848627
#
# Coordination Sequence:
#
# PCOD9305609 Si02
#       6
#     8   8   8   8   8   4
#     4  11  24  46  69 101 138 185 230 290 356 428
#     4  12  27  47  75 105 147 191 239 293 358 430
#     4  12  27  42  76 105 138 184 242 294 353 432
#     4  12  24  48  72 104 142 184 233 301 358 422
#     4  11  25  45  71  99 141 188 230 285 364 423
#     4  12  24  46  70 108 144 176 240 292 364 418
#
# _framework density 23.287413000000001
#
# number of rings (size 3 to 8) (size 9 to 14) (size 15 to 20)
#    0.000    0.364    4.545    3.273    5.091    1.455 
#    0.000    0.000    0.000    0.000    0.000    0.000 
#    0.000    0.000    0.000    0.000    0.000    0.000 
#
# Total GULP energy -123334.100603 kJ/mol
# GULP energy per Si atom -5606.095482 kJ/mol
# Density = 2.323441 g / cm^3
# Si number density = 23.287413 Si / 1000 Ang^3
#
#
#
# Elastic Constant Matrix: (Units=GPa)
#
#
# Indices 1 2 3 4 5 6 
#
# 1 123.0352 13.6371 38.9799 0.0000 2.8977 0.0000
# 2 13.6371 44.6686 22.3592 0.0000 -1.1962 0.0000
# 3 38.9799 22.3592 78.8768 0.0000 -17.0404 0.0000
# 4 0.0000 0.0000 0.0000 66.2103 0.0000 18.3212
# 5 2.8977 -1.1962 -17.0404 0.0000 59.4779 0.0000
# 6 0.0000 0.0000 0.0000 18.3212 0.0000 51.7509
#
#
#
# Elastic Compliance Matrix: (Units=1/GPa)
#
#
# Indices 1 2 3 4 5 6 
#
# 1 0.009863 -0.000479 -0.005164 0.000000 -0.001970 0.000000
# 2 -0.000479 0.026274 -0.007560 0.000000 -0.001614 0.000000
# 3 -0.005164 -0.007560 0.018542 0.000000 0.005412 0.000000
# 4 0.000000 0.000000 0.000000 0.016744 0.000000 -0.005928
# 5 -0.001970 -0.001614 0.005412 0.000000 0.018427 0.000000
# 6 0.000000 0.000000 0.000000 -0.005928 0.000000 0.021422
#
#
# Mechanical properties :
#
#
# Convention : Reuss Voigt Hill
#
# Bulk Modulus (GPa) = 35.36856 44.05923 39.71389
# Shear Modulus (GPa) = 33.98978 46.92813 40.45895
#
# Velocity S-wave (km/s) = 3.82459 4.49394 4.17270
# Velocity P-wave (km/s) = 5.89272 6.77408 6.34871
#
# Compressibility (1/GPa) = 0.02827370
#
# Stress axis : x y z
#
# Youngs Moduli (GPa) = 101.38584 38.05997 53.93107
#
# Poissons Ratio (x) = 0.01823 0.27850
# Poissons Ratio (y) = 0.04857 0.40772
# Poissons Ratio (z) = 0.52356 0.28773
#
# Static dielectric constant tensor:
#      x y z
#    x 1.776450 0.000000 0.033260 
#    y 0.000000 1.872220 0.000000 
#    z 0.033260 0.000000 1.833150 
# 
# From -- ./inp_files/95072.got.cif
#   From: 2010.05.17/outbox.cif.g08.bks.cpg/sg15_48_cif.got.tgz:95072.got - 2010.06.03 18:47:42.
