data_PCOD9305853
_publ_section_title
;
Structure prediction by ZEFSAII (Michael W. Deem and Ramdas Pophale) SiO2 
 PCOD9305853
Probable space group: C 2/C
;
_chemical_formula_sum "Si O2"
_cell_formula_units_Z 48
_cell_length_a 7.124698
_cell_length_b 27.351886
_cell_length_c 13.568672
_cell_angle_alpha 90.000000
_cell_angle_beta 126.510508
_cell_angle_gamma 90.000000
_cell_volume 2125.254068
_symmetry_space_group_name_H-M "C 2/C"
_symmetry_group_IT_number 15
_symmetry_cell_setting 'monoclinic'
loop_
_space_group_symop_operation_xyz
x,y,z
-x,y,1/2-z
-x,-y,-z
x,-y,1/2+z
1/2+x,1/2+y,z
1/2-x,1/2+y,1/2-z
1/2-x,1/2-y,-z
1/2+x,1/2-y,1/2+z
loop_
_atom_site_type_symbol
_atom_site_label
_atom_site_fract_x
_atom_site_fract_y
_atom_site_fract_z
Si Si1 0.994398 0.938282 0.072765
Si Si2 0.443140 0.292959 0.846258
Si Si3 0.000000 0.600796 0.750000
Si Si4 0.449850 0.890115 0.524187
Si Si5 0.889155 0.952153 0.606305
Si Si6 0.500000 0.141291 0.250000
Si Si7 0.556391 0.186450 0.922164
O O1 0.265927 0.931086 0.182541
O O2 0.984542 0.929352 0.950925
O O3 0.900090 0.991140 0.077461
O O4 0.820778 0.902104 0.074190
O O5 0.500000 0.306076 0.750000
O O6 0.419715 0.234149 0.844820
O O7 0.225042 0.323557 0.814864
O O8 0.667780 0.303424 0.985306
O O9 0.006873 0.639046 0.841726
O O10 0.632792 0.927739 0.532167
O O11 0.501640 0.892629 0.655472
O O12 0.490997 0.833749 0.508699
O O13 0.000000 0.945884 0.750000
#
# Coordination Sequence:
#
# PCOD9305853 Si02
#       7
#     8   8   4   8   8   4   8
#     4  11  27  46  70 103 141 181 234 284 347 414
#     4  11  24  48  67 104 142 184 229 293 348 401
#     4  12  24  46  71 104 138 192 232 283 342 426
#     4  12  25  44  71 106 131 186 234 283 346 415
#     4  11  26  46  71 100 141 180 224 294 347 406
#     4  12  26  40  79 102 140 180 238 287 342 424
#     4  11  25  44  74  98 144 184 230 289 346 411
#
# _framework density 22.585536000000001
#
# number of rings (size 3 to 8) (size 9 to 14) (size 15 to 20)
#    0.000    0.667    4.167    2.500    4.667    4.667 
#    0.000    0.000    0.000    0.000    0.000    0.000 
#    0.000    0.000    0.000    0.000    0.000    0.000 
#
# Total GULP energy -134096.437889 kJ/mol
# GULP energy per Si atom -5587.351579 kJ/mol
# Density = 2.253413 g / cm^3
# Si number density = 22.585536 Si / 1000 Ang^3
#
#
#
# Elastic Constant Matrix: (Units=GPa)
#
#
# Indices 1 2 3 4 5 6 
#
# 1 137.7274 59.0553 28.9974 0.0000 18.8907 0.0000
# 2 59.0553 85.0323 7.4568 0.0000 14.6439 0.0000
# 3 28.9974 7.4568 68.3650 0.0000 -3.0668 0.0000
# 4 0.0000 0.0000 0.0000 31.5187 0.0000 -8.5804
# 5 18.8907 14.6439 -3.0668 0.0000 38.9795 0.0000
# 6 0.0000 0.0000 0.0000 -8.5804 0.0000 9.4165
#
#
#
# Elastic Compliance Matrix: (Units=1/GPa)
#
#
# Indices 1 2 3 4 5 6 
#
# 1 0.011706 -0.007179 -0.004331 0.000000 -0.003317 0.000000
# 2 -0.007179 0.017150 0.001045 0.000000 -0.002882 0.000000
# 3 -0.004331 0.001045 0.016485 0.000000 0.003003 0.000000
# 4 0.000000 0.000000 0.000000 0.042194 0.000000 0.038448
# 5 -0.003317 -0.002882 0.003003 0.000000 0.028581 0.000000
# 6 0.000000 0.000000 0.000000 0.038448 0.000000 0.141231
#
#
# Mechanical properties :
#
#
# Convention : Reuss Voigt Hill
#
# Bulk Modulus (GPa) = 40.96318 53.57151 47.26735
# Shear Modulus (GPa) = 17.45730 29.02396 23.24063
#
# Velocity S-wave (km/s) = 2.78320 3.58867 3.21129
# Velocity P-wave (km/s) = 5.33896 6.39862 5.89266
#
# Compressibility (1/GPa) = 0.02441217
#
# Stress axis : x y z
#
# Youngs Moduli (GPa) = 85.42992 58.30755 60.66099
#
# Poissons Ratio (x) = 0.41856 0.26271
# Poissons Ratio (y) = 0.61326 -0.06338
# Poissons Ratio (z) = 0.36998 -0.06093
#
# Static dielectric constant tensor:
#      x y z
#    x 1.894980 0.000000 -0.110850 
#    y 0.000000 1.825600 0.000000 
#    z -0.110850 0.000000 1.964050 
# 
# From -- ./inp_files/130978.got.cif
#   From: 2010.05.17/outbox.cif.g08.bks.cpg/sg15_66_cif.got.tgz:130978.got - 2010.06.03 18:47:42.
