data_PCOD9305412
_publ_section_title
;
Structure prediction by ZEFSAII (Michael W. Deem and Ramdas Pophale) SiO2 
 PCOD9305412
Probable space group: C 2/C
;
_chemical_formula_sum "Si O2"
_cell_formula_units_Z 48
_cell_length_a 11.633899
_cell_length_b 15.692532
_cell_length_c 11.751432
_cell_angle_alpha 90.000000
_cell_angle_beta 71.318268
_cell_angle_gamma 90.000000
_cell_volume 2032.368009
_symmetry_space_group_name_H-M "C 2/C"
_symmetry_group_IT_number 15
_symmetry_cell_setting 'monoclinic'
loop_
_space_group_symop_operation_xyz
x,y,z
-x,y,1/2-z
-x,-y,-z
x,-y,1/2+z
1/2+x,1/2+y,z
1/2-x,1/2+y,1/2-z
1/2-x,1/2-y,-z
1/2+x,1/2-y,1/2+z
loop_
_atom_site_type_symbol
_atom_site_label
_atom_site_fract_x
_atom_site_fract_y
_atom_site_fract_z
Si Si1 0.920862 0.616743 0.556233
Si Si2 0.143462 0.446063 0.838366
Si Si3 0.522961 0.397731 0.004471
Si Si4 0.201569 0.334031 0.619759
Si Si5 0.500000 0.302683 0.250000
Si Si6 0.500000 0.208442 0.750000
Si Si7 0.178543 0.180828 0.095027
O O1 0.840243 0.545365 0.643078
O O2 0.838561 0.673422 0.500129
O O3 0.997053 0.657351 0.634020
O O4 0.016274 0.578369 0.436463
O O5 0.150718 0.416227 0.706718
O O6 0.241322 0.392822 0.877808
O O7 0.496332 0.361464 0.139148
O O8 0.500000 0.500000 0.000000
O O9 0.656621 0.361487 0.930316
O O10 0.427450 0.356139 0.948634
O O11 0.121229 0.258205 0.704800
O O12 0.381769 0.266412 0.784360
O O13 0.250000 0.250000 0.000000
#
# Coordination Sequence:
#
# PCOD9305412 Si02
#       7
#     8   8   8   8   4   4   8
#     4  11  25  44  74 114 145 203 253 321 385 454
#     4  11  24  44  74 106 157 194 254 316 385 455
#     4  12  30  51  80 117 160 210 262 326 403 470
#     4  12  25  51  80 114 158 205 270 322 391 475
#     4  12  26  52  82 112 156 212 264 328 390 472
#     4  12  26  44  76 110 150 194 258 310 386 450
#     4  12  25  48  71 107 151 199 249 313 381 463
#
# _framework density 23.617771000000001
#
# number of rings (size 3 to 8) (size 9 to 14) (size 15 to 20)
#    0.000    0.333    3.333    4.500    4.667    7.333 
#    0.000    0.000    0.000    0.000    0.000    0.000 
#    0.000    0.000    0.000    0.000    0.000    0.000 
#
# Total GULP energy -134185.167258 kJ/mol
# GULP energy per Si atom -5591.048636 kJ/mol
# Density = 2.356402 g / cm^3
# Si number density = 23.617771 Si / 1000 Ang^3
#
#
#
# Elastic Constant Matrix: (Units=GPa)
#
#
# Indices 1 2 3 4 5 6 
#
# 1 146.5117 52.5563 49.5734 0.0000 4.7844 0.0000
# 2 52.5563 136.6769 54.7050 0.0000 -5.5946 0.0000
# 3 49.5734 54.7050 141.2571 0.0000 8.3072 0.0000
# 4 0.0000 0.0000 0.0000 17.6700 0.0000 -34.3900
# 5 4.7844 -5.5946 8.3072 0.0000 44.2779 0.0000
# 6 0.0000 0.0000 0.0000 -34.3900 0.0000 -16.0917
#
#
#
# Elastic Compliance Matrix: (Units=1/GPa)
#
#
# Indices 1 2 3 4 5 6 
#
# 1 0.008401 -0.002492 -0.001933 0.000000 -0.000860 0.000000
# 2 -0.002492 0.009533 -0.002936 0.000000 0.002025 0.000000
# 3 -0.001933 -0.002936 0.009004 0.000000 -0.001851 0.000000
# 4 0.000000 0.000000 0.000000 0.010969 0.000000 -0.023442
# 5 -0.000860 0.002025 -0.001851 0.000000 0.023281 0.000000
# 6 0.000000 0.000000 0.000000 -0.023442 0.000000 -0.012045
#
#
# Mechanical properties :
#
#
# Convention : Reuss Voigt Hill
#
# Bulk Modulus (GPa) = 81.86280 82.01280 81.93780
# Shear Modulus (GPa) = 73.59741 27.01198 50.30470
#
# Velocity S-wave (km/s) = 5.58834 3.38555 4.62015
# Velocity P-wave (km/s) = 8.73934 7.07694 7.95170
#
# Compressibility (1/GPa) = 0.01221556
#
# Stress axis : x y z
#
# Youngs Moduli (GPa) = 119.02732 104.89874 111.06700
#
# Poissons Ratio (x) = 0.26143 0.21466
# Poissons Ratio (y) = 0.29665 0.32613
# Poissons Ratio (z) = 0.23004 0.30801
#
# Static dielectric constant tensor:
#      x y z
#    x 1.927050 0.000000 0.009650 
#    y 0.000000 1.991490 0.000000 
#    z 0.009650 0.000000 1.871620 
# 
# From -- ./inp_files/87819.got.cif
#   From: 2010.05.17/outbox.cif.g08.bks.cpg/sg15_44_cif.got.tgz:87819.got - 2010.06.03 18:47:42.
