data_PCOD9305445
_publ_section_title
;
Structure prediction by ZEFSAII (Michael W. Deem and Ramdas Pophale) SiO2 
 PCOD9305445
Probable space group: C 2/C
;
_chemical_formula_sum "Si O2"
_cell_formula_units_Z 40
_cell_length_a 32.810183
_cell_length_b 5.125895
_cell_length_c 9.030482
_cell_angle_alpha 90.000000
_cell_angle_beta 79.413408
_cell_angle_gamma 90.000000
_cell_volume 1492.908707
_symmetry_space_group_name_H-M "C 2/C"
_symmetry_group_IT_number 15
_symmetry_cell_setting 'monoclinic'
loop_
_space_group_symop_operation_xyz
x,y,z
-x,y,1/2-z
-x,-y,-z
x,-y,1/2+z
1/2+x,1/2+y,z
1/2-x,1/2+y,1/2-z
1/2-x,1/2-y,-z
1/2+x,1/2-y,1/2+z
loop_
_atom_site_type_symbol
_atom_site_label
_atom_site_fract_x
_atom_site_fract_y
_atom_site_fract_z
Si Si1 0.399472 0.023871 0.605521
Si Si2 0.403599 0.665454 0.371849
Si Si3 0.025473 0.827599 0.101560
Si Si4 0.223378 0.205776 0.753851
Si Si5 0.670545 0.347709 0.010471
O O1 0.400730 0.076196 0.777149
O O2 0.441240 0.151920 0.508536
O O3 0.357246 0.151747 0.569468
O O4 0.401128 0.731582 0.547286
O O5 0.446425 0.524432 0.321140
O O6 0.363610 0.497544 0.368431
O O7 0.000000 0.684192 0.250000
O O8 0.000000 0.000000 0.000000
O O9 0.242405 0.477991 0.797869
O O10 0.200892 0.268335 0.613767
O O11 0.194337 0.058857 0.892927
#
# Coordination Sequence:
#
# PCOD9305445 Si02
#       5
#     8   8   8   8   8
#     4  11  26  43  70 101 136 190 236 289 363 429
#     4  11  26  43  70 102 135 190 238 287 363 431
#     4  11  24  45  66  97 143 178 234 298 355 426
#     4  12  28  47  74 109 146 193 245 305 377 435
#     4  11  26  46  70  99 147 186 239 299 354 449
#
# _framework density 26.793329
#
# number of rings (size 3 to 8) (size 9 to 14) (size 15 to 20)
#    0.000    0.800    4.000    1.200   11.200    1.600 
#    0.000    0.000    0.000    0.000    0.000    0.000 
#    0.000    0.000    0.000    0.000    0.000    0.000 
#
# Total GULP energy -112095.653720 kJ/mol
# GULP energy per Si atom -5604.782686 kJ/mol
# Density = 2.673235 g / cm^3
# Si number density = 26.793329 Si / 1000 Ang^3
#
#
#
# Elastic Constant Matrix: (Units=GPa)
#
#
# Indices 1 2 3 4 5 6 
#
# 1 134.5745 15.2343 44.6294 0.0000 -1.1105 0.0000
# 2 15.2343 52.5246 2.3330 0.0000 -3.0714 0.0000
# 3 44.6294 2.3330 120.8046 0.0000 4.2900 0.0000
# 4 0.0000 0.0000 0.0000 48.2773 0.0000 1.0279
# 5 -1.1105 -3.0714 4.2900 0.0000 30.8246 0.0000
# 6 0.0000 0.0000 0.0000 1.0279 0.0000 33.4639
#
#
#
# Elastic Compliance Matrix: (Units=1/GPa)
#
#
# Indices 1 2 3 4 5 6 
#
# 1 0.008769 -0.002370 -0.003212 0.000000 0.000527 0.000000
# 2 -0.002370 0.019814 0.000428 0.000000 0.001829 0.000000
# 3 -0.003212 0.000428 0.009506 0.000000 -0.001396 0.000000
# 4 0.000000 0.000000 0.000000 0.020727 0.000000 -0.000637
# 5 0.000527 0.001829 -0.001396 0.000000 0.032837 0.000000
# 6 0.000000 0.000000 0.000000 -0.000637 0.000000 0.029903
#
#
# Mechanical properties :
#
#
# Convention : Reuss Voigt Hill
#
# Bulk Modulus (GPa) = 35.99715 48.03301 42.01508
# Shear Modulus (GPa) = 35.42972 38.89361 37.16167
#
# Velocity S-wave (km/s) = 3.64034 3.81414 3.72825
# Velocity P-wave (km/s) = 5.57976 6.11253 5.85221
#
# Compressibility (1/GPa) = 0.02777998
#
# Stress axis : x y z
#
# Youngs Moduli (GPa) = 114.04070 50.46932 105.19754
#
# Poissons Ratio (x) = 0.11960 0.33794
# Poissons Ratio (y) = 0.27026 -0.04501
# Poissons Ratio (z) = 0.36635 -0.02159
#
# Static dielectric constant tensor:
#      x y z
#    x 2.093790 0.000000 -0.067410 
#    y 0.000000 2.032070 0.000000 
#    z -0.067410 0.000000 2.031760 
# 
# From -- ./inp_files/124934.got.cif
#   From: 2010.05.17/outbox.cif.g08.bks.cpg/sg15_63_cif.got.tgz:124934.got - 2010.06.03 18:47:42.
