data_PCOD9305471
_publ_section_title
;
Structure prediction by ZEFSAII (Michael W. Deem and Ramdas Pophale) SiO2 
 PCOD9305471
Probable space group: C 2/C
;
_chemical_formula_sum "Si O2"
_cell_formula_units_Z 52
_cell_length_a 8.148945
_cell_length_b 17.672067
_cell_length_c 15.361380
_cell_angle_alpha 90.000000
_cell_angle_beta 79.896175
_cell_angle_gamma 90.000000
_cell_volume 2177.864854
_symmetry_space_group_name_H-M "C 2/C"
_symmetry_group_IT_number 15
_symmetry_cell_setting 'monoclinic'
loop_
_space_group_symop_operation_xyz
x,y,z
-x,y,1/2-z
-x,-y,-z
x,-y,1/2+z
1/2+x,1/2+y,z
1/2-x,1/2+y,1/2-z
1/2-x,1/2-y,-z
1/2+x,1/2-y,1/2+z
loop_
_atom_site_type_symbol
_atom_site_label
_atom_site_fract_x
_atom_site_fract_y
_atom_site_fract_z
Si Si1 0.500000 0.449240 0.750000
Si Si2 0.242068 0.174076 0.869691
Si Si3 0.450919 0.723941 0.457867
Si Si4 0.533665 0.887222 0.530183
Si Si5 0.000000 0.224197 0.750000
Si Si6 0.250420 0.349954 0.662788
Si Si7 0.216498 0.492668 0.384565
Si Si8 0.500000 0.935327 0.250000
O O1 0.354512 0.397731 0.722166
O O2 0.593398 0.494795 0.663677
O O3 0.350860 0.250197 0.880353
O O4 0.376444 0.115291 0.821413
O O5 0.087913 0.177669 0.817837
O O6 0.155441 0.168526 0.971664
O O7 0.492114 0.800989 0.507796
O O8 0.617637 0.684014 0.416165
O O9 0.618807 0.894347 0.616425
O O10 0.368113 0.938279 0.554580
O O11 0.664079 0.920622 0.447859
O O12 0.850420 0.279356 0.790667
O O13 0.116773 0.480932 0.303952
#
# Coordination Sequence:
#
# PCOD9305471 Si02
#       8
#     4   8   8   8   4   8   8   4
#     4  12  28  46  68 104 138 184 234 290 330 406
#     4  11  25  40  72 101 141 173 226 278 359 398
#     4  11  24  45  69 108 133 183 218 289 354 419
#     4  11  24  48  70  96 136 190 228 279 335 424
#     4  12  24  40  66 112 138 174 212 292 362 406
#     4  12  25  42  72 100 140 172 229 289 355 398
#     4  11  27  46  70  93 139 189 237 269 335 401
#     4  12  24  48  70 102 138 186 226 292 334 406
#
# _framework density 23.876594999999998
#
# number of rings (size 3 to 8) (size 9 to 14) (size 15 to 20)
#    0.000    0.615    3.077    4.154    4.308    2.462 
#    0.000    0.000    0.000    0.000    0.000    0.000 
#    0.000    0.000    0.000    0.000    0.000    0.000 
#
# Total GULP energy -145415.230204 kJ/mol
# GULP energy per Si atom -5592.893469 kJ/mol
# Density = 2.382225 g / cm^3
# Si number density = 23.876595 Si / 1000 Ang^3
#
#
#
# Elastic Constant Matrix: (Units=GPa)
#
#
# Indices 1 2 3 4 5 6 
#
# 1 99.7491 42.3472 24.2348 0.0000 -3.6698 0.0000
# 2 42.3472 67.3124 41.0677 0.0000 -17.4358 0.0000
# 3 24.2348 41.0677 52.2555 0.0000 -11.4764 0.0000
# 4 0.0000 0.0000 0.0000 28.7942 0.0000 2.0045
# 5 -3.6698 -17.4358 -11.4764 0.0000 80.1963 0.0000
# 6 0.0000 0.0000 0.0000 2.0045 0.0000 16.1494
#
#
#
# Elastic Compliance Matrix: (Units=1/GPa)
#
#
# Indices 1 2 3 4 5 6 
#
# 1 0.013828 -0.009514 0.000773 0.000000 -0.001325 0.000000
# 2 -0.009514 0.035850 -0.022865 0.000000 0.004087 0.000000
# 3 0.000773 -0.022865 0.036821 0.000000 0.000334 0.000000
# 4 0.000000 0.000000 0.000000 0.035032 0.000000 -0.004348
# 5 -0.001325 0.004087 0.000334 0.000000 0.013345 0.000000
# 6 0.000000 0.000000 0.000000 -0.004348 0.000000 0.062462
#
#
# Mechanical properties :
#
#
# Convention : Reuss Voigt Hill
#
# Bulk Modulus (GPa) = 42.94174 48.29071 45.61622
# Shear Modulus (GPa) = 18.63511 32.47246 25.55378
#
# Velocity S-wave (km/s) = 2.79673 3.69184 3.27501
# Velocity P-wave (km/s) = 5.33412 6.20015 5.78337
#
# Compressibility (1/GPa) = 0.02328737
#
# Stress axis : x y z
#
# Youngs Moduli (GPa) = 72.31875 27.89386 27.15860
#
# Poissons Ratio (x) = 0.26539 -0.02100
# Poissons Ratio (y) = 0.68806 0.62097
# Poissons Ratio (z) = -0.05593 0.63778
#
# Static dielectric constant tensor:
#      x y z
#    x 1.776830 0.000000 -0.055790 
#    y 0.000000 1.907240 0.000000 
#    z -0.055790 0.000000 1.872220 
# 
# From -- ./inp_files/136034.got.cif
#   From: 2010.05.17/outbox.cif.g08.bks.cpg/sg15_69_cif.got.tgz:136034.got - 2010.06.03 18:47:42.
