data_PCOD9305554
_publ_section_title
;
Structure prediction by ZEFSAII (Michael W. Deem and Ramdas Pophale) SiO2 
 PCOD9305554
Probable space group: C 2/C
;
_chemical_formula_sum "Si O2"
_cell_formula_units_Z 32
_cell_length_a 12.826888
_cell_length_b 5.457433
_cell_length_c 17.315027
_cell_angle_alpha 90.000000
_cell_angle_beta 95.791041
_cell_angle_gamma 90.000000
_cell_volume 1205.898599
_symmetry_space_group_name_H-M "C 2/C"
_symmetry_group_IT_number 15
_symmetry_cell_setting 'monoclinic'
loop_
_space_group_symop_operation_xyz
x,y,z
-x,y,1/2-z
-x,-y,-z
x,-y,1/2+z
1/2+x,1/2+y,z
1/2-x,1/2+y,1/2-z
1/2-x,1/2-y,-z
1/2+x,1/2-y,1/2+z
loop_
_atom_site_type_symbol
_atom_site_label
_atom_site_fract_x
_atom_site_fract_y
_atom_site_fract_z
Si Si1 0.282235 0.320799 0.586364
Si Si2 0.336122 0.540386 0.322272
Si Si3 0.004419 0.434581 0.093130
Si Si4 0.375836 0.719382 0.677034
O O1 0.250000 0.250000 0.500000
O O2 0.396298 0.204013 0.603643
O O3 0.308727 0.602696 0.601845
O O4 0.189109 0.202158 0.629225
O O5 0.403390 0.748439 0.372790
O O6 0.387501 0.484413 0.243726
O O7 0.214626 0.609832 0.293965
O O8 0.980214 0.665322 0.148869
O O9 0.000000 0.500000 0.000000
#
# Coordination Sequence:
#
# PCOD9305554 Si02
#       4
#     8   8   8   8
#     4  11  24  45  74 106 151 206 253 321 404 473
#     4  11  24  48  74 107 155 200 267 333 396 474
#     4  11  26  47  74 112 153 206 266 327 401 488
#     4  11  24  48  74 107 152 205 260 334 406 461
#
# _framework density 26.536228999999999
#
# number of rings (size 3 to 8) (size 9 to 14) (size 15 to 20)
#    0.000    1.000    2.500    3.000    0.000   11.000 
#    4.500    0.000    0.000    0.000    0.000    0.000 
#    0.000    0.000    0.000    0.000    0.000    0.000 
#
# Total GULP energy -89345.196429 kJ/mol
# GULP energy per Si atom -5584.074777 kJ/mol
# Density = 2.647583 g / cm^3
# Si number density = 26.536229 Si / 1000 Ang^3
#
#
#
# Elastic Constant Matrix: (Units=GPa)
#
#
# Indices 1 2 3 4 5 6 
#
# 1 223.8518 33.0016 26.3226 0.0000 -31.6954 0.0000
# 2 33.0016 50.3311 13.7374 0.0000 -20.5526 0.0000
# 3 26.3226 13.7374 128.1587 0.0000 -29.9889 0.0000
# 4 0.0000 0.0000 0.0000 38.6727 0.0000 -3.7924
# 5 -31.6954 -20.5526 -29.9889 0.0000 44.8249 0.0000
# 6 0.0000 0.0000 0.0000 -3.7924 0.0000 52.5005
#
#
#
# Elastic Compliance Matrix: (Units=1/GPa)
#
#
# Indices 1 2 3 4 5 6 
#
# 1 0.005185 -0.002341 -0.000246 0.000000 0.002429 0.000000
# 2 -0.002341 0.025502 0.000114 0.000000 0.010114 0.000000
# 3 -0.000246 0.000114 0.009263 0.000000 0.006075 0.000000
# 4 0.000000 0.000000 0.000000 0.026043 0.000000 0.001881
# 5 0.002429 0.010114 0.006075 0.000000 0.032728 0.000000
# 6 0.000000 0.000000 0.000000 0.001881 0.000000 0.019183
#
#
# Mechanical properties :
#
#
# Convention : Reuss Voigt Hill
#
# Bulk Modulus (GPa) = 28.56795 60.94052 44.75424
# Shear Modulus (GPa) = 37.16968 49.15161 43.16064
#
# Velocity S-wave (km/s) = 3.74667 4.30844 4.03734
# Velocity P-wave (km/s) = 5.43192 6.91123 6.21574
#
# Compressibility (1/GPa) = 0.03500426
#
# Stress axis : x y z
#
# Youngs Moduli (GPa) = 192.85888 39.21212 107.95945
#
# Poissons Ratio (x) = 0.09180 0.02653
# Poissons Ratio (y) = 0.45149 -0.01229
# Poissons Ratio (z) = 0.04740 -0.00446
#
# Static dielectric constant tensor:
#      x y z
#    x 2.250150 0.000000 0.153320 
#    y 0.000000 2.312640 0.000000 
#    z 0.153320 0.000000 2.179560 
# 
# From -- ./inp_files/201708.got.cif
#   From: 2010.05.17/outbox.cif.g08.bks.cpg/sg15_101_cif.got.tgz:201708.got - 2010.06.03 18:47:42.
