data_PCOD9305150
_publ_section_title
;
Structure prediction by ZEFSAII (Michael W. Deem and Ramdas Pophale) SiO2 
 PCOD9305150
Probable space group: C 2/C
;
_chemical_formula_sum "Si O2"
_cell_formula_units_Z 40
_cell_length_a 25.549012
_cell_length_b 5.504794
_cell_length_c 11.316656
_cell_angle_alpha 90.000000
_cell_angle_beta 93.804067
_cell_angle_gamma 90.000000
_cell_volume 1588.091007
_symmetry_space_group_name_H-M "C 2/C"
_symmetry_group_IT_number 15
_symmetry_cell_setting 'monoclinic'
loop_
_space_group_symop_operation_xyz
x,y,z
-x,y,1/2-z
-x,-y,-z
x,-y,1/2+z
1/2+x,1/2+y,z
1/2-x,1/2+y,1/2-z
1/2-x,1/2-y,-z
1/2+x,1/2-y,1/2+z
loop_
_atom_site_type_symbol
_atom_site_label
_atom_site_fract_x
_atom_site_fract_y
_atom_site_fract_z
Si Si1 0.573390 0.604061 0.053390
Si Si2 0.316429 0.625600 0.296396
Si Si3 0.545798 0.900687 0.660565
Si Si4 0.777445 0.549227 0.584009
Si Si5 0.134130 0.734371 0.350857
O O1 0.626566 0.619124 0.138064
O O2 0.545599 0.353983 0.088214
O O3 0.544712 0.857132 0.080539
O O4 0.593678 0.605214 0.921645
O O5 0.272129 0.611678 0.388931
O O6 0.298171 0.841043 0.210516
O O7 0.322078 0.395185 0.208322
O O8 0.500000 0.906548 0.750000
O O9 0.599106 0.896943 0.747224
O O10 0.750000 0.750000 0.500000
O O11 0.832922 0.434654 0.553296
#
# Coordination Sequence:
#
# PCOD9305150 Si02
#       5
#     8   8   8   8   8
#     4  11  26  44  73 101 138 180 229 289 349 412
#     4  11  24  43  62 101 140 186 224 286 334 416
#     4  11  26  49  73 102 137 177 231 294 354 414
#     4  12  25  39  69  98 141 187 234 274 346 407
#     4  11  26  43  67 101 140 182 235 285 341 413
#
# _framework density 25.187474999999999
#
# number of rings (size 3 to 8) (size 9 to 14) (size 15 to 20)
#    0.000    0.800    4.000    1.800   11.200    3.200 
#    0.000    0.000    0.000    0.000    0.000    0.000 
#    0.000    0.000    0.000    0.000    0.000    0.000 
#
# Total GULP energy -111877.913406 kJ/mol
# GULP energy per Si atom -5593.895670 kJ/mol
# Density = 2.513015 g / cm^3
# Si number density = 25.187475 Si / 1000 Ang^3
#
#
#
# Elastic Constant Matrix: (Units=GPa)
#
#
# Indices 1 2 3 4 5 6 
#
# 1 101.1661 51.4380 17.5729 0.0000 -13.2721 0.0000
# 2 51.4380 117.5206 27.3615 0.0000 -5.8873 0.0000
# 3 17.5729 27.3615 66.7469 0.0000 -7.8060 0.0000
# 4 0.0000 0.0000 0.0000 53.6599 0.0000 2.0541
# 5 -13.2721 -5.8873 -7.8060 0.0000 48.4408 0.0000
# 6 0.0000 0.0000 0.0000 2.0541 0.0000 43.8695
#
#
#
# Elastic Compliance Matrix: (Units=1/GPa)
#
#
# Indices 1 2 3 4 5 6 
#
# 1 0.013161 -0.005405 -0.000922 0.000000 0.002800 0.000000
# 2 -0.005405 0.011641 -0.003421 0.000000 -0.000618 0.000000
# 3 -0.000922 -0.003421 0.016867 0.000000 0.002050 0.000000
# 4 0.000000 0.000000 0.000000 0.018669 0.000000 -0.000874
# 5 0.002800 -0.000618 0.002050 0.000000 0.021666 0.000000
# 6 0.000000 0.000000 0.000000 -0.000874 0.000000 0.022836
#
#
# Mechanical properties :
#
#
# Convention : Reuss Voigt Hill
#
# Bulk Modulus (GPa) = 45.10186 53.13095 49.11640
# Shear Modulus (GPa) = 37.95764 41.79811 39.87787
#
# Velocity S-wave (km/s) = 3.88623 4.07809 3.98331
# Velocity P-wave (km/s) = 6.17109 6.58137 6.37953
#
# Compressibility (1/GPa) = 0.02217203
#
# Stress axis : x y z
#
# Youngs Moduli (GPa) = 75.98437 85.90606 59.28867
#
# Poissons Ratio (x) = 0.46436 0.05464
# Poissons Ratio (y) = 0.41073 0.20282
# Poissons Ratio (z) = 0.07002 0.29388
#
# Static dielectric constant tensor:
#      x y z
#    x 1.985270 0.000000 -0.000350 
#    y 0.000000 2.181320 0.000000 
#    z -0.000350 0.000000 2.004330 
# 
# From -- ./inp_files/120709.got.cif
#   From: 2010.05.17/outbox.cif.g08.bks.cpg/sg15_61_cif.got.tgz:120709.got - 2010.06.03 18:47:42.
