data_PCOD9305888
_publ_section_title
;
Structure prediction by ZEFSAII (Michael W. Deem and Ramdas Pophale) SiO2 
 PCOD9305888
Probable space group: C 2/C
;
_chemical_formula_sum "Si O2"
_cell_formula_units_Z 28
_cell_length_a 9.445539
_cell_length_b 11.382488
_cell_length_c 14.198102
_cell_angle_alpha 90.000000
_cell_angle_beta 122.812021
_cell_angle_gamma 90.000000
_cell_volume 1282.943807
_symmetry_space_group_name_H-M "C 2/C"
_symmetry_group_IT_number 15
_symmetry_cell_setting 'monoclinic'
loop_
_space_group_symop_operation_xyz
x,y,z
-x,y,1/2-z
-x,-y,-z
x,-y,1/2+z
1/2+x,1/2+y,z
1/2-x,1/2+y,1/2-z
1/2-x,1/2-y,-z
1/2+x,1/2-y,1/2+z
loop_
_atom_site_type_symbol
_atom_site_label
_atom_site_fract_x
_atom_site_fract_y
_atom_site_fract_z
Si Si1 0.587022 0.110859 0.577715
Si Si2 0.862704 0.832545 0.442207
Si Si3 0.423828 0.480410 0.125962
Si Si4 0.000000 0.336720 0.250000
O O1 0.492586 0.229764 0.514295
O O2 0.777149 0.106157 0.609028
O O3 0.563903 0.095193 0.681008
O O4 0.500000 0.000000 0.500000
O O5 0.678010 0.782533 0.349603
O O6 0.938751 0.906758 0.382931
O O7 0.854764 0.923125 0.527286
O O8 0.500000 0.533115 0.250000
#
# Coordination Sequence:
#
# PCOD9305888 Si02
#       4
#     8   8   8   4
#     4  12  26  46  69 106 144 184 239 292 354 430
#     4  11  26  46  74 105 139 192 236 291 364 420
#     4  11  24  48  73 104 144 184 239 297 356 426
#     4  12  24  46  68 106 140 190 240 286 362 420
#
# _framework density 21.824807
#
# number of rings (size 3 to 8) (size 9 to 14) (size 15 to 20)
#    0.000    0.571    5.714    1.714    2.000    0.000 
#    2.571    0.000    0.000    0.000    0.000    0.000 
#    0.000    0.000    0.000    0.000    0.000    0.000 
#
# Total GULP energy -78195.747945 kJ/mol
# GULP energy per Si atom -5585.410568 kJ/mol
# Density = 2.177513 g / cm^3
# Si number density = 21.824807 Si / 1000 Ang^3
#
#
#
# Elastic Constant Matrix: (Units=GPa)
#
#
# Indices 1 2 3 4 5 6 
#
# 1 171.3849 42.6172 85.8016 0.0000 -4.7096 0.0000
# 2 42.6172 79.1302 46.9729 0.0000 -3.4238 0.0000
# 3 85.8016 46.9729 151.8569 0.0000 -11.6917 0.0000
# 4 0.0000 0.0000 0.0000 19.0365 0.0000 3.9025
# 5 -4.7096 -3.4238 -11.6917 0.0000 59.8690 0.0000
# 6 0.0000 0.0000 0.0000 3.9025 0.0000 37.9365
#
#
#
# Elastic Compliance Matrix: (Units=1/GPa)
#
#
# Indices 1 2 3 4 5 6 
#
# 1 0.008414 -0.002093 -0.004127 0.000000 -0.000264 0.000000
# 2 -0.002093 0.016001 -0.003766 0.000000 0.000015 0.000000
# 3 -0.004127 -0.003766 0.010193 0.000000 0.001451 0.000000
# 4 0.000000 0.000000 0.000000 0.053662 0.000000 -0.005520
# 5 -0.000264 0.000015 0.001451 0.000000 0.016967 0.000000
# 6 0.000000 0.000000 0.000000 -0.005520 0.000000 0.026928
#
#
# Mechanical properties :
#
#
# Convention : Reuss Voigt Hill
#
# Bulk Modulus (GPa) = 68.32078 83.68395 76.00237
# Shear Modulus (GPa) = 31.84406 38.50041 35.17223
#
# Velocity S-wave (km/s) = 3.82393 4.20464 4.01879
# Velocity P-wave (km/s) = 7.13223 7.87392 7.51224
#
# Compressibility (1/GPa) = 0.01463683
#
# Stress axis : x y z
#
# Youngs Moduli (GPa) = 118.84666 62.49735 98.10252
#
# Poissons Ratio (x) = 0.13082 0.40487
# Poissons Ratio (y) = 0.24877 0.36941
# Poissons Ratio (z) = 0.49048 0.23534
#
# Static dielectric constant tensor:
#      x y z
#    x 1.817190 0.000000 0.036060 
#    y 0.000000 1.757780 0.000000 
#    z 0.036060 0.000000 1.867580 
# 
# From -- ./inp_files/74803.got.cif
#   From: 2010.05.17/outbox.cif.g08.bks.cpg/sg15_38_cif.got.tgz:74803.got - 2010.06.03 18:47:42.
