data_PCOD9305253
_publ_section_title
;
Structure prediction by ZEFSAII (Michael W. Deem and Ramdas Pophale) SiO2 
 PCOD9305253
Probable space group: C 2/C
;
_chemical_formula_sum "Si O2"
_cell_formula_units_Z 48
_cell_length_a 9.749978
_cell_length_b 11.260175
_cell_length_c 20.890743
_cell_angle_alpha 90.000000
_cell_angle_beta 62.009042
_cell_angle_gamma 90.000000
_cell_volume 2025.228471
_symmetry_space_group_name_H-M "C 2/C"
_symmetry_group_IT_number 15
_symmetry_cell_setting 'monoclinic'
loop_
_space_group_symop_operation_xyz
x,y,z
-x,y,1/2-z
-x,-y,-z
x,-y,1/2+z
1/2+x,1/2+y,z
1/2-x,1/2+y,1/2-z
1/2-x,1/2-y,-z
1/2+x,1/2-y,1/2+z
loop_
_atom_site_type_symbol
_atom_site_label
_atom_site_fract_x
_atom_site_fract_y
_atom_site_fract_z
Si Si1 0.201608 0.228144 0.438339
Si Si2 0.548355 0.042057 0.153113
Si Si3 0.853692 0.715675 0.037240
Si Si4 0.289835 0.983612 0.113578
Si Si5 0.826068 0.243631 0.698460
Si Si6 0.000000 0.330718 0.250000
Si Si7 0.500000 0.446626 0.250000
O O1 0.250000 0.250000 0.500000
O O2 0.296510 0.115432 0.393667
O O3 0.248622 0.347667 0.391713
O O4 0.017836 0.230511 0.480266
O O5 0.451994 0.989084 0.115209
O O6 0.418733 0.140032 0.203725
O O7 0.584053 0.926613 0.186204
O O8 0.822315 0.573818 0.049318
O O9 0.840122 0.751214 0.116847
O O10 0.750000 0.750000 0.000000
O O11 0.136720 0.022219 0.186516
O O12 0.641320 0.237354 0.752803
O O13 0.909686 0.133996 0.716461
#
# Coordination Sequence:
#
# PCOD9305253 Si02
#       7
#     8   8   8   8   8   4   4
#     4  12  23  45  71 100 142 188 244 290 352 448
#     4  11  25  44  71 106 141 190 239 297 371 434
#     4  11  27  46  70 107 148 191 247 297 364 441
#     4  11  24  43  75  99 141 199 227 306 373 412
#     4  11  25  47  71 108 146 185 245 304 360 435
#     4  12  27  45  74 108 144 186 243 305 380 432
#     4  12  21  45  74 102 144 186 243 303 368 430
#
# _framework density 23.701028999999998
#
# number of rings (size 3 to 8) (size 9 to 14) (size 15 to 20)
#    0.000    0.667    6.667    1.000    2.333    4.000 
#    0.000    2.500    0.000    0.000    0.000    0.000 
#    0.000    0.000    0.000    0.000    0.000    0.000 
#
# Total GULP energy -133905.158374 kJ/mol
# GULP energy per Si atom -5579.381599 kJ/mol
# Density = 2.364708 g / cm^3
# Si number density = 23.701029 Si / 1000 Ang^3
#
#
#
# Elastic Constant Matrix: (Units=GPa)
#
#
# Indices 1 2 3 4 5 6 
#
# 1 171.5225 23.0071 42.5853 0.0000 -19.1474 0.0000
# 2 23.0071 54.6034 25.1674 0.0000 -7.3552 0.0000
# 3 42.5853 25.1674 73.2498 0.0000 -15.6675 0.0000
# 4 0.0000 0.0000 0.0000 26.0530 0.0000 -14.5499
# 5 -19.1474 -7.3552 -15.6675 0.0000 51.5815 0.0000
# 6 0.0000 0.0000 0.0000 -14.5499 0.0000 35.5575
#
#
#
# Elastic Compliance Matrix: (Units=1/GPa)
#
#
# Indices 1 2 3 4 5 6 
#
# 1 0.006979 -0.001212 -0.003341 0.000000 0.001403 0.000000
# 2 -0.001212 0.022008 -0.006719 0.000000 0.000648 0.000000
# 3 -0.003341 -0.006719 0.018644 0.000000 0.003465 0.000000
# 4 0.000000 0.000000 0.000000 0.049753 0.000000 0.020359
# 5 0.001403 0.000648 0.003465 0.000000 0.021052 0.000000
# 6 0.000000 0.000000 0.000000 0.020359 0.000000 0.036454
#
#
# Mechanical properties :
#
#
# Convention : Reuss Voigt Hill
#
# Bulk Modulus (GPa) = 39.85913 53.43281 46.64597
# Shear Modulus (GPa) = 26.91128 36.54611 31.72870
#
# Velocity S-wave (km/s) = 3.37330 3.93104 3.66280
# Velocity P-wave (km/s) = 5.65917 6.57249 6.13285
#
# Compressibility (1/GPa) = 0.02508835
#
# Stress axis : x y z
#
# Youngs Moduli (GPa) = 143.29219 45.43710 53.63739
#
# Poissons Ratio (x) = 0.05505 0.17919
# Poissons Ratio (y) = 0.17362 0.36038
# Poissons Ratio (z) = 0.47872 0.30528
#
# Static dielectric constant tensor:
#      x y z
#    x 2.448810 0.000000 0.683100 
#    y 0.000000 1.959190 0.000000 
#    z 0.683100 0.000000 2.733040 
# 
# From -- ./inp_files/263528.got.cif
#   From: 2010.05.17/outbox.cif.g08.bks.cpg/sg15_132_cif.got.tgz:263528.got - 2010.06.03 18:47:42.
