data_PCOD9305141
_publ_section_title
;
Structure prediction by ZEFSAII (Michael W. Deem and Ramdas Pophale) SiO2 
 PCOD9305141
Probable space group: C 2/C
;
_chemical_formula_sum "Si O2"
_cell_formula_units_Z 40
_cell_length_a 16.743998
_cell_length_b 8.018348
_cell_length_c 11.795678
_cell_angle_alpha 90.000000
_cell_angle_beta 93.730859
_cell_angle_gamma 90.000000
_cell_volume 1580.322063
_symmetry_space_group_name_H-M "C 2/C"
_symmetry_group_IT_number 15
_symmetry_cell_setting 'monoclinic'
loop_
_space_group_symop_operation_xyz
x,y,z
-x,y,1/2-z
-x,-y,-z
x,-y,1/2+z
1/2+x,1/2+y,z
1/2-x,1/2+y,1/2-z
1/2-x,1/2-y,-z
1/2+x,1/2-y,1/2+z
loop_
_atom_site_type_symbol
_atom_site_label
_atom_site_fract_x
_atom_site_fract_y
_atom_site_fract_z
Si Si1 0.017993 0.785498 0.884124
Si Si2 0.000000 0.632650 0.250000
Si Si3 0.678203 0.200354 0.319877
Si Si4 0.758962 0.863258 0.389303
Si Si5 0.000000 0.500000 0.000000
Si Si6 0.382171 0.419446 0.009502
O O1 0.000000 0.772456 0.750000
O O2 0.063861 0.644696 0.959212
O O3 0.936091 0.779046 0.953101
O O4 0.060736 0.960567 0.912266
O O5 0.916238 0.721538 0.216030
O O6 0.980668 0.536185 0.364058
O O7 0.733528 0.247440 0.219859
O O8 0.685841 0.334210 0.421507
O O9 0.696968 0.012903 0.359353
O O10 0.750000 0.750000 0.500000
O O11 0.841620 0.966255 0.411676
#
# Coordination Sequence:
#
# PCOD9305141 Si02
#       6
#     8   4   8   8   4   8
#     4  11  24  42  73 113 155 202 258 333 402 473
#     4  12  28  46  82 118 160 206 274 340 400 480
#     4  12  28  51  79 114 160 208 272 334 409 495
#     4  12  29  50  78 110 159 210 264 327 415 491
#     4  12  24  44  70 116 154 206 264 330 402 470
#     4  11  25  46  75 110 154 204 267 326 404 480
#
# _framework density 25.311295999999999
#
# number of rings (size 3 to 8) (size 9 to 14) (size 15 to 20)
#    0.000    0.400    3.000    4.200    9.800    1.600 
#    0.000    0.000    0.000    0.000    0.000    0.000 
#    0.000    0.000    0.000    0.000    0.000    0.000 
#
# Total GULP energy -111360.319697 kJ/mol
# GULP energy per Si atom -5568.015985 kJ/mol
# Density = 2.525369 g / cm^3
# Si number density = 25.311296 Si / 1000 Ang^3
#
#
#
# Elastic Constant Matrix: (Units=GPa)
#
#
# Indices 1 2 3 4 5 6 
#
# 1 47.0321 24.2418 24.1078 0.0000 -1.4747 0.0000
# 2 24.2418 105.3199 73.6279 0.0000 -32.2020 0.0000
# 3 24.1078 73.6279 208.0710 0.0000 -40.8411 0.0000
# 4 0.0000 0.0000 0.0000 18.2727 0.0000 -12.0521
# 5 -1.4747 -32.2020 -40.8411 0.0000 42.8601 0.0000
# 6 0.0000 0.0000 0.0000 -12.0521 0.0000 32.9567
#
#
#
# Elastic Compliance Matrix: (Units=1/GPa)
#
#
# Indices 1 2 3 4 5 6 
#
# 1 0.025228 -0.006240 -0.001802 0.000000 -0.005537 0.000000
# 2 -0.006240 0.015784 -0.003169 0.000000 0.008624 0.000000
# 3 -0.001802 -0.003169 0.006958 0.000000 0.004187 0.000000
# 4 0.000000 0.000000 0.000000 0.072122 0.000000 0.026375
# 5 -0.005537 0.008624 0.004187 0.000000 0.033611 0.000000
# 6 0.000000 0.000000 0.000000 0.026375 0.000000 0.039988
#
#
# Mechanical properties :
#
#
# Convention : Reuss Voigt Hill
#
# Bulk Modulus (GPa) = 39.14318 67.15312 53.14815
# Shear Modulus (GPa) = 22.25877 34.71427 28.48652
#
# Velocity S-wave (km/s) = 2.96869 3.70739 3.35841
# Velocity P-wave (km/s) = 5.22006 6.70185 6.00682
#
# Compressibility (1/GPa) = 0.02554724
#
# Stress axis : x y z
#
# Youngs Moduli (GPa) = 39.63776 63.35609 143.71493
#
# Poissons Ratio (x) = 0.39537 0.25894
# Poissons Ratio (y) = 0.24736 0.45550
# Poissons Ratio (z) = 0.07142 0.20080
#
# Static dielectric constant tensor:
#      x y z
#    x 1.785260 0.000000 -0.046810 
#    y 0.000000 2.119460 0.000000 
#    z -0.046810 0.000000 1.947040 
# 
# From -- ./inp_files/102890.got.cif
#   From: 2010.05.17/outbox.cif.g08.bks.cpg/sg15_52_cif.got.tgz:102890.got - 2010.06.03 18:47:42.
