data_PCOD9305431
_publ_section_title
;
Structure prediction by ZEFSAII (Michael W. Deem and Ramdas Pophale) SiO2 
 PCOD9305431
Probable space group: C 2/C
;
_chemical_formula_sum "Si O2"
_cell_formula_units_Z 32
_cell_length_a 11.816881
_cell_length_b 7.790239
_cell_length_c 14.264394
_cell_angle_alpha 90.000000
_cell_angle_beta 71.886742
_cell_angle_gamma 90.000000
_cell_volume 1248.054124
_symmetry_space_group_name_H-M "C 2/C"
_symmetry_group_IT_number 15
_symmetry_cell_setting 'monoclinic'
loop_
_space_group_symop_operation_xyz
x,y,z
-x,y,1/2-z
-x,-y,-z
x,-y,1/2+z
1/2+x,1/2+y,z
1/2-x,1/2+y,1/2-z
1/2-x,1/2-y,-z
1/2+x,1/2-y,1/2+z
loop_
_atom_site_type_symbol
_atom_site_label
_atom_site_fract_x
_atom_site_fract_y
_atom_site_fract_z
Si Si1 0.370973 0.903763 0.320813
Si Si2 0.146875 0.290924 0.798191
Si Si3 0.826641 0.480102 0.033128
Si Si4 0.565269 0.379920 0.058525
O O1 0.500000 0.852718 0.250000
O O2 0.268552 0.801539 0.293754
O O3 0.351323 0.104599 0.298263
O O4 0.358124 0.900533 0.435773
O O5 0.037325 0.164440 0.841003
O O6 0.129666 0.435333 0.882887
O O7 0.885551 0.294379 0.002606
O O8 0.683452 0.464279 0.071139
O O9 0.500000 0.500000 0.000000
#
# Coordination Sequence:
#
# PCOD9305431 Si02
#       4
#     8   8   8   8
#     4  12  28  45  71 108 144 187 242 299 361 424
#     4  12  28  45  72 104 146 189 242 298 358 429
#     4  11  26  48  74 101 145 187 240 296 357 434
#     4  11  24  44  77 102 137 189 240 286 369 420
#
# _framework density 25.639913
#
# number of rings (size 3 to 8) (size 9 to 14) (size 15 to 20)
#    0.000    0.500    5.000    1.500    7.000    2.000 
#    0.000    0.000    0.000    0.000    0.000    0.000 
#    0.000    0.000    0.000    0.000    0.000    0.000 
#
# Total GULP energy -89883.512344 kJ/mol
# GULP energy per Si atom -5617.719522 kJ/mol
# Density = 2.558156 g / cm^3
# Si number density = 25.639913 Si / 1000 Ang^3
#
#
#
# Elastic Constant Matrix: (Units=GPa)
#
#
# Indices 1 2 3 4 5 6 
#
# 1 176.0697 28.5363 25.8074 0.0000 -33.4374 0.0000
# 2 28.5363 54.6518 21.4732 0.0000 -6.5611 0.0000
# 3 25.8074 21.4732 96.3338 0.0000 4.4347 0.0000
# 4 0.0000 0.0000 0.0000 36.8214 0.0000 9.0192
# 5 -33.4374 -6.5611 4.4347 0.0000 46.6425 0.0000
# 6 0.0000 0.0000 0.0000 9.0192 0.0000 61.3712
#
#
#
# Elastic Compliance Matrix: (Units=1/GPa)
#
#
# Indices 1 2 3 4 5 6 
#
# 1 0.007284 -0.002569 -0.001609 0.000000 0.005013 0.000000
# 2 -0.002569 0.021466 -0.004169 0.000000 0.001574 0.000000
# 3 -0.001609 -0.004169 0.011873 0.000000 -0.002869 0.000000
# 4 0.000000 0.000000 0.000000 0.028172 0.000000 -0.004140
# 5 0.005013 0.001574 -0.002869 0.000000 0.025528 0.000000
# 6 0.000000 0.000000 0.000000 -0.004140 0.000000 0.016903
#
#
# Mechanical properties :
#
#
# Convention : Reuss Voigt Hill
#
# Bulk Modulus (GPa) = 41.79216 53.18769 47.48992
# Shear Modulus (GPa) = 36.79243 45.71625 41.25434
#
# Velocity S-wave (km/s) = 3.79221 4.22715 4.01557
# Velocity P-wave (km/s) = 5.95898 6.67939 6.32944
#
# Compressibility (1/GPa) = 0.02392793
#
# Stress axis : x y z
#
# Youngs Moduli (GPa) = 137.28807 46.58495 84.22367
#
# Poissons Ratio (x) = 0.11968 0.13556
# Poissons Ratio (y) = 0.35270 0.35114
# Poissons Ratio (z) = 0.22096 0.19422
#
# Static dielectric constant tensor:
#      x y z
#    x 1.972910 0.000000 -0.030100 
#    y 0.000000 2.034160 0.000000 
#    z -0.030100 0.000000 2.001760 
# 
# From -- ./inp_files/140552.got.cif
#   From: 2010.05.17/outbox.cif.g08.bks.cpg/sg15_71_cif.got.tgz:140552.got - 2010.06.03 18:47:42.
