data_PCOD9305078
_publ_section_title
;
Structure prediction by ZEFSAII (Michael W. Deem and Ramdas Pophale) SiO2 
 PCOD9305078
Probable space group: C 2/C
;
_chemical_formula_sum "Si O2"
_cell_formula_units_Z 40
_cell_length_a 8.885073
_cell_length_b 10.311846
_cell_length_c 18.846030
_cell_angle_alpha 90.000000
_cell_angle_beta 92.779297
_cell_angle_gamma 90.000000
_cell_volume 1724.670543
_symmetry_space_group_name_H-M "C 2/C"
_symmetry_group_IT_number 15
_symmetry_cell_setting 'monoclinic'
loop_
_space_group_symop_operation_xyz
x,y,z
-x,y,1/2-z
-x,-y,-z
x,-y,1/2+z
1/2+x,1/2+y,z
1/2-x,1/2+y,1/2-z
1/2-x,1/2-y,-z
1/2+x,1/2-y,1/2+z
loop_
_atom_site_type_symbol
_atom_site_label
_atom_site_fract_x
_atom_site_fract_y
_atom_site_fract_z
Si Si1 0.963474 0.387189 0.557031
Si Si2 0.644776 0.456532 0.596953
Si Si3 0.328626 0.353242 0.268907
Si Si4 0.399172 0.335938 0.518847
Si Si5 0.144770 0.426441 0.701659
O O1 0.804266 0.385943 0.594384
O O2 0.000000 0.500000 0.500000
O O3 0.977732 0.250247 0.518947
O O4 0.087578 0.404607 0.620994
O O5 0.663454 0.563658 0.658454
O O6 0.488541 0.374348 0.593286
O O7 0.639582 0.533202 0.522574
O O8 0.500000 0.336386 0.250000
O O9 0.240462 0.443996 0.212611
O O10 0.269031 0.206637 0.275420
O O11 0.250000 0.250000 0.500000
O O12 0.000000 0.442864 0.750000
#
# Coordination Sequence:
#
# PCOD9305078 Si02
#       5
#     8   8   8   8   8
#     4  12  24  43  72 104 136 184 230 288 354 420
#     4  11  24  43  67  96 137 181 220 289 344 404
#     4  11  26  44  70 100 135 188 234 289 349 420
#     4  11  24  42  66  99 139 172 228 279 341 418
#     4  11  25  47  69  99 142 182 236 287 353 421
#
# _framework density 23.192837999999998
#
# number of rings (size 3 to 8) (size 9 to 14) (size 15 to 20)
#    0.000    0.800    6.000    0.600    2.800    2.400 
#    0.000    0.000    0.000    0.000    0.000    0.000 
#    0.000    0.000    0.000    0.000    0.000    0.000 
#
# Total GULP energy -111638.096085 kJ/mol
# GULP energy per Si atom -5581.904804 kJ/mol
# Density = 2.314005 g / cm^3
# Si number density = 23.192838 Si / 1000 Ang^3
#
#
#
# Elastic Constant Matrix: (Units=GPa)
#
#
# Indices 1 2 3 4 5 6 
#
# 1 57.6006 17.9241 -26.7008 0.0000 3.7424 0.0000
# 2 17.9241 100.0085 2.9780 0.0000 16.5048 0.0000
# 3 -26.7008 2.9780 43.1572 0.0000 10.9433 0.0000
# 4 0.0000 0.0000 0.0000 31.6894 0.0000 4.0731
# 5 3.7424 16.5048 10.9433 0.0000 37.7490 0.0000
# 6 0.0000 0.0000 0.0000 4.0731 0.0000 34.6772
#
#
#
# Elastic Compliance Matrix: (Units=1/GPa)
#
#
# Indices 1 2 3 4 5 6 
#
# 1 0.028182 -0.004569 0.019377 0.000000 -0.006413 0.000000
# 2 -0.004569 0.011527 -0.002655 0.000000 -0.003817 0.000000
# 3 0.019377 -0.002655 0.038355 0.000000 -0.011879 0.000000
# 4 0.000000 0.000000 0.000000 0.032040 0.000000 -0.003763
# 5 -0.006413 -0.003817 -0.011879 0.000000 0.032239 0.000000
# 6 0.000000 0.000000 0.000000 -0.003763 0.000000 0.029279
#
#
# Mechanical properties :
#
#
# Convention : Reuss Voigt Hill
#
# Bulk Modulus (GPa) = 9.76845 21.01879 15.39362
# Shear Modulus (GPa) = 27.55736 34.59413 31.07574
#
# Velocity S-wave (km/s) = 3.45074 3.86630 3.66442
# Velocity P-wave (km/s) = 4.48306 5.38640 4.95536
#
# Compressibility (1/GPa) = 0.10237040
#
# Stress axis : x y z
#
# Youngs Moduli (GPa) = 35.48382 86.75156 26.07229
#
# Poissons Ratio (x) = 0.39641 -0.50521
# Poissons Ratio (y) = 0.16214 0.06921
# Poissons Ratio (z) = -0.68758 0.23028
#
# Static dielectric constant tensor:
#      x y z
#    x 1.917620 0.000000 -0.031550 
#    y 0.000000 1.896570 0.000000 
#    z -0.031550 0.000000 1.844780 
# 
# From -- ./inp_files/187965.got.cif
#   From: 2010.05.17/outbox.cif.g08.bks.cpg/sg15_94_cif.got.tgz:187965.got - 2010.06.03 18:47:42.
