data_PCOD9305244
_publ_section_title
;
Structure prediction by ZEFSAII (Michael W. Deem and Ramdas Pophale) SiO2 
 PCOD9305244
Probable space group: C 2/C
;
_chemical_formula_sum "Si O2"
_cell_formula_units_Z 52
_cell_length_a 27.674081
_cell_length_b 18.160252
_cell_length_c 5.517805
_cell_angle_alpha 90.000000
_cell_angle_beta 124.144029
_cell_angle_gamma 90.000000
_cell_volume 2295.077031
_symmetry_space_group_name_H-M "C 2/C"
_symmetry_group_IT_number 15
_symmetry_cell_setting 'monoclinic'
loop_
_space_group_symop_operation_xyz
x,y,z
-x,y,1/2-z
-x,-y,-z
x,-y,1/2+z
1/2+x,1/2+y,z
1/2-x,1/2+y,1/2-z
1/2-x,1/2-y,-z
1/2+x,1/2-y,1/2+z
loop_
_atom_site_type_symbol
_atom_site_label
_atom_site_fract_x
_atom_site_fract_y
_atom_site_fract_z
Si Si1 0.569553 0.293582 0.614472
Si Si2 0.594655 0.157576 0.377901
Si Si3 0.327380 0.326457 0.230462
Si Si4 0.720950 0.805419 0.217523
Si Si5 0.500000 0.188629 0.750000
Si Si6 0.500000 0.046316 0.250000
Si Si7 0.879262 0.962469 0.110761
Si Si8 0.000000 0.068131 0.750000
O O1 0.588751 0.243104 0.444238
O O2 0.521913 0.241990 0.602726
O O3 0.541929 0.373332 0.504360
O O4 0.622769 0.305608 0.942176
O O5 0.663791 0.145252 0.612088
O O6 0.556186 0.100321 0.423942
O O7 0.558763 0.150486 0.021609
O O8 0.271881 0.352355 0.233088
O O9 0.353041 0.383461 0.107767
O O10 0.305852 0.251727 0.049444
O O11 0.750000 0.750000 0.500000
O O12 0.500000 0.000000 0.500000
O O13 0.950628 0.965393 0.293394
O O14 0.860920 0.010658 0.292970
#
# Coordination Sequence:
#
# PCOD9305244 Si02
#       8
#     8   8   8   8   4   4   8   4
#     4  12  21  37  69 106 143 178 226 311 379 421
#     4  12  23  42  70 107 145 183 234 309 383 442
#     4  11  25  43  69 106 143 185 242 295 367 437
#     4  11  24  43  74 110 139 175 236 315 382 432
#     4  12  19  36  65 107 144 177 218 288 396 438
#     4  12  28  48  72 102 147 201 250 300 362 454
#     4  12  28  48  70  98 150 205 245 288 344 432
#     4  12  23  42  69 111 143 188 248 298 348 430
#
# _framework density 22.657191999999998
#
# number of rings (size 3 to 8) (size 9 to 14) (size 15 to 20)
#    0.000    0.308    6.154    3.692    2.154    1.231 
#    0.000    1.538    0.000    0.000    0.000    0.000 
#    0.000    0.000    0.000    0.000    0.000    0.000 
#
# Total GULP energy -145036.625734 kJ/mol
# GULP energy per Si atom -5578.331759 kJ/mol
# Density = 2.260562 g / cm^3
# Si number density = 22.657192 Si / 1000 Ang^3
#
#
#
# Elastic Constant Matrix: (Units=GPa)
#
#
# Indices 1 2 3 4 5 6 
#
# 1 147.9492 39.4397 34.8609 0.0000 11.1482 0.0000
# 2 39.4397 87.1365 18.7176 0.0000 -7.8677 0.0000
# 3 34.8609 18.7176 136.2211 0.0000 6.2770 0.0000
# 4 0.0000 0.0000 0.0000 15.9550 0.0000 -12.5253
# 5 11.1482 -7.8677 6.2770 0.0000 42.3322 0.0000
# 6 0.0000 0.0000 0.0000 -12.5253 0.0000 50.9991
#
#
#
# Elastic Compliance Matrix: (Units=1/GPa)
#
#
# Indices 1 2 3 4 5 6 
#
# 1 0.008289 -0.003669 -0.001495 0.000000 -0.002643 0.000000
# 2 -0.003669 0.013708 -0.001114 0.000000 0.003679 0.000000
# 3 -0.001495 -0.001114 0.007922 0.000000 -0.000988 0.000000
# 4 0.000000 0.000000 0.000000 0.077647 0.000000 0.019070
# 5 -0.002643 0.003679 -0.000988 0.000000 0.025149 0.000000
# 6 0.000000 0.000000 0.000000 0.019070 0.000000 0.024292
#
#
# Mechanical properties :
#
#
# Convention : Reuss Voigt Hill
#
# Bulk Modulus (GPa) = 57.59570 61.92702 59.76136
# Shear Modulus (GPa) = 28.51413 40.40984 34.46198
#
# Velocity S-wave (km/s) = 3.55139 4.22777 3.90425
# Velocity P-wave (km/s) = 6.50324 7.15706 6.83797
#
# Compressibility (1/GPa) = 0.01736241
#
# Stress axis : x y z
#
# Youngs Moduli (GPa) = 120.64709 72.94758 126.22623
#
# Poissons Ratio (x) = 0.26765 0.18874
# Poissons Ratio (y) = 0.44266 0.14064
# Poissons Ratio (z) = 0.18040 0.08128
#
# Static dielectric constant tensor:
#      x y z
#    x 1.977290 0.000000 -0.076310 
#    y 0.000000 1.863930 0.000000 
#    z -0.076310 0.000000 1.875180 
# 
# From -- ./inp_files/17536.got.cif
#   From: 2010.05.17/outbox.cif.g08.bks.cpg/sg15_9_cif.got.tgz:17536.got - 2010.06.03 18:47:42.
