data_PCOD9305156
_publ_section_title
;
Structure prediction by ZEFSAII (Michael W. Deem and Ramdas Pophale) SiO2 
 PCOD9305156
Probable space group: C 2/C
;
_chemical_formula_sum "Si O2"
_cell_formula_units_Z 48
_cell_length_a 24.874621
_cell_length_b 7.611454
_cell_length_c 11.185259
_cell_angle_alpha 90.000000
_cell_angle_beta 102.706514
_cell_angle_gamma 90.000000
_cell_volume 2065.863710
_symmetry_space_group_name_H-M "C 2/C"
_symmetry_group_IT_number 15
_symmetry_cell_setting 'monoclinic'
loop_
_space_group_symop_operation_xyz
x,y,z
-x,y,1/2-z
-x,-y,-z
x,-y,1/2+z
1/2+x,1/2+y,z
1/2-x,1/2+y,1/2-z
1/2-x,1/2-y,-z
1/2+x,1/2-y,1/2+z
loop_
_atom_site_type_symbol
_atom_site_label
_atom_site_fract_x
_atom_site_fract_y
_atom_site_fract_z
Si Si1 0.772457 0.292570 0.877321
Si Si2 0.785763 0.704817 0.900630
Si Si3 0.903681 0.691124 0.900455
Si Si4 0.057237 0.805392 0.820112
Si Si5 0.993532 0.820711 0.121812
Si Si6 0.605739 0.215289 0.083384
O O1 0.784170 0.496916 0.891111
O O2 0.735609 0.265816 0.740626
O O3 0.832662 0.209134 0.879159
O O4 0.750000 0.250000 0.000000
O O5 0.849877 0.752387 0.946818
O O6 0.750000 0.750000 0.000000
O O7 0.906709 0.802466 0.780948
O O8 0.898623 0.483156 0.867986
O O9 0.957988 0.724123 0.005164
O O10 0.000000 0.718512 0.750000
O O11 0.037350 0.995425 0.861755
O O12 0.090077 0.702420 0.936418
O O13 0.000000 0.721401 0.250000
O O14 0.056612 0.834751 0.110566
#
# Coordination Sequence:
#
# PCOD9305156 Si02
#       6
#     8   8   8   8   8   8
#     4  11  25  49  70 104 140 181 241 292 346 415
#     4  11  26  46  71 105 137 187 238 289 349 416
#     4  11  26  44  71 100 138 182 230 280 343 413
#     4  11  24  43  65 101 142 170 229 275 337 413
#     4  11  26  42  66 103 141 173 226 274 347 408
#     4  11  25  44  72  98 139 182 228 282 344 410
#
# _framework density 23.234833999999999
#
# number of rings (size 3 to 8) (size 9 to 14) (size 15 to 20)
#    0.000    1.000    1.667    3.000    7.000    6.667 
#    3.000    0.000    0.000    0.000    0.000    0.000 
#    0.000    0.000    0.000    0.000    0.000    0.000 
#
# Total GULP energy -134030.387692 kJ/mol
# GULP energy per Si atom -5584.599487 kJ/mol
# Density = 2.318195 g / cm^3
# Si number density = 23.234834 Si / 1000 Ang^3
#
#
#
# Elastic Constant Matrix: (Units=GPa)
#
#
# Indices 1 2 3 4 5 6 
#
# 1 136.5743 16.1451 33.6312 0.0000 -19.8143 0.0000
# 2 16.1451 74.8540 5.9050 0.0000 -16.3889 0.0000
# 3 33.6312 5.9050 118.6644 0.0000 -19.1305 0.0000
# 4 0.0000 0.0000 0.0000 30.2406 0.0000 0.9228
# 5 -19.8143 -16.3889 -19.1305 0.0000 47.4837 0.0000
# 6 0.0000 0.0000 0.0000 0.9228 0.0000 17.2952
#
#
#
# Elastic Compliance Matrix: (Units=1/GPa)
#
#
# Indices 1 2 3 4 5 6 
#
# 1 0.008259 -0.001130 -0.001916 0.000000 0.002284 0.000000
# 2 -0.001130 0.014607 0.000353 0.000000 0.004712 0.000000
# 3 -0.001916 0.000353 0.009458 0.000000 0.003133 0.000000
# 4 0.000000 0.000000 0.000000 0.033122 0.000000 -0.001767
# 5 0.002284 0.004712 0.003133 0.000000 0.024902 0.000000
# 6 0.000000 0.000000 0.000000 -0.001767 0.000000 0.057914
#
#
# Mechanical properties :
#
#
# Convention : Reuss Voigt Hill
#
# Bulk Modulus (GPa) = 37.12340 49.05059 43.08699
# Shear Modulus (GPa) = 30.74533 37.29799 34.02166
#
# Velocity S-wave (km/s) = 3.64159 4.01092 3.83071
# Velocity P-wave (km/s) = 5.80463 6.52737 6.17658
#
# Compressibility (1/GPa) = 0.02693719
#
# Stress axis : x y z
#
# Youngs Moduli (GPa) = 121.08189 68.46057 105.73436
#
# Poissons Ratio (x) = 0.07736 0.20261
# Poissons Ratio (y) = 0.13683 -0.03733
# Poissons Ratio (z) = 0.23202 -0.02417
#
# Static dielectric constant tensor:
#      x y z
#    x 1.956200 0.000000 -0.075590 
#    y 0.000000 1.880550 0.000000 
#    z -0.075590 0.000000 1.862080 
# 
# From -- ./inp_files/116383.got.cif
#   From: 2010.05.17/outbox.cif.g08.bks.cpg/sg15_59_cif.got.tgz:116383.got - 2010.06.03 18:47:42.
