data_PCOD9305635
_publ_section_title
;
Structure prediction by ZEFSAII (Michael W. Deem and Ramdas Pophale) SiO2 
 PCOD9305635
Probable space group: C 2/C
;
_chemical_formula_sum "Si O2"
_cell_formula_units_Z 48
_cell_length_a 12.519869
_cell_length_b 26.540937
_cell_length_c 14.677927
_cell_angle_alpha 90.000000
_cell_angle_beta 153.021230
_cell_angle_gamma 90.000000
_cell_volume 2212.644054
_symmetry_space_group_name_H-M "C 2/C"
_symmetry_group_IT_number 15
_symmetry_cell_setting 'monoclinic'
loop_
_space_group_symop_operation_xyz
x,y,z
-x,y,1/2-z
-x,-y,-z
x,-y,1/2+z
1/2+x,1/2+y,z
1/2-x,1/2+y,1/2-z
1/2-x,1/2-y,-z
1/2+x,1/2-y,1/2+z
loop_
_atom_site_type_symbol
_atom_site_label
_atom_site_fract_x
_atom_site_fract_y
_atom_site_fract_z
Si Si1 0.109941 0.030204 0.738987
Si Si2 0.432798 0.687077 0.947250
Si Si3 0.244870 0.883048 0.603014
Si Si4 0.353220 0.063083 0.365434
Si Si5 0.524443 0.128226 0.875930
Si Si6 0.172977 0.783872 0.808108
O O1 0.000000 0.012051 0.750000
O O2 0.933003 0.074361 0.571751
O O3 0.163899 0.982028 0.716626
O O4 0.379371 0.048378 0.957973
O O5 0.319032 0.742718 0.861973
O O6 0.232909 0.644800 0.785820
O O7 0.622487 0.671859 0.015461
O O8 0.528363 0.686034 0.122960
O O9 0.500000 0.883848 0.750000
O O10 0.280949 0.896375 0.736353
O O11 0.374751 0.083655 0.484856
O O12 0.500000 0.117946 0.750000
O O13 0.678399 0.176947 0.019928
O O14 0.000000 0.757927 0.750000
#
# Coordination Sequence:
#
# PCOD9305635 Si02
#       6
#     8   8   8   8   8   8
#     4  11  24  46  71 101 137 181 230 284 351 418
#     4  12  24  39  67  99 138 183 235 284 342 414
#     4  12  25  46  74  98 134 192 236 285 346 410
#     4  11  25  45  70 103 139 179 231 289 346 415
#     4  12  24  41  69 104 143 183 227 285 353 423
#     4  12  23  40  66  99 143 187 227 282 359 417
#
# _framework density 21.693501999999999
#
# number of rings (size 3 to 8) (size 9 to 14) (size 15 to 20)
#    0.000    0.333    8.333    1.500    0.000    2.000 
#    6.000    0.833    0.000    0.000    0.000    0.000 
#    0.000    0.000    0.000    0.000    0.000    0.000 
#
# Total GULP energy -133916.701988 kJ/mol
# GULP energy per Si atom -5579.862583 kJ/mol
# Density = 2.164413 g / cm^3
# Si number density = 21.693502 Si / 1000 Ang^3
#
#
#
# Elastic Constant Matrix: (Units=GPa)
#
#
# Indices 1 2 3 4 5 6 
#
# 1 54.6754 38.8645 36.5826 0.0004 22.7063 0.0002
# 2 38.8645 74.3335 28.2655 0.0000 25.7149 0.0001
# 3 36.5826 28.2655 85.7400 0.0016 9.7495 0.0009
# 4 0.0004 0.0000 0.0016 34.4119 0.0008 -2.8238
# 5 22.7063 25.7149 9.7495 0.0008 37.0021 0.0004
# 6 0.0002 0.0001 0.0009 -2.8238 0.0004 31.6538
#
#
#
# Elastic Compliance Matrix: (Units=1/GPa)
#
#
# Indices 1 2 3 4 5 6 
#
# 1 0.040067 -0.011945 -0.011655 0.000000 -0.013215 0.000000
# 2 -0.011945 0.023204 -0.001601 0.000000 -0.008374 0.000000
# 3 -0.011655 -0.001601 0.016725 -0.000001 0.003857 0.000000
# 4 0.000000 0.000000 -0.000001 0.029274 -0.000001 0.002612
# 5 -0.013215 -0.008374 0.003857 -0.000001 0.039938 -0.000001
# 6 0.000000 0.000000 0.000000 0.002612 -0.000001 0.031825
#
#
# Mechanical properties :
#
#
# Convention : Reuss Voigt Hill
#
# Bulk Modulus (GPa) = 33.79038 46.90823 40.34930
# Shear Modulus (GPa) = 20.72133 28.01598 24.36865
#
# Velocity S-wave (km/s) = 3.09396 3.59757 3.35523
# Velocity P-wave (km/s) = 5.32668 6.23913 5.80088
#
# Compressibility (1/GPa) = 0.02959423
#
# Stress axis : x y z
#
# Youngs Moduli (GPa) = 24.95847 43.09647 59.79113
#
# Poissons Ratio (x) = 0.51480 0.69684
# Poissons Ratio (y) = 0.29813 0.09571
# Poissons Ratio (z) = 0.29088 0.06898
#
# Static dielectric constant tensor:
#      x y z
#    x 1.769950 0.000000 0.044140 
#    y 0.000000 1.833870 0.000000 
#    z 0.044140 0.000000 1.860030 
# 
# From -- ./inp_files/148830.got.cif
#   From: 2010.05.17/outbox.cif.g08.bks.cpg/sg15_75_cif.got.tgz:148830.got - 2010.06.03 18:47:42.
