data_PCOD9305660
_publ_section_title
;
Structure prediction by ZEFSAII (Michael W. Deem and Ramdas Pophale) SiO2 
 PCOD9305660
Probable space group: C 2/C
;
_chemical_formula_sum "Si O2"
_cell_formula_units_Z 40
_cell_length_a 23.481336
_cell_length_b 7.748392
_cell_length_c 9.205924
_cell_angle_alpha 90.000000
_cell_angle_beta 100.396769
_cell_angle_gamma 90.000000
_cell_volume 1647.449799
_symmetry_space_group_name_H-M "C 2/C"
_symmetry_group_IT_number 15
_symmetry_cell_setting 'monoclinic'
loop_
_space_group_symop_operation_xyz
x,y,z
-x,y,1/2-z
-x,-y,-z
x,-y,1/2+z
1/2+x,1/2+y,z
1/2-x,1/2+y,1/2-z
1/2-x,1/2-y,-z
1/2+x,1/2-y,1/2+z
loop_
_atom_site_type_symbol
_atom_site_label
_atom_site_fract_x
_atom_site_fract_y
_atom_site_fract_z
Si Si1 0.165652 0.893301 0.439723
Si Si2 0.279102 0.692337 0.842592
Si Si3 0.041405 0.596313 0.631879
Si Si4 0.829935 0.430862 0.340121
Si Si5 0.961922 0.111557 0.591948
O O1 0.197086 0.857994 0.304524
O O2 0.169968 0.712479 0.531342
O O3 0.099376 0.953954 0.378000
O O4 0.194725 0.049295 0.539571
O O5 0.210241 0.661206 0.799248
O O6 0.300561 0.888296 0.873188
O O7 0.105383 0.521334 0.691477
O O8 0.057704 0.753349 0.537418
O O9 0.000000 0.633248 0.750000
O O10 0.000000 0.500000 0.500000
O O11 0.000000 0.167183 0.750000
O O12 0.000000 0.000000 0.500000
#
# Coordination Sequence:
#
# PCOD9305660 Si02
#       5
#     8   8   8   8   8
#     4  11  27  47  74 114 148 198 251 307 379 447
#     4  12  26  49  77 108 153 194 249 313 375 447
#     4  11  27  45  73 108 146 196 248 303 373 444
#     4  11  27  47  77 110 151 198 251 311 374 447
#     4  11  24  46  72 105 147 194 248 306 371 444
#
# _framework density 24.279948999999998
#
# number of rings (size 3 to 8) (size 9 to 14) (size 15 to 20)
#    0.000    0.800    2.000    3.000   11.200    4.000 
#    0.000    0.000    0.000    0.000    0.000    0.000 
#    0.000    0.000    0.000    0.000    0.000    0.000 
#
# Total GULP energy -111705.284900 kJ/mol
# GULP energy per Si atom -5585.264245 kJ/mol
# Density = 2.422469 g / cm^3
# Si number density = 24.279949 Si / 1000 Ang^3
#
#
#
# Elastic Constant Matrix: (Units=GPa)
#
#
# Indices 1 2 3 4 5 6 
#
# 1 199.3893 35.3802 67.9168 0.0000 12.8941 0.0000
# 2 35.3802 127.2782 43.5368 0.0000 -2.0699 0.0000
# 3 67.9168 43.5368 151.1898 0.0000 -14.2818 0.0000
# 4 0.0000 0.0000 0.0000 35.1910 0.0000 5.2157
# 5 12.8941 -2.0699 -14.2818 0.0000 37.1241 0.0000
# 6 0.0000 0.0000 0.0000 5.2157 0.0000 18.7473
#
#
#
# Elastic Compliance Matrix: (Units=1/GPa)
#
#
# Indices 1 2 3 4 5 6 
#
# 1 0.006387 -0.000820 -0.002954 0.000000 -0.003401 0.000000
# 2 -0.000820 0.008829 -0.002180 0.000000 -0.000061 0.000000
# 3 -0.002954 -0.002180 0.008981 0.000000 0.004359 0.000000
# 4 0.000000 0.000000 0.000000 0.029638 0.000000 -0.008246
# 5 -0.003401 -0.000061 0.004359 0.000000 0.029791 0.000000
# 6 0.000000 0.000000 0.000000 -0.008246 0.000000 0.055635
#
#
# Mechanical properties :
#
#
# Convention : Reuss Voigt Hill
#
# Bulk Modulus (GPa) = 81.37567 85.72499 83.55033
# Shear Modulus (GPa) = 32.20257 40.28073 36.24165
#
# Velocity S-wave (km/s) = 3.64580 4.07752 3.86768
# Velocity P-wave (km/s) = 7.16315 7.58629 7.37775
#
# Compressibility (1/GPa) = 0.01228868
#
# Stress axis : x y z
#
# Youngs Moduli (GPa) = 156.56721 113.25723 111.34867
#
# Poissons Ratio (x) = 0.09290 0.32894
# Poissons Ratio (y) = 0.12842 0.24273
# Poissons Ratio (z) = 0.46253 0.24689
#
# Static dielectric constant tensor:
#      x y z
#    x -5.841370 0.000000 -1.168000 
#    y 0.000000 1.885880 0.000000 
#    z -1.168000 0.000000 1.690830 
# 
# From -- ./inp_files/64599.got.cif
#   From: 2010.05.17/outbox.cif.g08.bks.cpg/sg15_33_cif.got.tgz:64599.got - 2010.06.03 18:47:42.
