data_PCOD9305111
_publ_section_title
;
Structure prediction by ZEFSAII (Michael W. Deem and Ramdas Pophale) SiO2 
 PCOD9305111
Probable space group: C 2/C
;
_chemical_formula_sum "Si O2"
_cell_formula_units_Z 56
_cell_length_a 12.724190
_cell_length_b 18.074084
_cell_length_c 15.265077
_cell_angle_alpha 90.000000
_cell_angle_beta 44.597522
_cell_angle_gamma 90.000000
_cell_volume 2464.893626
_symmetry_space_group_name_H-M "C 2/C"
_symmetry_group_IT_number 15
_symmetry_cell_setting 'monoclinic'
loop_
_space_group_symop_operation_xyz
x,y,z
-x,y,1/2-z
-x,-y,-z
x,-y,1/2+z
1/2+x,1/2+y,z
1/2-x,1/2+y,1/2-z
1/2-x,1/2-y,-z
1/2+x,1/2-y,1/2+z
loop_
_atom_site_type_symbol
_atom_site_label
_atom_site_fract_x
_atom_site_fract_y
_atom_site_fract_z
Si Si1 0.063311 0.804091 0.475096
Si Si2 0.546091 0.407602 0.822225
Si Si3 0.619143 0.053699 0.971632
Si Si4 0.658996 0.447420 0.320087
Si Si5 0.744874 0.793938 0.595286
Si Si6 0.823658 0.465409 0.876335
Si Si7 0.364058 0.170649 0.162412
O O1 0.056575 0.845825 0.570873
O O2 0.898395 0.774248 0.552628
O O3 0.095328 0.869878 0.388631
O O4 0.162234 0.733328 0.395325
O O5 0.500000 0.412437 0.750000
O O6 0.538204 0.488994 0.869928
O O7 0.719312 0.383014 0.738941
O O8 0.743783 0.067290 0.824646
O O9 0.686663 0.012510 0.016187
O O10 0.516079 0.123593 0.060706
O O11 0.500000 0.000000 0.000000
O O12 0.755613 0.481719 0.342924
O O13 0.750000 0.750000 0.500000
O O14 0.743369 0.882635 0.582647
O O15 0.628036 0.788923 0.746619
O O16 0.000000 0.459279 0.750000
#
# Coordination Sequence:
#
# PCOD9305111 Si02
#       7
#     8   8   8   8   8   8   8
#     4  11  27  44  68  99 142 174 228 289 342 420
#     4  11  25  48  70  94 137 184 228 287 342 407
#     4  12  23  42  72 103 136 185 229 281 345 414
#     4  12  26  45  69 105 137 185 234 282 349 414
#     4  11  24  42  69  99 137 181 215 288 362 405
#     4  12  22  43  68 101 141 175 231 288 336 408
#     4  11  24  48  66 103 141 175 233 286 343 416
#
# _framework density 22.719034000000001
#
# number of rings (size 3 to 8) (size 9 to 14) (size 15 to 20)
#    0.000    0.571    7.143    1.286    8.000    0.571 
#    0.000    0.714    0.000    0.000    0.000    0.000 
#    0.000    0.000    0.000    0.000    0.000    0.000 
#
# Total GULP energy -156436.362716 kJ/mol
# GULP energy per Si atom -5587.012954 kJ/mol
# Density = 2.266732 g / cm^3
# Si number density = 22.719034 Si / 1000 Ang^3
#
#
#
# Elastic Constant Matrix: (Units=GPa)
#
#
# Indices 1 2 3 4 5 6 
#
# 1 70.2563 2.9776 33.6631 0.0001 29.5721 -0.0001
# 2 2.9776 91.6136 34.7356 0.0001 5.2577 -0.0001
# 3 33.6631 34.7356 134.1744 0.0001 21.9397 -0.0001
# 4 0.0001 0.0001 0.0001 32.8562 0.0000 5.0011
# 5 29.5721 5.2577 21.9397 0.0000 40.4922 0.0001
# 6 -0.0001 -0.0001 -0.0001 5.0011 0.0001 20.8695
#
#
#
# Elastic Compliance Matrix: (Units=1/GPa)
#
#
# Indices 1 2 3 4 5 6 
#
# 1 0.021856 0.001445 -0.003530 0.000000 -0.014237 0.000000
# 2 0.001445 0.012200 -0.003390 0.000000 -0.000803 0.000000
# 3 -0.003530 -0.003390 0.009570 0.000000 -0.002168 0.000000
# 4 0.000000 0.000000 0.000000 0.031588 0.000000 -0.007570
# 5 -0.014237 -0.000803 -0.002168 0.000000 0.036373 0.000000
# 6 0.000000 0.000000 0.000000 -0.007570 0.000000 0.049731
#
#
# Mechanical properties :
#
#
# Convention : Reuss Voigt Hill
#
# Bulk Modulus (GPa) = 30.60161 48.75521 39.67841
# Shear Modulus (GPa) = 27.29874 33.82144 30.56009
#
# Velocity S-wave (km/s) = 3.47014 3.86253 3.67158
# Velocity P-wave (km/s) = 5.43642 6.43419 5.95624
#
# Compressibility (1/GPa) = 0.03267802
#
# Stress axis : x y z
#
# Youngs Moduli (GPa) = 45.75348 81.96939 104.48794
#
# Poissons Ratio (x) = -0.11844 0.36880
# Poissons Ratio (y) = -0.06611 0.35417
# Poissons Ratio (z) = 0.16149 0.27784
#
# Static dielectric constant tensor:
#      x y z
#    x 1.866310 0.000000 -0.002520 
#    y 0.000000 1.887960 0.000000 
#    z -0.002520 0.000000 1.967900 
# 
# From -- ./inp_files/155145.got.cif
#   From: 2010.05.17/outbox.cif.g08.bks.cpg/sg15_78_cif.got.tgz:155145.got - 2010.06.03 18:47:42.
