data_PCOD9305661
_publ_section_title
;
Structure prediction by ZEFSAII (Michael W. Deem and Ramdas Pophale) SiO2 
 PCOD9305661
Probable space group: C 2/C
;
_chemical_formula_sum "Si O2"
_cell_formula_units_Z 36
_cell_length_a 12.875160
_cell_length_b 6.501344
_cell_length_c 26.807850
_cell_angle_alpha 90.000000
_cell_angle_beta 39.804700
_cell_angle_gamma 90.000000
_cell_volume 1436.530757
_symmetry_space_group_name_H-M "C 2/C"
_symmetry_group_IT_number 15
_symmetry_cell_setting 'monoclinic'
loop_
_space_group_symop_operation_xyz
x,y,z
-x,y,1/2-z
-x,-y,-z
x,-y,1/2+z
1/2+x,1/2+y,z
1/2-x,1/2+y,1/2-z
1/2-x,1/2-y,-z
1/2+x,1/2-y,1/2+z
loop_
_atom_site_type_symbol
_atom_site_label
_atom_site_fract_x
_atom_site_fract_y
_atom_site_fract_z
Si Si1 0.725423 0.509467 0.997565
Si Si2 0.121385 0.692828 0.968497
Si Si3 0.000000 0.095305 0.250000
Si Si4 0.237308 0.741991 0.190924
Si Si5 0.010741 0.594801 0.824426
O O1 0.583394 0.393852 0.018308
O O2 0.883363 0.473655 0.904587
O O3 0.750000 0.750000 0.000000
O O4 0.746903 0.411869 0.043732
O O5 0.189011 0.774452 0.891382
O O6 0.000000 0.500000 0.000000
O O7 0.869514 0.948954 0.272667
O O8 0.075093 0.245856 0.181033
O O9 0.123478 0.557607 0.250983
O O10 0.377737 0.776997 0.178969
#
# Coordination Sequence:
#
# PCOD9305661 Si02
#       5
#     8   8   4   8   8
#     4  11  25  47  73 108 146 203 252 319 392 461
#     4  11  24  46  72 105 151 193 249 314 386 461
#     4  12  24  44  72 100 146 192 244 316 372 440
#     4  12  25  47  74 108 145 200 246 310 382 456
#     4  12  25  47  74 107 149 195 257 310 379 458
#
# _framework density 25.060373999999999
#
# number of rings (size 3 to 8) (size 9 to 14) (size 15 to 20)
#    0.000    0.444    4.444    4.667    0.000    2.667 
#    4.000    0.000    0.000    0.000    0.000    0.000 
#    0.000    0.000    0.000    0.000    0.000    0.000 
#
# Total GULP energy -100599.982020 kJ/mol
# GULP energy per Si atom -5588.887890 kJ/mol
# Density = 2.500334 g / cm^3
# Si number density = 25.060374 Si / 1000 Ang^3
#
#
#
# Elastic Constant Matrix: (Units=GPa)
#
#
# Indices 1 2 3 4 5 6 
#
# 1 123.3939 63.6278 34.6663 0.0002 35.0807 0.0003
# 2 63.6278 158.7056 46.4422 0.0015 27.2130 0.0006
# 3 34.6663 46.4422 95.2269 -0.0002 33.2398 0.0000
# 4 0.0002 0.0015 -0.0002 50.3445 -0.0001 9.1001
# 5 35.0807 27.2130 33.2398 -0.0001 41.3141 0.0001
# 6 0.0003 0.0006 0.0000 9.1001 0.0001 75.3134
#
#
#
# Elastic Compliance Matrix: (Units=1/GPa)
#
#
# Indices 1 2 3 4 5 6 
#
# 1 0.012204 -0.003533 0.000119 0.000000 -0.008131 0.000000
# 2 -0.003533 0.008600 -0.002750 0.000000 -0.000452 0.000000
# 3 0.000119 -0.002750 0.015577 0.000000 -0.010822 0.000000
# 4 0.000000 0.000000 0.000000 0.020307 0.000000 -0.002454
# 5 -0.008131 -0.000452 -0.010822 0.000000 0.040113 0.000000
# 6 0.000000 0.000000 0.000000 -0.002454 0.000000 0.013574
#
#
# Mechanical properties :
#
#
# Convention : Reuss Voigt Hill
#
# Bulk Modulus (GPa) = 41.57856 74.08876 57.83366
# Shear Modulus (GPa) = 38.24902 48.90040 43.57471
#
# Velocity S-wave (km/s) = 3.91100 4.42215 4.17440
# Velocity P-wave (km/s) = 6.08456 7.46339 6.80897
#
# Compressibility (1/GPa) = 0.02405085
#
# Stress axis : x y z
#
# Youngs Moduli (GPa) = 81.93715 116.28153 64.19835
#
# Poissons Ratio (x) = 0.41088 -0.00761
# Poissons Ratio (y) = 0.28952 0.17656
# Poissons Ratio (z) = -0.00972 0.31980
#
# Static dielectric constant tensor:
#      x y z
#    x 1.934500 0.000000 -0.035720 
#    y 0.000000 2.093030 0.000000 
#    z -0.035720 0.000000 1.979100 
# 
# From -- ./inp_files/271612.got.cif
#   From: 2010.05.17/outbox.cif.g08.bks.cpg/sg15_136_cif.got.tgz:271612.got - 2010.06.03 18:47:42.
