data_PCOD9305348
_publ_section_title
;
Structure prediction by ZEFSAII (Michael W. Deem and Ramdas Pophale) SiO2 
 PCOD9305348
Probable space group: C 2/C
;
_chemical_formula_sum "Si O2"
_cell_formula_units_Z 48
_cell_length_a 27.936996
_cell_length_b 16.826665
_cell_length_c 8.964777
_cell_angle_alpha 90.000000
_cell_angle_beta 148.746038
_cell_angle_gamma 90.000000
_cell_volume 2186.473974
_symmetry_space_group_name_H-M "C 2/C"
_symmetry_group_IT_number 15
_symmetry_cell_setting 'monoclinic'
loop_
_space_group_symop_operation_xyz
x,y,z
-x,y,1/2-z
-x,-y,-z
x,-y,1/2+z
1/2+x,1/2+y,z
1/2-x,1/2+y,1/2-z
1/2-x,1/2-y,-z
1/2+x,1/2-y,1/2+z
loop_
_atom_site_type_symbol
_atom_site_label
_atom_site_fract_x
_atom_site_fract_y
_atom_site_fract_z
Si Si1 0.347112 0.449675 0.962799
Si Si2 0.968754 0.308011 0.451349
Si Si3 0.160728 0.553484 0.775190
Si Si4 0.152374 0.105466 0.702901
Si Si5 0.000000 0.230534 0.250000
Si Si6 0.156603 0.604403 0.425371
Si Si7 0.500000 0.669099 0.750000
O O1 0.254753 0.435497 0.619794
O O2 0.379108 0.538201 0.000247
O O3 0.330667 0.438115 0.094440
O O4 0.423672 0.386757 0.118921
O O5 0.946585 0.285447 0.223911
O O6 0.076315 0.332391 0.734831
O O7 0.911731 0.380520 0.364912
O O8 0.955262 0.228983 0.511646
O O9 0.174547 0.565239 0.635604
O O10 0.126034 0.466162 0.731514
O O11 0.076226 0.172432 0.522968
O O12 0.248592 0.137091 0.891445
#
# Coordination Sequence:
#
# PCOD9305348 Si02
#       7
#     8   8   8   8   4   8   4
#     4  11  25  43  71  94 131 170 220 269 315 387
#     4  12  27  44  64  99 134 172 213 267 329 385
#     4  11  24  44  70  96 128 174 218 267 320 379
#     4  11  25  45  67  99 126 172 222 265 321 380
#     4  12  29  42  67  96 134 172 212 270 325 390
#     4  11  24  44  70  95 131 170 222 266 316 385
#     4  12  25  46  63  96 136 168 214 266 329 384
#
# _framework density 21.953153
#
# number of rings (size 3 to 8) (size 9 to 14) (size 15 to 20)
#    0.000    0.667    3.333    5.000    9.333    4.000 
#    0.000    0.000    0.000    0.000    0.000    0.000 
#    0.000    0.000    0.000    0.000    0.000    0.000 
#
# Total GULP energy -134285.487797 kJ/mol
# GULP energy per Si atom -5595.228658 kJ/mol
# Density = 2.190319 g / cm^3
# Si number density = 21.953153 Si / 1000 Ang^3
#
#
#
# Elastic Constant Matrix: (Units=GPa)
#
#
# Indices 1 2 3 4 5 6 
#
# 1 123.2505 16.9681 18.6119 0.0000 -4.7190 0.0000
# 2 16.9681 46.8563 12.5892 0.0000 20.6113 0.0000
# 3 18.6119 12.5892 30.9651 0.0000 -5.6875 0.0000
# 4 0.0000 0.0000 0.0000 7.9969 0.0000 -45.7444
# 5 -4.7190 20.6113 -5.6875 0.0000 42.2590 0.0000
# 6 0.0000 0.0000 0.0000 -45.7444 0.0000 -58.8599
#
#
#
# Elastic Compliance Matrix: (Units=1/GPa)
#
#
# Indices 1 2 3 4 5 6 
#
# 1 0.009218 -0.003219 -0.003849 0.000000 0.002082 0.000000
# 2 -0.003219 0.035622 -0.016205 0.000000 -0.019915 0.000000
# 3 -0.003849 -0.016205 0.043648 0.000000 0.013349 0.000000
# 4 0.000000 0.000000 0.000000 0.022963 0.000000 -0.017846
# 5 0.002082 -0.019915 0.013349 0.000000 0.035406 0.000000
# 6 0.000000 0.000000 0.000000 -0.017846 0.000000 -0.003120
#
#
# Mechanical properties :
#
#
# Convention : Reuss Voigt Hill
#
# Bulk Modulus (GPa) = 23.84355 33.04559 28.44457
# Shear Modulus (GPa) = 24.47811 8.47271 16.47541
#
# Velocity S-wave (km/s) = 3.34281 1.96668 2.74246
# Velocity P-wave (km/s) = 5.07778 4.49917 4.79721
#
# Compressibility (1/GPa) = 0.04194006
#
# Stress axis : x y z
#
# Youngs Moduli (GPa) = 108.48642 28.07278 22.91045
#
# Poissons Ratio (x) = 0.09038 0.08819
# Poissons Ratio (y) = 0.34927 0.37127
# Poissons Ratio (z) = 0.41758 0.45492
#
# Static dielectric constant tensor:
#      x y z
#    x 1.951320 0.000000 -0.126410 
#    y 0.000000 1.782300 0.000000 
#    z -0.126410 0.000000 1.885560 
# 
# From -- ./inp_files/48427.got.cif
#   From: 2010.05.17/outbox.cif.g08.bks.cpg/sg15_25_cif.got.tgz:48427.got - 2010.06.03 18:47:42.
