data_PCOD9305236
_publ_section_title
;
Structure prediction by ZEFSAII (Michael W. Deem and Ramdas Pophale) SiO2 
 PCOD9305236
Probable space group: C 2/C
;
_chemical_formula_sum "Si O2"
_cell_formula_units_Z 52
_cell_length_a 9.441155
_cell_length_b 16.261813
_cell_length_c 17.227567
_cell_angle_alpha 90.000000
_cell_angle_beta 59.410245
_cell_angle_gamma 90.000000
_cell_volume 2276.863330
_symmetry_space_group_name_H-M "C 2/C"
_symmetry_group_IT_number 15
_symmetry_cell_setting 'monoclinic'
loop_
_space_group_symop_operation_xyz
x,y,z
-x,y,1/2-z
-x,-y,-z
x,-y,1/2+z
1/2+x,1/2+y,z
1/2-x,1/2+y,1/2-z
1/2-x,1/2-y,-z
1/2+x,1/2-y,1/2+z
loop_
_atom_site_type_symbol
_atom_site_label
_atom_site_fract_x
_atom_site_fract_y
_atom_site_fract_z
Si Si1 0.318699 0.370064 0.201727
Si Si2 0.726891 0.319530 0.940574
Si Si3 0.645061 0.012427 0.066195
Si Si4 0.500000 0.935678 0.250000
Si Si5 0.316431 0.090803 0.090560
Si Si6 0.000000 0.008191 0.250000
Si Si7 0.625743 0.728213 0.966214
Si Si8 0.000000 0.733329 0.250000
O O1 0.124319 0.384372 0.268843
O O2 0.421880 0.447965 0.205538
O O3 0.335958 0.342578 0.107246
O O4 0.387159 0.293575 0.230750
O O5 0.733320 0.410139 0.975714
O O6 0.876997 0.316520 0.838758
O O7 0.750000 0.250000 0.000000
O O8 0.552998 0.296191 0.951527
O O9 0.464791 0.040354 0.087814
O O10 0.620357 0.987455 0.161931
O O11 0.695828 0.938804 0.995402
O O12 0.369980 0.185168 0.081008
O O13 0.147012 0.064737 0.177576
O O14 0.750000 0.750000 0.000000
#
# Coordination Sequence:
#
# PCOD9305236 Si02
#       8
#     8   8   8   4   8   4   8   4
#     4  11  25  43  72 105 142 193 245 296 375 437
#     4  12  24  47  73 100 142 186 250 296 353 451
#     4  11  24  43  74 102 142 191 246 296 364 438
#     4  12  25  43  71 107 148 180 246 306 367 440
#     4  11  24  44  72 103 144 196 237 302 375 425
#     4  11  24  47  75 106 149 198 252 309 366 456
#     4  12  27  47  71 110 150 190 243 307 376 437
#     4  11  25  42  76 101 133 192 248 299 365 426
#
# _framework density 22.838436999999999
#
# number of rings (size 3 to 8) (size 9 to 14) (size 15 to 20)
#    0.000    0.615    4.615    2.308    6.462    1.846 
#    2.769    3.077    0.000    0.000    0.000    0.000 
#    0.000    0.000    0.000    0.000    0.000    0.000 
#
# Total GULP energy -145419.894016 kJ/mol
# GULP energy per Si atom -5593.072847 kJ/mol
# Density = 2.278646 g / cm^3
# Si number density = 22.838437 Si / 1000 Ang^3
#
#
#
# Elastic Constant Matrix: (Units=GPa)
#
#
# Indices 1 2 3 4 5 6 
#
# 1 137.9046 28.1707 26.2445 0.0000 -7.6302 0.0000
# 2 28.1707 106.7512 41.8277 0.0000 -15.4256 0.0000
# 3 26.2445 41.8277 104.8476 0.0000 -9.2473 0.0000
# 4 0.0000 0.0000 0.0000 24.9922 0.0000 -5.2533
# 5 -7.6302 -15.4256 -9.2473 0.0000 41.6128 0.0000
# 6 0.0000 0.0000 0.0000 -5.2533 0.0000 31.7107
#
#
#
# Elastic Compliance Matrix: (Units=1/GPa)
#
#
# Indices 1 2 3 4 5 6 
#
# 1 0.007835 -0.001462 -0.001325 0.000000 0.000600 0.000000
# 2 -0.001462 0.011808 -0.004062 0.000000 0.003207 0.000000
# 3 -0.001325 -0.004062 0.011562 0.000000 0.000821 0.000000
# 4 0.000000 0.000000 0.000000 0.041456 0.000000 0.006868
# 5 0.000600 0.003207 0.000821 0.000000 0.025512 0.000000
# 6 0.000000 0.000000 0.000000 0.006868 0.000000 0.032673
#
#
# Mechanical properties :
#
#
# Convention : Reuss Voigt Hill
#
# Bulk Modulus (GPa) = 57.11683 60.22100 58.66892
# Shear Modulus (GPa) = 33.24888 36.54718 34.89803
#
# Velocity S-wave (km/s) = 3.81967 4.00465 3.91326
# Velocity P-wave (km/s) = 6.67207 6.91437 6.79430
#
# Compressibility (1/GPa) = 0.01750798
#
# Stress axis : x y z
#
# Youngs Moduli (GPa) = 127.62599 84.68638 86.48830
#
# Poissons Ratio (x) = 0.12378 0.11462
# Poissons Ratio (y) = 0.18655 0.35132
# Poissons Ratio (z) = 0.16913 0.34400
#
# Static dielectric constant tensor:
#      x y z
#    x 1.898750 0.000000 0.047950 
#    y 0.000000 1.870670 0.000000 
#    z 0.047950 0.000000 1.887630 
# 
# From -- ./inp_files/190879.got.cif
#   From: 2010.05.17/outbox.cif.g08.bks.cpg/sg15_96_cif.got.tgz:190879.got - 2010.06.03 18:47:42.
