data_PCOD9305584
_publ_section_title
;
Structure prediction by ZEFSAII (Michael W. Deem and Ramdas Pophale) SiO2 
 PCOD9305584
Probable space group: C 2/C
;
_chemical_formula_sum "Si O2"
_cell_formula_units_Z 40
_cell_length_a 14.385479
_cell_length_b 14.350474
_cell_length_c 18.398936
_cell_angle_alpha 90.000000
_cell_angle_beta 149.123416
_cell_angle_gamma 90.000000
_cell_volume 1949.224744
_symmetry_space_group_name_H-M "C 2/C"
_symmetry_group_IT_number 15
_symmetry_cell_setting 'monoclinic'
loop_
_space_group_symop_operation_xyz
x,y,z
-x,y,1/2-z
-x,-y,-z
x,-y,1/2+z
1/2+x,1/2+y,z
1/2-x,1/2+y,1/2-z
1/2-x,1/2-y,-z
1/2+x,1/2-y,1/2+z
loop_
_atom_site_type_symbol
_atom_site_label
_atom_site_fract_x
_atom_site_fract_y
_atom_site_fract_z
Si Si1 0.899758 0.794969 0.882768
Si Si2 0.370530 0.610491 0.600374
Si Si3 0.803674 0.056856 0.960908
Si Si4 0.504635 0.852128 0.175996
Si Si5 0.515984 0.207431 0.404432
O O1 0.690549 0.823625 0.739509
O O2 0.028914 0.879905 0.948566
O O3 0.938877 0.712152 0.851422
O O4 0.948301 0.753552 0.993583
O O5 0.500000 0.570563 0.750000
O O6 0.360392 0.544938 0.523237
O O7 0.452360 0.710346 0.632746
O O8 0.167386 0.629709 0.491731
O O9 0.692894 0.101019 0.955615
O O10 0.655016 0.069392 0.796889
O O11 0.500000 0.795249 0.250000
#
# Coordination Sequence:
#
# PCOD9305584 Si02
#       5
#     8   8   8   8   8
#     4  12  20  43  67  99 128 176 222 273 320 396
#     4  11  24  46  62  95 133 180 221 269 337 399
#     4   9  22  39  67  92 133 171 216 272 330 383
#     4   8  20  39  62  97 134 170 215 260 338 397
#     4  11  25  41  69  92 135 176 221 270 335 396
#
# _framework density 20.520979000000001
#
# number of rings (size 3 to 8) (size 9 to 14) (size 15 to 20)
#    1.200    0.400    4.000    0.600    0.000    6.400 
#    3.600    2.000    0.000    0.000    0.000    0.000 
#    0.000    0.000    0.000    0.000    0.000    0.000 
#
# Total GULP energy -111558.818441 kJ/mol
# GULP energy per Si atom -5577.940922 kJ/mol
# Density = 2.047427 g / cm^3
# Si number density = 20.520979 Si / 1000 Ang^3
#
#
#
# Elastic Constant Matrix: (Units=GPa)
#
#
# Indices 1 2 3 4 5 6 
#
# 1 59.8395 22.3654 50.2661 -0.0002 4.8269 -0.0001
# 2 22.3654 53.6368 24.6973 -0.0002 7.4272 0.0001
# 3 50.2661 24.6973 118.1635 -0.0001 25.3395 0.0000
# 4 -0.0002 -0.0002 -0.0001 14.6314 -0.0001 7.1758
# 5 4.8269 7.4272 25.3395 -0.0001 42.7194 0.0000
# 6 -0.0001 0.0001 0.0000 7.1758 0.0000 13.9629
#
#
#
# Elastic Compliance Matrix: (Units=1/GPa)
#
#
# Indices 1 2 3 4 5 6 
#
# 1 0.029046 -0.007328 -0.011908 0.000000 0.005056 0.000000
# 2 -0.007328 0.022530 -0.001065 0.000000 -0.002458 0.000000
# 3 -0.011908 -0.001065 0.015379 0.000000 -0.007592 0.000000
# 4 0.000000 0.000000 0.000000 0.091377 0.000000 -0.046960
# 5 0.005056 -0.002458 -0.007592 0.000000 0.027768 0.000000
# 6 0.000000 0.000000 0.000000 -0.046960 0.000000 0.095752
#
#
# Mechanical properties :
#
#
# Convention : Reuss Voigt Hill
#
# Bulk Modulus (GPa) = 37.94710 47.36638 42.65674
# Shear Modulus (GPa) = 15.09485 23.21680 19.15583
#
# Velocity S-wave (km/s) = 2.71510 3.36723 3.05860
# Velocity P-wave (km/s) = 5.32551 6.18464 5.77108
#
# Compressibility (1/GPa) = 0.02635248
#
# Stress axis : x y z
#
# Youngs Moduli (GPa) = 34.42838 44.38493 65.02314
#
# Poissons Ratio (x) = 0.32527 0.77432
# Poissons Ratio (y) = 0.25230 0.06922
# Poissons Ratio (z) = 0.40999 0.04725
#
# Static dielectric constant tensor:
#      x y z
#    x 1.731520 0.000000 0.012720 
#    y 0.000000 1.717450 0.000000 
#    z 0.012720 0.000000 1.739030 
# 
# From -- ./inp_files/205835.got.cif
#   From: 2010.05.17/outbox.cif.g08.bks.cpg/sg15_103_cif.got.tgz:205835.got - 2010.06.03 18:47:42.
