data_PCOD9305793
_publ_section_title
;
Structure prediction by ZEFSAII (Michael W. Deem and Ramdas Pophale) SiO2 
 PCOD9305793
Probable space group: C 2/C
;
_chemical_formula_sum "Si O2"
_cell_formula_units_Z 48
_cell_length_a 13.499427
_cell_length_b 5.349023
_cell_length_c 27.568292
_cell_angle_alpha 90.000000
_cell_angle_beta 70.385769
_cell_angle_gamma 90.000000
_cell_volume 1875.161269
_symmetry_space_group_name_H-M "C 2/C"
_symmetry_group_IT_number 15
_symmetry_cell_setting 'monoclinic'
loop_
_space_group_symop_operation_xyz
x,y,z
-x,y,1/2-z
-x,-y,-z
x,-y,1/2+z
1/2+x,1/2+y,z
1/2-x,1/2+y,1/2-z
1/2-x,1/2-y,-z
1/2+x,1/2-y,1/2+z
loop_
_atom_site_type_symbol
_atom_site_label
_atom_site_fract_x
_atom_site_fract_y
_atom_site_fract_z
Si Si1 0.138640 0.949117 0.921286
Si Si2 0.060734 0.842602 0.693588
Si Si3 0.741502 0.959345 0.282034
Si Si4 0.565512 0.269154 0.348355
Si Si5 0.436186 0.797513 0.479458
Si Si6 0.139616 0.464143 0.596721
O O1 0.148387 0.112812 0.871639
O O2 0.251329 0.824885 0.910459
O O3 0.111533 0.105971 0.974084
O O4 0.032384 0.799127 0.930606
O O5 0.836930 0.991517 0.803428
O O6 0.000000 0.723671 0.750000
O O7 0.103939 0.646041 0.646671
O O8 0.977471 0.043246 0.685456
O O9 0.752459 0.183002 0.240630
O O10 0.625270 0.020698 0.321239
O O11 0.459221 0.213689 0.394891
O O12 0.350846 0.892955 0.455678
O O13 0.500000 0.000000 0.500000
#
# Coordination Sequence:
#
# PCOD9305793 Si02
#       6
#     8   8   8   8   8   8
#     4  11  25  46  70 106 142 187 250 308 380 450
#     4  12  26  47  74 108 148 199 247 306 376 454
#     4  12  28  51  79 109 155 206 257 321 380 449
#     4  12  26  45  73 109 145 199 247 312 375 460
#     4  11  24  47  73 102 145 188 244 316 375 455
#     4  12  26  44  76 103 147 193 248 303 385 448
#
# _framework density 25.597795999999999
#
# number of rings (size 3 to 8) (size 9 to 14) (size 15 to 20)
#    0.000    0.333    6.667    1.500    2.333    4.000 
#    0.000    0.000    0.000    0.000    0.000    0.000 
#    0.000    0.000    0.000    0.000    0.000    0.000 
#
# Total GULP energy -134333.668542 kJ/mol
# GULP energy per Si atom -5597.236189 kJ/mol
# Density = 2.553953 g / cm^3
# Si number density = 25.597796 Si / 1000 Ang^3
#
#
#
# Elastic Constant Matrix: (Units=GPa)
#
#
# Indices 1 2 3 4 5 6 
#
# 1 151.1437 -2.1487 22.8045 0.0005 -18.4990 -0.0006
# 2 -2.1487 30.5067 23.3541 0.0018 -6.1761 -0.0023
# 3 22.8045 23.3541 82.1537 0.0001 12.7716 -0.0002
# 4 0.0005 0.0018 0.0001 44.9631 -0.0001 2.4136
# 5 -18.4990 -6.1761 12.7716 -0.0001 37.1219 0.0001
# 6 -0.0006 -0.0023 -0.0002 2.4136 0.0001 26.5953
#
#
#
# Elastic Compliance Matrix: (Units=1/GPa)
#
#
# Indices 1 2 3 4 5 6 
#
# 1 0.008289 0.005799 -0.005010 0.000000 0.006819 0.000001
# 2 0.005799 0.051382 -0.019011 -0.000002 0.017979 0.000005
# 3 -0.005010 -0.019011 0.020969 0.000001 -0.012874 -0.000002
# 4 0.000000 -0.000002 0.000001 0.022349 -0.000001 -0.002028
# 5 0.006819 0.017979 -0.012874 -0.000001 0.037757 0.000002
# 6 0.000001 0.000005 -0.000002 -0.002028 0.000002 0.037785
#
#
# Mechanical properties :
#
#
# Convention : Reuss Voigt Hill
#
# Bulk Modulus (GPa) = 22.62618 39.09154 30.85886
# Shear Modulus (GPa) = 21.76694 36.38900 29.07797
#
# Velocity S-wave (km/s) = 2.91923 3.77446 3.37405
# Velocity P-wave (km/s) = 4.49676 5.85662 5.22115
#
# Compressibility (1/GPa) = 0.04419658
#
# Stress axis : x y z
#
# Youngs Moduli (GPa) = 120.63966 19.46206 47.69019
#
# Poissons Ratio (x) = -0.11287 0.23891
# Poissons Ratio (y) = -0.69965 0.90666
# Poissons Ratio (z) = 0.60436 0.37000
#
# Static dielectric constant tensor:
#      x y z
#    x 1.918440 0.000000 -0.014030 
#    y 0.000000 2.171150 0.000000 
#    z -0.014030 0.000000 2.126370 
# 
# From -- ./inp_files/312246.got.cif
#   From: 2010.05.17/outbox.cif.g08.bks.cpg/sg15_157_cif.got.tgz:312246.got - 2010.06.03 18:47:42.
