data_PCOD9305933
_publ_section_title
;
Structure prediction by ZEFSAII (Michael W. Deem and Ramdas Pophale) SiO2 
 PCOD9305933
Probable space group: C 2/C
;
_chemical_formula_sum "Si O2"
_cell_formula_units_Z 48
_cell_length_a 8.256507
_cell_length_b 17.832167
_cell_length_c 13.687883
_cell_angle_alpha 90.000000
_cell_angle_beta 87.178747
_cell_angle_gamma 90.000000
_cell_volume 2012.843706
_symmetry_space_group_name_H-M "C 2/C"
_symmetry_group_IT_number 15
_symmetry_cell_setting 'monoclinic'
loop_
_space_group_symop_operation_xyz
x,y,z
-x,y,1/2-z
-x,-y,-z
x,-y,1/2+z
1/2+x,1/2+y,z
1/2-x,1/2+y,1/2-z
1/2-x,1/2-y,-z
1/2+x,1/2-y,1/2+z
loop_
_atom_site_type_symbol
_atom_site_label
_atom_site_fract_x
_atom_site_fract_y
_atom_site_fract_z
Si Si1 0.062898 0.231372 0.980479
Si Si2 0.101533 0.935974 0.404693
Si Si3 0.786918 0.905317 0.298699
Si Si4 0.355550 0.753257 0.183697
Si Si5 0.827493 0.506250 0.053788
Si Si6 0.134220 0.649404 0.318522
O O1 0.937203 0.242443 0.074404
O O2 0.250000 0.250000 0.000000
O O3 0.063962 0.143697 0.955261
O O4 0.044835 0.287223 0.888210
O O5 0.228965 0.922472 0.313753
O O6 0.182840 0.993975 0.476930
O O7 0.939852 0.947836 0.344862
O O8 0.783473 0.816651 0.313930
O O9 0.653104 0.939111 0.370450
O O10 0.500000 0.781258 0.250000
O O11 0.276286 0.684235 0.246368
O O12 0.805335 0.584143 0.112361
O O13 0.000000 0.500000 0.000000
O O14 0.000000 0.617031 0.250000
#
# Coordination Sequence:
#
# PCOD9305933 Si02
#       6
#     8   8   8   8   8   8
#     4  12  22  45  73 107 143 187 246 306 358 437
#     4  11  24  49  71 100 148 186 240 297 362 440
#     4  11  26  45  74 105 141 193 235 295 371 439
#     4  12  24  44  79 107 144 198 242 301 375 435
#     4  12  28  46  73 105 145 194 241 306 366 438
#     4  12  27  46  69 112 150 184 250 309 365 442
#
# _framework density 23.846858999999998
#
# number of rings (size 3 to 8) (size 9 to 14) (size 15 to 20)
#    0.000    0.333    5.000    2.500    4.667    4.000 
#    9.000    0.000    0.000    0.000    0.000    0.000 
#    0.000    0.000    0.000    0.000    0.000    0.000 
#
# Total GULP energy -133959.566824 kJ/mol
# GULP energy per Si atom -5581.648618 kJ/mol
# Density = 2.379258 g / cm^3
# Si number density = 23.846859 Si / 1000 Ang^3
#
#
#
# Elastic Constant Matrix: (Units=GPa)
#
#
# Indices 1 2 3 4 5 6 
#
# 1 56.2537 -12.5182 28.1732 0.0000 2.5117 0.0000
# 2 -12.5182 33.2368 10.6676 0.0000 15.9066 0.0000
# 3 28.1732 10.6676 143.7392 0.0000 -15.6981 0.0000
# 4 0.0000 0.0000 0.0000 27.7191 0.0000 -0.7217
# 5 2.5117 15.9066 -15.6981 0.0000 33.4541 0.0000
# 6 0.0000 0.0000 0.0000 -0.7217 0.0000 29.2157
#
#
#
# Elastic Compliance Matrix: (Units=1/GPa)
#
#
# Indices 1 2 3 4 5 6 
#
# 1 0.027466 0.020797 -0.008677 0.000000 -0.016022 0.000000
# 2 0.020797 0.058735 -0.012285 0.000000 -0.035253 0.000000
# 3 -0.008677 -0.012285 0.010834 0.000000 0.011577 0.000000
# 4 0.000000 0.000000 0.000000 0.036099 0.000000 0.000892
# 5 -0.016022 -0.035253 0.011577 0.000000 0.053289 0.000000
# 6 0.000000 0.000000 0.000000 0.000892 0.000000 0.034250
#
#
# Mechanical properties :
#
#
# Convention : Reuss Voigt Hill
#
# Bulk Modulus (GPa) = 10.34074 31.76387 21.05230
# Shear Modulus (GPa) = 19.74433 31.87157 25.80795
#
# Velocity S-wave (km/s) = 2.88056 3.65980 3.29331
# Velocity P-wave (km/s) = 3.92546 5.58638 4.82788
#
# Compressibility (1/GPa) = 0.09670488
#
# Stress axis : x y z
#
# Youngs Moduli (GPa) = 36.40927 17.02562 92.30423
#
# Poissons Ratio (x) = -0.35409 0.80089
# Poissons Ratio (y) = -0.75722 1.13400
# Poissons Ratio (z) = 0.31591 0.20917
#
# Static dielectric constant tensor:
#      x y z
#    x 2.236730 0.000000 -0.103040 
#    y 0.000000 1.847810 0.000000 
#    z -0.103040 0.000000 2.032770 
# 
# From -- ./inp_files/134789.got.cif
#   From: 2010.05.17/outbox.cif.g08.bks.cpg/sg15_68_cif.got.tgz:134789.got - 2010.06.03 18:47:42.
