data_PCOD9305769
_publ_section_title
;
Structure prediction by ZEFSAII (Michael W. Deem and Ramdas Pophale) SiO2 
 PCOD9305769
Probable space group: C 2/C
;
_chemical_formula_sum "Si O2"
_cell_formula_units_Z 40
_cell_length_a 16.662613
_cell_length_b 12.023210
_cell_length_c 9.473634
_cell_angle_alpha 90.000000
_cell_angle_beta 85.497042
_cell_angle_gamma 90.000000
_cell_volume 1892.071416
_symmetry_space_group_name_H-M "C 2/C"
_symmetry_group_IT_number 15
_symmetry_cell_setting 'monoclinic'
loop_
_space_group_symop_operation_xyz
x,y,z
-x,y,1/2-z
-x,-y,-z
x,-y,1/2+z
1/2+x,1/2+y,z
1/2-x,1/2+y,1/2-z
1/2-x,1/2-y,-z
1/2+x,1/2-y,1/2+z
loop_
_atom_site_type_symbol
_atom_site_label
_atom_site_fract_x
_atom_site_fract_y
_atom_site_fract_z
Si Si1 0.446001 0.934362 0.622271
Si Si2 0.111561 0.203865 0.359313
Si Si3 0.428820 0.283930 0.959044
Si Si4 0.795100 0.416503 0.138498
Si Si5 0.810531 0.029688 0.588818
O O1 0.500000 0.908123 0.750000
O O2 0.412117 0.823178 0.556232
O O3 0.500000 0.000000 0.500000
O O4 0.372791 0.013296 0.674659
O O5 0.095111 0.237777 0.199691
O O6 0.170547 0.297201 0.414332
O O7 0.025307 0.199571 0.447945
O O8 0.149723 0.082361 0.356368
O O9 0.378726 0.389707 0.017681
O O10 0.736132 0.407514 0.279857
O O11 0.750161 0.485565 0.022947
#
# Coordination Sequence:
#
# PCOD9305769 Si02
#       5
#     8   8   8   8   8
#     4  12  25  47  73 108 143 191 242 294 352 434
#     4  11  24  47  71 102 144 194 241 296 358 436
#     4  11  25  46  73 103 145 190 244 296 358 434
#     4  12  26  43  74 104 144 185 242 299 360 424
#     4  12  26  46  70 107 148 186 236 302 369 421
#
# _framework density 21.140851999999999
#
# number of rings (size 3 to 8) (size 9 to 14) (size 15 to 20)
#    0.000    0.400    4.000    4.800    2.800    3.200 
#    3.600    0.000    0.000    0.000    0.000    0.000 
#    0.000    0.000    0.000    0.000    0.000    0.000 
#
# Total GULP energy -111981.611054 kJ/mol
# GULP energy per Si atom -5599.080553 kJ/mol
# Density = 2.109273 g / cm^3
# Si number density = 21.140852 Si / 1000 Ang^3
#
#
#
# Elastic Constant Matrix: (Units=GPa)
#
#
# Indices 1 2 3 4 5 6 
#
# 1 93.0560 50.1670 22.0295 0.0000 -12.1693 0.0000
# 2 50.1670 128.3297 4.6028 0.0000 0.9060 0.0000
# 3 22.0295 4.6028 57.2495 0.0000 3.2668 0.0000
# 4 0.0000 0.0000 0.0000 16.3672 0.0000 -10.3996
# 5 -12.1693 0.9060 3.2668 0.0000 34.2589 0.0000
# 6 0.0000 0.0000 0.0000 -10.3996 0.0000 42.3857
#
#
#
# Elastic Compliance Matrix: (Units=1/GPa)
#
#
# Indices 1 2 3 4 5 6 
#
# 1 0.016450 -0.006255 -0.006204 0.000000 0.006600 0.000000
# 2 -0.006255 0.010194 0.001739 0.000000 -0.002657 0.000000
# 3 -0.006204 0.001739 0.019952 0.000000 -0.004152 0.000000
# 4 0.000000 0.000000 0.000000 0.072382 0.000000 0.017759
# 5 0.006600 -0.002657 -0.004152 0.000000 0.032000 0.000000
# 6 0.000000 0.000000 0.000000 0.017759 0.000000 0.027950
#
#
# Mechanical properties :
#
#
# Convention : Reuss Voigt Hill
#
# Bulk Modulus (GPa) = 39.75119 48.02597 43.88858
# Shear Modulus (GPa) = 23.95180 32.05809 28.00494
#
# Velocity S-wave (km/s) = 3.36960 3.89833 3.64357
# Velocity P-wave (km/s) = 5.82948 6.55966 6.20532
#
# Compressibility (1/GPa) = 0.02515648
#
# Stress axis : x y z
#
# Youngs Moduli (GPa) = 60.79043 98.09745 50.12100
#
# Poissons Ratio (x) = 0.61357 0.31093
# Poissons Ratio (y) = 0.38023 -0.08715
# Poissons Ratio (z) = 0.37712 -0.17058
#
# Static dielectric constant tensor:
#      x y z
#    x 1.749990 0.000000 -0.002280 
#    y 0.000000 1.743170 0.000000 
#    z -0.002280 0.000000 1.759250 
# 
# From -- ./inp_files/46091.got.cif
#   From: 2010.05.17/outbox.cif.g08.bks.cpg/sg15_24_cif.got.tgz:46091.got - 2010.06.03 18:47:42.
