data_PCOD9305991
_publ_section_title
;
Structure prediction by ZEFSAII (Michael W. Deem and Ramdas Pophale) SiO2 
 PCOD9305991
Probable space group: C 2/C
;
_chemical_formula_sum "Si O2"
_cell_formula_units_Z 48
_cell_length_a 16.769315
_cell_length_b 9.267902
_cell_length_c 13.017380
_cell_angle_alpha 90.000000
_cell_angle_beta 97.267886
_cell_angle_gamma 90.000000
_cell_volume 2006.859224
_symmetry_space_group_name_H-M "C 2/C"
_symmetry_group_IT_number 15
_symmetry_cell_setting 'monoclinic'
loop_
_space_group_symop_operation_xyz
x,y,z
-x,y,1/2-z
-x,-y,-z
x,-y,1/2+z
1/2+x,1/2+y,z
1/2-x,1/2+y,1/2-z
1/2-x,1/2-y,-z
1/2+x,1/2-y,1/2+z
loop_
_atom_site_type_symbol
_atom_site_label
_atom_site_fract_x
_atom_site_fract_y
_atom_site_fract_z
Si Si1 0.662018 0.827371 0.332711
Si Si2 0.380802 0.496248 0.160753
Si Si3 0.156302 0.302704 0.109654
Si Si4 0.243601 0.047838 0.037701
Si Si5 0.042171 0.838702 0.163045
Si Si6 0.479757 0.157458 0.537988
O O1 0.650795 0.655703 0.323707
O O2 0.668015 0.885584 0.218200
O O3 0.733667 0.894767 0.411141
O O4 0.580213 0.864724 0.378191
O O5 0.326550 0.446246 0.058068
O O6 0.473553 0.464751 0.139931
O O7 0.381251 0.406690 0.267303
O O8 0.180028 0.395150 0.013862
O O9 0.215478 0.165826 0.115221
O O10 0.062497 0.267158 0.086287
O O11 0.444377 0.746546 0.938713
O O12 0.000000 0.747268 0.250000
O O13 0.500000 0.000000 0.500000
#
# Coordination Sequence:
#
# PCOD9305991 Si02
#       6
#     8   8   8   8   8   8
#     4  12  27  43  76 110 147 202 265 321 387 480
#     4   9  22  46  73 106 139 195 259 309 387 467
#     4  11  26  47  73 103 156 202 251 324 399 466
#     4  11  24  52  70 104 158 199 251 322 401 467
#     4   8  21  44  74 107 144 202 247 313 391 459
#     4  12  24  48  72 114 152 197 265 334 385 472
#
# _framework density 23.91797
#
# number of rings (size 3 to 8) (size 9 to 14) (size 15 to 20)
#    1.000    0.333    3.333    1.000    7.000    3.333 
#    9.000    0.000    0.000    0.000    0.000    0.000 
#    0.000    0.000    0.000    0.000    0.000    0.000 
#
# Total GULP energy -133981.047676 kJ/mol
# GULP energy per Si atom -5582.543653 kJ/mol
# Density = 2.386353 g / cm^3
# Si number density = 23.917970 Si / 1000 Ang^3
#
#
#
# Elastic Constant Matrix: (Units=GPa)
#
#
# Indices 1 2 3 4 5 6 
#
# 1 103.5006 17.6662 60.5421 0.0000 -13.0733 0.0000
# 2 17.6662 84.5179 49.9923 0.0000 -8.1025 0.0000
# 3 60.5421 49.9923 130.5059 0.0000 7.6973 0.0000
# 4 0.0000 0.0000 0.0000 -49.7043 0.0000 76.8035
# 5 -13.0733 -8.1025 7.6973 0.0000 33.9843 0.0000
# 6 0.0000 0.0000 0.0000 76.8035 0.0000 -35.6885
#
#
#
# Elastic Compliance Matrix: (Units=1/GPa)
#
#
# Indices 1 2 3 4 5 6 
#
# 1 0.015340 0.002736 -0.008667 0.000000 0.008517 0.000000
# 2 0.002736 0.016689 -0.008067 0.000000 0.006859 0.000000
# 3 -0.008667 -0.008067 0.015288 0.000000 -0.008720 0.000000
# 4 0.000000 0.000000 0.000000 0.008652 0.000000 0.018619
# 5 0.008517 0.006859 -0.008720 0.000000 0.036312 0.000000
# 6 0.000000 0.000000 0.000000 0.018619 0.000000 0.012050
#
#
# Mechanical properties :
#
#
# Convention : Reuss Voigt Hill
#
# Bulk Modulus (GPa) = 51.75480 63.88061 57.81771
# Shear Modulus (GPa) = 36.03205 2.40655 19.21930
#
# Velocity S-wave (km/s) = 3.88556 1.00417 2.83777
# Velocity P-wave (km/s) = 6.46649 5.30195 5.91296
#
# Compressibility (1/GPa) = 0.01932188
#
# Stress axis : x y z
#
# Youngs Moduli (GPa) = 65.18884 59.91990 65.41284
#
# Poissons Ratio (x) = -0.16397 0.56692
# Poissons Ratio (y) = -0.17839 0.52768
# Poissons Ratio (z) = 0.56498 0.48337
#
# Static dielectric constant tensor:
#      x y z
#    x 1.954130 0.000000 -0.011800 
#    y 0.000000 2.004890 0.000000 
#    z -0.011800 0.000000 1.948500 
# 
# From -- ./inp_files/214458.got.cif
#   From: 2010.05.17/outbox.cif.g08.bks.cpg/sg15_108_cif.got.tgz:214458.got - 2010.06.03 18:47:42.
