data_PCOD9305700
_publ_section_title
;
Structure prediction by ZEFSAII (Michael W. Deem and Ramdas Pophale) SiO2 
 PCOD9305700
Probable space group: C 2/C
;
_chemical_formula_sum "Si O2"
_cell_formula_units_Z 48
_cell_length_a 13.457834
_cell_length_b 15.057855
_cell_length_c 27.532793
_cell_angle_alpha 90.000000
_cell_angle_beta 158.409419
_cell_angle_gamma 90.000000
_cell_volume 2053.066260
_symmetry_space_group_name_H-M "C 2/C"
_symmetry_group_IT_number 15
_symmetry_cell_setting 'monoclinic'
loop_
_space_group_symop_operation_xyz
x,y,z
-x,y,1/2-z
-x,-y,-z
x,-y,1/2+z
1/2+x,1/2+y,z
1/2-x,1/2+y,1/2-z
1/2-x,1/2-y,-z
1/2+x,1/2-y,1/2+z
loop_
_atom_site_type_symbol
_atom_site_label
_atom_site_fract_x
_atom_site_fract_y
_atom_site_fract_z
Si Si1 0.043901 0.031796 0.074834
Si Si2 0.500000 0.260691 0.750000
Si Si3 0.124151 0.695840 0.538796
Si Si4 0.000000 0.647804 0.250000
Si Si5 0.818165 0.564001 0.845725
Si Si6 0.334954 0.440055 0.070018
Si Si7 0.900509 0.678045 0.601971
O O1 0.334257 0.080915 0.209955
O O2 0.977008 0.954934 0.082848
O O3 0.822628 0.105001 0.987131
O O4 0.000000 0.000000 0.000000
O O5 0.508403 0.210037 0.702498
O O6 0.200482 0.303111 0.611382
O O7 0.273976 0.786824 0.623477
O O8 0.186538 0.620635 0.607630
O O9 0.257043 0.659160 0.550067
O O10 0.540953 0.519544 0.703590
O O11 0.870941 0.636588 0.827702
O O12 0.060987 0.495601 0.951582
O O13 0.750000 0.750000 0.500000
#
# Coordination Sequence:
#
# PCOD9305700 Si02
#       7
#     8   4   8   4   8   8   8
#     4  11  28  49  74 113 155 205 261 322 396 472
#     4  12  26  45  79 112 158 206 266 310 396 471
#     4  12  25  49  79 116 155 206 266 326 388 470
#     4  12  24  51  79 106 162 206 252 338 392 455
#     4  11  24  46  74 111 158 200 264 327 391 466
#     4  11  27  45  76 109 154 206 260 318 402 461
#     4  11  24  48  75 110 158 204 258 327 387 465
#
# _framework density 23.379663999999998
#
# number of rings (size 3 to 8) (size 9 to 14) (size 15 to 20)
#    0.000    0.667    5.000    0.500    9.333    0.000 
#    3.000    1.667    0.000    0.000    0.000    0.000 
#    0.000    0.000    0.000    0.000    0.000    0.000 
#
# Total GULP energy -134185.915614 kJ/mol
# GULP energy per Si atom -5591.079817 kJ/mol
# Density = 2.332645 g / cm^3
# Si number density = 23.379664 Si / 1000 Ang^3
#
#
#
# Elastic Constant Matrix: (Units=GPa)
#
#
# Indices 1 2 3 4 5 6 
#
# 1 148.4353 47.6261 29.7735 0.0012 0.3599 -0.0013
# 2 47.6261 46.7005 10.9926 0.0169 5.1145 0.0053
# 3 29.7735 10.9926 145.4594 0.0111 19.3116 -0.0018
# 4 0.0012 0.0169 0.0111 22.5720 0.0010 2.9150
# 5 0.3599 5.1145 19.3116 0.0010 47.2409 -0.0008
# 6 -0.0013 0.0053 -0.0018 2.9150 -0.0008 51.5571
#
#
#
# Elastic Compliance Matrix: (Units=1/GPa)
#
#
# Indices 1 2 3 4 5 6 
#
# 1 0.010386 -0.010409 -0.001563 0.000008 0.001687 0.000001
# 2 -0.010409 0.032375 0.000147 -0.000023 -0.003486 -0.000002
# 3 -0.001563 0.000147 0.007596 -0.000004 -0.003109 0.000000
# 4 0.000008 -0.000023 -0.000004 0.044629 0.000003 -0.002523
# 5 0.001687 -0.003486 -0.003109 0.000003 0.022804 0.000000
# 6 0.000001 -0.000002 0.000000 -0.002523 0.000000 0.019539
#
#
# Mechanical properties :
#
#
# Convention : Reuss Voigt Hill
#
# Bulk Modulus (GPa) = 37.44299 57.48659 47.46479
# Shear Modulus (GPa) = 29.43224 41.08754 35.25989
#
# Velocity S-wave (km/s) = 3.55192 4.19669 3.88770
# Velocity P-wave (km/s) = 5.73337 6.93719 6.36381
#
# Compressibility (1/GPa) = 0.02670727
#
# Stress axis : x y z
#
# Youngs Moduli (GPa) = 96.28267 30.88774 131.64029
#
# Poissons Ratio (x) = 0.32150 0.20578
# Poissons Ratio (y) = 1.00218 -0.01930
# Poissons Ratio (z) = 0.15051 -0.00453
#
# Static dielectric constant tensor:
#      x y z
#    x 1.880070 0.000000 -0.019400 
#    y 0.000000 1.895930 -0.000020 
#    z -0.019400 -0.000020 1.966630 
# 
# From -- ./inp_files/314178.got.cif
#   From: 2010.05.17/outbox.cif.g08.bks.cpg/sg15_158_cif.got.tgz:314178.got - 2010.06.03 18:47:42.
