data_PCOD9305021
_publ_section_title
;
Structure prediction by ZEFSAII (Michael W. Deem and Ramdas Pophale) SiO2 
 PCOD9305021
Probable space group: C 2/C
;
_chemical_formula_sum "Si O2"
_cell_formula_units_Z 48
_cell_length_a 19.457016
_cell_length_b 17.419936
_cell_length_c 14.891585
_cell_angle_alpha 90.000000
_cell_angle_beta 150.774188
_cell_angle_gamma 90.000000
_cell_volume 2464.384770
_symmetry_space_group_name_H-M "C 2/C"
_symmetry_group_IT_number 15
_symmetry_cell_setting 'monoclinic'
loop_
_space_group_symop_operation_xyz
x,y,z
-x,y,1/2-z
-x,-y,-z
x,-y,1/2+z
1/2+x,1/2+y,z
1/2-x,1/2+y,1/2-z
1/2-x,1/2-y,-z
1/2+x,1/2-y,1/2+z
loop_
_atom_site_type_symbol
_atom_site_label
_atom_site_fract_x
_atom_site_fract_y
_atom_site_fract_z
Si Si1 0.946344 0.998620 0.289903
Si Si2 0.020613 0.258098 0.074511
Si Si3 0.192927 0.289703 0.524372
Si Si4 0.908616 0.104665 0.908639
Si Si5 0.894207 0.570786 0.858834
Si Si6 0.849788 0.542228 0.599805
O O1 0.000000 0.990334 0.250000
O O2 0.005150 0.076213 0.404129
O O3 0.978475 0.935769 0.402183
O O4 0.779814 0.996174 0.085999
O O5 0.178862 0.225503 0.260791
O O6 0.028382 0.346118 0.050629
O O7 0.947666 0.258835 0.089586
O O8 0.926921 0.195398 0.916945
O O9 0.250000 0.250000 0.500000
O O10 0.161346 0.377145 0.464801
O O11 0.747709 0.078015 0.743340
O O12 0.841285 0.558816 0.695973
O O13 0.000000 0.500000 0.000000
O O14 0.000000 0.506114 0.750000
#
# Coordination Sequence:
#
# PCOD9305021 Si02
#       6
#     8   8   8   8   8   8
#     4  11  24  41  67  94 132 175 217 271 326 396
#     4  12  23  38  63  92 133 169 213 270 327 396
#     4  12  21  34  58  96 130 165 202 267 340 392
#     4  11  24  43  66  99 131 174 222 270 330 394
#     4  12  25  41  63  97 136 177 215 271 332 390
#     4  12  21  37  60  93 132 167 208 266 329 392
#
# _framework density 19.477477
#
# number of rings (size 3 to 8) (size 9 to 14) (size 15 to 20)
#    0.000    0.333    8.333    1.500    0.000    0.000 
#    0.000    0.000    0.000    5.000    0.000    0.000 
#    0.000    0.000    0.000    0.000    0.000    0.000 
#
# Total GULP energy -133916.088013 kJ/mol
# GULP energy per Si atom -5579.837001 kJ/mol
# Density = 1.943315 g / cm^3
# Si number density = 19.477477 Si / 1000 Ang^3
#
#
#
# Elastic Constant Matrix: (Units=GPa)
#
#
# Indices 1 2 3 4 5 6 
#
# 1 94.5077 22.3147 23.7056 0.0000 -2.2046 0.0000
# 2 22.3147 95.1985 32.1591 0.0000 -10.4253 0.0000
# 3 23.7056 32.1591 100.5303 0.0000 20.3381 0.0000
# 4 0.0000 0.0000 0.0000 24.0734 0.0000 1.3731
# 5 -2.2046 -10.4253 20.3381 0.0000 30.2473 0.0000
# 6 0.0000 0.0000 0.0000 1.3731 0.0000 18.6871
#
#
#
# Elastic Compliance Matrix: (Units=1/GPa)
#
#
# Indices 1 2 3 4 5 6 
#
# 1 0.011677 -0.001610 -0.002660 0.000000 0.002085 0.000000
# 2 -0.001610 0.013746 -0.005732 0.000000 0.008475 0.000000
# 3 -0.002660 -0.005732 0.014870 0.000000 -0.012168 0.000000
# 4 0.000000 0.000000 0.000000 0.041714 0.000000 -0.003065
# 5 0.002085 0.008475 -0.012168 0.000000 0.044316 0.000000
# 6 0.000000 0.000000 0.000000 -0.003065 0.000000 0.053738
#
#
# Mechanical properties :
#
#
# Convention : Reuss Voigt Hill
#
# Bulk Modulus (GPa) = 49.28972 49.62168 49.45570
# Shear Modulus (GPa) = 24.17449 28.73870 26.45660
#
# Velocity S-wave (km/s) = 3.52682 3.84537 3.68953
# Velocity P-wave (km/s) = 6.47654 6.72663 6.60277
#
# Compressibility (1/GPa) = 0.02028821
#
# Stress axis : x y z
#
# Youngs Moduli (GPa) = 85.63657 72.74695 67.24971
#
# Poissons Ratio (x) = 0.11714 0.17890
# Poissons Ratio (y) = 0.13789 0.38549
# Poissons Ratio (z) = 0.22782 0.41700
#
# Static dielectric constant tensor:
#      x y z
#    x 1.716790 0.000000 0.020050 
#    y 0.000000 1.699390 0.000000 
#    z 0.020050 0.000000 1.732880 
# 
# From -- ./inp_files/40957.got.cif
#   From: 2010.05.17/outbox.cif.g08.bks.cpg/sg15_21_cif.got.tgz:40957.got - 2010.06.03 18:47:42.
