data_PCOD9305519
_publ_section_title
;
Structure prediction by ZEFSAII (Michael W. Deem and Ramdas Pophale) SiO2 
 PCOD9305519
Probable space group: C 2/C
;
_chemical_formula_sum "Si O2"
_cell_formula_units_Z 40
_cell_length_a 23.060673
_cell_length_b 7.571178
_cell_length_c 16.799693
_cell_angle_alpha 90.000000
_cell_angle_beta 32.758970
_cell_angle_gamma 90.000000
_cell_volume 1587.154618
_symmetry_space_group_name_H-M "C 2/C"
_symmetry_group_IT_number 15
_symmetry_cell_setting 'monoclinic'
loop_
_space_group_symop_operation_xyz
x,y,z
-x,y,1/2-z
-x,-y,-z
x,-y,1/2+z
1/2+x,1/2+y,z
1/2-x,1/2+y,1/2-z
1/2-x,1/2-y,-z
1/2+x,1/2-y,1/2+z
loop_
_atom_site_type_symbol
_atom_site_label
_atom_site_fract_x
_atom_site_fract_y
_atom_site_fract_z
Si Si1 0.894917 0.391448 0.328507
Si Si2 0.473295 0.500493 0.194898
Si Si3 0.883936 0.566929 0.659707
Si Si4 0.255685 0.370210 0.414833
Si Si5 0.330451 0.622512 0.121104
O O1 0.923570 0.187977 0.278506
O O2 0.872434 0.464230 0.266889
O O3 0.798898 0.443840 0.497649
O O4 0.000000 0.468942 0.250000
O O5 0.500000 0.413034 0.250000
O O6 0.381223 0.397314 0.253897
O O7 0.580830 0.507551 0.018681
O O8 0.783519 0.469191 0.734980
O O9 0.872956 0.771872 0.648037
O O10 0.000000 0.500000 0.500000
O O11 0.250000 0.250000 0.500000
O O12 0.191569 0.271265 0.420491
#
# Coordination Sequence:
#
# PCOD9305519 Si02
#       5
#     8   8   8   8   8
#     4  11  26  46  77 105 147 188 253 310 374 435
#     4  11  24  45  71 109 144 189 252 310 369 439
#     4  12  28  49  71 111 153 201 251 303 380 450
#     4  12  23  44  75 104 142 187 251 311 365 435
#     4  12  28  46  77 108 154 200 247 304 380 446
#
# _framework density 25.202334
#
# number of rings (size 3 to 8) (size 9 to 14) (size 15 to 20)
#    0.000    0.400    4.000    3.000    8.400    2.400 
#    0.000    0.000    0.000    0.000    0.000    0.000 
#    0.000    0.000    0.000    0.000    0.000    0.000 
#
# Total GULP energy -112059.400235 kJ/mol
# GULP energy per Si atom -5602.970012 kJ/mol
# Density = 2.514497 g / cm^3
# Si number density = 25.202334 Si / 1000 Ang^3
#
#
#
# Elastic Constant Matrix: (Units=GPa)
#
#
# Indices 1 2 3 4 5 6 
#
# 1 72.2085 9.1768 8.5249 0.0003 -4.5975 -0.0001
# 2 9.1768 88.7904 28.0450 0.0008 -8.0712 -0.0001
# 3 8.5249 28.0450 139.9698 0.0006 -36.4028 -0.0001
# 4 0.0003 0.0008 0.0006 46.4137 -0.0001 1.1869
# 5 -4.5975 -8.0712 -36.4028 -0.0001 46.3697 0.0000
# 6 -0.0001 -0.0001 -0.0001 1.1869 0.0000 43.3782
#
#
#
# Elastic Compliance Matrix: (Units=1/GPa)
#
#
# Indices 1 2 3 4 5 6 
#
# 1 0.014110 -0.001259 -0.000377 0.000000 0.000884 0.000000
# 2 -0.001259 0.012138 -0.002310 0.000000 0.000174 0.000000
# 3 -0.000377 -0.002310 0.009444 0.000000 0.006975 0.000000
# 4 0.000000 0.000000 0.000000 0.021560 0.000000 -0.000590
# 5 0.000884 0.000174 0.006975 0.000000 0.027159 0.000000
# 6 0.000000 0.000000 0.000000 -0.000590 0.000000 0.023069
#
#
# Mechanical properties :
#
#
# Convention : Reuss Voigt Hill
#
# Bulk Modulus (GPa) = 35.97171 43.60691 39.78931
# Shear Modulus (GPa) = 40.11571 44.24714 42.18142
#
# Velocity S-wave (km/s) = 3.99400 4.19462 4.09554
# Velocity P-wave (km/s) = 5.96435 6.38750 6.17955
#
# Compressibility (1/GPa) = 0.02779962
#
# Stress axis : x y z
#
# Youngs Moduli (GPa) = 70.87394 82.38541 105.88531
#
# Poissons Ratio (x) = 0.10370 0.03995
# Poissons Ratio (y) = 0.08921 0.24459
# Poissons Ratio (z) = 0.02674 0.19031
#
# Static dielectric constant tensor:
#      x y z
#    x 1.993740 0.000000 -0.013180 
#    y 0.000000 2.057500 0.000000 
#    z -0.013180 0.000000 1.944540 
# 
# From -- ./inp_files/218757.got.cif
#   From: 2010.05.17/outbox.cif.g08.bks.cpg/sg15_110_cif.got.tgz:218757.got - 2010.06.03 18:47:42.
