data_PCOD9305077
_publ_section_title
;
Structure prediction by ZEFSAII (Michael W. Deem and Ramdas Pophale) SiO2 
 PCOD9305077
Probable space group: C 2/C
;
_chemical_formula_sum "Si O2"
_cell_formula_units_Z 48
_cell_length_a 7.018881
_cell_length_b 17.774302
_cell_length_c 29.496310
_cell_angle_alpha 90.000000
_cell_angle_beta 139.660085
_cell_angle_gamma 90.000000
_cell_volume 2382.033008
_symmetry_space_group_name_H-M "C 2/C"
_symmetry_group_IT_number 15
_symmetry_cell_setting 'monoclinic'
loop_
_space_group_symop_operation_xyz
x,y,z
-x,y,1/2-z
-x,-y,-z
x,-y,1/2+z
1/2+x,1/2+y,z
1/2-x,1/2+y,1/2-z
1/2-x,1/2-y,-z
1/2+x,1/2-y,1/2+z
loop_
_atom_site_type_symbol
_atom_site_label
_atom_site_fract_x
_atom_site_fract_y
_atom_site_fract_z
Si Si1 0.188461 0.837789 0.168438
Si Si2 0.741325 0.827805 0.666985
Si Si3 0.649719 0.612094 0.175686
Si Si4 0.652148 0.411385 0.571764
Si Si5 0.273007 0.418537 0.421358
Si Si6 0.607323 0.460805 0.321977
O O1 0.500000 0.832950 0.250000
O O2 0.084640 0.751550 0.147420
O O3 0.225246 0.871969 0.124823
O O4 0.007268 0.892564 0.167816
O O5 0.491121 0.890994 0.621889
O O6 0.000000 0.844382 0.750000
O O7 0.938676 0.824199 0.657908
O O8 0.609094 0.615534 0.114846
O O9 0.523084 0.535332 0.176315
O O10 0.000000 0.618187 0.250000
O O11 0.451899 0.380728 0.494801
O O12 0.582011 0.500248 0.562302
O O13 0.952607 0.443530 0.380334
O O14 0.500000 0.461476 0.250000
#
# Coordination Sequence:
#
# PCOD9305077 Si02
#       6
#     8   8   8   8   8   8
#     4  11  24  43  65  95 131 170 214 266 320 375
#     4  11  24  43  65  95 131 170 214 266 320 375
#     4  12  22  39  70  96 123 171 223 266 313 375
#     4  11  24  42  66  99 130 166 216 266 317 381
#     4  11  24  42  66  99 130 166 216 266 317 381
#     4  12  22  39  70  96 123 171 223 266 313 375
#
# _framework density 20.150856000000001
#
# number of rings (size 3 to 8) (size 9 to 14) (size 15 to 20)
#    0.000    0.667    6.667    2.000    0.000    4.000 
#    0.000    1.667    0.000    0.000    0.000    0.000 
#    0.000    0.000    0.000    0.000    0.000    0.000 
#
# Total GULP energy -133850.428738 kJ/mol
# GULP energy per Si atom -5577.101197 kJ/mol
# Density = 2.010499 g / cm^3
# Si number density = 20.150856 Si / 1000 Ang^3
#
#
#
# Elastic Constant Matrix: (Units=GPa)
#
#
# Indices 1 2 3 4 5 6 
#
# 1 89.6067 7.2894 32.2306 -0.0011 -18.0527 -0.0017
# 2 7.2894 67.9335 15.8298 0.0001 -6.8960 0.0000
# 3 32.2306 15.8298 117.3660 -0.0011 -21.9798 -0.0014
# 4 -0.0011 0.0001 -0.0011 7.4713 -0.0006 18.1318
# 5 -18.0527 -6.8960 -21.9798 -0.0006 32.2242 -0.0008
# 6 -0.0017 0.0000 -0.0014 18.1318 -0.0008 13.0021
#
#
#
# Elastic Compliance Matrix: (Units=1/GPa)
#
#
# Indices 1 2 3 4 5 6 
#
# 1 0.013229 -0.000256 -0.002546 0.000001 0.005620 0.000000
# 2 -0.000256 0.015331 -0.001616 0.000000 0.002035 0.000000
# 3 -0.002546 -0.001616 0.010439 0.000000 0.005348 0.000000
# 4 0.000001 0.000000 0.000000 -0.056135 0.000002 0.078283
# 5 0.005620 0.002035 0.005348 0.000002 0.038264 0.000001
# 6 0.000000 0.000000 0.000000 0.078283 0.000001 -0.032257
#
#
# Mechanical properties :
#
#
# Convention : Reuss Voigt Hill
#
# Bulk Modulus (GPa) = 33.15370 42.84510 37.99940
# Shear Modulus (GPa) = 644.24233 25.17661 334.70947
#
# Velocity S-wave (km/s) = 17.89982 3.53853 12.90203
# Velocity P-wave (km/s) = 21.06403 6.16468 15.51929
#
# Compressibility (1/GPa) = 0.03016254
#
# Stress axis : x y z
#
# Youngs Moduli (GPa) = 75.59393 65.22754 95.79372
#
# Poissons Ratio (x) = 0.01668 0.24388
# Poissons Ratio (y) = 0.01933 0.15484
# Poissons Ratio (z) = 0.19245 0.10544
#
# Static dielectric constant tensor:
#      x y z
#    x 1.741850 0.000000 -0.034230 
#    y 0.000000 1.799530 0.000000 
#    z -0.034230 0.000000 1.745000 
# 
# From -- ./inp_files/260842.got.cif
#   From: 2010.05.17/outbox.cif.g08.bks.cpg/sg15_131_cif.got.tgz:260842.got - 2010.06.03 18:47:42.
