data_PCOD9305961
_publ_section_title
;
Structure prediction by ZEFSAII (Michael W. Deem and Ramdas Pophale) SiO2 
 PCOD9305961
Probable space group: C 2/C
;
_chemical_formula_sum "Si O2"
_cell_formula_units_Z 40
_cell_length_a 9.643087
_cell_length_b 11.130196
_cell_length_c 20.183731
_cell_angle_alpha 90.000000
_cell_angle_beta 136.304010
_cell_angle_gamma 90.000000
_cell_volume 1496.554971
_symmetry_space_group_name_H-M "C 2/C"
_symmetry_group_IT_number 15
_symmetry_cell_setting 'monoclinic'
loop_
_space_group_symop_operation_xyz
x,y,z
-x,y,1/2-z
-x,-y,-z
x,-y,1/2+z
1/2+x,1/2+y,z
1/2-x,1/2+y,1/2-z
1/2-x,1/2-y,-z
1/2+x,1/2-y,1/2+z
loop_
_atom_site_type_symbol
_atom_site_label
_atom_site_fract_x
_atom_site_fract_y
_atom_site_fract_z
Si Si1 0.781434 0.520438 0.778005
Si Si2 0.000000 0.215131 0.750000
Si Si3 0.052860 0.844724 0.873612
Si Si4 0.866273 0.799123 0.949877
Si Si5 0.679859 0.051812 0.491216
Si Si6 0.000000 0.649759 0.750000
O O1 0.653326 0.627189 0.765967
O O2 0.648805 0.402023 0.727190
O O3 0.988146 0.500415 0.887591
O O4 0.830976 0.566072 0.722035
O O5 0.135777 0.294690 0.844149
O O6 0.007092 0.813707 0.934560
O O7 0.089814 0.730938 0.840026
O O8 0.218417 0.949081 0.929199
O O9 0.854405 0.901922 0.001248
O O10 0.888558 0.669758 0.992363
#
# Coordination Sequence:
#
# PCOD9305961 Si02
#       6
#     8   4   8   8   8   4
#     4  12  27  51  76 114 158 201 258 318 384 458
#     4  12  23  51  74 110 152 206 247 317 378 454
#     4  12  26  51  79 114 155 200 260 315 381 461
#     4  11  24  49  81 110 157 199 260 316 387 454
#     4  11  27  47  79 116 150 204 256 320 385 454
#     4  12  29  49  80 110 158 204 259 313 386 454
#
# _framework density 26.728051000000001
#
# number of rings (size 3 to 8) (size 9 to 14) (size 15 to 20)
#    0.000    0.400    4.000    3.600    0.000    3.200 
#    3.600    0.000    0.000    0.000    0.000    0.000 
#    0.000    0.000    0.000    0.000    0.000    0.000 
#
# Total GULP energy -112432.538452 kJ/mol
# GULP energy per Si atom -5621.626923 kJ/mol
# Density = 2.666722 g / cm^3
# Si number density = 26.728051 Si / 1000 Ang^3
#
#
#
# Elastic Constant Matrix: (Units=GPa)
#
#
# Indices 1 2 3 4 5 6 
#
# 1 116.2899 22.2015 11.6283 0.0000 -7.0732 0.0000
# 2 22.2015 91.1552 35.1435 0.0000 2.6711 0.0000
# 3 11.6283 35.1435 111.6209 0.0000 14.1762 0.0000
# 4 0.0000 0.0000 0.0000 28.0805 0.0000 -27.4530
# 5 -7.0732 2.6711 14.1762 0.0000 31.3993 0.0000
# 6 0.0000 0.0000 0.0000 -27.4530 0.0000 46.1829
#
#
#
# Elastic Compliance Matrix: (Units=1/GPa)
#
#
# Indices 1 2 3 4 5 6 
#
# 1 0.009213 -0.002076 -0.000628 0.000000 0.002535 0.000000
# 2 -0.002076 0.012971 -0.003891 0.000000 0.000186 0.000000
# 3 -0.000628 -0.003891 0.010847 0.000000 -0.004708 0.000000
# 4 0.000000 0.000000 0.000000 0.085024 0.000000 0.050542
# 5 0.002535 0.000186 -0.004708 0.000000 0.034529 0.000000
# 6 0.000000 0.000000 0.000000 0.050542 0.000000 0.051697
#
#
# Mechanical properties :
#
#
# Convention : Reuss Voigt Hill
#
# Bulk Modulus (GPa) = 50.40267 50.77917 50.59092
# Shear Modulus (GPa) = 22.31305 37.80539 30.05922
#
# Velocity S-wave (km/s) = 2.89246 3.76499 3.35719
# Velocity P-wave (km/s) = 5.48212 6.15954 5.83067
#
# Compressibility (1/GPa) = 0.01984022
#
# Stress axis : x y z
#
# Youngs Moduli (GPa) = 108.54756 77.09739 92.18849
#
# Poissons Ratio (x) = 0.16005 0.05791
# Poissons Ratio (y) = 0.22533 0.35871
# Poissons Ratio (z) = 0.06818 0.29999
#
# Static dielectric constant tensor:
#      x y z
#    x 2.130970 0.000000 -0.041380 
#    y 0.000000 2.029900 0.000000 
#    z -0.041380 0.000000 2.060720 
# 
# From -- ./inp_files/269072.got.cif
#   From: 2010.05.17/outbox.cif.g08.bks.cpg/sg15_135_cif.got.tgz:269072.got - 2010.06.03 18:47:42.
