data_PCOD9305204
_publ_section_title
;
Structure prediction by ZEFSAII (Michael W. Deem and Ramdas Pophale) SiO2 
 PCOD9305204
Probable space group: C 2/C
;
_chemical_formula_sum "Si O2"
_cell_formula_units_Z 36
_cell_length_a 8.031983
_cell_length_b 23.681761
_cell_length_c 14.612348
_cell_angle_alpha 90.000000
_cell_angle_beta 37.361735
_cell_angle_gamma 90.000000
_cell_volume 1686.687667
_symmetry_space_group_name_H-M "C 2/C"
_symmetry_group_IT_number 15
_symmetry_cell_setting 'monoclinic'
loop_
_space_group_symop_operation_xyz
x,y,z
-x,y,1/2-z
-x,-y,-z
x,-y,1/2+z
1/2+x,1/2+y,z
1/2-x,1/2+y,1/2-z
1/2-x,1/2-y,-z
1/2+x,1/2-y,1/2+z
loop_
_atom_site_type_symbol
_atom_site_label
_atom_site_fract_x
_atom_site_fract_y
_atom_site_fract_z
Si Si1 0.500000 0.010313 0.750000
Si Si2 0.254155 0.087541 0.008337
Si Si3 0.708401 0.193198 0.077044
Si Si4 0.213946 0.699360 0.583791
Si Si5 0.636898 0.085285 0.336036
O O1 0.290868 0.048876 0.901742
O O2 0.400099 0.967905 0.714707
O O3 0.404394 0.145289 0.916527
O O4 0.372334 0.066490 0.053837
O O5 0.943541 0.103815 0.172454
O O6 0.500000 0.207128 0.250000
O O7 0.573628 0.137224 0.089374
O O8 0.750000 0.250000 0.000000
O O9 0.006932 0.180739 0.988423
O O10 0.250000 0.750000 0.500000
O O11 0.000000 0.720382 0.750000
#
# Coordination Sequence:
#
# PCOD9305204 Si02
#       5
#     4   8   8   8   8
#     4  12  22  46  70 100 140 184 238 286 342 416
#     4  11  24  43  70 102 139 184 231 288 349 414
#     4  12  24  44  69 102 140 182 230 286 348 419
#     4  12  25  43  69 102 142 181 230 290 353 416
#     4  11  24  44  70 101 140 183 230 288 352 407
#
# _framework density 21.343609000000001
#
# number of rings (size 3 to 8) (size 9 to 14) (size 15 to 20)
#    0.000    0.444    4.444    4.000    3.111    0.000 
#    0.000    0.000    4.889    0.000    0.000    0.000 
#    0.000    0.000    0.000    0.000    0.000    0.000 
#
# Total GULP energy -100408.863064 kJ/mol
# GULP energy per Si atom -5578.270170 kJ/mol
# Density = 2.129503 g / cm^3
# Si number density = 21.343609 Si / 1000 Ang^3
#
#
#
# Elastic Constant Matrix: (Units=GPa)
#
#
# Indices 1 2 3 4 5 6 
#
# 1 104.2781 40.4812 52.4724 0.0000 16.5010 0.0000
# 2 40.4812 116.1305 43.9572 0.0000 24.3909 0.0000
# 3 52.4724 43.9572 145.7849 0.0000 21.6525 0.0000
# 4 0.0000 0.0000 0.0000 61.0158 0.0000 65.8126
# 5 16.5010 24.3909 21.6525 0.0000 39.8165 0.0000
# 6 0.0000 0.0000 0.0000 65.8126 0.0000 328.1303
#
#
#
# Elastic Compliance Matrix: (Units=1/GPa)
#
#
# Indices 1 2 3 4 5 6 
#
# 1 0.012675 -0.002747 -0.003485 0.000000 -0.001675 0.000000
# 2 -0.002747 0.011216 -0.001677 0.000000 -0.004820 0.000000
# 3 -0.003485 -0.001677 0.008977 0.000000 -0.002410 0.000000
# 4 0.000000 0.000000 0.000000 0.020914 0.000000 -0.004195
# 5 -0.001675 -0.004820 -0.002410 0.000000 0.030073 0.000000
# 6 0.000000 0.000000 0.000000 -0.004195 0.000000 0.003889
#
#
# Mechanical properties :
#
#
# Convention : Reuss Voigt Hill
#
# Bulk Modulus (GPa) = 58.65330 71.11276 64.88303
# Shear Modulus (GPa) = 45.76856 101.07803 73.42330
#
# Velocity S-wave (km/s) = 4.63576 6.88915 5.87157
# Velocity P-wave (km/s) = 7.49625 9.83213 8.74256
#
# Compressibility (1/GPa) = 0.01704934
#
# Stress axis : x y z
#
# Youngs Moduli (GPa) = 78.89593 89.15954 111.39054
#
# Poissons Ratio (x) = 0.24496 0.38819
# Poissons Ratio (y) = 0.21676 0.18681
# Poissons Ratio (z) = 0.27495 0.14952
#
# Static dielectric constant tensor:
#      x y z
#    x 1.817320 0.000000 -0.000890 
#    y 0.000000 1.807110 0.000000 
#    z -0.000890 0.000000 1.741430 
# 
# From -- ./inp_files/136408.got.cif
#   From: 2010.05.17/outbox.cif.g08.bks.cpg/sg15_69_cif.got.tgz:136408.got - 2010.06.03 18:47:42.
