data_PCOD9305999
_publ_section_title
;
Structure prediction by ZEFSAII (Michael W. Deem and Ramdas Pophale) SiO2 
 PCOD9305999
Probable space group: C 2/C
;
_chemical_formula_sum "Si O2"
_cell_formula_units_Z 48
_cell_length_a 9.756529
_cell_length_b 11.317521
_cell_length_c 20.301912
_cell_angle_alpha 90.000000
_cell_angle_beta 126.128413
_cell_angle_gamma 90.000000
_cell_volume 1810.641137
_symmetry_space_group_name_H-M "C 2/C"
_symmetry_group_IT_number 15
_symmetry_cell_setting 'monoclinic'
loop_
_space_group_symop_operation_xyz
x,y,z
-x,y,1/2-z
-x,-y,-z
x,-y,1/2+z
1/2+x,1/2+y,z
1/2-x,1/2+y,1/2-z
1/2-x,1/2-y,-z
1/2+x,1/2-y,1/2+z
loop_
_atom_site_type_symbol
_atom_site_label
_atom_site_fract_x
_atom_site_fract_y
_atom_site_fract_z
Si Si1 0.967890 0.698344 0.108876
Si Si2 0.839483 0.492924 0.663893
Si Si3 0.345351 0.616242 0.090467
Si Si4 0.091417 0.823620 0.032242
Si Si5 0.194162 0.792466 0.721427
Si Si6 0.670057 0.395274 0.332372
O O1 0.940020 0.764770 0.031422
O O2 0.172531 0.696895 0.180915
O O3 0.896735 0.571671 0.111755
O O4 0.897800 0.788237 0.143044
O O5 0.703226 0.591959 0.609686
O O6 0.767518 0.392355 0.692218
O O7 0.000000 0.541945 0.750000
O O8 0.192393 0.706406 0.041034
O O9 0.498552 0.676420 0.174333
O O10 0.273507 0.498357 0.103309
O O11 0.427879 0.603788 0.040757
O O12 0.212636 0.665663 0.689466
O O13 0.500000 0.443659 0.250000
#
# Coordination Sequence:
#
# PCOD9305999 Si02
#       6
#     8   8   8   8   8   8
#     4   9  20  39  62  88 115 150 201 252 296 347
#     4   9  20  39  62  88 115 150 201 252 296 347
#     4  11  25  39  55  87 125 160 195 236 298 362
#     4  11  25  39  55  87 125 160 195 236 298 362
#     4   9  20  39  62  88 115 150 201 252 296 347
#     4   9  20  39  62  88 115 150 201 252 296 347
#
# _framework density 26.509948000000001
#
# number of rings (size 3 to 8) (size 9 to 14) (size 15 to 20)
#    0.000    2.333    0.000    3.000    4.667    5.333 
#    0.000    6.667    0.000    0.000    0.000    0.000 
#    0.000    0.000    0.000    0.000    0.000    0.000 
#
# Total GULP energy -134301.867458 kJ/mol
# GULP energy per Si atom -5595.911144 kJ/mol
# Density = 2.644961 g / cm^3
# Si number density = 26.509948 Si / 1000 Ang^3
#
#
#
# Elastic Constant Matrix: (Units=GPa)
#
#
# Indices 1 2 3 4 5 6 
#
# 1 59.8904 3.9830 -0.8022 0.0000 -12.5960 0.0000
# 2 3.9830 75.8704 4.8665 0.0000 0.1189 0.0000
# 3 -0.8022 4.8665 71.4151 0.0000 -10.9709 0.0000
# 4 0.0000 0.0000 0.0000 -1.2876 0.0000 3.7774
# 5 -12.5960 0.1189 -10.9709 0.0000 42.3889 0.0000
# 6 0.0000 0.0000 0.0000 3.7774 0.0000 3.0981
#
#
#
# Elastic Compliance Matrix: (Units=1/GPa)
#
#
# Indices 1 2 3 4 5 6 
#
# 1 0.017966 -0.001025 0.001137 0.000000 0.005636 0.000000
# 2 -0.001025 0.013300 -0.001011 0.000000 -0.000603 0.000000
# 3 0.001137 -0.001011 0.014722 0.000000 0.004151 0.000000
# 4 0.000000 0.000000 0.000000 -0.169687 0.000000 0.206893
# 5 0.005636 -0.000603 0.004151 0.000000 0.026342 0.000000
# 6 0.000000 0.000000 0.000000 0.206893 0.000000 0.070521
#
#
# Mechanical properties :
#
#
# Convention : Reuss Voigt Hill
#
# Bulk Modulus (GPa) = 22.62865 24.80784 23.71825
# Shear Modulus (GPa) = -485.01496 22.11512 -231.44992
#
# Velocity S-wave (km/s) = -13.54079 2.89142 -9.35395
# Velocity P-wave (km/s) = 15.35957 4.53049 10.37764
#
# Compressibility (1/GPa) = 0.04419176
#
# Stress axis : x y z
#
# Youngs Moduli (GPa) = 55.66100 75.18830 67.92564
#
# Poissons Ratio (x) = 0.07707 -0.07726
# Poissons Ratio (y) = 0.05705 0.06864
# Poissons Ratio (z) = -0.06331 0.07598
#
# Static dielectric constant tensor:
#      x y z
#    x 2.102990 0.000000 -0.005900 
#    y 0.000000 2.000580 0.000000 
#    z -0.005900 0.000000 2.219540 
# 
# From -- ./inp_files/196050.got.cif
#   From: 2010.05.17/outbox.cif.g08.bks.cpg/sg15_99_cif.got.tgz:196050.got - 2010.06.03 18:47:42.
