data_PCOD9305948
_publ_section_title
;
Structure prediction by ZEFSAII (Michael W. Deem and Ramdas Pophale) SiO2 
 PCOD9305948
Probable space group: C 2/C
;
_chemical_formula_sum "Si O2"
_cell_formula_units_Z 48
_cell_length_a 12.597825
_cell_length_b 29.083510
_cell_length_c 15.126061
_cell_angle_alpha 90.000000
_cell_angle_beta 26.455060
_cell_angle_gamma 90.000000
_cell_volume 2468.947110
_symmetry_space_group_name_H-M "C 2/C"
_symmetry_group_IT_number 15
_symmetry_cell_setting 'monoclinic'
loop_
_space_group_symop_operation_xyz
x,y,z
-x,y,1/2-z
-x,-y,-z
x,-y,1/2+z
1/2+x,1/2+y,z
1/2-x,1/2+y,1/2-z
1/2-x,1/2-y,-z
1/2+x,1/2-y,1/2+z
loop_
_atom_site_type_symbol
_atom_site_label
_atom_site_fract_x
_atom_site_fract_y
_atom_site_fract_z
Si Si1 0.142152 0.397176 0.228656
Si Si2 0.268987 0.025124 0.061444
Si Si3 0.711066 0.804529 0.526705
Si Si4 0.901950 0.958949 0.631740
Si Si5 0.791813 0.855728 0.304461
Si Si6 0.431573 0.072777 0.398246
O O1 0.213665 0.366906 0.262109
O O2 0.000000 0.375680 0.250000
O O3 0.962720 0.436741 0.396810
O O4 0.376730 0.424327 0.019264
O O5 0.242002 0.014698 0.184282
O O6 0.000000 0.043125 0.250000
O O7 0.323346 0.978601 0.968582
O O8 0.500000 0.813973 0.750000
O O9 0.750000 0.750000 0.500000
O O10 0.651038 0.818712 0.470275
O O11 0.941595 0.834342 0.386809
O O12 0.691357 0.929647 0.747218
O O13 0.000000 0.000000 0.500000
O O14 0.739879 0.900490 0.405187
O O15 0.500000 0.090213 0.250000
#
# Coordination Sequence:
#
# PCOD9305948 Si02
#       6
#     8   8   8   8   8   8
#     4  12  25  44  60  93 136 188 240 277 328 390
#     4  12  23  41  59  82 133 195 233 284 328 377
#     4  11  24  49  76 108 135 162 202 275 368 437
#     4  12  23  38  60  83 126 190 243 289 329 375
#     4  11  26  41  71 103 134 177 215 281 349 415
#     4  12  25  40  60  98 138 171 242 293 338 395
#
# _framework density 19.441485
#
# number of rings (size 3 to 8) (size 9 to 14) (size 15 to 20)
#    0.000    0.333    6.667    3.500    9.333    0.000 
#    0.000    0.000    0.000    1.000    0.000    0.000 
#    0.000    0.000    0.000    0.000    0.000    0.000 
#
# Total GULP energy -133695.151568 kJ/mol
# GULP energy per Si atom -5570.631315 kJ/mol
# Density = 1.939724 g / cm^3
# Si number density = 19.441485 Si / 1000 Ang^3
#
#
#
# Elastic Constant Matrix: (Units=GPa)
#
#
# Indices 1 2 3 4 5 6 
#
# 1 116.4316 47.1018 55.5055 0.0000 12.7794 -0.0002
# 2 47.1018 98.6239 38.4490 -0.0001 4.3258 0.0001
# 3 55.5055 38.4490 158.6811 -0.0007 -0.6491 0.0001
# 4 0.0000 -0.0001 -0.0007 37.5278 0.0002 6.5816
# 5 12.7794 4.3258 -0.6491 0.0002 46.4437 0.0001
# 6 -0.0002 0.0001 0.0001 6.5816 0.0001 22.5469
#
#
#
# Elastic Compliance Matrix: (Units=1/GPa)
#
#
# Indices 1 2 3 4 5 6 
#
# 1 0.012260 -0.004469 -0.003218 0.000000 -0.003002 0.000000
# 2 -0.004469 0.012881 -0.001558 0.000000 0.000008 0.000000
# 3 -0.003218 -0.001558 0.007810 0.000000 0.001140 0.000000
# 4 0.000000 0.000000 0.000000 0.028085 0.000000 -0.008198
# 5 -0.003002 0.000008 0.001140 0.000000 0.022373 0.000000
# 6 0.000000 0.000000 0.000000 -0.008198 0.000000 0.046745
#
#
# Mechanical properties :
#
#
# Convention : Reuss Voigt Hill
#
# Bulk Modulus (GPa) = 69.15105 72.87211 71.01158
# Shear Modulus (GPa) = 32.58104 36.81572 34.69838
#
# Velocity S-wave (km/s) = 4.09816 4.35635 4.22922
# Velocity P-wave (km/s) = 7.61835 7.92893 7.77519
#
# Compressibility (1/GPa) = 0.01446110
#
# Stress axis : x y z
#
# Youngs Moduli (GPa) = 81.56406 77.63427 128.04630
#
# Poissons Ratio (x) = 0.34696 0.41205
# Poissons Ratio (y) = 0.36452 0.19947
# Poissons Ratio (z) = 0.26247 0.12094
#
# Static dielectric constant tensor:
#      x y z
#    x 1.968100 -0.000010 0.034440 
#    y -0.000010 1.654350 0.000000 
#    z 0.034440 0.000000 1.700730 
# 
# From -- ./inp_files/149111.got.cif
#   From: 2010.05.17/outbox.cif.g08.bks.cpg/sg15_75_cif.got.tgz:149111.got - 2010.06.03 18:47:42.
