data_PCOD9305050
_publ_section_title
;
Structure prediction by ZEFSAII (Michael W. Deem and Ramdas Pophale) SiO2 
 PCOD9305050
Probable space group: C 2/C
;
_chemical_formula_sum "Si O2"
_cell_formula_units_Z 48
_cell_length_a 18.971736
_cell_length_b 12.438237
_cell_length_c 13.495327
_cell_angle_alpha 90.000000
_cell_angle_beta 41.748039
_cell_angle_gamma 90.000000
_cell_volume 2120.458199
_symmetry_space_group_name_H-M "C 2/C"
_symmetry_group_IT_number 15
_symmetry_cell_setting 'monoclinic'
loop_
_space_group_symop_operation_xyz
x,y,z
-x,y,1/2-z
-x,-y,-z
x,-y,1/2+z
1/2+x,1/2+y,z
1/2-x,1/2+y,1/2-z
1/2-x,1/2-y,-z
1/2+x,1/2-y,1/2+z
loop_
_atom_site_type_symbol
_atom_site_label
_atom_site_fract_x
_atom_site_fract_y
_atom_site_fract_z
Si Si1 0.300569 0.573365 0.956618
Si Si2 0.854766 0.059522 0.232068
Si Si3 0.000000 0.586929 0.750000
Si Si4 0.348376 0.184101 0.067017
Si Si5 0.588637 0.898428 0.789756
Si Si6 0.500000 0.728310 0.750000
Si Si7 0.904469 0.075907 0.491325
O O1 0.291023 0.536748 0.853354
O O2 0.398557 0.652935 0.863311
O O3 0.198398 0.621138 0.115717
O O4 0.332670 0.461377 0.975724
O O5 0.775826 0.159235 0.313589
O O6 0.882111 0.017437 0.094426
O O7 0.969763 0.077550 0.160009
O O8 0.951442 0.509833 0.715406
O O9 0.089023 0.654461 0.599188
O O10 0.389628 0.112581 0.116782
O O11 0.370998 0.308160 0.065465
O O12 0.509861 0.805652 0.834632
#
# Coordination Sequence:
#
# PCOD9305050 Si02
#       7
#     8   8   4   8   8   4   8
#     4  12  22  45  70  98 139 182 230 290 338 407
#     4  11  24  47  70 101 142 178 235 286 340 409
#     4  11  26  47  68 100 146 181 224 285 344 418
#     4  12  26  45  71 102 137 186 228 284 349 413
#     4  11  25  45  67 103 137 183 229 284 346 407
#     4  11  24  41  72 102 138 183 232 281 342 414
#     4  11  26  44  71 104 137 184 231 286 343 406
#
# _framework density 22.636616
#
# number of rings (size 3 to 8) (size 9 to 14) (size 15 to 20)
#    0.000    0.667    5.000    2.000    4.667    2.000 
#    3.000    0.000    0.000    0.000    0.000    0.000 
#    0.000    0.000    0.000    0.000    0.000    0.000 
#
# Total GULP energy -134239.546588 kJ/mol
# GULP energy per Si atom -5593.314441 kJ/mol
# Density = 2.258509 g / cm^3
# Si number density = 22.636616 Si / 1000 Ang^3
#
#
#
# Elastic Constant Matrix: (Units=GPa)
#
#
# Indices 1 2 3 4 5 6 
#
# 1 40.3369 -6.7942 -6.2546 0.0000 5.7768 0.0000
# 2 -6.7942 45.7746 1.4930 0.0000 -13.9417 0.0000
# 3 -6.2546 1.4930 74.2671 0.0000 -2.8619 0.0000
# 4 0.0000 0.0000 0.0000 24.1209 0.0000 -11.2037
# 5 5.7768 -13.9417 -2.8619 0.0000 31.7352 0.0000
# 6 0.0000 0.0000 0.0000 -11.2037 0.0000 22.8747
#
#
#
# Elastic Compliance Matrix: (Units=1/GPa)
#
#
# Indices 1 2 3 4 5 6 
#
# 1 0.026050 0.002784 0.002009 0.000000 -0.003337 0.000000
# 2 0.002784 0.025519 0.000134 0.000000 0.010716 0.000000
# 3 0.002009 0.000134 0.013667 0.000000 0.000926 0.000000
# 4 0.000000 0.000000 0.000000 0.053667 0.000000 0.026285
# 5 -0.003337 0.010716 0.000926 0.000000 0.036909 0.000000
# 6 0.000000 0.000000 0.000000 0.026285 0.000000 0.056590
#
#
# Mechanical properties :
#
#
# Convention : Reuss Voigt Hill
#
# Bulk Modulus (GPa) = 13.31699 15.25190 14.28445
# Shear Modulus (GPa) = 21.97063 27.20846 24.58954
#
# Velocity S-wave (km/s) = 3.11879 3.47070 3.29944
# Velocity P-wave (km/s) = 4.34337 4.77633 4.56499
#
# Compressibility (1/GPa) = 0.07509203
#
# Stress axis : x y z
#
# Youngs Moduli (GPa) = 38.38815 39.18664 73.16844
#
# Poissons Ratio (x) = -0.10911 -0.14701
# Poissons Ratio (y) = -0.10689 -0.00984
# Poissons Ratio (z) = -0.07713 -0.00527
#
# Static dielectric constant tensor:
#      x y z
#    x 1.859370 0.000000 0.012690 
#    y 0.000000 1.798070 0.000000 
#    z 0.012690 0.000000 1.807810 
# 
# From -- ./inp_files/111472.got.cif
#   From: 2010.05.17/outbox.cif.g08.bks.cpg/sg15_56_cif.got.tgz:111472.got - 2010.06.03 18:47:42.
