data_PCOD9305108
_publ_section_title
;
Structure prediction by ZEFSAII (Michael W. Deem and Ramdas Pophale) SiO2 
 PCOD9305108
Probable space group: C 2/C
;
_chemical_formula_sum "Si O2"
_cell_formula_units_Z 44
_cell_length_a 6.818774
_cell_length_b 18.417766
_cell_length_c 18.814194
_cell_angle_alpha 90.000000
_cell_angle_beta 111.663121
_cell_angle_gamma 90.000000
_cell_volume 2195.925934
_symmetry_space_group_name_H-M "C 2/C"
_symmetry_group_IT_number 15
_symmetry_cell_setting 'monoclinic'
loop_
_space_group_symop_operation_xyz
x,y,z
-x,y,1/2-z
-x,-y,-z
x,-y,1/2+z
1/2+x,1/2+y,z
1/2-x,1/2+y,1/2-z
1/2-x,1/2-y,-z
1/2+x,1/2-y,1/2+z
loop_
_atom_site_type_symbol
_atom_site_label
_atom_site_fract_x
_atom_site_fract_y
_atom_site_fract_z
Si Si1 0.622466 0.325416 0.984724
Si Si2 0.690732 0.018861 0.821377
Si Si3 0.000000 0.246129 0.750000
Si Si4 0.870410 0.138191 0.305876
Si Si5 0.059805 0.136494 0.888409
Si Si6 0.510404 0.940878 0.441592
O O1 0.501335 0.341129 0.894718
O O2 0.750000 0.250000 0.000000
O O3 0.476398 0.332835 0.036179
O O4 0.801414 0.385836 0.017707
O O5 0.500000 0.051649 0.750000
O O6 0.579432 0.014298 0.882118
O O7 0.889355 0.072399 0.853061
O O8 0.763178 0.940313 0.804211
O O9 0.200369 0.298602 0.772962
O O10 0.018328 0.196782 0.822838
O O11 0.000000 0.133566 0.250000
O O12 0.291627 0.102869 0.908101
O O13 0.500000 0.000000 0.500000
#
# Coordination Sequence:
#
# PCOD9305108 Si02
#       6
#     8   8   4   8   8   8
#     4  11  25  44  66  98 136 178 227 280 342 408
#     4  11  25  42  66 100 133 176 227 278 338 405
#     4  12  26  44  68 102 134 180 230 278 350 410
#     4  12  27  43  68 100 137 176 228 282 341 410
#     4  11  25  44  71  98 138 182 227 287 343 406
#     4  11  24  42  69  98 133 177 231 277 338 409
#
# _framework density 20.037105
#
# number of rings (size 3 to 8) (size 9 to 14) (size 15 to 20)
#    0.000    0.727    0.909    5.455    6.364   12.364 
#    0.000    0.000    0.000    0.000    0.000    0.000 
#    0.000    0.000    0.000    0.000    0.000    0.000 
#
# Total GULP energy -123015.921151 kJ/mol
# GULP energy per Si atom -5591.632780 kJ/mol
# Density = 1.999150 g / cm^3
# Si number density = 20.037105 Si / 1000 Ang^3
#
#
#
# Elastic Constant Matrix: (Units=GPa)
#
#
# Indices 1 2 3 4 5 6 
#
# 1 160.5596 58.4371 89.5818 0.0000 -22.1620 0.0000
# 2 58.4371 98.6476 47.4350 0.0000 -26.3555 0.0000
# 3 89.5818 47.4350 151.1167 0.0000 -20.9437 0.0000
# 4 0.0000 0.0000 0.0000 39.6221 0.0000 -3.0227
# 5 -22.1620 -26.3555 -20.9437 0.0000 45.7717 0.0000
# 6 0.0000 0.0000 0.0000 -3.0227 0.0000 17.7662
#
#
#
# Elastic Compliance Matrix: (Units=1/GPa)
#
#
# Indices 1 2 3 4 5 6 
#
# 1 0.010384 -0.003592 -0.004930 0.000000 0.000703 0.000000
# 2 -0.003592 0.014642 -0.001643 0.000000 0.005940 0.000000
# 3 -0.004930 -0.001643 0.010244 0.000000 0.001354 0.000000
# 4 0.000000 0.000000 0.000000 0.025570 0.000000 0.004350
# 5 0.000703 0.005940 0.001354 0.000000 0.026227 0.000000
# 6 0.000000 0.000000 0.000000 0.004350 0.000000 0.057027
#
#
# Mechanical properties :
#
#
# Convention : Reuss Voigt Hill
#
# Bulk Modulus (GPa) = 66.94687 89.02577 77.98632
# Shear Modulus (GPa) = 29.51502 34.95666 32.23584
#
# Velocity S-wave (km/s) = 3.84216 4.18137 4.01535
# Velocity P-wave (km/s) = 7.29156 8.23642 7.77835
#
# Compressibility (1/GPa) = 0.01493722
#
# Stress axis : x y z
#
# Youngs Moduli (GPa) = 96.30643 68.29520 97.62279
#
# Poissons Ratio (x) = 0.24535 0.48130
# Poissons Ratio (y) = 0.34598 0.16043
# Poissons Ratio (z) = 0.47481 0.11223
#
# Static dielectric constant tensor:
#      x y z
#    x 1.669440 0.000000 0.003860 
#    y 0.000000 1.663380 0.000000 
#    z 0.003860 0.000000 1.751010 
# 
# From -- ./inp_files/185003.got.cif
#   From: 2010.05.17/outbox.cif.g08.bks.cpg/sg15_93_cif.got.tgz:185003.got - 2010.06.03 18:47:42.
