data_PCOD9305585
_publ_section_title
;
Structure prediction by ZEFSAII (Michael W. Deem and Ramdas Pophale) SiO2 
 PCOD9305585
Probable space group: C 2/C
;
_chemical_formula_sum "Si O2"
_cell_formula_units_Z 44
_cell_length_a 13.868605
_cell_length_b 15.041854
_cell_length_c 8.919771
_cell_angle_alpha 90.000000
_cell_angle_beta 90.228168
_cell_angle_gamma 90.000000
_cell_volume 1860.734496
_symmetry_space_group_name_H-M "C 2/C"
_symmetry_group_IT_number 15
_symmetry_cell_setting 'monoclinic'
loop_
_space_group_symop_operation_xyz
x,y,z
-x,y,1/2-z
-x,-y,-z
x,-y,1/2+z
1/2+x,1/2+y,z
1/2-x,1/2+y,1/2-z
1/2-x,1/2-y,-z
1/2+x,1/2-y,1/2+z
loop_
_atom_site_type_symbol
_atom_site_label
_atom_site_fract_x
_atom_site_fract_y
_atom_site_fract_z
Si Si1 0.697596 0.842675 0.818521
Si Si2 0.608545 0.318078 0.481891
Si Si3 0.573790 0.977735 0.371348
Si Si4 0.643401 0.468560 0.272582
Si Si5 0.747814 0.589199 0.478717
Si Si6 0.000000 0.131903 0.250000
O O1 0.790284 0.837819 0.929729
O O2 0.740525 0.835985 0.649650
O O3 0.633539 0.932505 0.829626
O O4 0.629030 0.764110 0.874054
O O5 0.585734 0.401406 0.376181
O O6 0.525429 0.310513 0.605204
O O7 0.500000 0.941302 0.250000
O O8 0.653242 0.910384 0.430111
O O9 0.500000 0.000000 0.500000
O O10 0.734644 0.500036 0.374908
O O11 0.670405 0.425231 0.112898
O O12 0.587095 0.561308 0.262421
#
# Coordination Sequence:
#
# PCOD9305585 Si02
#       6
#     8   8   8   8   8   4
#     4  11  24  46  64  99 143 185 227 289 362 416
#     4  11  25  44  70  97 147 183 225 291 359 417
#     4  12  22  39  69  97 129 181 237 293 334 413
#     4  12  22  40  71 102 134 183 231 288 339 427
#     4  12  21  42  69 102 138 179 238 282 357 416
#     4  12  22  42  70 106 136 182 242 280 338 428
#
# _framework density 23.646576
#
# number of rings (size 3 to 8) (size 9 to 14) (size 15 to 20)
#    0.000    0.364    9.091    0.545    0.000    0.727 
#    3.273    0.000    0.000    0.000    0.000    0.000 
#    0.000    0.000    0.000    0.000    0.000    0.000 
#
# Total GULP energy -122745.745336 kJ/mol
# GULP energy per Si atom -5579.352061 kJ/mol
# Density = 2.359276 g / cm^3
# Si number density = 23.646576 Si / 1000 Ang^3
#
#
#
# Elastic Constant Matrix: (Units=GPa)
#
#
# Indices 1 2 3 4 5 6 
#
# 1 75.1511 6.7324 32.9640 0.0000 -5.6758 0.0000
# 2 6.7324 43.9151 27.5380 0.0000 -7.8662 0.0000
# 3 32.9640 27.5380 173.1432 0.0000 -31.3787 0.0000
# 4 0.0000 0.0000 0.0000 36.1554 0.0000 -13.0665
# 5 -5.6758 -7.8662 -31.3787 0.0000 61.8491 0.0000
# 6 0.0000 0.0000 0.0000 -13.0665 0.0000 12.3707
#
#
#
# Elastic Compliance Matrix: (Units=1/GPa)
#
#
# Indices 1 2 3 4 5 6 
#
# 1 0.014531 -0.000555 -0.002697 0.000000 -0.000106 0.000000
# 2 -0.000555 0.025410 -0.003699 0.000000 0.001304 0.000000
# 3 -0.002697 -0.003699 0.007431 0.000000 0.003052 0.000000
# 4 0.000000 0.000000 0.000000 0.044735 0.000000 0.047251
# 5 -0.000106 0.001304 0.003052 0.000000 0.017873 0.000000
# 6 0.000000 0.000000 0.000000 0.047251 0.000000 0.130744
#
#
# Mechanical properties :
#
#
# Convention : Reuss Voigt Hill
#
# Bulk Modulus (GPa) = 29.87947 47.40870 38.64408
# Shear Modulus (GPa) = 18.81232 37.07336 27.94284
#
# Velocity S-wave (km/s) = 2.82363 3.96385 3.44130
# Velocity P-wave (km/s) = 4.82637 6.40640 5.67167
#
# Compressibility (1/GPa) = 0.03346780
#
# Stress axis : x y z
#
# Youngs Moduli (GPa) = 68.81613 39.35512 134.57913
#
# Poissons Ratio (x) = 0.02185 0.36302
# Poissons Ratio (y) = 0.03821 0.49785
# Poissons Ratio (z) = 0.18563 0.14559
#
# Static dielectric constant tensor:
#      x y z
#    x 1.969560 0.000000 0.023470 
#    y 0.000000 1.958960 0.000000 
#    z 0.023470 0.000000 1.918480 
# 
# From -- ./inp_files/39144.got.cif
#   From: 2010.05.17/outbox.cif.g08.bks.cpg/sg15_20_cif.got.tgz:39144.got - 2010.06.03 18:47:42.
