data_PCOD9305019
_publ_section_title
;
Structure prediction by ZEFSAII (Michael W. Deem and Ramdas Pophale) SiO2 
 PCOD9305019
Probable space group: C 2/C
;
_chemical_formula_sum "Si O2"
_cell_formula_units_Z 44
_cell_length_a 5.632002
_cell_length_b 23.170841
_cell_length_c 16.244096
_cell_angle_alpha 90.000000
_cell_angle_beta 70.797923
_cell_angle_gamma 90.000000
_cell_volume 2001.887989
_symmetry_space_group_name_H-M "C 2/C"
_symmetry_group_IT_number 15
_symmetry_cell_setting 'monoclinic'
loop_
_space_group_symop_operation_xyz
x,y,z
-x,y,1/2-z
-x,-y,-z
x,-y,1/2+z
1/2+x,1/2+y,z
1/2-x,1/2+y,1/2-z
1/2-x,1/2-y,-z
1/2+x,1/2-y,1/2+z
loop_
_atom_site_type_symbol
_atom_site_label
_atom_site_fract_x
_atom_site_fract_y
_atom_site_fract_z
Si Si1 0.000000 0.053901 0.750000
Si Si2 0.759123 0.959465 0.045779
Si Si3 0.768291 0.354728 0.327859
Si Si4 0.334931 0.035662 0.130834
Si Si5 0.951564 0.748183 0.053304
Si Si6 0.206527 0.339717 0.796543
O O1 0.810570 0.098107 0.730837
O O2 0.878664 0.011961 0.830403
O O3 0.744059 0.897236 0.091062
O O4 0.587501 0.001153 0.120840
O O5 0.651156 0.948299 0.966621
O O6 0.000000 0.000000 0.000000
O O7 0.603932 0.301103 0.377663
O O8 0.000000 0.327433 0.250000
O O9 0.297070 0.091450 0.189837
O O10 0.889752 0.690230 0.109796
O O11 0.750000 0.750000 0.000000
O O12 0.250000 0.750000 0.000000
O O13 0.500000 0.323131 0.750000
O O14 0.000000 0.324986 0.750000
#
# Coordination Sequence:
#
# PCOD9305019 Si02
#       6
#     4   8   8   8   8   8
#     4  12  24  42  72 112 144 196 240 314 368 454
#     4  11  24  41  67 103 146 193 243 299 370 446
#     4  12  27  45  77 103 152 190 256 308 383 445
#     4  11  25  42  68 107 150 193 246 299 377 446
#     4  12  30  53  80 107 149 199 259 318 385 446
#     4  12  28  47  78 108 151 195 252 307 374 452
#
# _framework density 21.979253
#
# number of rings (size 3 to 8) (size 9 to 14) (size 15 to 20)
#    0.000    0.364    4.545    2.727   11.455    0.000 
#    0.000    0.000    0.000    0.000    0.000    0.000 
#    0.000    0.000    0.000    0.000    0.000    0.000 
#
# Total GULP energy -122609.456367 kJ/mol
# GULP energy per Si atom -5573.157108 kJ/mol
# Density = 2.192923 g / cm^3
# Si number density = 21.979253 Si / 1000 Ang^3
#
#
#
# Elastic Constant Matrix: (Units=GPa)
#
#
# Indices 1 2 3 4 5 6 
#
# 1 113.3486 18.9094 39.2983 0.0000 -22.5984 0.0000
# 2 18.9094 97.1475 23.3223 0.0000 -21.1731 0.0000
# 3 39.2983 23.3223 84.7020 0.0000 -21.9651 0.0000
# 4 0.0000 0.0000 0.0000 27.9214 0.0000 -17.0081
# 5 -22.5984 -21.1731 -21.9651 0.0000 59.6151 0.0000
# 6 0.0000 0.0000 0.0000 -17.0081 0.0000 15.5358
#
#
#
# Elastic Compliance Matrix: (Units=1/GPa)
#
#
# Indices 1 2 3 4 5 6 
#
# 1 0.010868 -0.000579 -0.004276 0.000000 0.002338 0.000000
# 2 -0.000579 0.011594 -0.002115 0.000000 0.003119 0.000000
# 3 -0.004276 -0.002115 0.015211 0.000000 0.003232 0.000000
# 4 0.000000 0.000000 0.000000 0.107509 0.000000 0.117698
# 5 0.002338 0.003119 0.003232 0.000000 0.019959 0.000000
# 6 0.000000 0.000000 0.000000 0.117698 0.000000 0.193219
#
#
# Mechanical properties :
#
#
# Convention : Reuss Voigt Hill
#
# Bulk Modulus (GPa) = 42.13771 50.91756 46.52764
# Shear Modulus (GPa) = 13.15060 34.85901 24.00480
#
# Velocity S-wave (km/s) = 2.44871 3.98678 3.30837
# Velocity P-wave (km/s) = 5.21614 6.66401 5.98403
#
# Compressibility (1/GPa) = 0.02373171
#
# Stress axis : x y z
#
# Youngs Moduli (GPa) = 92.01510 86.25282 65.74346
#
# Poissons Ratio (x) = 0.04995 0.28114
# Poissons Ratio (y) = 0.05329 0.13904
# Poissons Ratio (z) = 0.39349 0.18241
#
# Static dielectric constant tensor:
#      x y z
#    x 1.969170 0.000000 0.060160 
#    y 0.000000 1.881370 0.000000 
#    z 0.060160 0.000000 1.637560 
# 
# From -- ./inp_files/184811.got.cif
#   From: 2010.05.17/outbox.cif.g08.bks.cpg/sg15_93_cif.got.tgz:184811.got - 2010.06.03 18:47:42.
