data_PCOD9305792
_publ_section_title
;
Structure prediction by ZEFSAII (Michael W. Deem and Ramdas Pophale) SiO2 
 PCOD9305792
Probable space group: C 2/C
;
_chemical_formula_sum "Si O2"
_cell_formula_units_Z 44
_cell_length_a 8.383299
_cell_length_b 15.524758
_cell_length_c 16.160181
_cell_angle_alpha 90.000000
_cell_angle_beta 68.439434
_cell_angle_gamma 90.000000
_cell_volume 1956.062829
_symmetry_space_group_name_H-M "C 2/C"
_symmetry_group_IT_number 15
_symmetry_cell_setting 'monoclinic'
loop_
_space_group_symop_operation_xyz
x,y,z
-x,y,1/2-z
-x,-y,-z
x,-y,1/2+z
1/2+x,1/2+y,z
1/2-x,1/2+y,1/2-z
1/2-x,1/2-y,-z
1/2+x,1/2-y,1/2+z
loop_
_atom_site_type_symbol
_atom_site_label
_atom_site_fract_x
_atom_site_fract_y
_atom_site_fract_z
Si Si1 0.245680 0.973542 0.388925
Si Si2 0.500000 0.103610 0.250000
Si Si3 0.659039 0.816693 0.455538
Si Si4 0.081232 0.285511 0.144547
Si Si5 0.663152 0.862578 0.879858
Si Si6 0.630928 0.479480 0.097638
O O1 0.336396 0.880649 0.374635
O O2 0.074188 0.976003 0.365786
O O3 0.376944 0.042200 0.326805
O O4 0.189465 0.997797 0.492539
O O5 0.391148 0.155771 0.203941
O O6 0.750000 0.750000 0.500000
O O7 0.562967 0.773000 0.397496
O O8 0.509521 0.867614 0.533327
O O9 0.793999 0.886027 0.397056
O O10 0.228108 0.215389 0.104547
O O11 0.000000 0.273108 0.250000
O O12 0.778221 0.948249 0.863896
#
# Coordination Sequence:
#
# PCOD9305792 Si02
#       6
#     8   4   8   8   8   8
#     4  11  24  47  73 102 138 185 234 294 356 428
#     4  12  26  46  70 106 140 184 232 304 348 420
#     4  12  26  47  74 103 143 191 237 292 355 434
#     4  12  28  46  69 104 146 186 240 298 358 414
#     4  12  27  45  72 103 144 186 240 290 359 424
#     4  11  25  45  75 103 136 188 243 284 359 432
#
# _framework density 22.494164000000001
#
# number of rings (size 3 to 8) (size 9 to 14) (size 15 to 20)
#    0.000    0.364    4.545    3.273   10.182    0.000 
#    0.000    0.000    0.000    0.000    0.000    0.000 
#    0.000    0.000    0.000    0.000    0.000    0.000 
#
# Total GULP energy -123281.984323 kJ/mol
# GULP energy per Si atom -5603.726560 kJ/mol
# Density = 2.244297 g / cm^3
# Si number density = 22.494164 Si / 1000 Ang^3
#
#
#
# Elastic Constant Matrix: (Units=GPa)
#
#
# Indices 1 2 3 4 5 6 
#
# 1 172.5390 34.0102 27.8638 0.0000 27.4566 0.0000
# 2 34.0102 44.0499 -15.1905 0.0000 7.5576 0.0000
# 3 27.8638 -15.1905 56.4107 0.0000 10.9992 0.0000
# 4 0.0000 0.0000 0.0000 21.2249 0.0000 4.3891
# 5 27.4566 7.5576 10.9992 0.0000 47.7791 0.0000
# 6 0.0000 0.0000 0.0000 4.3891 0.0000 46.7683
#
#
#
# Elastic Compliance Matrix: (Units=1/GPa)
#
#
# Indices 1 2 3 4 5 6 
#
# 1 0.008867 -0.008608 -0.006250 0.000000 -0.002295 0.000000
# 2 -0.008608 0.034998 0.014439 0.000000 -0.003914 0.000000
# 3 -0.006250 0.014439 0.025597 0.000000 -0.004585 0.000000
# 4 0.000000 0.000000 0.000000 0.048047 0.000000 -0.004509
# 5 -0.002295 -0.003914 -0.004585 0.000000 0.023923 0.000000
# 6 0.000000 0.000000 0.000000 -0.004509 0.000000 0.021805
#
#
# Mechanical properties :
#
#
# Convention : Reuss Voigt Hill
#
# Bulk Modulus (GPa) = 14.57204 40.70740 27.63972
# Shear Modulus (GPa) = 26.74515 38.24218 32.49367
#
# Velocity S-wave (km/s) = 3.45190 4.12769 3.80483
# Velocity P-wave (km/s) = 4.73072 6.39166 5.62285
#
# Compressibility (1/GPa) = 0.06862456
#
# Stress axis : x y z
#
# Youngs Moduli (GPa) = 112.77597 28.57282 39.06754
#
# Poissons Ratio (x) = 0.24595 0.24418
# Poissons Ratio (y) = 0.97075 -0.56411
# Poissons Ratio (z) = 0.70488 -0.41257
#
# Static dielectric constant tensor:
#      x y z
#    x 1.828370 0.000000 0.017640 
#    y 0.000000 1.799430 0.000000 
#    z 0.017640 0.000000 1.828100 
# 
# From -- ./inp_files/189168.got.cif
#   From: 2010.05.17/outbox.cif.g08.bks.cpg/sg15_95_cif.got.tgz:189168.got - 2010.06.03 18:47:42.
