data_PCOD9305265
_publ_section_title
;
Structure prediction by ZEFSAII (Michael W. Deem and Ramdas Pophale) SiO2 
 PCOD9305265
Probable space group: C 2/C
;
_chemical_formula_sum "Si O2"
_cell_formula_units_Z 40
_cell_length_a 12.833853
_cell_length_b 12.770903
_cell_length_c 10.349094
_cell_angle_alpha 90.000000
_cell_angle_beta 101.475127
_cell_angle_gamma 90.000000
_cell_volume 1662.310010
_symmetry_space_group_name_H-M "C 2/C"
_symmetry_group_IT_number 15
_symmetry_cell_setting 'monoclinic'
loop_
_space_group_symop_operation_xyz
x,y,z
-x,y,1/2-z
-x,-y,-z
x,-y,1/2+z
1/2+x,1/2+y,z
1/2-x,1/2+y,1/2-z
1/2-x,1/2-y,-z
1/2+x,1/2-y,1/2+z
loop_
_atom_site_type_symbol
_atom_site_label
_atom_site_fract_x
_atom_site_fract_y
_atom_site_fract_z
Si Si1 0.019279 0.207110 0.610133
Si Si2 0.442373 0.934842 0.597401
Si Si3 0.265398 0.281509 0.672099
Si Si4 0.254329 0.572672 0.922248
Si Si5 0.080420 0.919492 0.647208
O O1 0.948944 0.311669 0.574184
O O2 0.981939 0.126529 0.491277
O O3 0.000000 0.166751 0.750000
O O4 0.139614 0.255406 0.640187
O O5 0.500000 0.952426 0.750000
O O6 0.500000 0.000000 0.500000
O O7 0.323595 0.977954 0.569761
O O8 0.284129 0.363970 0.559794
O O9 0.310771 0.164488 0.666265
O O10 0.326143 0.336082 0.801359
O O11 0.352643 0.524876 0.867316
O O12 0.000000 0.925227 0.750000
#
# Coordination Sequence:
#
# PCOD9305265 Si02
#       5
#     8   8   8   8   8
#     4  11  26  49  72 114 156 193 251 316 379 446
#     4  11  24  43  78 109 146 196 251 319 379 443
#     4  11  26  48  74 106 150 198 244 308 379 454
#     4  11  26  46  71 110 151 192 250 313 375 451
#     4  12  28  48  79 109 148 207 253 307 381 453
#
# _framework density 24.062899999999999
#
# number of rings (size 3 to 8) (size 9 to 14) (size 15 to 20)
#    0.000    0.800    2.000    4.800    2.800    8.800 
#    0.000    0.000    0.000    0.000    0.000    0.000 
#    0.000    0.000    0.000    0.000    0.000    0.000 
#
# Total GULP energy -111825.117907 kJ/mol
# GULP energy per Si atom -5591.255895 kJ/mol
# Density = 2.400813 g / cm^3
# Si number density = 24.062900 Si / 1000 Ang^3
#
#
#
# Elastic Constant Matrix: (Units=GPa)
#
#
# Indices 1 2 3 4 5 6 
#
# 1 137.1317 29.5911 41.1433 0.0000 -18.7964 0.0000
# 2 29.5911 98.3822 36.2793 0.0000 3.0407 0.0000
# 3 41.1433 36.2793 122.5432 0.0000 -22.4179 0.0000
# 4 0.0000 0.0000 0.0000 20.4569 0.0000 3.3674
# 5 -18.7964 3.0407 -22.4179 0.0000 39.6051 0.0000
# 6 0.0000 0.0000 0.0000 3.3674 0.0000 37.0683
#
#
#
# Elastic Compliance Matrix: (Units=1/GPa)
#
#
# Indices 1 2 3 4 5 6 
#
# 1 0.008710 -0.002099 -0.001693 0.000000 0.003337 0.000000
# 2 -0.002099 0.012270 -0.003662 0.000000 -0.004011 0.000000
# 3 -0.001693 -0.003662 0.010840 0.000000 0.005613 0.000000
# 4 0.000000 0.000000 0.000000 0.049625 0.000000 -0.004508
# 5 0.003337 -0.004011 0.005613 0.000000 0.030318 0.000000
# 6 0.000000 0.000000 0.000000 -0.004508 0.000000 0.027387
#
#
# Mechanical properties :
#
#
# Convention : Reuss Voigt Hill
#
# Bulk Modulus (GPa) = 59.12339 63.56495 61.34417
# Shear Modulus (GPa) = 31.30979 36.16228 33.73603
#
# Velocity S-wave (km/s) = 3.61108 3.88083 3.74838
# Velocity P-wave (km/s) = 6.48153 6.82310 6.65450
#
# Compressibility (1/GPa) = 0.01691378
#
# Stress axis : x y z
#
# Youngs Moduli (GPa) = 114.80543 81.50005 92.25415
#
# Poissons Ratio (x) = 0.17106 0.15615
# Poissons Ratio (y) = 0.24096 0.33780
# Poissons Ratio (z) = 0.19433 0.29842
#
# Static dielectric constant tensor:
#      x y z
#    x 1.990140 0.000000 -0.077420 
#    y 0.000000 1.940100 0.000000 
#    z -0.077420 0.000000 1.948470 
# 
# From -- ./inp_files/86260.got.cif
#   From: 2010.05.17/outbox.cif.g08.bks.cpg/sg15_44_cif.got.tgz:86260.got - 2010.06.03 18:47:42.
