data_PCOD9305378
_publ_section_title
;
Structure prediction by ZEFSAII (Michael W. Deem and Ramdas Pophale) SiO2 
 PCOD9305378
Probable space group: C 2/C
;
_chemical_formula_sum "Si O2"
_cell_formula_units_Z 36
_cell_length_a 22.595462
_cell_length_b 7.156578
_cell_length_c 9.192552
_cell_angle_alpha 90.000000
_cell_angle_beta 115.246058
_cell_angle_gamma 90.000000
_cell_volume 1344.509437
_symmetry_space_group_name_H-M "C 2/C"
_symmetry_group_IT_number 15
_symmetry_cell_setting 'monoclinic'
loop_
_space_group_symop_operation_xyz
x,y,z
-x,y,1/2-z
-x,-y,-z
x,-y,1/2+z
1/2+x,1/2+y,z
1/2-x,1/2+y,1/2-z
1/2-x,1/2-y,-z
1/2+x,1/2-y,1/2+z
loop_
_atom_site_type_symbol
_atom_site_label
_atom_site_fract_x
_atom_site_fract_y
_atom_site_fract_z
Si Si1 0.315654 0.988935 0.825124
Si Si2 0.677050 0.377583 0.804212
Si Si3 0.591469 0.507319 0.461020
Si Si4 0.598836 0.131507 0.315871
Si Si5 0.000000 0.320181 0.250000
O O1 0.313698 0.158750 0.709579
O O2 0.244308 0.958219 0.814162
O O3 0.351063 0.831756 0.764738
O O4 0.361606 0.051183 0.004926
O O5 0.614293 0.436660 0.641462
O O6 0.657627 0.427712 0.946691
O O7 0.570053 0.324091 0.347383
O O8 0.540910 0.678475 0.395414
O O9 0.548089 0.967490 0.220289
#
# Coordination Sequence:
#
# PCOD9305378 Si02
#       5
#     8   8   8   8   4
#     4  11  24  44  72 105 138 177 231 288 346 402
#     4  11  24  44  72 105 138 177 231 288 346 402
#     4  11  26  46  68 105 137 181 231 282 339 406
#     4  11  26  46  68 105 137 181 231 282 339 406
#     4  12  26  48  70  96 144 192 226 268 344 418
#
# _framework density 26.775565
#
# number of rings (size 3 to 8) (size 9 to 14) (size 15 to 20)
#    0.000    0.889    2.222    3.333    6.222    7.111 
#    0.000    0.000    0.000    0.000    0.000    0.000 
#    0.000    0.000    0.000    0.000    0.000    0.000 
#
# Total GULP energy -100940.949406 kJ/mol
# GULP energy per Si atom -5607.830523 kJ/mol
# Density = 2.671462 g / cm^3
# Si number density = 26.775565 Si / 1000 Ang^3
#
#
#
# Elastic Constant Matrix: (Units=GPa)
#
#
# Indices 1 2 3 4 5 6 
#
# 1 114.9007 33.5371 31.8821 0.0000 14.3957 0.0000
# 2 33.5371 157.5866 19.3812 0.0000 20.8559 0.0000
# 3 31.8821 19.3812 84.2533 0.0000 -9.3773 0.0000
# 4 0.0000 0.0000 0.0000 36.9236 0.0000 1.8419
# 5 14.3957 20.8559 -9.3773 0.0000 34.8762 0.0000
# 6 0.0000 0.0000 0.0000 1.8419 0.0000 47.5212
#
#
#
# Elastic Compliance Matrix: (Units=1/GPa)
#
#
# Indices 1 2 3 4 5 6 
#
# 1 0.010882 -0.001108 -0.004421 0.000000 -0.005018 0.000000
# 2 -0.001108 0.007387 -0.001774 0.000000 -0.004437 0.000000
# 3 -0.004421 -0.001774 0.014712 0.000000 0.006841 0.000000
# 4 0.000000 0.000000 0.000000 0.027135 0.000000 -0.001052
# 5 -0.005018 -0.004437 0.006841 0.000000 0.035237 0.000000
# 6 0.000000 0.000000 0.000000 -0.001052 0.000000 0.021084
#
#
# Mechanical properties :
#
#
# Convention : Reuss Voigt Hill
#
# Bulk Modulus (GPa) = 54.42475 58.48238 56.45356
# Shear Modulus (GPa) = 36.45164 41.99356 39.22260
#
# Velocity S-wave (km/s) = 3.69369 3.96454 3.83151
# Velocity P-wave (km/s) = 6.20979 6.54568 6.37994
#
# Compressibility (1/GPa) = 0.01837399
#
# Stress axis : x y z
#
# Youngs Moduli (GPa) = 91.89387 135.37523 67.97372
#
# Poissons Ratio (x) = 0.15000 0.30055
# Poissons Ratio (y) = 0.10182 0.12057
# Poissons Ratio (z) = 0.40631 0.24013
#
# Static dielectric constant tensor:
#      x y z
#    x 2.126640 0.000000 0.025420 
#    y 0.000000 2.139730 0.000000 
#    z 0.025420 0.000000 2.012180 
# 
# From -- ./inp_files/60133.got.cif
#   From: 2010.05.17/outbox.cif.g08.bks.cpg/sg15_31_cif.got.tgz:60133.got - 2010.06.03 18:47:42.
