data_PCOD9305875
_publ_section_title
;
Structure prediction by ZEFSAII (Michael W. Deem and Ramdas Pophale) SiO2 
 PCOD9305875
Probable space group: C 2/C
;
_chemical_formula_sum "Si O2"
_cell_formula_units_Z 64
_cell_length_a 8.594389
_cell_length_b 27.734058
_cell_length_c 16.964886
_cell_angle_alpha 90.000000
_cell_angle_beta 43.090748
_cell_angle_gamma 90.000000
_cell_volume 2762.480174
_symmetry_space_group_name_H-M "C 2/C"
_symmetry_group_IT_number 15
_symmetry_cell_setting 'monoclinic'
loop_
_space_group_symop_operation_xyz
x,y,z
-x,y,1/2-z
-x,-y,-z
x,-y,1/2+z
1/2+x,1/2+y,z
1/2-x,1/2+y,1/2-z
1/2-x,1/2-y,-z
1/2+x,1/2-y,1/2+z
loop_
_atom_site_type_symbol
_atom_site_label
_atom_site_fract_x
_atom_site_fract_y
_atom_site_fract_z
Si Si1 0.852586 0.320732 0.724758
Si Si2 0.733850 0.275378 0.324027
Si Si3 0.268640 0.916001 0.662687
Si Si4 0.890598 0.598933 0.945454
Si Si5 0.364352 0.370514 0.220306
Si Si6 0.236644 0.517466 0.188851
Si Si7 0.851262 0.802875 0.976761
Si Si8 0.996183 0.931316 0.470486
O O1 0.886906 0.273677 0.657268
O O2 0.875694 0.369511 0.666259
O O3 0.588532 0.314214 0.847873
O O4 0.000000 0.320451 0.750000
O O5 0.714764 0.315629 0.264029
O O6 0.618080 0.301052 0.441101
O O7 0.000000 0.267686 0.250000
O O8 0.376133 0.924699 0.536969
O O9 0.278643 0.960602 0.719073
O O10 0.000000 0.905367 0.750000
O O11 0.700352 0.579683 0.956032
O O12 0.135221 0.598009 0.814195
O O13 0.820904 0.655029 0.983862
O O14 0.500000 0.374451 0.250000
O O15 0.510185 0.390749 0.093466
O O16 0.440880 0.480128 0.099935
O O17 0.000000 0.494569 0.250000
O O18 0.284628 0.559742 0.106548
O O19 0.750000 0.750000 0.000000
#
# Coordination Sequence:
#
# PCOD9305875 Si02
#       8
#     8   8   8   8   8   8   8   8
#     4  12  26  42  63  99 139 176 226 288 342 399
#     4  12  22  41  68  93 134 181 232 274 336 409
#     4  12  24  43  70 101 134 177 230 280 343 414
#     4  12  23  44  71  97 134 186 227 277 342 416
#     4  12  26  42  67 102 137 175 228 282 341 402
#     4  11  25  45  73 102 137 176 227 285 346 399
#     4  12  22  38  69  95 129 180 229 274 333 407
#     4  11  24  48  71  99 138 184 224 278 345 414
#
# _framework density 23.167586
#
# number of rings (size 3 to 8) (size 9 to 14) (size 15 to 20)
#    0.000    0.250    6.250    3.000    1.750    2.000 
#    0.000    1.250    0.000    0.000    0.000    0.000 
#    0.000    0.000    0.000    0.000    0.000    0.000 
#
# Total GULP energy -179120.396263 kJ/mol
# GULP energy per Si atom -5597.512383 kJ/mol
# Density = 2.311486 g / cm^3
# Si number density = 23.167586 Si / 1000 Ang^3
#
#
#
# Elastic Constant Matrix: (Units=GPa)
#
#
# Indices 1 2 3 4 5 6 
#
# 1 95.6645 25.8327 -10.8715 0.0000 20.1901 0.0000
# 2 25.8327 74.1399 -16.0779 0.0000 18.0071 0.0000
# 3 -10.8715 -16.0779 45.7579 0.0000 16.4292 0.0000
# 4 0.0000 0.0000 0.0000 26.8719 0.0000 11.5326
# 5 20.1901 18.0071 16.4292 0.0000 41.0142 0.0000
# 6 0.0000 0.0000 0.0000 11.5326 0.0000 26.2947
#
#
#
# Elastic Compliance Matrix: (Units=1/GPa)
#
#
# Indices 1 2 3 4 5 6 
#
# 1 0.013170 -0.001432 0.005522 0.000000 -0.008066 0.000000
# 2 -0.001432 0.019244 0.010748 0.000000 -0.012049 0.000000
# 3 0.005522 0.010748 0.034587 0.000000 -0.021292 0.000000
# 4 0.000000 0.000000 0.000000 0.045842 0.000000 -0.020106
# 5 -0.008066 -0.012049 -0.021292 0.000000 0.042172 0.000000
# 6 0.000000 0.000000 0.000000 -0.020106 0.000000 0.046849
#
#
# Mechanical properties :
#
#
# Convention : Reuss Voigt Hill
#
# Bulk Modulus (GPa) = 10.34374 23.70322 17.02348
# Shear Modulus (GPa) = 24.46008 33.28144 28.87076
#
# Velocity S-wave (km/s) = 3.25282 3.79430 3.53394
# Velocity P-wave (km/s) = 4.31071 5.42670 4.90057
#
# Compressibility (1/GPa) = 0.09667684
#
# Stress axis : x y z
#
# Youngs Moduli (GPa) = 75.93101 51.96315 28.91235
#
# Poissons Ratio (x) = 0.07442 -0.15965
# Poissons Ratio (y) = 0.10875 -0.31075
# Poissons Ratio (z) = -0.41928 -0.55850
#
# Static dielectric constant tensor:
#      x y z
#    x 1.843050 0.000000 0.013960 
#    y 0.000000 1.934310 0.000000 
#    z 0.013960 0.000000 1.909450 
# 
# From -- ./inp_files/194219.got.cif
#   From: 2010.05.17/outbox.cif.g08.bks.cpg/sg15_98_cif.got.tgz:194219.got - 2010.06.03 18:47:42.
