data_PCOD9305910
_publ_section_title
;
Structure prediction by ZEFSAII (Michael W. Deem and Ramdas Pophale) SiO2 
 PCOD9305910
Probable space group: C 2/C
;
_chemical_formula_sum "Si O2"
_cell_formula_units_Z 56
_cell_length_a 18.743501
_cell_length_b 8.555780
_cell_length_c 18.351136
_cell_angle_alpha 90.000000
_cell_angle_beta 119.123327
_cell_angle_gamma 90.000000
_cell_volume 2570.828165
_symmetry_space_group_name_H-M "C 2/C"
_symmetry_group_IT_number 15
_symmetry_cell_setting 'monoclinic'
loop_
_space_group_symop_operation_xyz
x,y,z
-x,y,1/2-z
-x,-y,-z
x,-y,1/2+z
1/2+x,1/2+y,z
1/2-x,1/2+y,1/2-z
1/2-x,1/2-y,-z
1/2+x,1/2-y,1/2+z
loop_
_atom_site_type_symbol
_atom_site_label
_atom_site_fract_x
_atom_site_fract_y
_atom_site_fract_z
Si Si1 0.480297 0.824096 0.017447
Si Si2 0.173819 0.326174 0.920374
Si Si3 0.542449 0.319779 0.693350
Si Si4 0.490737 0.331821 0.117696
Si Si5 0.841723 0.707391 0.253040
Si Si6 0.717924 0.447168 0.796869
Si Si7 0.195117 0.629377 0.017340
O O1 0.521713 0.793637 0.116125
O O2 0.509447 0.704792 0.968853
O O3 0.383504 0.798038 0.981808
O O4 0.500000 0.000000 0.000000
O O5 0.184245 0.346801 0.839781
O O6 0.095904 0.216756 0.893524
O O7 0.250000 0.250000 0.000000
O O8 0.159555 0.494853 0.948400
O O9 0.500000 0.282834 0.750000
O O10 0.510451 0.491119 0.650917
O O11 0.639795 0.334303 0.751422
O O12 0.561626 0.220618 0.186093
O O13 0.794733 0.606933 0.288528
O O14 0.810503 0.884742 0.243977
O O15 0.746849 0.450429 0.894248
O O16 0.250000 0.750000 0.000000
#
# Coordination Sequence:
#
# PCOD9305910 Si02
#       7
#     8   8   8   8   8   8   8
#     4  12  26  48  71 107 147 194 244 307 372 448
#     4  12  26  44  75 100 142 187 240 302 364 437
#     4  11  26  47  74 105 147 196 245 301 373 447
#     4  11  24  48  75 106 145 194 247 303 370 448
#     4  11  25  45  71 105 143 189 236 299 366 437
#     4  11  25  45  70 103 143 185 239 295 360 442
#     4  12  27  47  70 107 145 186 243 303 368 435
#
# _framework density 21.782865000000001
#
# number of rings (size 3 to 8) (size 9 to 14) (size 15 to 20)
#    0.000    0.571    4.286    3.429    8.000    0.000 
#    2.571    0.000    0.000    0.000    0.000    0.000 
#    0.000    0.000    0.000    0.000    0.000    0.000 
#
# Total GULP energy -156767.078938 kJ/mol
# GULP energy per Si atom -5598.824248 kJ/mol
# Density = 2.173329 g / cm^3
# Si number density = 21.782865 Si / 1000 Ang^3
#
#
#
# Elastic Constant Matrix: (Units=GPa)
#
#
# Indices 1 2 3 4 5 6 
#
# 1 86.2862 9.1213 24.1480 0.0000 2.0793 0.0000
# 2 9.1213 41.1827 21.0265 0.0000 -9.7622 0.0000
# 3 24.1480 21.0265 130.0264 0.0000 -13.9175 0.0000
# 4 0.0000 0.0000 0.0000 34.5161 0.0000 -3.7828
# 5 2.0793 -9.7622 -13.9175 0.0000 47.6622 0.0000
# 6 0.0000 0.0000 0.0000 -3.7828 0.0000 29.8115
#
#
#
# Elastic Compliance Matrix: (Units=1/GPa)
#
#
# Indices 1 2 3 4 5 6 
#
# 1 0.012445 -0.002034 -0.002152 0.000000 -0.001588 0.000000
# 2 -0.002034 0.027684 -0.003595 0.000000 0.004709 0.000000
# 3 -0.002152 -0.003595 0.008881 0.000000 0.001951 0.000000
# 4 0.000000 0.000000 0.000000 0.029381 0.000000 0.003728
# 5 -0.001588 0.004709 0.001951 0.000000 0.022584 0.000000
# 6 0.000000 0.000000 0.000000 0.003728 0.000000 0.034017
#
#
# Mechanical properties :
#
#
# Convention : Reuss Voigt Hill
#
# Bulk Modulus (GPa) = 29.89762 40.67633 35.28697
# Shear Modulus (GPa) = 30.92076 35.94459 33.43267
#
# Velocity S-wave (km/s) = 3.77171 4.06659 3.92192
# Velocity P-wave (km/s) = 5.72039 6.38464 6.06162
#
# Compressibility (1/GPa) = 0.03344748
#
# Stress axis : x y z
#
# Youngs Moduli (GPa) = 80.35391 36.12148 112.60492
#
# Poissons Ratio (x) = 0.07347 0.24236
# Poissons Ratio (y) = 0.16343 0.40482
# Poissons Ratio (z) = 0.17295 0.12986
#
# Static dielectric constant tensor:
#      x y z
#    x 1.777140 0.000000 -0.001080 
#    y 0.000000 1.774600 0.000000 
#    z -0.001080 0.000000 1.806780 
# 
# From -- ./inp_files/214034.got.cif
#   From: 2010.05.17/outbox.cif.g08.bks.cpg/sg15_108_cif.got.tgz:214034.got - 2010.06.03 18:47:42.
