data_PCOD9305467
_publ_section_title
;
Structure prediction by ZEFSAII (Michael W. Deem and Ramdas Pophale) SiO2 
 PCOD9305467
Probable space group: C 2/C
;
_chemical_formula_sum "Si O2"
_cell_formula_units_Z 36
_cell_length_a 22.339880
_cell_length_b 9.379899
_cell_length_c 16.773806
_cell_angle_alpha 90.000000
_cell_angle_beta 157.769709
_cell_angle_gamma 90.000000
_cell_volume 1329.785668
_symmetry_space_group_name_H-M "C 2/C"
_symmetry_group_IT_number 15
_symmetry_cell_setting 'monoclinic'
loop_
_space_group_symop_operation_xyz
x,y,z
-x,y,1/2-z
-x,-y,-z
x,-y,1/2+z
1/2+x,1/2+y,z
1/2-x,1/2+y,1/2-z
1/2-x,1/2-y,-z
1/2+x,1/2-y,1/2+z
loop_
_atom_site_type_symbol
_atom_site_label
_atom_site_fract_x
_atom_site_fract_y
_atom_site_fract_z
Si Si1 0.035894 0.767124 0.994768
Si Si2 0.270505 0.920816 0.178774
Si Si3 0.500000 0.068300 0.250000
Si Si4 0.326438 0.559935 0.110948
Si Si5 0.049903 0.819856 0.430064
O O1 0.955135 0.611039 0.891601
O O2 0.917378 0.854662 0.790723
O O3 0.013174 0.814534 0.057430
O O4 0.203744 0.816281 0.165626
O O5 0.178665 0.878649 0.984246
O O6 0.208460 0.081067 0.119729
O O7 0.647025 0.970496 0.410962
O O8 0.552211 0.169844 0.387941
O O9 0.412607 0.407775 0.215449
#
# Coordination Sequence:
#
# PCOD9305467 Si02
#       5
#     8   8   4   8   8
#     4  11  26  42  76  98 146 178 234 287 345 408
#     4  11  24  46  69 104 140 185 225 289 347 409
#     4  12  26  42  74 102 138 188 234 282 342 422
#     4  11  24  45  69 101 140 184 234 279 352 409
#     4  11  24  46  69 100 144 183 229 288 347 406
#
# _framework density 27.072033000000001
#
# number of rings (size 3 to 8) (size 9 to 14) (size 15 to 20)
#    0.000    0.889    2.222    6.000    9.333    0.000 
#    0.000    2.222    0.000    0.000    0.000    0.000 
#    0.000    0.000    0.000    0.000    0.000    0.000 
#
# Total GULP energy -100923.314147 kJ/mol
# GULP energy per Si atom -5606.850786 kJ/mol
# Density = 2.701042 g / cm^3
# Si number density = 27.072033 Si / 1000 Ang^3
#
#
#
# Elastic Constant Matrix: (Units=GPa)
#
#
# Indices 1 2 3 4 5 6 
#
# 1 172.1650 32.0195 31.3461 0.0000 -31.6999 0.0000
# 2 32.0195 81.6351 3.8391 0.0000 -6.3506 0.0000
# 3 31.3461 3.8391 57.8188 0.0000 -2.2423 0.0000
# 4 0.0000 0.0000 0.0000 34.6165 0.0000 -8.0719
# 5 -31.6999 -6.3506 -2.2423 0.0000 64.0872 0.0000
# 6 0.0000 0.0000 0.0000 -8.0719 0.0000 18.0671
#
#
#
# Elastic Compliance Matrix: (Units=1/GPa)
#
#
# Indices 1 2 3 4 5 6 
#
# 1 0.007597 -0.002538 -0.003819 0.000000 0.003372 0.000000
# 2 -0.002538 0.013227 0.000500 0.000000 0.000073 0.000000
# 3 -0.003819 0.000500 0.019288 0.000000 -0.001165 0.000000
# 4 0.000000 0.000000 0.000000 0.032247 0.000000 0.014407
# 5 0.003372 0.000073 -0.001165 0.000000 0.017238 0.000000
# 6 0.000000 0.000000 0.000000 0.014407 0.000000 0.061786
#
#
# Mechanical properties :
#
#
# Convention : Reuss Voigt Hill
#
# Bulk Modulus (GPa) = 35.21330 49.55868 42.38599
# Shear Modulus (GPa) = 28.97503 39.64844 34.31174
#
# Velocity S-wave (km/s) = 3.27508 3.83110 3.56395
# Velocity P-wave (km/s) = 5.22849 6.15758 5.71195
#
# Compressibility (1/GPa) = 0.02839836
#
# Stress axis : x y z
#
# Youngs Moduli (GPa) = 131.63688 75.60223 51.84686
#
# Poissons Ratio (x) = 0.19185 0.19801
# Poissons Ratio (y) = 0.33405 -0.02594
# Poissons Ratio (z) = 0.50275 -0.03783
#
# Static dielectric constant tensor:
#      x y z
#    x 2.103160 0.000000 0.017830 
#    y 0.000000 2.146700 0.000000 
#    z 0.017830 0.000000 2.120820 
# 
# From -- ./inp_files/167786.got.cif
#   From: 2010.05.17/outbox.cif.g08.bks.cpg/sg15_84_cif.got.tgz:167786.got - 2010.06.03 18:47:42.
