data_PCOD9305440
_publ_section_title
;
Structure prediction by ZEFSAII (Michael W. Deem and Ramdas Pophale) SiO2 
 PCOD9305440
Probable space group: C 2/C
;
_chemical_formula_sum "Si O2"
_cell_formula_units_Z 52
_cell_length_a 11.655760
_cell_length_b 17.882194
_cell_length_c 10.974712
_cell_angle_alpha 90.000000
_cell_angle_beta 72.836701
_cell_angle_gamma 90.000000
_cell_volume 2185.599022
_symmetry_space_group_name_H-M "C 2/C"
_symmetry_group_IT_number 15
_symmetry_cell_setting 'monoclinic'
loop_
_space_group_symop_operation_xyz
x,y,z
-x,y,1/2-z
-x,-y,-z
x,-y,1/2+z
1/2+x,1/2+y,z
1/2-x,1/2+y,1/2-z
1/2-x,1/2-y,-z
1/2+x,1/2-y,1/2+z
loop_
_atom_site_type_symbol
_atom_site_label
_atom_site_fract_x
_atom_site_fract_y
_atom_site_fract_z
Si Si1 0.500000 0.515525 0.250000
Si Si2 0.112426 0.450811 0.803337
Si Si3 0.625278 0.275095 0.980700
Si Si4 0.853126 0.931399 0.590739
Si Si5 0.306780 0.226289 0.805717
Si Si6 0.097109 0.321787 0.977955
Si Si7 0.787537 0.930442 0.220721
O O1 0.533450 0.566201 0.353522
O O2 0.383859 0.462375 0.286621
O O3 0.227574 0.412468 0.699246
O O4 0.088355 0.406693 0.934982
O O5 0.160165 0.535311 0.802716
O O6 0.000000 0.447175 0.750000
O O7 0.616692 0.363706 0.006603
O O8 0.635890 0.260636 0.832486
O O9 0.750000 0.250000 0.000000
O O10 0.510451 0.225334 0.050640
O O11 0.825824 0.021128 0.586844
O O12 0.223123 0.288695 0.892055
O O13 0.222495 0.156347 0.793971
O O14 0.394802 0.191995 0.880342
#
# Coordination Sequence:
#
# PCOD9305440 Si02
#       7
#     4   8   8   8   8   8   8
#     4   6  16  32  64  86 110 172 200 258 328 364
#     4   9  18  39  63  86 125 173 204 257 326 382
#     4  12  25  41  67  98 130 176 224 275 324 393
#     4   8  18  38  63  85 129 160 210 267 316 379
#     4  11  24  45  61 101 130 167 225 269 329 402
#     4  11  25  39  71  92 132 174 213 274 334 386
#     4   8  19  38  66  86 132 165 209 274 318 394
#
# _framework density 23.792104999999999
#
# number of rings (size 3 to 8) (size 9 to 14) (size 15 to 20)
#    1.846    0.308    1.538    1.385    2.154    3.692 
#    2.769    2.308    0.000    0.000    0.000    0.000 
#    0.000    0.000    0.000    0.000    0.000    0.000 
#
# Total GULP energy -144813.057228 kJ/mol
# GULP energy per Si atom -5569.732970 kJ/mol
# Density = 2.373795 g / cm^3
# Si number density = 23.792105 Si / 1000 Ang^3
#
#
#
# Elastic Constant Matrix: (Units=GPa)
#
#
# Indices 1 2 3 4 5 6 
#
# 1 128.9510 -1.1130 27.4736 0.0000 13.0742 0.0000
# 2 -1.1130 61.1095 2.0341 0.0000 17.2084 0.0000
# 3 27.4736 2.0341 56.4989 0.0000 5.3197 0.0000
# 4 0.0000 0.0000 0.0000 28.8602 0.0000 6.4912
# 5 13.0742 17.2084 5.3197 0.0000 20.0819 0.0000
# 6 0.0000 0.0000 0.0000 6.4912 0.0000 8.6283
#
#
#
# Elastic Compliance Matrix: (Units=1/GPa)
#
#
# Indices 1 2 3 4 5 6 
#
# 1 0.009324 0.002261 -0.003960 0.000000 -0.006959 0.000000
# 2 0.002261 0.022171 0.000030 0.000000 -0.020479 0.000000
# 3 -0.003960 0.000030 0.019880 0.000000 -0.002714 0.000000
# 4 0.000000 0.000000 0.000000 0.041707 0.000000 -0.031377
# 5 -0.006959 -0.020479 -0.002714 0.000000 0.072594 0.000000
# 6 0.000000 0.000000 0.000000 -0.031377 0.000000 0.139503
#
#
# Mechanical properties :
#
#
# Convention : Reuss Voigt Hill
#
# Bulk Modulus (GPa) = 20.81707 33.70540 27.26124
# Shear Modulus (GPa) = 15.40704 26.05839 20.73272
#
# Velocity S-wave (km/s) = 2.54750 3.31305 2.95517
# Velocity P-wave (km/s) = 4.17392 5.36959 4.80906
#
# Compressibility (1/GPa) = 0.04803750
#
# Stress axis : x y z
#
# Youngs Moduli (GPa) = 107.25429 45.10387 50.30300
#
# Poissons Ratio (x) = -0.10199 0.19920
# Poissons Ratio (y) = -0.24252 -0.00153
# Poissons Ratio (z) = 0.42473 -0.00137
#
# Static dielectric constant tensor:
#      x y z
#    x 1.875530 0.000000 -0.002170 
#    y 0.000000 1.890550 0.000000 
#    z -0.002170 0.000000 1.998400 
# 
# From -- ./inp_files/88817.got.cif
#   From: 2010.05.17/outbox.cif.g08.bks.cpg/sg15_45_cif.got.tgz:88817.got - 2010.06.03 18:47:42.
