data_PCOD9305000
_publ_section_title
;
Structure prediction by ZEFSAII (Michael W. Deem and Ramdas Pophale) SiO2 
 PCOD9305000
Probable space group: C 2/C
;
_chemical_formula_sum "Si O2"
_cell_formula_units_Z 44
_cell_length_a 5.007251
_cell_length_b 25.134388
_cell_length_c 14.951188
_cell_angle_alpha 90.000000
_cell_angle_beta 87.649864
_cell_angle_gamma 90.000000
_cell_volume 1880.086967
_symmetry_space_group_name_H-M "C 2/C"
_symmetry_group_IT_number 15
_symmetry_cell_setting 'monoclinic'
loop_
_space_group_symop_operation_xyz
x,y,z
-x,y,1/2-z
-x,-y,-z
x,-y,1/2+z
1/2+x,1/2+y,z
1/2-x,1/2+y,1/2-z
1/2-x,1/2-y,-z
1/2+x,1/2-y,1/2+z
loop_
_atom_site_type_symbol
_atom_site_label
_atom_site_fract_x
_atom_site_fract_y
_atom_site_fract_z
Si Si1 0.398285 0.892287 0.653015
Si Si2 0.737720 0.713839 0.194226
Si Si3 0.000000 0.027238 0.250000
Si Si4 0.496531 0.777858 0.049051
Si Si5 0.632926 0.535958 0.918745
Si Si6 0.856885 0.400625 0.029997
O O1 0.500000 0.880171 0.750000
O O2 0.310872 0.833346 0.623631
O O3 0.183379 0.937051 0.680887
O O4 0.620540 0.908248 0.578216
O O5 0.500000 0.684476 0.250000
O O6 0.568464 0.760247 0.149522
O O7 0.000000 0.728992 0.250000
O O8 0.852557 0.990815 0.178895
O O9 0.440638 0.840494 0.050215
O O10 0.750000 0.750000 0.000000
O O11 0.250000 0.750000 0.000000
O O12 0.923475 0.557553 0.938972
O O13 0.428034 0.585634 0.924743
O O14 0.500000 0.500000 0.000000
#
# Coordination Sequence:
#
# PCOD9305000 Si02
#       6
#     8   8   4   8   8   8
#     4  11  24  40  75 105 137 181 244 306 370 420
#     4  11  24  43  68 107 144 181 239 304 365 429
#     4  12  26  44  76  98 146 188 254 304 370 424
#     4  12  25  45  77 106 144 192 239 292 372 448
#     4  12  27  48  72 105 144 196 243 304 370 433
#     4  12  27  48  72 105 150 190 243 301 367 449
#
# _framework density 23.403175000000001
#
# number of rings (size 3 to 8) (size 9 to 14) (size 15 to 20)
#    0.000    0.364    4.545    3.818    5.091    0.000 
#    4.909    0.000    0.000    0.000    0.000    0.000 
#    0.000    0.000    0.000    0.000    0.000    0.000 
#
# Total GULP energy -122708.508066 kJ/mol
# GULP energy per Si atom -5577.659458 kJ/mol
# Density = 2.334991 g / cm^3
# Si number density = 23.403175 Si / 1000 Ang^3
#
#
#
# Elastic Constant Matrix: (Units=GPa)
#
#
# Indices 1 2 3 4 5 6 
#
# 1 103.9551 3.6244 21.6004 0.0000 14.9142 0.0000
# 2 3.6244 95.9071 39.7818 0.0000 18.5344 0.0000
# 3 21.6004 39.7818 106.4555 0.0000 22.3366 0.0000
# 4 0.0000 0.0000 0.0000 8.7504 0.0000 -11.3749
# 5 14.9142 18.5344 22.3366 0.0000 25.7536 0.0000
# 6 0.0000 0.0000 0.0000 -11.3749 0.0000 6.2536
#
#
#
# Elastic Compliance Matrix: (Units=1/GPa)
#
#
# Indices 1 2 3 4 5 6 
#
# 1 0.010721 0.001334 -0.001430 0.000000 -0.005928 0.000000
# 2 0.001334 0.013304 -0.003754 0.000000 -0.007091 0.000000
# 3 -0.001430 -0.003754 0.012648 0.000000 -0.007440 0.000000
# 4 0.000000 0.000000 0.000000 -0.083751 0.000000 -0.152340
# 5 -0.005928 -0.007091 -0.007440 0.000000 0.053818 0.000000
# 6 0.000000 0.000000 0.000000 -0.152340 0.000000 -0.117190
#
#
# Mechanical properties :
#
#
# Convention : Reuss Voigt Hill
#
# Bulk Modulus (GPa) = 34.51737 48.48119 41.49928
# Shear Modulus (GPa) = -53.70959 24.23892 -14.73534
#
# Velocity S-wave (km/s) = -4.79578 3.22174 -2.51196
# Velocity P-wave (km/s) = 3.98560 5.88218 3.05901
#
# Compressibility (1/GPa) = 0.02897092
#
# Stress axis : x y z
#
# Youngs Moduli (GPa) = 93.27827 75.16561 79.06573
#
# Poissons Ratio (x) = -0.10024 0.11305
# Poissons Ratio (y) = -0.12439 0.29685
# Poissons Ratio (z) = 0.13337 0.28220
#
# Static dielectric constant tensor:
#      x y z
#    x 2.030030 0.000000 -0.052470 
#    y 0.000000 2.045460 0.000000 
#    z -0.052470 0.000000 2.026310 
# 
# From -- ./inp_files/129367.got.cif
#   From: 2010.05.17/outbox.cif.g08.bks.cpg/sg15_65_cif.got.tgz:129367.got - 2010.06.03 18:47:42.
