data_PCOD9305357
_publ_section_title
;
Structure prediction by ZEFSAII (Michael W. Deem and Ramdas Pophale) SiO2 
 PCOD9305357
Probable space group: C 2/C
;
_chemical_formula_sum "Si O2"
_cell_formula_units_Z 56
_cell_length_a 27.435710
_cell_length_b 8.767848
_cell_length_c 11.605178
_cell_angle_alpha 90.000000
_cell_angle_beta 66.587602
_cell_angle_gamma 90.000000
_cell_volume 2561.810051
_symmetry_space_group_name_H-M "C 2/C"
_symmetry_group_IT_number 15
_symmetry_cell_setting 'monoclinic'
loop_
_space_group_symop_operation_xyz
x,y,z
-x,y,1/2-z
-x,-y,-z
x,-y,1/2+z
1/2+x,1/2+y,z
1/2-x,1/2+y,1/2-z
1/2-x,1/2-y,-z
1/2+x,1/2-y,1/2+z
loop_
_atom_site_type_symbol
_atom_site_label
_atom_site_fract_x
_atom_site_fract_y
_atom_site_fract_z
Si Si1 0.919121 0.257062 0.968739
Si Si2 0.133694 0.070114 0.680900
Si Si3 0.527665 0.648034 0.919434
Si Si4 0.377926 0.229954 0.767415
Si Si5 0.186847 0.513730 0.301702
Si Si6 0.413915 0.881788 0.468789
Si Si7 0.259143 0.279085 0.358796
O O1 0.879039 0.157434 0.927769
O O2 0.920881 0.437596 0.947271
O O3 0.979073 0.207644 0.890064
O O4 0.904731 0.239657 0.117969
O O5 0.079846 0.097439 0.802589
O O6 0.183176 0.143550 0.699369
O O7 0.146204 0.889887 0.665803
O O8 0.500000 0.500000 0.000000
O O9 0.546264 0.781774 0.990301
O O10 0.340734 0.082622 0.775858
O O11 0.414675 0.185304 0.839856
O O12 0.143371 0.613920 0.411504
O O13 0.212563 0.384267 0.356271
O O14 0.233914 0.621321 0.214470
O O15 0.250000 0.250000 0.500000
#
# Coordination Sequence:
#
# PCOD9305357 Si02
#       7
#     8   8   8   8   8   8   8
#     4  11  25  44  70 104 142 192 240 292 370 433
#     4  12  25  46  71 103 146 187 238 304 353 430
#     4  12  24  47  72 103 143 190 242 292 367 427
#     4  11  24  44  71 103 144 182 242 295 357 439
#     4  11  24  46  71 106 141 187 240 300 368 426
#     4  11  25  45  73 102 149 185 241 300 359 434
#     4  12  25  45  73 102 140 186 242 295 363 431
#
# _framework density 21.859542999999999
#
# number of rings (size 3 to 8) (size 9 to 14) (size 15 to 20)
#    0.000    0.571    2.857    6.000    2.000    1.714 
#    2.571    2.857    0.000    0.000    0.000    0.000 
#    0.000    0.000    0.000    0.000    0.000    0.000 
#
# Total GULP energy -156359.051018 kJ/mol
# GULP energy per Si atom -5584.251822 kJ/mol
# Density = 2.180979 g / cm^3
# Si number density = 21.859543 Si / 1000 Ang^3
#
#
#
# Elastic Constant Matrix: (Units=GPa)
#
#
# Indices 1 2 3 4 5 6 
#
# 1 66.5832 0.6650 -3.9221 0.0000 4.5956 0.0000
# 2 0.6650 91.6635 35.8537 0.0000 9.2250 0.0000
# 3 -3.9221 35.8537 49.5810 0.0000 5.2494 0.0000
# 4 0.0000 0.0000 0.0000 22.6036 0.0000 -0.9638
# 5 4.5956 9.2250 5.2494 0.0000 38.9771 0.0000
# 6 0.0000 0.0000 0.0000 -0.9638 0.0000 47.3499
#
#
#
# Elastic Compliance Matrix: (Units=1/GPa)
#
#
# Indices 1 2 3 4 5 6 
#
# 1 0.015267 -0.000656 0.001883 0.000000 -0.001898 0.000000
# 2 -0.000656 0.015420 -0.010981 0.000000 -0.002093 0.000000
# 3 0.001883 -0.010981 0.028412 0.000000 -0.001450 0.000000
# 4 0.000000 0.000000 0.000000 0.044279 0.000000 0.000901
# 5 -0.001898 -0.002093 -0.001450 0.000000 0.026571 0.000000
# 6 0.000000 0.000000 0.000000 0.000901 0.000000 0.021138
#
#
# Mechanical properties :
#
#
# Convention : Reuss Voigt Hill
#
# Bulk Modulus (GPa) = 25.25795 30.33565 27.79680
# Shear Modulus (GPa) = 27.20458 33.46819 30.33638
#
# Velocity S-wave (km/s) = 3.53160 3.91712 3.72934
# Velocity P-wave (km/s) = 5.31125 5.86226 5.59354
#
# Compressibility (1/GPa) = 0.03959149
#
# Stress axis : x y z
#
# Youngs Moduli (GPa) = 65.49941 64.85051 35.19606
#
# Poissons Ratio (x) = 0.04257 -0.06629
# Poissons Ratio (y) = 0.04299 0.38649
# Poissons Ratio (z) = -0.12336 0.71213
#
# Static dielectric constant tensor:
#      x y z
#    x 1.750780 0.000000 -0.003530 
#    y 0.000000 1.918230 0.000000 
#    z -0.003530 0.000000 1.813060 
# 
# From -- ./inp_files/121849.got.cif
#   From: 2010.05.17/outbox.cif.g08.bks.cpg/sg15_61_cif.got.tgz:121849.got - 2010.06.03 18:47:42.
