data_PCOD9305842
_publ_section_title
;
Structure prediction by ZEFSAII (Michael W. Deem and Ramdas Pophale) SiO2 
 PCOD9305842
Probable space group: C 2/C
;
_chemical_formula_sum "Si O2"
_cell_formula_units_Z 48
_cell_length_a 8.625829
_cell_length_b 20.188260
_cell_length_c 12.668859
_cell_angle_alpha 90.000000
_cell_angle_beta 79.779072
_cell_angle_gamma 90.000000
_cell_volume 2171.151288
_symmetry_space_group_name_H-M "C 2/C"
_symmetry_group_IT_number 15
_symmetry_cell_setting 'monoclinic'
loop_
_space_group_symop_operation_xyz
x,y,z
-x,y,1/2-z
-x,-y,-z
x,-y,1/2+z
1/2+x,1/2+y,z
1/2-x,1/2+y,1/2-z
1/2-x,1/2-y,-z
1/2+x,1/2-y,1/2+z
loop_
_atom_site_type_symbol
_atom_site_label
_atom_site_fract_x
_atom_site_fract_y
_atom_site_fract_z
Si Si1 0.677382 0.007615 0.247591
Si Si2 0.091531 0.065602 0.454687
Si Si3 0.382433 0.208274 0.546012
Si Si4 0.338426 0.619960 0.822822
Si Si5 0.920074 0.359364 0.645845
Si Si6 0.586250 0.313879 0.630076
O O1 0.500000 0.982096 0.250000
O O2 0.763396 0.043139 0.137960
O O3 0.647117 0.066138 0.335557
O O4 0.784356 0.947291 0.272175
O O5 0.135871 0.101903 0.557754
O O6 0.978139 0.115820 0.405762
O O7 0.000000 0.000000 0.500000
O O8 0.250000 0.250000 0.500000
O O9 0.298076 0.174677 0.656481
O O10 0.453382 0.152926 0.460046
O O11 0.522246 0.257333 0.561132
O O12 0.500000 0.643663 0.750000
O O13 0.769779 0.315806 0.633721
O O14 0.000000 0.344358 0.750000
O O15 0.500000 0.303081 0.750000
#
# Coordination Sequence:
#
# PCOD9305842 Si02
#       6
#     8   8   8   8   8   8
#     4  11  25  45  76 111 146 189 245 303 372 434
#     4  12  24  45  76 108 146 191 241 304 368 432
#     4  12  27  48  68 108 152 195 248 294 361 439
#     4  12  26  48  73 106 151 193 241 309 363 431
#     4  11  24  47  78 105 145 193 243 305 364 437
#     4  12  25  47  75 104 146 197 245 293 369 443
#
# _framework density 22.108086
#
# number of rings (size 3 to 8) (size 9 to 14) (size 15 to 20)
#    0.000    0.333    5.000    4.500    0.000    6.667 
#    3.000    0.000    0.000    0.000    0.000    0.000 
#    0.000    0.000    0.000    0.000    0.000    0.000 
#
# Total GULP energy -134279.993320 kJ/mol
# GULP energy per Si atom -5594.999722 kJ/mol
# Density = 2.205777 g / cm^3
# Si number density = 22.108086 Si / 1000 Ang^3
#
#
#
# Elastic Constant Matrix: (Units=GPa)
#
#
# Indices 1 2 3 4 5 6 
#
# 1 125.8428 21.4392 29.8013 0.0000 -12.1090 0.0000
# 2 21.4392 80.5336 19.5999 0.0000 -11.9997 0.0000
# 3 29.8013 19.5999 74.3750 0.0000 -28.7806 0.0000
# 4 0.0000 0.0000 0.0000 41.4592 0.0000 -17.1701
# 5 -12.1090 -11.9997 -28.7806 0.0000 52.0349 0.0000
# 6 0.0000 0.0000 0.0000 -17.1701 0.0000 53.1886
#
#
#
# Elastic Compliance Matrix: (Units=1/GPa)
#
#
# Indices 1 2 3 4 5 6 
#
# 1 0.008973 -0.001620 -0.003187 0.000000 -0.000048 0.000000
# 2 -0.001620 0.013645 -0.002386 0.000000 0.001450 0.000000
# 3 -0.003187 -0.002386 0.018895 0.000000 0.009159 0.000000
# 4 0.000000 0.000000 0.000000 0.027842 0.000000 0.008988
# 5 -0.000048 0.001450 0.009159 0.000000 0.024607 0.000000
# 6 0.000000 0.000000 0.000000 0.008988 0.000000 0.021702
#
#
# Mechanical properties :
#
#
# Convention : Reuss Voigt Hill
#
# Bulk Modulus (GPa) = 36.86259 46.93689 41.89974
# Shear Modulus (GPa) = 35.94723 43.33061 39.63892
#
# Velocity S-wave (km/s) = 4.03671 4.43193 4.23893
# Velocity P-wave (km/s) = 6.19974 6.88956 6.55373
#
# Compressibility (1/GPa) = 0.02712777
#
# Stress axis : x y z
#
# Youngs Moduli (GPa) = 111.45161 73.28610 52.92305
#
# Poissons Ratio (x) = 0.11874 0.16866
# Poissons Ratio (y) = 0.18057 0.12625
# Poissons Ratio (z) = 0.35519 0.17482
#
# Static dielectric constant tensor:
#      x y z
#    x 1.899790 0.000000 0.022180 
#    y 0.000000 1.844810 0.000000 
#    z 0.022180 0.000000 1.790110 
# 
# From -- ./inp_files/79787.got.cif
#   From: 2010.05.17/outbox.cif.g08.bks.cpg/sg15_40_cif.got.tgz:79787.got - 2010.06.03 18:47:42.
