data_PCOD9305432
_publ_section_title
;
Structure prediction by ZEFSAII (Michael W. Deem and Ramdas Pophale) SiO2 
 PCOD9305432
Probable space group: C 2/C
;
_chemical_formula_sum "Si O2"
_cell_formula_units_Z 40
_cell_length_a 14.865086
_cell_length_b 10.104704
_cell_length_c 17.380161
_cell_angle_alpha 90.000000
_cell_angle_beta 41.801335
_cell_angle_gamma 90.000000
_cell_volume 1740.112977
_symmetry_space_group_name_H-M "C 2/C"
_symmetry_group_IT_number 15
_symmetry_cell_setting 'monoclinic'
loop_
_space_group_symop_operation_xyz
x,y,z
-x,y,1/2-z
-x,-y,-z
x,-y,1/2+z
1/2+x,1/2+y,z
1/2-x,1/2+y,1/2-z
1/2-x,1/2-y,-z
1/2+x,1/2-y,1/2+z
loop_
_atom_site_type_symbol
_atom_site_label
_atom_site_fract_x
_atom_site_fract_y
_atom_site_fract_z
Si Si1 0.946196 0.357008 0.945520
Si Si2 0.266014 0.536939 0.482722
Si Si3 0.664436 0.078755 0.816063
Si Si4 0.845742 0.253893 0.325554
Si Si5 0.972598 0.052915 0.603997
O O1 0.065176 0.461650 0.852370
O O2 0.998730 0.208985 0.905692
O O3 0.820146 0.404752 0.974225
O O4 0.894413 0.373566 0.065706
O O5 0.204876 0.623064 0.590657
O O6 0.259814 0.628850 0.410441
O O7 0.419922 0.512237 0.407463
O O8 0.664715 0.199193 0.755032
O O9 0.817604 0.029171 0.723260
O O10 0.000000 0.232464 0.250000
O O11 0.000000 0.000000 0.500000
#
# Coordination Sequence:
#
# PCOD9305432 Si02
#       5
#     8   8   8   8   8
#     4  11  28  48  73 109 155 194 250 303 382 440
#     4  11  26  47  72 111 143 195 248 305 369 450
#     4  11  27  46  74 111 146 197 241 315 365 447
#     4  11  24  44  77 102 150 192 248 296 382 442
#     4  12  28  46  76 109 148 195 252 310 375 439
#
# _framework density 22.987013000000001
#
# number of rings (size 3 to 8) (size 9 to 14) (size 15 to 20)
#    0.000    0.800    4.000    0.600   14.000    0.000 
#    0.000    0.000    0.000    0.000    0.000    0.000 
#    0.000    0.000    0.000    0.000    0.000    0.000 
#
# Total GULP energy -112065.601769 kJ/mol
# GULP energy per Si atom -5603.280088 kJ/mol
# Density = 2.293469 g / cm^3
# Si number density = 22.987013 Si / 1000 Ang^3
#
#
#
# Elastic Constant Matrix: (Units=GPa)
#
#
# Indices 1 2 3 4 5 6 
#
# 1 99.9938 33.9900 41.1004 0.0000 -18.9751 0.0000
# 2 33.9900 91.4894 30.8043 0.0000 2.4953 0.0000
# 3 41.1004 30.8043 106.2950 0.0000 -21.3149 0.0000
# 4 0.0000 0.0000 0.0000 29.0728 0.0000 5.7067
# 5 -18.9751 2.4953 -21.3149 0.0000 37.6433 0.0000
# 6 0.0000 0.0000 0.0000 5.7067 0.0000 35.1315
#
#
#
# Elastic Compliance Matrix: (Units=1/GPa)
#
#
# Indices 1 2 3 4 5 6 
#
# 1 0.013708 -0.004245 -0.002965 0.000000 0.005513 0.000000
# 2 -0.004245 0.013767 -0.003339 0.000000 -0.004943 0.000000
# 3 -0.002965 -0.003339 0.012710 0.000000 0.005924 0.000000
# 4 0.000000 0.000000 0.000000 0.035529 0.000000 -0.005771
# 5 0.005513 -0.004943 0.005924 0.000000 0.033026 0.000000
# 6 0.000000 0.000000 0.000000 -0.005771 0.000000 0.029402
#
#
# Mechanical properties :
#
#
# Convention : Reuss Voigt Hill
#
# Bulk Modulus (GPa) = 52.39424 56.61862 54.50643
# Shear Modulus (GPa) = 30.19284 33.16175 31.67730
#
# Velocity S-wave (km/s) = 3.62812 3.80232 3.71624
# Velocity P-wave (km/s) = 6.35559 6.63031 6.49440
#
# Compressibility (1/GPa) = 0.01908607
#
# Stress axis : x y z
#
# Youngs Moduli (GPa) = 72.94831 72.64005 78.67969
#
# Poissons Ratio (x) = 0.30836 0.23328
# Poissons Ratio (y) = 0.30966 0.26274
# Poissons Ratio (z) = 0.21628 0.24257
#
# Static dielectric constant tensor:
#      x y z
#    x 1.860730 0.000000 0.004380 
#    y 0.000000 1.863630 0.000000 
#    z 0.004380 0.000000 1.815580 
# 
# From -- ./inp_files/203792.got.cif
#   From: 2010.05.17/outbox.cif.g08.bks.cpg/sg15_102_cif.got.tgz:203792.got - 2010.06.03 18:47:42.
