data_PCOD9305287
_publ_section_title
;
Structure prediction by ZEFSAII (Michael W. Deem and Ramdas Pophale) SiO2 
 PCOD9305287
Probable space group: C 2/C
;
_chemical_formula_sum "Si O2"
_cell_formula_units_Z 36
_cell_length_a 5.144814
_cell_length_b 23.624857
_cell_length_c 14.469250
_cell_angle_alpha 90.000000
_cell_angle_beta 71.477460
_cell_angle_gamma 90.000000
_cell_volume 1667.570747
_symmetry_space_group_name_H-M "C 2/C"
_symmetry_group_IT_number 15
_symmetry_cell_setting 'monoclinic'
loop_
_space_group_symop_operation_xyz
x,y,z
-x,y,1/2-z
-x,-y,-z
x,-y,1/2+z
1/2+x,1/2+y,z
1/2-x,1/2+y,1/2-z
1/2-x,1/2-y,-z
1/2+x,1/2-y,1/2+z
loop_
_atom_site_type_symbol
_atom_site_label
_atom_site_fract_x
_atom_site_fract_y
_atom_site_fract_z
Si Si1 0.000000 0.583240 0.750000
Si Si2 0.279383 0.034432 0.964790
Si Si3 0.110824 0.307017 0.329442
Si Si4 0.681516 0.337993 0.530241
Si Si5 0.919356 0.295859 0.860306
O O1 0.867811 0.547083 0.847846
O O2 0.813910 0.629993 0.715574
O O3 0.228091 0.095101 0.017881
O O4 0.500000 0.000000 0.000000
O O5 0.000000 0.000000 0.000000
O O6 0.339150 0.270256 0.354423
O O7 0.000000 0.276085 0.250000
O O8 0.850274 0.313919 0.424658
O O9 0.362609 0.323024 0.570305
O O10 0.838138 0.311295 0.599067
O O11 0.000000 0.317798 0.750000
#
# Coordination Sequence:
#
# PCOD9305287 Si02
#       5
#     4   8   8   8   8
#     4   8  22  46  72 104 128 184 230 292 338 420
#     4  11  24  49  72 101 133 180 238 294 345 399
#     4   9  20  42  70  97 136 174 233 273 338 413
#     4  11  24  44  67 100 137 177 230 288 341 405
#     4  12  24  42  63 102 144 183 218 271 349 420
#
# _framework density 21.588287999999999
#
# number of rings (size 3 to 8) (size 9 to 14) (size 15 to 20)
#    0.667    0.889    0.000    4.667    0.000    2.667 
#   20.000    0.000    0.000    0.000    0.000    0.000 
#    0.000    0.000    0.000    0.000    0.000    0.000 
#
# Total GULP energy -100589.844553 kJ/mol
# GULP energy per Si atom -5588.324697 kJ/mol
# Density = 2.153915 g / cm^3
# Si number density = 21.588288 Si / 1000 Ang^3
#
#
#
# Elastic Constant Matrix: (Units=GPa)
#
#
# Indices 1 2 3 4 5 6 
#
# 1 90.2344 48.4249 28.8874 0.0000 -5.2754 0.0000
# 2 48.4249 145.1194 65.3199 0.0000 -0.4341 0.0000
# 3 28.8874 65.3199 154.1034 0.0000 -7.1044 0.0000
# 4 0.0000 0.0000 0.0000 45.1508 0.0000 -0.5256
# 5 -5.2754 -0.4341 -7.1044 0.0000 31.9164 0.0000
# 6 0.0000 0.0000 0.0000 -0.5256 0.0000 12.7562
#
#
#
# Elastic Compliance Matrix: (Units=1/GPa)
#
#
# Indices 1 2 3 4 5 6 
#
# 1 0.013706 -0.004268 -0.000665 0.000000 0.002059 0.000000
# 2 -0.004268 0.009860 -0.003441 0.000000 -0.001337 0.000000
# 3 -0.000665 -0.003441 0.008149 0.000000 0.001657 0.000000
# 4 0.000000 0.000000 0.000000 0.022159 0.000000 0.000913
# 5 0.002059 -0.001337 0.001657 0.000000 0.032023 0.000000
# 6 0.000000 0.000000 0.000000 0.000913 0.000000 0.078431
#
#
# Mechanical properties :
#
#
# Convention : Reuss Voigt Hill
#
# Bulk Modulus (GPa) = 66.81636 74.96905 70.89271
# Shear Modulus (GPa) = 26.87245 34.41967 30.64606
#
# Velocity S-wave (km/s) = 3.53196 3.99729 3.77180
# Velocity P-wave (km/s) = 6.90293 7.49043 7.20267
#
# Compressibility (1/GPa) = 0.01496639
#
# Stress axis : x y z
#
# Youngs Moduli (GPa) = 72.96044 101.42144 122.71821
#
# Poissons Ratio (x) = 0.43286 0.08164
# Poissons Ratio (y) = 0.31139 0.42226
# Poissons Ratio (z) = 0.04854 0.34898
#
# Static dielectric constant tensor:
#      x y z
#    x 1.786440 0.000000 0.009620 
#    y 0.000000 1.790550 0.000000 
#    z 0.009620 0.000000 1.823030 
# 
# From -- ./inp_files/128885.got.cif
#   From: 2010.05.17/outbox.cif.g08.bks.cpg/sg15_65_cif.got.tgz:128885.got - 2010.06.03 18:47:42.
