data_PCOD9305846
_publ_section_title
;
Structure prediction by ZEFSAII (Michael W. Deem and Ramdas Pophale) SiO2 
 PCOD9305846
Probable space group: C 2/C
;
_chemical_formula_sum "Si O2"
_cell_formula_units_Z 40
_cell_length_a 9.697730
_cell_length_b 15.318711
_cell_length_c 13.263327
_cell_angle_alpha 90.000000
_cell_angle_beta 118.721415
_cell_angle_gamma 90.000000
_cell_volume 1727.936777
_symmetry_space_group_name_H-M "C 2/C"
_symmetry_group_IT_number 15
_symmetry_cell_setting 'monoclinic'
loop_
_space_group_symop_operation_xyz
x,y,z
-x,y,1/2-z
-x,-y,-z
x,-y,1/2+z
1/2+x,1/2+y,z
1/2-x,1/2+y,1/2-z
1/2-x,1/2-y,-z
1/2+x,1/2-y,1/2+z
loop_
_atom_site_type_symbol
_atom_site_label
_atom_site_fract_x
_atom_site_fract_y
_atom_site_fract_z
Si Si1 0.567607 0.766169 0.966415
Si Si2 0.114128 0.080417 0.018316
Si Si3 0.186969 0.980505 0.333547
Si Si4 0.290177 0.848588 0.776136
Si Si5 0.381687 0.834580 0.297399
O O1 0.511473 0.666157 0.956534
O O2 0.470574 0.820271 0.851063
O O3 0.750000 0.750000 0.000000
O O4 0.546614 0.810989 0.067438
O O5 0.214017 0.055511 0.955186
O O6 0.221959 0.108155 0.150381
O O7 0.000000 0.000000 0.000000
O O8 0.266621 0.914569 0.282846
O O9 0.000000 0.981380 0.250000
O O10 0.250851 0.077828 0.344235
O O11 0.200196 0.757130 0.760632
O O12 0.500000 0.858543 0.250000
#
# Coordination Sequence:
#
# PCOD9305846 Si02
#       5
#     8   8   8   8   8
#     4  11  25  51  76 113 158 212 278 333 410 488
#     4  11  24  47  80 116 155 211 272 332 408 492
#     4  12  24  49  80 114 161 216 268 328 417 491
#     4  11  27  45  81 115 159 210 272 337 412 480
#     4  11  27  48  72 116 161 206 270 341 405 489
#
# _framework density 23.148994999999999
#
# number of rings (size 3 to 8) (size 9 to 14) (size 15 to 20)
#    0.000    0.800    4.000    1.800    2.800    5.600 
#    7.200    0.000    0.000    0.000    0.000    0.000 
#    0.000    0.000    0.000    0.000    0.000    0.000 
#
# Total GULP energy -111897.051336 kJ/mol
# GULP energy per Si atom -5594.852567 kJ/mol
# Density = 2.309631 g / cm^3
# Si number density = 23.148995 Si / 1000 Ang^3
#
#
#
# Elastic Constant Matrix: (Units=GPa)
#
#
# Indices 1 2 3 4 5 6 
#
# 1 148.9251 83.0062 75.0665 0.0000 -9.7066 0.0000
# 2 83.0062 170.8686 43.7687 0.0000 6.8309 0.0000
# 3 75.0665 43.7687 122.9025 0.0000 -4.8595 0.0000
# 4 0.0000 0.0000 0.0000 44.0830 0.0000 -1.2941
# 5 -9.7066 6.8309 -4.8595 0.0000 42.0863 0.0000
# 6 0.0000 0.0000 0.0000 -1.2941 0.0000 30.5448
#
#
#
# Elastic Compliance Matrix: (Units=1/GPa)
#
#
# Indices 1 2 3 4 5 6 
#
# 1 0.012446 -0.004674 -0.005821 0.000000 0.002957 0.000000
# 2 -0.004674 0.008268 -0.000187 0.000000 -0.002441 0.000000
# 3 -0.005821 -0.000187 0.011760 0.000000 0.000046 0.000000
# 4 0.000000 0.000000 0.000000 0.022713 0.000000 0.000962
# 5 0.002957 -0.002441 0.000046 0.000000 0.024844 0.000000
# 6 0.000000 0.000000 0.000000 0.000962 0.000000 0.032780
#
#
# Mechanical properties :
#
#
# Convention : Reuss Voigt Hill
#
# Bulk Modulus (GPa) = 89.98529 94.04209 92.01369
# Shear Modulus (GPa) = 36.26423 39.39980 37.83202
#
# Velocity S-wave (km/s) = 3.96227 4.13002 4.04701
# Velocity P-wave (km/s) = 7.73882 7.96590 7.85318
#
# Compressibility (1/GPa) = 0.01111293
#
# Stress axis : x y z
#
# Youngs Moduli (GPa) = 80.34483 120.94557 85.03439
#
# Poissons Ratio (x) = 0.56524 0.49496
# Poissons Ratio (y) = 0.37549 0.01586
# Poissons Ratio (z) = 0.46766 0.02256
#
# Static dielectric constant tensor:
#      x y z
#    x 1.875830 0.000000 0.013310 
#    y 0.000000 1.863600 0.000000 
#    z 0.013310 0.000000 1.907480 
# 
# From -- ./inp_files/141764.got.cif
#   From: 2010.05.17/outbox.cif.g08.bks.cpg/sg15_71_cif.got.tgz:141764.got - 2010.06.03 18:47:42.
