data_PCOD9305975
_publ_section_title
;
Structure prediction by ZEFSAII (Michael W. Deem and Ramdas Pophale) SiO2 
 PCOD9305975
Probable space group: C 2/C
;
_chemical_formula_sum "Si O2"
_cell_formula_units_Z 32
_cell_length_a 12.090750
_cell_length_b 6.571353
_cell_length_c 19.177866
_cell_angle_alpha 90.000000
_cell_angle_beta 55.201015
_cell_angle_gamma 90.000000
_cell_volume 1251.225954
_symmetry_space_group_name_H-M "C 2/C"
_symmetry_group_IT_number 15
_symmetry_cell_setting 'monoclinic'
loop_
_space_group_symop_operation_xyz
x,y,z
-x,y,1/2-z
-x,-y,-z
x,-y,1/2+z
1/2+x,1/2+y,z
1/2-x,1/2+y,1/2-z
1/2-x,1/2-y,-z
1/2+x,1/2-y,1/2+z
loop_
_atom_site_type_symbol
_atom_site_label
_atom_site_fract_x
_atom_site_fract_y
_atom_site_fract_z
Si Si1 0.946100 0.091798 0.192784
Si Si2 0.658583 0.977176 0.953119
Si Si3 0.332630 0.102871 0.899187
Si Si4 0.682955 0.227330 0.210045
O O1 0.052743 0.235388 0.115593
O O2 0.000000 0.143660 0.250000
O O3 0.799254 0.157660 0.221015
O O4 0.069124 0.846713 0.295661
O O5 0.707830 0.745874 0.923648
O O6 0.745071 0.114239 0.868936
O O7 0.693888 0.023274 0.021106
O O8 0.500000 0.000000 0.000000
O O9 0.359517 0.959487 0.823634
#
# Coordination Sequence:
#
# PCOD9305975 Si02
#       4
#     8   8   8   8
#     4  12  26  48  72 110 147 197 244 300 368 435
#     4  11  24  50  76 109 146 192 245 308 367 432
#     4  11  26  50  74 110 147 191 251 300 367 439
#     4  12  27  48  75 108 150 196 245 305 365 438
#
# _framework density 25.574919000000001
#
# number of rings (size 3 to 8) (size 9 to 14) (size 15 to 20)
#    0.000    0.500    5.000    2.250    0.000    6.000 
#    0.000    0.000    0.000    0.000    0.000    0.000 
#    0.000    0.000    0.000    0.000    0.000    0.000 
#
# Total GULP energy -89413.306585 kJ/mol
# GULP energy per Si atom -5588.331662 kJ/mol
# Density = 2.551671 g / cm^3
# Si number density = 25.574919 Si / 1000 Ang^3
#
#
#
# Elastic Constant Matrix: (Units=GPa)
#
#
# Indices 1 2 3 4 5 6 
#
# 1 141.2929 88.1410 56.2692 0.0000 0.4033 0.0000
# 2 88.1410 156.3907 53.1669 0.0000 -10.7838 -0.0001
# 3 56.2692 53.1669 82.6124 0.0000 3.7616 0.0000
# 4 0.0000 0.0000 0.0000 50.0901 0.0000 -1.5889
# 5 0.4033 -10.7838 3.7616 0.0000 49.3767 0.0000
# 6 0.0000 -0.0001 0.0000 -1.5889 0.0000 50.4765
#
#
#
# Elastic Compliance Matrix: (Units=1/GPa)
#
#
# Indices 1 2 3 4 5 6 
#
# 1 0.012400 -0.005367 -0.004951 0.000000 -0.000896 0.000000
# 2 -0.005367 0.010753 -0.003385 0.000000 0.002650 0.000000
# 3 -0.004951 -0.003385 0.017749 0.000000 -0.002051 0.000000
# 4 0.000000 0.000000 0.000000 0.019984 0.000000 0.000629
# 5 -0.000896 0.002650 -0.002051 0.000000 0.020995 0.000000
# 6 0.000000 0.000000 0.000000 0.000629 0.000000 0.019831
#
#
# Mechanical properties :
#
#
# Convention : Reuss Voigt Hill
#
# Bulk Modulus (GPa) = 74.10093 86.16114 80.13103
# Shear Modulus (GPa) = 37.42076 42.16992 39.79534
#
# Velocity S-wave (km/s) = 3.82931 4.06504 3.94893
# Velocity P-wave (km/s) = 6.97054 7.46965 7.22440
#
# Compressibility (1/GPa) = 0.01349511
#
# Stress axis : x y z
#
# Youngs Moduli (GPa) = 80.64611 92.99992 56.34199
#
# Poissons Ratio (x) = 0.49915 0.27894
# Poissons Ratio (y) = 0.43284 0.19072
# Poissons Ratio (z) = 0.39927 0.31481
#
# Static dielectric constant tensor:
#      x y z
#    x 2.000760 0.000000 -0.051390 
#    y 0.000000 2.056000 0.000000 
#    z -0.051390 0.000000 2.169640 
# 
# From -- ./inp_files/266884.got.cif
#   From: 2010.05.17/outbox.cif.g08.bks.cpg/sg15_134_cif.got.tgz:266884.got - 2010.06.03 18:47:42.
