data_PCOD9305562
_publ_section_title
;
Structure prediction by ZEFSAII (Michael W. Deem and Ramdas Pophale) SiO2 
 PCOD9305562
Probable space group: C 2/C
;
_chemical_formula_sum "Si O2"
_cell_formula_units_Z 52
_cell_length_a 16.721723
_cell_length_b 16.080300
_cell_length_c 17.247954
_cell_angle_alpha 90.000000
_cell_angle_beta 31.716150
_cell_angle_gamma 90.000000
_cell_volume 2438.148717
_symmetry_space_group_name_H-M "C 2/C"
_symmetry_group_IT_number 15
_symmetry_cell_setting 'monoclinic'
loop_
_space_group_symop_operation_xyz
x,y,z
-x,y,1/2-z
-x,-y,-z
x,-y,1/2+z
1/2+x,1/2+y,z
1/2-x,1/2+y,1/2-z
1/2-x,1/2-y,-z
1/2+x,1/2-y,1/2+z
loop_
_atom_site_type_symbol
_atom_site_label
_atom_site_fract_x
_atom_site_fract_y
_atom_site_fract_z
Si Si1 0.565276 0.492049 0.857951
Si Si2 0.870707 0.515873 0.668998
Si Si3 0.000000 0.065540 0.750000
Si Si4 0.208479 0.817906 0.686578
Si Si5 0.249293 0.201020 0.580820
Si Si6 0.899873 0.670482 0.176887
Si Si7 0.513629 0.837374 0.148886
O O1 0.722270 0.541440 0.743076
O O2 0.475699 0.520006 0.853925
O O3 0.620962 0.399815 0.788485
O O4 0.500000 0.500000 0.000000
O O5 0.849927 0.426338 0.728620
O O6 0.000000 0.500000 0.500000
O O7 0.929447 0.588340 0.674330
O O8 0.855551 0.122083 0.849575
O O9 0.338133 0.802269 0.643990
O O10 0.311403 0.830586 0.524831
O O11 0.084115 0.746137 0.783810
O O12 0.250000 0.250000 0.500000
O O13 0.174634 0.264964 0.702690
O O14 0.419172 0.177154 0.465635
O O15 0.500000 0.855808 0.250000
#
# Coordination Sequence:
#
# PCOD9305562 Si02
#       7
#     8   8   4   8   8   8   8
#     4  11  28  49  76 109 149 196 251 304 384 443
#     4  11  24  50  72 103 142 197 249 302 370 452
#     4  12  28  44  78 104 156 186 242 318 362 444
#     4  11  27  48  76 106 147 200 254 309 374 456
#     4  12  25  42  67 111 146 183 235 295 368 446
#     4  11  24  45  74  99 150 188 241 289 374 442
#     4  12  27  47  75 108 147 197 258 322 377 441
#
# _framework density 21.327656999999999
#
# number of rings (size 3 to 8) (size 9 to 14) (size 15 to 20)
#    0.000    0.615    4.615    2.308    9.692    2.462 
#    0.000    0.000    0.000    0.000    0.000    0.000 
#    0.000    0.000    0.000    0.000    0.000    0.000 
#
# Total GULP energy -145218.111066 kJ/mol
# GULP energy per Si atom -5585.311964 kJ/mol
# Density = 2.127911 g / cm^3
# Si number density = 21.327657 Si / 1000 Ang^3
#
#
#
# Elastic Constant Matrix: (Units=GPa)
#
#
# Indices 1 2 3 4 5 6 
#
# 1 109.0000 55.4548 51.6212 0.0003 25.4843 -0.0001
# 2 55.4548 105.1015 38.2537 -0.0002 17.6635 0.0001
# 3 51.6212 38.2537 114.5912 0.0006 31.8828 -0.0003
# 4 0.0003 -0.0002 0.0006 21.5415 -0.0003 0.1339
# 5 25.4843 17.6635 31.8828 -0.0003 40.7756 0.0002
# 6 -0.0001 0.0001 -0.0003 0.1339 0.0002 41.9595
#
#
#
# Elastic Compliance Matrix: (Units=1/GPa)
#
#
# Indices 1 2 3 4 5 6 
#
# 1 0.014756 -0.005814 -0.003631 0.000000 -0.003864 0.000000
# 2 -0.005814 0.013306 -0.001572 0.000000 -0.000901 0.000000
# 3 -0.003631 -0.001572 0.012865 0.000000 -0.007109 0.000000
# 4 0.000000 0.000000 0.000000 0.046423 0.000001 -0.000148
# 5 -0.003864 -0.000901 -0.007109 0.000001 0.032889 0.000000
# 6 0.000000 0.000000 0.000000 -0.000148 0.000000 0.023833
#
#
# Mechanical properties :
#
#
# Convention : Reuss Voigt Hill
#
# Bulk Modulus (GPa) = 52.93256 68.81687 60.87472
# Shear Modulus (GPa) = 29.00182 33.07953 31.04067
#
# Velocity S-wave (km/s) = 3.69158 3.94257 3.81913
# Velocity P-wave (km/s) = 6.56071 7.28434 6.93198
#
# Compressibility (1/GPa) = 0.01889196
#
# Stress axis : x y z
#
# Youngs Moduli (GPa) = 67.77134 75.15369 77.72995
#
# Poissons Ratio (x) = 0.43698 0.28223
# Poissons Ratio (y) = 0.39406 0.12219
# Poissons Ratio (z) = 0.24607 0.11814
#
# Static dielectric constant tensor:
#      x y z
#    x 1.767970 0.000000 0.015540 
#    y 0.000000 1.925750 0.000000 
#    z 0.015540 0.000000 1.814650 
# 
# From -- ./inp_files/155439.got.cif
#   From: 2010.05.17/outbox.cif.g08.bks.cpg/sg15_78_cif.got.tgz:155439.got - 2010.06.03 18:47:42.
