data_PCOD9305383
_publ_section_title
;
Structure prediction by ZEFSAII (Michael W. Deem and Ramdas Pophale) SiO2 
 PCOD9305383
Probable space group: C 2/C
;
_chemical_formula_sum "Si O2"
_cell_formula_units_Z 48
_cell_length_a 9.036618
_cell_length_b 28.672788
_cell_length_c 7.097030
_cell_angle_alpha 90.000000
_cell_angle_beta 89.625227
_cell_angle_gamma 90.000000
_cell_volume 1838.836848
_symmetry_space_group_name_H-M "C 2/C"
_symmetry_group_IT_number 15
_symmetry_cell_setting 'monoclinic'
loop_
_space_group_symop_operation_xyz
x,y,z
-x,y,1/2-z
-x,-y,-z
x,-y,1/2+z
1/2+x,1/2+y,z
1/2-x,1/2+y,1/2-z
1/2-x,1/2-y,-z
1/2+x,1/2-y,1/2+z
loop_
_atom_site_type_symbol
_atom_site_label
_atom_site_fract_x
_atom_site_fract_y
_atom_site_fract_z
Si Si1 0.110652 0.488450 0.872768
Si Si2 0.777526 0.764910 0.216080
Si Si3 0.252042 0.855485 0.411362
Si Si4 0.654942 0.434618 0.147286
Si Si5 0.073711 0.311233 0.522570
Si Si6 0.748082 0.894923 0.719779
O O1 0.070937 0.502153 0.620159
O O2 0.260620 0.517122 0.869165
O O3 0.148871 0.434149 0.829967
O O4 0.870747 0.725029 0.315139
O O5 0.640286 0.780300 0.349988
O O6 0.750000 0.750000 0.000000
O O7 0.844485 0.816168 0.189438
O O8 0.255679 0.899254 0.271734
O O9 0.413500 0.833096 0.464214
O O10 0.179070 0.867879 0.609511
O O11 0.500000 0.437696 0.250000
O O12 0.645547 0.417308 0.933583
O O13 0.152957 0.358204 0.598141
#
# Coordination Sequence:
#
# PCOD9305383 Si02
#       6
#     8   8   8   8   8   8
#     4  12  25  47  81 125 158 212 284 345 406 503
#     4  11  24  44  72 119 162 207 263 348 431 484
#     4  12  26  49  81 115 155 218 276 342 422 495
#     4  12  31  53  76 119 172 220 274 345 432 509
#     4  11  25  45  78 120 158 207 276 353 408 500
#     4  12  26  48  83 119 164 211 284 343 412 505
#
# _framework density 26.103459000000001
#
# number of rings (size 3 to 8) (size 9 to 14) (size 15 to 20)
#    0.000    0.333    5.000    3.000    2.333    1.333 
#    3.000    1.667    0.000    0.000    0.000    0.000 
#    0.000    0.000    0.000    0.000    0.000    0.000 
#
# Total GULP energy -133765.197958 kJ/mol
# GULP energy per Si atom -5573.549915 kJ/mol
# Density = 2.604405 g / cm^3
# Si number density = 26.103459 Si / 1000 Ang^3
#
#
#
# Elastic Constant Matrix: (Units=GPa)
#
#
# Indices 1 2 3 4 5 6 
#
# 1 131.9966 74.1436 70.7176 0.0000 -16.3928 0.0000
# 2 74.1436 143.3432 26.0829 0.0000 -18.5845 0.0000
# 3 70.7176 26.0829 182.1182 0.0000 -19.9427 0.0000
# 4 0.0000 0.0000 0.0000 47.6512 0.0000 4.7786
# 5 -16.3928 -18.5845 -19.9427 0.0000 37.4936 0.0000
# 6 0.0000 0.0000 0.0000 4.7786 0.0000 12.4722
#
#
#
# Elastic Compliance Matrix: (Units=1/GPa)
#
#
# Indices 1 2 3 4 5 6 
#
# 1 0.013312 -0.006040 -0.004242 0.000000 0.000570 0.000000
# 2 -0.006040 0.010282 0.001212 0.000000 0.003100 0.000000
# 3 -0.004242 0.001212 0.007249 0.000000 0.002602 0.000000
# 4 0.000000 0.000000 0.000000 0.021824 0.000000 -0.008362
# 5 0.000570 0.003100 0.002602 0.000000 0.029842 0.000000
# 6 0.000000 0.000000 0.000000 -0.008362 0.000000 0.083382
#
#
# Mechanical properties :
#
#
# Convention : Reuss Voigt Hill
#
# Bulk Modulus (GPa) = 78.71139 88.81625 83.76382
# Shear Modulus (GPa) = 26.55851 38.62433 32.59142
#
# Velocity S-wave (km/s) = 3.19318 3.85081 3.53731
# Velocity P-wave (km/s) = 6.61924 7.33964 6.98872
#
# Compressibility (1/GPa) = 0.01270464
#
# Stress axis : x y z
#
# Youngs Moduli (GPa) = 75.12145 97.26045 137.94403
#
# Poissons Ratio (x) = 0.58742 0.58510
# Poissons Ratio (y) = 0.45371 -0.16722
# Poissons Ratio (z) = 0.31863 -0.11790
#
# Static dielectric constant tensor:
#      x y z
#    x 0.180720 0.000000 0.582120 
#    y 0.000000 2.109750 0.000000 
#    z 0.582120 0.000000 2.645620 
# 
# From -- ./inp_files/14039.got.cif
#   From: 2010.05.17/outbox.cif.g08.bks.cpg/sg15_8_cif.got.tgz:14039.got - 2010.06.03 18:47:42.
