data_PCOD9305558
_publ_section_title
;
Structure prediction by ZEFSAII (Michael W. Deem and Ramdas Pophale) SiO2 
 PCOD9305558
Probable space group: C 2/C
;
_chemical_formula_sum "Si O2"
_cell_formula_units_Z 36
_cell_length_a 10.274708
_cell_length_b 24.656431
_cell_length_c 5.480705
_cell_angle_alpha 90.000000
_cell_angle_beta 92.950584
_cell_angle_gamma 90.000000
_cell_volume 1386.628118
_symmetry_space_group_name_H-M "C 2/C"
_symmetry_group_IT_number 15
_symmetry_cell_setting 'monoclinic'
loop_
_space_group_symop_operation_xyz
x,y,z
-x,y,1/2-z
-x,-y,-z
x,-y,1/2+z
1/2+x,1/2+y,z
1/2-x,1/2+y,1/2-z
1/2-x,1/2-y,-z
1/2+x,1/2-y,1/2+z
loop_
_atom_site_type_symbol
_atom_site_label
_atom_site_fract_x
_atom_site_fract_y
_atom_site_fract_z
Si Si1 0.166288 0.833764 0.565599
Si Si2 0.000000 0.085690 0.750000
Si Si3 0.227297 0.531506 0.808548
Si Si4 0.348594 0.222832 0.700174
Si Si5 0.392802 0.874109 0.929508
O O1 0.056476 0.874525 0.463430
O O2 0.263523 0.817839 0.356066
O O3 0.111702 0.775000 0.637401
O O4 0.256737 0.862108 0.776672
O O5 0.121498 0.050135 0.672569
O O6 0.203925 0.491358 0.035306
O O7 0.138290 0.582766 0.865644
O O8 0.250000 0.250000 0.500000
O O9 0.437510 0.184276 0.539239
O O10 0.500000 0.893879 0.750000
#
# Coordination Sequence:
#
# PCOD9305558 Si02
#       5
#     8   4   8   8   8
#     4  11  26  45  74 115 155 204 259 314 396 484
#     4  12  26  52  82 114 162 206 262 334 404 482
#     4  12  29  52  82 116 156 210 277 343 406 466
#     4  11  24  45  74 110 157 204 260 311 392 478
#     4  12  26  49  79 108 159 207 266 331 397 475
#
# _framework density 25.962259
#
# number of rings (size 3 to 8) (size 9 to 14) (size 15 to 20)
#    0.000    0.444    4.444    2.667    3.111    6.222 
#    0.000    0.000    0.000    0.000    0.000    0.000 
#    0.000    0.000    0.000    0.000    0.000    0.000 
#
# Total GULP energy -100900.482252 kJ/mol
# GULP energy per Si atom -5605.582347 kJ/mol
# Density = 2.590317 g / cm^3
# Si number density = 25.962259 Si / 1000 Ang^3
#
#
#
# Elastic Constant Matrix: (Units=GPa)
#
#
# Indices 1 2 3 4 5 6 
#
# 1 89.3211 27.2999 22.8168 0.0000 -10.0618 0.0000
# 2 27.2999 133.6206 53.5496 0.0000 -15.5825 0.0000
# 3 22.8168 53.5496 117.0219 0.0000 -9.5075 0.0000
# 4 0.0000 0.0000 0.0000 83.5544 0.0000 -2.1220
# 5 -10.0618 -15.5825 -9.5075 0.0000 63.8387 0.0000
# 6 0.0000 0.0000 0.0000 -2.1220 0.0000 35.5878
#
#
#
# Elastic Compliance Matrix: (Units=1/GPa)
#
#
# Indices 1 2 3 4 5 6 
#
# 1 0.012256 -0.001762 -0.001479 0.000000 0.001281 0.000000
# 2 -0.001762 0.009589 -0.003924 0.000000 0.001478 0.000000
# 3 -0.001479 -0.003924 0.010662 0.000000 0.000397 0.000000
# 4 0.000000 0.000000 0.000000 0.011986 0.000000 0.000715
# 5 0.001281 0.001478 0.000397 0.000000 0.016286 0.000000
# 6 0.000000 0.000000 0.000000 0.000715 0.000000 0.028142
#
#
# Mechanical properties :
#
#
# Convention : Reuss Voigt Hill
#
# Bulk Modulus (GPa) = 55.01721 60.81069 57.91395
# Shear Modulus (GPa) = 45.74076 52.34933 49.04504
#
# Velocity S-wave (km/s) = 4.20195 4.49526 4.35108
# Velocity P-wave (km/s) = 6.69172 7.10048 6.89913
#
# Compressibility (1/GPa) = 0.01817613
#
# Stress axis : x y z
#
# Youngs Moduli (GPa) = 81.59078 104.28696 93.79216
#
# Poissons Ratio (x) = 0.18373 0.13876
# Poissons Ratio (y) = 0.14374 0.36807
# Poissons Ratio (z) = 0.12071 0.40925
#
# Static dielectric constant tensor:
#      x y z
#    x 2.296130 0.000000 0.080360 
#    y 0.000000 2.042590 0.000000 
#    z 0.080360 0.000000 2.066700 
# 
# From -- ./inp_files/4256.got.cif
#   From: 2010.05.17/outbox.cif.g08.bks.cpg/sg15_3_cif.got.tgz:4256.got - 2010.06.03 18:47:42.
