data_PCOD9305617
_publ_section_title
;
Structure prediction by ZEFSAII (Michael W. Deem and Ramdas Pophale) SiO2 
 PCOD9305617
Probable space group: C 2/C
;
_chemical_formula_sum "Si O2"
_cell_formula_units_Z 36
_cell_length_a 10.228460
_cell_length_b 11.316321
_cell_length_c 14.449889
_cell_angle_alpha 90.000000
_cell_angle_beta 115.577073
_cell_angle_gamma 90.000000
_cell_volume 1508.652218
_symmetry_space_group_name_H-M "C 2/C"
_symmetry_group_IT_number 15
_symmetry_cell_setting 'monoclinic'
loop_
_space_group_symop_operation_xyz
x,y,z
-x,y,1/2-z
-x,-y,-z
x,-y,1/2+z
1/2+x,1/2+y,z
1/2-x,1/2+y,1/2-z
1/2-x,1/2-y,-z
1/2+x,1/2-y,1/2+z
loop_
_atom_site_type_symbol
_atom_site_label
_atom_site_fract_x
_atom_site_fract_y
_atom_site_fract_z
Si Si1 0.708230 0.890026 0.785754
Si Si2 0.190152 0.360117 0.576257
Si Si3 0.510655 0.478997 0.894768
Si Si4 0.000000 0.814118 0.250000
Si Si5 0.876172 0.631049 0.640851
O O1 0.643108 0.904785 0.662373
O O2 0.637563 0.771587 0.802989
O O3 0.670796 0.002005 0.837793
O O4 0.881161 0.889880 0.828975
O O5 0.333825 0.431168 0.588729
O O6 0.084127 0.368974 0.456099
O O7 0.245291 0.225532 0.605890
O O8 0.483003 0.599653 0.831346
O O9 0.500000 0.500000 0.000000
O O10 0.000000 0.668440 0.750000
#
# Coordination Sequence:
#
# PCOD9305617 Si02
#       5
#     8   8   8   4   8
#     4  12  24  47  73 106 150 190 250 314 368 451
#     4  11  25  45  76 104 144 205 246 308 384 448
#     4  12  25  48  76 107 150 201 252 311 380 446
#     4  12  28  48  74 114 152 198 254 314 376 452
#     4  11  24  46  69 106 144 189 251 305 375 448
#
# _framework density 23.862358
#
# number of rings (size 3 to 8) (size 9 to 14) (size 15 to 20)
#    0.000    0.444    5.556    2.667    3.111    1.778 
#    0.000    0.000    0.000    0.000    0.000    0.000 
#    0.000    0.000    0.000    0.000    0.000    0.000 
#
# Total GULP energy -100844.673567 kJ/mol
# GULP energy per Si atom -5602.481865 kJ/mol
# Density = 2.380805 g / cm^3
# Si number density = 23.862358 Si / 1000 Ang^3
#
#
#
# Elastic Constant Matrix: (Units=GPa)
#
#
# Indices 1 2 3 4 5 6 
#
# 1 60.8933 30.5767 14.9378 0.0000 -2.1690 0.0000
# 2 30.5767 148.3566 31.5100 0.0000 -3.0097 0.0000
# 3 14.9378 31.5100 167.0244 0.0000 -12.1483 0.0000
# 4 0.0000 0.0000 0.0000 10.6658 0.0000 28.9614
# 5 -2.1690 -3.0097 -12.1483 0.0000 41.2022 0.0000
# 6 0.0000 0.0000 0.0000 28.9614 0.0000 -4.0755
#
#
#
# Elastic Compliance Matrix: (Units=1/GPa)
#
#
# Indices 1 2 3 4 5 6 
#
# 1 0.018476 -0.003599 -0.000942 0.000000 0.000432 0.000000
# 2 -0.003599 0.007724 -0.001132 0.000000 0.000041 0.000000
# 3 -0.000942 -0.001132 0.006413 0.000000 0.001759 0.000000
# 4 0.000000 0.000000 0.000000 0.004620 0.000000 0.032828
# 5 0.000432 0.000041 0.001759 0.000000 0.024815 0.000000
# 6 0.000000 0.000000 0.000000 0.032828 0.000000 -0.012090
#
#
# Mechanical properties :
#
#
# Convention : Reuss Voigt Hill
#
# Bulk Modulus (GPa) = 47.02400 58.92483 52.97441
# Shear Modulus (GPa) = 73.10778 29.50851 51.30815
#
# Velocity S-wave (km/s) = 5.54110 3.52037 4.64202
# Velocity P-wave (km/s) = 7.79022 6.42427 7.13998
#
# Compressibility (1/GPa) = 0.02126574
#
# Stress axis : x y z
#
# Youngs Moduli (GPa) = 54.12469 129.47315 155.93565
#
# Poissons Ratio (x) = 0.46599 0.14689
# Poissons Ratio (y) = 0.19480 0.17656
# Poissons Ratio (z) = 0.05098 0.14659
#
# Static dielectric constant tensor:
#      x y z
#    x 1.867290 0.000000 0.018000 
#    y 0.000000 1.890220 0.000000 
#    z 0.018000 0.000000 1.942310 
# 
# From -- ./inp_files/142032.got.cif
#   From: 2010.05.17/outbox.cif.g08.bks.cpg/sg15_72_cif.got.tgz:142032.got - 2010.06.03 18:47:42.
