data_PCOD9305435
_publ_section_title
;
Structure prediction by ZEFSAII (Michael W. Deem and Ramdas Pophale) SiO2 
 PCOD9305435
Probable space group: C 2/C
;
_chemical_formula_sum "Si O2"
_cell_formula_units_Z 44
_cell_length_a 16.861497
_cell_length_b 5.235610
_cell_length_c 23.980124
_cell_angle_alpha 90.000000
_cell_angle_beta 63.244514
_cell_angle_gamma 90.000000
_cell_volume 1890.318997
_symmetry_space_group_name_H-M "C 2/C"
_symmetry_group_IT_number 15
_symmetry_cell_setting 'monoclinic'
loop_
_space_group_symop_operation_xyz
x,y,z
-x,y,1/2-z
-x,-y,-z
x,-y,1/2+z
1/2+x,1/2+y,z
1/2-x,1/2+y,1/2-z
1/2-x,1/2-y,-z
1/2+x,1/2-y,1/2+z
loop_
_atom_site_type_symbol
_atom_site_label
_atom_site_fract_x
_atom_site_fract_y
_atom_site_fract_z
Si Si1 0.008175 0.011853 0.135218
Si Si2 0.188707 0.001482 0.512755
Si Si3 0.121145 0.294432 0.759844
Si Si4 0.758816 0.425939 0.678869
Si Si5 0.152725 0.922003 0.897810
Si Si6 0.500000 0.839533 0.250000
O O1 0.962195 0.755665 0.173207
O O2 0.939321 0.087695 0.107737
O O3 0.800861 0.349607 0.128019
O O4 0.004111 0.187693 0.191060
O O5 0.250000 0.250000 0.500000
O O6 0.250000 0.750000 0.500000
O O7 0.144661 0.019828 0.465440
O O8 0.107690 0.004348 0.581896
O O9 0.194563 0.424551 0.775217
O O10 0.160538 0.032046 0.722520
O O11 0.086049 0.478674 0.724122
O O12 0.785727 0.153446 0.645147
#
# Coordination Sequence:
#
# PCOD9305435 Si02
#       6
#     8   8   8   8   8   4
#     4  11  27  49  72 110 150 205 248 306 386 448
#     4  12  30  51  77 111 147 198 259 324 372 439
#     4  11  25  45  71 112 156 196 250 309 383 456
#     4  11  24  44  77 112 146 197 248 299 376 449
#     4  11  25  49  79 107 151 199 250 304 372 458
#     4  12  26  44  74 112 156 196 244 320 378 458
#
# _framework density 23.276492999999999
#
# number of rings (size 3 to 8) (size 9 to 14) (size 15 to 20)
#    0.000    0.727    1.818    4.364    7.636    2.909 
#    0.000    4.545    0.000    0.000    0.000    0.000 
#    0.000    0.000    0.000    0.000    0.000    0.000 
#
# Total GULP energy -123150.079157 kJ/mol
# GULP energy per Si atom -5597.730871 kJ/mol
# Density = 2.322351 g / cm^3
# Si number density = 23.276493 Si / 1000 Ang^3
#
#
#
# Elastic Constant Matrix: (Units=GPa)
#
#
# Indices 1 2 3 4 5 6 
#
# 1 145.3808 64.9036 79.5335 0.0008 -20.0238 0.0046
# 2 64.9036 126.4730 43.1704 -0.0026 -12.6496 0.0050
# 3 79.5335 43.1704 107.7798 -0.0084 -4.4326 0.0014
# 4 0.0008 -0.0026 -0.0084 30.0803 -0.0001 4.7594
# 5 -20.0238 -12.6496 -4.4326 -0.0001 63.4821 0.0018
# 6 0.0046 0.0050 0.0014 4.7594 0.0018 47.5662
#
#
#
# Elastic Compliance Matrix: (Units=1/GPa)
#
#
# Indices 1 2 3 4 5 6 
#
# 1 0.013555 -0.003811 -0.008355 -0.000003 0.002933 0.000000
# 2 -0.003811 0.010390 -0.001318 0.000001 0.000776 -0.000001
# 3 -0.008355 -0.001318 0.015898 0.000005 -0.001788 0.000000
# 4 -0.000003 0.000001 0.000005 0.033779 0.000000 -0.003380
# 5 0.002933 0.000776 -0.001788 0.000000 0.016707 -0.000001
# 6 0.000000 -0.000001 0.000000 -0.003380 -0.000001 0.021362
#
#
# Mechanical properties :
#
#
# Convention : Reuss Voigt Hill
#
# Bulk Modulus (GPa) = 77.66903 83.87208 80.77056
# Shear Modulus (GPa) = 34.97740 41.02747 38.00243
#
# Velocity S-wave (km/s) = 3.88066 4.20290 4.04499
# Velocity P-wave (km/s) = 7.31573 7.72423 7.52275
#
# Compressibility (1/GPa) = 0.01287514
#
# Stress axis : x y z
#
# Youngs Moduli (GPa) = 73.77573 96.24840 62.90078
#
# Poissons Ratio (x) = 0.36677 0.52556
# Poissons Ratio (y) = 0.28113 0.08288
# Poissons Ratio (z) = 0.61642 0.12682
#
# Static dielectric constant tensor:
#      x y z
#    x 1.923950 0.000000 0.022100 
#    y 0.000000 1.903780 -0.000010 
#    z 0.022100 -0.000010 1.869320 
# 
# From -- ./inp_files/275736.got.cif
#   From: 2010.05.17/outbox.cif.g08.bks.cpg/sg15_138_cif.got.tgz:275736.got - 2010.06.03 18:47:42.
