data_PCOD9305494
_publ_section_title
;
Structure prediction by ZEFSAII (Michael W. Deem and Ramdas Pophale) SiO2 
 PCOD9305494
Probable space group: C 2/C
;
_chemical_formula_sum "Si O2"
_cell_formula_units_Z 36
_cell_length_a 11.227014
_cell_length_b 9.067249
_cell_length_c 17.112730
_cell_angle_alpha 90.000000
_cell_angle_beta 68.560603
_cell_angle_gamma 90.000000
_cell_volume 1621.502692
_symmetry_space_group_name_H-M "C 2/C"
_symmetry_group_IT_number 15
_symmetry_cell_setting 'monoclinic'
loop_
_space_group_symop_operation_xyz
x,y,z
-x,y,1/2-z
-x,-y,-z
x,-y,1/2+z
1/2+x,1/2+y,z
1/2-x,1/2+y,1/2-z
1/2-x,1/2-y,-z
1/2+x,1/2-y,1/2+z
loop_
_atom_site_type_symbol
_atom_site_label
_atom_site_fract_x
_atom_site_fract_y
_atom_site_fract_z
Si Si1 0.133431 0.418112 0.455490
Si Si2 0.339652 0.081616 0.375320
Si Si3 0.098077 0.075569 0.655474
Si Si4 0.587826 0.642012 0.363851
Si Si5 0.000000 0.656746 0.750000
O O1 0.197977 0.426104 0.525178
O O2 0.251873 0.468845 0.371883
O O3 0.091388 0.258928 0.433761
O O4 0.000000 0.500000 0.500000
O O5 0.396452 0.247340 0.356533
O O6 0.222198 0.062402 0.344253
O O7 0.434547 0.952265 0.327884
O O8 0.000000 0.054118 0.750000
O O9 0.029897 0.971247 0.607915
O O10 0.584581 0.737118 0.284636
#
# Coordination Sequence:
#
# PCOD9305494 Si02
#       5
#     8   8   8   8   4
#     4  11  25  48  72 104 146 186 236 288 353 423
#     4  11  26  45  71 101 144 188 228 296 353 413
#     4  11  24  45  70 104 141 182 233 295 346 412
#     4  11  25  43  70 105 138 182 244 280 351 428
#     4  12  24  42  70 104 136 190 232 288 356 420
#
# _framework density 22.201629000000001
#
# number of rings (size 3 to 8) (size 9 to 14) (size 15 to 20)
#    0.000    0.889    4.444    2.667    6.222    4.444 
#    4.000    0.000    0.000    0.000    0.000    0.000 
#    0.000    0.000    0.000    0.000    0.000    0.000 
#
# Total GULP energy -100333.163193 kJ/mol
# GULP energy per Si atom -5574.064622 kJ/mol
# Density = 2.215110 g / cm^3
# Si number density = 22.201629 Si / 1000 Ang^3
#
#
#
# Elastic Constant Matrix: (Units=GPa)
#
#
# Indices 1 2 3 4 5 6 
#
# 1 145.1171 56.8108 39.4664 0.0000 -9.7688 0.0000
# 2 56.8108 71.8621 9.3860 0.0000 -18.8726 0.0000
# 3 39.4664 9.3860 87.8428 0.0000 -10.6975 0.0000
# 4 0.0000 0.0000 0.0000 29.4739 0.0000 6.8793
# 5 -9.7688 -18.8726 -10.6975 0.0000 44.5356 0.0000
# 6 0.0000 0.0000 0.0000 6.8793 0.0000 46.6080
#
#
#
# Elastic Compliance Matrix: (Units=1/GPa)
#
#
# Indices 1 2 3 4 5 6 
#
# 1 0.011545 -0.009179 -0.004503 0.000000 -0.002439 0.000000
# 2 -0.009179 0.023025 0.002686 0.000000 0.008389 0.000000
# 3 -0.004503 0.002686 0.013534 0.000000 0.003401 0.000000
# 4 0.000000 0.000000 0.000000 0.035139 0.000000 -0.005187
# 5 -0.002439 0.008389 0.003401 0.000000 0.026291 0.000000
# 6 0.000000 0.000000 0.000000 -0.005187 0.000000 0.022221
#
#
# Mechanical properties :
#
#
# Convention : Reuss Voigt Hill
#
# Bulk Modulus (GPa) = 38.29954 57.34979 47.82467
# Shear Modulus (GPa) = 30.77826 37.40076 34.08951
#
# Velocity S-wave (km/s) = 3.72735 4.10883 3.92273
# Velocity P-wave (km/s) = 5.98435 6.95683 6.48883
#
# Compressibility (1/GPa) = 0.02610998
#
# Stress axis : x y z
#
# Youngs Moduli (GPa) = 86.61693 43.43174 73.88537
#
# Poissons Ratio (x) = 0.39868 0.33272
# Poissons Ratio (y) = 0.79509 -0.19842
# Poissons Ratio (z) = 0.39006 -0.11664
#
# Static dielectric constant tensor:
#      x y z
#    x 1.916720 0.000000 0.009320 
#    y 0.000000 1.800380 0.000000 
#    z 0.009320 0.000000 1.865700 
# 
# From -- ./inp_files/195045.got.cif
#   From: 2010.05.17/outbox.cif.g08.bks.cpg/sg15_98_cif.got.tgz:195045.got - 2010.06.03 18:47:42.
