data_PCOD9305208
_publ_section_title
;
Structure prediction by ZEFSAII (Michael W. Deem and Ramdas Pophale) SiO2 
 PCOD9305208
Probable space group: C 2/C
;
_chemical_formula_sum "Si O2"
_cell_formula_units_Z 44
_cell_length_a 9.690999
_cell_length_b 26.793037
_cell_length_c 12.970853
_cell_angle_alpha 90.000000
_cell_angle_beta 139.409730
_cell_angle_gamma 90.000000
_cell_volume 2191.307402
_symmetry_space_group_name_H-M "C 2/C"
_symmetry_group_IT_number 15
_symmetry_cell_setting 'monoclinic'
loop_
_space_group_symop_operation_xyz
x,y,z
-x,y,1/2-z
-x,-y,-z
x,-y,1/2+z
1/2+x,1/2+y,z
1/2-x,1/2+y,1/2-z
1/2-x,1/2-y,-z
1/2+x,1/2-y,1/2+z
loop_
_atom_site_type_symbol
_atom_site_label
_atom_site_fract_x
_atom_site_fract_y
_atom_site_fract_z
Si Si1 0.741130 0.043714 0.935945
Si Si2 0.500000 0.390745 0.750000
Si Si3 0.310936 0.819200 0.803574
Si Si4 0.000000 0.617259 0.250000
Si Si5 0.320715 0.234649 0.923872
Si Si6 0.602374 0.563642 0.975972
Si Si7 0.000000 0.852358 0.250000
O O1 0.500000 0.047833 0.750000
O O2 0.798952 0.987999 0.010070
O O3 0.835215 0.078840 0.081499
O O4 0.895753 0.052695 0.925869
O O5 0.646309 0.355556 0.762415
O O6 0.498512 0.848703 0.850119
O O7 0.211675 0.783621 0.661613
O O8 0.437935 0.782669 0.950156
O O9 0.795370 0.584104 0.153179
O O10 0.177277 0.187016 0.812024
O O11 0.250000 0.250000 0.000000
O O12 0.560210 0.608644 0.873697
#
# Coordination Sequence:
#
# PCOD9305208 Si02
#       7
#     8   4   8   4   8   8   4
#     4  11  26  47  69 102 147 190 230 290 356 432
#     4  12  29  48  66 103 153 188 229 288 370 422
#     4  12  25  43  67 100 137 182 230 292 351 421
#     4  12  19  42  70  97 137 178 230 291 340 406
#     4  12  22  40  68  99 133 175 237 294 338 411
#     4  11  24  43  70 105 135 180 242 287 351 421
#     4  12  22  38  70 104 126 174 233 295 348 402
#
# _framework density 20.079336000000001
#
# number of rings (size 3 to 8) (size 9 to 14) (size 15 to 20)
#    0.000    0.364    8.182    0.545    2.545    0.727 
#    0.000    3.636    0.000    0.000    0.000    0.000 
#    0.000    0.000    0.000    0.000    0.000    0.000 
#
# Total GULP energy -122544.394578 kJ/mol
# GULP energy per Si atom -5570.199754 kJ/mol
# Density = 2.003363 g / cm^3
# Si number density = 20.079336 Si / 1000 Ang^3
#
#
#
# Elastic Constant Matrix: (Units=GPa)
#
#
# Indices 1 2 3 4 5 6 
#
# 1 89.7534 56.0298 47.5248 0.0000 17.0262 0.0000
# 2 56.0298 150.3501 67.6165 0.0000 -2.9493 0.0000
# 3 47.5248 67.6165 109.4630 0.0000 15.8142 0.0000
# 4 0.0000 0.0000 0.0000 43.9913 0.0000 -6.6210
# 5 17.0262 -2.9493 15.8142 0.0000 27.8726 0.0000
# 6 0.0000 0.0000 0.0000 -6.6210 0.0000 52.6270
#
#
#
# Elastic Compliance Matrix: (Units=1/GPa)
#
#
# Indices 1 2 3 4 5 6 
#
# 1 0.018101 -0.005615 -0.002949 0.000000 -0.009978 0.000000
# 2 -0.005615 0.011521 -0.005828 0.000000 0.007956 0.000000
# 3 -0.002949 -0.005828 0.015081 0.000000 -0.007372 0.000000
# 4 0.000000 0.000000 0.000000 0.023170 0.000000 0.002915
# 5 -0.009978 0.007956 -0.007372 0.000000 0.046997 0.000000
# 6 0.000000 0.000000 0.000000 0.002915 0.000000 0.019368
#
#
# Mechanical properties :
#
#
# Convention : Reuss Voigt Hill
#
# Bulk Modulus (GPa) = 62.81818 76.87873 69.84845
# Shear Modulus (GPa) = 29.70366 36.79121 33.24744
#
# Velocity S-wave (km/s) = 3.85036 4.28517 4.07357
# Velocity P-wave (km/s) = 7.14982 7.92806 7.54898
#
# Compressibility (1/GPa) = 0.01591896
#
# Stress axis : x y z
#
# Youngs Moduli (GPa) = 55.24448 86.79943 66.30976
#
# Poissons Ratio (x) = 0.48741 0.19553
# Poissons Ratio (y) = 0.31022 0.38645
# Poissons Ratio (z) = 0.16290 0.50586
#
# Static dielectric constant tensor:
#      x y z
#    x 1.690260 0.000000 -0.000050 
#    y 0.000000 1.754560 0.000000 
#    z -0.000050 0.000000 1.843630 
# 
# From -- ./inp_files/81600.got.cif
#   From: 2010.05.17/outbox.cif.g08.bks.cpg/sg15_41_cif.got.tgz:81600.got - 2010.06.03 18:47:42.
