data_PCOD9305934
_publ_section_title
;
Structure prediction by ZEFSAII (Michael W. Deem and Ramdas Pophale) SiO2 
 PCOD9305934
Probable space group: C 2/C
;
_chemical_formula_sum "Si O2"
_cell_formula_units_Z 48
_cell_length_a 11.433327
_cell_length_b 14.888162
_cell_length_c 13.601876
_cell_angle_alpha 90.000000
_cell_angle_beta 117.088359
_cell_angle_gamma 90.000000
_cell_volume 2061.348875
_symmetry_space_group_name_H-M "C 2/C"
_symmetry_group_IT_number 15
_symmetry_cell_setting 'monoclinic'
loop_
_space_group_symop_operation_xyz
x,y,z
-x,y,1/2-z
-x,-y,-z
x,-y,1/2+z
1/2+x,1/2+y,z
1/2-x,1/2+y,1/2-z
1/2-x,1/2-y,-z
1/2+x,1/2-y,1/2+z
loop_
_atom_site_type_symbol
_atom_site_label
_atom_site_fract_x
_atom_site_fract_y
_atom_site_fract_z
Si Si1 0.870960 0.647382 0.823910
Si Si2 0.870548 0.179059 0.635245
Si Si3 0.849371 0.977819 0.971527
Si Si4 0.868889 0.556272 0.267980
Si Si5 0.971425 0.288970 0.939631
Si Si6 0.256615 0.671550 0.923321
O O1 0.748439 0.689125 0.835492
O O2 0.864605 0.539486 0.820833
O O3 0.854006 0.673624 0.703406
O O4 0.991077 0.677264 0.937729
O O5 0.846422 0.093134 0.557806
O O6 0.902755 0.265001 0.579224
O O7 0.000000 0.165173 0.750000
O O8 0.762694 0.939185 0.847938
O O9 0.775831 0.071268 0.970294
O O10 0.000000 0.000000 0.000000
O O11 0.000000 0.555952 0.250000
O O12 0.886474 0.637304 0.350411
O O13 0.892241 0.196707 0.919547
O O14 0.250000 0.750000 0.000000
#
# Coordination Sequence:
#
# PCOD9305934 Si02
#       6
#     8   8   8   8   8   8
#     4  11  26  45  71 102 145 193 240 310 373 447
#     4  12  23  45  70 106 143 186 247 305 365 455
#     4  11  24  49  71 106 150 200 243 310 373 452
#     4  11  26  45  73 107 149 193 248 306 377 449
#     4  12  25  43  73 107 144 187 247 303 379 441
#     4  11  27  46  69 105 147 188 256 308 369 452
#
# _framework density 23.285723000000001
#
# number of rings (size 3 to 8) (size 9 to 14) (size 15 to 20)
#    0.000    0.667    3.333    3.500    9.333    0.000 
#    3.000    0.000    0.000    0.000    0.000    0.000 
#    0.000    0.000    0.000    0.000    0.000    0.000 
#
# Total GULP energy -134378.318414 kJ/mol
# GULP energy per Si atom -5599.096601 kJ/mol
# Density = 2.323272 g / cm^3
# Si number density = 23.285723 Si / 1000 Ang^3
#
#
#
# Elastic Constant Matrix: (Units=GPa)
#
#
# Indices 1 2 3 4 5 6 
#
# 1 69.8223 -0.6991 29.2729 0.0000 9.1298 0.0000
# 2 -0.6991 121.2483 88.6293 0.0000 -13.1851 0.0000
# 3 29.2729 88.6293 195.4868 0.0000 12.9307 0.0000
# 4 0.0000 0.0000 0.0000 56.4272 0.0000 -11.4006
# 5 9.1298 -13.1851 12.9307 0.0000 39.1202 0.0000
# 6 0.0000 0.0000 0.0000 -11.4006 0.0000 33.3174
#
#
#
# Elastic Compliance Matrix: (Units=1/GPa)
#
#
# Indices 1 2 3 4 5 6 
#
# 1 0.015980 0.002319 -0.003322 0.000000 -0.001850 0.000000
# 2 0.002319 0.014306 -0.007276 0.000000 0.006685 0.000000
# 3 -0.003322 -0.007276 0.009224 0.000000 -0.004726 0.000000
# 4 0.000000 0.000000 0.000000 0.019038 0.000000 0.006515
# 5 -0.001850 0.006685 -0.004726 0.000000 0.029809 0.000000
# 6 0.000000 0.000000 0.000000 0.006515 0.000000 0.032244
#
#
# Mechanical properties :
#
#
# Convention : Reuss Voigt Hill
#
# Bulk Modulus (GPa) = 43.56630 68.99594 56.28112
# Shear Modulus (GPa) = 34.52824 43.72990 39.12907
#
# Velocity S-wave (km/s) = 3.85490 4.33826 4.10370
# Velocity P-wave (km/s) = 6.20997 7.40192 6.83199
#
# Compressibility (1/GPa) = 0.02295352
#
# Stress axis : x y z
#
# Youngs Moduli (GPa) = 62.57851 69.89974 108.41163
#
# Poissons Ratio (x) = -0.16212 0.36015
# Poissons Ratio (y) = -0.14514 0.78876
# Poissons Ratio (z) = 0.20789 0.50857
#
# Static dielectric constant tensor:
#      x y z
#    x 1.952520 0.000000 0.016020 
#    y 0.000000 1.813110 0.000000 
#    z 0.016020 0.000000 1.863240 
# 
# From -- ./inp_files/144385.got.cif
#   From: 2010.05.17/outbox.cif.g08.bks.cpg/sg15_73_cif.got.tgz:144385.got - 2010.06.03 18:47:42.
