data_PCOD9305532
_publ_section_title
;
Structure prediction by ZEFSAII (Michael W. Deem and Ramdas Pophale) SiO2 
 PCOD9305532
Probable space group: C 2/C
;
_chemical_formula_sum "Si O2"
_cell_formula_units_Z 48
_cell_length_a 20.984047
_cell_length_b 9.251060
_cell_length_c 10.289832
_cell_angle_alpha 90.000000
_cell_angle_beta 99.741003
_cell_angle_gamma 90.000000
_cell_volume 1968.711495
_symmetry_space_group_name_H-M "C 2/C"
_symmetry_group_IT_number 15
_symmetry_cell_setting 'monoclinic'
loop_
_space_group_symop_operation_xyz
x,y,z
-x,y,1/2-z
-x,-y,-z
x,-y,1/2+z
1/2+x,1/2+y,z
1/2-x,1/2+y,1/2-z
1/2-x,1/2-y,-z
1/2+x,1/2-y,1/2+z
loop_
_atom_site_type_symbol
_atom_site_label
_atom_site_fract_x
_atom_site_fract_y
_atom_site_fract_z
Si Si1 0.032435 0.406949 0.396765
Si Si2 0.731304 0.057565 0.223746
Si Si3 0.556177 0.424177 0.933031
Si Si4 0.656536 0.078991 0.467006
Si Si5 0.172580 0.160209 0.640902
Si Si6 0.428395 0.706596 0.693486
O O1 0.028837 0.235506 0.407450
O O2 0.107536 0.448982 0.420871
O O3 0.000000 0.444379 0.250000
O O4 0.000000 0.500000 0.500000
O O5 0.707204 0.080713 0.364956
O O6 0.726962 0.213857 0.150043
O O7 0.797495 0.970931 0.266399
O O8 0.688551 0.952081 0.116672
O O9 0.566069 0.535139 0.819392
O O10 0.500000 0.500000 0.000000
O O11 0.629479 0.405088 0.012038
O O12 0.609724 0.219404 0.438980
O O13 0.116629 0.243194 0.701357
O O14 0.500000 0.757795 0.750000
#
# Coordination Sequence:
#
# PCOD9305532 Si02
#       6
#     8   8   8   8   8   8
#     4  12  26  45  76 110 150 194 243 308 380 445
#     4  11  27  48  73 105 147 199 244 298 361 442
#     4  12  25  45  72 110 149 189 249 309 373 441
#     4  11  25  47  73 106 144 193 245 298 367 438
#     4  11  27  47  70 105 147 192 248 299 368 435
#     4  11  24  45  73 104 148 190 241 309 373 436
#
# _framework density 24.381430000000002
#
# number of rings (size 3 to 8) (size 9 to 14) (size 15 to 20)
#    0.000    0.667    3.333    3.000    7.000    3.333 
#    0.000    0.000    0.000    0.000    0.000    0.000 
#    0.000    0.000    0.000    0.000    0.000    0.000 
#
# Total GULP energy -134071.445735 kJ/mol
# GULP energy per Si atom -5586.310239 kJ/mol
# Density = 2.432594 g / cm^3
# Si number density = 24.381430 Si / 1000 Ang^3
#
#
#
# Elastic Constant Matrix: (Units=GPa)
#
#
# Indices 1 2 3 4 5 6 
#
# 1 80.2260 21.1937 25.0493 0.0000 20.6921 0.0000
# 2 21.1937 162.6000 41.1333 0.0000 14.4765 0.0000
# 3 25.0493 41.1333 119.9146 0.0000 36.8386 0.0000
# 4 0.0000 0.0000 0.0000 34.5001 0.0000 10.2515
# 5 20.6921 14.4765 36.8386 0.0000 39.9390 0.0000
# 6 0.0000 0.0000 0.0000 10.2515 0.0000 23.2247
#
#
#
# Elastic Compliance Matrix: (Units=1/GPa)
#
#
# Indices 1 2 3 4 5 6 
#
# 1 0.014672 -0.001163 -0.000642 0.000000 -0.006587 0.000000
# 2 -0.001163 0.006832 -0.002128 0.000000 0.000089 0.000000
# 3 -0.000642 -0.002128 0.012369 0.000000 -0.010305 0.000000
# 4 0.000000 0.000000 0.000000 0.033361 0.000000 -0.014726
# 5 -0.006587 0.000089 -0.010305 0.000000 0.037924 0.000000
# 6 0.000000 0.000000 0.000000 -0.014726 0.000000 0.049558
#
#
# Mechanical properties :
#
#
# Convention : Reuss Voigt Hill
#
# Bulk Modulus (GPa) = 38.45262 59.72147 49.08704
# Shear Modulus (GPa) = 29.19699 37.89038 33.54368
#
# Velocity S-wave (km/s) = 3.46426 3.94644 3.71319
# Velocity P-wave (km/s) = 5.63977 6.73155 6.20970
#
# Compressibility (1/GPa) = 0.02600603
#
# Stress axis : x y z
#
# Youngs Moduli (GPa) = 68.15874 146.36851 80.84701
#
# Poissons Ratio (x) = 0.17029 0.05191
# Poissons Ratio (y) = 0.07930 0.17203
# Poissons Ratio (z) = 0.04376 0.31145
#
# Static dielectric constant tensor:
#      x y z
#    x 2.754970 0.000000 -0.041120 
#    y 0.000000 1.984340 0.000000 
#    z -0.041120 0.000000 1.970910 
# 
# From -- ./inp_files/116782.got.cif
#   From: 2010.05.17/outbox.cif.g08.bks.cpg/sg15_59_cif.got.tgz:116782.got - 2010.06.03 18:47:42.
