data_PCOD9305252
_publ_section_title
;
Structure prediction by ZEFSAII (Michael W. Deem and Ramdas Pophale) SiO2 
 PCOD9305252
Probable space group: C 2/C
;
_chemical_formula_sum "Si O2"
_cell_formula_units_Z 32
_cell_length_a 13.815420
_cell_length_b 12.639649
_cell_length_c 10.687703
_cell_angle_alpha 90.000000
_cell_angle_beta 38.154699
_cell_angle_gamma 90.000000
_cell_volume 1152.981004
_symmetry_space_group_name_H-M "C 2/C"
_symmetry_group_IT_number 15
_symmetry_cell_setting 'monoclinic'
loop_
_space_group_symop_operation_xyz
x,y,z
-x,y,1/2-z
-x,-y,-z
x,-y,1/2+z
1/2+x,1/2+y,z
1/2-x,1/2+y,1/2-z
1/2-x,1/2-y,-z
1/2+x,1/2-y,1/2+z
loop_
_atom_site_type_symbol
_atom_site_label
_atom_site_fract_x
_atom_site_fract_y
_atom_site_fract_z
Si Si1 0.101086 0.985737 0.772578
Si Si2 0.798451 0.703636 0.175928
Si Si3 0.104470 0.625643 0.766057
Si Si4 0.328361 0.112107 0.389213
O O1 0.204104 0.882358 0.691029
O O2 0.000000 0.975972 0.750000
O O3 0.221921 0.079578 0.615175
O O4 0.000000 0.000000 0.000000
O O5 0.760890 0.811819 0.143258
O O6 0.745904 0.687924 0.372930
O O7 0.978926 0.667149 0.994755
O O8 0.142275 0.502062 0.712161
O O9 0.000000 0.654145 0.750000
O O10 0.500000 0.150167 0.250000
#
# Coordination Sequence:
#
# PCOD9305252 Si02
#       4
#     8   8   8   8
#     4  12  25  43  76 114 147 189 256 312 376 442
#     4  12  25  45  74 110 150 192 254 308 371 439
#     4  11  24  43  75 111 145 195 256 306 365 448
#     4  11  25  49  77 106 149 203 248 308 379 448
#
# _framework density 27.754142000000002
#
# number of rings (size 3 to 8) (size 9 to 14) (size 15 to 20)
#    0.000    0.500    7.500    2.250    3.500    0.000 
#    0.000    1.250    0.000    0.000    0.000    0.000 
#    0.000    0.000    0.000    0.000    0.000    0.000 
#
# Total GULP energy -89773.675079 kJ/mol
# GULP energy per Si atom -5610.854692 kJ/mol
# Density = 2.769097 g / cm^3
# Si number density = 27.754142 Si / 1000 Ang^3
#
#
#
# Elastic Constant Matrix: (Units=GPa)
#
#
# Indices 1 2 3 4 5 6 
#
# 1 185.0671 58.9612 52.1008 0.0000 15.7780 0.0000
# 2 58.9612 125.4455 28.8258 0.0000 2.4546 0.0000
# 3 52.1008 28.8258 160.9810 0.0000 7.1559 0.0000
# 4 0.0000 0.0000 0.0000 25.5669 0.0000 -3.3463
# 5 15.7780 2.4546 7.1559 0.0000 53.2682 0.0000
# 6 0.0000 0.0000 0.0000 -3.3463 0.0000 55.9690
#
#
#
# Elastic Compliance Matrix: (Units=1/GPa)
#
#
# Indices 1 2 3 4 5 6 
#
# 1 0.006918 -0.002838 -0.001655 0.000000 -0.001696 0.000000
# 2 -0.002838 0.009480 -0.000802 0.000000 0.000512 0.000000
# 3 -0.001655 -0.000802 0.006909 0.000000 -0.000401 0.000000
# 4 0.000000 0.000000 0.000000 0.039422 0.000000 0.002357
# 5 -0.001696 0.000512 -0.000401 0.000000 0.019306 0.000000
# 6 0.000000 0.000000 0.000000 0.002357 0.000000 0.018008
#
#
# Mechanical properties :
#
#
# Convention : Reuss Voigt Hill
#
# Bulk Modulus (GPa) = 78.63740 83.47433 81.05587
# Shear Modulus (GPa) = 43.52685 49.06785 46.29735
#
# Velocity S-wave (km/s) = 3.96447 4.20926 4.08870
# Velocity P-wave (km/s) = 7.02504 7.33249 7.18041
#
# Compressibility (1/GPa) = 0.01271660
#
# Stress axis : x y z
#
# Youngs Moduli (GPa) = 144.54410 105.48803 144.73721
#
# Poissons Ratio (x) = 0.29939 0.23961
# Poissons Ratio (y) = 0.41023 0.11603
# Poissons Ratio (z) = 0.23929 0.08457
#
# Static dielectric constant tensor:
#      x y z
#    x 2.075040 0.000000 0.075260 
#    y 0.000000 2.150750 0.000000 
#    z 0.075260 0.000000 2.439240 
# 
# From -- ./inp_files/95947.got.cif
#   From: 2010.05.17/outbox.cif.g08.bks.cpg/sg15_48_cif.got.tgz:95947.got - 2010.06.03 18:47:42.
