data_PCOD9305264
_publ_section_title
;
Structure prediction by ZEFSAII (Michael W. Deem and Ramdas Pophale) SiO2 
 PCOD9305264
Probable space group: C 2/C
;
_chemical_formula_sum "Si O2"
_cell_formula_units_Z 40
_cell_length_a 38.820190
_cell_length_b 4.835362
_cell_length_c 18.910610
_cell_angle_alpha 90.000000
_cell_angle_beta 153.096227
_cell_angle_gamma 90.000000
_cell_volume 1606.217931
_symmetry_space_group_name_H-M "C 2/C"
_symmetry_group_IT_number 15
_symmetry_cell_setting 'monoclinic'
loop_
_space_group_symop_operation_xyz
x,y,z
-x,y,1/2-z
-x,-y,-z
x,-y,1/2+z
1/2+x,1/2+y,z
1/2-x,1/2+y,1/2-z
1/2-x,1/2-y,-z
1/2+x,1/2-y,1/2+z
loop_
_atom_site_type_symbol
_atom_site_label
_atom_site_fract_x
_atom_site_fract_y
_atom_site_fract_z
Si Si1 0.194932 0.334371 0.462404
Si Si2 0.857703 0.500117 0.915090
Si Si3 0.575003 0.501104 0.038400
Si Si4 0.799029 0.189197 0.429744
Si Si5 0.439438 0.807823 0.848660
O O1 0.250000 0.250000 0.500000
O O2 0.120911 0.494276 0.298292
O O3 0.233653 0.570274 0.580761
O O4 0.322919 0.430757 0.521545
O O5 0.877029 0.729061 0.892312
O O6 0.862712 0.659045 0.998808
O O7 0.770312 0.410220 0.746059
O O8 0.595099 0.378475 0.152071
O O9 0.590887 0.265183 0.009042
O O10 0.488332 0.610803 0.886662
O O11 0.500000 0.000000 0.000000
#
# Coordination Sequence:
#
# PCOD9305264 Si02
#       5
#     8   8   8   8   8
#     4  12  28  46  74 116 156 193 250 329 390 444
#     4  12  24  46  76 108 148 204 254 313 387 460
#     4  11  24  43  78 107 143 207 256 301 376 464
#     4  12  27  45  74 111 155 190 261 314 385 463
#     4  11  26  46  77 110 155 199 258 311 379 470
#
# _framework density 24.903222
#
# number of rings (size 3 to 8) (size 9 to 14) (size 15 to 20)
#    0.000    0.400    2.000    6.600    8.400    0.000 
#    0.000    1.000    4.400    0.000    0.000    0.000 
#    0.000    0.000    0.000    0.000    0.000    0.000 
#
# Total GULP energy -112144.272651 kJ/mol
# GULP energy per Si atom -5607.213633 kJ/mol
# Density = 2.484654 g / cm^3
# Si number density = 24.903222 Si / 1000 Ang^3
#
#
#
# Elastic Constant Matrix: (Units=GPa)
#
#
# Indices 1 2 3 4 5 6 
#
# 1 134.6574 91.4893 48.7093 0.0006 9.0509 0.0026
# 2 91.4893 215.5359 49.1966 -0.0004 4.2530 0.0038
# 3 48.7093 49.1966 77.0747 -0.0006 5.6824 0.0011
# 4 0.0006 -0.0004 -0.0006 53.6522 0.0003 -5.5051
# 5 9.0509 4.2530 5.6824 0.0003 23.7318 0.0008
# 6 0.0026 0.0038 0.0011 -5.5051 0.0008 93.1313
#
#
#
# Elastic Compliance Matrix: (Units=1/GPa)
#
#
# Indices 1 2 3 4 5 6 
#
# 1 0.012066 -0.003949 -0.004904 0.000000 -0.002720 0.000000
# 2 -0.003949 0.006723 -0.001851 0.000000 0.000744 0.000000
# 3 -0.004904 -0.001851 0.017400 0.000000 -0.001964 0.000000
# 4 0.000000 0.000000 0.000000 0.018752 0.000000 0.001108
# 5 -0.002720 0.000744 -0.001964 0.000000 0.043512 0.000000
# 6 0.000000 0.000000 0.000000 0.001108 0.000000 0.010803
#
#
# Mechanical properties :
#
#
# Convention : Reuss Voigt Hill
#
# Bulk Modulus (GPa) = 67.65232 89.56204 78.60718
# Shear Modulus (GPa) = 36.87534 49.96125 43.41830
#
# Velocity S-wave (km/s) = 3.85222 4.48394 4.18003
# Velocity P-wave (km/s) = 6.85647 7.92778 7.41151
#
# Compressibility (1/GPa) = 0.01478146
#
# Stress axis : x y z
#
# Youngs Moduli (GPa) = 82.87855 148.73282 57.47033
#
# Poissons Ratio (x) = 0.58727 0.28186
# Poissons Ratio (y) = 0.32725 0.10638
# Poissons Ratio (z) = 0.40648 0.27532
#
# Static dielectric constant tensor:
#      x y z
#    x 1.997780 0.000000 -0.010980 
#    y 0.000000 1.965760 0.000000 
#    z -0.010980 0.000000 2.008180 
# 
# From -- ./inp_files/220710.got.cif
#   From: 2010.05.17/outbox.cif.g08.bks.cpg/sg15_111_cif.got.tgz:220710.got - 2010.06.03 18:47:42.
