data_PCOD9305068
_publ_section_title
;
Structure prediction by ZEFSAII (Michael W. Deem and Ramdas Pophale) SiO2 
 PCOD9305068
Probable space group: C 2/C
;
_chemical_formula_sum "Si O2"
_cell_formula_units_Z 48
_cell_length_a 14.857330
_cell_length_b 14.393408
_cell_length_c 12.387319
_cell_angle_alpha 90.000000
_cell_angle_beta 46.363942
_cell_angle_gamma 90.000000
_cell_volume 1917.180200
_symmetry_space_group_name_H-M "C 2/C"
_symmetry_group_IT_number 15
_symmetry_cell_setting 'monoclinic'
loop_
_space_group_symop_operation_xyz
x,y,z
-x,y,1/2-z
-x,-y,-z
x,-y,1/2+z
1/2+x,1/2+y,z
1/2-x,1/2+y,1/2-z
1/2-x,1/2-y,-z
1/2+x,1/2-y,1/2+z
loop_
_atom_site_type_symbol
_atom_site_label
_atom_site_fract_x
_atom_site_fract_y
_atom_site_fract_z
Si Si1 0.143411 0.402983 0.393028
Si Si2 0.636745 0.901450 0.844902
Si Si3 0.702483 0.748790 0.186285
Si Si4 0.292033 0.850863 0.928193
Si Si5 0.447733 0.644748 0.444926
Si Si6 0.031523 0.076040 0.602516
O O1 0.189931 0.494817 0.295711
O O2 0.196736 0.310514 0.299295
O O3 0.170114 0.407496 0.497460
O O4 0.997583 0.402987 0.489807
O O5 0.723193 0.843388 0.850332
O O6 0.612591 0.854444 0.748968
O O7 0.557748 0.710681 0.304141
O O8 0.808877 0.812343 0.031930
O O9 0.250000 0.750000 0.000000
O O10 0.174003 0.897476 0.969576
O O11 0.461361 0.631865 0.565057
O O12 0.475432 0.536581 0.391873
O O13 0.000000 0.108222 0.750000
#
# Coordination Sequence:
#
# PCOD9305068 Si02
#       6
#     8   8   8   8   8   8
#     4  11  24  42  69  99 142 180 224 290 347 415
#     4  11  24  42  65 102 140 182 224 282 357 408
#     4  12  22  43  68  98 135 184 226 282 343 412
#     4  12  23  40  68 106 138 173 233 293 347 412
#     4  11  25  45  68  99 139 181 232 284 347 416
#     4  11  25  41  68 101 136 179 229 288 349 410
#
# _framework density 25.036769
#
# number of rings (size 3 to 8) (size 9 to 14) (size 15 to 20)
#    0.000    0.667    5.000    2.500    4.667    0.000 
#    0.000    0.833    3.667    0.000    0.000    0.000 
#    0.000    0.000    0.000    0.000    0.000    0.000 
#
# Total GULP energy -133913.149070 kJ/mol
# GULP energy per Si atom -5579.714545 kJ/mol
# Density = 2.497978 g / cm^3
# Si number density = 25.036769 Si / 1000 Ang^3
#
#
#
# Elastic Constant Matrix: (Units=GPa)
#
#
# Indices 1 2 3 4 5 6 
#
# 1 101.5170 36.7627 20.0017 0.0000 -9.0709 0.0000
# 2 36.7627 114.3504 39.3050 0.0000 -6.2104 0.0000
# 3 20.0017 39.3050 94.4041 0.0000 -0.1665 0.0000
# 4 0.0000 0.0000 0.0000 31.6514 0.0000 -0.0863
# 5 -9.0709 -6.2104 -0.1665 0.0000 24.4376 0.0000
# 6 0.0000 0.0000 0.0000 -0.0863 0.0000 27.8127
#
#
#
# Elastic Compliance Matrix: (Units=1/GPa)
#
#
# Indices 1 2 3 4 5 6 
#
# 1 0.011515 -0.003124 -0.001133 0.000000 0.003473 0.000000
# 2 -0.003124 0.011216 -0.004005 0.000000 0.001664 0.000000
# 3 -0.001133 -0.004005 0.012498 0.000000 -0.001353 0.000000
# 4 0.000000 0.000000 0.000000 0.031594 0.000000 0.000098
# 5 0.003473 0.001664 -0.001353 0.000000 0.042623 0.000000
# 6 0.000000 0.000000 0.000000 0.000098 0.000000 0.035955
#
#
# Mechanical properties :
#
#
# Convention : Reuss Voigt Hill
#
# Bulk Modulus (GPa) = 53.46029 55.82337 54.64183
# Shear Modulus (GPa) = 29.73326 31.06049 30.39688
#
# Velocity S-wave (km/s) = 3.44987 3.52603 3.48816
# Velocity P-wave (km/s) = 6.10474 6.23876 6.17212
#
# Compressibility (1/GPa) = 0.01870547
#
# Stress axis : x y z
#
# Youngs Moduli (GPa) = 86.83997 89.15509 80.01328
#
# Poissons Ratio (x) = 0.27853 0.09065
# Poissons Ratio (y) = 0.27130 0.32046
# Poissons Ratio (z) = 0.09839 0.35707
#
# Static dielectric constant tensor:
#      x y z
#    x 2.007860 0.000000 0.009780 
#    y 0.000000 1.971480 0.000000 
#    z 0.009780 0.000000 2.197960 
# 
# From -- ./inp_files/162139.got.cif
#   From: 2010.05.17/outbox.cif.g08.bks.cpg/sg15_82_cif.got.tgz:162139.got - 2010.06.03 18:47:42.
