data_PCOD9305003
_publ_section_title
;
Structure prediction by ZEFSAII (Michael W. Deem and Ramdas Pophale) SiO2 
 PCOD9305003
Probable space group: C 2/C
;
_chemical_formula_sum "Si O2"
_cell_formula_units_Z 44
_cell_length_a 11.273261
_cell_length_b 30.076457
_cell_length_c 6.200202
_cell_angle_alpha 90.000000
_cell_angle_beta 97.740539
_cell_angle_gamma 90.000000
_cell_volume 2083.083655
_symmetry_space_group_name_H-M "C 2/C"
_symmetry_group_IT_number 15
_symmetry_cell_setting 'monoclinic'
loop_
_space_group_symop_operation_xyz
x,y,z
-x,y,1/2-z
-x,-y,-z
x,-y,1/2+z
1/2+x,1/2+y,z
1/2-x,1/2+y,1/2-z
1/2-x,1/2-y,-z
1/2+x,1/2-y,1/2+z
loop_
_atom_site_type_symbol
_atom_site_label
_atom_site_fract_x
_atom_site_fract_y
_atom_site_fract_z
Si Si1 0.000000 0.699529 0.250000
Si Si2 0.293855 0.840796 0.505826
Si Si3 0.000000 0.521833 0.750000
Si Si4 0.000000 0.020526 0.750000
Si Si5 0.244789 0.072722 0.719626
Si Si6 0.128649 0.860140 0.866425
Si Si7 0.828986 0.223516 0.853464
O O1 0.934579 0.667665 0.067146
O O2 0.903051 0.735171 0.291042
O O3 0.271544 0.887899 0.392840
O O4 0.217997 0.841963 0.706565
O O5 0.244931 0.800984 0.348484
O O6 0.870066 0.546928 0.716208
O O7 0.000000 0.500000 0.500000
O O8 0.128876 0.045679 0.774930
O O9 0.000000 0.000000 0.500000
O O10 0.196871 0.099556 0.498754
O O11 0.000000 0.875540 0.750000
O O12 0.103058 0.817912 0.017116
O O13 0.750000 0.250000 0.000000
#
# Coordination Sequence:
#
# PCOD9305003 Si02
#       7
#     4   8   4   4   8   8   8
#     4  12  24  40  70  92 144 186 254 302 362 434
#     4  11  26  43  67 104 138 198 245 304 380 434
#     4  12  30  53  84 120 158 198 242 308 394 469
#     4  12  28  51  84 120 148 194 248 308 384 459
#     4  11  28  48  78 111 156 191 250 306 377 474
#     4  11  24  44  72 101 144 198 247 309 383 428
#     4  11  24  41  60  99 139 192 249 313 361 429
#
# _framework density 21.122530000000001
#
# number of rings (size 3 to 8) (size 9 to 14) (size 15 to 20)
#    0.000    0.727    1.818    3.818   11.455    2.909 
#    0.000    0.000    0.000    0.000    0.000    0.000 
#    0.000    0.000    0.000    0.000    0.000    0.000 
#
# Total GULP energy -122484.167733 kJ/mol
# GULP energy per Si atom -5567.462170 kJ/mol
# Density = 2.107445 g / cm^3
# Si number density = 21.122530 Si / 1000 Ang^3
#
#
#
# Elastic Constant Matrix: (Units=GPa)
#
#
# Indices 1 2 3 4 5 6 
#
# 1 -140.0523 128.4377 -37.1546 0.0000 118.9836 0.0000
# 2 128.4377 106.4688 86.8711 0.0000 -1.6052 0.0000
# 3 -37.1546 86.8711 99.7473 0.0000 46.6358 0.0000
# 4 0.0000 0.0000 0.0000 58.1672 0.0000 28.9266
# 5 118.9836 -1.6052 46.6358 0.0000 8.4523 0.0000
# 6 0.0000 0.0000 0.0000 28.9266 0.0000 72.8736
#
#
#
# Elastic Compliance Matrix: (Units=1/GPa)
#
#
# Indices 1 2 3 4 5 6 
#
# 1 0.001260 0.002073 -0.004287 0.000000 0.006311 0.000000
# 2 0.002073 0.009497 -0.003357 0.000000 -0.008859 0.000000
# 3 -0.004287 -0.003357 0.010486 0.000000 0.001852 0.000000
# 4 0.000000 0.000000 0.000000 0.021420 0.000000 -0.008503
# 5 0.006311 -0.008859 0.001852 0.000000 0.017570 0.000000
# 6 0.000000 0.000000 0.000000 -0.008503 0.000000 0.017097
#
#
# Mechanical properties :
#
#
# Convention : Reuss Voigt Hill
#
# Bulk Modulus (GPa) = 98.99037 46.94136 72.96586
# Shear Modulus (GPa) = 54.44353 20.43259 37.43806
#
# Velocity S-wave (km/s) = 5.08243 3.11358 4.21458
# Velocity P-wave (km/s) = 9.02264 5.93274 7.63562
#
# Compressibility (1/GPa) = 0.01010199
#
# Stress axis : x y z
#
# Youngs Moduli (GPa) = 793.72537 105.29931 95.36493
#
# Poissons Ratio (x) = -0.21829 0.40882
# Poissons Ratio (y) = -1.64545 0.32010
# Poissons Ratio (z) = 3.40258 0.35344
#
# Static dielectric constant tensor:
#      x y z
#    x 1.721270 0.000000 -0.019500 
#    y 0.000000 1.756110 0.000000 
#    z -0.019500 0.000000 1.862100 
# 
# From -- ./inp_files/5894.got.cif
#   From: 2010.05.17/outbox.cif.g08.bks.cpg/sg15_3_cif.got.tgz:5894.got - 2010.06.03 18:47:42.
