data_PCOD9305574
_publ_section_title
;
Structure prediction by ZEFSAII (Michael W. Deem and Ramdas Pophale) SiO2 
 PCOD9305574
Probable space group: C 2/C
;
_chemical_formula_sum "Si O2"
_cell_formula_units_Z 28
_cell_length_a 4.823604
_cell_length_b 21.520711
_cell_length_c 11.431143
_cell_angle_alpha 90.000000
_cell_angle_beta 71.922238
_cell_angle_gamma 90.000000
_cell_volume 1128.060226
_symmetry_space_group_name_H-M "C 2/C"
_symmetry_group_IT_number 15
_symmetry_cell_setting 'monoclinic'
loop_
_space_group_symop_operation_xyz
x,y,z
-x,y,1/2-z
-x,-y,-z
x,-y,1/2+z
1/2+x,1/2+y,z
1/2-x,1/2+y,1/2-z
1/2-x,1/2-y,-z
1/2+x,1/2-y,1/2+z
loop_
_atom_site_type_symbol
_atom_site_label
_atom_site_fract_x
_atom_site_fract_y
_atom_site_fract_z
Si Si1 0.000000 0.137359 0.250000
Si Si2 0.858161 0.066394 0.492427
Si Si3 0.219784 0.745545 0.865411
Si Si4 0.764842 0.612333 0.627579
O O1 0.833351 0.091352 0.361804
O O2 0.874287 0.189354 0.177047
O O3 0.533799 0.065707 0.588178
O O4 0.085698 0.111311 0.530212
O O5 0.000000 0.000000 0.500000
O O6 0.500000 0.731453 0.750000
O O7 0.066498 0.678266 0.873438
O O8 0.250000 0.750000 0.000000
O O9 0.500000 0.597765 0.750000
#
# Coordination Sequence:
#
# PCOD9305574 Si02
#       4
#     4   8   8   8
#     4  12  28  46  80 114 164 210 276 336 418 478
#     4  12  28  51  77 112 164 216 272 326 400 489
#     4  11  24  45  76 116 164 206 269 343 414 487
#     4  11  26  49  78 114 154 209 267 334 411 477
#
# _framework density 24.821368
#
# number of rings (size 3 to 8) (size 9 to 14) (size 15 to 20)
#    0.000    0.571    2.857    3.429   10.000    2.286 
#    5.143    0.000    0.000    0.000    0.000    0.000 
#    0.000    0.000    0.000    0.000    0.000    0.000 
#
# Total GULP energy -77964.866392 kJ/mol
# GULP energy per Si atom -5568.919028 kJ/mol
# Density = 2.476487 g / cm^3
# Si number density = 24.821368 Si / 1000 Ang^3
#
#
#
# Elastic Constant Matrix: (Units=GPa)
#
#
# Indices 1 2 3 4 5 6 
#
# 1 114.2903 52.0945 57.2929 0.0000 -12.0044 0.0000
# 2 52.0945 124.2669 68.3153 0.0000 -26.9100 0.0000
# 3 57.2929 68.3153 173.0092 0.0000 16.0825 0.0000
# 4 0.0000 0.0000 0.0000 29.6656 0.0000 -21.8463
# 5 -12.0044 -26.9100 16.0825 0.0000 44.1920 0.0000
# 6 0.0000 0.0000 0.0000 -21.8463 0.0000 -53.8449
#
#
#
# Elastic Compliance Matrix: (Units=1/GPa)
#
#
# Indices 1 2 3 4 5 6 
#
# 1 0.011805 -0.002641 -0.003120 0.000000 0.002734 0.000000
# 2 -0.002641 0.014600 -0.005848 0.000000 0.010301 0.000000
# 3 -0.003120 -0.005848 0.009866 0.000000 -0.007999 0.000000
# 4 0.000000 0.000000 0.000000 0.025954 0.000000 -0.010530
# 5 0.002734 0.010301 -0.007999 0.000000 0.032555 0.000000
# 6 0.000000 0.000000 0.000000 -0.010530 0.000000 -0.014299
#
#
# Mechanical properties :
#
#
# Convention : Reuss Voigt Hill
#
# Bulk Modulus (GPa) = 76.61814 85.21911 80.91862
# Shear Modulus (GPa) = 46.27435 19.59344 32.93390
#
# Velocity S-wave (km/s) = 4.32243 2.81264 3.64653
# Velocity P-wave (km/s) = 7.47302 6.70488 7.09935
#
# Compressibility (1/GPa) = 0.01305174
#
# Stress axis : x y z
#
# Youngs Moduli (GPa) = 84.70971 68.49275 101.35686
#
# Poissons Ratio (x) = 0.18091 0.31628
# Poissons Ratio (y) = 0.22375 0.59273
# Poissons Ratio (z) = 0.26433 0.40054
#
# Static dielectric constant tensor:
#      x y z
#    x 2.010080 0.000000 0.056070 
#    y 0.000000 2.231100 0.000000 
#    z 0.056070 0.000000 2.005430 
# 
# From -- ./inp_files/71524.got.cif
#   From: 2010.05.17/outbox.cif.g08.bks.cpg/sg15_36_cif.got.tgz:71524.got - 2010.06.03 18:47:42.
