data_PCOD9305164
_publ_section_title
;
Structure prediction by ZEFSAII (Michael W. Deem and Ramdas Pophale) SiO2 
 PCOD9305164
Probable space group: C 2/C
;
_chemical_formula_sum "Si O2"
_cell_formula_units_Z 40
_cell_length_a 17.842904
_cell_length_b 14.753245
_cell_length_c 16.135077
_cell_angle_alpha 90.000000
_cell_angle_beta 156.149603
_cell_angle_gamma 90.000000
_cell_volume 1717.439752
_symmetry_space_group_name_H-M "C 2/C"
_symmetry_group_IT_number 15
_symmetry_cell_setting 'monoclinic'
loop_
_space_group_symop_operation_xyz
x,y,z
-x,y,1/2-z
-x,-y,-z
x,-y,1/2+z
1/2+x,1/2+y,z
1/2-x,1/2+y,1/2-z
1/2-x,1/2-y,-z
1/2+x,1/2-y,1/2+z
loop_
_atom_site_type_symbol
_atom_site_label
_atom_site_fract_x
_atom_site_fract_y
_atom_site_fract_z
Si Si1 0.565227 0.151324 0.990417
Si Si2 0.531940 0.015051 0.371360
Si Si3 0.777795 0.670710 0.170273
Si Si4 0.126167 0.808232 0.811235
Si Si5 0.891528 0.135436 0.728330
O O1 0.616015 0.174121 0.134750
O O2 0.749597 0.133247 0.122894
O O3 0.470443 0.235541 0.847792
O O4 0.466517 0.055517 0.876074
O O5 0.500000 0.967876 0.250000
O O6 0.389847 0.098886 0.229151
O O7 0.735529 0.059651 0.584318
O O8 0.787770 0.768624 0.137397
O O9 0.566716 0.638082 0.968026
O O10 0.000000 0.860694 0.750000
O O11 0.250000 0.750000 0.000000
O O12 0.000000 0.130314 0.750000
#
# Coordination Sequence:
#
# PCOD9305164 Si02
#       5
#     8   8   8   8   8
#     4  11  24  43  66 101 135 176 223 287 344 392
#     4  12  25  44  69  99 138 179 230 280 335 410
#     4  12  24  43  67 100 140 173 227 281 344 403
#     4   9  19  40  65  89 126 177 224 260 327 408
#     4  12  24  43  71 101 134 186 227 272 343 414
#
# _framework density 23.290482999999998
#
# number of rings (size 3 to 8) (size 9 to 14) (size 15 to 20)
#    0.000    0.800    4.000    4.800    0.000    1.600 
#    7.200    0.000    0.000    0.000    0.000    0.000 
#    0.000    0.000    0.000    0.000    0.000    0.000 
#
# Total GULP energy -111724.081451 kJ/mol
# GULP energy per Si atom -5586.204073 kJ/mol
# Density = 2.323747 g / cm^3
# Si number density = 23.290483 Si / 1000 Ang^3
#
#
#
# Elastic Constant Matrix: (Units=GPa)
#
#
# Indices 1 2 3 4 5 6 
#
# 1 43.6051 -7.1703 -2.3078 0.0008 -17.5547 0.0004
# 2 -7.1703 88.2222 11.4379 -0.0002 -3.0297 0.0004
# 3 -2.3078 11.4379 106.4431 -0.0025 -13.8714 -0.0011
# 4 0.0008 -0.0002 -0.0025 19.7404 0.0002 -6.5194
# 5 -17.5547 -3.0297 -13.8714 0.0002 51.8602 0.0004
# 6 0.0004 0.0004 -0.0011 -6.5194 0.0004 25.1306
#
#
#
# Elastic Compliance Matrix: (Units=1/GPa)
#
#
# Indices 1 2 3 4 5 6 
#
# 1 0.027365 0.002351 0.001622 -0.000001 0.009834 -0.000001
# 2 0.002351 0.011703 -0.001050 0.000000 0.001199 0.000000
# 3 0.001622 -0.001050 0.009953 0.000001 0.003150 0.000001
# 4 -0.000001 0.000000 0.000001 0.055404 0.000000 0.014373
# 5 0.009834 0.001199 0.003150 0.000000 0.023524 0.000000
# 6 -0.000001 0.000000 0.000001 0.014373 0.000000 0.043521
#
#
# Mechanical properties :
#
#
# Convention : Reuss Voigt Hill
#
# Bulk Modulus (GPa) = 18.22559 26.91002 22.56781
# Shear Modulus (GPa) = 27.18671 35.10030 31.14350
#
# Velocity S-wave (km/s) = 3.42027 3.88631 3.66071
# Velocity P-wave (km/s) = 4.84148 5.63178 5.25152
#
# Compressibility (1/GPa) = 0.05486790
#
# Stress axis : x y z
#
# Youngs Moduli (GPa) = 36.54343 85.44464 100.46995
#
# Poissons Ratio (x) = -0.20092 -0.16298
# Poissons Ratio (y) = -0.08593 0.10553
# Poissons Ratio (z) = -0.05928 0.08975
#
# Static dielectric constant tensor:
#      x y z
#    x 1.914360 0.000000 0.031890 
#    y 0.000000 1.859400 0.000000 
#    z 0.031890 0.000000 1.991170 
# 
# From -- ./inp_files/215828.got.cif
#   From: 2010.05.17/outbox.cif.g08.bks.cpg/sg15_108_cif.got.tgz:215828.got - 2010.06.03 18:47:42.
