data_PCOD9305705
_publ_section_title
;
Structure prediction by ZEFSAII (Michael W. Deem and Ramdas Pophale) SiO2 
 PCOD9305705
Probable space group: C 2/C
;
_chemical_formula_sum "Si O2"
_cell_formula_units_Z 40
_cell_length_a 10.995040
_cell_length_b 11.437560
_cell_length_c 25.810455
_cell_angle_alpha 90.000000
_cell_angle_beta 33.368369
_cell_angle_gamma 90.000000
_cell_volume 1785.271025
_symmetry_space_group_name_H-M "C 2/C"
_symmetry_group_IT_number 15
_symmetry_cell_setting 'monoclinic'
loop_
_space_group_symop_operation_xyz
x,y,z
-x,y,1/2-z
-x,-y,-z
x,-y,1/2+z
1/2+x,1/2+y,z
1/2-x,1/2+y,1/2-z
1/2-x,1/2-y,-z
1/2+x,1/2-y,1/2+z
loop_
_atom_site_type_symbol
_atom_site_label
_atom_site_fract_x
_atom_site_fract_y
_atom_site_fract_z
Si Si1 0.799808 0.611976 0.893693
Si Si2 0.673157 0.604933 0.382512
Si Si3 0.804983 0.358340 0.166573
Si Si4 0.000000 0.787072 0.750000
Si Si5 0.488470 0.524269 0.168507
Si Si6 0.500000 0.000000 0.000000
O O1 0.823261 0.479163 0.864483
O O2 0.990230 0.647595 0.865960
O O3 0.816748 0.702333 0.839875
O O4 0.560409 0.620443 0.004764
O O5 0.744341 0.733998 0.341538
O O6 0.626808 0.538012 0.345570
O O7 0.600022 0.408845 0.271783
O O8 0.882311 0.446473 0.094265
O O9 0.923005 0.870943 0.731013
O O10 0.750265 0.529875 0.066618
#
# Coordination Sequence:
#
# PCOD9305705 Si02
#       6
#     8   8   8   4   8   4
#     4  11  24  46  75 105 145 196 250 303 376 451
#     4  11  25  46  76 106 145 196 247 307 370 445
#     4  12  24  46  73 109 149 191 249 316 366 451
#     4  12  22  44  70 106 136 194 236 300 374 446
#     4  12  25  45  74 105 145 194 244 301 386 437
#     4  12  24  46  70 102 144 196 244 302 378 444
#
# _framework density 22.405560999999999
#
# number of rings (size 3 to 8) (size 9 to 14) (size 15 to 20)
#    0.000    0.400    6.000    3.000    0.000    0.000 
#   10.800    1.000    0.000    0.000    0.000    0.000 
#    0.000    0.000    0.000    0.000    0.000    0.000 
#
# Total GULP energy -111436.236739 kJ/mol
# GULP energy per Si atom -5571.811837 kJ/mol
# Density = 2.235457 g / cm^3
# Si number density = 22.405561 Si / 1000 Ang^3
#
#
#
# Elastic Constant Matrix: (Units=GPa)
#
#
# Indices 1 2 3 4 5 6 
#
# 1 60.6454 13.9762 20.2247 -0.0004 2.7440 0.0003
# 2 13.9762 100.3621 47.0999 -0.0006 8.0723 0.0003
# 3 20.2247 47.0999 128.3950 -0.0012 0.8260 0.0006
# 4 -0.0004 -0.0006 -0.0012 18.9984 0.0003 5.6435
# 5 2.7440 8.0723 0.8260 0.0003 36.9044 -0.0001
# 6 0.0003 0.0003 0.0006 5.6435 -0.0001 27.4450
#
#
#
# Elastic Compliance Matrix: (Units=1/GPa)
#
#
# Indices 1 2 3 4 5 6 
#
# 1 0.017596 -0.001298 -0.002289 0.000000 -0.000973 0.000000
# 2 -0.001298 0.012373 -0.004318 0.000000 -0.002513 0.000000
# 3 -0.002289 -0.004318 0.009727 0.000000 0.000897 0.000000
# 4 0.000000 0.000000 0.000000 0.056060 0.000000 -0.011528
# 5 -0.000973 -0.002513 0.000897 0.000000 0.027699 0.000000
# 6 0.000000 0.000000 0.000000 -0.011528 0.000000 0.038807
#
#
# Mechanical properties :
#
#
# Convention : Reuss Voigt Hill
#
# Bulk Modulus (GPa) = 41.86592 50.22267 46.04430
# Shear Modulus (GPa) = 26.87649 30.54300 28.70974
#
# Velocity S-wave (km/s) = 3.46720 3.69614 3.58350
# Velocity P-wave (km/s) = 5.89531 6.37803 6.14142
#
# Compressibility (1/GPa) = 0.02388578
#
# Stress axis : x y z
#
# Youngs Moduli (GPa) = 56.83142 80.81834 102.80158
#
# Poissons Ratio (x) = 0.10488 0.23535
# Poissons Ratio (y) = 0.07375 0.44394
# Poissons Ratio (z) = 0.13011 0.34901
#
# Static dielectric constant tensor:
#      x y z
#    x 1.839710 0.000000 -0.006600 
#    y 0.000000 1.870090 0.000000 
#    z -0.006600 0.000000 1.797530 
# 
# From -- ./inp_files/292392.got.cif
#   From: 2010.05.17/outbox.cif.g08.bks.cpg/sg15_147_cif.got.tgz:292392.got - 2010.06.03 18:47:42.
