data_PCOD9305819
_publ_section_title
;
Structure prediction by ZEFSAII (Michael W. Deem and Ramdas Pophale) SiO2 
 PCOD9305819
Probable space group: C 2/C
;
_chemical_formula_sum "Si O2"
_cell_formula_units_Z 40
_cell_length_a 5.271666
_cell_length_b 15.464856
_cell_length_c 20.228312
_cell_angle_alpha 90.000000
_cell_angle_beta 82.910324
_cell_angle_gamma 90.000000
_cell_volume 1636.515488
_symmetry_space_group_name_H-M "C 2/C"
_symmetry_group_IT_number 15
_symmetry_cell_setting 'monoclinic'
loop_
_space_group_symop_operation_xyz
x,y,z
-x,y,1/2-z
-x,-y,-z
x,-y,1/2+z
1/2+x,1/2+y,z
1/2-x,1/2+y,1/2-z
1/2-x,1/2-y,-z
1/2+x,1/2-y,1/2+z
loop_
_atom_site_type_symbol
_atom_site_label
_atom_site_fract_x
_atom_site_fract_y
_atom_site_fract_z
Si Si1 0.152654 0.847058 0.488402
Si Si2 0.341746 0.169083 0.193181
Si Si3 0.500000 0.176433 0.750000
Si Si4 0.599402 0.894632 0.564634
Si Si5 0.808428 0.566223 0.854870
Si Si6 0.500000 0.524994 0.250000
O O1 0.250000 0.750000 0.500000
O O2 0.371138 0.902267 0.519283
O O3 0.163409 0.873200 0.411523
O O4 0.870657 0.866960 0.525331
O O5 0.500000 0.134506 0.250000
O O6 0.506885 0.174894 0.122292
O O7 0.223303 0.258602 0.220932
O O8 0.130936 0.093682 0.194554
O O9 0.540682 0.119631 0.814588
O O10 0.621576 0.981741 0.606163
O O11 0.658843 0.534837 0.794617
#
# Coordination Sequence:
#
# PCOD9305819 Si02
#       6
#     8   8   4   8   8   4
#     4  12  29  51  79 113 157 208 260 326 388 472
#     4  11  24  47  75 105 151 201 257 322 385 458
#     4  11  28  44  72 115 150 200 254 319 388 454
#     4  12  26  51  80 110 154 208 262 318 393 463
#     4  12  26  48  77 114 157 202 261 321 393 467
#     4  11  24  48  74 113 154 204 262 329 390 464
#
# _framework density 24.442177000000001
#
# number of rings (size 3 to 8) (size 9 to 14) (size 15 to 20)
#    0.000    0.400    2.000    5.400    7.000    3.200 
#    0.000    0.000    0.000    0.000    0.000    0.000 
#    0.000    0.000    0.000    0.000    0.000    0.000 
#
# Total GULP energy -111913.034740 kJ/mol
# GULP energy per Si atom -5595.651737 kJ/mol
# Density = 2.438655 g / cm^3
# Si number density = 24.442177 Si / 1000 Ang^3
#
#
#
# Elastic Constant Matrix: (Units=GPa)
#
#
# Indices 1 2 3 4 5 6 
#
# 1 116.8749 28.9147 78.1283 0.0000 -29.2375 0.0000
# 2 28.9147 128.0482 73.4672 0.0000 -22.5789 0.0000
# 3 78.1283 73.4672 195.4125 0.0000 -40.0453 0.0000
# 4 0.0000 0.0000 0.0000 36.8644 0.0000 10.5988
# 5 -29.2375 -22.5789 -40.0453 0.0000 61.9712 0.0000
# 6 0.0000 0.0000 0.0000 10.5988 0.0000 -4.1916
#
#
#
# Elastic Compliance Matrix: (Units=1/GPa)
#
#
# Indices 1 2 3 4 5 6 
#
# 1 0.012146 0.000282 -0.004342 0.000000 0.003028 0.000000
# 2 0.000282 0.010069 -0.003596 0.000000 0.001478 0.000000
# 3 -0.004342 -0.003596 0.008664 0.000000 0.002240 0.000000
# 4 0.000000 0.000000 0.000000 0.015707 0.000000 0.039717
# 5 0.003028 0.001478 0.002240 0.000000 0.019551 0.000000
# 6 0.000000 0.000000 0.000000 0.039717 0.000000 -0.138143
#
#
# Mechanical properties :
#
#
# Convention : Reuss Voigt Hill
#
# Bulk Modulus (GPa) = 64.22833 89.03955 76.63394
# Shear Modulus (GPa) = -97.07952 36.25048 -30.41452
#
# Velocity S-wave (km/s) = -6.30906 3.85530 -3.53136
# Velocity P-wave (km/s) = 5.17084 7.50503 3.84629
#
# Compressibility (1/GPa) = 0.01556945
#
# Stress axis : x y z
#
# Youngs Moduli (GPa) = 82.33059 99.30997 115.41769
#
# Poissons Ratio (x) = -0.02803 0.50113
# Poissons Ratio (y) = -0.02324 0.41499
# Poissons Ratio (z) = 0.35747 0.35708
#
# Static dielectric constant tensor:
#      x y z
#    x 2.533130 0.000000 -0.017300 
#    y 0.000000 2.032230 0.000000 
#    z -0.017300 0.000000 1.897300 
# 
# From -- ./inp_files/260147.got.cif
#   From: 2010.05.17/outbox.cif.g08.bks.cpg/sg15_131_cif.got.tgz:260147.got - 2010.06.03 18:47:42.
