data_PCOD9305564
_publ_section_title
;
Structure prediction by ZEFSAII (Michael W. Deem and Ramdas Pophale) SiO2 
 PCOD9305564
Probable space group: C 2/C
;
_chemical_formula_sum "Si O2"
_cell_formula_units_Z 40
_cell_length_a 27.125651
_cell_length_b 8.804751
_cell_length_c 16.740786
_cell_angle_alpha 90.000000
_cell_angle_beta 152.800611
_cell_angle_gamma 90.000000
_cell_volume 1827.567108
_symmetry_space_group_name_H-M "C 2/C"
_symmetry_group_IT_number 15
_symmetry_cell_setting 'monoclinic'
loop_
_space_group_symop_operation_xyz
x,y,z
-x,y,1/2-z
-x,-y,-z
x,-y,1/2+z
1/2+x,1/2+y,z
1/2-x,1/2+y,1/2-z
1/2-x,1/2-y,-z
1/2+x,1/2-y,1/2+z
loop_
_atom_site_type_symbol
_atom_site_label
_atom_site_fract_x
_atom_site_fract_y
_atom_site_fract_z
Si Si1 0.096439 0.362076 0.771598
Si Si2 0.985393 0.822289 0.491373
Si Si3 0.295953 0.839606 0.142056
Si Si4 0.351747 0.110618 0.976371
Si Si5 0.312009 0.231806 0.370590
O O1 0.921218 0.764015 0.320965
O O2 0.158930 0.499461 0.820115
O O3 0.974225 0.402270 0.621906
O O4 0.152193 0.336613 0.937396
O O5 0.917642 0.771668 0.471709
O O6 0.102119 0.745926 0.671211
O O7 0.000000 0.000000 0.500000
O O8 0.192293 0.559925 0.102420
O O9 0.203736 0.841469 0.076201
O O10 0.250000 0.750000 0.000000
O O11 0.285746 0.230035 0.829436
#
# Coordination Sequence:
#
# PCOD9305564 Si02
#       5
#     8   8   8   8   8
#     4  11  24  48  71 103 143 190 237 294 365 431
#     4  12  27  47  69 108 150 185 240 303 357 432
#     4  12  24  46  75 104 138 191 241 296 365 430
#     4  11  24  45  75 104 140 188 240 292 365 432
#     4  12  24  44  75 103 141 188 241 291 362 432
#
# _framework density 21.887021000000001
#
# number of rings (size 3 to 8) (size 9 to 14) (size 15 to 20)
#    0.000    0.400    6.000    3.000    0.000    1.600 
#    3.600    0.000    0.000    0.000    0.000    0.000 
#    0.000    0.000    0.000    0.000    0.000    0.000 
#
# Total GULP energy -111902.860487 kJ/mol
# GULP energy per Si atom -5595.143024 kJ/mol
# Density = 2.183721 g / cm^3
# Si number density = 21.887021 Si / 1000 Ang^3
#
#
#
# Elastic Constant Matrix: (Units=GPa)
#
#
# Indices 1 2 3 4 5 6 
#
# 1 151.5590 38.1443 34.4108 0.0000 -20.3324 0.0000
# 2 38.1443 98.8041 46.5308 0.0000 -25.2333 0.0000
# 3 34.4108 46.5308 91.0099 0.0000 -18.3814 0.0000
# 4 0.0000 0.0000 0.0000 45.0769 0.0000 -6.7942
# 5 -20.3324 -25.2333 -18.3814 0.0000 38.1995 0.0000
# 6 0.0000 0.0000 0.0000 -6.7942 0.0000 15.7700
#
#
#
# Elastic Compliance Matrix: (Units=1/GPa)
#
#
# Indices 1 2 3 4 5 6 
#
# 1 0.007675 -0.001632 -0.001617 0.000000 0.002229 0.000000
# 2 -0.001632 0.015109 -0.005834 0.000000 0.006304 0.000000
# 3 -0.001617 -0.005834 0.015097 0.000000 0.002550 0.000000
# 4 0.000000 0.000000 0.000000 0.023725 0.000000 0.010221
# 5 0.002229 0.006304 0.002550 0.000000 0.032756 0.000000
# 6 0.000000 0.000000 0.000000 0.010221 0.000000 0.067815
#
#
# Mechanical properties :
#
#
# Convention : Reuss Voigt Hill
#
# Bulk Modulus (GPa) = 50.72658 64.39386 57.56022
# Shear Modulus (GPa) = 26.74999 34.62841 30.68920
#
# Velocity S-wave (km/s) = 3.49977 3.98193 3.74861
# Velocity P-wave (km/s) = 6.28952 7.11519 6.71506
#
# Compressibility (1/GPa) = 0.01971353
#
# Stress axis : x y z
#
# Youngs Moduli (GPa) = 130.29182 66.18671 66.23721
#
# Poissons Ratio (x) = 0.10803 0.10713
# Poissons Ratio (y) = 0.21266 0.38645
# Poissons Ratio (z) = 0.21072 0.38615
#
# Static dielectric constant tensor:
#      x y z
#    x 1.835120 0.000000 0.016710 
#    y 0.000000 1.805710 0.000000 
#    z 0.016710 0.000000 1.811050 
# 
# From -- ./inp_files/172810.got.cif
#   From: 2010.05.17/outbox.cif.g08.bks.cpg/sg15_87_cif.got.tgz:172810.got - 2010.06.03 18:47:42.
