data_PCOD9305657
_publ_section_title
;
Structure prediction by ZEFSAII (Michael W. Deem and Ramdas Pophale) SiO2 
 PCOD9305657
Probable space group: C 2/C
;
_chemical_formula_sum "Si O2"
_cell_formula_units_Z 60
_cell_length_a 29.138954
_cell_length_b 18.892223
_cell_length_c 16.651840
_cell_angle_alpha 90.000000
_cell_angle_beta 17.604110
_cell_angle_gamma 90.000000
_cell_volume 2772.400629
_symmetry_space_group_name_H-M "C 2/C"
_symmetry_group_IT_number 15
_symmetry_cell_setting 'monoclinic'
loop_
_space_group_symop_operation_xyz
x,y,z
-x,y,1/2-z
-x,-y,-z
x,-y,1/2+z
1/2+x,1/2+y,z
1/2-x,1/2+y,1/2-z
1/2-x,1/2-y,-z
1/2+x,1/2-y,1/2+z
loop_
_atom_site_type_symbol
_atom_site_label
_atom_site_fract_x
_atom_site_fract_y
_atom_site_fract_z
Si Si1 0.240121 0.019749 0.077016
Si Si2 0.884269 0.267930 0.012308
Si Si3 0.595053 0.241506 0.309233
Si Si4 0.443865 0.399849 0.074307
Si Si5 0.698045 0.861727 0.775477
Si Si6 0.353742 0.617115 0.550832
Si Si7 0.000000 0.418379 0.250000
Si Si8 0.672876 0.013118 0.742578
O O1 0.098120 0.064161 0.347463
O O2 0.196422 0.937385 0.147874
O O3 0.385338 0.034883 0.888441
O O4 0.256456 0.041296 0.957818
O O5 0.838988 0.187280 0.066449
O O6 0.730681 0.312579 0.277094
O O7 0.000000 0.293510 0.750000
O O8 0.967281 0.275567 0.958066
O O9 0.555015 0.317106 0.413818
O O10 0.614300 0.183383 0.345924
O O11 0.750000 0.250000 0.000000
O O12 0.416276 0.418738 0.027342
O O13 0.730922 0.938215 0.681471
O O14 0.594798 0.874003 0.026461
O O15 0.224351 0.569777 0.723495
O O16 0.500000 0.629210 0.250000
O O17 0.500000 0.000000 0.000000
#
# Coordination Sequence:
#
# PCOD9305657 Si02
#       8
#     8   8   8   8   8   8   4   8
#     4  11  25  46  71 106 145 191 251 302 378 438
#     4  12  27  48  76 108 148 197 245 309 377 447
#     4  12  24  48  72 107 144 195 252 307 374 446
#     4  11  24  46  72 103 144 190 239 308 366 450
#     4  12  26  46  72 110 149 189 254 307 371 454
#     4  12  26  48  75 110 147 194 249 303 378 447
#     4  12  26  48  68 110 152 200 244 310 382 442
#     4  12  25  47  76 107 144 194 248 314 377 451
#
# _framework density 21.641894000000001
#
# number of rings (size 3 to 8) (size 9 to 14) (size 15 to 20)
#    0.000    0.267    5.333    3.200    0.933    2.667 
#    1.200    2.000    0.000    0.000    0.000    0.000 
#    0.000    0.000    0.000    0.000    0.000    0.000 
#
# Total GULP energy -167667.779194 kJ/mol
# GULP energy per Si atom -5588.925973 kJ/mol
# Density = 2.159264 g / cm^3
# Si number density = 21.641894 Si / 1000 Ang^3
#
#
#
# Elastic Constant Matrix: (Units=GPa)
#
#
# Indices 1 2 3 4 5 6 
#
# 1 94.7844 1.4500 13.1163 0.0002 8.7552 0.0008
# 2 1.4500 86.9130 11.9566 0.0014 4.0948 0.0005
# 3 13.1163 11.9566 72.5272 0.0006 -8.7246 0.0007
# 4 0.0002 0.0014 0.0006 29.4605 0.0001 -0.8069
# 5 8.7552 4.0948 -8.7246 0.0001 30.3100 -0.0003
# 6 0.0008 0.0005 0.0007 -0.8069 -0.0003 37.6335
#
#
#
# Elastic Compliance Matrix: (Units=1/GPa)
#
#
# Indices 1 2 3 4 5 6 
#
# 1 0.011277 0.000358 -0.002586 0.000000 -0.004050 0.000000
# 2 0.000358 0.011931 -0.002318 -0.000001 -0.002383 0.000000
# 3 -0.002586 -0.002318 0.015295 0.000000 0.005463 0.000000
# 4 0.000000 -0.000001 0.000000 0.033964 0.000000 0.000728
# 5 -0.004050 -0.002383 0.005463 0.000000 0.036057 0.000000
# 6 0.000000 0.000000 0.000000 0.000728 0.000000 0.026588
#
#
# Mechanical properties :
#
#
# Convention : Reuss Voigt Hill
#
# Bulk Modulus (GPa) = 34.00048 34.14114 34.07081
# Shear Modulus (GPa) = 32.46640 34.66091 33.56366
#
# Velocity S-wave (km/s) = 3.87740 4.00630 3.94237
# Velocity P-wave (km/s) = 5.98249 6.10002 6.04154
#
# Compressibility (1/GPa) = 0.02941135
#
# Stress axis : x y z
#
# Youngs Moduli (GPa) = 88.67862 83.81547 65.38156
#
# Poissons Ratio (x) = -0.03004 0.16905
# Poissons Ratio (y) = -0.03178 0.15158
# Poissons Ratio (z) = 0.22929 0.19431
#
# Static dielectric constant tensor:
#      x y z
#    x 1.813390 0.000000 0.006760 
#    y 0.000000 1.780020 0.000000 
#    z 0.006760 0.000000 1.858080 
# 
# From -- ./inp_files/179086.got.cif
#   From: 2010.05.17/outbox.cif.g08.bks.cpg/sg15_90_cif.got.tgz:179086.got - 2010.06.03 18:47:42.
