data_PCOD9305611
_publ_section_title
;
Structure prediction by ZEFSAII (Michael W. Deem and Ramdas Pophale) SiO2 
 PCOD9305611
Probable space group: C 2/C
;
_chemical_formula_sum "Si O2"
_cell_formula_units_Z 40
_cell_length_a 10.218861
_cell_length_b 9.606817
_cell_length_c 21.001826
_cell_angle_alpha 90.000000
_cell_angle_beta 67.880615
_cell_angle_gamma 90.000000
_cell_volume 1910.021327
_symmetry_space_group_name_H-M "C 2/C"
_symmetry_group_IT_number 15
_symmetry_cell_setting 'monoclinic'
loop_
_space_group_symop_operation_xyz
x,y,z
-x,y,1/2-z
-x,-y,-z
x,-y,1/2+z
1/2+x,1/2+y,z
1/2-x,1/2+y,1/2-z
1/2-x,1/2-y,-z
1/2+x,1/2-y,1/2+z
loop_
_atom_site_type_symbol
_atom_site_label
_atom_site_fract_x
_atom_site_fract_y
_atom_site_fract_z
Si Si1 0.419971 0.855415 0.531429
Si Si2 0.618096 0.663435 0.273472
Si Si3 0.088823 0.880592 0.572253
Si Si4 0.626162 0.685025 0.564237
Si Si5 0.661233 0.632545 0.705387
O O1 0.250511 0.864639 0.567817
O O2 0.442650 0.745646 0.469602
O O3 0.493307 0.787411 0.579762
O O4 0.500000 0.000000 0.500000
O O5 0.500000 0.732124 0.250000
O O6 0.528155 0.615725 0.351330
O O7 0.410710 0.465789 0.457178
O O8 0.734951 0.769849 0.274587
O O9 0.323752 0.472707 0.773900
O O10 0.750000 0.750000 0.500000
O O11 0.676012 0.658678 0.627268
O O12 0.500000 0.669298 0.750000
#
# Coordination Sequence:
#
# PCOD9305611 Si02
#       5
#     8   8   8   8   8
#     4  11  25  43  70 107 140 181 238 292 361 433
#     4  11  25  48  71  99 144 187 239 297 355 427
#     4  11  24  46  69 102 144 187 230 296 362 425
#     4  12  23  45  73 101 145 184 235 296 357 422
#     4  11  26  48  70 104 140 189 243 293 356 432
#
# _framework density 20.942174999999999
#
# number of rings (size 3 to 8) (size 9 to 14) (size 15 to 20)
#    0.000    0.800    6.000    1.800    2.800    0.800 
#    3.600    0.000    0.000    0.000    0.000    0.000 
#    0.000    0.000    0.000    0.000    0.000    0.000 
#
# Total GULP energy -111790.517803 kJ/mol
# GULP energy per Si atom -5589.525890 kJ/mol
# Density = 2.089451 g / cm^3
# Si number density = 20.942175 Si / 1000 Ang^3
#
#
#
# Elastic Constant Matrix: (Units=GPa)
#
#
# Indices 1 2 3 4 5 6 
#
# 1 121.0031 75.1107 31.4988 0.0000 36.3690 0.0000
# 2 75.1107 153.5878 63.7184 0.0000 25.3388 0.0000
# 3 31.4988 63.7184 121.3950 0.0000 12.9698 0.0000
# 4 0.0000 0.0000 0.0000 35.2565 0.0000 11.0452
# 5 36.3690 25.3388 12.9698 0.0000 34.7708 0.0000
# 6 0.0000 0.0000 0.0000 11.0452 0.0000 45.1681
#
#
#
# Elastic Compliance Matrix: (Units=1/GPa)
#
#
# Indices 1 2 3 4 5 6 
#
# 1 0.015279 -0.005599 0.000256 0.000000 -0.011996 0.000000
# 2 -0.005599 0.011155 -0.004332 0.000000 -0.000657 0.000000
# 3 0.000256 -0.004332 0.010557 0.000000 -0.001049 0.000000
# 4 0.000000 0.000000 0.000000 0.030717 0.000000 -0.007511
# 5 -0.011996 -0.000657 -0.001049 0.000000 0.042177 0.000000
# 6 0.000000 0.000000 0.000000 -0.007511 0.000000 0.023976
#
#
# Mechanical properties :
#
#
# Convention : Reuss Voigt Hill
#
# Bulk Modulus (GPa) = 56.68765 81.84908 69.26837
# Shear Modulus (GPa) = 31.42872 38.08296 34.75584
#
# Velocity S-wave (km/s) = 3.87814 4.26899 4.07825
# Velocity P-wave (km/s) = 6.86882 7.96664 7.43801
#
# Compressibility (1/GPa) = 0.01764053
#
# Stress axis : x y z
#
# Youngs Moduli (GPa) = 65.45052 89.64945 94.72444
#
# Poissons Ratio (x) = 0.50195 -0.02426
# Poissons Ratio (y) = 0.36646 0.41034
# Poissons Ratio (z) = -0.01676 0.38835
#
# Static dielectric constant tensor:
#      x y z
#    x 1.817650 0.000000 -0.007790 
#    y 0.000000 1.742250 0.000000 
#    z -0.007790 0.000000 1.785660 
# 
# From -- ./inp_files/230466.got.cif
#   From: 2010.05.17/outbox.cif.g08.bks.cpg/sg15_116_cif.got.tgz:230466.got - 2010.06.03 18:47:42.
