data_PCOD9305005
_publ_section_title
;
Structure prediction by ZEFSAII (Michael W. Deem and Ramdas Pophale) SiO2 
 PCOD9305005
Probable space group: C 2/C
;
_chemical_formula_sum "Si O2"
_cell_formula_units_Z 64
_cell_length_a 14.395936
_cell_length_b 23.841125
_cell_length_c 17.083072
_cell_angle_alpha 90.000000
_cell_angle_beta 145.692532
_cell_angle_gamma 90.000000
_cell_volume 3304.681352
_symmetry_space_group_name_H-M "C 2/C"
_symmetry_group_IT_number 15
_symmetry_cell_setting 'monoclinic'
loop_
_space_group_symop_operation_xyz
x,y,z
-x,y,1/2-z
-x,-y,-z
x,-y,1/2+z
1/2+x,1/2+y,z
1/2-x,1/2+y,1/2-z
1/2-x,1/2-y,-z
1/2+x,1/2-y,1/2+z
loop_
_atom_site_type_symbol
_atom_site_label
_atom_site_fract_x
_atom_site_fract_y
_atom_site_fract_z
Si Si1 0.540594 0.464941 0.194534
Si Si2 0.670779 0.828599 0.999426
Si Si3 0.118476 0.801571 0.501846
Si Si4 0.680847 0.879565 0.752488
Si Si5 0.355655 0.044621 0.423861
Si Si6 0.321723 0.493429 0.918992
Si Si7 0.443534 0.909280 0.296597
Si Si8 0.704204 0.359853 0.246588
O O1 0.500000 0.439784 0.250000
O O2 0.687241 0.509498 0.304525
O O3 0.596341 0.416555 0.174045
O O4 0.376613 0.493284 0.047034
O O5 0.655540 0.763779 0.015782
O O6 0.498119 0.854713 0.852363
O O7 0.796759 0.830910 0.014905
O O8 0.724987 0.858365 0.116751
O O9 0.192479 0.830907 0.631107
O O10 0.923884 0.810983 0.360079
O O11 0.666110 0.904400 0.653726
O O12 0.737673 0.934723 0.838727
O O13 0.410861 0.068225 0.546224
O O14 0.500000 0.000000 0.500000
O O15 0.188934 0.540746 0.808043
O O16 0.500000 0.500000 0.000000
O O17 0.500000 0.890885 0.250000
O O18 0.345757 0.864190 0.280896
#
# Coordination Sequence:
#
# PCOD9305005 Si02
#       8
#     8   8   8   8   8   8   8   8
#     4  12  23  37  60  89 126 164 198 242 300 369
#     4  11  24  41  62  92 128 157 206 255 312 375
#     4  11  24  41  62  94 124 162 202 256 312 378
#     4  12  21  37  63  88 126 169 204 247 308 377
#     4  12  21  41  59  88 128 163 203 254 302 366
#     4  12  21  40  59  88 127 163 203 247 296 371
#     4  12  25  41  62  88 121 165 212 254 299 363
#     4  12  22  40  63  86 123 165 201 251 308 359
#
# _framework density 19.366467
#
# number of rings (size 3 to 8) (size 9 to 14) (size 15 to 20)
#    0.000    0.250    7.500    3.000    0.000    3.000 
#    2.250    0.000    0.000    0.750    0.000    0.000 
#    0.000    0.000    0.000    0.000    0.000    0.000 
#
# Total GULP energy -178704.471886 kJ/mol
# GULP energy per Si atom -5584.514746 kJ/mol
# Density = 1.932239 g / cm^3
# Si number density = 19.366467 Si / 1000 Ang^3
#
#
#
# Elastic Constant Matrix: (Units=GPa)
#
#
# Indices 1 2 3 4 5 6 
#
# 1 91.7215 21.9847 19.3719 -0.0001 -13.4353 0.0000
# 2 21.9847 46.3068 14.5842 0.0000 2.1236 0.0000
# 3 19.3719 14.5842 118.8911 -0.0001 -12.1999 0.0000
# 4 -0.0001 0.0000 -0.0001 21.6416 -0.0001 9.2913
# 5 -13.4353 2.1236 -12.1999 -0.0001 28.7307 0.0000
# 6 0.0000 0.0000 0.0000 9.2913 0.0000 21.4736
#
#
#
# Elastic Compliance Matrix: (Units=1/GPa)
#
#
# Indices 1 2 3 4 5 6 
#
# 1 0.013574 -0.006508 -0.000745 0.000000 0.006512 0.000000
# 2 -0.006508 0.025827 -0.002735 0.000000 -0.006114 0.000000
# 3 -0.000745 -0.002735 0.009256 0.000000 0.003784 0.000000
# 4 0.000000 0.000000 0.000000 0.056749 0.000000 -0.024554
# 5 0.006512 -0.006114 0.003784 0.000000 0.039910 0.000000
# 6 0.000000 0.000000 0.000000 -0.024554 0.000000 0.057193
#
#
# Mechanical properties :
#
#
# Convention : Reuss Voigt Hill
#
# Bulk Modulus (GPa) = 34.86752 40.97788 37.92270
# Shear Modulus (GPa) = 21.54745 27.76776 24.65760
#
# Velocity S-wave (km/s) = 3.33921 3.79067 3.57208
# Velocity P-wave (km/s) = 5.73675 6.35327 6.05286
#
# Compressibility (1/GPa) = 0.02867999
#
# Stress axis : x y z
#
# Youngs Moduli (GPa) = 73.67135 38.71959 108.03476
#
# Poissons Ratio (x) = 0.25200 0.08050
# Poissons Ratio (y) = 0.47947 0.29548
# Poissons Ratio (z) = 0.05489 0.10590
#
# Static dielectric constant tensor:
#      x y z
#    x 1.719800 0.000000 -0.021440 
#    y 0.000000 1.685580 0.000000 
#    z -0.021440 0.000000 1.717230 
# 
# From -- ./inp_files/207360.got.cif
#   From: 2010.05.17/outbox.cif.g08.bks.cpg/sg15_104_cif.got.tgz:207360.got - 2010.06.03 18:47:42.
