data_PCOD9305818
_publ_section_title
;
Structure prediction by ZEFSAII (Michael W. Deem and Ramdas Pophale) SiO2 
 PCOD9305818
Probable space group: C 2/C
;
_chemical_formula_sum "Si O2"
_cell_formula_units_Z 40
_cell_length_a 8.496462
_cell_length_b 14.812883
_cell_length_c 16.249686
_cell_angle_alpha 90.000000
_cell_angle_beta 60.098349
_cell_angle_gamma 90.000000
_cell_volume 1772.894380
_symmetry_space_group_name_H-M "C 2/C"
_symmetry_group_IT_number 15
_symmetry_cell_setting 'monoclinic'
loop_
_space_group_symop_operation_xyz
x,y,z
-x,y,1/2-z
-x,-y,-z
x,-y,1/2+z
1/2+x,1/2+y,z
1/2-x,1/2+y,1/2-z
1/2-x,1/2-y,-z
1/2+x,1/2-y,1/2+z
loop_
_atom_site_type_symbol
_atom_site_label
_atom_site_fract_x
_atom_site_fract_y
_atom_site_fract_z
Si Si1 0.823584 0.762005 0.738784
Si Si2 0.632287 0.081334 0.492950
Si Si3 0.960998 0.042105 0.174016
Si Si4 0.599715 0.250229 0.969300
Si Si5 0.327440 0.618541 0.602212
O O1 0.828961 0.734697 0.641638
O O2 0.689492 0.696162 0.823365
O O3 0.000000 0.746266 0.750000
O O4 0.832041 0.871660 0.727983
O O5 0.836192 0.067802 0.407805
O O6 0.545934 0.171426 0.478511
O O7 0.660006 0.101048 0.583455
O O8 0.500000 0.000000 0.500000
O O9 0.000000 0.992621 0.250000
O O10 0.871861 0.974855 0.133546
O O11 0.750000 0.250000 0.000000
O O12 0.493354 0.344447 0.003647
#
# Coordination Sequence:
#
# PCOD9305818 Si02
#       5
#     8   8   8   8   8
#     4  11  24  47  75 105 149 201 247 304 384 448
#     4  12  26  47  75 109 149 199 257 310 379 449
#     4  11  26  46  75 108 150 193 252 311 376 451
#     4  12  26  45  76 108 148 199 252 308 378 449
#     4  12  26  48  78 104 154 200 247 317 379 447
#
# _framework density 22.561975
#
# number of rings (size 3 to 8) (size 9 to 14) (size 15 to 20)
#    0.000    0.400    4.000    4.800    8.400    0.000 
#    0.000    0.000    0.000    0.000    0.000    0.000 
#    0.000    0.000    0.000    0.000    0.000    0.000 
#
# Total GULP energy -111635.007737 kJ/mol
# GULP energy per Si atom -5581.750387 kJ/mol
# Density = 2.251062 g / cm^3
# Si number density = 22.561975 Si / 1000 Ang^3
#
#
#
# Elastic Constant Matrix: (Units=GPa)
#
#
# Indices 1 2 3 4 5 6 
#
# 1 142.8080 70.7667 54.2703 0.0000 44.1372 0.0000
# 2 70.7667 135.5841 63.0311 0.0000 12.6250 0.0000
# 3 54.2703 63.0311 145.2769 0.0000 28.8176 0.0000
# 4 0.0000 0.0000 0.0000 42.5867 0.0000 10.8064
# 5 44.1372 12.6250 28.8176 0.0000 33.8334 0.0000
# 6 0.0000 0.0000 0.0000 10.8064 0.0000 50.7354
#
#
#
# Elastic Compliance Matrix: (Units=1/GPa)
#
#
# Indices 1 2 3 4 5 6 
#
# 1 0.016013 -0.006964 0.000804 0.000000 -0.018975 0.000000
# 2 -0.006964 0.012268 -0.004350 0.000000 0.008213 0.000000
# 3 0.000804 -0.004350 0.010055 0.000000 -0.007990 0.000000
# 4 0.000000 0.000000 0.000000 0.024823 0.000000 -0.005287
# 5 -0.018975 0.008213 -0.007990 0.000000 0.058051 0.000000
# 6 0.000000 0.000000 0.000000 -0.005287 0.000000 0.020836
#
#
# Mechanical properties :
#
#
# Convention : Reuss Voigt Hill
#
# Bulk Modulus (GPa) = 57.75458 88.86723 73.31091
# Shear Modulus (GPa) = 29.61381 41.13783 35.37582
#
# Velocity S-wave (km/s) = 3.62685 4.27467 3.96402
# Velocity P-wave (km/s) = 6.57210 7.98983 7.31539
#
# Compressibility (1/GPa) = 0.01731464
#
# Stress axis : x y z
#
# Youngs Moduli (GPa) = 62.45066 81.51209 99.44834
#
# Poissons Ratio (x) = 0.56769 -0.07994
# Poissons Ratio (y) = 0.43493 0.43262
# Poissons Ratio (z) = -0.05020 0.35459
#
# Static dielectric constant tensor:
#      x y z
#    x 1.792520 0.000000 -0.020750 
#    y 0.000000 1.538050 0.000000 
#    z -0.020750 0.000000 1.927350 
# 
# From -- ./inp_files/133058.got.cif
#   From: 2010.05.17/outbox.cif.g08.bks.cpg/sg15_67_cif.got.tgz:133058.got - 2010.06.03 18:47:42.
