data_PCOD9305361
_publ_section_title
;
Structure prediction by ZEFSAII (Michael W. Deem and Ramdas Pophale) SiO2 
 PCOD9305361
Probable space group: C 2/C
;
_chemical_formula_sum "Si O2"
_cell_formula_units_Z 32
_cell_length_a 15.932452
_cell_length_b 9.949372
_cell_length_c 15.273491
_cell_angle_alpha 90.000000
_cell_angle_beta 31.360274
_cell_angle_gamma 90.000000
_cell_volume 1259.994526
_symmetry_space_group_name_H-M "C 2/C"
_symmetry_group_IT_number 15
_symmetry_cell_setting 'monoclinic'
loop_
_space_group_symop_operation_xyz
x,y,z
-x,y,1/2-z
-x,-y,-z
x,-y,1/2+z
1/2+x,1/2+y,z
1/2-x,1/2+y,1/2-z
1/2-x,1/2-y,-z
1/2+x,1/2-y,1/2+z
loop_
_atom_site_type_symbol
_atom_site_label
_atom_site_fract_x
_atom_site_fract_y
_atom_site_fract_z
Si Si1 0.916772 0.296900 0.649678
Si Si2 0.308254 0.626199 0.506306
Si Si3 0.225771 0.624813 0.958630
Si Si4 0.132210 0.205728 0.299862
O O1 0.037101 0.385787 0.600530
O O2 0.035412 0.234310 0.473596
O O3 0.835028 0.176326 0.779098
O O4 0.786765 0.370848 0.702575
O O5 0.250000 0.750000 0.500000
O O6 0.273314 0.498582 0.477810
O O7 0.205232 0.662395 0.685997
O O8 0.501998 0.635175 0.140163
O O9 0.250000 0.750000 0.000000
#
# Coordination Sequence:
#
# PCOD9305361 Si02
#       4
#     8   8   8   8
#     4   9  21  46  72 104 146 194 244 301 370 444
#     4  11  24  44  71 106 143 188 244 305 365 436
#     4  11  24  44  71 106 143 188 244 305 365 436
#     4   9  21  46  72 104 146 194 244 301 370 444
#
# _framework density 25.396936
#
# number of rings (size 3 to 8) (size 9 to 14) (size 15 to 20)
#    0.000    2.000    0.000    1.500    0.000    8.000 
#    0.000   57.500    0.000    0.000    0.000    0.000 
#    0.000    0.000    0.000    0.000    0.000    0.000 
#
# Total GULP energy -89346.394050 kJ/mol
# GULP energy per Si atom -5584.149628 kJ/mol
# Density = 2.533913 g / cm^3
# Si number density = 25.396936 Si / 1000 Ang^3
#
#
#
# Elastic Constant Matrix: (Units=GPa)
#
#
# Indices 1 2 3 4 5 6 
#
# 1 217.6493 59.7244 60.2893 -0.0001 -51.9013 0.0000
# 2 59.7244 137.6569 55.1818 -0.0001 -1.0285 0.0000
# 3 60.2893 55.1818 146.2341 0.0000 4.6669 0.0000
# 4 -0.0001 -0.0001 0.0000 15.7289 0.0000 1.3105
# 5 -51.9013 -1.0285 4.6669 0.0000 65.5259 0.0000
# 6 0.0000 0.0000 0.0000 1.3105 0.0000 47.6105
#
#
#
# Elastic Compliance Matrix: (Units=1/GPa)
#
#
# Indices 1 2 3 4 5 6 
#
# 1 0.007237 -0.002150 -0.002360 0.000000 0.005867 0.000000
# 2 -0.002150 0.009207 -0.002544 0.000000 -0.001377 0.000000
# 3 -0.002360 -0.002544 0.008852 0.000000 -0.002539 0.000000
# 4 0.000000 0.000000 0.000000 0.063723 0.000000 -0.001754
# 5 0.005867 -0.001377 -0.002539 0.000000 0.020067 0.000000
# 6 0.000000 0.000000 0.000000 -0.001754 0.000000 0.021052
#
#
# Mechanical properties :
#
#
# Convention : Reuss Voigt Hill
#
# Bulk Modulus (GPa) = 89.37414 94.65901 92.01658
# Shear Modulus (GPa) = 33.78944 47.52939 40.65942
#
# Velocity S-wave (km/s) = 3.65150 4.33073 4.00554
# Velocity P-wave (km/s) = 7.28321 7.89682 7.59621
#
# Compressibility (1/GPa) = 0.01118892
#
# Stress axis : x y z
#
# Youngs Moduli (GPa) = 138.17541 108.61588 112.96790
#
# Poissons Ratio (x) = 0.23355 0.26655
# Poissons Ratio (y) = 0.29711 0.28736
# Poissons Ratio (z) = 0.32603 0.27629
#
# Static dielectric constant tensor:
#      x y z
#    x 2.201350 0.000000 -0.029230 
#    y 0.000000 1.993080 0.000000 
#    z -0.029230 0.000000 2.083720 
# 
# From -- ./inp_files/160641.got.cif
#   From: 2010.05.17/outbox.cif.g08.bks.cpg/sg15_81_cif.got.tgz:160641.got - 2010.06.03 18:47:42.
