data_PCOD9305045
_publ_section_title
;
Structure prediction by ZEFSAII (Michael W. Deem and Ramdas Pophale) SiO2 
 PCOD9305045
Probable space group: C 2/C
;
_chemical_formula_sum "Si O2"
_cell_formula_units_Z 40
_cell_length_a 14.524957
_cell_length_b 21.393012
_cell_length_c 9.038328
_cell_angle_alpha 90.000000
_cell_angle_beta 37.831559
_cell_angle_gamma 90.000000
_cell_volume 1722.573349
_symmetry_space_group_name_H-M "C 2/C"
_symmetry_group_IT_number 15
_symmetry_cell_setting 'monoclinic'
loop_
_space_group_symop_operation_xyz
x,y,z
-x,y,1/2-z
-x,-y,-z
x,-y,1/2+z
1/2+x,1/2+y,z
1/2-x,1/2+y,1/2-z
1/2-x,1/2-y,-z
1/2+x,1/2-y,1/2+z
loop_
_atom_site_type_symbol
_atom_site_label
_atom_site_fract_x
_atom_site_fract_y
_atom_site_fract_z
Si Si1 0.124068 0.654606 0.487654
Si Si2 0.352036 0.429977 0.272547
Si Si3 0.619563 0.428261 0.718215
Si Si4 0.173429 0.805417 0.011487
Si Si5 0.048368 0.564390 0.015838
O O1 0.223165 0.605921 0.457417
O O2 0.031319 0.618672 0.476937
O O3 0.250424 0.694804 0.245735
O O4 0.000000 0.685789 0.750000
O O5 0.347536 0.498496 0.350093
O O6 0.310159 0.373564 0.433500
O O7 0.228675 0.429981 0.298161
O O8 0.520052 0.422960 0.995189
O O9 0.500000 0.404078 0.750000
O O10 0.000000 0.791999 0.250000
O O11 0.250000 0.750000 0.000000
O O12 0.000000 0.564446 0.250000
O O13 0.000000 0.500000 0.000000
#
# Coordination Sequence:
#
# PCOD9305045 Si02
#       5
#     8   8   8   8   8
#     4  12  26  47  74 115 152 191 253 319 387 461
#     4  11  24  42  70 105 153 199 255 302 385 457
#     4  11  24  41  71 110 155 195 244 319 390 459
#     4  12  28  52  77 107 146 209 261 315 379 469
#     4  12  24  38  67 109 156 198 237 303 381 461
#
# _framework density 23.221074000000002
#
# number of rings (size 3 to 8) (size 9 to 14) (size 15 to 20)
#    0.000    0.400    6.000    2.400    8.400    0.000 
#    0.000    2.000    0.000    0.000    0.000    0.000 
#    0.000    0.000    0.000    0.000    0.000    0.000 
#
# Total GULP energy -111938.335767 kJ/mol
# GULP energy per Si atom -5596.916788 kJ/mol
# Density = 2.316822 g / cm^3
# Si number density = 23.221074 Si / 1000 Ang^3
#
#
#
# Elastic Constant Matrix: (Units=GPa)
#
#
# Indices 1 2 3 4 5 6 
#
# 1 143.2683 14.1792 32.6429 0.0000 -19.1684 0.0001
# 2 14.1792 44.6367 42.0401 0.0000 1.2965 0.0000
# 3 32.6429 42.0401 182.2010 0.0000 -12.1054 0.0001
# 4 0.0000 0.0000 0.0000 -12.9644 0.0000 4.0241
# 5 -19.1684 1.2965 -12.1054 0.0000 50.9207 0.0000
# 6 0.0001 0.0000 0.0001 4.0241 0.0000 27.7336
#
#
#
# Elastic Compliance Matrix: (Units=1/GPa)
#
#
# Indices 1 2 3 4 5 6 
#
# 1 0.007705 -0.001789 -0.000784 0.000000 0.002760 0.000000
# 2 -0.001789 0.029315 -0.006643 0.000000 -0.002999 0.000000
# 3 -0.000784 -0.006643 0.007268 0.000000 0.001602 0.000000
# 4 0.000000 0.000000 0.000000 -0.073810 0.000000 0.010710
# 5 0.002760 -0.002999 0.001602 0.000000 0.021134 0.000000
# 6 0.000000 0.000000 0.000000 0.010710 0.000000 0.034503
#
#
# Mechanical properties :
#
#
# Convention : Reuss Voigt Hill
#
# Bulk Modulus (GPa) = 38.67608 60.87004 49.77306
# Shear Modulus (GPa) = 94.04516 31.88755 62.96636
#
# Velocity S-wave (km/s) = 6.37086 3.70971 5.21296
# Velocity P-wave (km/s) = 8.41480 6.67978 7.59698
#
# Compressibility (1/GPa) = 0.02585577
#
# Stress axis : x y z
#
# Youngs Moduli (GPa) = 129.78807 34.11254 137.58831
#
# Poissons Ratio (x) = 0.06103 0.10791
# Poissons Ratio (y) = 0.23219 0.91395
# Poissons Ratio (z) = 0.10179 0.22660
#
# Static dielectric constant tensor:
#      x y z
#    x 1.841190 0.000000 0.033600 
#    y 0.000000 1.793780 0.000000 
#    z 0.033600 0.000000 1.750970 
# 
# From -- ./inp_files/41925.got.cif
#   From: 2010.05.17/outbox.cif.g08.bks.cpg/sg15_21_cif.got.tgz:41925.got - 2010.06.03 18:47:42.
