data_PCOD9305275
_publ_section_title
;
Structure prediction by ZEFSAII (Michael W. Deem and Ramdas Pophale) SiO2 
 PCOD9305275
Probable space group: C 2/C
;
_chemical_formula_sum "Si O2"
_cell_formula_units_Z 40
_cell_length_a 23.813976
_cell_length_b 4.961117
_cell_length_c 14.255787
_cell_angle_alpha 90.000000
_cell_angle_beta 94.674231
_cell_angle_gamma 90.000000
_cell_volume 1678.633044
_symmetry_space_group_name_H-M "C 2/C"
_symmetry_group_IT_number 15
_symmetry_cell_setting 'monoclinic'
loop_
_space_group_symop_operation_xyz
x,y,z
-x,y,1/2-z
-x,-y,-z
x,-y,1/2+z
1/2+x,1/2+y,z
1/2-x,1/2+y,1/2-z
1/2-x,1/2-y,-z
1/2+x,1/2-y,1/2+z
loop_
_atom_site_type_symbol
_atom_site_label
_atom_site_fract_x
_atom_site_fract_y
_atom_site_fract_z
Si Si1 0.438021 0.171072 0.214192
Si Si2 0.320154 0.020975 0.016652
Si Si3 0.938720 0.378125 0.508046
Si Si4 0.785875 0.974121 0.397199
Si Si5 0.112955 0.177056 0.194124
O O1 0.500000 0.069571 0.250000
O O2 0.441230 0.274218 0.107365
O O3 0.420729 0.425677 0.271604
O O4 0.395970 0.932293 0.239786
O O5 0.296992 0.831742 0.929979
O O6 0.310380 0.329838 0.983171
O O7 0.385158 0.934212 0.027519
O O8 0.281462 0.996961 0.103297
O O9 0.916795 0.245550 0.409689
O O10 0.000000 0.500000 0.500000
O O11 0.822737 0.078111 0.315455
#
# Coordination Sequence:
#
# PCOD9305275 Si02
#       5
#     8   8   8   8   8
#     4  12  26  42  63  98 132 172 223 268 326 404
#     4   9  19  37  61  98 121 168 218 257 318 396
#     4  11  24  44  69  97 133 179 216 273 334 394
#     4   9  18  37  66  88 130 166 210 266 323 375
#     4  11  24  44  65  96 130 173 217 272 331 386
#
# _framework density 23.828914000000001
#
# number of rings (size 3 to 8) (size 9 to 14) (size 15 to 20)
#    0.000    1.600    2.000    3.000    0.000    5.600 
#    0.000    2.000    0.000    0.000    0.000    0.000 
#    0.000    0.000    0.000    0.000    0.000    0.000 
#
# Total GULP energy -111496.781462 kJ/mol
# GULP energy per Si atom -5574.839073 kJ/mol
# Density = 2.377468 g / cm^3
# Si number density = 23.828914 Si / 1000 Ang^3
#
#
#
# Elastic Constant Matrix: (Units=GPa)
#
#
# Indices 1 2 3 4 5 6 
#
# 1 153.6794 22.2920 86.0477 0.0000 -1.4173 0.0000
# 2 22.2920 88.5511 39.3735 0.0000 -10.6911 0.0000
# 3 86.0477 39.3735 67.2076 0.0000 -113.6899 0.0000
# 4 0.0000 0.0000 0.0000 -7.8959 0.0000 -14.4040
# 5 -1.4173 -10.6911 -113.6899 0.0000 -56.3693 0.0000
# 6 0.0000 0.0000 0.0000 -14.4040 0.0000 18.9828
#
#
#
# Elastic Compliance Matrix: (Units=1/GPa)
#
#
# Indices 1 2 3 4 5 6 
#
# 1 0.007885 -0.000433 -0.002275 0.000000 0.004473 0.000000
# 2 -0.000433 0.012835 -0.002508 0.000000 0.002635 0.000000
# 3 -0.002275 -0.002508 0.004570 0.000000 -0.008685 0.000000
# 4 0.000000 0.000000 0.000000 -0.053119 0.000000 -0.040307
# 5 0.004473 0.002635 -0.008685 0.000000 -0.000836 0.000000
# 6 0.000000 0.000000 0.000000 -0.040307 0.000000 0.022095
#
#
# Mechanical properties :
#
#
# Convention : Reuss Voigt Hill
#
# Bulk Modulus (GPa) = 67.30547 67.20719 67.25633
# Shear Modulus (GPa) = 567.17143 1.72515 284.44829
#
# Velocity S-wave (km/s) = 15.44457 0.85179 10.93756
# Velocity P-wave (km/s) = 18.61056 5.40672 13.70375
#
# Compressibility (1/GPa) = 0.01485763
#
# Stress axis : x y z
#
# Youngs Moduli (GPa) = 126.82106 77.91074 218.80618
#
# Poissons Ratio (x) = 0.03376 0.49784
# Poissons Ratio (y) = 0.05495 0.54874
# Poissons Ratio (z) = 0.28855 0.19539
#
# Static dielectric constant tensor:
#      x y z
#    x 2.047790 0.000000 0.075860 
#    y 0.000000 1.768650 0.000000 
#    z 0.075860 0.000000 2.013930 
# 
# From -- ./inp_files/170512.got.cif
#   From: 2010.05.17/outbox.cif.g08.bks.cpg/sg15_86_cif.got.tgz:170512.got - 2010.06.03 18:47:42.
