data_PCOD9305883
_publ_section_title
;
Structure prediction by ZEFSAII (Michael W. Deem and Ramdas Pophale) SiO2 
 PCOD9305883
Probable space group: C 2/C
;
_chemical_formula_sum "Si O2"
_cell_formula_units_Z 56
_cell_length_a 9.349599
_cell_length_b 11.343961
_cell_length_c 27.175588
_cell_angle_alpha 90.000000
_cell_angle_beta 117.120865
_cell_angle_gamma 90.000000
_cell_volume 2565.367143
_symmetry_space_group_name_H-M "C 2/C"
_symmetry_group_IT_number 15
_symmetry_cell_setting 'monoclinic'
loop_
_space_group_symop_operation_xyz
x,y,z
-x,y,1/2-z
-x,-y,-z
x,-y,1/2+z
1/2+x,1/2+y,z
1/2-x,1/2+y,1/2-z
1/2-x,1/2-y,-z
1/2+x,1/2-y,1/2+z
loop_
_atom_site_type_symbol
_atom_site_label
_atom_site_fract_x
_atom_site_fract_y
_atom_site_fract_z
Si Si1 0.516559 0.269864 0.811152
Si Si2 0.572703 0.305173 0.976970
Si Si3 0.868896 0.577508 0.950998
Si Si4 0.356921 0.878019 0.871787
Si Si5 0.111424 0.949991 0.631913
Si Si6 0.466822 0.337608 0.069137
Si Si7 0.519597 0.995039 0.811443
O O1 0.500000 0.284767 0.750000
O O2 0.700648 0.298376 0.852845
O O3 0.412298 0.364852 0.825102
O O4 0.487987 0.132718 0.818931
O O5 0.454690 0.196360 0.948425
O O6 0.513263 0.400156 0.928347
O O7 0.750000 0.250000 0.000000
O O8 0.545359 0.353136 0.027742
O O9 0.824058 0.494493 0.898459
O O10 0.715981 0.619345 0.958187
O O11 0.000000 0.500000 0.000000
O O12 0.505304 0.800035 0.914873
O O13 0.397204 0.916411 0.823098
O O14 0.298303 0.956641 0.646624
O O15 0.055891 0.086208 0.625550
O O16 0.500000 0.982155 0.750000
#
# Coordination Sequence:
#
# PCOD9305883 Si02
#       7
#     8   8   8   8   8   8   8
#     4  11  24  48  72  97 135 178 230 291 347 411
#     4  12  26  43  69 102 143 187 233 282 347 423
#     4  12  25  42  66  95 137 182 232 271 340 415
#     4  12  24  45  71  98 140 179 228 285 350 412
#     4  12  24  44  69 100 139 180 229 285 352 408
#     4  12  25  44  66 101 140 185 224 285 345 418
#     4  11  26  45  71 103 133 179 235 292 353 415
#
# _framework density 21.829232999999999
#
# number of rings (size 3 to 8) (size 9 to 14) (size 15 to 20)
#    0.000    0.286    4.286    5.143    4.000    0.000 
#    0.000    0.714    0.000    0.000    0.000    0.000 
#    0.000    0.000    0.000    0.000    0.000    0.000 
#
# Total GULP energy -156590.171200 kJ/mol
# GULP energy per Si atom -5592.506114 kJ/mol
# Density = 2.177955 g / cm^3
# Si number density = 21.829233 Si / 1000 Ang^3
#
#
#
# Elastic Constant Matrix: (Units=GPa)
#
#
# Indices 1 2 3 4 5 6 
#
# 1 93.9426 24.8566 8.6214 0.0000 -3.5948 0.0000
# 2 24.8566 92.9189 9.6705 0.0000 -14.5397 0.0000
# 3 8.6214 9.6705 58.8083 0.0000 -12.7780 0.0000
# 4 0.0000 0.0000 0.0000 35.6470 0.0000 -1.7250
# 5 -3.5948 -14.5397 -12.7780 0.0000 36.4014 0.0000
# 6 0.0000 0.0000 0.0000 -1.7250 0.0000 39.7191
#
#
#
# Elastic Compliance Matrix: (Units=1/GPa)
#
#
# Indices 1 2 3 4 5 6 
#
# 1 0.011548 -0.003036 -0.001309 0.000000 -0.000532 0.000000
# 2 -0.003036 0.012329 -0.000625 0.000000 0.004405 0.000000
# 3 -0.001309 -0.000625 0.018638 0.000000 0.006164 0.000000
# 4 0.000000 0.000000 0.000000 0.028112 0.000000 0.001221
# 5 -0.000532 0.004405 0.006164 0.000000 0.031342 0.000000
# 6 0.000000 0.000000 0.000000 0.001221 0.000000 0.025230
#
#
# Mechanical properties :
#
#
# Convention : Reuss Voigt Hill
#
# Bulk Modulus (GPa) = 30.69934 36.88522 33.79228
# Shear Modulus (GPa) = 33.78431 35.85492 34.81962
#
# Velocity S-wave (km/s) = 3.93830 4.05720 3.99819
# Velocity P-wave (km/s) = 5.89697 6.23551 6.06860
#
# Compressibility (1/GPa) = 0.03257399
#
# Stress axis : x y z
#
# Youngs Moduli (GPa) = 86.59554 81.11205 53.65277
#
# Poissons Ratio (x) = 0.24627 0.07025
# Poissons Ratio (y) = 0.26292 0.03354
# Poissons Ratio (z) = 0.11338 0.05070
#
# Static dielectric constant tensor:
#      x y z
#    x 1.786430 0.000000 0.015730 
#    y 0.000000 -5.152090 0.000000 
#    z 0.015730 0.000000 1.823610 
# 
# From -- ./inp_files/287959.got.cif
#   From: 2010.05.17/outbox.cif.g08.bks.cpg/sg15_144_cif.got.tgz:287959.got - 2010.06.03 18:47:42.
