data_PCOD9305160
_publ_section_title
;
Structure prediction by ZEFSAII (Michael W. Deem and Ramdas Pophale) SiO2 
 PCOD9305160
Probable space group: C 2/C
;
_chemical_formula_sum "Si O2"
_cell_formula_units_Z 48
_cell_length_a 16.594794
_cell_length_b 17.317866
_cell_length_c 19.966966
_cell_angle_alpha 90.000000
_cell_angle_beta 154.211343
_cell_angle_gamma 90.000000
_cell_volume 2496.435440
_symmetry_space_group_name_H-M "C 2/C"
_symmetry_group_IT_number 15
_symmetry_cell_setting 'monoclinic'
loop_
_space_group_symop_operation_xyz
x,y,z
-x,y,1/2-z
-x,-y,-z
x,-y,1/2+z
1/2+x,1/2+y,z
1/2-x,1/2+y,1/2-z
1/2-x,1/2-y,-z
1/2+x,1/2-y,1/2+z
loop_
_atom_site_type_symbol
_atom_site_label
_atom_site_fract_x
_atom_site_fract_y
_atom_site_fract_z
Si Si1 0.667930 0.419166 0.064296
Si Si2 0.770343 0.086620 0.340237
Si Si3 0.162857 0.707789 0.713323
Si Si4 0.504941 0.179630 0.050572
Si Si5 0.593197 0.684490 0.390923
Si Si6 0.212677 0.724483 0.397217
O O1 0.746684 0.503944 0.137125
O O2 0.782624 0.358049 0.193938
O O3 0.457904 0.416357 0.936346
O O4 0.666808 0.389149 0.987194
O O5 0.602037 0.110978 0.164600
O O6 0.787547 0.151575 0.410925
O O7 0.351502 0.749297 0.829257
O O8 0.031625 0.675106 0.556258
O O9 0.056668 0.775290 0.672896
O O10 0.302299 0.203051 0.925267
O O11 0.500000 0.666593 0.250000
O O12 0.750000 0.750000 0.500000
O O13 0.250000 0.750000 0.500000
O O14 0.000000 0.706883 0.250000
#
# Coordination Sequence:
#
# PCOD9305160 Si02
#       6
#     8   8   8   8   8   8
#     4  11  24  43  66  95 132 170 215 271 327 378
#     4  11  24  43  65  93 133 169 214 276 324 379
#     4  12  20  39  67  91 125 173 224 261 309 399
#     4  12  20  39  68  95 123 172 229 262 311 396
#     4  12  22  38  65  99 126 170 218 268 323 389
#     4  12  22  38  65  96 123 168 217 268 325 385
#
# _framework density 19.227414
#
# number of rings (size 3 to 8) (size 9 to 14) (size 15 to 20)
#    0.000    0.333   10.000    0.000    0.000    0.667 
#    3.000    0.833    0.000    0.000    0.000    0.000 
#    0.000    0.000    0.000    0.000    0.000    0.000 
#
# Total GULP energy -133722.349329 kJ/mol
# GULP energy per Si atom -5571.764555 kJ/mol
# Density = 1.918365 g / cm^3
# Si number density = 19.227414 Si / 1000 Ang^3
#
#
#
# Elastic Constant Matrix: (Units=GPa)
#
#
# Indices 1 2 3 4 5 6 
#
# 1 73.5582 25.9737 33.3093 0.0037 -26.7748 -0.0021
# 2 25.9737 105.0252 53.3825 0.0052 -25.2716 -0.0143
# 3 33.3093 53.3825 71.9150 -0.0065 -38.8769 -0.0144
# 4 0.0037 0.0052 -0.0065 23.9137 -0.0050 -18.4660
# 5 -26.7748 -25.2716 -38.8769 -0.0050 56.2725 -0.0030
# 6 -0.0021 -0.0143 -0.0144 -18.4660 -0.0030 16.6862
#
#
#
# Elastic Compliance Matrix: (Units=1/GPa)
#
#
# Indices 1 2 3 4 5 6 
#
# 1 0.017896 -0.000589 -0.005413 -0.000033 0.004510 -0.000039
# 2 -0.000589 0.015396 -0.012081 -0.000035 -0.001713 -0.000036
# 3 -0.005413 -0.012081 0.033607 0.000218 0.015216 0.000262
# 4 -0.000033 -0.000035 0.000218 0.287505 0.000161 0.318170
# 5 0.004510 -0.001713 0.015216 0.000161 0.029660 0.000196
# 6 -0.000039 -0.000036 0.000262 0.318170 0.000196 0.412036
#
#
# Mechanical properties :
#
#
# Convention : Reuss Voigt Hill
#
# Bulk Modulus (GPa) = 32.54073 52.86991 42.70532
# Shear Modulus (GPa) = 5.93465 28.56335 17.24900
#
# Velocity S-wave (km/s) = 1.75877 3.85847 2.99842
# Velocity P-wave (km/s) = 4.59186 6.88529 5.85203
#
# Compressibility (1/GPa) = 0.03073072
#
# Stress axis : x y z
#
# Youngs Moduli (GPa) = 55.87922 64.95263 29.75598
#
# Poissons Ratio (x) = 0.03825 0.16108
# Poissons Ratio (y) = 0.03291 0.35950
# Poissons Ratio (z) = 0.30250 0.78472
#
# Static dielectric constant tensor:
#      x y z
#    x 1.165170 0.000050 0.096180 
#    y 0.000050 1.662210 -0.000020 
#    z 0.096180 -0.000020 1.690750 
# 
# From -- ./inp_files/206510.got.cif
#   From: 2010.05.17/outbox.cif.g08.bks.cpg/sg15_104_cif.got.tgz:206510.got - 2010.06.03 18:47:42.
