data_PCOD9305407
_publ_section_title
;
Structure prediction by ZEFSAII (Michael W. Deem and Ramdas Pophale) SiO2 
 PCOD9305407
Probable space group: C 2/C
;
_chemical_formula_sum "Si O2"
_cell_formula_units_Z 48
_cell_length_a 20.969389
_cell_length_b 5.915645
_cell_length_c 22.172144
_cell_angle_alpha 90.000000
_cell_angle_beta 129.734597
_cell_angle_gamma 90.000000
_cell_volume 2115.093893
_symmetry_space_group_name_H-M "C 2/C"
_symmetry_group_IT_number 15
_symmetry_cell_setting 'monoclinic'
loop_
_space_group_symop_operation_xyz
x,y,z
-x,y,1/2-z
-x,-y,-z
x,-y,1/2+z
1/2+x,1/2+y,z
1/2-x,1/2+y,1/2-z
1/2-x,1/2-y,-z
1/2+x,1/2-y,1/2+z
loop_
_atom_site_type_symbol
_atom_site_label
_atom_site_fract_x
_atom_site_fract_y
_atom_site_fract_z
Si Si1 0.490393 0.748887 0.460940
Si Si2 0.836623 0.728600 0.490962
Si Si3 0.788006 0.569032 0.067958
Si Si4 0.583235 0.719763 0.763191
Si Si5 0.136590 0.536983 0.699234
Si Si6 0.232471 0.890957 0.820626
O O1 0.500000 0.500000 0.500000
O O2 0.568153 0.753098 0.464090
O O3 0.408612 0.779220 0.370740
O O4 0.500000 0.000000 0.500000
O O5 0.823574 0.638598 0.550011
O O6 0.787633 0.572375 0.413551
O O7 0.793553 0.966781 0.450833
O O8 0.861319 0.659530 0.152475
O O9 0.750000 0.750000 0.000000
O O10 0.500000 0.648918 0.750000
O O11 0.649474 0.539698 0.777128
O O12 0.571532 0.880740 0.696971
O O13 0.192342 0.648400 0.784585
O O14 0.202962 0.419808 0.695203
#
# Coordination Sequence:
#
# PCOD9305407 Si02
#       6
#     8   8   8   8   8   8
#     4  12  30  47  77 113 152 195 254 321 384 453
#     4  11  25  47  71 105 145 199 260 307 390 462
#     4  11  24  44  74 101 142 202 249 313 379 470
#     4  12  27  46  74 108 152 196 256 319 387 458
#     4  12  27  47  76 109 153 195 257 314 398 462
#     4  12  25  45  78 107 146 204 255 317 390 467
#
# _framework density 22.694029
#
# number of rings (size 3 to 8) (size 9 to 14) (size 15 to 20)
#    0.000    0.333    6.667    1.000    9.333    2.000 
#    0.000    0.000    0.000    0.000    0.000    0.000 
#    0.000    0.000    0.000    0.000    0.000    0.000 
#
# Total GULP energy -133675.581855 kJ/mol
# GULP energy per Si atom -5569.815911 kJ/mol
# Density = 2.264238 g / cm^3
# Si number density = 22.694029 Si / 1000 Ang^3
#
#
#
# Elastic Constant Matrix: (Units=GPa)
#
#
# Indices 1 2 3 4 5 6 
#
# 1 121.1618 13.9368 -3.0239 0.0000 18.4198 0.0000
# 2 13.9368 49.0131 4.6924 0.0005 -1.8298 0.0000
# 3 -3.0239 4.6924 58.4192 0.0001 -1.6795 -0.0001
# 4 0.0000 0.0005 0.0001 36.8214 0.0000 -5.2245
# 5 18.4198 -1.8298 -1.6795 0.0000 35.0818 0.0000
# 6 0.0000 0.0000 -0.0001 -5.2245 0.0000 30.9895
#
#
#
# Elastic Compliance Matrix: (Units=1/GPa)
#
#
# Indices 1 2 3 4 5 6 
#
# 1 0.009369 -0.002907 0.000573 0.000000 -0.005043 0.000000
# 2 -0.002907 0.021498 -0.001804 0.000000 0.002561 0.000000
# 3 0.000573 -0.001804 0.017305 0.000000 0.000433 0.000000
# 4 0.000000 0.000000 0.000000 0.027824 0.000000 0.004691
# 5 -0.005043 0.002561 0.000433 0.000000 0.031307 0.000000
# 6 0.000000 0.000000 0.000000 0.004691 0.000000 0.033060
#
#
# Mechanical properties :
#
#
# Convention : Reuss Voigt Hill
#
# Bulk Modulus (GPa) = 25.06483 28.86718 26.96601
# Shear Modulus (GPa) = 30.87652 34.77779 32.82715
#
# Velocity S-wave (km/s) = 3.69257 3.91892 3.80743
# Velocity P-wave (km/s) = 5.40822 5.76411 5.58900
#
# Compressibility (1/GPa) = 0.03989654
#
# Stress axis : x y z
#
# Youngs Moduli (GPa) = 106.73655 46.51666 57.78786
#
# Poissons Ratio (x) = 0.13523 -0.03314
# Poissons Ratio (y) = 0.31030 0.10423
# Poissons Ratio (z) = -0.06121 0.08390
#
# Static dielectric constant tensor:
#      x y z
#    x 1.765100 0.000000 -0.094570 
#    y 0.000000 1.998570 0.000000 
#    z -0.094570 0.000000 1.839870 
# 
# From -- ./inp_files/278816.got.cif
#   From: 2010.05.17/outbox.cif.g08.bks.cpg/sg15_140_cif.got.tgz:278816.got - 2010.06.03 18:47:42.
