data_PCOD9305996
_publ_section_title
;
Structure prediction by ZEFSAII (Michael W. Deem and Ramdas Pophale) SiO2 
 PCOD9305996
Probable space group: C 2/C
;
_chemical_formula_sum "Si O2"
_cell_formula_units_Z 44
_cell_length_a 26.132304
_cell_length_b 4.817932
_cell_length_c 25.159509
_cell_angle_alpha 90.000000
_cell_angle_beta 151.020214
_cell_angle_gamma 90.000000
_cell_volume 1534.741469
_symmetry_space_group_name_H-M "C 2/C"
_symmetry_group_IT_number 15
_symmetry_cell_setting 'monoclinic'
loop_
_space_group_symop_operation_xyz
x,y,z
-x,y,1/2-z
-x,-y,-z
x,-y,1/2+z
1/2+x,1/2+y,z
1/2-x,1/2+y,1/2-z
1/2-x,1/2-y,-z
1/2+x,1/2-y,1/2+z
loop_
_atom_site_type_symbol
_atom_site_label
_atom_site_fract_x
_atom_site_fract_y
_atom_site_fract_z
Si Si1 0.451335 0.064222 0.655282
Si Si2 0.895613 0.042331 0.270523
Si Si3 0.750000 0.750000 0.500000
Si Si4 0.719322 0.909506 0.687551
Si Si5 0.050043 0.179927 0.996726
Si Si6 0.782873 0.173908 0.438506
O O1 0.500000 0.906715 0.750000
O O2 0.527261 0.230654 0.684894
O O3 0.378818 0.292142 0.618378
O O4 0.360968 0.882308 0.542843
O O5 0.804014 0.187794 0.221272
O O6 0.823058 0.844690 0.169082
O O7 0.964947 0.844373 0.372310
O O8 0.751939 0.573519 0.556549
O O9 0.778782 0.170060 0.768022
O O10 0.604341 0.029656 0.565951
O O11 0.153031 0.080527 0.055848
O O12 0.000000 0.000000 0.000000
#
# Coordination Sequence:
#
# PCOD9305996 Si02
#       6
#     8   8   4   8   8   8
#     4  12  28  52  87 122 171 228 298 370 462 539
#     4  11  26  54  84 128 179 237 295 374 467 546
#     4  12  26  52  84 122 174 222 306 366 456 542
#     4  11  26  50  86 125 175 231 301 371 441 552
#     4  11  24  53  83 125 177 239 297 367 461 543
#     4  11  28  53  89 131 174 235 305 383 455 569
#
# _framework density 28.669322999999999
#
# number of rings (size 3 to 8) (size 9 to 14) (size 15 to 20)
#    0.000    0.727    3.636    1.636    2.545    5.818 
#    3.273    0.000    0.000    0.000    0.000    0.000 
#    0.000    0.000    0.000    0.000    0.000    0.000 
#
# Total GULP energy -122726.229674 kJ/mol
# GULP energy per Si atom -5578.464985 kJ/mol
# Density = 2.860407 g / cm^3
# Si number density = 28.669323 Si / 1000 Ang^3
#
#
#
# Elastic Constant Matrix: (Units=GPa)
#
#
# Indices 1 2 3 4 5 6 
#
# 1 200.8410 93.4213 106.5375 -0.0099 26.1809 -0.0048
# 2 93.4213 120.2051 88.1469 -0.0057 18.6984 0.0162
# 3 106.5375 88.1469 181.2341 0.0267 11.3193 0.0187
# 4 -0.0099 -0.0057 0.0267 57.1988 -0.0114 14.2299
# 5 26.1809 18.6984 11.3193 -0.0114 57.0416 -0.0096
# 6 -0.0048 0.0162 0.0187 14.2299 -0.0096 27.1437
#
#
#
# Elastic Compliance Matrix: (Units=1/GPa)
#
#
# Indices 1 2 3 4 5 6 
#
# 1 0.008852 -0.004415 -0.002929 0.000001 -0.002034 0.000005
# 2 -0.004415 0.015671 -0.004893 0.000005 -0.002140 -0.000010
# 3 -0.002929 -0.004893 0.009554 -0.000005 0.001052 -0.000001
# 4 0.000001 0.000005 -0.000005 0.020105 0.000001 -0.010540
# 5 -0.002034 -0.002140 0.001052 0.000001 0.018957 0.000006
# 6 0.000005 -0.000010 -0.000001 -0.010540 0.000006 0.042366
#
#
# Mechanical properties :
#
#
# Convention : Reuss Voigt Hill
#
# Bulk Modulus (GPa) = 104.14078 119.83242 111.98660
# Shear Modulus (GPa) = 34.92100 42.55512 38.73806
#
# Velocity S-wave (km/s) = 3.49386 3.85690 3.67986
# Velocity P-wave (km/s) = 7.25808 7.85640 7.56316
#
# Compressibility (1/GPa) = 0.00960239
#
# Stress axis : x y z
#
# Youngs Moduli (GPa) = 112.97411 63.81054 104.67235
#
# Poissons Ratio (x) = 0.28173 0.30658
# Poissons Ratio (y) = 0.49879 0.51217
# Poissons Ratio (z) = 0.33090 0.31223
#
# Static dielectric constant tensor:
#      x y z
#    x 3.393590 -0.000240 0.309850 
#    y -0.000240 2.398090 -0.000120 
#    z 0.309850 -0.000120 2.516640 
# 
# From -- ./inp_files/319197.got.cif
#   From: 2010.05.17/outbox.cif.g08.bks.cpg/sg15_160_cif.got.tgz:319197.got - 2010.06.03 18:47:42.
