data_PCOD9305082
_publ_section_title
;
Structure prediction by ZEFSAII (Michael W. Deem and Ramdas Pophale) SiO2 
 PCOD9305082
Probable space group: C 2/C
;
_chemical_formula_sum "Si O2"
_cell_formula_units_Z 40
_cell_length_a 8.318225
_cell_length_b 10.519286
_cell_length_c 20.971971
_cell_angle_alpha 90.000000
_cell_angle_beta 116.140878
_cell_angle_gamma 90.000000
_cell_volume 1647.380484
_symmetry_space_group_name_H-M "C 2/C"
_symmetry_group_IT_number 15
_symmetry_cell_setting 'monoclinic'
loop_
_space_group_symop_operation_xyz
x,y,z
-x,y,1/2-z
-x,-y,-z
x,-y,1/2+z
1/2+x,1/2+y,z
1/2-x,1/2+y,1/2-z
1/2-x,1/2-y,-z
1/2+x,1/2-y,1/2+z
loop_
_atom_site_type_symbol
_atom_site_label
_atom_site_fract_x
_atom_site_fract_y
_atom_site_fract_z
Si Si1 0.671271 0.656439 0.234632
Si Si2 0.598237 0.103542 0.561828
Si Si3 0.895188 0.170127 0.986150
Si Si4 0.101884 0.427677 0.200603
Si Si5 0.510784 0.531701 0.896266
O O1 0.500000 0.667945 0.250000
O O2 0.814209 0.566668 0.292759
O O3 0.726284 0.800739 0.228594
O O4 0.603812 0.569360 0.163806
O O5 0.569726 0.241307 0.526001
O O6 0.508562 0.098756 0.616573
O O7 0.811122 0.080038 0.607971
O O8 0.500000 0.000000 0.500000
O O9 0.888564 0.137457 0.909912
O O10 0.750000 0.250000 0.000000
O O11 0.905016 0.044085 0.029795
O O12 0.000000 0.435009 0.250000
#
# Coordination Sequence:
#
# PCOD9305082 Si02
#       5
#     8   8   8   8   8
#     4  11  24  46  71  97 140 183 235 286 355 418
#     4  12  24  44  71 104 138 182 237 285 351 425
#     4  11  24  42  67 102 139 176 226 284 349 412
#     4  11  27  45  71 103 141 184 235 294 353 424
#     4  11  24  42  70  97 136 183 224 286 349 415
#
# _framework density 24.280972999999999
#
# number of rings (size 3 to 8) (size 9 to 14) (size 15 to 20)
#    0.000    0.800    6.000    0.600    2.800    2.400 
#    3.600    0.000    0.000    0.000    0.000    0.000 
#    0.000    0.000    0.000    0.000    0.000    0.000 
#
# Total GULP energy -111595.308218 kJ/mol
# GULP energy per Si atom -5579.765411 kJ/mol
# Density = 2.422571 g / cm^3
# Si number density = 24.280973 Si / 1000 Ang^3
#
#
#
# Elastic Constant Matrix: (Units=GPa)
#
#
# Indices 1 2 3 4 5 6 
#
# 1 70.1254 13.0370 3.3367 0.0000 -19.5721 0.0000
# 2 13.0370 99.6396 -2.2570 0.0000 -11.4347 0.0000
# 3 3.3367 -2.2570 73.9449 0.0000 -32.2209 0.0000
# 4 0.0000 0.0000 0.0000 36.6677 0.0000 -1.3274
# 5 -19.5721 -11.4347 -32.2209 0.0000 34.9651 0.0000
# 6 0.0000 0.0000 0.0000 -1.3274 0.0000 25.4493
#
#
#
# Elastic Compliance Matrix: (Units=1/GPa)
#
#
# Indices 1 2 3 4 5 6 
#
# 1 0.018442 -0.000477 0.005988 0.000000 0.015685 0.000000
# 2 -0.000477 0.010858 0.002981 0.000000 0.006031 0.000000
# 3 0.005988 0.002981 0.025448 0.000000 0.027777 0.000000
# 4 0.000000 0.000000 0.000000 0.027324 0.000000 0.001425
# 5 0.015685 0.006031 0.027777 0.000000 0.064949 0.000000
# 6 0.000000 0.000000 0.000000 0.001425 0.000000 0.039368
#
#
# Mechanical properties :
#
#
# Convention : Reuss Voigt Hill
#
# Bulk Modulus (GPa) = 13.94114 30.21591 22.07852
# Shear Modulus (GPa) = 25.86432 34.72263 30.29347
#
# Velocity S-wave (km/s) = 3.26730 3.78568 3.53600
# Velocity P-wave (km/s) = 4.47076 5.61959 5.07777
#
# Compressibility (1/GPa) = 0.07173016
#
# Stress axis : x y z
#
# Youngs Moduli (GPa) = 54.22526 92.09623 39.29559
#
# Poissons Ratio (x) = 0.04396 -0.23529
# Poissons Ratio (y) = 0.02588 -0.11713
# Poissons Ratio (z) = -0.32468 -0.27451
#
# Static dielectric constant tensor:
#      x y z
#    x 2.131450 0.000000 -0.064500 
#    y 0.000000 2.100670 0.000000 
#    z -0.064500 0.000000 1.980660 
# 
# From -- ./inp_files/229771.got.cif
#   From: 2010.05.17/outbox.cif.g08.bks.cpg/sg15_115_cif.got.tgz:229771.got - 2010.06.03 18:47:42.
