data_PCOD9305768
_publ_section_title
;
Structure prediction by ZEFSAII (Michael W. Deem and Ramdas Pophale) SiO2 
 PCOD9305768
Probable space group: C 2/C
;
_chemical_formula_sum "Si O2"
_cell_formula_units_Z 52
_cell_length_a 18.475786
_cell_length_b 14.569304
_cell_length_c 22.716565
_cell_angle_alpha 90.000000
_cell_angle_beta 154.740523
_cell_angle_gamma 90.000000
_cell_volume 2609.310095
_symmetry_space_group_name_H-M "C 2/C"
_symmetry_group_IT_number 15
_symmetry_cell_setting 'monoclinic'
loop_
_space_group_symop_operation_xyz
x,y,z
-x,y,1/2-z
-x,-y,-z
x,-y,1/2+z
1/2+x,1/2+y,z
1/2-x,1/2+y,1/2-z
1/2-x,1/2-y,-z
1/2+x,1/2-y,1/2+z
loop_
_atom_site_type_symbol
_atom_site_label
_atom_site_fract_x
_atom_site_fract_y
_atom_site_fract_z
Si Si1 0.652052 0.706082 0.563028
Si Si2 0.219830 0.660854 0.017406
Si Si3 0.500000 0.482444 0.750000
Si Si4 0.753108 0.443187 0.341797
Si Si5 0.118332 0.437186 0.668813
Si Si6 0.899710 0.444526 0.232819
Si Si7 0.737687 0.240830 0.726289
O O1 0.722967 0.799301 0.586032
O O2 0.740854 0.618855 0.597873
O O3 0.451586 0.717440 0.410106
O O4 0.707466 0.699054 0.671049
O O5 0.361143 0.583520 0.117675
O O6 0.250000 0.750000 0.000000
O O7 0.037726 0.621150 0.866117
O O8 0.402487 0.538844 0.728784
O O9 0.766996 0.515520 0.297754
O O10 0.753768 0.341083 0.314548
O O11 0.925748 0.456071 0.506362
O O12 0.152977 0.482787 0.757210
O O13 0.144210 0.329053 0.694778
O O14 0.000000 0.482219 0.250000
#
# Coordination Sequence:
#
# PCOD9305768 Si02
#       7
#     8   8   4   8   8   8   8
#     4  12  23  41  69 104 138 178 232 286 354 427
#     4  12  23  38  65 104 141 175 222 288 362 416
#     4  12  26  42  70 100 138 192 226 286 354 424
#     4  11  24  47  71 102 140 187 240 285 355 431
#     4  11  24  47  71  97 145 186 230 297 350 418
#     4  12  24  42  64 104 147 177 227 293 357 421
#     4  12  25  45  74  99 137 193 241 280 347 419
#
# _framework density 19.928639
#
# number of rings (size 3 to 8) (size 9 to 14) (size 15 to 20)
#    0.000    0.308    7.692    1.846    2.154    0.615 
#    4.154    0.769    0.000    0.000    0.000    0.000 
#    0.000    0.000    0.000    0.000    0.000    0.000 
#
# Total GULP energy -145346.230134 kJ/mol
# GULP energy per Si atom -5590.239621 kJ/mol
# Density = 1.988328 g / cm^3
# Si number density = 19.928639 Si / 1000 Ang^3
#
#
#
# Elastic Constant Matrix: (Units=GPa)
#
#
# Indices 1 2 3 4 5 6 
#
# 1 111.4927 30.3388 5.4507 -0.0060 -2.8690 0.0003
# 2 30.3388 70.3066 -8.4052 -0.0254 -3.5261 -0.0056
# 3 5.4507 -8.4052 35.0458 -0.0248 -4.4518 -0.0050
# 4 -0.0060 -0.0254 -0.0248 31.5748 -0.0068 -9.2049
# 5 -2.8690 -3.5261 -4.4518 -0.0068 27.9434 -0.0008
# 6 0.0003 -0.0056 -0.0050 -9.2049 -0.0008 29.7273
#
#
#
# Elastic Compliance Matrix: (Units=1/GPa)
#
#
# Indices 1 2 3 4 5 6 
#
# 1 0.010419 -0.004827 -0.002776 -0.000005 0.000018 -0.000003
# 2 -0.004827 0.017047 0.005154 0.000020 0.002477 0.000011
# 3 -0.002776 0.005154 0.030873 0.000034 0.005284 0.000017
# 4 -0.000005 0.000020 0.000034 0.034813 0.000016 0.010780
# 5 0.000018 0.002477 0.005284 0.000016 0.036943 0.000007
# 6 -0.000003 0.000011 0.000017 0.010780 0.000007 0.036977
#
#
# Mechanical properties :
#
#
# Convention : Reuss Voigt Hill
#
# Bulk Modulus (GPa) = 18.71235 30.17932 24.44583
# Shear Modulus (GPa) = 26.34585 30.47984 28.41284
#
# Velocity S-wave (km/s) = 3.63989 3.91506 3.77998
# Velocity P-wave (km/s) = 5.20338 5.96770 5.59860
#
# Compressibility (1/GPa) = 0.05344065
#
# Stress axis : x y z
#
# Youngs Moduli (GPa) = 95.98003 58.66253 32.39074
#
# Poissons Ratio (x) = 0.28316 0.08991
# Poissons Ratio (y) = 0.46328 -0.16693
# Poissons Ratio (z) = 0.26642 -0.30233
#
# Static dielectric constant tensor:
#      x y z
#    x 1.785990 0.000000 -0.022070 
#    y 0.000000 1.697090 0.000000 
#    z -0.022070 0.000000 1.702000 
# 
# From -- ./inp_files/205777.got.cif
#   From: 2010.05.17/outbox.cif.g08.bks.cpg/sg15_103_cif.got.tgz:205777.got - 2010.06.03 18:47:42.
