data_PCOD9305779
_publ_section_title
;
Structure prediction by ZEFSAII (Michael W. Deem and Ramdas Pophale) SiO2 
 PCOD9305779
Probable space group: C 2/C
;
_chemical_formula_sum "Si O2"
_cell_formula_units_Z 52
_cell_length_a 6.662806
_cell_length_b 16.781550
_cell_length_c 21.420700
_cell_angle_alpha 90.000000
_cell_angle_beta 87.549823
_cell_angle_gamma 90.000000
_cell_volume 2392.906192
_symmetry_space_group_name_H-M "C 2/C"
_symmetry_group_IT_number 15
_symmetry_cell_setting 'monoclinic'
loop_
_space_group_symop_operation_xyz
x,y,z
-x,y,1/2-z
-x,-y,-z
x,-y,1/2+z
1/2+x,1/2+y,z
1/2-x,1/2+y,1/2-z
1/2-x,1/2-y,-z
1/2+x,1/2-y,1/2+z
loop_
_atom_site_type_symbol
_atom_site_label
_atom_site_fract_x
_atom_site_fract_y
_atom_site_fract_z
Si Si1 0.413477 0.309817 0.379390
Si Si2 0.478834 0.850316 0.680548
Si Si3 0.500000 0.399604 0.250000
Si Si4 0.045164 0.589278 0.910715
Si Si5 0.301739 0.657490 0.509367
Si Si6 0.751744 0.505894 0.823352
Si Si7 0.344847 0.442461 0.889562
O O1 0.452257 0.216298 0.369543
O O2 0.478694 0.350155 0.313297
O O3 0.184795 0.335227 0.394108
O O4 0.544644 0.343013 0.434801
O O5 0.500000 0.815335 0.750000
O O6 0.627206 0.924828 0.681382
O O7 0.266908 0.886764 0.660368
O O8 0.308320 0.456517 0.242048
O O9 0.191691 0.512769 0.912724
O O10 0.903050 0.610608 0.970520
O O11 0.889420 0.568181 0.858058
O O12 0.250000 0.750000 0.500000
O O13 0.390844 0.614086 0.447751
O O14 0.544036 0.483945 0.860696
#
# Coordination Sequence:
#
# PCOD9305779 Si02
#       7
#     8   8   4   8   8   8   8
#     4  12  26  45  69 106 140 186 230 292 348 419
#     4  11  25  43  70 103 141 181 233 288 353 414
#     4  12  22  50  70  96 146 176 232 284 338 424
#     4  11  25  45  70 104 135 183 235 283 353 407
#     4  12  26  46  70 102 144 181 235 288 354 411
#     4  11  25  45  72 104 135 183 232 288 350 412
#     4  11  24  47  71  99 139 183 235 289 343 423
#
# _framework density 21.730898
#
# number of rings (size 3 to 8) (size 9 to 14) (size 15 to 20)
#    0.000    0.615    5.385    1.385    4.308    5.538 
#    0.000    1.538    0.000    0.000    0.000    0.000 
#    0.000    0.000    0.000    0.000    0.000    0.000 
#
# Total GULP energy -145416.911563 kJ/mol
# GULP energy per Si atom -5592.958137 kJ/mol
# Density = 2.168144 g / cm^3
# Si number density = 21.730898 Si / 1000 Ang^3
#
#
#
# Elastic Constant Matrix: (Units=GPa)
#
#
# Indices 1 2 3 4 5 6 
#
# 1 106.6763 24.6852 36.6324 0.0000 17.0102 0.0000
# 2 24.6852 62.0568 18.6826 0.0000 18.2066 0.0000
# 3 36.6324 18.6826 108.1931 0.0000 20.5003 0.0000
# 4 0.0000 0.0000 0.0000 41.5098 0.0000 -5.4762
# 5 17.0102 18.2066 20.5003 0.0000 25.1119 0.0000
# 6 0.0000 0.0000 0.0000 -5.4762 0.0000 34.5602
#
#
#
# Elastic Compliance Matrix: (Units=1/GPa)
#
#
# Indices 1 2 3 4 5 6 
#
# 1 0.011517 -0.002697 -0.002752 0.000000 -0.003600 0.000000
# 2 -0.002697 0.021167 -0.000213 0.000000 -0.013345 0.000000
# 3 -0.002752 -0.000213 0.011627 0.000000 -0.007473 0.000000
# 4 0.000000 0.000000 0.000000 0.024605 0.000000 0.003899
# 5 -0.003600 -0.013345 -0.007473 0.000000 0.058037 0.000000
# 6 0.000000 0.000000 0.000000 0.003899 0.000000 0.029553
#
#
# Mechanical properties :
#
#
# Convention : Reuss Voigt Hill
#
# Bulk Modulus (GPa) = 30.31458 48.54738 39.43098
# Shear Modulus (GPa) = 27.96029 33.36479 30.66254
#
# Velocity S-wave (km/s) = 3.59090 3.92262 3.76042
# Velocity P-wave (km/s) = 5.58328 6.55017 6.08595
#
# Compressibility (1/GPa) = 0.03298743
#
# Stress axis : x y z
#
# Youngs Moduli (GPa) = 86.82702 47.24444 86.00439
#
# Poissons Ratio (x) = 0.12741 0.23666
# Poissons Ratio (y) = 0.23415 0.01834
# Poissons Ratio (z) = 0.23893 0.01008
#
# Static dielectric constant tensor:
#      x y z
#    x 1.777510 0.000000 -0.008660 
#    y 0.000000 1.805280 0.000000 
#    z -0.008660 0.000000 1.815050 
# 
# From -- ./inp_files/285780.got.cif
#   From: 2010.05.17/outbox.cif.g08.bks.cpg/sg15_143_cif.got.tgz:285780.got - 2010.06.03 18:47:42.
