data_PCOD9305673
_publ_section_title
;
Structure prediction by ZEFSAII (Michael W. Deem and Ramdas Pophale) SiO2 
 PCOD9305673
Probable space group: C 2/C
;
_chemical_formula_sum "Si O2"
_cell_formula_units_Z 36
_cell_length_a 17.351867
_cell_length_b 9.730505
_cell_length_c 11.706095
_cell_angle_alpha 90.000000
_cell_angle_beta 67.772026
_cell_angle_gamma 90.000000
_cell_volume 1829.604961
_symmetry_space_group_name_H-M "C 2/C"
_symmetry_group_IT_number 15
_symmetry_cell_setting 'monoclinic'
loop_
_space_group_symop_operation_xyz
x,y,z
-x,y,1/2-z
-x,-y,-z
x,-y,1/2+z
1/2+x,1/2+y,z
1/2-x,1/2+y,1/2-z
1/2-x,1/2-y,-z
1/2+x,1/2-y,1/2+z
loop_
_atom_site_type_symbol
_atom_site_label
_atom_site_fract_x
_atom_site_fract_y
_atom_site_fract_z
Si Si1 0.281057 0.839795 0.157240
Si Si2 0.919532 0.571803 0.096709
Si Si3 0.182478 0.199670 0.946572
Si Si4 0.500000 0.755818 0.750000
Si Si5 0.854242 0.105132 0.963293
O O1 0.228660 0.807182 0.298892
O O2 0.217671 0.885005 0.092910
O O3 0.346432 0.960020 0.148454
O O4 0.328093 0.706362 0.081035
O O5 0.888589 0.687311 0.026409
O O6 0.943816 0.647337 0.200668
O O7 0.000000 0.500000 0.000000
O O8 0.250000 0.250000 0.000000
O O9 0.144860 0.051600 0.997185
O O10 0.439095 0.662705 0.860918
#
# Coordination Sequence:
#
# PCOD9305673 Si02
#       5
#     8   8   8   4   8
#     4  11  24  46  73 103 139 189 236 288 356 422
#     4  12  26  47  69 104 140 185 235 293 348 420
#     4  12  26  45  73 106 137 186 246 285 348 430
#     4  12  26  48  70 104 150 182 232 292 366 412
#     4  11  25  46  74 100 146 188 228 296 356 416
#
# _framework density 19.676378
#
# number of rings (size 3 to 8) (size 9 to 14) (size 15 to 20)
#    0.000    0.444    6.667    1.333    6.222    0.889 
#    4.000    0.000    0.000    0.000    0.000    0.000 
#    0.000    0.000    0.000    0.000    0.000    0.000 
#
# Total GULP energy -100738.270090 kJ/mol
# GULP energy per Si atom -5596.570561 kJ/mol
# Density = 1.963159 g / cm^3
# Si number density = 19.676378 Si / 1000 Ang^3
#
#
#
# Elastic Constant Matrix: (Units=GPa)
#
#
# Indices 1 2 3 4 5 6 
#
# 1 109.4083 77.2714 34.1072 0.0000 3.1280 0.0000
# 2 77.2714 177.5644 64.9976 0.0000 -6.6511 0.0000
# 3 34.1072 64.9976 110.8032 0.0000 -11.4291 0.0000
# 4 0.0000 0.0000 0.0000 14.6369 0.0000 0.0098
# 5 3.1280 -6.6511 -11.4291 0.0000 41.9641 0.0000
# 6 0.0000 0.0000 0.0000 0.0098 0.0000 57.3221
#
#
#
# Elastic Compliance Matrix: (Units=1/GPa)
#
#
# Indices 1 2 3 4 5 6 
#
# 1 0.013456 -0.005525 -0.001126 0.000000 -0.002186 0.000000
# 2 -0.005525 0.009441 -0.003745 0.000000 0.000888 0.000000
# 3 -0.001126 -0.003745 0.011849 0.000000 0.002717 0.000000
# 4 0.000000 0.000000 0.000000 0.068320 0.000000 -0.000012
# 5 -0.002186 0.000888 0.002717 0.000000 0.024874 0.000000
# 6 0.000000 0.000000 0.000000 -0.000012 0.000000 0.017445
#
#
# Mechanical properties :
#
#
# Convention : Reuss Voigt Hill
#
# Bulk Modulus (GPa) = 71.67652 83.39204 77.53428
# Shear Modulus (GPa) = 29.26894 37.54460 33.40677
#
# Velocity S-wave (km/s) = 3.86102 4.37293 4.12492
# Velocity P-wave (km/s) = 7.50889 8.24442 7.88523
#
# Compressibility (1/GPa) = 0.01395157
#
# Stress axis : x y z
#
# Youngs Moduli (GPa) = 74.31628 105.92648 84.39459
#
# Poissons Ratio (x) = 0.58527 0.09505
# Poissons Ratio (y) = 0.41062 0.31610
# Poissons Ratio (z) = 0.08370 0.39674
#
# Static dielectric constant tensor:
#      x y z
#    x 1.717670 0.000000 0.001080 
#    y 0.000000 1.684640 0.000000 
#    z 0.001080 0.000000 1.663300 
# 
# From -- ./inp_files/102450.got.cif
#   From: 2010.05.17/outbox.cif.g08.bks.cpg/sg15_52_cif.got.tgz:102450.got - 2010.06.03 18:47:42.
