data_PCOD9305481
_publ_section_title
;
Structure prediction by ZEFSAII (Michael W. Deem and Ramdas Pophale) SiO2 
 PCOD9305481
Probable space group: C 2/C
;
_chemical_formula_sum "Si O2"
_cell_formula_units_Z 44
_cell_length_a 14.349181
_cell_length_b 9.081760
_cell_length_c 19.481847
_cell_angle_alpha 90.000000
_cell_angle_beta 127.413671
_cell_angle_gamma 90.000000
_cell_volume 2016.486157
_symmetry_space_group_name_H-M "C 2/C"
_symmetry_group_IT_number 15
_symmetry_cell_setting 'monoclinic'
loop_
_space_group_symop_operation_xyz
x,y,z
-x,y,1/2-z
-x,-y,-z
x,-y,1/2+z
1/2+x,1/2+y,z
1/2-x,1/2+y,1/2-z
1/2-x,1/2-y,-z
1/2+x,1/2-y,1/2+z
loop_
_atom_site_type_symbol
_atom_site_label
_atom_site_fract_x
_atom_site_fract_y
_atom_site_fract_z
Si Si1 0.167998 0.567668 0.760287
Si Si2 0.827956 0.636072 0.114166
Si Si3 0.000000 0.889215 0.250000
Si Si4 0.611927 0.385305 0.694642
Si Si5 0.494204 0.925466 0.572171
Si Si6 0.946616 0.158754 0.477278
O O1 0.140323 0.499485 0.821735
O O2 0.289617 0.491595 0.793097
O O3 0.164402 0.744471 0.758384
O O4 0.080376 0.498151 0.664858
O O5 0.871235 0.588918 0.058079
O O6 0.688952 0.661989 0.059233
O O7 0.899163 0.778644 0.175348
O O8 0.037835 0.002772 0.207356
O O9 0.550160 0.304671 0.602257
O O10 0.520882 0.758201 0.562146
O O11 0.500000 0.000000 0.500000
O O12 0.000000 0.000000 0.500000
#
# Coordination Sequence:
#
# PCOD9305481 Si02
#       6
#     8   8   4   8   8   8
#     4  11  24  45  69  99 140 187 238 283 348 425
#     4  11  25  46  73  97 139 192 232 283 350 423
#     4  12  24  42  76 100 136 180 248 282 344 416
#     4  11  25  42  68 100 134 185 235 288 346 424
#     4  12  24  43  68 100 143 180 228 292 354 406
#     4  11  25  44  68 100 141 182 234 285 358 415
#
# _framework density 21.820135000000001
#
# number of rings (size 3 to 8) (size 9 to 14) (size 15 to 20)
#    0.000    0.727    3.636    3.818    7.636    0.000 
#    0.000    0.909    0.000    0.000    0.000    0.000 
#    0.000    0.000    0.000    0.000    0.000    0.000 
#
# Total GULP energy -122779.146460 kJ/mol
# GULP energy per Si atom -5580.870294 kJ/mol
# Density = 2.177047 g / cm^3
# Si number density = 21.820135 Si / 1000 Ang^3
#
#
#
# Elastic Constant Matrix: (Units=GPa)
#
#
# Indices 1 2 3 4 5 6 
#
# 1 98.0297 45.9014 44.3986 0.0000 -27.1826 0.0000
# 2 45.9014 156.3241 26.9055 0.0000 -5.3623 0.0000
# 3 44.3986 26.9055 74.8924 0.0000 -14.9094 0.0000
# 4 0.0000 0.0000 0.0000 42.4228 0.0000 -5.7371
# 5 -27.1826 -5.3623 -14.9094 0.0000 45.8575 0.0000
# 6 0.0000 0.0000 0.0000 -5.7371 0.0000 22.6891
#
#
#
# Elastic Compliance Matrix: (Units=1/GPa)
#
#
# Indices 1 2 3 4 5 6 
#
# 1 0.017317 -0.003536 -0.007521 0.000000 0.007406 0.000000
# 2 -0.003536 0.007541 -0.000914 0.000000 -0.001511 0.000000
# 3 -0.007521 -0.000914 0.018423 0.000000 0.001425 0.000000
# 4 0.000000 0.000000 0.000000 0.024407 0.000000 0.006171
# 5 0.007406 -0.001511 0.001425 0.000000 0.026483 0.000000
# 6 0.000000 0.000000 0.000000 0.006171 0.000000 0.045635
#
#
# Mechanical properties :
#
#
# Convention : Reuss Voigt Hill
#
# Bulk Modulus (GPa) = 51.70969 62.62857 57.16913
# Shear Modulus (GPa) = 29.37837 36.32992 32.85415
#
# Velocity S-wave (km/s) = 3.67330 4.08483 3.88452
# Velocity P-wave (km/s) = 6.46068 7.14229 6.81002
#
# Compressibility (1/GPa) = 0.01933873
#
# Stress axis : x y z
#
# Youngs Moduli (GPa) = 57.74742 132.61399 54.27967
#
# Poissons Ratio (x) = 0.46895 0.40825
# Poissons Ratio (y) = 0.20421 0.04959
# Poissons Ratio (z) = 0.43433 0.12115
#
# Static dielectric constant tensor:
#      x y z
#    x 1.827390 0.000000 0.028670 
#    y 0.000000 1.827320 0.000000 
#    z 0.028670 0.000000 1.711310 
# 
# From -- ./inp_files/202644.got.cif
#   From: 2010.05.17/outbox.cif.g08.bks.cpg/sg15_102_cif.got.tgz:202644.got - 2010.06.03 18:47:42.
