data_PCOD9305503
_publ_section_title
;
Structure prediction by ZEFSAII (Michael W. Deem and Ramdas Pophale) SiO2 
 PCOD9305503
Probable space group: C 2/C
;
_chemical_formula_sum "Si O2"
_cell_formula_units_Z 52
_cell_length_a 6.631144
_cell_length_b 27.119032
_cell_length_c 17.908637
_cell_angle_alpha 90.000000
_cell_angle_beta 125.198529
_cell_angle_gamma 90.000000
_cell_volume 2631.674153
_symmetry_space_group_name_H-M "C 2/C"
_symmetry_group_IT_number 15
_symmetry_cell_setting 'monoclinic'
loop_
_space_group_symop_operation_xyz
x,y,z
-x,y,1/2-z
-x,-y,-z
x,-y,1/2+z
1/2+x,1/2+y,z
1/2-x,1/2+y,1/2-z
1/2-x,1/2-y,-z
1/2+x,1/2-y,1/2+z
loop_
_atom_site_type_symbol
_atom_site_label
_atom_site_fract_x
_atom_site_fract_y
_atom_site_fract_z
Si Si1 0.083652 0.072528 0.577274
Si Si2 0.328383 0.157359 0.011164
Si Si3 0.287267 0.196665 0.834028
Si Si4 0.243182 0.193506 0.150275
Si Si5 0.500000 0.871085 0.250000
Si Si6 0.617979 0.381409 0.854933
Si Si7 0.268152 0.523181 0.042384
O O1 0.272486 0.094871 0.677102
O O2 0.223812 0.056879 0.530954
O O3 0.869899 0.113325 0.521650
O O4 0.953545 0.022279 0.574673
O O5 0.287296 0.194925 0.070825
O O6 0.603534 0.137223 0.080175
O O7 0.308711 0.178677 0.923745
O O8 0.363266 0.254022 0.845999
O O9 0.434901 0.163024 0.807212
O O10 0.000000 0.194402 0.750000
O O11 0.500000 0.185176 0.250000
O O12 0.055937 0.149223 0.126574
O O13 0.500000 0.371644 0.750000
O O14 0.634953 0.439334 0.874733
O O15 0.000000 0.500000 0.000000
#
# Coordination Sequence:
#
# PCOD9305503 Si02
#       7
#     8   8   8   8   4   8   8
#     4  11  25  44  70  99 136 182 229 296 348 420
#     4  12  23  46  71 101 145 184 232 289 361 417
#     4  11  26  44  72 102 141 187 234 294 355 426
#     4  11  25  45  70 102 141 183 242 289 351 427
#     4  12  26  46  70 104 144 178 244 290 358 422
#     4  12  25  42  69 101 138 184 228 292 351 419
#     4  11  24  45  70  98 137 181 236 289 357 421
#
# _framework density 19.759284999999998
#
# number of rings (size 3 to 8) (size 9 to 14) (size 15 to 20)
#    0.000    0.615    6.154    1.385    1.077    1.846 
#    1.385    0.000    0.000    0.000    0.000    0.000 
#    0.000    0.000    0.000    0.000    0.000    0.000 
#
# Total GULP energy -145318.384390 kJ/mol
# GULP energy per Si atom -5589.168630 kJ/mol
# Density = 1.971431 g / cm^3
# Si number density = 19.759285 Si / 1000 Ang^3
#
#
#
# Elastic Constant Matrix: (Units=GPa)
#
#
# Indices 1 2 3 4 5 6 
#
# 1 90.1504 34.3135 48.1932 0.0000 -1.4676 0.0000
# 2 34.3135 97.8505 41.7707 0.0000 6.4327 0.0000
# 3 48.1932 41.7707 136.7765 0.0000 0.5210 0.0000
# 4 0.0000 0.0000 0.0000 30.2324 0.0000 -7.3420
# 5 -1.4676 6.4327 0.5210 0.0000 36.6247 0.0000
# 6 0.0000 0.0000 0.0000 -7.3420 0.0000 22.1646
#
#
#
# Elastic Compliance Matrix: (Units=1/GPa)
#
#
# Indices 1 2 3 4 5 6 
#
# 1 0.014622 -0.003459 -0.004100 0.000000 0.001252 0.000000
# 2 -0.003459 0.012720 -0.002657 0.000000 -0.002335 0.000000
# 3 -0.004100 -0.002657 0.009567 0.000000 0.000166 0.000000
# 4 0.000000 0.000000 0.000000 0.035971 0.000000 0.011915
# 5 0.001252 -0.002335 0.000166 0.000000 0.027762 0.000000
# 6 0.000000 0.000000 0.000000 0.011915 0.000000 0.049064
#
#
# Mechanical properties :
#
#
# Convention : Reuss Voigt Hill
#
# Bulk Modulus (GPa) = 60.69549 63.70358 62.19953
# Shear Modulus (GPa) = 28.46888 31.17099 29.81993
#
# Velocity S-wave (km/s) = 3.79988 3.97613 3.88901
# Velocity P-wave (km/s) = 7.07363 7.30680 7.19116
#
# Compressibility (1/GPa) = 0.01647569
#
# Stress axis : x y z
#
# Youngs Moduli (GPa) = 68.39198 78.61329 104.52930
#
# Poissons Ratio (x) = 0.27195 0.42859
# Poissons Ratio (y) = 0.23659 0.27773
# Poissons Ratio (z) = 0.28042 0.20887
#
# Static dielectric constant tensor:
#      x y z
#    x 1.702780 0.000000 -0.029880 
#    y 0.000000 1.687490 0.000000 
#    z -0.029880 0.000000 1.674880 
# 
# From -- ./inp_files/186300.got.cif
#   From: 2010.05.17/outbox.cif.g08.bks.cpg/sg15_94_cif.got.tgz:186300.got - 2010.06.03 18:47:42.
