data_PCOD9305785
_publ_section_title
;
Structure prediction by ZEFSAII (Michael W. Deem and Ramdas Pophale) SiO2 
 PCOD9305785
Probable space group: C 2/C
;
_chemical_formula_sum "Si O2"
_cell_formula_units_Z 48
_cell_length_a 13.141693
_cell_length_b 11.785316
_cell_length_c 19.371983
_cell_angle_alpha 90.000000
_cell_angle_beta 135.525560
_cell_angle_gamma 90.000000
_cell_volume 2101.992626
_symmetry_space_group_name_H-M "C 2/C"
_symmetry_group_IT_number 15
_symmetry_cell_setting 'monoclinic'
loop_
_space_group_symop_operation_xyz
x,y,z
-x,y,1/2-z
-x,-y,-z
x,-y,1/2+z
1/2+x,1/2+y,z
1/2-x,1/2+y,1/2-z
1/2-x,1/2-y,-z
1/2+x,1/2-y,1/2+z
loop_
_atom_site_type_symbol
_atom_site_label
_atom_site_fract_x
_atom_site_fract_y
_atom_site_fract_z
Si Si1 0.090294 0.878035 0.362088
Si Si2 0.330439 0.524473 0.403221
Si Si3 0.618071 0.833233 0.251595
Si Si4 0.631547 0.868605 0.929795
Si Si5 0.621806 0.420006 0.719866
Si Si6 0.085498 0.473213 0.111103
O O1 0.264311 0.885352 0.453178
O O2 0.077669 0.761194 0.399884
O O3 0.000000 0.849885 0.250000
O O4 0.020971 0.999664 0.349920
O O5 0.500000 0.500000 0.500000
O O6 0.258755 0.406020 0.341834
O O7 0.233336 0.583772 0.416161
O O8 0.333048 0.602545 0.336911
O O9 0.500000 0.872590 0.250000
O O10 0.624852 0.698117 0.260619
O O11 0.576748 0.858407 0.151598
O O12 0.489203 0.942488 0.869474
O O13 0.746585 0.496409 0.813872
O O14 0.000000 0.500000 0.000000
#
# Coordination Sequence:
#
# PCOD9305785 Si02
#       6
#     8   8   8   8   8   8
#     4  11  25  43  71 103 146 183 239 298 364 426
#     4  11  24  47  72 103 145 194 246 297 367 437
#     4  11  25  46  74 104 147 194 242 300 372 437
#     4  11  25  45  73 106 140 192 242 297 365 440
#     4  11  26  43  73 105 146 189 244 297 367 438
#     4  11  26  46  71 104 145 184 246 299 369 431
#
# _framework density 22.835474000000001
#
# number of rings (size 3 to 8) (size 9 to 14) (size 15 to 20)
#    0.000    1.000    3.333    1.500    9.333    4.000 
#    0.000    2.500    0.000    0.000    0.000    0.000 
#    0.000    0.000    0.000    0.000    0.000    0.000 
#
# Total GULP energy -133748.562488 kJ/mol
# GULP energy per Si atom -5572.856770 kJ/mol
# Density = 2.278350 g / cm^3
# Si number density = 22.835474 Si / 1000 Ang^3
#
#
#
# Elastic Constant Matrix: (Units=GPa)
#
#
# Indices 1 2 3 4 5 6 
#
# 1 55.6093 31.8421 33.1552 0.0000 1.0659 0.0000
# 2 31.8421 129.3716 15.2082 0.0000 8.3665 0.0000
# 3 33.1552 15.2082 126.3416 0.0000 -6.4770 0.0000
# 4 0.0000 0.0000 0.0000 31.2246 0.0000 1.8895
# 5 1.0659 8.3665 -6.4770 0.0000 43.4158 0.0000
# 6 0.0000 0.0000 0.0000 1.8895 0.0000 26.1008
#
#
#
# Elastic Compliance Matrix: (Units=1/GPa)
#
#
# Indices 1 2 3 4 5 6 
#
# 1 0.024502 -0.005319 -0.005812 0.000000 -0.000444 0.000000
# 2 -0.005319 0.009116 0.000217 0.000000 -0.001594 0.000000
# 3 -0.005812 0.000217 0.009492 0.000000 0.001517 0.000000
# 4 0.000000 0.000000 0.000000 0.032167 0.000000 -0.002329
# 5 -0.000444 -0.001594 0.001517 0.000000 0.023577 0.000000
# 6 0.000000 0.000000 0.000000 -0.002329 0.000000 0.038482
#
#
# Mechanical properties :
#
#
# Convention : Reuss Voigt Hill
#
# Bulk Modulus (GPa) = 46.98906 52.41481 49.70194
# Shear Modulus (GPa) = 30.07352 35.55606 32.81479
#
# Velocity S-wave (km/s) = 3.63294 3.95023 3.79490
# Velocity P-wave (km/s) = 6.18220 6.61883 6.40423
#
# Compressibility (1/GPa) = 0.02128155
#
# Stress axis : x y z
#
# Youngs Moduli (GPa) = 40.81282 109.69284 105.35101
#
# Poissons Ratio (x) = 0.58342 0.61235
# Poissons Ratio (y) = 0.21707 -0.02283
# Poissons Ratio (z) = 0.23722 -0.02377
#
# Static dielectric constant tensor:
#      x y z
#    x 1.923570 0.000000 -0.071920 
#    y 0.000000 1.866420 0.000000 
#    z -0.071920 0.000000 1.883020 
# 
# From -- ./inp_files/243977.got.cif
#   From: 2010.05.17/outbox.cif.g08.bks.cpg/sg15_122_cif.got.tgz:243977.got - 2010.06.03 18:47:42.
