data_PCOD9305811
_publ_section_title
;
Structure prediction by ZEFSAII (Michael W. Deem and Ramdas Pophale) SiO2 
 PCOD9305811
Probable space group: C 2/C
;
_chemical_formula_sum "Si O2"
_cell_formula_units_Z 40
_cell_length_a 21.462861
_cell_length_b 15.385267
_cell_length_c 9.659450
_cell_angle_alpha 90.000000
_cell_angle_beta 32.417156
_cell_angle_gamma 90.000000
_cell_volume 1709.914203
_symmetry_space_group_name_H-M "C 2/C"
_symmetry_group_IT_number 15
_symmetry_cell_setting 'monoclinic'
loop_
_space_group_symop_operation_xyz
x,y,z
-x,y,1/2-z
-x,-y,-z
x,-y,1/2+z
1/2+x,1/2+y,z
1/2-x,1/2+y,1/2-z
1/2-x,1/2-y,-z
1/2+x,1/2-y,1/2+z
loop_
_atom_site_type_symbol
_atom_site_label
_atom_site_fract_x
_atom_site_fract_y
_atom_site_fract_z
Si Si1 0.890972 0.057588 0.671584
Si Si2 0.886444 0.253108 0.709965
Si Si3 0.198249 0.319211 0.907557
Si Si4 0.252372 0.007832 0.807534
Si Si5 0.889037 0.677889 0.613079
O O1 0.926160 0.154478 0.644328
O O2 0.850430 0.051470 0.589407
O O3 0.788610 0.023388 0.964272
O O4 0.000000 0.000000 0.500000
O O5 0.887099 0.284404 0.550824
O O6 0.972171 0.308590 0.645073
O O7 0.750000 0.250000 0.000000
O O8 0.220542 0.418806 0.823434
O O9 0.313234 0.256871 0.689187
O O10 0.147739 0.316441 0.155901
O O11 0.348549 0.083206 0.637215
#
# Coordination Sequence:
#
# PCOD9305811 Si02
#       5
#     8   8   8   8   8
#     4  12  26  45  75 112 153 195 254 311 377 454
#     4  12  26  47  72 107 149 200 252 307 378 452
#     4  11  24  47  74 110 148 194 259 306 385 445
#     4  12  24  47  74 112 150 198 256 310 381 451
#     4  11  26  45  76 109 151 199 249 322 373 452
#
# _framework density 23.392987999999999
#
# number of rings (size 3 to 8) (size 9 to 14) (size 15 to 20)
#    0.000    0.400    6.000    2.400    2.800    3.200 
#    0.000    0.000    0.000    0.000    0.000    0.000 
#    0.000    0.000    0.000    0.000    0.000    0.000 
#
# Total GULP energy -111959.506785 kJ/mol
# GULP energy per Si atom -5597.975339 kJ/mol
# Density = 2.333974 g / cm^3
# Si number density = 23.392988 Si / 1000 Ang^3
#
#
#
# Elastic Constant Matrix: (Units=GPa)
#
#
# Indices 1 2 3 4 5 6 
#
# 1 117.7933 39.5031 19.5564 0.0000 -18.8424 0.0000
# 2 39.5031 164.2464 27.1006 0.0000 -24.7423 0.0000
# 3 19.5564 27.1006 61.6759 0.0000 -19.6510 0.0000
# 4 0.0000 0.0000 0.0000 34.1755 0.0000 -3.8948
# 5 -18.8424 -24.7423 -19.6510 0.0000 41.7481 0.0000
# 6 0.0000 0.0000 0.0000 -3.8948 0.0000 47.9380
#
#
#
# Elastic Compliance Matrix: (Units=1/GPa)
#
#
# Indices 1 2 3 4 5 6 
#
# 1 0.009734 -0.001690 -0.001486 0.000000 0.002692 0.000000
# 2 -0.001690 0.007189 -0.001775 0.000000 0.002662 0.000000
# 3 -0.001486 -0.001775 0.019900 0.000000 0.007645 0.000000
# 4 0.000000 0.000000 0.000000 0.029534 0.000000 0.002400
# 5 0.002692 0.002662 0.007645 0.000000 0.030344 0.000000
# 6 0.000000 0.000000 0.000000 0.002400 0.000000 0.021055
#
#
# Mechanical properties :
#
#
# Convention : Reuss Voigt Hill
#
# Bulk Modulus (GPa) = 37.14542 57.33731 47.24137
# Shear Modulus (GPa) = 36.59460 41.94269 39.26864
#
# Velocity S-wave (km/s) = 3.95947 4.23893 4.10158
# Velocity P-wave (km/s) = 6.06766 6.96575 6.53216
#
# Compressibility (1/GPa) = 0.02692122
#
# Stress axis : x y z
#
# Youngs Moduli (GPa) = 102.73665 139.10495 50.25001
#
# Poissons Ratio (x) = 0.23514 0.07467
# Poissons Ratio (y) = 0.17366 0.08917
# Poissons Ratio (z) = 0.15266 0.24685
#
# Static dielectric constant tensor:
#      x y z
#    x 1.853560 0.000000 0.041740 
#    y 0.000000 1.860510 0.000000 
#    z 0.041740 0.000000 1.953950 
# 
# From -- ./inp_files/113583.got.cif
#   From: 2010.05.17/outbox.cif.g08.bks.cpg/sg15_57_cif.got.tgz:113583.got - 2010.06.03 18:47:42.
