data_PCOD9305343
_publ_section_title
;
Structure prediction by ZEFSAII (Michael W. Deem and Ramdas Pophale) SiO2 
 PCOD9305343
Probable space group: C 2/C
;
_chemical_formula_sum "Si O2"
_cell_formula_units_Z 52
_cell_length_a 9.075260
_cell_length_b 18.955954
_cell_length_c 16.159663
_cell_angle_alpha 90.000000
_cell_angle_beta 64.414986
_cell_angle_gamma 90.000000
_cell_volume 2507.363634
_symmetry_space_group_name_H-M "C 2/C"
_symmetry_group_IT_number 15
_symmetry_cell_setting 'monoclinic'
loop_
_space_group_symop_operation_xyz
x,y,z
-x,y,1/2-z
-x,-y,-z
x,-y,1/2+z
1/2+x,1/2+y,z
1/2-x,1/2+y,1/2-z
1/2-x,1/2-y,-z
1/2+x,1/2-y,1/2+z
loop_
_atom_site_type_symbol
_atom_site_label
_atom_site_fract_x
_atom_site_fract_y
_atom_site_fract_z
Si Si1 0.328949 0.373704 0.181710
Si Si2 0.729877 0.305382 0.929991
Si Si3 0.624077 0.049543 0.070600
Si Si4 0.500000 0.951673 0.250000
Si Si5 0.275202 0.062440 0.093024
Si Si6 0.000000 0.983739 0.250000
Si Si7 0.636709 0.682648 0.013303
Si Si8 0.000000 0.756446 0.250000
O O1 0.451965 0.434854 0.183445
O O2 0.389261 0.306309 0.218691
O O3 0.147237 0.402050 0.246775
O O4 0.337374 0.352867 0.083437
O O5 0.748974 0.387247 0.949444
O O6 0.551577 0.295221 0.935367
O O7 0.876247 0.289639 0.832483
O O8 0.750000 0.250000 0.000000
O O9 0.450889 0.083602 0.086219
O O10 0.582164 0.001320 0.160337
O O11 0.685802 0.997982 0.983738
O O12 0.156929 0.030037 0.190368
O O13 0.184997 0.125609 0.069701
O O14 0.750000 0.750000 0.000000
#
# Coordination Sequence:
#
# PCOD9305343 Si02
#       8
#     8   8   8   4   8   4   8   4
#     4  11  25  45  71 105 138 190 235 294 362 423
#     4  12  26  46  71 102 145 189 239 297 357 433
#     4  11  25  44  71 102 140 186 234 293 357 425
#     4  12  23  44  76 104 143 184 244 298 355 426
#     4  11  25  43  70 103 141 181 231 294 356 418
#     4  11  24  44  70 104 143 174 240 294 349 430
#     4  12  27  48  72 102 145 189 243 296 362 428
#     4  11  27  46  72 102 146 190 240 290 368 430
#
# _framework density 20.738914000000001
#
# number of rings (size 3 to 8) (size 9 to 14) (size 15 to 20)
#    0.000    0.615    4.615    2.308    6.462    2.462 
#    0.000    0.000    0.000    0.000    0.000    0.000 
#    0.000    0.000    0.000    0.000    0.000    0.000 
#
# Total GULP energy -145458.388612 kJ/mol
# GULP energy per Si atom -5594.553408 kJ/mol
# Density = 2.069171 g / cm^3
# Si number density = 20.738914 Si / 1000 Ang^3
#
#
#
# Elastic Constant Matrix: (Units=GPa)
#
#
# Indices 1 2 3 4 5 6 
#
# 1 132.4081 44.8605 13.2544 0.0000 -18.3201 0.0000
# 2 44.8605 81.4378 23.2171 0.0000 -2.8678 0.0000
# 3 13.2544 23.2171 89.7963 0.0000 -9.5173 0.0000
# 4 0.0000 0.0000 0.0000 29.0105 0.0000 -7.3022
# 5 -18.3201 -2.8678 -9.5173 0.0000 35.9958 0.0000
# 6 0.0000 0.0000 0.0000 -7.3022 0.0000 40.5110
#
#
#
# Elastic Compliance Matrix: (Units=1/GPa)
#
#
# Indices 1 2 3 4 5 6 
#
# 1 0.010027 -0.005482 0.000444 0.000000 0.004784 0.000000
# 2 -0.005482 0.016254 -0.003654 0.000000 -0.002461 0.000000
# 3 0.000444 -0.003654 0.012355 0.000000 0.003202 0.000000
# 4 0.000000 0.000000 0.000000 0.036108 0.000000 0.006509
# 5 0.004784 -0.002461 0.003202 0.000000 0.030866 0.000000
# 6 0.000000 0.000000 0.000000 0.006509 0.000000 0.025858
#
#
# Mechanical properties :
#
#
# Convention : Reuss Voigt Hill
#
# Bulk Modulus (GPa) = 47.05272 51.81179 49.43225
# Shear Modulus (GPa) = 32.06442 35.92417 33.99429
#
# Velocity S-wave (km/s) = 3.93631 4.16650 4.05304
# Velocity P-wave (km/s) = 6.58762 6.94143 6.76684
#
# Compressibility (1/GPa) = 0.02125276
#
# Stress axis : x y z
#
# Youngs Moduli (GPa) = 99.72997 61.52310 80.93971
#
# Poissons Ratio (x) = 0.33725 -0.03596
# Poissons Ratio (y) = 0.54669 0.29577
# Poissons Ratio (z) = -0.04431 0.22482
#
# Static dielectric constant tensor:
#      x y z
#    x 1.750330 0.000000 0.010510 
#    y 0.000000 1.826540 0.000000 
#    z 0.010510 0.000000 1.724000 
# 
# From -- ./inp_files/190877.got.cif
#   From: 2010.05.17/outbox.cif.g08.bks.cpg/sg15_96_cif.got.tgz:190877.got - 2010.06.03 18:47:42.
