data_PCOD9305037
_publ_section_title
;
Structure prediction by ZEFSAII (Michael W. Deem and Ramdas Pophale) SiO2 
 PCOD9305037
Probable space group: C 2/C
;
_chemical_formula_sum "Si O2"
_cell_formula_units_Z 40
_cell_length_a 17.529048
_cell_length_b 7.641260
_cell_length_c 13.098845
_cell_angle_alpha 90.000000
_cell_angle_beta 80.524288
_cell_angle_gamma 90.000000
_cell_volume 1730.572393
_symmetry_space_group_name_H-M "C 2/C"
_symmetry_group_IT_number 15
_symmetry_cell_setting 'monoclinic'
loop_
_space_group_symop_operation_xyz
x,y,z
-x,y,1/2-z
-x,-y,-z
x,-y,1/2+z
1/2+x,1/2+y,z
1/2-x,1/2+y,1/2-z
1/2-x,1/2-y,-z
1/2+x,1/2-y,1/2+z
loop_
_atom_site_type_symbol
_atom_site_label
_atom_site_fract_x
_atom_site_fract_y
_atom_site_fract_z
Si Si1 0.427745 0.369322 0.032094
Si Si2 0.800680 0.760592 0.388216
Si Si3 0.031711 0.351455 0.637339
Si Si4 0.079167 0.746058 0.684727
Si Si5 0.191641 0.953164 0.784530
O O1 0.466126 0.191797 0.069725
O O2 0.364505 0.445403 0.123840
O O3 0.500000 0.500000 0.000000
O O4 0.395667 0.332412 0.927051
O O5 0.750000 0.750000 0.500000
O O6 0.888334 0.741516 0.404953
O O7 0.793118 0.928224 0.317412
O O8 0.769788 0.603659 0.323244
O O9 0.055010 0.549953 0.658239
O O10 0.000000 0.272855 0.750000
O O11 0.000000 0.825250 0.750000
O O12 0.144472 0.783194 0.754266
#
# Coordination Sequence:
#
# PCOD9305037 Si02
#       5
#     8   8   8   8   8
#     4  12  23  42  73 104 140 186 246 301 358 433
#     4  12  27  46  72 104 148 191 242 302 368 436
#     4  11  24  46  71 103 139 187 243 295 358 436
#     4  11  24  41  70 104 140 184 242 298 360 430
#     4  12  25  46  70 104 150 192 238 302 367 430
#
# _framework density 23.11374
#
# number of rings (size 3 to 8) (size 9 to 14) (size 15 to 20)
#    0.000    0.400    4.000    5.400    0.000    1.600 
#    0.000    4.000    0.000    0.000    0.000    0.000 
#    0.000    0.000    0.000    0.000    0.000    0.000 
#
# Total GULP energy -111879.657807 kJ/mol
# GULP energy per Si atom -5593.982890 kJ/mol
# Density = 2.306113 g / cm^3
# Si number density = 23.113740 Si / 1000 Ang^3
#
#
#
# Elastic Constant Matrix: (Units=GPa)
#
#
# Indices 1 2 3 4 5 6 
#
# 1 78.8098 10.9280 27.4708 0.0000 7.6483 0.0000
# 2 10.9280 91.8703 23.3178 0.0000 -1.7720 0.0000
# 3 27.4708 23.3178 132.3555 0.0000 -5.4751 0.0000
# 4 0.0000 0.0000 0.0000 26.5052 0.0000 8.1755
# 5 7.6483 -1.7720 -5.4751 0.0000 35.9794 0.0000
# 6 0.0000 0.0000 0.0000 8.1755 0.0000 34.1755
#
#
#
# Elastic Compliance Matrix: (Units=1/GPa)
#
#
# Indices 1 2 3 4 5 6 
#
# 1 0.014185 -0.001016 -0.002910 0.000000 -0.003508 0.000000
# 2 -0.001016 0.011470 -0.001789 0.000000 0.000509 0.000000
# 3 -0.002910 -0.001789 0.008550 0.000000 0.001832 0.000000
# 4 0.000000 0.000000 0.000000 0.040734 0.000000 -0.009744
# 5 -0.003508 0.000509 0.001832 0.000000 0.028843 0.000000
# 6 0.000000 0.000000 0.000000 -0.009744 0.000000 0.031592
#
#
# Mechanical properties :
#
#
# Convention : Reuss Voigt Hill
#
# Bulk Modulus (GPa) = 43.90924 47.38541 45.64732
# Shear Modulus (GPa) = 32.38441 35.41994 33.90218
#
# Velocity S-wave (km/s) = 3.74717 3.91886 3.83398
# Velocity P-wave (km/s) = 6.14492 6.40485 6.27623
#
# Compressibility (1/GPa) = 0.02277425
#
# Stress axis : x y z
#
# Youngs Moduli (GPa) = 70.49927 87.18694 116.95486
#
# Poissons Ratio (x) = 0.08861 0.34035
# Poissons Ratio (y) = 0.07165 0.20920
# Poissons Ratio (z) = 0.20516 0.15595
#
# Static dielectric constant tensor:
#      x y z
#    x 1.664560 0.000000 -0.015200 
#    y 0.000000 1.971410 0.000000 
#    z -0.015200 0.000000 1.830100 
# 
# From -- ./inp_files/102682.got.cif
#   From: 2010.05.17/outbox.cif.g08.bks.cpg/sg15_52_cif.got.tgz:102682.got - 2010.06.03 18:47:42.
