data_PCOD9305315
_publ_section_title
;
Structure prediction by ZEFSAII (Michael W. Deem and Ramdas Pophale) SiO2 
 PCOD9305315
Probable space group: C 2/C
;
_chemical_formula_sum "Si O2"
_cell_formula_units_Z 44
_cell_length_a 28.308628
_cell_length_b 9.679169
_cell_length_c 20.156890
_cell_angle_alpha 90.000000
_cell_angle_beta 19.683211
_cell_angle_gamma 90.000000
_cell_volume 1860.276418
_symmetry_space_group_name_H-M "C 2/C"
_symmetry_group_IT_number 15
_symmetry_cell_setting 'monoclinic'
loop_
_space_group_symop_operation_xyz
x,y,z
-x,y,1/2-z
-x,-y,-z
x,-y,1/2+z
1/2+x,1/2+y,z
1/2-x,1/2+y,1/2-z
1/2-x,1/2-y,-z
1/2+x,1/2-y,1/2+z
loop_
_atom_site_type_symbol
_atom_site_label
_atom_site_fract_x
_atom_site_fract_y
_atom_site_fract_z
Si Si1 0.867762 0.493668 0.551246
Si Si2 0.110652 0.983034 0.796421
Si Si3 0.000000 0.178145 0.750000
Si Si4 0.067468 0.725841 0.289348
Si Si5 0.746227 0.031540 0.149849
Si Si6 0.864308 0.699201 0.795335
O O1 0.761673 0.471682 0.631432
O O2 0.702072 0.958510 0.785037
O O3 0.913566 0.654827 0.495666
O O4 0.008966 0.403564 0.352094
O O5 0.096764 0.118571 0.771240
O O6 0.070407 0.842536 0.813767
O O7 0.000000 0.000000 0.000000
O O8 0.907467 0.272596 0.823074
O O9 0.099274 0.082277 0.573899
O O10 0.150608 0.632993 0.231683
O O11 0.713156 0.880877 0.162701
O O12 0.750000 0.750000 0.000000
#
# Coordination Sequence:
#
# PCOD9305315 Si02
#       6
#     8   8   4   8   8   8
#     4  11  26  48  72  99 145 192 231 298 367 419
#     4  12  25  43  72 107 138 184 244 291 351 433
#     4  12  24  40  70 104 136 182 240 298 348 418
#     4  11  24  44  69 100 137 185 240 288 350 427
#     4  11  24  45  68  98 140 186 231 291 360 424
#     4  11  26  46  69 102 141 182 235 297 359 426
#
# _framework density 23.6524
#
# number of rings (size 3 to 8) (size 9 to 14) (size 15 to 20)
#    0.000    0.727    0.000    8.182    0.000   12.364 
#    0.000    0.000    0.000    0.000    0.000    0.000 
#    0.000    0.000    0.000    0.000    0.000    0.000 
#
# Total GULP energy -123026.379735 kJ/mol
# GULP energy per Si atom -5592.108170 kJ/mol
# Density = 2.359857 g / cm^3
# Si number density = 23.652400 Si / 1000 Ang^3
#
#
#
# Elastic Constant Matrix: (Units=GPa)
#
#
# Indices 1 2 3 4 5 6 
#
# 1 99.2067 31.9049 13.4087 0.0000 -3.1217 0.0000
# 2 31.9049 133.2270 5.2096 0.0000 -9.0857 -0.0001
# 3 13.4087 5.2096 86.9255 0.0000 0.8872 0.0000
# 4 0.0000 0.0000 0.0000 42.0709 0.0000 5.6048
# 5 -3.1217 -9.0857 0.8872 0.0000 49.6131 0.0000
# 6 0.0000 -0.0001 0.0000 5.6048 0.0000 23.0038
#
#
#
# Elastic Compliance Matrix: (Units=1/GPa)
#
#
# Indices 1 2 3 4 5 6 
#
# 1 0.011131 -0.002587 -0.001565 0.000000 0.000255 0.000000
# 2 -0.002587 0.008221 -0.000107 0.000000 0.001345 0.000000
# 3 -0.001565 -0.000107 0.011755 0.000000 -0.000328 0.000000
# 4 0.000000 0.000000 0.000000 0.024567 0.000000 -0.005986
# 5 0.000255 0.001345 -0.000328 0.000000 0.020424 0.000000
# 6 0.000000 0.000000 0.000000 -0.005986 0.000000 0.044929
#
#
# Mechanical properties :
#
#
# Convention : Reuss Voigt Hill
#
# Bulk Modulus (GPa) = 44.26774 46.71173 45.48973
# Shear Modulus (GPa) = 36.47591 40.85999 38.66795
#
# Velocity S-wave (km/s) = 3.93130 4.16085 4.04770
# Velocity P-wave (km/s) = 6.27403 6.54796 6.41246
#
# Compressibility (1/GPa) = 0.02258982
#
# Stress axis : x y z
#
# Youngs Moduli (GPa) = 89.83524 121.63282 85.06841
#
# Poissons Ratio (x) = 0.31469 0.13310
# Poissons Ratio (y) = 0.23242 0.00913
# Poissons Ratio (z) = 0.14056 0.01306
#
# Static dielectric constant tensor:
#      x y z
#    x 1.834870 0.000000 -0.044720 
#    y 0.000000 1.887700 0.000000 
#    z -0.044720 0.000000 1.960050 
# 
# From -- ./inp_files/284382.got.cif
#   From: 2010.05.17/outbox.cif.g08.bks.cpg/sg15_143_cif.got.tgz:284382.got - 2010.06.03 18:47:42.
