data_PCOD9305121
_publ_section_title
;
Structure prediction by ZEFSAII (Michael W. Deem and Ramdas Pophale) SiO2 
 PCOD9305121
Probable space group: C 2/C
;
_chemical_formula_sum "Si O2"
_cell_formula_units_Z 52
_cell_length_a 19.645286
_cell_length_b 26.093323
_cell_length_c 5.609831
_cell_angle_alpha 90.000000
_cell_angle_beta 57.288249
_cell_angle_gamma 90.000000
_cell_volume 2419.580152
_symmetry_space_group_name_H-M "C 2/C"
_symmetry_group_IT_number 15
_symmetry_cell_setting 'monoclinic'
loop_
_space_group_symop_operation_xyz
x,y,z
-x,y,1/2-z
-x,-y,-z
x,-y,1/2+z
1/2+x,1/2+y,z
1/2-x,1/2+y,1/2-z
1/2-x,1/2-y,-z
1/2+x,1/2-y,1/2+z
loop_
_atom_site_type_symbol
_atom_site_label
_atom_site_fract_x
_atom_site_fract_y
_atom_site_fract_z
Si Si1 0.000000 0.259623 0.750000
Si Si2 0.347039 0.899421 0.575556
Si Si3 0.204199 0.202256 0.699451
Si Si4 0.158763 0.891496 0.930266
Si Si5 0.000000 0.033630 0.750000
Si Si6 0.000000 0.471553 0.250000
Si Si7 0.639763 0.841012 0.440065
Si Si8 0.429637 0.681283 0.251312
O O1 0.075949 0.297193 0.623780
O O2 0.022503 0.219781 0.504280
O O3 0.250821 0.913286 0.729231
O O4 0.414484 0.942437 0.425843
O O5 0.373161 0.864742 0.297019
O O6 0.357131 0.875809 0.824286
O O7 0.250000 0.250000 0.500000
O O8 0.173170 0.154920 0.594658
O O9 0.271049 0.181299 0.750325
O O10 0.125665 0.218361 0.987827
O O11 0.127752 0.859482 0.763158
O O12 0.083484 0.931340 0.112119
O O13 0.000000 0.000000 0.500000
O O14 0.000000 0.500000 0.500000
O O15 0.500000 0.650609 0.250000
#
# Coordination Sequence:
#
# PCOD9305121 Si02
#       8
#     4   8   8   8   4   4   8   8
#     4  12  27  37  62 100 146 200 244 297 353 434
#     4  11  25  47  75 103 140 187 234 298 378 447
#     4  11  24  42  70 105 149 201 254 307 372 454
#     4  11  26  48  72 107 148 200 251 322 389 456
#     4  12  31  50  80 110 148 200 270 332 399 462
#     4  12  26  47  78 110 138 168 222 299 374 462
#     4  11  24  43  66 100 142 191 240 289 349 434
#     4  12  24  41  66  99 148 195 254 300 375 437
#
# _framework density 21.491330999999999
#
# number of rings (size 3 to 8) (size 9 to 14) (size 15 to 20)
#    0.000    0.615    1.538    6.000    9.692    2.462 
#    0.000    0.000    0.000    0.000    0.000    0.000 
#    0.000    0.000    0.000    0.000    0.000    0.000 
#
# Total GULP energy -144805.774384 kJ/mol
# GULP energy per Si atom -5569.452861 kJ/mol
# Density = 2.144242 g / cm^3
# Si number density = 21.491331 Si / 1000 Ang^3
#
#
#
# Elastic Constant Matrix: (Units=GPa)
#
#
# Indices 1 2 3 4 5 6 
#
# 1 118.5613 46.2501 45.9096 0.0000 -30.9068 0.0000
# 2 46.2501 79.2619 48.7359 0.0000 -14.2602 0.0000
# 3 45.9096 48.7359 147.7453 0.0000 -24.2040 0.0000
# 4 0.0000 0.0000 0.0000 -100.2711 0.0000 -24.9435
# 5 -30.9068 -14.2602 -24.2040 0.0000 45.0188 0.0000
# 6 0.0000 0.0000 0.0000 -24.9435 0.0000 5.7690
#
#
#
# Elastic Compliance Matrix: (Units=1/GPa)
#
#
# Indices 1 2 3 4 5 6 
#
# 1 0.012691 -0.005615 -0.001048 0.000000 0.006371 0.000000
# 2 -0.005615 0.018555 -0.004435 0.000000 -0.000362 0.000000
# 3 -0.001048 -0.004435 0.009002 0.000000 0.002716 0.000000
# 4 0.000000 0.000000 0.000000 -0.004805 0.000000 -0.020775
# 5 0.006371 -0.000362 0.002716 0.000000 0.027932 0.000000
# 6 0.000000 0.000000 0.000000 -0.020775 0.000000 0.083515
#
#
# Mechanical properties :
#
#
# Convention : Reuss Voigt Hill
#
# Bulk Modulus (GPa) = 55.39485 69.70663 62.55074
# Shear Modulus (GPa) = 28.55458 3.74821 16.15139
#
# Velocity S-wave (km/s) = 3.64903 1.32206 2.74438
# Velocity P-wave (km/s) = 6.60191 5.90217 6.26182
#
# Compressibility (1/GPa) = 0.01805222
#
# Stress axis : x y z
#
# Youngs Moduli (GPa) = 78.79352 53.89467 111.08888
#
# Poissons Ratio (x) = 0.30262 0.11639
# Poissons Ratio (y) = 0.44243 0.49268
# Poissons Ratio (z) = 0.08255 0.23902
#
# Static dielectric constant tensor:
#      x y z
#    x 2.607700 0.000000 -0.349060 
#    y 0.000000 1.866500 0.000000 
#    z -0.349060 0.000000 2.032640 
# 
# From -- ./inp_files/11474.got.cif
#   From: 2010.05.17/outbox.cif.g08.bks.cpg/sg15_6_cif.got.tgz:11474.got - 2010.06.03 18:47:42.
