data_PCOD9305047
_publ_section_title
;
Structure prediction by ZEFSAII (Michael W. Deem and Ramdas Pophale) SiO2 
 PCOD9305047
Probable space group: C 2/C
;
_chemical_formula_sum "Si O2"
_cell_formula_units_Z 44
_cell_length_a 8.621263
_cell_length_b 14.844175
_cell_length_c 15.184575
_cell_angle_alpha 90.000000
_cell_angle_beta 66.572678
_cell_angle_gamma 90.000000
_cell_volume 1783.062248
_symmetry_space_group_name_H-M "C 2/C"
_symmetry_group_IT_number 15
_symmetry_cell_setting 'monoclinic'
loop_
_space_group_symop_operation_xyz
x,y,z
-x,y,1/2-z
-x,-y,-z
x,-y,1/2+z
1/2+x,1/2+y,z
1/2-x,1/2+y,1/2-z
1/2-x,1/2-y,-z
1/2+x,1/2-y,1/2+z
loop_
_atom_site_type_symbol
_atom_site_label
_atom_site_fract_x
_atom_site_fract_y
_atom_site_fract_z
Si Si1 0.890263 0.017357 0.908504
Si Si2 0.239049 0.044107 0.751582
Si Si3 0.377222 0.859202 0.521773
Si Si4 0.000000 0.596693 0.250000
Si Si5 0.846226 0.280855 0.337072
Si Si6 0.294034 0.847626 0.953934
O O1 0.821550 0.062097 0.833318
O O2 0.083994 0.000769 0.840745
O O3 0.772252 0.931657 0.952513
O O4 0.865062 0.087943 0.992895
O O5 0.292988 0.133919 0.790385
O O6 0.389328 0.971949 0.716332
O O7 0.307484 0.785060 0.606507
O O8 0.404551 0.815769 0.419780
O O9 0.555392 0.889735 0.520189
O O10 0.129199 0.652296 0.160927
O O11 0.000000 0.234568 0.250000
O O12 0.250000 0.750000 0.000000
#
# Coordination Sequence:
#
# PCOD9305047 Si02
#       6
#     8   8   8   4   8   8
#     4  11  25  46  72 100 149 184 238 295 365 424
#     4  11  24  45  72 107 136 190 235 298 353 435
#     4  11  25  44  68 102 139 188 235 295 356 427
#     4  12  26  44  74 100 140 186 244 292 358 428
#     4  11  24  41  71  99 140 181 238 292 355 423
#     4  12  27  45  70 103 145 188 240 300 362 427
#
# _framework density 24.676649000000001
#
# number of rings (size 3 to 8) (size 9 to 14) (size 15 to 20)
#    0.000    0.727    2.727    3.818    2.545   10.182 
#    0.000    0.000    0.000    0.000    0.000    0.000 
#    0.000    0.000    0.000    0.000    0.000    0.000 
#
# Total GULP energy -123296.605522 kJ/mol
# GULP energy per Si atom -5604.391160 kJ/mol
# Density = 2.462048 g / cm^3
# Si number density = 24.676649 Si / 1000 Ang^3
#
#
#
# Elastic Constant Matrix: (Units=GPa)
#
#
# Indices 1 2 3 4 5 6 
#
# 1 47.2541 -13.4562 8.6443 0.0000 -10.0967 0.0000
# 2 -13.4562 82.5200 39.5911 0.0000 -12.2151 0.0000
# 3 8.6443 39.5911 180.3110 0.0000 -20.4959 0.0000
# 4 0.0000 0.0000 0.0000 45.6046 0.0000 -11.1079
# 5 -10.0967 -12.2151 -20.4959 0.0000 41.7154 0.0000
# 6 0.0000 0.0000 0.0000 -11.1079 0.0000 23.3134
#
#
#
# Elastic Compliance Matrix: (Units=1/GPa)
#
#
# Indices 1 2 3 4 5 6 
#
# 1 0.024589 0.005828 -0.001682 0.000000 0.006832 0.000000
# 2 0.005828 0.015209 -0.003127 0.000000 0.004328 0.000000
# 3 -0.001682 -0.003127 0.006527 0.000000 0.001884 0.000000
# 4 0.000000 0.000000 0.000000 0.024806 0.000000 0.011819
# 5 0.006832 0.004328 0.001884 0.000000 0.027819 0.000000
# 6 0.000000 0.000000 0.000000 0.011819 0.000000 0.048525
#
#
# Mechanical properties :
#
#
# Convention : Reuss Voigt Hill
#
# Bulk Modulus (GPa) = 20.67664 42.18262 31.42963
# Shear Modulus (GPa) = 30.94833 40.48041 35.71437
#
# Velocity S-wave (km/s) = 3.54525 4.05462 3.80846
# Velocity P-wave (km/s) = 5.01553 6.24909 5.66598
#
# Compressibility (1/GPa) = 0.04836377
#
# Stress axis : x y z
#
# Youngs Moduli (GPa) = 40.66847 65.74844 153.20027
#
# Poissons Ratio (x) = -0.38317 0.25767
# Poissons Ratio (y) = -0.23701 0.47906
# Poissons Ratio (z) = 0.06840 0.20560
#
# Static dielectric constant tensor:
#      x y z
#    x 1.966110 0.000000 -0.016910 
#    y 0.000000 1.906410 0.000000 
#    z -0.016910 0.000000 1.958390 
# 
# From -- ./inp_files/134762.got.cif
#   From: 2010.05.17/outbox.cif.g08.bks.cpg/sg15_68_cif.got.tgz:134762.got - 2010.06.03 18:47:42.
