data_PCOD9305327
_publ_section_title
;
Structure prediction by ZEFSAII (Michael W. Deem and Ramdas Pophale) SiO2 
 PCOD9305327
Probable space group: C 2/C
;
_chemical_formula_sum "Si O2"
_cell_formula_units_Z 44
_cell_length_a 10.668002
_cell_length_b 9.606493
_cell_length_c 25.611193
_cell_angle_alpha 90.000000
_cell_angle_beta 134.906820
_cell_angle_gamma 90.000000
_cell_volume 1858.950882
_symmetry_space_group_name_H-M "C 2/C"
_symmetry_group_IT_number 15
_symmetry_cell_setting 'monoclinic'
loop_
_space_group_symop_operation_xyz
x,y,z
-x,y,1/2-z
-x,-y,-z
x,-y,1/2+z
1/2+x,1/2+y,z
1/2-x,1/2+y,1/2-z
1/2-x,1/2-y,-z
1/2+x,1/2-y,1/2+z
loop_
_atom_site_type_symbol
_atom_site_label
_atom_site_fract_x
_atom_site_fract_y
_atom_site_fract_z
Si Si1 0.054695 0.713047 0.681764
Si Si2 0.953189 0.261353 0.819321
Si Si3 0.081729 0.660675 0.966883
Si Si4 0.000000 0.508847 0.750000
Si Si5 0.496209 0.136290 0.052278
Si Si6 0.106903 0.977499 0.833543
O O1 0.252862 0.702797 0.762099
O O2 0.933625 0.623991 0.686678
O O3 0.044618 0.656545 0.620456
O O4 0.991489 0.871875 0.656512
O O5 0.025679 0.292512 0.898554
O O6 0.938117 0.394307 0.775935
O O7 0.077361 0.139271 0.834439
O O8 0.129985 0.498025 0.989499
O O9 0.250000 0.750000 0.000000
O O10 0.996101 0.712765 0.996138
O O11 0.695414 0.075599 0.113283
O O12 0.000000 0.944285 0.750000
#
# Coordination Sequence:
#
# PCOD9305327 Si02
#       6
#     8   8   8   4   8   8
#     4  12  23  44  69  98 136 176 222 279 339 396
#     4  12  25  42  70 106 131 172 227 284 336 394
#     4  11  24  44  69  94 137 186 221 270 337 406
#     4  12  24  40  70  98 132 168 222 278 332 392
#     4  11  24  45  67  94 138 181 221 276 338 399
#     4  12  22  41  69 100 135 171 223 286 338 387
#
# _framework density 23.669266
#
# number of rings (size 3 to 8) (size 9 to 14) (size 15 to 20)
#    0.000    0.364    7.273    2.182    0.000    0.000 
#    0.000    6.364    0.000    0.000    0.000    0.000 
#    0.000    0.000    0.000    0.000    0.000    0.000 
#
# Total GULP energy -122654.470177 kJ/mol
# GULP energy per Si atom -5575.203190 kJ/mol
# Density = 2.361539 g / cm^3
# Si number density = 23.669266 Si / 1000 Ang^3
#
#
#
# Elastic Constant Matrix: (Units=GPa)
#
#
# Indices 1 2 3 4 5 6 
#
# 1 71.3556 23.9107 27.3703 0.0000 -26.8692 0.0000
# 2 23.9107 84.7829 14.4358 0.0000 -3.8157 0.0000
# 3 27.3703 14.4358 86.9700 0.0000 -49.1666 0.0000
# 4 0.0000 0.0000 0.0000 38.2098 0.0000 -9.5312
# 5 -26.8692 -3.8157 -49.1666 0.0000 51.1491 0.0000
# 6 0.0000 0.0000 0.0000 -9.5312 0.0000 44.0122
#
#
#
# Elastic Compliance Matrix: (Units=1/GPa)
#
#
# Indices 1 2 3 4 5 6 
#
# 1 0.019410 -0.005113 0.000632 0.000000 0.010423 0.000000
# 2 -0.005113 0.013605 -0.003491 0.000000 -0.005026 0.000000
# 3 0.000632 -0.003491 0.026105 0.000000 0.025165 0.000000
# 4 0.000000 0.000000 0.000000 0.027666 0.000000 0.005991
# 5 0.010423 -0.005026 0.025165 0.000000 0.048841 0.000000
# 6 0.000000 0.000000 0.000000 0.005991 0.000000 0.024018
#
#
# Mechanical properties :
#
#
# Convention : Reuss Voigt Hill
#
# Bulk Modulus (GPa) = 23.15997 41.61578 32.38787
# Shear Modulus (GPa) = 26.31876 38.50034 32.40955
#
# Velocity S-wave (km/s) = 3.33819 4.03748 3.70438
# Velocity P-wave (km/s) = 4.96630 6.27339 5.65772
#
# Compressibility (1/GPa) = 0.04317795
#
# Stress axis : x y z
#
# Youngs Moduli (GPa) = 51.52093 73.50329 38.30663
#
# Poissons Ratio (x) = 0.37579 -0.02422
# Poissons Ratio (y) = 0.26340 0.13371
# Poissons Ratio (z) = -0.03258 0.25657
#
# Static dielectric constant tensor:
#      x y z
#    x 1.935830 0.000000 -0.014110 
#    y 0.000000 1.940890 0.000000 
#    z -0.014110 0.000000 1.991170 
# 
# From -- ./inp_files/236050.got.cif
#   From: 2010.05.17/outbox.cif.g08.bks.cpg/sg15_119_cif.got.tgz:236050.got - 2010.06.03 18:47:42.
