data_PCOD9305149
_publ_section_title
;
Structure prediction by ZEFSAII (Michael W. Deem and Ramdas Pophale) SiO2 
 PCOD9305149
Probable space group: C 2/C
;
_chemical_formula_sum "Si O2"
_cell_formula_units_Z 48
_cell_length_a 25.632680
_cell_length_b 9.648282
_cell_length_c 13.452517
_cell_angle_alpha 90.000000
_cell_angle_beta 138.697461
_cell_angle_gamma 90.000000
_cell_volume 2195.909777
_symmetry_space_group_name_H-M "C 2/C"
_symmetry_group_IT_number 15
_symmetry_cell_setting 'monoclinic'
loop_
_space_group_symop_operation_xyz
x,y,z
-x,y,1/2-z
-x,-y,-z
x,-y,1/2+z
1/2+x,1/2+y,z
1/2-x,1/2+y,1/2-z
1/2-x,1/2-y,-z
1/2+x,1/2-y,1/2+z
loop_
_atom_site_type_symbol
_atom_site_label
_atom_site_fract_x
_atom_site_fract_y
_atom_site_fract_z
Si Si1 0.420545 0.020560 0.782881
Si Si2 0.334398 0.733934 0.672757
Si Si3 0.404073 0.052702 0.525492
Si Si4 0.825656 0.169990 0.881905
Si Si5 0.910681 0.911719 0.095468
Si Si6 0.848936 0.301645 0.344222
O O1 0.403543 0.030520 0.641765
O O2 0.515345 0.007592 0.914812
O O3 0.390482 0.154471 0.800835
O O4 0.374842 0.882734 0.753210
O O5 0.250000 0.750000 0.500000
O O6 0.324868 0.650543 0.761615
O O7 0.385019 0.660088 0.660880
O O8 0.391420 0.213303 0.491776
O O9 0.340463 0.948604 0.389527
O O10 0.742702 0.238472 0.797948
O O11 0.852475 0.036170 0.981251
O O12 0.000000 0.956779 0.250000
O O13 0.898583 0.800778 0.987190
#
# Coordination Sequence:
#
# PCOD9305149 Si02
#       6
#     8   8   8   8   8   8
#     4  11  24  42  77 102 135 187 249 299 348 430
#     4  12  23  47  74 103 144 192 241 304 366 426
#     4  11  24  44  72 104 134 181 250 295 350 432
#     4  12  27  44  71 105 146 189 240 298 366 435
#     4  12  28  44  70 109 150 185 235 301 378 429
#     4  12  23  45  73 102 137 192 246 289 354 441
#
# _framework density 21.858822
#
# number of rings (size 3 to 8) (size 9 to 14) (size 15 to 20)
#    0.000    0.333    5.000    3.500    4.667    2.667 
#    0.000    0.000    0.000    0.000    0.000    0.000 
#    0.000    0.000    0.000    0.000    0.000    0.000 
#
# Total GULP energy -134067.745458 kJ/mol
# GULP energy per Si atom -5586.156061 kJ/mol
# Density = 2.180907 g / cm^3
# Si number density = 21.858822 Si / 1000 Ang^3
#
#
#
# Elastic Constant Matrix: (Units=GPa)
#
#
# Indices 1 2 3 4 5 6 
#
# 1 82.6723 -14.9588 20.3632 0.0000 -7.3626 0.0000
# 2 -14.9588 57.2106 11.3385 0.0000 -5.8574 0.0000
# 3 20.3632 11.3385 75.4784 0.0000 10.2111 0.0000
# 4 0.0000 0.0000 0.0000 35.1295 0.0000 -5.0808
# 5 -7.3626 -5.8574 10.2111 0.0000 31.4993 0.0000
# 6 0.0000 0.0000 0.0000 -5.0808 0.0000 32.3302
#
#
#
# Elastic Compliance Matrix: (Units=1/GPa)
#
#
# Indices 1 2 3 4 5 6 
#
# 1 0.015162 0.005789 -0.005842 0.000000 0.006514 0.000000
# 2 0.005789 0.020835 -0.005646 0.000000 0.007058 0.000000
# 3 -0.005842 -0.005646 0.016734 0.000000 -0.007840 0.000000
# 4 0.000000 0.000000 0.000000 0.029128 0.000000 0.004578
# 5 0.006514 0.007058 -0.007840 0.000000 0.037123 0.000000
# 6 0.000000 0.000000 0.000000 0.004578 0.000000 0.031650
#
#
# Mechanical properties :
#
#
# Convention : Reuss Voigt Hill
#
# Bulk Modulus (GPa) = 24.19377 27.64968 25.92173
# Shear Modulus (GPa) = 28.44016 33.03302 30.73659
#
# Velocity S-wave (km/s) = 3.61097 3.89163 3.75392
# Velocity P-wave (km/s) = 5.33645 5.73321 5.53838
#
# Compressibility (1/GPa) = 0.04133295
#
# Stress axis : x y z
#
# Youngs Moduli (GPa) = 65.95249 47.99701 59.75983
#
# Poissons Ratio (x) = -0.27786 0.34909
# Poissons Ratio (y) = -0.38181 0.33743
# Poissons Ratio (z) = 0.38527 0.27101
#
# Static dielectric constant tensor:
#      x y z
#    x 2.076040 0.000000 0.096430 
#    y 0.000000 1.765530 0.000000 
#    z 0.096430 0.000000 1.885800 
# 
# From -- ./inp_files/176968.got.cif
#   From: 2010.05.17/outbox.cif.g08.bks.cpg/sg15_89_cif.got.tgz:176968.got - 2010.06.03 18:47:42.
