data_PCOD9305882
_publ_section_title
;
Structure prediction by ZEFSAII (Michael W. Deem and Ramdas Pophale) SiO2 
 PCOD9305882
Probable space group: C 2/C
;
_chemical_formula_sum "Si O2"
_cell_formula_units_Z 48
_cell_length_a 17.903182
_cell_length_b 5.317576
_cell_length_c 21.259872
_cell_angle_alpha 90.000000
_cell_angle_beta 118.571355
_cell_angle_gamma 90.000000
_cell_volume 1777.497435
_symmetry_space_group_name_H-M "C 2/C"
_symmetry_group_IT_number 15
_symmetry_cell_setting 'monoclinic'
loop_
_space_group_symop_operation_xyz
x,y,z
-x,y,1/2-z
-x,-y,-z
x,-y,1/2+z
1/2+x,1/2+y,z
1/2-x,1/2+y,1/2-z
1/2-x,1/2-y,-z
1/2+x,1/2-y,1/2+z
loop_
_atom_site_type_symbol
_atom_site_label
_atom_site_fract_x
_atom_site_fract_y
_atom_site_fract_z
Si Si1 0.436132 0.525898 0.169250
Si Si2 0.341294 0.875058 0.039067
Si Si3 0.297788 0.135553 0.261226
Si Si4 0.467966 0.190403 0.388314
Si Si5 0.095450 0.690478 0.544676
Si Si6 0.287883 0.797722 0.627385
O O1 0.500000 0.609722 0.250000
O O2 0.412026 0.724756 0.106028
O O3 0.482950 0.286708 0.154290
O O4 0.341786 0.458609 0.156948
O O5 0.319287 0.118085 0.071815
O O6 0.250000 0.750000 0.000000
O O7 0.372743 0.946480 0.982856
O O8 0.236407 0.374807 0.224607
O O9 0.371628 0.259483 0.332536
O O10 0.324427 0.050827 0.201609
O O11 0.525497 0.300066 0.468183
O O12 0.446774 0.910635 0.408484
O O13 0.185848 0.826848 0.587018
#
# Coordination Sequence:
#
# PCOD9305882 Si02
#       6
#     8   8   8   8   8   8
#     4  12  26  46  72 112 147 200 264 326 398 480
#     4  12  26  42  77 106 148 200 261 323 401 478
#     4  12  29  51  79 115 159 210 265 327 406 478
#     4  11  25  47  72 110 153 197 260 329 387 476
#     4  11  24  48  72 109 151 200 261 320 407 477
#     4  12  25  49  76 103 157 202 260 324 406 482
#
# _framework density 27.004259999999999
#
# number of rings (size 3 to 8) (size 9 to 14) (size 15 to 20)
#    0.000    0.333    6.667    1.500    4.667    4.000 
#    0.000    0.000    0.000    0.000    0.000    0.000 
#    0.000    0.000    0.000    0.000    0.000    0.000 
#
# Total GULP energy -133836.726731 kJ/mol
# GULP energy per Si atom -5576.530280 kJ/mol
# Density = 2.694280 g / cm^3
# Si number density = 27.004260 Si / 1000 Ang^3
#
#
#
# Elastic Constant Matrix: (Units=GPa)
#
#
# Indices 1 2 3 4 5 6 
#
# 1 49.6488 10.2843 52.4618 0.0002 19.7354 0.0000
# 2 10.2843 53.8880 27.5493 0.0003 12.6630 0.0003
# 3 52.4618 27.5493 158.4403 0.0000 44.8828 0.0000
# 4 0.0002 0.0003 0.0000 36.8943 0.0000 -13.7050
# 5 19.7354 12.6630 44.8828 0.0000 55.8942 0.0001
# 6 0.0000 0.0003 0.0000 -13.7050 0.0001 35.9704
#
#
#
# Elastic Compliance Matrix: (Units=1/GPa)
#
#
# Indices 1 2 3 4 5 6 
#
# 1 0.031526 -0.000399 -0.009374 0.000000 -0.003514 0.000000
# 2 -0.000399 0.020602 -0.002806 0.000000 -0.002273 0.000000
# 3 -0.009374 -0.002806 0.011373 0.000000 -0.005187 0.000000
# 4 0.000000 0.000000 0.000000 0.031573 0.000000 0.012029
# 5 -0.003514 -0.002273 -0.005187 0.000000 0.023811 0.000000
# 6 0.000000 0.000000 0.000000 0.012029 0.000000 0.032384
#
#
# Mechanical properties :
#
#
# Convention : Reuss Voigt Hill
#
# Bulk Modulus (GPa) = 26.08067 49.17422 37.62744
# Shear Modulus (GPa) = 26.42607 37.19724 31.81165
#
# Velocity S-wave (km/s) = 3.13163 3.71544 3.43596
# Velocity P-wave (km/s) = 4.77023 6.05436 5.45025
#
# Compressibility (1/GPa) = 0.03834258
#
# Stress axis : x y z
#
# Youngs Moduli (GPa) = 31.72007 48.53913 87.93091
#
# Poissons Ratio (x) = 0.01935 0.82426
# Poissons Ratio (y) = 0.01264 0.24676
# Poissons Ratio (z) = 0.29734 0.13621
#
# Static dielectric constant tensor:
#      x y z
#    x 2.197770 0.000000 -0.048500 
#    y 0.000000 2.259250 0.000000 
#    z -0.048500 0.000000 2.123730 
# 
# From -- ./inp_files/279042.got.cif
#   From: 2010.05.17/outbox.cif.g08.bks.cpg/sg15_140_cif.got.tgz:279042.got - 2010.06.03 18:47:42.
