data_PCOD9305235
_publ_section_title
;
Structure prediction by ZEFSAII (Michael W. Deem and Ramdas Pophale) SiO2 
 PCOD9305235
Probable space group: C 2/C
;
_chemical_formula_sum "Si O2"
_cell_formula_units_Z 44
_cell_length_a 14.836731
_cell_length_b 10.168480
_cell_length_c 12.844256
_cell_angle_alpha 90.000000
_cell_angle_beta 75.100774
_cell_angle_gamma 90.000000
_cell_volume 1872.625559
_symmetry_space_group_name_H-M "C 2/C"
_symmetry_group_IT_number 15
_symmetry_cell_setting 'monoclinic'
loop_
_space_group_symop_operation_xyz
x,y,z
-x,y,1/2-z
-x,-y,-z
x,-y,1/2+z
1/2+x,1/2+y,z
1/2-x,1/2+y,1/2-z
1/2-x,1/2-y,-z
1/2+x,1/2-y,1/2+z
loop_
_atom_site_type_symbol
_atom_site_label
_atom_site_fract_x
_atom_site_fract_y
_atom_site_fract_z
Si Si1 0.831857 0.191808 0.717043
Si Si2 0.396669 0.422753 0.777386
Si Si3 0.000000 0.652583 0.250000
Si Si4 0.710854 0.579571 0.989231
Si Si5 0.666426 0.699155 0.398892
Si Si6 0.094696 0.460497 0.531764
O O1 0.933081 0.258363 0.697429
O O2 0.798329 0.171770 0.609029
O O3 0.763850 0.272371 0.812310
O O4 0.832483 0.044405 0.762515
O O5 0.500000 0.477981 0.750000
O O6 0.399342 0.321190 0.681640
O O7 0.356578 0.374577 0.898095
O O8 0.064496 0.563435 0.158996
O O9 0.674391 0.433987 0.963575
O O10 0.816805 0.557748 0.996101
O O11 0.632635 0.821948 0.475522
O O12 0.000000 0.500000 0.500000
#
# Coordination Sequence:
#
# PCOD9305235 Si02
#       6
#     8   8   4   8   8   8
#     4  11  24  43  73  97 138 186 237 285 358 422
#     4  11  25  42  68 103 138 177 240 295 343 425
#     4  12  26  46  70 106 138 188 236 292 354 426
#     4  11  25  46  71 102 140 189 236 292 354 423
#     4  11  25  46  69  97 143 189 226 293 362 409
#     4  12  28  45  73 103 145 185 237 290 358 427
#
# _framework density 23.496421999999999
#
# number of rings (size 3 to 8) (size 9 to 14) (size 15 to 20)
#    0.000    0.727    4.545    1.636    7.636    3.636 
#    0.000    0.000    0.000    0.000    0.000    0.000 
#    0.000    0.000    0.000    0.000    0.000    0.000 
#
# Total GULP energy -123151.018427 kJ/mol
# GULP energy per Si atom -5597.773565 kJ/mol
# Density = 2.344294 g / cm^3
# Si number density = 23.496422 Si / 1000 Ang^3
#
#
#
# Elastic Constant Matrix: (Units=GPa)
#
#
# Indices 1 2 3 4 5 6 
#
# 1 116.6527 20.4016 35.9655 0.0000 4.4688 0.0000
# 2 20.4016 68.4176 29.4064 0.0000 -0.1042 0.0000
# 3 35.9655 29.4064 125.5791 0.0000 1.0964 0.0000
# 4 0.0000 0.0000 0.0000 13.3499 0.0000 12.1754
# 5 4.4688 -0.1042 1.0964 0.0000 33.0984 0.0000
# 6 0.0000 0.0000 0.0000 12.1754 0.0000 21.6832
#
#
#
# Elastic Compliance Matrix: (Units=1/GPa)
#
#
# Indices 1 2 3 4 5 6 
#
# 1 0.009664 -0.001889 -0.002315 0.000000 -0.001234 0.000000
# 2 -0.001889 0.016622 -0.003355 0.000000 0.000418 0.000000
# 3 -0.002315 -0.003355 0.009412 0.000000 -0.000010 0.000000
# 4 0.000000 0.000000 0.000000 0.153531 0.000000 -0.086209
# 5 -0.001234 0.000418 -0.000010 0.000000 0.030381 0.000000
# 6 0.000000 0.000000 0.000000 -0.086209 0.000000 0.094526
#
#
# Mechanical properties :
#
#
# Convention : Reuss Voigt Hill
#
# Bulk Modulus (GPa) = 48.58920 53.57737 51.08328
# Shear Modulus (GPa) = 14.87597 28.61804 21.74700
#
# Velocity S-wave (km/s) = 2.51891 3.49373 3.04558
# Velocity P-wave (km/s) = 5.40224 6.25514 5.84427
#
# Compressibility (1/GPa) = 0.02058071
#
# Stress axis : x y z
#
# Youngs Moduli (GPa) = 103.48047 60.16132 106.25038
#
# Poissons Ratio (x) = 0.11363 0.24593
# Poissons Ratio (y) = 0.19544 0.35648
# Poissons Ratio (z) = 0.23952 0.20184
#
# Static dielectric constant tensor:
#      x y z
#    x 1.927790 0.000000 0.054380 
#    y 0.000000 1.897190 0.000000 
#    z 0.054380 0.000000 1.859630 
# 
# From -- ./inp_files/94959.got.cif
#   From: 2010.05.17/outbox.cif.g08.bks.cpg/sg15_48_cif.got.tgz:94959.got - 2010.06.03 18:47:42.
