data_PCOD9305925
_publ_section_title
;
Structure prediction by ZEFSAII (Michael W. Deem and Ramdas Pophale) SiO2 
 PCOD9305925
Probable space group: C 2/C
;
_chemical_formula_sum "Si O2"
_cell_formula_units_Z 40
_cell_length_a 11.285788
_cell_length_b 14.776553
_cell_length_c 16.010216
_cell_angle_alpha 90.000000
_cell_angle_beta 142.370571
_cell_angle_gamma 90.000000
_cell_volume 1630.139962
_symmetry_space_group_name_H-M "C 2/C"
_symmetry_group_IT_number 15
_symmetry_cell_setting 'monoclinic'
loop_
_space_group_symop_operation_xyz
x,y,z
-x,y,1/2-z
-x,-y,-z
x,-y,1/2+z
1/2+x,1/2+y,z
1/2-x,1/2+y,1/2-z
1/2-x,1/2-y,-z
1/2+x,1/2-y,1/2+z
loop_
_atom_site_type_symbol
_atom_site_label
_atom_site_fract_x
_atom_site_fract_y
_atom_site_fract_z
Si Si1 0.097916 0.196596 0.218277
Si Si2 0.532653 0.504656 0.667037
Si Si3 0.049614 0.489050 0.185975
Si Si4 0.212878 0.355985 0.992634
Si Si5 0.504751 0.152170 0.971284
O O1 0.319758 0.180877 0.370584
O O2 0.058895 0.271045 0.127854
O O3 0.000000 0.224769 0.250000
O O4 0.004576 0.102338 0.135254
O O5 0.500000 0.508106 0.750000
O O6 0.733968 0.520842 0.729143
O O7 0.383907 0.581050 0.553076
O O8 0.933432 0.434574 0.048972
O O9 0.000000 0.451962 0.250000
O O10 0.978411 0.592871 0.148066
O O11 0.250000 0.250000 0.000000
O O12 0.179594 0.366371 0.073188
#
# Coordination Sequence:
#
# PCOD9305925 Si02
#       5
#     8   8   8   8   8
#     4  11  25  46  80 115 163 210 273 334 415 484
#     4  11  24  48  79 109 161 216 267 333 410 485
#     4  12  27  49  79 117 162 210 276 338 409 487
#     4  12  29  49  80 113 163 217 277 333 412 490
#     4  12  26  50  79 120 162 213 272 341 405 494
#
# _framework density 24.537770999999999
#
# number of rings (size 3 to 8) (size 9 to 14) (size 15 to 20)
#    0.000    0.400    4.000    4.200    5.600    3.200 
#    0.000    0.000    0.000    0.000    0.000    0.000 
#    0.000    0.000    0.000    0.000    0.000    0.000 
#
# Total GULP energy -111765.473435 kJ/mol
# GULP energy per Si atom -5588.273672 kJ/mol
# Density = 2.448192 g / cm^3
# Si number density = 24.537771 Si / 1000 Ang^3
#
#
#
# Elastic Constant Matrix: (Units=GPa)
#
#
# Indices 1 2 3 4 5 6 
#
# 1 183.4737 84.0080 72.3270 0.0000 22.3823 0.0000
# 2 84.0080 158.4409 58.1218 -0.0001 -14.2510 0.0007
# 3 72.3270 58.1218 65.3344 0.0000 11.7416 0.0006
# 4 0.0000 -0.0001 0.0000 -18.7131 -0.0001 102.6002
# 5 22.3823 -14.2510 11.7416 -0.0001 35.8311 0.0005
# 6 0.0000 0.0007 0.0006 102.6002 0.0005 -162.7057
#
#
#
# Elastic Compliance Matrix: (Units=1/GPa)
#
#
# Indices 1 2 3 4 5 6 
#
# 1 0.010770 -0.003224 -0.008092 0.000000 -0.005358 0.000000
# 2 -0.003224 0.012246 -0.009098 0.000000 0.009866 0.000000
# 3 -0.008092 -0.009098 0.034107 0.000000 -0.009741 0.000000
# 4 0.000000 0.000000 0.000000 0.021746 0.000000 0.013713
# 5 -0.005358 0.009866 -0.009741 0.000000 0.038372 0.000000
# 6 0.000000 0.000000 0.000000 0.013713 0.000000 0.002501
#
#
# Mechanical properties :
#
#
# Convention : Reuss Voigt Hill
#
# Bulk Modulus (GPa) = 61.36325 92.90696 77.13511
# Shear Modulus (GPa) = 30.12035 -16.26473 6.92781
#
# Velocity S-wave (km/s) = 3.50738 -2.57737 1.68210
# Velocity P-wave (km/s) = 6.43928 5.39332 5.93937
#
# Compressibility (1/GPa) = 0.01629640
#
# Stress axis : x y z
#
# Youngs Moduli (GPa) = 92.84965 81.66125 29.31923
#
# Poissons Ratio (x) = 0.26329 0.23724
# Poissons Ratio (y) = 0.29936 0.26674
# Poissons Ratio (z) = 0.75130 0.74292
#
# Static dielectric constant tensor:
#      x y z
#    x 1.956400 0.000000 0.053060 
#    y 0.000000 1.938340 0.000000 
#    z 0.053060 0.000000 2.077740 
# 
# From -- ./inp_files/198119.got.cif
#   From: 2010.05.17/outbox.cif.g08.bks.cpg/sg15_100_cif.got.tgz:198119.got - 2010.06.03 18:47:42.
