data_PCOD9305216
_publ_section_title
;
Structure prediction by ZEFSAII (Michael W. Deem and Ramdas Pophale) SiO2 
 PCOD9305216
Probable space group: C 2/C
;
_chemical_formula_sum "Si O2"
_cell_formula_units_Z 40
_cell_length_a 9.941711
_cell_length_b 11.202927
_cell_length_c 16.749014
_cell_angle_alpha 90.000000
_cell_angle_beta 123.896891
_cell_angle_gamma 90.000000
_cell_volume 1548.396714
_symmetry_space_group_name_H-M "C 2/C"
_symmetry_group_IT_number 15
_symmetry_cell_setting 'monoclinic'
loop_
_space_group_symop_operation_xyz
x,y,z
-x,y,1/2-z
-x,-y,-z
x,-y,1/2+z
1/2+x,1/2+y,z
1/2-x,1/2+y,1/2-z
1/2-x,1/2-y,-z
1/2+x,1/2-y,1/2+z
loop_
_atom_site_type_symbol
_atom_site_label
_atom_site_fract_x
_atom_site_fract_y
_atom_site_fract_z
Si Si1 0.830605 0.109380 0.292676
Si Si2 0.820089 0.620398 0.011355
Si Si3 0.339620 0.595749 0.997984
Si Si4 0.170208 0.678421 0.093006
Si Si5 0.808406 0.131272 0.704954
O O1 0.824154 0.149257 0.197255
O O2 0.739172 0.229471 0.295996
O O3 0.997754 0.100396 0.396222
O O4 0.770943 0.970840 0.259371
O O5 0.722338 0.536323 0.039252
O O6 0.779959 0.590600 0.905929
O O7 0.750000 0.750000 0.000000
O O8 0.012338 0.624725 0.082527
O O9 0.195431 0.637964 0.010126
O O10 0.355807 0.680957 0.928352
O O11 0.000000 0.126807 0.750000
#
# Coordination Sequence:
#
# PCOD9305216 Si02
#       5
#     8   8   8   8   8
#     4  12  25  46  78 105 152 197 241 308 370 437
#     4  12  25  44  72 101 144 190 243 305 361 435
#     4  11  24  45  73 103 145 190 240 303 363 436
#     4  11  24  43  71 108 138 187 248 293 365 434
#     4  12  25  48  72 108 148 194 248 303 370 436
#
# _framework density 25.833172000000001
#
# number of rings (size 3 to 8) (size 9 to 14) (size 15 to 20)
#    0.000    0.400    6.000    2.400    0.000    2.400 
#    0.000    3.000    0.000    0.000    0.000    0.000 
#    0.000    0.000    0.000    0.000    0.000    0.000 
#
# Total GULP energy -111779.741955 kJ/mol
# GULP energy per Si atom -5588.987098 kJ/mol
# Density = 2.577437 g / cm^3
# Si number density = 25.833172 Si / 1000 Ang^3
#
#
#
# Elastic Constant Matrix: (Units=GPa)
#
#
# Indices 1 2 3 4 5 6 
#
# 1 87.8726 49.7350 40.0179 0.0000 30.5489 0.0000
# 2 49.7350 192.3845 48.8550 0.0000 17.5144 0.0000
# 3 40.0179 48.8550 103.6811 0.0000 25.5366 0.0000
# 4 0.0000 0.0000 0.0000 48.1598 0.0000 -14.5321
# 5 30.5489 17.5144 25.5366 0.0000 43.0778 0.0000
# 6 0.0000 0.0000 0.0000 -14.5321 0.0000 56.2543
#
#
#
# Elastic Compliance Matrix: (Units=1/GPa)
#
#
# Indices 1 2 3 4 5 6 
#
# 1 0.017792 -0.002934 -0.003128 0.000000 -0.009571 0.000000
# 2 -0.002934 0.006417 -0.002062 0.000000 0.000694 0.000000
# 3 -0.003128 -0.002062 0.012964 0.000000 -0.004629 0.000000
# 4 0.000000 0.000000 0.000000 0.022520 0.000000 0.005817
# 5 -0.009571 0.000694 -0.004629 0.000000 0.032462 0.000000
# 6 0.000000 0.000000 0.000000 0.005817 0.000000 0.019279
#
#
# Mechanical properties :
#
#
# Convention : Reuss Voigt Hill
#
# Bulk Modulus (GPa) = 47.78880 73.46156 60.62518
# Shear Modulus (GPa) = 37.13131 45.85373 41.49252
#
# Velocity S-wave (km/s) = 3.79535 4.21764 4.01206
# Velocity P-wave (km/s) = 6.14373 7.22611 6.70679
#
# Compressibility (1/GPa) = 0.02092541
#
# Stress axis : x y z
#
# Youngs Moduli (GPa) = 56.20401 155.83772 77.13760
#
# Poissons Ratio (x) = 0.45725 0.24125
# Poissons Ratio (y) = 0.16491 0.15907
# Poissons Ratio (z) = 0.17578 0.32137
#
# Static dielectric constant tensor:
#      x y z
#    x 2.044250 0.000000 -0.061990 
#    y 0.000000 2.285810 0.000000 
#    z -0.061990 0.000000 1.993180 
# 
# From -- ./inp_files/236715.got.cif
#   From: 2010.05.17/outbox.cif.g08.bks.cpg/sg15_119_cif.got.tgz:236715.got - 2010.06.03 18:47:42.
