data_PCOD9305596
_publ_section_title
;
Structure prediction by ZEFSAII (Michael W. Deem and Ramdas Pophale) SiO2 
 PCOD9305596
Probable space group: C 2/C
;
_chemical_formula_sum "Si O2"
_cell_formula_units_Z 48
_cell_length_a 12.262196
_cell_length_b 12.288962
_cell_length_c 22.377857
_cell_angle_alpha 90.000000
_cell_angle_beta 39.649488
_cell_angle_gamma 90.000000
_cell_volume 2151.708266
_symmetry_space_group_name_H-M "C 2/C"
_symmetry_group_IT_number 15
_symmetry_cell_setting 'monoclinic'
loop_
_space_group_symop_operation_xyz
x,y,z
-x,y,1/2-z
-x,-y,-z
x,-y,1/2+z
1/2+x,1/2+y,z
1/2-x,1/2+y,1/2-z
1/2-x,1/2-y,-z
1/2+x,1/2-y,1/2+z
loop_
_atom_site_type_symbol
_atom_site_label
_atom_site_fract_x
_atom_site_fract_y
_atom_site_fract_z
Si Si1 0.281463 0.724492 0.201870
Si Si2 0.297615 0.721902 0.066291
Si Si3 0.166121 0.043625 0.724782
Si Si4 0.152206 0.325409 0.879822
Si Si5 0.157840 0.828213 0.585484
Si Si6 0.630882 0.574240 0.574376
O O1 0.253327 0.670060 0.149227
O O2 0.274072 0.847353 0.181719
O O3 0.152611 0.715964 0.311500
O O4 0.458792 0.687500 0.155621
O O5 0.174101 0.821641 0.098763
O O6 0.480937 0.783122 0.983426
O O7 0.310763 0.623648 0.013189
O O8 0.000000 0.035009 0.750000
O O9 0.067971 0.045115 0.830023
O O10 0.299590 0.950898 0.651758
O O11 0.297534 0.292322 0.866080
O O12 0.250000 0.750000 0.500000
O O13 0.212915 0.955335 0.553073
#
# Coordination Sequence:
#
# PCOD9305596 Si02
#       6
#     8   8   8   8   8   8
#     4  12  24  41  69  97 133 174 225 272 335 391
#     4  11  25  43  72 101 129 175 229 280 326 396
#     4  12  22  42  70  93 133 178 221 273 330 400
#     4  12  24  43  68 100 133 177 230 266 334 400
#     4  12  25  43  67  98 137 179 217 274 333 402
#     4  11  24  46  67  96 137 174 222 277 336 393
#
# _framework density 22.307856000000001
#
# number of rings (size 3 to 8) (size 9 to 14) (size 15 to 20)
#    0.000    0.333    8.333    0.500    2.333    2.000 
#    3.000    0.000    0.000    0.000    0.000    0.000 
#    0.000    0.000    0.000    0.000    0.000    0.000 
#
# Total GULP energy -133670.074411 kJ/mol
# GULP energy per Si atom -5569.586434 kJ/mol
# Density = 2.225708 g / cm^3
# Si number density = 22.307856 Si / 1000 Ang^3
#
#
#
# Elastic Constant Matrix: (Units=GPa)
#
#
# Indices 1 2 3 4 5 6 
#
# 1 92.5790 33.7499 24.3269 0.0000 22.1072 0.0000
# 2 33.7499 101.9173 19.8749 0.0000 1.2695 0.0000
# 3 24.3269 19.8749 97.7465 0.0000 34.9885 0.0000
# 4 0.0000 0.0000 0.0000 29.9985 0.0000 -8.2593
# 5 22.1072 1.2695 34.9885 0.0000 51.0778 0.0000
# 6 0.0000 0.0000 0.0000 -8.2593 0.0000 25.0607
#
#
#
# Elastic Compliance Matrix: (Units=1/GPa)
#
#
# Indices 1 2 3 4 5 6 
#
# 1 0.013876 -0.004412 -0.000591 0.000000 -0.005492 0.000000
# 2 -0.004412 0.011713 -0.002468 0.000000 0.003309 0.000000
# 3 -0.000591 -0.002468 0.014263 0.000000 -0.009453 0.000000
# 4 0.000000 0.000000 0.000000 0.036662 0.000000 0.012083
# 5 -0.005492 0.003309 -0.009453 0.000000 0.028348 0.000000
# 6 0.000000 0.000000 0.000000 0.012083 0.000000 0.043885
#
#
# Mechanical properties :
#
#
# Convention : Reuss Voigt Hill
#
# Bulk Modulus (GPa) = 40.14186 49.79399 44.96792
# Shear Modulus (GPa) = 29.07108 35.51347 32.29227
#
# Velocity S-wave (km/s) = 3.61387 3.99428 3.80883
# Velocity P-wave (km/s) = 5.95374 6.60622 6.28844
#
# Compressibility (1/GPa) = 0.02491165
#
# Stress axis : x y z
#
# Youngs Moduli (GPa) = 72.06464 85.37629 70.11021
#
# Poissons Ratio (x) = 0.37664 0.04142
# Poissons Ratio (y) = 0.31792 0.17304
# Poissons Ratio (z) = 0.04258 0.21072
#
# Static dielectric constant tensor:
#      x y z
#    x 1.902450 0.000000 0.036480 
#    y 0.000000 1.850700 0.000000 
#    z 0.036480 0.000000 1.970950 
# 
# From -- ./inp_files/237404.got.cif
#   From: 2010.05.17/outbox.cif.g08.bks.cpg/sg15_119_cif.got.tgz:237404.got - 2010.06.03 18:47:42.
