data_PCOD9305901
_publ_section_title
;
Structure prediction by ZEFSAII (Michael W. Deem and Ramdas Pophale) SiO2 
 PCOD9305901
Probable space group: C 2/C
;
_chemical_formula_sum "Si O2"
_cell_formula_units_Z 36
_cell_length_a 7.637974
_cell_length_b 15.116198
_cell_length_c 13.443632
_cell_angle_alpha 90.000000
_cell_angle_beta 114.394237
_cell_angle_gamma 90.000000
_cell_volume 1413.594090
_symmetry_space_group_name_H-M "C 2/C"
_symmetry_group_IT_number 15
_symmetry_cell_setting 'monoclinic'
loop_
_space_group_symop_operation_xyz
x,y,z
-x,y,1/2-z
-x,-y,-z
x,-y,1/2+z
1/2+x,1/2+y,z
1/2-x,1/2+y,1/2-z
1/2-x,1/2-y,-z
1/2+x,1/2-y,1/2+z
loop_
_atom_site_type_symbol
_atom_site_label
_atom_site_fract_x
_atom_site_fract_y
_atom_site_fract_z
Si Si1 0.435417 0.668321 0.129090
Si Si2 0.998470 0.271869 0.548982
Si Si3 0.000000 0.843256 0.250000
Si Si4 0.059821 0.545903 0.413971
Si Si5 0.699177 0.496548 0.702636
O O1 0.500000 0.708092 0.250000
O O2 0.208789 0.685358 0.075425
O O3 0.514223 0.567247 0.149152
O O4 0.531575 0.716087 0.057915
O O5 0.988056 0.216661 0.648633
O O6 0.867972 0.357451 0.538174
O O7 0.836519 0.913810 0.245557
O O8 0.869853 0.554142 0.300254
O O9 0.000000 0.500000 0.500000
O O10 0.214865 0.490786 0.387251
#
# Coordination Sequence:
#
# PCOD9305901 Si02
#       5
#     8   8   4   8   8
#     4  11  24  48  75 100 154 194 247 309 378 440
#     4  11  27  45  75 113 144 195 257 313 363 459
#     4  12  26  46  76 112 146 192 256 306 390 436
#     4  11  26  49  70 107 151 197 255 299 375 444
#     4  11  25  46  73 105 151 201 237 313 373 455
#
# _framework density 25.466999000000001
#
# number of rings (size 3 to 8) (size 9 to 14) (size 15 to 20)
#    0.000    0.889    3.333    1.333    9.333    3.556 
#    0.000    0.000    0.000    0.000    0.000    0.000 
#    0.000    0.000    0.000    0.000    0.000    0.000 
#
# Total GULP energy -100718.089749 kJ/mol
# GULP energy per Si atom -5595.449430 kJ/mol
# Density = 2.540904 g / cm^3
# Si number density = 25.466999 Si / 1000 Ang^3
#
#
#
# Elastic Constant Matrix: (Units=GPa)
#
#
# Indices 1 2 3 4 5 6 
#
# 1 161.6040 36.6526 51.1233 0.0000 -37.8739 0.0000
# 2 36.6526 131.3193 57.7714 0.0000 -39.2700 0.0000
# 3 51.1233 57.7714 146.3260 0.0000 -60.3513 0.0000
# 4 0.0000 0.0000 0.0000 42.2192 0.0000 -11.8366
# 5 -37.8739 -39.2700 -60.3513 0.0000 68.9180 0.0000
# 6 0.0000 0.0000 0.0000 -11.8366 0.0000 25.2347
#
#
#
# Elastic Compliance Matrix: (Units=1/GPa)
#
#
# Indices 1 2 3 4 5 6 
#
# 1 0.007339 -0.000753 -0.001221 0.000000 0.002534 0.000000
# 2 -0.000753 0.009777 -0.002301 0.000000 0.003142 0.000000
# 3 -0.001221 -0.002301 0.011508 0.000000 0.008095 0.000000
# 4 0.000000 0.000000 0.000000 0.027272 0.000000 0.012792
# 5 0.002534 0.003142 0.008095 0.000000 0.024782 0.000000
# 6 0.000000 0.000000 0.000000 0.012792 0.000000 0.045628
#
#
# Mechanical properties :
#
#
# Convention : Reuss Voigt Hill
#
# Bulk Modulus (GPa) = 49.81791 81.14934 65.48362
# Shear Modulus (GPa) = 35.32323 46.85450 41.08887
#
# Velocity S-wave (km/s) = 3.72831 4.29396 4.02109
# Velocity P-wave (km/s) = 6.17559 7.51783 6.87953
#
# Compressibility (1/GPa) = 0.02007310
#
# Stress axis : x y z
#
# Youngs Moduli (GPa) = 136.25503 102.27887 86.89513
#
# Poissons Ratio (x) = 0.07703 0.10614
# Poissons Ratio (y) = 0.10262 0.19995
# Poissons Ratio (z) = 0.16643 0.23535
#
# Static dielectric constant tensor:
#      x y z
#    x 2.081290 0.000000 0.043990 
#    y 0.000000 2.011960 0.000000 
#    z 0.043990 0.000000 2.042010 
# 
# From -- ./inp_files/132907.got.cif
#   From: 2010.05.17/outbox.cif.g08.bks.cpg/sg15_67_cif.got.tgz:132907.got - 2010.06.03 18:47:42.
