data_PCOD9305140
_publ_section_title
;
Structure prediction by ZEFSAII (Michael W. Deem and Ramdas Pophale) SiO2 
 PCOD9305140
Probable space group: C 2/C
;
_chemical_formula_sum "Si O2"
_cell_formula_units_Z 56
_cell_length_a 17.388614
_cell_length_b 5.170701
_cell_length_c 26.068100
_cell_angle_alpha 90.000000
_cell_angle_beta 75.908963
_cell_angle_gamma 90.000000
_cell_volume 2273.292180
_symmetry_space_group_name_H-M "C 2/C"
_symmetry_group_IT_number 15
_symmetry_cell_setting 'monoclinic'
loop_
_space_group_symop_operation_xyz
x,y,z
-x,y,1/2-z
-x,-y,-z
x,-y,1/2+z
1/2+x,1/2+y,z
1/2-x,1/2+y,1/2-z
1/2-x,1/2-y,-z
1/2+x,1/2-y,1/2+z
loop_
_atom_site_type_symbol
_atom_site_label
_atom_site_fract_x
_atom_site_fract_y
_atom_site_fract_z
Si Si1 0.500000 0.381868 0.250000
Si Si2 0.196335 0.262889 0.896335
Si Si3 0.783536 0.550104 0.305423
Si Si4 0.403719 0.259006 0.361049
Si Si5 0.378046 0.243230 0.716920
Si Si6 0.417026 0.238790 0.930011
Si Si7 0.250000 0.750000 0.500000
Si Si8 0.590059 0.257521 0.901960
O O1 0.470778 0.238975 0.306091
O O2 0.572740 0.565440 0.255468
O O3 0.151377 0.534249 0.907233
O O4 0.252542 0.213012 0.837749
O O5 0.132026 0.033031 0.901742
O O6 0.249116 0.227219 0.937885
O O7 0.819945 0.721828 0.345177
O O8 0.707948 0.657452 0.288059
O O9 0.854498 0.502421 0.254324
O O10 0.411295 0.527536 0.389854
O O11 0.410606 0.033018 0.401506
O O12 0.423963 0.207687 0.656500
O O13 0.504286 0.249440 0.941094
O O14 0.347570 0.267250 0.982612
#
# Coordination Sequence:
#
# PCOD9305140 Si02
#       8
#     4   8   8   8   8   8   4   8
#     4  12  26  42  74 114 154 204 254 304 384 456
#     4  11  27  48  78 111 150 196 253 315 380 449
#     4  11  24  44  72 113 154 206 248 315 371 466
#     4  12  27  46  75 112 153 197 252 315 371 462
#     4  11  24  42  73 111 152 209 243 307 378 458
#     4  12  28  50  77 110 148 199 254 322 378 447
#     4  12  30  52  84 114 144 200 258 324 392 436
#     4  11  26  49  75 110 154 194 250 310 381 463
#
# _framework density 24.633876000000001
#
# number of rings (size 3 to 8) (size 9 to 14) (size 15 to 20)
#    0.000    0.571    2.857    3.429    8.000    4.000 
#    0.000    0.000    0.000    0.000    0.000    0.000 
#    0.000    0.000    0.000    0.000    0.000    0.000 
#
# Total GULP energy -156410.015203 kJ/mol
# GULP energy per Si atom -5586.071972 kJ/mol
# Density = 2.457781 g / cm^3
# Si number density = 24.633876 Si / 1000 Ang^3
#
#
#
# Elastic Constant Matrix: (Units=GPa)
#
#
# Indices 1 2 3 4 5 6 
#
# 1 97.1154 13.7994 -5.2559 0.0011 -19.1801 0.0007
# 2 13.7994 57.3762 -2.8824 0.0029 -10.6682 0.0012
# 3 -5.2559 -2.8824 79.0933 0.0012 -18.7145 0.0005
# 4 0.0011 0.0029 0.0012 -3.6846 -0.0002 -1.1454
# 5 -19.1801 -10.6682 -18.7145 -0.0002 60.6664 0.0002
# 6 0.0007 0.0012 0.0005 -1.1454 0.0002 30.2249
#
#
#
# Elastic Compliance Matrix: (Units=1/GPa)
#
#
# Indices 1 2 3 4 5 6 
#
# 1 0.011401 -0.001967 0.001572 0.000002 0.003743 0.000000
# 2 -0.001967 0.018528 0.001260 0.000014 0.003025 0.000000
# 3 0.001572 0.001260 0.013984 0.000006 0.005032 0.000000
# 4 0.000002 0.000014 0.000006 -0.268239 0.000004 -0.010165
# 5 0.003743 0.003025 0.005032 0.000004 0.019751 0.000000
# 6 0.000000 0.000000 0.000000 -0.010165 0.000000 0.032700
#
#
# Mechanical properties :
#
#
# Convention : Reuss Voigt Hill
#
# Bulk Modulus (GPa) = 21.90930 27.21192 24.56061
# Shear Modulus (GPa) = -31.56766 32.63625 0.53429
#
# Velocity S-wave (km/s) = -3.58365 3.64380 0.46622
# Velocity P-wave (km/s) = 2.86533 5.36410 3.20651
#
# Compressibility (1/GPa) = 0.04564272
#
# Stress axis : x y z
#
# Youngs Moduli (GPa) = 87.71236 53.97337 71.50821
#
# Poissons Ratio (x) = 0.10617 -0.11239
# Poissons Ratio (y) = 0.17253 -0.09012
# Poissons Ratio (z) = -0.13785 -0.06802
#
# Static dielectric constant tensor:
#      x y z
#    x 1.955110 0.000000 -0.021600 
#    y 0.000000 1.956470 0.000000 
#    z -0.021600 0.000000 1.879950 
# 
# From -- ./inp_files/297751.got.cif
#   From: 2010.05.17/outbox.cif.g08.bks.cpg/sg15_149_cif.got.tgz:297751.got - 2010.06.03 18:47:42.
