data_PCOD9305755
_publ_section_title
;
Structure prediction by ZEFSAII (Michael W. Deem and Ramdas Pophale) SiO2 
 PCOD9305755
Probable space group: C 2/C
;
_chemical_formula_sum "Si O2"
_cell_formula_units_Z 56
_cell_length_a 11.757949
_cell_length_b 7.941233
_cell_length_c 27.204065
_cell_angle_alpha 90.000000
_cell_angle_beta 109.762626
_cell_angle_gamma 90.000000
_cell_volume 2390.505751
_symmetry_space_group_name_H-M "C 2/C"
_symmetry_group_IT_number 15
_symmetry_cell_setting 'monoclinic'
loop_
_space_group_symop_operation_xyz
x,y,z
-x,y,1/2-z
-x,-y,-z
x,-y,1/2+z
1/2+x,1/2+y,z
1/2-x,1/2+y,1/2-z
1/2-x,1/2-y,-z
1/2+x,1/2-y,1/2+z
loop_
_atom_site_type_symbol
_atom_site_label
_atom_site_fract_x
_atom_site_fract_y
_atom_site_fract_z
Si Si1 0.882677 0.848869 0.960659
Si Si2 0.411866 0.108298 0.521380
Si Si3 0.175573 0.519228 0.886501
Si Si4 0.126226 0.608526 0.280618
Si Si5 0.402992 0.618741 0.164536
Si Si6 0.191498 0.046776 0.945031
Si Si7 0.347986 0.518120 0.756218
O O1 0.782845 0.698966 0.944731
O O2 0.010494 0.777970 0.960962
O O3 0.817627 0.995151 0.919832
O O4 0.884506 0.896340 0.018496
O O5 0.389713 0.017623 0.570189
O O6 0.500000 0.000000 0.500000
O O7 0.282490 0.103912 0.475362
O O8 0.139673 0.379540 0.841157
O O9 0.132994 0.693159 0.855801
O O10 0.236275 0.502365 0.275716
O O11 0.126105 0.787649 0.252825
O O12 0.000000 0.521853 0.250000
O O13 0.379627 0.508088 0.112996
O O14 0.538527 0.578532 0.202919
O O15 0.322448 0.564203 0.199380
#
# Coordination Sequence:
#
# PCOD9305755 Si02
#       7
#     8   8   8   8   8   8   8
#     4   9  19  38  65 101 137 187 241 290 356 441
#     4   9  20  40  64 104 139 185 245 297 355 437
#     4  11  25  39  71 102 142 192 237 301 371 437
#     4  12  27  49  76 106 142 195 247 306 377 440
#     4  11  24  47  69 107 152 188 247 311 368 446
#     4   9  19  40  65  93 142 184 236 300 354 431
#     4  11  27  50  74 106 145 191 250 312 371 447
#
# _framework density 23.426005
#
# number of rings (size 3 to 8) (size 9 to 14) (size 15 to 20)
#    0.000    1.714    1.429    2.571    6.000    4.571 
#    5.143    1.429    0.000    0.000    0.000    0.000 
#    0.000    0.000    0.000    0.000    0.000    0.000 
#
# Total GULP energy -156620.522200 kJ/mol
# GULP energy per Si atom -5593.590079 kJ/mol
# Density = 2.337269 g / cm^3
# Si number density = 23.426005 Si / 1000 Ang^3
#
#
#
# Elastic Constant Matrix: (Units=GPa)
#
#
# Indices 1 2 3 4 5 6 
#
# 1 125.6600 27.8952 59.8763 0.0000 -5.4745 0.0000
# 2 27.8952 97.5167 34.5771 0.0000 9.1658 0.0000
# 3 59.8763 34.5771 181.5064 0.0000 0.7342 0.0000
# 4 0.0000 0.0000 0.0000 42.3510 0.0000 -2.5902
# 5 -5.4745 9.1658 0.7342 0.0000 23.8192 0.0000
# 6 0.0000 0.0000 0.0000 -2.5902 0.0000 34.0582
#
#
#
# Elastic Compliance Matrix: (Units=1/GPa)
#
#
# Indices 1 2 3 4 5 6 
#
# 1 0.009944 -0.002120 -0.002890 0.000000 0.003190 0.000000
# 2 -0.002120 0.011879 -0.001543 0.000000 -0.005011 0.000000
# 3 -0.002890 -0.001543 0.006758 0.000000 -0.000279 0.000000
# 4 0.000000 0.000000 0.000000 0.023723 0.000000 0.001804
# 5 0.003190 -0.005011 -0.000279 0.000000 0.044653 0.000000
# 6 0.000000 0.000000 0.000000 0.001804 0.000000 0.029499
#
#
# Mechanical properties :
#
#
# Convention : Reuss Voigt Hill
#
# Bulk Modulus (GPa) = 64.61740 72.15334 68.38537
# Shear Modulus (GPa) = 34.54936 38.86797 36.70867
#
# Velocity S-wave (km/s) = 3.84452 4.07772 3.96284
# Velocity P-wave (km/s) = 6.88118 7.28271 7.08479
#
# Compressibility (1/GPa) = 0.01547571
#
# Stress axis : x y z
#
# Youngs Moduli (GPa) = 100.55858 84.17985 147.97664
#
# Poissons Ratio (x) = 0.17846 0.42759
# Poissons Ratio (y) = 0.21318 0.22839
# Poissons Ratio (z) = 0.29057 0.12992
#
# Static dielectric constant tensor:
#      x y z
#    x 1.866280 0.000000 0.011620 
#    y 0.000000 2.005740 0.000000 
#    z 0.011620 0.000000 1.859040 
# 
# From -- ./inp_files/291638.got.cif
#   From: 2010.05.17/outbox.cif.g08.bks.cpg/sg15_146_cif.got.tgz:291638.got - 2010.06.03 18:47:42.
