data_PCOD9305026
_publ_section_title
;
Structure prediction by ZEFSAII (Michael W. Deem and Ramdas Pophale) SiO2 
 PCOD9305026
Probable space group: C 2/C
;
_chemical_formula_sum "Si O2"
_cell_formula_units_Z 44
_cell_length_a 8.011498
_cell_length_b 18.739058
_cell_length_c 15.236610
_cell_angle_alpha 90.000000
_cell_angle_beta 62.896486
_cell_angle_gamma 90.000000
_cell_volume 2036.245047
_symmetry_space_group_name_H-M "C 2/C"
_symmetry_group_IT_number 15
_symmetry_cell_setting 'monoclinic'
loop_
_space_group_symop_operation_xyz
x,y,z
-x,y,1/2-z
-x,-y,-z
x,-y,1/2+z
1/2+x,1/2+y,z
1/2-x,1/2+y,1/2-z
1/2-x,1/2-y,-z
1/2+x,1/2-y,1/2+z
loop_
_atom_site_type_symbol
_atom_site_label
_atom_site_fract_x
_atom_site_fract_y
_atom_site_fract_z
Si Si1 0.781697 0.064612 0.824378
Si Si2 0.471083 0.793669 0.850635
Si Si3 0.212687 0.896525 0.661941
Si Si4 0.000000 0.370213 0.250000
Si Si5 0.135449 0.151793 0.524230
Si Si6 0.760413 0.168848 0.533403
O O1 0.649625 0.089072 0.776069
O O2 0.766713 0.109585 0.919159
O O3 0.000000 0.074822 0.750000
O O4 0.748033 0.980538 0.842076
O O5 0.500000 0.757931 0.750000
O O6 0.647033 0.845194 0.819207
O O7 0.437470 0.729864 0.926560
O O8 0.284635 0.839832 0.910647
O O9 0.263037 0.875160 0.550213
O O10 0.000000 0.884850 0.750000
O O11 0.884507 0.328790 0.351563
O O12 0.940423 0.126633 0.530957
O O13 0.750000 0.250000 0.500000
#
# Coordination Sequence:
#
# PCOD9305026 Si02
#       6
#     8   8   8   4   8   8
#     4  11  25  50  72 106 144 193 246 297 369 443
#     4  11  24  41  68 103 139 188 238 300 367 428
#     4  11  26  48  73 105 146 188 246 307 364 440
#     4  12  28  46  78 102 150 196 242 306 368 440
#     4  11  24  44  71 100 147 189 239 302 362 437
#     4  12  26  44  72 111 143 193 247 302 368 436
#
# _framework density 21.6084
#
# number of rings (size 3 to 8) (size 9 to 14) (size 15 to 20)
#    0.000    0.727    3.636    2.727    5.091    3.636 
#    0.000    0.000    0.000    0.000    0.000    0.000 
#    0.000    0.000    0.000    0.000    0.000    0.000 
#
# Total GULP energy -122602.306187 kJ/mol
# GULP energy per Si atom -5572.832099 kJ/mol
# Density = 2.155922 g / cm^3
# Si number density = 21.608400 Si / 1000 Ang^3
#
#
#
# Elastic Constant Matrix: (Units=GPa)
#
#
# Indices 1 2 3 4 5 6 
#
# 1 104.1758 43.8481 34.8846 0.0000 3.5990 0.0000
# 2 43.8481 101.4216 42.2265 0.0000 -2.7162 0.0000
# 3 34.8846 42.2265 155.4523 0.0000 -0.8298 0.0000
# 4 0.0000 0.0000 0.0000 7.3366 0.0000 -16.3621
# 5 3.5990 -2.7162 -0.8298 0.0000 31.8831 0.0000
# 6 0.0000 0.0000 0.0000 -16.3621 0.0000 89.0644
#
#
#
# Elastic Compliance Matrix: (Units=1/GPa)
#
#
# Indices 1 2 3 4 5 6 
#
# 1 0.012120 -0.004681 -0.001458 0.000000 -0.001805 0.000000
# 2 -0.004681 0.012949 -0.002459 0.000000 0.001568 0.000000
# 3 -0.001458 -0.002459 0.007429 0.000000 0.000148 0.000000
# 4 0.000000 0.000000 0.000000 0.230910 0.000000 0.042421
# 5 -0.001805 0.001568 0.000148 0.000000 0.031706 0.000000
# 6 0.000000 0.000000 0.000000 0.042421 0.000000 0.019021
#
#
# Mechanical properties :
#
#
# Convention : Reuss Voigt Hill
#
# Bulk Modulus (GPa) = 65.34879 66.99644 66.17262
# Shear Modulus (GPa) = 14.86188 41.66286 28.26237
#
# Velocity S-wave (km/s) = 2.62541 4.39576 3.62046
# Velocity P-wave (km/s) = 6.28477 7.53895 6.94025
#
# Compressibility (1/GPa) = 0.01530250
#
# Stress axis : x y z
#
# Youngs Moduli (GPa) = 82.50776 77.22402 134.61419
#
# Poissons Ratio (x) = 0.36151 0.19625
# Poissons Ratio (y) = 0.38624 0.33097
# Poissons Ratio (z) = 0.12028 0.18986
#
# Static dielectric constant tensor:
#      x y z
#    x 1.986480 0.000000 -0.122600 
#    y 0.000000 2.011590 0.000000 
#    z -0.122600 0.000000 1.824720 
# 
# From -- ./inp_files/134752.got.cif
#   From: 2010.05.17/outbox.cif.g08.bks.cpg/sg15_68_cif.got.tgz:134752.got - 2010.06.03 18:47:42.
