data_PCOD9305924
_publ_section_title
;
Structure prediction by ZEFSAII (Michael W. Deem and Ramdas Pophale) SiO2 
 PCOD9305924
Probable space group: C 2/C
;
_chemical_formula_sum "Si O2"
_cell_formula_units_Z 40
_cell_length_a 21.408082
_cell_length_b 8.167365
_cell_length_c 18.653703
_cell_angle_alpha 90.000000
_cell_angle_beta 153.844065
_cell_angle_gamma 90.000000
_cell_volume 1437.744768
_symmetry_space_group_name_H-M "C 2/C"
_symmetry_group_IT_number 15
_symmetry_cell_setting 'monoclinic'
loop_
_space_group_symop_operation_xyz
x,y,z
-x,y,1/2-z
-x,-y,-z
x,-y,1/2+z
1/2+x,1/2+y,z
1/2-x,1/2+y,1/2-z
1/2-x,1/2-y,-z
1/2+x,1/2-y,1/2+z
loop_
_atom_site_type_symbol
_atom_site_label
_atom_site_fract_x
_atom_site_fract_y
_atom_site_fract_z
Si Si1 0.954062 0.932091 0.784894
Si Si2 0.053520 0.576835 0.723116
Si Si3 0.397766 0.643979 0.923009
Si Si4 0.274558 0.246708 0.109108
Si Si5 0.595213 0.123183 0.537783
O O1 0.861085 0.086026 0.713408
O O2 0.000000 0.961212 0.750000
O O3 0.136726 0.253309 0.016076
O O4 0.078949 0.882968 0.968221
O O5 0.124330 0.755102 0.793952
O O6 0.151054 0.424976 0.803883
O O7 0.000000 0.556269 0.750000
O O8 0.933018 0.539083 0.539142
O O9 0.500000 0.500000 0.000000
O O10 0.466782 0.801502 0.952040
O O11 0.250000 0.250000 0.000000
O O12 0.235158 0.378594 0.231740
#
# Coordination Sequence:
#
# PCOD9305924 Si02
#       5
#     8   8   8   8   8
#     4  11  28  52  78 119 162 214 279 346 413 498
#     4  11  24  48  78 120 163 215 276 343 415 493
#     4  12  28  50  80 119 167 217 281 343 423 496
#     4  12  25  48  83 115 165 217 275 339 417 490
#     4  12  26  49  80 119 166 221 276 344 414 498
#
# _framework density 27.821348
#
# number of rings (size 3 to 8) (size 9 to 14) (size 15 to 20)
#    0.000    0.400    6.000    0.600    5.600    3.200 
#    0.000    0.000    0.000    0.000    0.000    0.000 
#    0.000    0.000    0.000    0.000    0.000    0.000 
#
# Total GULP energy -111994.803257 kJ/mol
# GULP energy per Si atom -5599.740163 kJ/mol
# Density = 2.775803 g / cm^3
# Si number density = 27.821348 Si / 1000 Ang^3
#
#
#
# Elastic Constant Matrix: (Units=GPa)
#
#
# Indices 1 2 3 4 5 6 
#
# 1 169.1826 57.3655 72.9709 0.0000 -26.2622 0.0000
# 2 57.3655 179.7534 30.7559 0.0000 25.2755 0.0000
# 3 72.9709 30.7559 153.5748 0.0000 -29.4326 0.0000
# 4 0.0000 0.0000 0.0000 32.8609 0.0000 -5.4290
# 5 -26.2622 25.2755 -29.4326 0.0000 60.3685 0.0000
# 6 0.0000 0.0000 0.0000 -5.4290 0.0000 53.3779
#
#
#
# Elastic Compliance Matrix: (Units=1/GPa)
#
#
# Indices 1 2 3 4 5 6 
#
# 1 0.008630 -0.002755 -0.002877 0.000000 0.003505 0.000000
# 2 -0.002755 0.007296 -0.001067 0.000000 -0.004773 0.000000
# 3 -0.002877 -0.001067 0.008756 0.000000 0.003464 0.000000
# 4 0.000000 0.000000 0.000000 0.030951 0.000000 0.003148
# 5 0.003505 -0.004773 0.003464 0.000000 0.021777 0.000000
# 6 0.000000 0.000000 0.000000 0.003148 0.000000 0.019055
#
#
# Mechanical properties :
#
#
# Convention : Reuss Voigt Hill
#
# Bulk Modulus (GPa) = 88.61818 91.63280 90.12549
# Shear Modulus (GPa) = 44.00475 52.08269 48.04372
#
# Velocity S-wave (km/s) = 3.98136 4.33140 4.16006
# Velocity P-wave (km/s) = 7.28400 7.61724 7.45249
#
# Compressibility (1/GPa) = 0.01128437
#
# Stress axis : x y z
#
# Youngs Moduli (GPa) = 115.87795 137.06044 114.20545
#
# Poissons Ratio (x) = 0.37755 0.32858
# Poissons Ratio (y) = 0.31920 0.12187
# Poissons Ratio (z) = 0.33339 0.14626
#
# Static dielectric constant tensor:
#      x y z
#    x 2.139160 0.000000 -0.076640 
#    y 0.000000 2.251120 0.000000 
#    z -0.076640 0.000000 2.412340 
# 
# From -- ./inp_files/171259.got.cif
#   From: 2010.05.17/outbox.cif.g08.bks.cpg/sg15_86_cif.got.tgz:171259.got - 2010.06.03 18:47:42.
