data_PCOD9305696
_publ_section_title
;
Structure prediction by ZEFSAII (Michael W. Deem and Ramdas Pophale) SiO2 
 PCOD9305696
Probable space group: C 2/C
;
_chemical_formula_sum "Si O2"
_cell_formula_units_Z 28
_cell_length_a 11.909390
_cell_length_b 13.971224
_cell_length_c 7.598131
_cell_angle_alpha 90.000000
_cell_angle_beta 111.678469
_cell_angle_gamma 90.000000
_cell_volume 1174.825449
_symmetry_space_group_name_H-M "C 2/C"
_symmetry_group_IT_number 15
_symmetry_cell_setting 'monoclinic'
loop_
_space_group_symop_operation_xyz
x,y,z
-x,y,1/2-z
-x,-y,-z
x,-y,1/2+z
1/2+x,1/2+y,z
1/2-x,1/2+y,1/2-z
1/2-x,1/2-y,-z
1/2+x,1/2-y,1/2+z
loop_
_atom_site_type_symbol
_atom_site_label
_atom_site_fract_x
_atom_site_fract_y
_atom_site_fract_z
Si Si1 0.500000 0.427238 0.250000
Si Si2 0.381004 0.092466 0.796037
Si Si3 0.732651 0.566306 0.383666
Si Si4 0.073240 0.203195 0.107583
O O1 0.616471 0.496227 0.328145
O O2 0.504878 0.358669 0.422305
O O3 0.500000 0.077372 0.750000
O O4 0.273461 0.109973 0.592313
O O5 0.401312 0.187027 0.923834
O O6 0.340415 0.000088 0.878135
O O7 0.696563 0.647743 0.225160
O O8 0.000000 0.204550 0.250000
#
# Coordination Sequence:
#
# PCOD9305696 Si02
#       4
#     4   8   8   8
#     4  12  24  44  80 110 134 184 250 298 342 412
#     4  11  26  45  69 105 147 189 228 292 362 423
#     4  12  22  47  74 105 143 183 241 297 348 420
#     4  11  24  46  74 107 141 185 239 294 352 418
#
# _framework density 23.833328000000002
#
# number of rings (size 3 to 8) (size 9 to 14) (size 15 to 20)
#    0.000    0.571    4.286    4.286    0.000    3.429 
#   12.857    0.000    0.000    0.000    0.000    0.000 
#    0.000    0.000    0.000    0.000    0.000    0.000 
#
# Total GULP energy -78433.477572 kJ/mol
# GULP energy per Si atom -5602.391255 kJ/mol
# Density = 2.377908 g / cm^3
# Si number density = 23.833328 Si / 1000 Ang^3
#
#
#
# Elastic Constant Matrix: (Units=GPa)
#
#
# Indices 1 2 3 4 5 6 
#
# 1 85.5512 51.8578 3.3966 0.0000 16.3553 0.0000
# 2 51.8578 97.5026 -15.9385 0.0000 6.9526 0.0000
# 3 3.3966 -15.9385 88.7214 0.0000 14.8985 0.0000
# 4 0.0000 0.0000 0.0000 32.6860 0.0000 2.6509
# 5 16.3553 6.9526 14.8985 0.0000 28.5982 0.0000
# 6 0.0000 0.0000 0.0000 2.6509 0.0000 16.0227
#
#
#
# Elastic Compliance Matrix: (Units=1/GPa)
#
#
# Indices 1 2 3 4 5 6 
#
# 1 0.019235 -0.009850 -0.001162 0.000000 -0.008000 0.000000
# 2 -0.009850 0.016023 0.003248 0.000000 0.000046 0.000000
# 3 -0.001162 0.003248 0.013063 0.000000 -0.006930 0.000000
# 4 0.000000 0.000000 0.000000 0.031010 0.000000 -0.005131
# 5 -0.008000 0.000046 -0.006930 0.000000 0.043142 0.000000
# 6 0.000000 0.000000 0.000000 -0.005131 0.000000 0.063260
#
#
# Mechanical properties :
#
#
# Convention : Reuss Voigt Hill
#
# Bulk Modulus (GPa) = 30.49581 38.93413 34.71497
# Shear Modulus (GPa) = 23.56348 30.95867 27.26107
#
# Velocity S-wave (km/s) = 3.14774 3.60803 3.38571
# Velocity P-wave (km/s) = 5.10237 5.80763 5.46639
#
# Compressibility (1/GPa) = 0.03279139
#
# Stress axis : x y z
#
# Youngs Moduli (GPa) = 51.98792 62.41189 76.55258
#
# Poissons Ratio (x) = 0.61476 0.08899
# Poissons Ratio (y) = 0.51208 -0.24863
# Poissons Ratio (z) = 0.06043 -0.20270
#
# Static dielectric constant tensor:
#      x y z
#    x 1.936340 0.000000 -0.004790 
#    y 0.000000 1.886720 0.000000 
#    z -0.004790 0.000000 1.905340 
# 
# From -- ./inp_files/27476.got.cif
#   From: 2010.05.17/outbox.cif.g08.bks.cpg/sg15_14_cif.got.tgz:27476.got - 2010.06.03 18:47:42.
