data_PCOD9305354
_publ_section_title
;
Structure prediction by ZEFSAII (Michael W. Deem and Ramdas Pophale) SiO2 
 PCOD9305354
Probable space group: C 2/C
;
_chemical_formula_sum "Si O2"
_cell_formula_units_Z 40
_cell_length_a 15.634294
_cell_length_b 24.479619
_cell_length_c 9.021119
_cell_angle_alpha 90.000000
_cell_angle_beta 35.886185
_cell_angle_gamma 90.000000
_cell_volume 2023.821161
_symmetry_space_group_name_H-M "C 2/C"
_symmetry_group_IT_number 15
_symmetry_cell_setting 'monoclinic'
loop_
_space_group_symop_operation_xyz
x,y,z
-x,y,1/2-z
-x,-y,-z
x,-y,1/2+z
1/2+x,1/2+y,z
1/2-x,1/2+y,1/2-z
1/2-x,1/2-y,-z
1/2+x,1/2-y,1/2+z
loop_
_atom_site_type_symbol
_atom_site_label
_atom_site_fract_x
_atom_site_fract_y
_atom_site_fract_z
Si Si1 0.410532 0.354241 0.634180
Si Si2 0.221053 0.852615 0.352595
Si Si3 0.844327 0.749508 0.519474
Si Si4 0.402742 0.040053 0.535680
Si Si5 0.106663 0.029508 0.460766
O O1 0.581978 0.362697 0.437492
O O2 0.376607 0.305419 0.566116
O O3 0.353739 0.409612 0.641418
O O4 0.334181 0.348606 0.901149
O O5 0.345088 0.899497 0.163918
O O6 0.276493 0.793586 0.226691
O O7 0.750000 0.750000 0.500000
O O8 0.000000 0.727857 0.250000
O O9 0.500000 0.000000 0.500000
O O10 0.250837 0.006803 0.752231
O O11 0.500000 0.045786 0.250000
O O12 0.000000 0.000000 0.500000
O O13 0.000000 0.033167 0.750000
#
# Coordination Sequence:
#
# PCOD9305354 Si02
#       5
#     8   8   8   8   8
#     4  11  24  44  71 102 135 185 238 285 343 425
#     4  11  24  45  70  98 143 183 231 288 351 420
#     4  12  25  45  70 102 138 180 236 294 353 413
#     4  12  26  44  67 105 144 180 227 294 354 404
#     4  12  24  43  73 100 135 185 239 280 342 426
#
# _framework density 19.764592
#
# number of rings (size 3 to 8) (size 9 to 14) (size 15 to 20)
#    0.000    0.400    4.000    5.400    0.000    1.600 
#    0.000    2.000    0.000    0.000    0.000    0.000 
#    0.000    0.000    0.000    0.000    0.000    0.000 
#
# Total GULP energy -111508.333495 kJ/mol
# GULP energy per Si atom -5575.416675 kJ/mol
# Density = 1.971961 g / cm^3
# Si number density = 19.764592 Si / 1000 Ang^3
#
#
#
# Elastic Constant Matrix: (Units=GPa)
#
#
# Indices 1 2 3 4 5 6 
#
# 1 106.5093 25.8370 34.7900 0.0000 -4.0041 0.0000
# 2 25.8370 110.0994 21.2687 0.0000 10.8195 0.0000
# 3 34.7900 21.2687 111.4198 0.0000 6.5702 0.0000
# 4 0.0000 0.0000 0.0000 46.7972 0.0000 1.3248
# 5 -4.0041 10.8195 6.5702 0.0000 43.7630 0.0000
# 6 0.0000 0.0000 0.0000 1.3248 0.0000 36.4415
#
#
#
# Elastic Compliance Matrix: (Units=1/GPa)
#
#
# Indices 1 2 3 4 5 6 
#
# 1 0.011020 -0.002177 -0.003144 0.000000 0.002019 0.000000
# 2 -0.002177 0.010052 -0.001090 0.000000 -0.002521 0.000000
# 3 -0.003144 -0.001090 0.010257 0.000000 -0.001558 0.000000
# 4 0.000000 0.000000 0.000000 0.021391 0.000000 -0.000778
# 5 0.002019 -0.002521 -0.001558 0.000000 0.023892 0.000000
# 6 0.000000 0.000000 0.000000 -0.000778 0.000000 0.027469
#
#
# Mechanical properties :
#
#
# Convention : Reuss Voigt Hill
#
# Bulk Modulus (GPa) = 54.03883 54.64666 54.34274
# Shear Modulus (GPa) = 40.62630 41.80919 41.21774
#
# Velocity S-wave (km/s) = 4.53869 4.60429 4.57161
# Velocity P-wave (km/s) = 7.40722 7.48163 7.44452
#
# Compressibility (1/GPa) = 0.01850521
#
# Stress axis : x y z
#
# Youngs Moduli (GPa) = 90.74496 99.48353 97.49554
#
# Poissons Ratio (x) = 0.21657 0.30656
# Poissons Ratio (y) = 0.19755 0.10631
# Poissons Ratio (z) = 0.28533 0.10848
#
# Static dielectric constant tensor:
#      x y z
#    x 1.494630 0.000000 0.070880 
#    y 0.000000 1.678950 0.000000 
#    z 0.070880 0.000000 1.613030 
# 
# From -- ./inp_files/41936.got.cif
#   From: 2010.05.17/outbox.cif.g08.bks.cpg/sg15_21_cif.got.tgz:41936.got - 2010.06.03 18:47:42.
