data_PCOD9305227
_publ_section_title
;
Structure prediction by ZEFSAII (Michael W. Deem and Ramdas Pophale) SiO2 
 PCOD9305227
Probable space group: C 2/C
;
_chemical_formula_sum "Si O2"
_cell_formula_units_Z 40
_cell_length_a 8.874315
_cell_length_b 16.344276
_cell_length_c 24.655704
_cell_angle_alpha 90.000000
_cell_angle_beta 30.192002
_cell_angle_gamma 90.000000
_cell_volume 1798.452464
_symmetry_space_group_name_H-M "C 2/C"
_symmetry_group_IT_number 15
_symmetry_cell_setting 'monoclinic'
loop_
_space_group_symop_operation_xyz
x,y,z
-x,y,1/2-z
-x,-y,-z
x,-y,1/2+z
1/2+x,1/2+y,z
1/2-x,1/2+y,1/2-z
1/2-x,1/2-y,-z
1/2+x,1/2-y,1/2+z
loop_
_atom_site_type_symbol
_atom_site_label
_atom_site_fract_x
_atom_site_fract_y
_atom_site_fract_z
Si Si1 0.873418 0.590816 0.044946
Si Si2 0.134720 0.571918 0.647440
Si Si3 0.843522 0.401893 0.927140
Si Si4 0.727984 0.143951 0.220636
Si Si5 0.846199 0.321280 0.145510
O O1 0.513136 0.593739 0.152307
O O2 0.999084 0.613225 0.064555
O O3 0.000000 0.500000 0.000000
O O4 0.994568 0.645914 0.957975
O O5 0.091453 0.488970 0.624200
O O6 0.486612 0.594387 0.542843
O O7 0.000000 0.570719 0.750000
O O8 0.987455 0.640379 0.655337
O O9 0.003755 0.335046 0.839225
O O10 0.500000 0.101220 0.250000
O O11 0.849892 0.223826 0.152309
O O12 0.500000 0.346942 0.250000
#
# Coordination Sequence:
#
# PCOD9305227 Si02
#       5
#     8   8   8   8   8
#     4  12  25  44  74 108 144 193 255 310 364 439
#     4  11  24  43  72 106 149 190 248 307 366 439
#     4  11  25  43  72 108 143 192 246 307 372 434
#     4  11  26  47  71 102 151 197 241 306 377 439
#     4  11  25  46  70 106 149 197 242 307 368 444
#
# _framework density 22.241344000000002
#
# number of rings (size 3 to 8) (size 9 to 14) (size 15 to 20)
#    0.000    0.800    2.000    4.200    8.400    3.200 
#    0.000    6.000    0.000    0.000    0.000    0.000 
#    0.000    0.000    0.000    0.000    0.000    0.000 
#
# Total GULP energy -111745.694329 kJ/mol
# GULP energy per Si atom -5587.284716 kJ/mol
# Density = 2.219072 g / cm^3
# Si number density = 22.241344 Si / 1000 Ang^3
#
#
#
# Elastic Constant Matrix: (Units=GPa)
#
#
# Indices 1 2 3 4 5 6 
#
# 1 226.9703 47.1610 99.0090 -0.0001 -6.8835 0.0037
# 2 47.1610 72.2854 35.7293 -0.0035 -1.8865 0.0016
# 3 99.0090 35.7293 177.5523 0.1254 -11.1204 -0.0626
# 4 -0.0001 -0.0035 0.1254 21.4896 -0.0625 8.9748
# 5 -6.8835 -1.8865 -11.1204 -0.0625 56.9113 0.0179
# 6 0.0037 0.0016 -0.0626 8.9748 0.0179 23.3837
#
#
#
# Elastic Compliance Matrix: (Units=1/GPa)
#
#
# Indices 1 2 3 4 5 6 
#
# 1 0.006236 -0.002610 -0.002947 0.000025 0.000092 -0.000018
# 2 -0.002610 0.016455 -0.001864 0.000018 -0.000134 -0.000013
# 3 -0.002947 -0.001864 0.007719 -0.000060 0.001090 0.000044
# 4 0.000025 0.000018 -0.000060 0.055418 0.000059 -0.021270
# 5 0.000092 -0.000134 0.001090 0.000059 0.017791 -0.000033
# 6 -0.000018 -0.000013 0.000044 -0.021270 -0.000033 0.050929
#
#
# Mechanical properties :
#
#
# Convention : Reuss Voigt Hill
#
# Bulk Modulus (GPa) = 64.23350 93.40073 78.81712
# Shear Modulus (GPa) = 28.64044 40.01749 34.32897
#
# Velocity S-wave (km/s) = 3.59236 4.24635 3.93297
# Velocity P-wave (km/s) = 6.79336 8.13187 7.49256
#
# Compressibility (1/GPa) = 0.01556820
#
# Stress axis : x y z
#
# Youngs Moduli (GPa) = 160.35054 60.77251 129.55410
#
# Poissons Ratio (x) = 0.15861 0.38175
# Poissons Ratio (y) = 0.41850 0.24153
# Poissons Ratio (z) = 0.47250 0.11330
#
# Static dielectric constant tensor:
#      x y z
#    x 1.774220 -0.000090 0.048380 
#    y -0.000090 1.914660 0.000070 
#    z 0.048380 0.000070 1.868740 
# 
# From -- ./inp_files/76932.got.cif
#   From: 2010.05.17/outbox.cif.g08.bks.cpg/sg15_39_cif.got.tgz:76932.got - 2010.06.03 18:47:42.
