data_PCOD9305747
_publ_section_title
;
Structure prediction by ZEFSAII (Michael W. Deem and Ramdas Pophale) SiO2 
 PCOD9305747
Probable space group: C 2/C
;
_chemical_formula_sum "Si O2"
_cell_formula_units_Z 48
_cell_length_a 11.303661
_cell_length_b 10.732844
_cell_length_c 17.410586
_cell_angle_alpha 90.000000
_cell_angle_beta 66.425829
_cell_angle_gamma 90.000000
_cell_volume 1935.977159
_symmetry_space_group_name_H-M "C 2/C"
_symmetry_group_IT_number 15
_symmetry_cell_setting 'monoclinic'
loop_
_space_group_symop_operation_xyz
x,y,z
-x,y,1/2-z
-x,-y,-z
x,-y,1/2+z
1/2+x,1/2+y,z
1/2-x,1/2+y,1/2-z
1/2-x,1/2-y,-z
1/2+x,1/2-y,1/2+z
loop_
_atom_site_type_symbol
_atom_site_label
_atom_site_fract_x
_atom_site_fract_y
_atom_site_fract_z
Si Si1 0.539205 0.024760 0.826474
Si Si2 0.523672 0.639201 0.966120
Si Si3 0.364983 0.716869 0.146747
Si Si4 0.797388 0.916378 0.808775
Si Si5 0.695559 0.185210 0.589985
Si Si6 0.891839 0.182001 0.841475
O O1 0.500000 0.991840 0.750000
O O2 0.617939 0.155523 0.809296
O O3 0.402943 0.071394 0.897792
O O4 0.640126 0.928635 0.839285
O O5 0.673005 0.640431 0.904760
O O6 0.443895 0.683616 0.913820
O O7 0.500000 0.500000 0.000000
O O8 0.475679 0.714411 0.053787
O O9 0.356044 0.604161 0.208889
O O10 0.228869 0.727327 0.138964
O O11 0.848158 0.800355 0.845654
O O12 0.843762 0.042041 0.836234
O O13 0.750000 0.250000 0.500000
O O14 0.000000 0.209758 0.750000
#
# Coordination Sequence:
#
# PCOD9305747 Si02
#       6
#     8   8   8   8   8   8
#     4  11  25  45  72 106 136 187 245 285 357 432
#     4  12  26  44  69 102 139 183 233 289 362 422
#     4  11  24  47  68 100 141 186 232 294 355 417
#     4  11  26  45  74 100 139 188 234 292 355 427
#     4  12  25  46  71 101 141 182 231 297 353 421
#     4  11  25  44  69 102 138 183 236 285 350 431
#
# _framework density 24.793682
#
# number of rings (size 3 to 8) (size 9 to 14) (size 15 to 20)
#    0.000    0.667    3.333    3.500    7.000    2.667 
#    3.000    0.000    0.000    0.000    0.000    0.000 
#    0.000    0.000    0.000    0.000    0.000    0.000 
#
# Total GULP energy -134306.992224 kJ/mol
# GULP energy per Si atom -5596.124676 kJ/mol
# Density = 2.473725 g / cm^3
# Si number density = 24.793682 Si / 1000 Ang^3
#
#
#
# Elastic Constant Matrix: (Units=GPa)
#
#
# Indices 1 2 3 4 5 6 
#
# 1 133.5538 0.4376 28.0395 0.0000 -12.0894 0.0000
# 2 0.4376 57.8445 8.4156 0.0000 4.4620 0.0000
# 3 28.0395 8.4156 116.2620 0.0000 5.7353 0.0000
# 4 0.0000 0.0000 0.0000 14.0268 0.0000 -13.1608
# 5 -12.0894 4.4620 5.7353 0.0000 46.1544 0.0000
# 6 0.0000 0.0000 0.0000 -13.1608 0.0000 35.9638
#
#
#
# Elastic Compliance Matrix: (Units=1/GPa)
#
#
# Indices 1 2 3 4 5 6 
#
# 1 0.008141 0.000058 -0.002085 0.000000 0.002386 0.000000
# 2 0.000058 0.017582 -0.001211 0.000000 -0.001534 0.000000
# 3 -0.002085 -0.001211 0.009270 0.000000 -0.001581 0.000000
# 4 0.000000 0.000000 0.000000 0.108569 0.000000 0.039730
# 5 0.002386 -0.001534 -0.001581 0.000000 0.022636 0.000000
# 6 0.000000 0.000000 0.000000 0.039730 0.000000 0.042345
#
#
# Mechanical properties :
#
#
# Convention : Reuss Voigt Hill
#
# Bulk Modulus (GPa) = 35.06818 42.38285 38.72552
# Shear Modulus (GPa) = 22.26917 37.28018 29.77468
#
# Velocity S-wave (km/s) = 3.00022 3.88186 3.46916
# Velocity P-wave (km/s) = 5.11629 6.10107 5.63025
#
# Compressibility (1/GPa) = 0.02851588
#
# Stress axis : x y z
#
# Youngs Moduli (GPa) = 122.83155 56.87703 107.87672
#
# Poissons Ratio (x) = -0.00328 0.22496
# Poissons Ratio (y) = -0.00709 0.13063
# Poissons Ratio (z) = 0.25615 0.06887
#
# Static dielectric constant tensor:
#      x y z
#    x 2.063890 0.000000 -0.029670 
#    y 0.000000 1.948330 0.000000 
#    z -0.029670 0.000000 1.986120 
# 
# From -- ./inp_files/196504.got.cif
#   From: 2010.05.17/outbox.cif.g08.bks.cpg/sg15_99_cif.got.tgz:196504.got - 2010.06.03 18:47:42.
