data_PCOD9305650
_publ_section_title
;
Structure prediction by ZEFSAII (Michael W. Deem and Ramdas Pophale) SiO2 
 PCOD9305650
Probable space group: C 2/C
;
_chemical_formula_sum "Si O2"
_cell_formula_units_Z 40
_cell_length_a 11.475647
_cell_length_b 9.306009
_cell_length_c 14.214347
_cell_angle_alpha 90.000000
_cell_angle_beta 95.782620
_cell_angle_gamma 90.000000
_cell_volume 1510.260741
_symmetry_space_group_name_H-M "C 2/C"
_symmetry_group_IT_number 15
_symmetry_cell_setting 'monoclinic'
loop_
_space_group_symop_operation_xyz
x,y,z
-x,y,1/2-z
-x,-y,-z
x,-y,1/2+z
1/2+x,1/2+y,z
1/2-x,1/2+y,1/2-z
1/2-x,1/2-y,-z
1/2+x,1/2-y,1/2+z
loop_
_atom_site_type_symbol
_atom_site_label
_atom_site_fract_x
_atom_site_fract_y
_atom_site_fract_z
Si Si1 0.805633 0.966579 0.520815
Si Si2 0.541796 0.309658 0.551338
Si Si3 0.000000 0.194900 0.250000
Si Si4 0.500000 0.000000 0.000000
Si Si5 0.152383 0.645256 0.170924
Si Si6 0.799634 0.411902 0.174782
O O1 0.756504 0.923728 0.615968
O O2 0.700937 0.943493 0.437533
O O3 0.913144 0.859821 0.508758
O O4 0.860823 0.119965 0.506357
O O5 0.548675 0.377031 0.658421
O O6 0.555775 0.140747 0.555949
O O7 0.899436 0.299427 0.206024
O O8 0.459672 0.895030 0.902152
O O9 0.169042 0.556223 0.267863
O O10 0.183789 0.814485 0.187058
#
# Coordination Sequence:
#
# PCOD9305650 Si02
#       6
#     8   8   4   4   8   8
#     4  11  25  46  74  99 138 188 236 293 348 431
#     4  11  24  46  72 100 138 186 236 286 360 418
#     4  12  22  44  70 100 136 188 230 288 352 424
#     4  12  24  46  68 106 138 188 232 294 360 420
#     4  12  26  47  70 105 144 184 242 295 360 428
#     4  12  25  45  72 104 139 191 236 293 357 430
#
# _framework density 26.485491
#
# number of rings (size 3 to 8) (size 9 to 14) (size 15 to 20)
#    0.000    0.400    6.000    3.000    0.000    0.800 
#    3.600    0.000    0.000    0.000    0.000    0.000 
#    0.000    0.000    0.000    0.000    0.000    0.000 
#
# Total GULP energy -111539.191145 kJ/mol
# GULP energy per Si atom -5576.959557 kJ/mol
# Density = 2.642521 g / cm^3
# Si number density = 26.485491 Si / 1000 Ang^3
#
#
#
# Elastic Constant Matrix: (Units=GPa)
#
#
# Indices 1 2 3 4 5 6 
#
# 1 60.1068 -1.1417 -0.1024 0.0000 8.7208 0.0000
# 2 -1.1417 120.4865 5.6584 0.0000 -9.2173 0.0000
# 3 -0.1024 5.6584 127.3314 0.0000 0.4778 0.0000
# 4 0.0000 0.0000 0.0000 41.8791 0.0000 -2.1478
# 5 8.7208 -9.2173 0.4778 0.0000 44.3137 0.0000
# 6 0.0000 0.0000 0.0000 -2.1478 0.0000 22.1901
#
#
#
# Elastic Compliance Matrix: (Units=1/GPa)
#
#
# Indices 1 2 3 4 5 6 
#
# 1 0.017127 -0.000099 0.000031 0.000000 -0.003391 0.000000
# 2 -0.000099 0.008453 -0.000382 0.000000 0.001782 0.000000
# 3 0.000031 -0.000382 0.007871 0.000000 -0.000170 0.000000
# 4 0.000000 0.000000 0.000000 0.023997 0.000000 0.002323
# 5 -0.003391 0.001782 -0.000170 0.000000 0.023606 0.000000
# 6 0.000000 0.000000 0.000000 0.002323 0.000000 0.045290
#
#
# Mechanical properties :
#
#
# Convention : Reuss Voigt Hill
#
# Bulk Modulus (GPa) = 30.72078 35.19480 32.95779
# Shear Modulus (GPa) = 36.20673 41.91059 39.05866
#
# Velocity S-wave (km/s) = 3.70136 3.98225 3.84437
# Velocity P-wave (km/s) = 5.46727 5.87040 5.67242
#
# Compressibility (1/GPa) = 0.03255126
#
# Stress axis : x y z
#
# Youngs Moduli (GPa) = 58.38631 118.30095 127.04578
#
# Poissons Ratio (x) = 0.01166 -0.00392
# Poissons Ratio (y) = 0.00576 0.04858
# Poissons Ratio (z) = -0.00180 0.04524
#
# Static dielectric constant tensor:
#      x y z
#    x 1.742710 0.000000 0.094240 
#    y 0.000000 1.928140 0.000000 
#    z 0.094240 0.000000 2.052700 
# 
# From -- ./inp_files/150804.got.cif
#   From: 2010.05.17/outbox.cif.g08.bks.cpg/sg15_76_cif.got.tgz:150804.got - 2010.06.03 18:47:42.
