data_PCOD9305217
_publ_section_title
;
Structure prediction by ZEFSAII (Michael W. Deem and Ramdas Pophale) SiO2 
 PCOD9305217
Probable space group: C 2/C
;
_chemical_formula_sum "Si O2"
_cell_formula_units_Z 40
_cell_length_a 13.373306
_cell_length_b 7.874345
_cell_length_c 26.816283
_cell_angle_alpha 90.000000
_cell_angle_beta 35.806391
_cell_angle_gamma 90.000000
_cell_volume 1652.126907
_symmetry_space_group_name_H-M "C 2/C"
_symmetry_group_IT_number 15
_symmetry_cell_setting 'monoclinic'
loop_
_space_group_symop_operation_xyz
x,y,z
-x,y,1/2-z
-x,-y,-z
x,-y,1/2+z
1/2+x,1/2+y,z
1/2-x,1/2+y,1/2-z
1/2-x,1/2-y,-z
1/2+x,1/2-y,1/2+z
loop_
_atom_site_type_symbol
_atom_site_label
_atom_site_fract_x
_atom_site_fract_y
_atom_site_fract_z
Si Si1 0.491976 0.723045 0.194481
Si Si2 0.680478 0.030059 0.453919
Si Si3 0.806617 0.304113 0.846940
Si Si4 0.783616 0.435421 0.752172
Si Si5 0.135148 0.389452 0.574308
O O1 0.500000 0.736245 0.250000
O O2 0.687928 0.685158 0.102000
O O3 0.373498 0.569424 0.222108
O O4 0.385017 0.887261 0.218813
O O5 0.778812 0.877072 0.384445
O O6 0.633140 0.025615 0.531560
O O7 0.500000 0.000000 0.500000
O O8 0.715402 0.362160 0.832882
O O9 0.784056 0.425813 0.904173
O O10 0.000000 0.316766 0.750000
O O11 0.941400 0.329437 0.663870
O O12 0.250000 0.250000 0.500000
#
# Coordination Sequence:
#
# PCOD9305217 Si02
#       5
#     8   8   8   8   8
#     4  12  28  47  75 113 145 197 256 305 367 455
#     4  11  24  43  71 109 153 192 242 314 378 438
#     4   9  20  43  74  98 142 200 239 300 376 438
#     4  11  26  47  75 108 146 196 257 305 372 451
#     4   9  20  40  69 101 144 187 238 300 372 441
#
# _framework density 24.211213999999998
#
# number of rings (size 3 to 8) (size 9 to 14) (size 15 to 20)
#    0.000    1.600    0.000    3.600   14.000    0.800 
#    0.000    1.000    0.000    0.000    0.000    0.000 
#    0.000    0.000    0.000    0.000    0.000    0.000 
#
# Total GULP energy -111409.514995 kJ/mol
# GULP energy per Si atom -5570.475750 kJ/mol
# Density = 2.415611 g / cm^3
# Si number density = 24.211214 Si / 1000 Ang^3
#
#
#
# Elastic Constant Matrix: (Units=GPa)
#
#
# Indices 1 2 3 4 5 6 
#
# 1 127.3203 57.2452 85.0044 0.0000 -5.7314 -0.0001
# 2 57.2452 102.1626 36.1770 0.0000 0.8310 0.0000
# 3 85.0044 36.1770 133.5557 0.0000 28.9675 0.0000
# 4 0.0000 0.0000 0.0000 16.3258 0.0000 -8.1016
# 5 -5.7314 0.8310 28.9675 0.0000 48.3487 -0.0001
# 6 -0.0001 0.0000 0.0000 -8.1016 -0.0001 20.1598
#
#
#
# Elastic Compliance Matrix: (Units=1/GPa)
#
#
# Indices 1 2 3 4 5 6 
#
# 1 0.020268 -0.006710 -0.013366 0.000000 0.010526 0.000000
# 2 -0.006710 0.013187 0.001058 0.000000 -0.001656 0.000000
# 3 -0.013366 0.001058 0.018454 0.000000 -0.012659 0.000000
# 4 0.000000 0.000000 0.000000 0.076511 0.000000 0.030748
# 5 0.010526 -0.001656 -0.012659 0.000000 0.029544 0.000000
# 6 0.000000 0.000000 0.000000 0.030748 0.000000 0.061960
#
#
# Mechanical properties :
#
#
# Convention : Reuss Voigt Hill
#
# Bulk Modulus (GPa) = 72.08131 79.98797 76.03464
# Shear Modulus (GPa) = 19.04151 29.27434 24.15793
#
# Velocity S-wave (km/s) = 2.80746 3.48102 3.16222
# Velocity P-wave (km/s) = 6.35182 7.01897 6.69371
#
# Compressibility (1/GPa) = 0.01387322
#
# Stress axis : x y z
#
# Youngs Moduli (GPa) = 49.33794 75.83263 54.19002
#
# Poissons Ratio (x) = 0.50881 0.72429
# Poissons Ratio (y) = 0.33104 -0.05731
# Poissons Ratio (z) = 0.65944 -0.08020
#
# Static dielectric constant tensor:
#      x y z
#    x 2.032140 0.000000 -0.023450 
#    y 0.000000 2.439920 0.000000 
#    z -0.023450 0.000000 1.999860 
# 
# From -- ./inp_files/313038.got.cif
#   From: 2010.05.17/outbox.cif.g08.bks.cpg/sg15_157_cif.got.tgz:313038.got - 2010.06.03 18:47:42.
