data_PCOD9305324
_publ_section_title
;
Structure prediction by ZEFSAII (Michael W. Deem and Ramdas Pophale) SiO2 
 PCOD9305324
Probable space group: C 2/C
;
_chemical_formula_sum "Si O2"
_cell_formula_units_Z 48
_cell_length_a 25.231231
_cell_length_b 14.924714
_cell_length_c 9.569761
_cell_angle_alpha 90.000000
_cell_angle_beta 142.943071
_cell_angle_gamma 90.000000
_cell_volume 2171.603942
_symmetry_space_group_name_H-M "C 2/C"
_symmetry_group_IT_number 15
_symmetry_cell_setting 'monoclinic'
loop_
_space_group_symop_operation_xyz
x,y,z
-x,y,1/2-z
-x,-y,-z
x,-y,1/2+z
1/2+x,1/2+y,z
1/2-x,1/2+y,1/2-z
1/2-x,1/2-y,-z
1/2+x,1/2-y,1/2+z
loop_
_atom_site_type_symbol
_atom_site_label
_atom_site_fract_x
_atom_site_fract_y
_atom_site_fract_z
Si Si1 0.821505 0.947513 0.803263
Si Si2 0.754428 0.236111 0.175087
Si Si3 0.577359 0.455312 0.753391
Si Si4 0.500000 0.707423 0.250000
Si Si5 0.000000 0.485642 0.750000
Si Si6 0.618394 0.147762 0.094670
Si Si7 0.324457 0.904278 0.494362
O O1 0.823262 0.843480 0.844676
O O2 0.841394 0.954784 0.681599
O O3 0.732790 0.004990 0.642274
O O4 0.896188 0.990952 0.054219
O O5 0.670114 0.186640 0.068182
O O6 0.782629 0.327622 0.308844
O O7 0.750000 0.250000 0.000000
O O8 0.500000 0.500000 0.500000
O O9 0.556580 0.357967 0.771122
O O10 0.549333 0.771708 0.463167
O O11 0.936918 0.555909 0.535631
O O12 0.926971 0.425830 0.675856
O O13 0.680440 0.132840 0.357678
#
# Coordination Sequence:
#
# PCOD9305324 Si02
#       7
#     8   8   8   4   4   8   8
#     4  12  25  46  73 105 144 188 243 306 370 444
#     4  12  27  45  74 109 147 194 252 312 370 446
#     4  12  25  45  72 102 146 188 238 303 379 440
#     4  11  24  44  69 104 142 184 245 300 365 446
#     4  11  26  48  77 112 156 200 251 318 387 454
#     4  11  25  48  75 105 150 198 246 312 377 454
#     4  12  27  47  79 108 149 201 257 306 386 456
#
# _framework density 22.103476000000001
#
# number of rings (size 3 to 8) (size 9 to 14) (size 15 to 20)
#    0.000    0.333    3.333    5.000    4.667    4.000 
#    0.000    0.000    0.000    0.000    0.000    0.000 
#    0.000    0.000    0.000    0.000    0.000    0.000 
#
# Total GULP energy -133986.312402 kJ/mol
# GULP energy per Si atom -5582.763017 kJ/mol
# Density = 2.205317 g / cm^3
# Si number density = 22.103476 Si / 1000 Ang^3
#
#
#
# Elastic Constant Matrix: (Units=GPa)
#
#
# Indices 1 2 3 4 5 6 
#
# 1 102.1540 27.0326 22.8279 0.0000 3.2691 0.0000
# 2 27.0326 138.6903 30.3619 0.0000 -2.6023 0.0000
# 3 22.8279 30.3619 94.6595 0.0000 -15.1277 0.0000
# 4 0.0000 0.0000 0.0000 11.1379 0.0000 22.9212
# 5 3.2691 -2.6023 -15.1277 0.0000 31.0659 0.0000
# 6 0.0000 0.0000 0.0000 22.9212 0.0000 37.4705
#
#
#
# Elastic Compliance Matrix: (Units=1/GPa)
#
#
# Indices 1 2 3 4 5 6 
#
# 1 0.010855 -0.001616 -0.002498 0.000000 -0.002494 0.000000
# 2 -0.001616 0.008006 -0.002216 0.000000 -0.000239 0.000000
# 3 -0.002498 -0.002216 0.012893 0.000000 0.006356 0.000000
# 4 0.000000 0.000000 0.000000 -0.346818 0.000000 0.212153
# 5 -0.002494 -0.000239 0.006356 0.000000 0.035527 0.000000
# 6 0.000000 0.000000 0.000000 0.212153 0.000000 -0.103089
#
#
# Mechanical properties :
#
#
# Convention : Reuss Voigt Hill
#
# Bulk Modulus (GPa) = 52.37343 55.10541 53.73942
# Shear Modulus (GPa) = -13.75131 32.95360 9.60114
#
# Velocity S-wave (km/s) = -2.49697 3.86538 2.08642
# Velocity P-wave (km/s) = 3.92848 6.70122 5.49269
#
# Compressibility (1/GPa) = 0.01909365
#
# Stress axis : x y z
#
# Youngs Moduli (GPa) = 92.12571 124.90700 77.56016
#
# Poissons Ratio (x) = 0.20181 0.19375
# Poissons Ratio (y) = 0.14884 0.17190
# Poissons Ratio (z) = 0.23014 0.27684
#
# Static dielectric constant tensor:
#      x y z
#    x 2.038130 0.000000 0.078260 
#    y 0.000000 1.828640 0.000000 
#    z 0.078260 0.000000 1.812560 
# 
# From -- ./inp_files/66541.got.cif
#   From: 2010.05.17/outbox.cif.g08.bks.cpg/sg15_34_cif.got.tgz:66541.got - 2010.06.03 18:47:42.
