data_PCOD9305251
_publ_section_title
;
Structure prediction by ZEFSAII (Michael W. Deem and Ramdas Pophale) SiO2 
 PCOD9305251
Probable space group: C 2/C
;
_chemical_formula_sum "Si O2"
_cell_formula_units_Z 52
_cell_length_a 14.443683
_cell_length_b 11.820694
_cell_length_c 23.785552
_cell_angle_alpha 90.000000
_cell_angle_beta 29.866827
_cell_angle_gamma 90.000000
_cell_volume 2022.325539
_symmetry_space_group_name_H-M "C 2/C"
_symmetry_group_IT_number 15
_symmetry_cell_setting 'monoclinic'
loop_
_space_group_symop_operation_xyz
x,y,z
-x,y,1/2-z
-x,-y,-z
x,-y,1/2+z
1/2+x,1/2+y,z
1/2-x,1/2+y,1/2-z
1/2-x,1/2-y,-z
1/2+x,1/2-y,1/2+z
loop_
_atom_site_type_symbol
_atom_site_label
_atom_site_fract_x
_atom_site_fract_y
_atom_site_fract_z
Si Si1 0.308588 0.995268 0.566185
Si Si2 0.003051 0.154465 0.904499
Si Si3 0.666329 0.279735 0.196427
Si Si4 0.207939 0.805637 0.698281
Si Si5 0.684557 0.582503 0.325952
Si Si6 0.000000 0.387335 0.250000
Si Si7 0.129101 0.541736 0.093428
O O1 0.208828 0.886419 0.644427
O O2 0.329119 0.985840 0.488869
O O3 0.500000 0.000000 0.500000
O O4 0.214232 0.112546 0.633467
O O5 0.080388 0.035535 0.888486
O O6 0.094101 0.172369 0.794559
O O7 0.085792 0.261028 0.894268
O O8 0.781639 0.140718 0.017724
O O9 0.500000 0.219859 0.250000
O O10 0.828151 0.188964 0.125056
O O11 0.132112 0.873058 0.791705
O O12 0.094368 0.693204 0.745762
O O13 0.908583 0.565440 0.207241
O O14 0.147154 0.462395 0.138432
#
# Coordination Sequence:
#
# PCOD9305251 Si02
#       7
#     8   8   8   8   8   4   8
#     4  12  25  47  76 112 148 197 253 307 368 451
#     4  11  24  49  78 110 149 199 246 307 382 440
#     4  11  24  43  75 110 151 193 247 306 368 442
#     4  11  26  46  75 107 158 189 250 309 376 442
#     4  11  25  48  72 113 156 191 244 313 367 449
#     4  12  30  50  70 114 156 200 244 320 374 446
#     4  12  27  51  78 109 153 197 256 308 378 445
#
# _framework density 25.712972000000001
#
# number of rings (size 3 to 8) (size 9 to 14) (size 15 to 20)
#    0.000    0.615    6.154    0.000    6.462    6.154 
#    0.000    0.000    0.000    0.000    0.000    0.000 
#    0.000    0.000    0.000    0.000    0.000    0.000 
#
# Total GULP energy -145752.538528 kJ/mol
# GULP energy per Si atom -5605.866866 kJ/mol
# Density = 2.565445 g / cm^3
# Si number density = 25.712972 Si / 1000 Ang^3
#
#
#
# Elastic Constant Matrix: (Units=GPa)
#
#
# Indices 1 2 3 4 5 6 
#
# 1 91.1195 25.7420 28.5534 0.0020 12.6442 -0.0007
# 2 25.7420 138.4203 38.8832 0.0000 16.7601 0.0004
# 3 28.5534 38.8832 79.1356 0.0025 12.7918 -0.0021
# 4 0.0020 0.0000 0.0025 34.2157 -0.0023 0.1186
# 5 12.6442 16.7601 12.7918 -0.0023 52.9406 0.0011
# 6 -0.0007 0.0004 -0.0021 0.1186 0.0011 41.1202
#
#
#
# Elastic Compliance Matrix: (Units=1/GPa)
#
#
# Indices 1 2 3 4 5 6 
#
# 1 0.012709 -0.001091 -0.003761 -0.000001 -0.001781 0.000000
# 2 -0.001091 0.008629 -0.003587 0.000000 -0.001605 0.000000
# 3 -0.003761 -0.003587 0.016054 -0.000001 -0.001845 0.000001
# 4 -0.000001 0.000000 -0.000001 0.029227 0.000002 -0.000084
# 5 -0.001781 -0.001605 -0.001845 0.000002 0.020268 -0.000001
# 6 0.000000 0.000000 0.000001 -0.000084 -0.000001 0.024319
#
#
# Mechanical properties :
#
#
# Convention : Reuss Voigt Hill
#
# Bulk Modulus (GPa) = 48.74887 55.00361 51.87624
# Shear Modulus (GPa) = 37.05815 40.02176 38.53996
#
# Velocity S-wave (km/s) = 3.80046 3.94951 3.87570
# Velocity P-wave (km/s) = 6.18531 6.49892 6.34405
#
# Compressibility (1/GPa) = 0.02051330
#
# Stress axis : x y z
#
# Youngs Moduli (GPa) = 78.68624 115.88632 62.28820
#
# Poissons Ratio (x) = 0.12645 0.23430
# Poissons Ratio (y) = 0.08586 0.22342
# Poissons Ratio (z) = 0.29598 0.41567
#
# Static dielectric constant tensor:
#      x y z
#    x 2.081740 0.000000 -0.093370 
#    y 0.000000 2.014430 0.000000 
#    z -0.093370 0.000000 2.103100 
# 
# From -- ./inp_files/273808.got.cif
#   From: 2010.05.17/outbox.cif.g08.bks.cpg/sg15_137_cif.got.tgz:273808.got - 2010.06.03 18:47:42.
