data_PCOD9305884
_publ_section_title
;
Structure prediction by ZEFSAII (Michael W. Deem and Ramdas Pophale) SiO2 
 PCOD9305884
Probable space group: C 2/C
;
_chemical_formula_sum "Si O2"
_cell_formula_units_Z 44
_cell_length_a 8.810479
_cell_length_b 17.148981
_cell_length_c 18.729660
_cell_angle_alpha 90.000000
_cell_angle_beta 48.680796
_cell_angle_gamma 90.000000
_cell_volume 2125.359813
_symmetry_space_group_name_H-M "C 2/C"
_symmetry_group_IT_number 15
_symmetry_cell_setting 'monoclinic'
loop_
_space_group_symop_operation_xyz
x,y,z
-x,y,1/2-z
-x,-y,-z
x,-y,1/2+z
1/2+x,1/2+y,z
1/2-x,1/2+y,1/2-z
1/2-x,1/2-y,-z
1/2+x,1/2-y,1/2+z
loop_
_atom_site_type_symbol
_atom_site_label
_atom_site_fract_x
_atom_site_fract_y
_atom_site_fract_z
Si Si1 0.799962 0.329394 0.763843
Si Si2 0.072338 0.532129 0.364148
Si Si3 0.529001 0.261076 0.535551
Si Si4 0.500000 0.934699 0.250000
Si Si5 0.612687 0.325815 0.352779
Si Si6 0.797710 0.397711 0.072712
O O1 0.787081 0.401755 0.714117
O O2 0.606581 0.317238 0.873509
O O3 0.831769 0.250293 0.709832
O O4 0.000000 0.340344 0.750000
O O5 0.972171 0.487224 0.328862
O O6 0.186384 0.468403 0.376644
O O7 0.909075 0.573941 0.465815
O O8 0.545640 0.296532 0.451547
O O9 0.418088 0.177475 0.564797
O O10 0.750000 0.250000 0.500000
O O11 0.305446 0.881025 0.299206
O O12 0.427966 0.370718 0.373520
#
# Coordination Sequence:
#
# PCOD9305884 Si02
#       6
#     8   8   8   4   8   8
#     4  12  23  45  77 105 135 186 243 291 348 429
#     4  11  25  46  68 107 144 181 236 293 363 423
#     4  12  25  45  75 110 143 186 244 298 348 423
#     4  12  28  46  68 106 148 182 234 302 360 430
#     4  12  25  47  75 101 141 190 239 286 356 423
#     4  11  24  48  73 100 146 189 232 295 360 427
#
# _framework density 20.702376999999998
#
# number of rings (size 3 to 8) (size 9 to 14) (size 15 to 20)
#    0.000    0.364    4.545    4.909    0.000    0.727 
#    9.818    0.000    0.000    0.000    0.000    0.000 
#    0.000    0.000    0.000    0.000    0.000    0.000 
#
# Total GULP energy -123268.295426 kJ/mol
# GULP energy per Si atom -5603.104338 kJ/mol
# Density = 2.065526 g / cm^3
# Si number density = 20.702377 Si / 1000 Ang^3
#
#
#
# Elastic Constant Matrix: (Units=GPa)
#
#
# Indices 1 2 3 4 5 6 
#
# 1 124.6445 45.9389 38.2671 0.0000 -18.8615 0.0000
# 2 45.9389 109.5383 30.7397 -0.0003 -0.9543 0.0004
# 3 38.2671 30.7397 107.3609 -0.0003 9.8800 0.0003
# 4 0.0000 -0.0003 -0.0003 30.5733 -0.0001 33.8560
# 5 -18.8615 -0.9543 9.8800 -0.0001 41.1483 0.0001
# 6 0.0000 0.0004 0.0003 33.8560 0.0001 13.6377
#
#
#
# Elastic Compliance Matrix: (Units=1/GPa)
#
#
# Indices 1 2 3 4 5 6 
#
# 1 0.011391 -0.003731 -0.003543 0.000000 0.005986 0.000000
# 2 -0.003731 0.011184 -0.001778 0.000000 -0.001024 0.000000
# 3 -0.003543 -0.001778 0.011493 0.000000 -0.004425 0.000000
# 4 0.000000 0.000000 0.000000 -0.018700 0.000000 0.046424
# 5 0.005986 -0.001024 -0.004425 0.000000 0.028085 0.000000
# 6 0.000000 0.000000 0.000000 0.046424 0.000000 -0.041923
#
#
# Mechanical properties :
#
#
# Convention : Reuss Voigt Hill
#
# Bulk Modulus (GPa) = 62.63740 63.49279 63.06509
# Shear Modulus (GPa) = 200.34815 32.17839 116.26327
#
# Velocity S-wave (km/s) = 9.84812 3.94678 7.50209
# Velocity P-wave (km/s) = 12.63471 7.17672 10.27476
#
# Compressibility (1/GPa) = 0.01596490
#
# Stress axis : x y z
#
# Youngs Moduli (GPa) = 87.78570 89.41307 87.00571
#
# Poissons Ratio (x) = 0.33360 0.30825
# Poissons Ratio (y) = 0.32753 0.15471
# Poissons Ratio (z) = 0.31101 0.15899
#
# Static dielectric constant tensor:
#      x y z
#    x 1.725460 0.000000 -0.015470 
#    y 0.000000 1.721930 0.000000 
#    z -0.015470 0.000000 1.795150 
# 
# From -- ./inp_files/134272.got.cif
#   From: 2010.05.17/outbox.cif.g08.bks.cpg/sg15_68_cif.got.tgz:134272.got - 2010.06.03 18:47:42.
