data_PCOD9305065
_publ_section_title
;
Structure prediction by ZEFSAII (Michael W. Deem and Ramdas Pophale) SiO2 
 PCOD9305065
Probable space group: C 2/C
;
_chemical_formula_sum "Si O2"
_cell_formula_units_Z 44
_cell_length_a 9.157732
_cell_length_b 10.531932
_cell_length_c 19.299365
_cell_angle_alpha 90.000000
_cell_angle_beta 69.138586
_cell_angle_gamma 90.000000
_cell_volume 1739.372150
_symmetry_space_group_name_H-M "C 2/C"
_symmetry_group_IT_number 15
_symmetry_cell_setting 'monoclinic'
loop_
_space_group_symop_operation_xyz
x,y,z
-x,y,1/2-z
-x,-y,-z
x,-y,1/2+z
1/2+x,1/2+y,z
1/2-x,1/2+y,1/2-z
1/2-x,1/2-y,-z
1/2+x,1/2-y,1/2+z
loop_
_atom_site_type_symbol
_atom_site_label
_atom_site_fract_x
_atom_site_fract_y
_atom_site_fract_z
Si Si1 0.202748 0.897616 0.639819
Si Si2 0.071986 0.409364 0.596184
Si Si3 0.536458 0.348373 0.173037
Si Si4 0.750000 0.250000 0.000000
Si Si5 0.273364 0.130934 0.854035
Si Si6 0.944086 0.135857 0.484230
O O1 0.391054 0.910873 0.609664
O O2 0.167582 0.765237 0.686253
O O3 0.108560 0.875748 0.585135
O O4 0.141787 0.033613 0.675529
O O5 0.196089 0.407411 0.513896
O O6 0.116919 0.511679 0.646836
O O7 0.110059 0.255471 0.607160
O O8 0.500000 0.273904 0.250000
O O9 0.378009 0.400224 0.166111
O O10 0.909234 0.224872 0.024513
O O11 0.199359 0.169494 0.940942
O O12 0.000000 0.000000 0.500000
#
# Coordination Sequence:
#
# PCOD9305065 Si02
#       6
#     8   8   8   4   8   8
#     4  11  24  43  65 102 132 177 225 272 339 407
#     4  11  25  42  68 102 135 176 223 274 346 404
#     4  11  25  48  68  90 133 179 229 282 332 397
#     4  12  20  38  66  92 140 178 202 264 340 404
#     4  11  24  42  64  99 137 170 220 277 332 400
#     4  12  21  40  63  97 142 175 212 266 336 409
#
# _framework density 25.296485000000001
#
# number of rings (size 3 to 8) (size 9 to 14) (size 15 to 20)
#    0.000    0.727    7.273    0.545    0.000    8.000 
#    0.000    0.909    0.000    0.000    0.000    0.000 
#    0.000    0.000    0.000    0.000    0.000    0.000 
#
# Total GULP energy -122486.330155 kJ/mol
# GULP energy per Si atom -5567.560462 kJ/mol
# Density = 2.523891 g / cm^3
# Si number density = 25.296485 Si / 1000 Ang^3
#
#
#
# Elastic Constant Matrix: (Units=GPa)
#
#
# Indices 1 2 3 4 5 6 
#
# 1 161.2872 77.6604 27.7049 0.0000 -12.2220 0.0000
# 2 77.6604 160.0460 -1.8591 0.0000 -5.6870 0.0000
# 3 27.7049 -1.8591 51.1875 0.0000 0.1651 0.0000
# 4 0.0000 0.0000 0.0000 8.6681 0.0000 -8.8737
# 5 -12.2220 -5.6870 0.1651 0.0000 20.4369 0.0000
# 6 0.0000 0.0000 0.0000 -8.8737 0.0000 58.3603
#
#
#
# Elastic Compliance Matrix: (Units=1/GPa)
#
#
# Indices 1 2 3 4 5 6 
#
# 1 0.009696 -0.004606 -0.005430 0.000000 0.004561 0.000000
# 2 -0.004606 0.008501 0.002803 0.000000 -0.000412 0.000000
# 3 -0.005430 0.002803 0.022585 0.000000 -0.002650 0.000000
# 4 0.000000 0.000000 0.000000 0.136633 0.000000 0.020775
# 5 0.004561 -0.000412 -0.002650 0.000000 0.051565 0.000000
# 6 0.000000 0.000000 0.000000 0.020775 0.000000 0.020294
#
#
# Mechanical properties :
#
#
# Convention : Reuss Voigt Hill
#
# Bulk Modulus (GPa) = 37.99856 64.39257 51.19557
# Shear Modulus (GPa) = 18.34775 35.42737 26.88756
#
# Velocity S-wave (km/s) = 2.69608 3.74637 3.26375
# Velocity P-wave (km/s) = 4.97450 6.65012 5.87238
#
# Compressibility (1/GPa) = 0.02631679
#
# Stress axis : x y z
#
# Youngs Moduli (GPa) = 103.13211 117.63105 44.27643
#
# Poissons Ratio (x) = 0.54181 0.24042
# Poissons Ratio (y) = 0.47503 -0.12411
# Poissons Ratio (z) = 0.56001 -0.32973
#
# Static dielectric constant tensor:
#      x y z
#    x 1.761760 0.000000 0.909940 
#    y 0.000000 2.151930 0.000000 
#    z 0.909940 0.000000 -2.927260 
# 
# From -- ./inp_files/263017.got.cif
#   From: 2010.05.17/outbox.cif.g08.bks.cpg/sg15_132_cif.got.tgz:263017.got - 2010.06.03 18:47:42.
