data_PCOD9305604
_publ_section_title
;
Structure prediction by ZEFSAII (Michael W. Deem and Ramdas Pophale) SiO2 
 PCOD9305604
Probable space group: C 2/C
;
_chemical_formula_sum "Si O2"
_cell_formula_units_Z 52
_cell_length_a 8.246926
_cell_length_b 27.222583
_cell_length_c 14.113853
_cell_angle_alpha 90.000000
_cell_angle_beta 138.341306
_cell_angle_gamma 90.000000
_cell_volume 2106.140851
_symmetry_space_group_name_H-M "C 2/C"
_symmetry_group_IT_number 15
_symmetry_cell_setting 'monoclinic'
loop_
_space_group_symop_operation_xyz
x,y,z
-x,y,1/2-z
-x,-y,-z
x,-y,1/2+z
1/2+x,1/2+y,z
1/2-x,1/2+y,1/2-z
1/2-x,1/2-y,-z
1/2+x,1/2-y,1/2+z
loop_
_atom_site_type_symbol
_atom_site_label
_atom_site_fract_x
_atom_site_fract_y
_atom_site_fract_z
Si Si1 0.500000 0.383980 0.250000
Si Si2 0.213695 0.353587 0.773449
Si Si3 0.435824 0.270150 0.506131
Si Si4 0.000000 0.491556 0.250000
Si Si5 0.310054 0.802449 0.477225
Si Si6 0.492353 0.086545 0.599421
Si Si7 0.721088 0.447990 0.791231
Si Si8 0.000000 0.325330 0.250000
O O1 0.630873 0.347187 0.381960
O O2 0.713082 0.413671 0.289398
O O3 0.365990 0.397294 0.794912
O O4 0.000000 0.372593 0.750000
O O5 0.058175 0.323503 0.629117
O O6 0.389616 0.316053 0.900811
O O7 0.250000 0.250000 0.500000
O O8 0.615787 0.223208 0.586279
O O9 0.241240 0.291406 0.344802
O O10 0.879637 0.453774 0.122312
O O11 0.840568 0.522866 0.255576
O O12 0.250000 0.750000 0.500000
O O13 0.397403 0.071542 0.452889
O O14 0.453220 0.137868 0.639080
O O15 0.500000 0.473601 0.750000
#
# Coordination Sequence:
#
# PCOD9305604 Si02
#       8
#     4   8   8   4   8   8   8   4
#     4  12  24  44  75 102 154 204 247 322 378 456
#     4  12  25  45  68 106 150 198 252 316 383 445
#     4  12  25  42  70 104 152 204 266 317 367 447
#     4  11  28  54  83 118 148 194 253 318 396 479
#     4  12  23  41  66 103 146 200 254 307 368 436
#     4  11  26  50  76 112 153 196 256 313 398 473
#     4  12  27  51  80 114 155 196 253 318 393 473
#     4  11  24  46  68 106 152 210 256 316 390 449
#
# _framework density 24.689706999999999
#
# number of rings (size 3 to 8) (size 9 to 14) (size 15 to 20)
#    0.000    0.308    3.846    5.077    3.231    0.615 
#    5.538    0.000    0.000    0.000    0.000    0.000 
#    0.000    0.000    0.000    0.000    0.000    0.000 
#
# Total GULP energy -144825.320809 kJ/mol
# GULP energy per Si atom -5570.204647 kJ/mol
# Density = 2.463351 g / cm^3
# Si number density = 24.689707 Si / 1000 Ang^3
#
#
#
# Elastic Constant Matrix: (Units=GPa)
#
#
# Indices 1 2 3 4 5 6 
#
# 1 142.1302 41.5919 18.7177 0.0000 -12.3765 0.0000
# 2 41.5919 106.7016 31.6016 0.0000 -14.1582 0.0000
# 3 18.7177 31.6016 121.6378 0.0000 -3.1601 0.0000
# 4 0.0000 0.0000 0.0000 25.6332 0.0000 6.5419
# 5 -12.3765 -14.1582 -3.1601 0.0000 40.0277 0.0000
# 6 0.0000 0.0000 0.0000 6.5419 0.0000 74.6754
#
#
#
# Elastic Compliance Matrix: (Units=1/GPa)
#
#
# Indices 1 2 3 4 5 6 
#
# 1 0.008045 -0.002803 -0.000472 0.000000 0.001459 0.000000
# 2 -0.002803 0.011610 -0.002506 0.000000 0.003042 0.000000
# 3 -0.000472 -0.002506 0.008936 0.000000 -0.000327 0.000000
# 4 0.000000 0.000000 0.000000 0.039904 0.000000 -0.003496
# 5 0.001459 0.003042 -0.000327 0.000000 0.026484 0.000000
# 6 0.000000 0.000000 0.000000 -0.003496 0.000000 0.013698
#
#
# Mechanical properties :
#
#
# Convention : Reuss Voigt Hill
#
# Bulk Modulus (GPa) = 58.71815 61.58797 60.15306
# Shear Modulus (GPa) = 39.70918 46.63783 43.17351
#
# Velocity S-wave (km/s) = 4.01475 4.35093 4.18622
# Velocity P-wave (km/s) = 6.73239 7.08800 6.91248
#
# Compressibility (1/GPa) = 0.01703051
#
# Stress axis : x y z
#
# Youngs Moduli (GPa) = 124.29877 86.13069 111.90260
#
# Poissons Ratio (x) = 0.24139 0.05282
# Poissons Ratio (y) = 0.34836 0.28043
# Poissons Ratio (z) = 0.05867 0.21585
#
# Static dielectric constant tensor:
#      x y z
#    x 3.102170 0.000000 0.107250 
#    y 0.000000 1.948540 0.000000 
#    z 0.107250 0.000000 1.944890 
# 
# From -- ./inp_files/139920.got.cif
#   From: 2010.05.17/outbox.cif.g08.bks.cpg/sg15_70_cif.got.tgz:139920.got - 2010.06.03 18:47:42.
