data_PCOD9305488
_publ_section_title
;
Structure prediction by ZEFSAII (Michael W. Deem and Ramdas Pophale) SiO2 
 PCOD9305488
Probable space group: C 2/C
;
_chemical_formula_sum "Si O2"
_cell_formula_units_Z 40
_cell_length_a 13.111448
_cell_length_b 6.994763
_cell_length_c 23.483633
_cell_angle_alpha 90.000000
_cell_angle_beta 83.121086
_cell_angle_gamma 90.000000
_cell_volume 2138.214965
_symmetry_space_group_name_H-M "C 2/C"
_symmetry_group_IT_number 15
_symmetry_cell_setting 'monoclinic'
loop_
_space_group_symop_operation_xyz
x,y,z
-x,y,1/2-z
-x,-y,-z
x,-y,1/2+z
1/2+x,1/2+y,z
1/2-x,1/2+y,1/2-z
1/2-x,1/2-y,-z
1/2+x,1/2-y,1/2+z
loop_
_atom_site_type_symbol
_atom_site_label
_atom_site_fract_x
_atom_site_fract_y
_atom_site_fract_z
Si Si1 0.791194 0.947431 0.023076
Si Si2 0.273656 0.045666 0.673726
Si Si3 0.607766 0.614863 0.274109
Si Si4 0.853997 0.232328 0.920305
Si Si5 0.911713 0.806474 0.123802
O O1 0.867422 0.903095 0.069785
O O2 0.696831 0.073585 0.053242
O O3 0.750000 0.750000 0.000000
O O4 0.844609 0.074753 0.970850
O O5 0.347630 0.193578 0.700922
O O6 0.213410 0.155883 0.627863
O O7 0.190644 0.962680 0.723388
O O8 0.340051 0.873180 0.643604
O O9 0.500000 0.648481 0.250000
O O10 0.592896 0.457155 0.324307
O O11 0.971261 0.256015 0.894058
#
# Coordination Sequence:
#
# PCOD9305488 Si02
#       5
#     8   8   8   8   8
#     4  11  24  45  70 101 137 172 221 279 325 399
#     4  12  25  43  68 100 132 175 225 273 328 400
#     4  12  26  43  69  98 132 176 224 277 330 389
#     4  11  25  44  69 100 135 175 223 269 335 394
#     4  12  25  43  71  97 136 178 220 270 338 395
#
# _framework density 18.707191999999999
#
# number of rings (size 3 to 8) (size 9 to 14) (size 15 to 20)
#    0.000    0.400    8.000    0.600    0.000    6.400 
#    0.000    0.000    0.000    0.000    0.000    0.000 
#    0.000    0.000    0.000    0.000    0.000    0.000 
#
# Total GULP energy -111917.211417 kJ/mol
# GULP energy per Si atom -5595.860571 kJ/mol
# Density = 1.866461 g / cm^3
# Si number density = 18.707192 Si / 1000 Ang^3
#
#
#
# Elastic Constant Matrix: (Units=GPa)
#
#
# Indices 1 2 3 4 5 6 
#
# 1 148.3919 45.1372 60.2459 0.0000 12.5626 0.0000
# 2 45.1372 81.5584 32.0204 0.0000 26.0786 0.0000
# 3 60.2459 32.0204 101.6886 0.0000 31.6726 0.0000
# 4 0.0000 0.0000 0.0000 36.7793 0.0000 11.5739
# 5 12.5626 26.0786 31.6726 0.0000 24.4550 0.0000
# 6 0.0000 0.0000 0.0000 11.5739 0.0000 19.9263
#
#
#
# Elastic Compliance Matrix: (Units=1/GPa)
#
#
# Indices 1 2 3 4 5 6 
#
# 1 0.011140 -0.006849 -0.008273 0.000000 0.012295 0.000000
# 2 -0.006849 0.022833 0.005625 0.000000 -0.028116 0.000000
# 3 -0.008273 0.005625 0.022643 0.000000 -0.031074 0.000000
# 4 0.000000 0.000000 0.000000 0.033270 0.000000 -0.019325
# 5 0.012295 -0.028116 -0.031074 0.000000 0.104803 0.000000
# 6 0.000000 0.000000 0.000000 -0.019325 0.000000 0.061409
#
#
# Mechanical properties :
#
#
# Convention : Reuss Voigt Hill
#
# Bulk Modulus (GPa) = 26.58010 67.38288 46.98149
# Shear Modulus (GPa) = 17.38329 29.18116 23.28223
#
# Velocity S-wave (km/s) = 3.05164 3.95383 3.53166
# Velocity P-wave (km/s) = 5.16294 7.54597 6.46520
#
# Compressibility (1/GPa) = 0.03762213
#
# Stress axis : x y z
#
# Youngs Moduli (GPa) = 89.76677 43.79560 44.16467
#
# Poissons Ratio (x) = 0.29994 0.36537
# Poissons Ratio (y) = 0.61479 -0.24842
# Poissons Ratio (z) = 0.74264 -0.24634
#
# Static dielectric constant tensor:
#      x y z
#    x 1.602080 0.000000 0.002360 
#    y 0.000000 1.610400 0.000000 
#    z 0.002360 0.000000 1.632620 
# 
# From -- ./inp_files/271820.got.cif
#   From: 2010.05.17/outbox.cif.g08.bks.cpg/sg15_136_cif.got.tgz:271820.got - 2010.06.03 18:47:42.
