data_PCOD9305185
_publ_section_title
;
Structure prediction by ZEFSAII (Michael W. Deem and Ramdas Pophale) SiO2 
 PCOD9305185
Probable space group: C 2/C
;
_chemical_formula_sum "Si O2"
_cell_formula_units_Z 28
_cell_length_a 6.978248
_cell_length_b 22.643656
_cell_length_c 7.983414
_cell_angle_alpha 90.000000
_cell_angle_beta 83.904653
_cell_angle_gamma 90.000000
_cell_volume 1254.351865
_symmetry_space_group_name_H-M "C 2/C"
_symmetry_group_IT_number 15
_symmetry_cell_setting 'monoclinic'
loop_
_space_group_symop_operation_xyz
x,y,z
-x,y,1/2-z
-x,-y,-z
x,-y,1/2+z
1/2+x,1/2+y,z
1/2-x,1/2+y,1/2-z
1/2-x,1/2-y,-z
1/2+x,1/2-y,1/2+z
loop_
_atom_site_type_symbol
_atom_site_label
_atom_site_fract_x
_atom_site_fract_y
_atom_site_fract_z
Si Si1 0.000000 0.735237 0.250000
Si Si2 0.564731 0.564385 0.434635
Si Si3 0.210233 0.159156 0.880796
Si Si4 0.612294 0.858598 0.503352
O O1 0.108120 0.777319 0.373468
O O2 0.852874 0.693442 0.365795
O O3 0.500000 0.571797 0.250000
O O4 0.500000 0.500000 0.500000
O O5 0.450188 0.611752 0.556593
O O6 0.789712 0.581659 0.437230
O O7 0.298525 0.151464 0.687572
O O8 0.383678 0.146284 0.993195
#
# Coordination Sequence:
#
# PCOD9305185 Si02
#       4
#     4   8   8   8
#     4  12  22  44  70 106 152 182 230 282 352 414
#     4  12  26  47  72  97 137 182 236 289 348 414
#     4  11  24  43  69 103 142 185 231 285 346 414
#     4  11  24  43  68 105 140 185 230 286 346 410
#
# _framework density 22.322285000000001
#
# number of rings (size 3 to 8) (size 9 to 14) (size 15 to 20)
#    0.000    0.571    2.857    5.143    0.000    1.143 
#    0.000    2.857    0.000    0.000    0.000    0.000 
#    0.000    0.000    0.000    0.000    0.000    0.000 
#
# Total GULP energy -78220.649770 kJ/mol
# GULP energy per Si atom -5587.189269 kJ/mol
# Density = 2.227148 g / cm^3
# Si number density = 22.322285 Si / 1000 Ang^3
#
#
#
# Elastic Constant Matrix: (Units=GPa)
#
#
# Indices 1 2 3 4 5 6 
#
# 1 132.6646 62.5078 20.6986 0.0000 27.5622 0.0000
# 2 62.5078 145.9570 46.0510 0.0000 15.3494 0.0000
# 3 20.6986 46.0510 117.6789 0.0000 1.2885 0.0000
# 4 0.0000 0.0000 0.0000 38.9465 0.0000 -1.4765
# 5 27.5622 15.3494 1.2885 0.0000 27.7657 0.0000
# 6 0.0000 0.0000 0.0000 -1.4765 0.0000 33.4237
#
#
#
# Elastic Compliance Matrix: (Units=1/GPa)
#
#
# Indices 1 2 3 4 5 6 
#
# 1 0.011248 -0.003729 -0.000420 0.000000 -0.009084 0.000000
# 2 -0.003729 0.009570 -0.003073 0.000000 -0.001446 0.000000
# 3 -0.000420 -0.003073 0.009756 0.000000 0.001663 0.000000
# 4 0.000000 0.000000 0.000000 0.025719 0.000000 0.001136
# 5 -0.009084 -0.001446 0.001663 0.000000 0.045755 0.000000
# 6 0.000000 0.000000 0.000000 0.001136 0.000000 0.029969
#
#
# Mechanical properties :
#
#
# Convention : Reuss Voigt Hill
#
# Bulk Modulus (GPa) = 61.99770 72.75726 67.37748
# Shear Modulus (GPa) = 32.92975 37.83006 35.37991
#
# Velocity S-wave (km/s) = 3.84500 4.12117 3.98547
# Velocity P-wave (km/s) = 6.89537 7.43708 7.17134
#
# Compressibility (1/GPa) = 0.01612963
#
# Stress axis : x y z
#
# Youngs Moduli (GPa) = 88.90699 104.49146 102.50160
#
# Poissons Ratio (x) = 0.38968 0.04300
# Poissons Ratio (y) = 0.33156 0.31502
# Poissons Ratio (z) = 0.03730 0.32113
#
# Static dielectric constant tensor:
#      x y z
#    x 1.937240 0.000000 0.047870 
#    y 0.000000 1.796570 0.000000 
#    z 0.047870 0.000000 1.825000 
# 
# From -- ./inp_files/21523.got.cif
#   From: 2010.05.17/outbox.cif.g08.bks.cpg/sg15_11_cif.got.tgz:21523.got - 2010.06.03 18:47:42.
