data_PCOD9305710
_publ_section_title
;
Structure prediction by ZEFSAII (Michael W. Deem and Ramdas Pophale) SiO2 
 PCOD9305710
Probable space group: C 2/C
;
_chemical_formula_sum "Si O2"
_cell_formula_units_Z 44
_cell_length_a 12.306260
_cell_length_b 9.982633
_cell_length_c 14.318593
_cell_angle_alpha 90.000000
_cell_angle_beta 90.631563
_cell_angle_gamma 90.000000
_cell_volume 1758.916210
_symmetry_space_group_name_H-M "C 2/C"
_symmetry_group_IT_number 15
_symmetry_cell_setting 'monoclinic'
loop_
_space_group_symop_operation_xyz
x,y,z
-x,y,1/2-z
-x,-y,-z
x,-y,1/2+z
1/2+x,1/2+y,z
1/2-x,1/2+y,1/2-z
1/2-x,1/2-y,-z
1/2+x,1/2-y,1/2+z
loop_
_atom_site_type_symbol
_atom_site_label
_atom_site_fract_x
_atom_site_fract_y
_atom_site_fract_z
Si Si1 0.115607 0.708896 0.595676
Si Si2 0.897775 0.855522 0.566571
Si Si3 0.598817 0.098802 0.399574
Si Si4 0.500000 0.910155 0.250000
Si Si5 0.154165 0.864269 0.336557
Si Si6 0.229055 0.881219 0.124672
O O1 0.086890 0.608426 0.510083
O O2 0.245219 0.694618 0.600657
O O3 0.091594 0.678887 0.704538
O O4 0.026473 0.824263 0.574785
O O5 0.857126 0.871360 0.459998
O O6 0.823107 0.731096 0.603923
O O7 0.872618 0.989325 0.625073
O O8 0.572309 0.244899 0.358180
O O9 0.525966 0.001526 0.337604
O O10 0.715019 0.027501 0.380710
O O11 0.179345 0.866596 0.226990
#
# Coordination Sequence:
#
# PCOD9305710 Si02
#       6
#     8   8   8   4   8   8
#     4  12  25  48  77 105 151 193 255 303 378 450
#     4  11  26  46  74 113 144 197 253 313 372 453
#     4  12  26  45  75 107 145 199 244 313 375 451
#     4  12  26  46  74 110 134 198 248 306 370 460
#     4  12  26  48  74 109 154 196 246 312 384 442
#     4  11  24  46  75 107 149 195 249 307 377 451
#
# _framework density 25.015405999999999
#
# number of rings (size 3 to 8) (size 9 to 14) (size 15 to 20)
#    0.000    0.364    5.455    2.182    2.545    0.727 
#    0.000    2.727    0.000    0.000    0.000    0.000 
#    0.000    0.000    0.000    0.000    0.000    0.000 
#
# Total GULP energy -122840.003843 kJ/mol
# GULP energy per Si atom -5583.636538 kJ/mol
# Density = 2.495847 g / cm^3
# Si number density = 25.015406 Si / 1000 Ang^3
#
#
#
# Elastic Constant Matrix: (Units=GPa)
#
#
# Indices 1 2 3 4 5 6 
#
# 1 59.1532 13.0692 5.9982 0.0000 19.5636 0.0000
# 2 13.0692 106.4992 28.6245 0.0000 9.2248 0.0000
# 3 5.9982 28.6245 212.3668 0.0000 15.7098 0.0000
# 4 0.0000 0.0000 0.0000 27.5150 0.0000 -17.2365
# 5 19.5636 9.2248 15.7098 0.0000 31.9621 0.0000
# 6 0.0000 0.0000 0.0000 -17.2365 0.0000 30.7434
#
#
#
# Elastic Compliance Matrix: (Units=1/GPa)
#
#
# Indices 1 2 3 4 5 6 
#
# 1 0.021503 -0.001671 0.000577 0.000000 -0.012963 0.000000
# 2 -0.001671 0.010031 -0.001210 0.000000 -0.001277 0.000000
# 3 0.000577 -0.001210 0.005039 0.000000 -0.002481 0.000000
# 4 0.000000 0.000000 0.000000 0.056019 0.000000 0.031407
# 5 -0.012963 -0.001277 -0.002481 0.000000 0.040810 0.000000
# 6 0.000000 0.000000 0.000000 0.031407 0.000000 0.050136
#
#
# Mechanical properties :
#
#
# Convention : Reuss Voigt Hill
#
# Bulk Modulus (GPa) = 31.28509 52.60033 41.94271
# Shear Modulus (GPa) = 25.15077 40.06592 32.60835
#
# Velocity S-wave (km/s) = 3.17426 4.00640 3.61436
# Velocity P-wave (km/s) = 5.09589 6.51725 5.84990
#
# Compressibility (1/GPa) = 0.03196411
#
# Stress axis : x y z
#
# Youngs Moduli (GPa) = 46.50476 99.69341 198.44496
#
# Poissons Ratio (x) = 0.16659 -0.11447
# Poissons Ratio (y) = 0.07771 0.24018
# Poissons Ratio (z) = -0.02682 0.12066
#
# Static dielectric constant tensor:
#      x y z
#    x 2.156570 0.000000 -0.002460 
#    y 0.000000 1.990950 0.000000 
#    z -0.002460 0.000000 1.912830 
# 
# From -- ./inp_files/159263.got.cif
#   From: 2010.05.17/outbox.cif.g08.bks.cpg/sg15_80_cif.got.tgz:159263.got - 2010.06.03 18:47:42.
