data_PCOD9305866
_publ_section_title
;
Structure prediction by ZEFSAII (Michael W. Deem and Ramdas Pophale) SiO2 
 PCOD9305866
Probable space group: C 2/C
;
_chemical_formula_sum "Si O2"
_cell_formula_units_Z 36
_cell_length_a 11.477913
_cell_length_b 8.715326
_cell_length_c 15.840348
_cell_angle_alpha 90.000000
_cell_angle_beta 115.904103
_cell_angle_gamma 90.000000
_cell_volume 1425.362223
_symmetry_space_group_name_H-M "C 2/C"
_symmetry_group_IT_number 15
_symmetry_cell_setting 'monoclinic'
loop_
_space_group_symop_operation_xyz
x,y,z
-x,y,1/2-z
-x,-y,-z
x,-y,1/2+z
1/2+x,1/2+y,z
1/2-x,1/2+y,1/2-z
1/2-x,1/2-y,-z
1/2+x,1/2-y,1/2+z
loop_
_atom_site_type_symbol
_atom_site_label
_atom_site_fract_x
_atom_site_fract_y
_atom_site_fract_z
Si Si1 0.500000 0.588995 0.250000
Si Si2 0.144037 0.128426 0.681342
Si Si3 0.605390 0.119528 0.497269
Si Si4 0.772911 0.344718 0.639611
Si Si5 0.744707 0.166816 0.087089
O O1 0.467378 0.481672 0.319460
O O2 0.373459 0.684028 0.184300
O O3 0.187038 0.226823 0.775243
O O4 0.127604 0.253878 0.602590
O O5 0.246324 0.007422 0.675122
O O6 0.640883 0.277510 0.555679
O O7 0.621804 0.139181 0.401859
O O8 0.500000 0.000000 0.500000
O O9 0.729379 0.011759 0.562809
O O10 0.750000 0.250000 0.000000
#
# Coordination Sequence:
#
# PCOD9305866 Si02
#       5
#     4   8   8   8   8
#     4  12  28  48  76 110 160 202 256 324 388 466
#     4  12  25  46  74 106 156 198 262 318 392 460
#     4  11  26  46  75 111 154 201 262 325 396 471
#     4  11  24  48  70 112 154 199 262 321 390 470
#     4  12  27  49  75 113 147 209 260 320 393 467
#
# _framework density 25.256741000000002
#
# number of rings (size 3 to 8) (size 9 to 14) (size 15 to 20)
#    0.000    0.444    6.667    0.000    6.222    0.889 
#    0.000    0.000    0.000    0.000    0.000    0.000 
#    0.000    0.000    0.000    0.000    0.000    0.000 
#
# Total GULP energy -100673.797438 kJ/mol
# GULP energy per Si atom -5592.988747 kJ/mol
# Density = 2.519926 g / cm^3
# Si number density = 25.256741 Si / 1000 Ang^3
#
#
#
# Elastic Constant Matrix: (Units=GPa)
#
#
# Indices 1 2 3 4 5 6 
#
# 1 103.9270 19.5738 52.7831 0.0000 -47.6761 0.0000
# 2 19.5738 140.1303 45.7747 0.0000 -31.9745 0.0000
# 3 52.7831 45.7747 104.9892 0.0000 -36.8249 0.0000
# 4 0.0000 0.0000 0.0000 64.9819 0.0000 -15.7356
# 5 -47.6761 -31.9745 -36.8249 0.0000 50.1321 0.0000
# 6 0.0000 0.0000 0.0000 -15.7356 0.0000 49.6303
#
#
#
# Elastic Compliance Matrix: (Units=1/GPa)
#
#
# Indices 1 2 3 4 5 6 
#
# 1 0.019119 0.002684 -0.005125 0.000000 0.016130 0.000000
# 2 0.002684 0.009198 -0.003242 0.000000 0.006037 0.000000
# 3 -0.005125 -0.003242 0.014925 0.000000 0.004022 0.000000
# 4 0.000000 0.000000 0.000000 0.016669 0.000000 0.005285
# 5 0.016130 0.006037 0.004022 0.000000 0.042092 0.000000
# 6 0.000000 0.000000 0.000000 0.005285 0.000000 0.021825
#
#
# Mechanical properties :
#
#
# Convention : Reuss Voigt Hill
#
# Bulk Modulus (GPa) = 31.37078 65.03441 48.20260
# Shear Modulus (GPa) = 34.28922 48.34318 41.31620
#
# Velocity S-wave (km/s) = 3.68860 4.37976 4.04895
# Velocity P-wave (km/s) = 5.53071 7.16809 6.40196
#
# Compressibility (1/GPa) = 0.03187679
#
# Stress axis : x y z
#
# Youngs Moduli (GPa) = 52.30468 108.72010 66.99957
#
# Poissons Ratio (x) = -0.29179 0.34335
# Poissons Ratio (y) = -0.14038 0.21721
# Poissons Ratio (z) = 0.26804 0.35246
#
# Static dielectric constant tensor:
#      x y z
#    x 2.113180 0.000000 0.117820 
#    y 0.000000 2.009290 0.000000 
#    z 0.117820 0.000000 2.033630 
# 
# From -- ./inp_files/195287.got.cif
#   From: 2010.05.17/outbox.cif.g08.bks.cpg/sg15_98_cif.got.tgz:195287.got - 2010.06.03 18:47:42.
