data_PCOD9305898
_publ_section_title
;
Structure prediction by ZEFSAII (Michael W. Deem and Ramdas Pophale) SiO2 
 PCOD9305898
Probable space group: C 2/C
;
_chemical_formula_sum "Si O2"
_cell_formula_units_Z 40
_cell_length_a 21.176146
_cell_length_b 8.075907
_cell_length_c 11.515838
_cell_angle_alpha 90.000000
_cell_angle_beta 64.289099
_cell_angle_gamma 90.000000
_cell_volume 1774.417930
_symmetry_space_group_name_H-M "C 2/C"
_symmetry_group_IT_number 15
_symmetry_cell_setting 'monoclinic'
loop_
_space_group_symop_operation_xyz
x,y,z
-x,y,1/2-z
-x,-y,-z
x,-y,1/2+z
1/2+x,1/2+y,z
1/2-x,1/2+y,1/2-z
1/2-x,1/2-y,-z
1/2+x,1/2-y,1/2+z
loop_
_atom_site_type_symbol
_atom_site_label
_atom_site_fract_x
_atom_site_fract_y
_atom_site_fract_z
Si Si1 0.789961 0.772118 0.847880
Si Si2 0.458836 0.496122 0.909728
Si Si3 0.078901 0.648973 0.643512
Si Si4 0.213148 0.845102 0.190733
Si Si5 0.637984 0.194522 0.053445
O O1 0.863806 0.678054 0.800506
O O2 0.734378 0.701894 0.801922
O O3 0.805921 0.963162 0.808113
O O4 0.750000 0.750000 0.000000
O O5 0.500000 0.509793 0.750000
O O6 0.420862 0.317948 0.930752
O O7 0.405905 0.649796 0.955236
O O8 0.500000 0.500000 0.000000
O O9 0.100496 0.479630 0.564923
O O10 0.000000 0.629808 0.750000
O O11 0.155050 0.732618 0.175231
O O12 0.286945 0.816606 0.066614
#
# Coordination Sequence:
#
# PCOD9305898 Si02
#       5
#     8   8   8   8   8
#     4  12  25  48  74 107 149 195 250 311 373 446
#     4  11  27  48  72 105 149 198 241 303 379 452
#     4  11  25  47  71 110 148 190 245 304 377 450
#     4  11  26  44  76 106 145 194 252 310 372 439
#     4  11  24  48  74 108 143 190 250 308 370 443
#
# _framework density 22.542604000000001
#
# number of rings (size 3 to 8) (size 9 to 14) (size 15 to 20)
#    0.000    0.800    4.000    1.800    8.400    2.400 
#    3.600    0.000    0.000    0.000    0.000    0.000 
#    0.000    0.000    0.000    0.000    0.000    0.000 
#
# Total GULP energy -111865.229062 kJ/mol
# GULP energy per Si atom -5593.261453 kJ/mol
# Density = 2.249130 g / cm^3
# Si number density = 22.542604 Si / 1000 Ang^3
#
#
#
# Elastic Constant Matrix: (Units=GPa)
#
#
# Indices 1 2 3 4 5 6 
#
# 1 126.8484 48.0707 30.9323 0.0000 12.6406 0.0000
# 2 48.0707 187.5587 18.3585 0.0000 1.2400 0.0000
# 3 30.9323 18.3585 70.0132 0.0000 19.5108 0.0000
# 4 0.0000 0.0000 0.0000 16.8889 0.0000 -4.6840
# 5 12.6406 1.2400 19.5108 0.0000 46.5304 0.0000
# 6 0.0000 0.0000 0.0000 -4.6840 0.0000 50.1031
#
#
#
# Elastic Compliance Matrix: (Units=1/GPa)
#
#
# Indices 1 2 3 4 5 6 
#
# 1 0.009628 -0.002129 -0.003377 0.000000 -0.001143 0.000000
# 2 -0.002129 0.005954 -0.000835 0.000000 0.000770 0.000000
# 3 -0.003377 -0.000835 0.017814 0.000000 -0.006530 0.000000
# 4 0.000000 0.000000 0.000000 0.060786 0.000000 0.005683
# 5 -0.001143 0.000770 -0.006530 0.000000 0.024519 0.000000
# 6 0.000000 0.000000 0.000000 0.005683 0.000000 0.020490
#
#
# Mechanical properties :
#
#
# Convention : Reuss Voigt Hill
#
# Bulk Modulus (GPa) = 48.27901 64.34924 56.31412
# Shear Modulus (GPa) = 31.49051 41.84173 36.66612
#
# Velocity S-wave (km/s) = 3.74161 4.31294 4.03740
# Velocity P-wave (km/s) = 6.33478 7.30818 6.83882
#
# Compressibility (1/GPa) = 0.02071293
#
# Stress axis : x y z
#
# Youngs Moduli (GPa) = 103.86669 167.95204 56.13706
#
# Poissons Ratio (x) = 0.35765 0.18956
# Poissons Ratio (y) = 0.22118 0.04687
# Poissons Ratio (z) = 0.35073 0.14024
#
# Static dielectric constant tensor:
#      x y z
#    x 1.855750 0.000000 0.056190 
#    y 0.000000 1.847820 0.000000 
#    z 0.056190 0.000000 1.906250 
# 
# From -- ./inp_files/109580.got.cif
#   From: 2010.05.17/outbox.cif.g08.bks.cpg/sg15_55_cif.got.tgz:109580.got - 2010.06.03 18:47:42.
