data_PCOD9305952
_publ_section_title
;
Structure prediction by ZEFSAII (Michael W. Deem and Ramdas Pophale) SiO2 
 PCOD9305952
Probable space group: C 2/C
;
_chemical_formula_sum "Si O2"
_cell_formula_units_Z 40
_cell_length_a 11.534889
_cell_length_b 7.832130
_cell_length_c 18.053754
_cell_angle_alpha 90.000000
_cell_angle_beta 76.439853
_cell_angle_gamma 90.000000
_cell_volume 1585.559838
_symmetry_space_group_name_H-M "C 2/C"
_symmetry_group_IT_number 15
_symmetry_cell_setting 'monoclinic'
loop_
_space_group_symop_operation_xyz
x,y,z
-x,y,1/2-z
-x,-y,-z
x,-y,1/2+z
1/2+x,1/2+y,z
1/2-x,1/2+y,1/2-z
1/2-x,1/2-y,-z
1/2+x,1/2-y,1/2+z
loop_
_atom_site_type_symbol
_atom_site_label
_atom_site_fract_x
_atom_site_fract_y
_atom_site_fract_z
Si Si1 0.044710 0.976460 0.578579
Si Si2 0.450440 0.849998 0.930346
Si Si3 0.622634 0.957204 0.192855
Si Si4 0.666068 0.716772 0.307834
Si Si5 0.304886 0.990808 0.075279
O O1 0.953823 0.860199 0.637979
O O2 0.048865 0.169807 0.610586
O O3 0.183329 0.927489 0.564587
O O4 0.000000 0.000000 0.500000
O O5 0.407132 0.009768 0.887989
O O6 0.584900 0.879679 0.936394
O O7 0.357110 0.848240 0.011157
O O8 0.500000 0.014691 0.250000
O O9 0.350321 0.774273 0.274729
O O10 0.731689 0.079861 0.195182
O O11 0.701878 0.889415 0.346425
#
# Coordination Sequence:
#
# PCOD9305952 Si02
#       5
#     8   8   8   8   8
#     4  12  25  46  81 114 146 194 253 320 372 444
#     4  11  24  49  77 109 157 190 246 318 377 441
#     4  12  28  50  71 107 155 199 244 313 372 458
#     4  12  28  47  75 111 148 200 256 304 380 454
#     4  11  24  49  76 113 146 194 253 310 376 445
#
# _framework density 25.227681
#
# number of rings (size 3 to 8) (size 9 to 14) (size 15 to 20)
#    0.000    0.400    6.000    1.800    2.800    4.000 
#    0.000    0.000    0.000    0.000    0.000    0.000 
#    0.000    0.000    0.000    0.000    0.000    0.000 
#
# Total GULP energy -112003.965686 kJ/mol
# GULP energy per Si atom -5600.198284 kJ/mol
# Density = 2.517026 g / cm^3
# Si number density = 25.227681 Si / 1000 Ang^3
#
#
#
# Elastic Constant Matrix: (Units=GPa)
#
#
# Indices 1 2 3 4 5 6 
#
# 1 234.9788 34.5575 35.9383 0.0000 -4.2006 0.0000
# 2 34.5575 64.8779 10.2700 0.0000 1.0361 0.0000
# 3 35.9383 10.2700 45.9415 0.0000 18.8144 0.0000
# 4 0.0000 0.0000 0.0000 35.2678 0.0000 -1.7929
# 5 -4.2006 1.0361 18.8144 0.0000 35.9032 0.0000
# 6 0.0000 0.0000 0.0000 -1.7929 0.0000 44.8275
#
#
#
# Elastic Compliance Matrix: (Units=1/GPa)
#
#
# Indices 1 2 3 4 5 6 
#
# 1 0.005417 -0.002124 -0.005153 0.000000 0.003396 0.000000
# 2 -0.002124 0.016903 -0.002312 0.000000 0.000475 0.000000
# 3 -0.005153 -0.002312 0.033785 0.000000 -0.018241 0.000000
# 4 0.000000 0.000000 0.000000 0.028412 0.000000 0.001136
# 5 0.003396 0.000475 -0.018241 0.000000 0.037795 0.000000
# 6 0.000000 0.000000 0.000000 0.001136 0.000000 0.022353
#
#
# Mechanical properties :
#
#
# Convention : Reuss Voigt Hill
#
# Bulk Modulus (GPa) = 27.08037 56.36999 41.72518
# Shear Modulus (GPa) = 28.38458 40.86852 34.62655
#
# Velocity S-wave (km/s) = 3.35794 4.02927 3.70883
# Velocity P-wave (km/s) = 5.07859 6.63624 5.90897
#
# Compressibility (1/GPa) = 0.03692712
#
# Stress axis : x y z
#
# Youngs Moduli (GPa) = 184.60768 59.16042 29.59912
#
# Poissons Ratio (x) = 0.12565 0.15253
# Poissons Ratio (y) = 0.39207 0.06843
# Poissons Ratio (z) = 0.95132 0.13677
#
# Static dielectric constant tensor:
#      x y z
#    x 1.964890 0.000000 0.067560 
#    y 0.000000 2.017220 0.000000 
#    z 0.067560 0.000000 2.028440 
# 
# From -- ./inp_files/235730.got.cif
#   From: 2010.05.17/outbox.cif.g08.bks.cpg/sg15_118_cif.got.tgz:235730.got - 2010.06.03 18:47:42.
