data_PCOD9305803
_publ_section_title
;
Structure prediction by ZEFSAII (Michael W. Deem and Ramdas Pophale) SiO2 
 PCOD9305803
Probable space group: C 2/C
;
_chemical_formula_sum "Si O2"
_cell_formula_units_Z 24
_cell_length_a 23.107880
_cell_length_b 6.833109
_cell_length_c 13.364484
_cell_angle_alpha 90.000000
_cell_angle_beta 152.962318
_cell_angle_gamma 90.000000
_cell_volume 959.262632
_symmetry_space_group_name_H-M "C 2/C"
_symmetry_group_IT_number 15
_symmetry_cell_setting 'monoclinic'
loop_
_space_group_symop_operation_xyz
x,y,z
-x,y,1/2-z
-x,-y,-z
x,-y,1/2+z
1/2+x,1/2+y,z
1/2-x,1/2+y,1/2-z
1/2-x,1/2-y,-z
1/2+x,1/2-y,1/2+z
loop_
_atom_site_type_symbol
_atom_site_label
_atom_site_fract_x
_atom_site_fract_y
_atom_site_fract_z
Si Si1 0.881570 0.400060 0.372137
Si Si2 0.671179 0.696627 0.018298
Si Si3 0.364487 0.478297 0.733291
O O1 0.777380 0.563160 0.236282
O O2 0.913191 0.295753 0.525548
O O3 0.829778 0.240499 0.213637
O O4 0.000000 0.500000 0.500000
O O5 0.753507 0.872432 0.096431
O O6 0.617684 0.544910 0.853844
O O7 0.500000 0.500000 0.000000
#
# Coordination Sequence:
#
# PCOD9305803 Si02
#       3
#     8   8   8
#     4  12  24  47  78 114 153 209 261 325 407 461
#     4  11  25  46  75 113 159 200 262 329 386 480
#     4  11  24  47  73 110 156 205 259 319 399 468
#
# _framework density 25.019217000000001
#
# number of rings (size 3 to 8) (size 9 to 14) (size 15 to 20)
#    0.000    0.667    6.667    1.000    0.000    1.333 
#    0.000    0.000    0.000    0.000    0.000    0.000 
#    0.000    0.000    0.000    0.000    0.000    0.000 
#
# Total GULP energy -67087.901882 kJ/mol
# GULP energy per Si atom -5590.658490 kJ/mol
# Density = 2.496227 g / cm^3
# Si number density = 25.019217 Si / 1000 Ang^3
#
#
#
# Elastic Constant Matrix: (Units=GPa)
#
#
# Indices 1 2 3 4 5 6 
#
# 1 178.7975 56.1324 44.9756 0.0000 -36.4889 0.0000
# 2 56.1324 152.3094 12.2789 0.0000 -9.0751 0.0000
# 3 44.9756 12.2789 65.1040 0.0000 -20.0968 0.0000
# 4 0.0000 0.0000 0.0000 48.8063 0.0000 3.5031
# 5 -36.4889 -9.0751 -20.0968 0.0000 43.3286 0.0000
# 6 0.0000 0.0000 0.0000 3.5031 0.0000 57.4586
#
#
#
# Elastic Compliance Matrix: (Units=1/GPa)
#
#
# Indices 1 2 3 4 5 6 
#
# 1 0.008283 -0.002466 -0.003808 0.000000 0.004692 0.000000
# 2 -0.002466 0.007435 0.000164 0.000000 -0.000443 0.000000
# 3 -0.003808 0.000164 0.019818 0.000000 0.006019 0.000000
# 4 0.000000 0.000000 0.000000 0.020579 0.000000 -0.001255
# 5 0.004692 -0.000443 0.006019 0.000000 0.029730 0.000000
# 6 0.000000 0.000000 0.000000 -0.001255 0.000000 0.017480
#
#
# Mechanical properties :
#
#
# Convention : Reuss Voigt Hill
#
# Bulk Modulus (GPa) = 42.88925 69.22053 56.05489
# Shear Modulus (GPa) = 40.54608 48.77363 44.65985
#
# Velocity S-wave (km/s) = 4.03003 4.42004 4.22954
# Velocity P-wave (km/s) = 6.23174 7.33322 6.80480
#
# Compressibility (1/GPa) = 0.02331587
#
# Stress axis : x y z
#
# Youngs Moduli (GPa) = 120.73436 134.50427 50.45911
#
# Poissons Ratio (x) = 0.33167 0.19217
# Poissons Ratio (y) = 0.29772 -0.00830
# Poissons Ratio (z) = 0.45980 -0.02212
#
# Static dielectric constant tensor:
#      x y z
#    x 2.055080 0.000000 -0.009210 
#    y 0.000000 1.996080 0.000000 
#    z -0.009210 0.000000 2.125220 
# 
# From -- ./inp_files/175599.got.cif
#   From: 2010.05.17/outbox.cif.g08.bks.cpg/sg15_88_cif.got.tgz:175599.got - 2010.06.03 18:47:42.
