data_PCOD9305366
_publ_section_title
;
Structure prediction by ZEFSAII (Michael W. Deem and Ramdas Pophale) SiO2 
 PCOD9305366
Probable space group: C 2/C
;
_chemical_formula_sum "Si O2"
_cell_formula_units_Z 56
_cell_length_a 13.043828
_cell_length_b 11.614796
_cell_length_c 19.790941
_cell_angle_alpha 90.000000
_cell_angle_beta 64.873171
_cell_angle_gamma 90.000000
_cell_volume 2714.621132
_symmetry_space_group_name_H-M "C 2/C"
_symmetry_group_IT_number 15
_symmetry_cell_setting 'monoclinic'
loop_
_space_group_symop_operation_xyz
x,y,z
-x,y,1/2-z
-x,-y,-z
x,-y,1/2+z
1/2+x,1/2+y,z
1/2-x,1/2+y,1/2-z
1/2-x,1/2-y,-z
1/2+x,1/2-y,1/2+z
loop_
_atom_site_type_symbol
_atom_site_label
_atom_site_fract_x
_atom_site_fract_y
_atom_site_fract_z
Si Si1 0.625480 0.034233 0.442900
Si Si2 0.302013 0.811957 0.159815
Si Si3 0.586394 0.406875 0.289286
Si Si4 0.479183 0.342038 0.676666
Si Si5 0.325109 0.581246 0.483804
Si Si6 0.174101 0.819780 0.968629
Si Si7 0.928302 0.226178 0.571882
O O1 0.701592 0.074418 0.484931
O O2 0.616736 0.147368 0.399069
O O3 0.500000 0.000000 0.500000
O O4 0.681050 0.925717 0.390568
O O5 0.202706 0.845597 0.237732
O O6 0.414522 0.767534 0.164985
O O7 0.270312 0.706282 0.119082
O O8 0.500000 0.397346 0.250000
O O9 0.597369 0.542168 0.302209
O O10 0.545392 0.345294 0.368482
O O11 0.500000 0.321118 0.750000
O O12 0.587349 0.378225 0.599852
O O13 0.344000 0.451370 0.505453
O O14 0.344678 0.662125 0.543146
O O15 0.250000 0.750000 0.000000
O O16 0.048886 0.765362 0.000562
#
# Coordination Sequence:
#
# PCOD9305366 Si02
#       7
#     8   8   8   8   8   8   8
#     4  12  24  43  65  98 140 174 218 288 355 407
#     4  12  25  43  68  98 139 175 226 285 350 412
#     4  11  25  44  67  97 133 179 227 286 349 406
#     4  11  24  44  71  97 131 180 234 282 344 418
#     4  12  23  44  72 101 131 180 240 287 334 421
#     4  12  21  41  70  99 129 173 231 287 336 404
#     4  12  24  42  68 100 132 178 235 278 344 423
#
# _framework density 20.629028999999999
#
# number of rings (size 3 to 8) (size 9 to 14) (size 15 to 20)
#    0.000    0.286    5.714    4.286    4.000    0.000 
#    0.000    0.714    0.000    0.000    0.000    0.000 
#    0.000    0.000    0.000    0.000    0.000    0.000 
#
# Total GULP energy -156435.012844 kJ/mol
# GULP energy per Si atom -5586.964744 kJ/mol
# Density = 2.058208 g / cm^3
# Si number density = 20.629029 Si / 1000 Ang^3
#
#
#
# Elastic Constant Matrix: (Units=GPa)
#
#
# Indices 1 2 3 4 5 6 
#
# 1 89.1629 34.9085 10.0997 0.0000 3.8681 0.0000
# 2 34.9085 102.5346 16.6592 0.0000 15.1087 0.0000
# 3 10.0997 16.6592 71.9857 0.0000 6.2762 0.0000
# 4 0.0000 0.0000 0.0000 15.4119 0.0000 5.6464
# 5 3.8681 15.1087 6.2762 0.0000 38.9633 0.0000
# 6 0.0000 0.0000 0.0000 5.6464 0.0000 42.1364
#
#
#
# Elastic Compliance Matrix: (Units=1/GPa)
#
#
# Indices 1 2 3 4 5 6 
#
# 1 0.012999 -0.004365 -0.000861 0.000000 0.000541 0.000000
# 2 -0.004365 0.012124 -0.001847 0.000000 -0.003970 0.000000
# 3 -0.000861 -0.001847 0.014575 0.000000 -0.001546 0.000000
# 4 0.000000 0.000000 0.000000 0.068235 0.000000 -0.009144
# 5 0.000541 -0.003970 -0.001546 0.000000 0.027400 0.000000
# 6 0.000000 0.000000 0.000000 -0.009144 0.000000 0.024958
#
#
# Mechanical properties :
#
#
# Convention : Reuss Voigt Hill
#
# Bulk Modulus (GPa) = 39.13725 43.00200 41.06963
# Shear Modulus (GPa) = 27.32938 32.77005 30.04972
#
# Velocity S-wave (km/s) = 3.64373 3.98997 3.82078
# Velocity P-wave (km/s) = 6.05933 6.48977 6.27824
#
# Compressibility (1/GPa) = 0.02555110
#
# Stress axis : x y z
#
# Youngs Moduli (GPa) = 76.93185 82.47991 68.61224
#
# Poissons Ratio (x) = 0.36005 0.05905
# Poissons Ratio (y) = 0.33583 0.12674
# Poissons Ratio (z) = 0.06621 0.15236
#
# Static dielectric constant tensor:
#      x y z
#    x 1.753800 0.000000 0.015110 
#    y 0.000000 1.752570 0.000000 
#    z 0.015110 0.000000 1.747580 
# 
# From -- ./inp_files/237529.got.cif
#   From: 2010.05.17/outbox.cif.g08.bks.cpg/sg15_119_cif.got.tgz:237529.got - 2010.06.03 18:47:42.
