data_PCOD9305459
_publ_section_title
;
Structure prediction by ZEFSAII (Michael W. Deem and Ramdas Pophale) SiO2 
 PCOD9305459
Probable space group: C 2/C
;
_chemical_formula_sum "Si O2"
_cell_formula_units_Z 36
_cell_length_a 5.374959
_cell_length_b 26.663577
_cell_length_c 11.300250
_cell_angle_alpha 90.000000
_cell_angle_beta 74.424153
_cell_angle_gamma 90.000000
_cell_volume 1560.027622
_symmetry_space_group_name_H-M "C 2/C"
_symmetry_group_IT_number 15
_symmetry_cell_setting 'monoclinic'
loop_
_space_group_symop_operation_xyz
x,y,z
-x,y,1/2-z
-x,-y,-z
x,-y,1/2+z
1/2+x,1/2+y,z
1/2-x,1/2+y,1/2-z
1/2-x,1/2-y,-z
1/2+x,1/2-y,1/2+z
loop_
_atom_site_type_symbol
_atom_site_label
_atom_site_fract_x
_atom_site_fract_y
_atom_site_fract_z
Si Si1 0.162842 0.532156 0.072692
Si Si2 0.000000 0.182109 0.250000
Si Si3 0.867182 0.063909 0.642494
Si Si4 0.266959 0.240117 0.638445
Si Si5 0.500000 0.117676 0.250000
Si Si6 0.000000 0.649118 0.750000
O O1 0.239577 0.491123 0.160759
O O2 0.015488 0.579738 0.138813
O O3 0.420198 0.556112 0.984558
O O4 0.000000 0.500000 0.000000
O O5 0.001290 0.222200 0.143521
O O6 0.753970 0.149410 0.246270
O O7 0.676678 0.110584 0.652074
O O8 0.000000 0.073251 0.750000
O O9 0.250000 0.250000 0.500000
O O10 0.350524 0.185329 0.676783
O O11 0.000000 0.250774 0.750000
#
# Coordination Sequence:
#
# PCOD9305459 Si02
#       6
#     8   4   8   8   4   4
#     4  11  26  44  73 104 156 202 256 317 378 470
#     4  11  28  50  77 114 153 206 262 323 406 478
#     4  11  24  45  68 110 146 196 256 311 384 460
#     4  11  27  54  79 113 157 206 266 341 406 485
#     4  12  27  48  75 112 155 206 253 322 394 474
#     4  11  25  46  80 114 152 202 265 331 402 478
#
# _framework density 23.076512000000001
#
# number of rings (size 3 to 8) (size 9 to 14) (size 15 to 20)
#    0.000    0.889    1.111    4.000    7.778   10.667 
#    4.000    0.000    0.000    0.000    0.000    0.000 
#    0.000    0.000    0.000    0.000    0.000    0.000 
#
# Total GULP energy -100460.102044 kJ/mol
# GULP energy per Si atom -5581.116780 kJ/mol
# Density = 2.302399 g / cm^3
# Si number density = 23.076512 Si / 1000 Ang^3
#
#
#
# Elastic Constant Matrix: (Units=GPa)
#
#
# Indices 1 2 3 4 5 6 
#
# 1 108.5570 74.0507 35.7349 0.0000 5.0852 0.0000
# 2 74.0507 188.0089 46.8528 0.0000 -6.1273 0.0000
# 3 35.7349 46.8528 99.8032 0.0000 0.8424 0.0000
# 4 0.0000 0.0000 0.0000 9.2401 0.0000 9.0580
# 5 5.0852 -6.1273 0.8424 0.0000 45.7130 0.0000
# 6 0.0000 0.0000 0.0000 9.0580 0.0000 60.7500
#
#
#
# Elastic Compliance Matrix: (Units=1/GPa)
#
#
# Indices 1 2 3 4 5 6 
#
# 1 0.013349 -0.004686 -0.002562 0.000000 -0.002066 0.000000
# 2 -0.004686 0.007703 -0.001952 0.000000 0.001590 0.000000
# 3 -0.002562 -0.001952 0.011855 0.000000 -0.000195 0.000000
# 4 0.000000 0.000000 0.000000 0.126750 0.000000 -0.018899
# 5 -0.002066 0.001590 -0.000195 0.000000 0.022322 0.000000
# 6 0.000000 0.000000 0.000000 -0.018899 0.000000 0.019279
#
#
# Mechanical properties :
#
#
# Convention : Reuss Voigt Hill
#
# Bulk Modulus (GPa) = 68.93534 78.84954 73.89244
# Shear Modulus (GPa) = 22.27238 39.12265 30.69752
#
# Velocity S-wave (km/s) = 3.11006 4.12192 3.65122
# Velocity P-wave (km/s) = 6.54477 7.54298 7.06154
#
# Compressibility (1/GPa) = 0.01450635
#
# Stress axis : x y z
#
# Youngs Moduli (GPa) = 74.91350 129.82127 84.35348
#
# Poissons Ratio (x) = 0.60841 0.21612
# Poissons Ratio (y) = 0.35108 0.16462
# Poissons Ratio (z) = 0.19193 0.25335
#
# Static dielectric constant tensor:
#      x y z
#    x 1.946210 0.000000 -0.033060 
#    y 0.000000 1.903090 0.000000 
#    z -0.033060 0.000000 1.863290 
# 
# From -- ./inp_files/72549.got.cif
#   From: 2010.05.17/outbox.cif.g08.bks.cpg/sg15_37_cif.got.tgz:72549.got - 2010.06.03 18:47:42.
