data_PCOD9305276
_publ_section_title
;
Structure prediction by ZEFSAII (Michael W. Deem and Ramdas Pophale) SiO2 
 PCOD9305276
Probable space group: C 2/C
;
_chemical_formula_sum "Si O2"
_cell_formula_units_Z 52
_cell_length_a 6.773444
_cell_length_b 19.245783
_cell_length_c 26.891236
_cell_angle_alpha 90.000000
_cell_angle_beta 49.462863
_cell_angle_gamma 90.000000
_cell_volume 2664.163247
_symmetry_space_group_name_H-M "C 2/C"
_symmetry_group_IT_number 15
_symmetry_cell_setting 'monoclinic'
loop_
_space_group_symop_operation_xyz
x,y,z
-x,y,1/2-z
-x,-y,-z
x,-y,1/2+z
1/2+x,1/2+y,z
1/2-x,1/2+y,1/2-z
1/2-x,1/2-y,-z
1/2+x,1/2-y,1/2+z
loop_
_atom_site_type_symbol
_atom_site_label
_atom_site_fract_x
_atom_site_fract_y
_atom_site_fract_z
Si Si1 0.793778 0.364977 0.693406
Si Si2 0.353690 0.593998 0.559523
Si Si3 0.772469 0.157008 0.410079
Si Si4 0.156130 0.934279 0.908727
Si Si5 0.500000 0.767885 0.750000
Si Si6 0.255998 0.186380 0.536936
Si Si7 0.060740 0.705053 0.885719
O O1 0.500000 0.393344 0.750000
O O2 0.767223 0.333847 0.642184
O O3 0.042695 0.415044 0.647730
O O4 0.877528 0.314341 0.725202
O O5 0.354976 0.516680 0.580841
O O6 0.523351 0.596193 0.480806
O O7 0.496524 0.643069 0.575140
O O8 0.078941 0.630748 0.594476
O O9 0.499434 0.138838 0.480305
O O10 0.988935 0.100766 0.391406
O O11 0.855440 0.231982 0.417394
O O12 0.268712 0.721429 0.809408
O O13 0.250000 0.250000 0.500000
O O14 0.298898 0.212393 0.584881
#
# Coordination Sequence:
#
# PCOD9305276 Si02
#       7
#     8   8   8   8   4   8   8
#     4  12  23  43  71  95 130 175 224 272 330 402
#     4  11  25  42  66 100 139 172 220 280 339 400
#     4  12  22  39  72  98 128 170 223 274 330 396
#     4  11  24  44  65  99 136 176 224 274 333 410
#     4  12  26  42  68 100 130 170 228 280 338 410
#     4  12  22  37  68 102 131 170 218 281 342 390
#     4  12  24  41  65  99 136 173 220 282 339 393
#
# _framework density 19.518324
#
# number of rings (size 3 to 8) (size 9 to 14) (size 15 to 20)
#    0.000    0.308    7.692    2.308    0.000    1.846 
#    1.385    0.000    3.385    0.000    0.000    0.000 
#    0.000    0.000    0.000    0.000    0.000    0.000 
#
# Total GULP energy -145193.394739 kJ/mol
# GULP energy per Si atom -5584.361336 kJ/mol
# Density = 1.947390 g / cm^3
# Si number density = 19.518324 Si / 1000 Ang^3
#
#
#
# Elastic Constant Matrix: (Units=GPa)
#
#
# Indices 1 2 3 4 5 6 
#
# 1 117.8891 41.6201 35.2735 0.0000 13.7066 -0.0002
# 2 41.6201 83.3955 23.9980 0.0000 5.7693 0.0000
# 3 35.2735 23.9980 96.9458 0.0001 -2.2433 0.0000
# 4 0.0000 0.0000 0.0001 23.9182 0.0000 -5.8766
# 5 13.7066 5.7693 -2.2433 0.0000 51.2274 0.0000
# 6 -0.0002 0.0000 0.0000 -5.8766 0.0000 23.3770
#
#
#
# Elastic Compliance Matrix: (Units=1/GPa)
#
#
# Indices 1 2 3 4 5 6 
#
# 1 0.011322 -0.004591 -0.003044 0.000000 -0.002646 0.000000
# 2 -0.004591 0.014904 -0.002031 0.000000 -0.000539 0.000000
# 3 -0.003044 -0.002031 0.011962 0.000000 0.001567 0.000000
# 4 0.000000 0.000000 0.000000 0.044561 0.000000 0.011202
# 5 -0.002646 -0.000539 0.001567 0.000000 0.020358 0.000000
# 6 0.000000 0.000000 0.000000 0.011202 0.000000 0.045593
#
#
# Mechanical properties :
#
#
# Convention : Reuss Voigt Hill
#
# Bulk Modulus (GPa) = 53.03837 55.55707 54.29772
# Shear Modulus (GPa) = 28.68305 32.86044 30.77175
#
# Velocity S-wave (km/s) = 3.83762 4.10758 3.97490
# Velocity P-wave (km/s) = 6.84610 7.14298 6.99612
#
# Compressibility (1/GPa) = 0.01885427
#
# Stress axis : x y z
#
# Youngs Moduli (GPa) = 88.32403 67.09463 83.59997
#
# Poissons Ratio (x) = 0.30806 0.25449
# Poissons Ratio (y) = 0.40553 0.16982
# Poissons Ratio (z) = 0.26887 0.13629
#
# Static dielectric constant tensor:
#      x y z
#    x 1.738570 0.000000 -0.026850 
#    y 0.000000 1.669310 0.000000 
#    z -0.026850 0.000000 1.710590 
# 
# From -- ./inp_files/285994.got.cif
#   From: 2010.05.17/outbox.cif.g08.bks.cpg/sg15_143_cif.got.tgz:285994.got - 2010.06.03 18:47:42.
