data_PCOD9305675
_publ_section_title
;
Structure prediction by ZEFSAII (Michael W. Deem and Ramdas Pophale) SiO2 
 PCOD9305675
Probable space group: C 2/C
;
_chemical_formula_sum "Si O2"
_cell_formula_units_Z 36
_cell_length_a 24.643111
_cell_length_b 14.225206
_cell_length_c 14.171672
_cell_angle_alpha 90.000000
_cell_angle_beta 160.628764
_cell_angle_gamma 90.000000
_cell_volume 1647.799561
_symmetry_space_group_name_H-M "C 2/C"
_symmetry_group_IT_number 15
_symmetry_cell_setting 'monoclinic'
loop_
_space_group_symop_operation_xyz
x,y,z
-x,y,1/2-z
-x,-y,-z
x,-y,1/2+z
1/2+x,1/2+y,z
1/2-x,1/2+y,1/2-z
1/2-x,1/2-y,-z
1/2+x,1/2-y,1/2+z
loop_
_atom_site_type_symbol
_atom_site_label
_atom_site_fract_x
_atom_site_fract_y
_atom_site_fract_z
Si Si1 0.770505 0.220268 0.788849
Si Si2 0.000000 0.407636 0.750000
Si Si3 0.944323 0.090555 0.550325
Si Si4 0.788251 0.983377 0.131588
Si Si5 0.126818 0.825296 0.836728
O O1 0.638592 0.158802 0.518893
O O2 0.680446 0.320839 0.656518
O O3 0.823211 0.170552 0.972186
O O4 0.945579 0.217556 0.024171
O O5 0.903974 0.466262 0.672001
O O6 0.851060 0.006851 0.341214
O O7 0.000000 0.073739 0.750000
O O8 0.109637 0.096988 0.756785
O O9 0.833993 0.076814 0.148989
O O10 0.250000 0.750000 0.000000
#
# Coordination Sequence:
#
# PCOD9305675 Si02
#       5
#     8   4   8   8   8
#     4  11  25  45  72 108 139 189 243 292 363 434
#     4  12  28  46  72 110 144 186 248 298 362 428
#     4  11  24  46  73 103 146 190 235 305 357 423
#     4  11  27  46  69 107 149 187 238 299 360 427
#     4  11  25  46  72 102 145 192 237 294 362 433
#
# _framework density 21.847318000000001
#
# number of rings (size 3 to 8) (size 9 to 14) (size 15 to 20)
#    0.000    0.889    3.333    2.667    9.333    3.556 
#    0.000    0.000    0.000    0.000    0.000    0.000 
#    0.000    0.000    0.000    0.000    0.000    0.000 
#
# Total GULP energy -100424.136941 kJ/mol
# GULP energy per Si atom -5579.118719 kJ/mol
# Density = 2.179759 g / cm^3
# Si number density = 21.847318 Si / 1000 Ang^3
#
#
#
# Elastic Constant Matrix: (Units=GPa)
#
#
# Indices 1 2 3 4 5 6 
#
# 1 132.5175 57.0476 79.4069 0.0000 19.8465 0.0000
# 2 57.0476 107.4374 59.1731 0.0000 27.5116 0.0000
# 3 79.4069 59.1731 166.2244 0.0000 28.1731 0.0000
# 4 0.0000 0.0000 0.0000 24.5959 0.0000 3.5823
# 5 19.8465 27.5116 28.1731 0.0000 72.3444 0.0000
# 6 0.0000 0.0000 0.0000 3.5823 0.0000 37.8289
#
#
#
# Elastic Compliance Matrix: (Units=1/GPa)
#
#
# Indices 1 2 3 4 5 6 
#
# 1 0.011766 -0.003900 -0.004215 0.000000 -0.000103 0.000000
# 2 -0.003900 0.013510 -0.002416 0.000000 -0.003127 0.000000
# 3 -0.004215 -0.002416 0.009141 0.000000 -0.001485 0.000000
# 4 0.000000 0.000000 0.000000 0.041226 0.000000 -0.003904
# 5 -0.000103 -0.003127 -0.001485 0.000000 0.015618 0.000000
# 6 0.000000 0.000000 0.000000 -0.003904 0.000000 0.026804
#
#
# Mechanical properties :
#
#
# Convention : Reuss Voigt Hill
#
# Bulk Modulus (GPa) = 74.87733 88.60384 81.74059
# Shear Modulus (GPa) = 34.82369 40.99061 37.90715
#
# Velocity S-wave (km/s) = 3.99677 4.33625 4.16997
# Velocity P-wave (km/s) = 7.45965 8.10646 7.78977
#
# Compressibility (1/GPa) = 0.01335518
#
# Stress axis : x y z
#
# Youngs Moduli (GPa) = 84.98947 74.01920 109.39242
#
# Poissons Ratio (x) = 0.28865 0.46110
# Poissons Ratio (y) = 0.33143 0.26435
# Poissons Ratio (z) = 0.35824 0.17887
#
# Static dielectric constant tensor:
#      x y z
#    x -0.619610 0.000000 0.554550 
#    y 0.000000 1.903530 0.000000 
#    z 0.554550 0.000000 1.706610 
# 
# From -- ./inp_files/178254.got.cif
#   From: 2010.05.17/outbox.cif.g08.bks.cpg/sg15_90_cif.got.tgz:178254.got - 2010.06.03 18:47:42.
