data_PCOD9305292
_publ_section_title
;
Structure prediction by ZEFSAII (Michael W. Deem and Ramdas Pophale) SiO2 
 PCOD9305292
Probable space group: C 2/C
;
_chemical_formula_sum "Si O2"
_cell_formula_units_Z 40
_cell_length_a 8.788654
_cell_length_b 18.982039
_cell_length_c 9.464950
_cell_angle_alpha 90.000000
_cell_angle_beta 103.232830
_cell_angle_gamma 90.000000
_cell_volume 1537.079269
_symmetry_space_group_name_H-M "C 2/C"
_symmetry_group_IT_number 15
_symmetry_cell_setting 'monoclinic'
loop_
_space_group_symop_operation_xyz
x,y,z
-x,y,1/2-z
-x,-y,-z
x,-y,1/2+z
1/2+x,1/2+y,z
1/2-x,1/2+y,1/2-z
1/2-x,1/2-y,-z
1/2+x,1/2-y,1/2+z
loop_
_atom_site_type_symbol
_atom_site_label
_atom_site_fract_x
_atom_site_fract_y
_atom_site_fract_z
Si Si1 0.285659 0.130562 0.536157
Si Si2 0.684616 0.280602 0.270660
Si Si3 0.742572 0.630258 0.192931
Si Si4 0.633673 0.093255 0.560545
Si Si5 0.846382 0.014601 0.794335
O O1 0.227192 0.195747 0.619782
O O2 0.469902 0.115943 0.589928
O O3 0.265246 0.136792 0.365353
O O4 0.198154 0.063626 0.584971
O O5 0.500000 0.265857 0.250000
O O6 0.779658 0.212455 0.344957
O O7 0.739031 0.348045 0.370106
O O8 0.622465 0.565773 0.153437
O O9 0.870745 0.599024 0.109845
O O10 0.701374 0.023807 0.652145
O O11 0.000000 0.041061 0.750000
#
# Coordination Sequence:
#
# PCOD9305292 Si02
#       5
#     8   8   8   8   8
#     4  11  24  44  68  95 131 172 215 264 321 383
#     4  11  24  44  67  95 133 171 214 265 319 382
#     4  12  26  40  66 100 130 168 218 268 318 380
#     4  11  24  44  68  95 131 172 215 264 321 383
#     4  11  26  46  67  95 131 171 216 267 323 384
#
# _framework density 26.023382000000002
#
# number of rings (size 3 to 8) (size 9 to 14) (size 15 to 20)
#    0.000    0.800    0.000    9.000    0.000   12.800 
#    0.000    0.000    0.000    0.000    0.000    0.000 
#    0.000    0.000    0.000    0.000    0.000    0.000 
#
# Total GULP energy -111831.058955 kJ/mol
# GULP energy per Si atom -5591.552948 kJ/mol
# Density = 2.596415 g / cm^3
# Si number density = 26.023382 Si / 1000 Ang^3
#
#
#
# Elastic Constant Matrix: (Units=GPa)
#
#
# Indices 1 2 3 4 5 6 
#
# 1 145.1144 24.2139 37.9677 0.0000 -32.0785 0.0000
# 2 24.2139 156.5743 9.2864 0.0000 -2.1837 0.0000
# 3 37.9677 9.2864 141.0784 0.0000 -39.2265 0.0000
# 4 0.0000 0.0000 0.0000 33.7700 0.0000 -21.5099
# 5 -32.0785 -2.1837 -39.2265 0.0000 43.7108 0.0000
# 6 0.0000 0.0000 0.0000 -21.5099 0.0000 10.7469
#
#
#
# Elastic Compliance Matrix: (Units=1/GPa)
#
#
# Indices 1 2 3 4 5 6 
#
# 1 0.008498 -0.001197 -0.000654 0.000000 0.005590 0.000000
# 2 -0.001197 0.006581 -0.000352 0.000000 -0.000866 0.000000
# 3 -0.000654 -0.000352 0.009526 0.000000 0.008051 0.000000
# 4 0.000000 0.000000 0.000000 -0.107735 0.000000 -0.215631
# 5 0.005590 -0.000866 0.008051 0.000000 0.034162 0.000000
# 6 0.000000 0.000000 0.000000 -0.215631 0.000000 -0.338535
#
#
# Mechanical properties :
#
#
# Convention : Reuss Voigt Hill
#
# Bulk Modulus (GPa) = 49.50856 65.07815 57.29336
# Shear Modulus (GPa) = -13.28499 42.39881 14.55691
#
# Velocity S-wave (km/s) = -2.26188 4.04079 2.36768
# Velocity P-wave (km/s) = 3.49921 6.84342 5.43493
#
# Compressibility (1/GPa) = 0.02019853
#
# Stress axis : x y z
#
# Youngs Moduli (GPa) = 117.67990 151.95954 104.97562
#
# Poissons Ratio (x) = 0.18196 0.06865
# Poissons Ratio (y) = 0.14091 0.03691
# Poissons Ratio (z) = 0.07696 0.05342
#
# Static dielectric constant tensor:
#      x y z
#    x 2.010890 0.000000 0.000080 
#    y 0.000000 2.049890 0.000000 
#    z 0.000080 0.000000 2.139410 
# 
# From -- ./inp_files/86258.got.cif
#   From: 2010.05.17/outbox.cif.g08.bks.cpg/sg15_44_cif.got.tgz:86258.got - 2010.06.03 18:47:42.
