data_PCOD9305331
_publ_section_title
;
Structure prediction by ZEFSAII (Michael W. Deem and Ramdas Pophale) SiO2 
 PCOD9305331
Probable space group: C 2/C
;
_chemical_formula_sum "Si O2"
_cell_formula_units_Z 52
_cell_length_a 21.886431
_cell_length_b 11.084871
_cell_length_c 11.817933
_cell_angle_alpha 90.000000
_cell_angle_beta 123.322655
_cell_angle_gamma 90.000000
_cell_volume 2395.744265
_symmetry_space_group_name_H-M "C 2/C"
_symmetry_group_IT_number 15
_symmetry_cell_setting 'monoclinic'
loop_
_space_group_symop_operation_xyz
x,y,z
-x,y,1/2-z
-x,-y,-z
x,-y,1/2+z
1/2+x,1/2+y,z
1/2-x,1/2+y,1/2-z
1/2-x,1/2-y,-z
1/2+x,1/2-y,1/2+z
loop_
_atom_site_type_symbol
_atom_site_label
_atom_site_fract_x
_atom_site_fract_y
_atom_site_fract_z
Si Si1 0.500000 0.871761 0.750000
Si Si2 0.523024 0.313902 0.098774
Si Si3 0.137778 0.466435 0.351199
Si Si4 0.047418 0.912154 0.691644
Si Si5 0.333856 0.293418 0.584396
Si Si6 0.714020 0.982184 0.681307
Si Si7 0.317651 0.292170 0.316162
O O1 0.520896 0.780717 0.871246
O O2 0.433906 0.954096 0.720655
O O3 0.529572 0.448199 0.154248
O O4 0.607072 0.269687 0.174018
O O5 0.480234 0.333410 0.939922
O O6 0.121245 0.324799 0.337716
O O7 0.175289 0.486306 0.515591
O O8 0.178277 0.487730 0.270710
O O9 0.133759 0.895494 0.802667
O O10 0.000000 0.873076 0.750000
O O11 0.250000 0.250000 0.500000
O O12 0.346018 0.331700 0.468721
O O13 0.725278 0.835841 0.711615
O O14 0.771369 0.093134 0.728450
#
# Coordination Sequence:
#
# PCOD9305331 Si02
#       7
#     4   8   8   8   8   8   8
#     4  12  26  48  66 104 144 178 246 290 358 436
#     4  11  25  44  69 101 140 186 232 299 353 434
#     4  11  27  45  72 103 142 188 239 295 369 420
#     4  11  24  44  70 100 132 184 238 285 358 424
#     4  11  24  44  70 103 137 183 239 294 354 444
#     4  11  26  47  70 109 139 192 234 300 362 434
#     4  11  24  45  71 102 145 182 243 290 369 425
#
# _framework density 21.705154
#
# number of rings (size 3 to 8) (size 9 to 14) (size 15 to 20)
#    0.000    0.923    5.385    0.000    7.538    1.231 
#    5.538    0.000    0.000    0.000    0.000    0.000 
#    0.000    0.000    0.000    0.000    0.000    0.000 
#
# Total GULP energy -144790.406442 kJ/mol
# GULP energy per Si atom -5568.861786 kJ/mol
# Density = 2.165575 g / cm^3
# Si number density = 21.705154 Si / 1000 Ang^3
#
#
#
# Elastic Constant Matrix: (Units=GPa)
#
#
# Indices 1 2 3 4 5 6 
#
# 1 63.2092 -5.6172 17.1960 0.0000 -9.9129 0.0000
# 2 -5.6172 75.1310 36.6190 0.0000 2.4829 0.0000
# 3 17.1960 36.6190 92.4626 0.0000 -18.2929 0.0000
# 4 0.0000 0.0000 0.0000 43.6524 0.0000 11.9943
# 5 -9.9129 2.4829 -18.2929 0.0000 32.7114 0.0000
# 6 0.0000 0.0000 0.0000 11.9943 0.0000 33.6919
#
#
#
# Elastic Compliance Matrix: (Units=1/GPa)
#
#
# Indices 1 2 3 4 5 6 
#
# 1 0.017630 0.003150 -0.003954 0.000000 0.002892 0.000000
# 2 0.003150 0.017992 -0.008762 0.000000 -0.005311 0.000000
# 3 -0.003954 -0.008762 0.016771 0.000000 0.008845 0.000000
# 4 0.000000 0.000000 0.000000 0.025392 0.000000 -0.009040
# 5 0.002892 -0.005311 0.008845 0.000000 0.036796 0.000000
# 6 0.000000 0.000000 0.000000 -0.009040 0.000000 0.032899
#
#
# Mechanical properties :
#
#
# Convention : Reuss Voigt Hill
#
# Bulk Modulus (GPa) = 30.06660 36.35537 33.21099
# Shear Modulus (GPa) = 28.13765 34.18482 31.16124
#
# Velocity S-wave (km/s) = 3.60440 3.97289 3.79312
# Velocity P-wave (km/s) = 5.58611 6.15070 5.87519
#
# Compressibility (1/GPa) = 0.03325949
#
# Stress axis : x y z
#
# Youngs Moduli (GPa) = 56.72272 55.58137 59.62839
#
# Poissons Ratio (x) = -0.17506 0.23576
# Poissons Ratio (y) = -0.17865 0.52246
# Poissons Ratio (z) = 0.22427 0.48700
#
# Static dielectric constant tensor:
#      x y z
#    x 1.975350 0.000000 0.016940 
#    y 0.000000 1.774640 0.000000 
#    z 0.016940 0.000000 1.805180 
# 
# From -- ./inp_files/118056.got.cif
#   From: 2010.05.17/outbox.cif.g08.bks.cpg/sg15_60_cif.got.tgz:118056.got - 2010.06.03 18:47:42.
