data_PCOD9305549
_publ_section_title
;
Structure prediction by ZEFSAII (Michael W. Deem and Ramdas Pophale) SiO2 
 PCOD9305549
Probable space group: C 2/C
;
_chemical_formula_sum "Si O2"
_cell_formula_units_Z 44
_cell_length_a 8.639214
_cell_length_b 11.865648
_cell_length_c 22.430503
_cell_angle_alpha 90.000000
_cell_angle_beta 56.135355
_cell_angle_gamma 90.000000
_cell_volume 1909.278073
_symmetry_space_group_name_H-M "C 2/C"
_symmetry_group_IT_number 15
_symmetry_cell_setting 'monoclinic'
loop_
_space_group_symop_operation_xyz
x,y,z
-x,y,1/2-z
-x,-y,-z
x,-y,1/2+z
1/2+x,1/2+y,z
1/2-x,1/2+y,1/2-z
1/2-x,1/2-y,-z
1/2+x,1/2-y,1/2+z
loop_
_atom_site_type_symbol
_atom_site_label
_atom_site_fract_x
_atom_site_fract_y
_atom_site_fract_z
Si Si1 0.257999 0.422569 0.502748
Si Si2 0.210204 0.154491 0.057568
Si Si3 0.826761 0.203539 0.755559
Si Si4 0.000000 0.588832 0.750000
Si Si5 0.451369 0.747886 0.599323
Si Si6 0.790779 0.090881 0.137566
O O1 0.195592 0.540544 0.488427
O O2 0.443505 0.370060 0.433006
O O3 0.296724 0.421543 0.564958
O O4 0.090366 0.333686 0.535830
O O5 0.263979 0.220066 0.105933
O O6 0.004561 0.105358 0.109545
O O7 0.250000 0.250000 0.000000
O O8 0.631765 0.149773 0.772412
O O9 0.909516 0.259487 0.677593
O O10 0.786124 0.296196 0.814464
O O11 0.000000 0.133738 0.750000
O O12 0.158417 0.510134 0.686592
#
# Coordination Sequence:
#
# PCOD9305549 Si02
#       6
#     8   8   8   4   8   8
#     4  11  24  45  74 105 158 194 254 324 385 454
#     4  12  26  42  76 110 147 203 255 316 397 455
#     4  12  26  52  75 110 156 201 262 318 393 468
#     4  12  28  48  80 104 158 212 254 326 394 466
#     4  11  24  48  72 110 150 199 258 321 386 476
#     4  12  25  50  71 110 157 196 260 326 380 466
#
# _framework density 23.045361
#
# number of rings (size 3 to 8) (size 9 to 14) (size 15 to 20)
#    0.000    0.364    4.545    3.273    5.091    0.000 
#   14.727    0.000    0.000    0.000    0.000    0.000 
#    0.000    0.000    0.000    0.000    0.000    0.000 
#
# Total GULP energy -122577.118041 kJ/mol
# GULP energy per Si atom -5571.687184 kJ/mol
# Density = 2.299291 g / cm^3
# Si number density = 23.045361 Si / 1000 Ang^3
#
#
#
# Elastic Constant Matrix: (Units=GPa)
#
#
# Indices 1 2 3 4 5 6 
#
# 1 171.7109 51.8812 37.0260 0.0000 4.6409 0.0000
# 2 51.8812 165.0517 76.4529 0.0000 17.8027 0.0000
# 3 37.0260 76.4529 179.5004 0.0000 41.0173 0.0000
# 4 0.0000 0.0000 0.0000 20.6895 0.0000 -16.8597
# 5 4.6409 17.8027 41.0173 0.0000 70.5461 0.0000
# 6 0.0000 0.0000 0.0000 -16.8597 0.0000 21.0972
#
#
#
# Elastic Compliance Matrix: (Units=1/GPa)
#
#
# Indices 1 2 3 4 5 6 
#
# 1 0.006494 -0.001771 -0.000680 0.000000 0.000415 0.000000
# 2 -0.001771 0.008031 -0.003020 0.000000 -0.000154 0.000000
# 3 -0.000680 -0.003020 0.007857 0.000000 -0.003761 0.000000
# 4 0.000000 0.000000 0.000000 0.138577 0.000000 0.110742
# 5 0.000415 -0.000154 -0.003761 0.000000 0.016374 0.000000
# 6 0.000000 0.000000 0.000000 0.110742 0.000000 0.135899
#
#
# Mechanical properties :
#
#
# Convention : Reuss Voigt Hill
#
# Bulk Modulus (GPa) = 87.41289 94.10924 90.76107
# Shear Modulus (GPa) = 15.24451 45.86010 30.55231
#
# Velocity S-wave (km/s) = 2.57475 4.46577 3.64503
# Velocity P-wave (km/s) = 6.84487 8.21681 7.56202
#
# Compressibility (1/GPa) = 0.01143996
#
# Stress axis : x y z
#
# Youngs Moduli (GPa) = 153.98104 124.51854 127.27356
#
# Poissons Ratio (x) = 0.22054 0.08656
# Poissons Ratio (y) = 0.27272 0.38436
# Poissons Ratio (z) = 0.10472 0.37604
#
# Static dielectric constant tensor:
#      x y z
#    x 1.958670 0.000000 -0.034260 
#    y 0.000000 1.936160 0.000000 
#    z -0.034260 0.000000 1.819790 
# 
# From -- ./inp_files/263437.got.cif
#   From: 2010.05.17/outbox.cif.g08.bks.cpg/sg15_132_cif.got.tgz:263437.got - 2010.06.03 18:47:42.
