data_PCOD9305319
_publ_section_title
;
Structure prediction by ZEFSAII (Michael W. Deem and Ramdas Pophale) SiO2 
 PCOD9305319
Probable space group: C 2/C
;
_chemical_formula_sum "Si O2"
_cell_formula_units_Z 60
_cell_length_a 14.769881
_cell_length_b 12.054824
_cell_length_c 17.125763
_cell_angle_alpha 90.000000
_cell_angle_beta 77.598743
_cell_angle_gamma 90.000000
_cell_volume 2978.067698
_symmetry_space_group_name_H-M "C 2/C"
_symmetry_group_IT_number 15
_symmetry_cell_setting 'monoclinic'
loop_
_space_group_symop_operation_xyz
x,y,z
-x,y,1/2-z
-x,-y,-z
x,-y,1/2+z
1/2+x,1/2+y,z
1/2-x,1/2+y,1/2-z
1/2-x,1/2-y,-z
1/2+x,1/2-y,1/2+z
loop_
_atom_site_type_symbol
_atom_site_label
_atom_site_fract_x
_atom_site_fract_y
_atom_site_fract_z
Si Si1 0.026019 0.155532 0.953495
Si Si2 0.500000 0.296323 0.750000
Si Si3 0.604646 0.891275 0.699127
Si Si4 0.774943 0.472377 0.112201
Si Si5 0.834541 0.631990 0.763576
Si Si6 0.075442 0.953508 0.599275
Si Si7 0.647965 0.804207 0.519045
Si Si8 0.322059 0.211900 0.162538
O O1 0.930648 0.217837 0.993952
O O2 0.085745 0.233930 0.887642
O O3 0.000551 0.045322 0.909885
O O4 0.082842 0.120766 0.019900
O O5 0.419749 0.215389 0.732456
O O6 0.543243 0.375483 0.675800
O O7 0.500000 0.880295 0.750000
O O8 0.620206 0.843459 0.610637
O O9 0.667088 0.824239 0.749406
O O10 0.630993 0.020993 0.699733
O O11 0.787299 0.409255 0.192131
O O12 0.668919 0.480498 0.103359
O O13 0.803533 0.599220 0.119825
O O14 0.840609 0.409647 0.039251
O O15 0.760508 0.700304 0.827460
O O16 0.750000 0.750000 0.500000
#
# Coordination Sequence:
#
# PCOD9305319 Si02
#       8
#     8   4   8   8   8   8   8   8
#     4  11  26  44  68 100 138 178 229 284 347 404
#     4  12  24  46  70  94 142 186 224 288 344 416
#     4  11  24  44  69 102 133 177 234 275 343 420
#     4  11  25  45  66 105 133 176 234 279 344 413
#     4  11  25  43  69  99 140 181 226 286 349 411
#     4  11  26  44  67 104 135 176 235 277 347 412
#     4  12  24  44  73  99 138 184 227 289 342 409
#     4  11  25  43  69 101 133 179 229 284 342 409
#
# _framework density 20.147292
#
# number of rings (size 3 to 8) (size 9 to 14) (size 15 to 20)
#    0.000    0.800    4.667    1.600    3.733    2.133 
#    0.000    0.000    0.000    0.000    0.000    0.000 
#    0.000    0.000    0.000    0.000    0.000    0.000 
#
# Total GULP energy -167752.324647 kJ/mol
# GULP energy per Si atom -5591.744155 kJ/mol
# Density = 2.010144 g / cm^3
# Si number density = 20.147292 Si / 1000 Ang^3
#
#
#
# Elastic Constant Matrix: (Units=GPa)
#
#
# Indices 1 2 3 4 5 6 
#
# 1 77.0080 28.2210 19.6463 0.0000 -4.7550 0.0000
# 2 28.2210 86.3531 53.1245 0.0000 -6.8740 0.0000
# 3 19.6463 53.1245 78.6352 0.0000 4.8758 0.0000
# 4 0.0000 0.0000 0.0000 19.0945 0.0000 -10.1146
# 5 -4.7550 -6.8740 4.8758 0.0000 34.1155 0.0000
# 6 0.0000 0.0000 0.0000 -10.1146 0.0000 36.8006
#
#
#
# Elastic Compliance Matrix: (Units=1/GPa)
#
#
# Indices 1 2 3 4 5 6 
#
# 1 0.014838 -0.004117 -0.001012 0.000000 0.001383 0.000000
# 2 -0.004117 0.022237 -0.014364 0.000000 0.005960 0.000000
# 3 -0.001012 -0.014364 0.023066 0.000000 -0.006332 0.000000
# 4 0.000000 0.000000 0.000000 0.061295 0.000000 0.016847
# 5 0.001383 0.005960 -0.006332 0.000000 0.031611 0.000000
# 6 0.000000 0.000000 0.000000 0.016847 0.000000 0.031804
#
#
# Mechanical properties :
#
#
# Convention : Reuss Voigt Hill
#
# Bulk Modulus (GPa) = 47.26675 49.33111 48.29893
# Shear Modulus (GPa) = 21.65563 27.40241 24.52902
#
# Velocity S-wave (km/s) = 3.28207 3.69196 3.49303
# Velocity P-wave (km/s) = 6.15420 6.53548 6.34770
#
# Compressibility (1/GPa) = 0.02115652
#
# Stress axis : x y z
#
# Youngs Moduli (GPa) = 67.39546 44.97065 43.35340
#
# Poissons Ratio (x) = 0.18513 0.04386
# Poissons Ratio (y) = 0.27744 0.62272
# Poissons Ratio (z) = 0.06819 0.64595
#
# Static dielectric constant tensor:
#      x y z
#    x 1.733400 0.000000 0.021080 
#    y 0.000000 1.734100 0.000000 
#    z 0.021080 0.000000 1.676030 
# 
# From -- ./inp_files/204431.got.cif
#   From: 2010.05.17/outbox.cif.g08.bks.cpg/sg15_103_cif.got.tgz:204431.got - 2010.06.03 18:47:42.
