data_PCOD9305210
_publ_section_title
;
Structure prediction by ZEFSAII (Michael W. Deem and Ramdas Pophale) SiO2 
 PCOD9305210
Probable space group: C 2/C
;
_chemical_formula_sum "Si O2"
_cell_formula_units_Z 48
_cell_length_a 5.812545
_cell_length_b 19.426500
_cell_length_c 22.046219
_cell_angle_alpha 90.000000
_cell_angle_beta 128.241932
_cell_angle_gamma 90.000000
_cell_volume 1955.186418
_symmetry_space_group_name_H-M "C 2/C"
_symmetry_group_IT_number 15
_symmetry_cell_setting 'monoclinic'
loop_
_space_group_symop_operation_xyz
x,y,z
-x,y,1/2-z
-x,-y,-z
x,-y,1/2+z
1/2+x,1/2+y,z
1/2-x,1/2+y,1/2-z
1/2-x,1/2-y,-z
1/2+x,1/2-y,1/2+z
loop_
_atom_site_type_symbol
_atom_site_label
_atom_site_fract_x
_atom_site_fract_y
_atom_site_fract_z
Si Si1 0.659590 0.404658 0.211311
Si Si2 0.185476 0.750031 0.176163
Si Si3 0.163927 0.494233 0.930503
Si Si4 0.294619 0.795313 0.949044
Si Si5 0.351948 0.087783 0.954617
Si Si6 0.807827 0.625740 0.158032
O O1 0.500000 0.425850 0.250000
O O2 0.634570 0.321484 0.202399
O O3 0.470032 0.429825 0.122406
O O4 0.000000 0.421412 0.250000
O O5 0.500000 0.722918 0.250000
O O6 0.207712 0.755556 0.107979
O O7 0.946269 0.692047 0.147975
O O8 0.131825 0.444930 0.868157
O O9 0.033734 0.569544 0.922917
O O10 0.500000 0.500000 0.000000
O O11 0.040970 0.451930 0.968065
O O12 0.035387 0.852379 0.895044
O O13 0.250000 0.750000 0.000000
O O14 0.593730 0.835384 0.013796
O O15 0.000000 0.620507 0.250000
#
# Coordination Sequence:
#
# PCOD9305210 Si02
#       6
#     8   8   8   8   8   8
#     4  11  28  48  75 110 154 199 244 313 388 457
#     4  11  24  43  70 106 152 189 240 313 382 451
#     4  11  25  47  74  98 143 195 247 322 366 441
#     4  12  26  41  76 112 143 192 248 309 384 457
#     4  11  26  48  72 103 144 192 257 306 377 453
#     4  12  24  44  72 105 146 193 253 312 379 455
#
# _framework density 24.550087999999999
#
# number of rings (size 3 to 8) (size 9 to 14) (size 15 to 20)
#    0.000    0.667    5.000    1.500   11.667    1.333 
#    3.000    0.000    0.000    0.000    0.000    0.000 
#    0.000    0.000    0.000    0.000    0.000    0.000 
#
# Total GULP energy -133940.407417 kJ/mol
# GULP energy per Si atom -5580.850309 kJ/mol
# Density = 2.449421 g / cm^3
# Si number density = 24.550088 Si / 1000 Ang^3
#
#
#
# Elastic Constant Matrix: (Units=GPa)
#
#
# Indices 1 2 3 4 5 6 
#
# 1 82.1855 2.1659 45.3143 0.0000 0.9737 0.0000
# 2 2.1659 37.5971 5.4094 0.0000 -11.1035 0.0000
# 3 45.3143 5.4094 154.5761 0.0000 -12.1872 0.0000
# 4 0.0000 0.0000 0.0000 36.1023 0.0000 -0.5872
# 5 0.9737 -11.1035 -12.1872 0.0000 53.1303 0.0000
# 6 0.0000 0.0000 0.0000 -0.5872 0.0000 38.4299
#
#
#
# Elastic Compliance Matrix: (Units=1/GPa)
#
#
# Indices 1 2 3 4 5 6 
#
# 1 0.014611 -0.000627 -0.004372 0.000000 -0.001402 0.000000
# 2 -0.000627 0.028418 -0.000348 0.000000 0.005871 0.000000
# 3 -0.004372 -0.000348 0.007907 0.000000 0.001821 0.000000
# 4 0.000000 0.000000 0.000000 0.027706 0.000000 0.000423
# 5 -0.001402 0.005871 0.001821 0.000000 0.020492 0.000000
# 6 0.000000 0.000000 0.000000 0.000423 0.000000 0.026028
#
#
# Mechanical properties :
#
#
# Convention : Reuss Voigt Hill
#
# Bulk Modulus (GPa) = 24.84922 42.23757 33.54340
# Shear Modulus (GPa) = 33.49668 40.29711 36.89690
#
# Velocity S-wave (km/s) = 3.69782 4.05584 3.88096
# Velocity P-wave (km/s) = 5.32688 6.25901 5.81166
#
# Compressibility (1/GPa) = 0.04024271
#
# Stress axis : x y z
#
# Youngs Moduli (GPa) = 68.44054 35.18931 126.47516
#
# Poissons Ratio (x) = 0.02205 0.55294
# Poissons Ratio (y) = 0.04289 0.04401
# Poissons Ratio (z) = 0.29921 0.01224
#
# Static dielectric constant tensor:
#      x y z
#    x 2.132130 0.000000 -0.020490 
#    y 0.000000 2.143690 0.000000 
#    z -0.020490 0.000000 1.943740 
# 
# From -- ./inp_files/185540.got.cif
#   From: 2010.05.17/outbox.cif.g08.bks.cpg/sg15_93_cif.got.tgz:185540.got - 2010.06.03 18:47:42.
