data_PCOD9305353
_publ_section_title
;
Structure prediction by ZEFSAII (Michael W. Deem and Ramdas Pophale) SiO2 
 PCOD9305353
Probable space group: C 2/C
;
_chemical_formula_sum "Si O2"
_cell_formula_units_Z 40
_cell_length_a 9.913691
_cell_length_b 23.293086
_cell_length_c 8.481198
_cell_angle_alpha 90.000000
_cell_angle_beta 95.968498
_cell_angle_gamma 90.000000
_cell_volume 1947.865610
_symmetry_space_group_name_H-M "C 2/C"
_symmetry_group_IT_number 15
_symmetry_cell_setting 'monoclinic'
loop_
_space_group_symop_operation_xyz
x,y,z
-x,y,1/2-z
-x,-y,-z
x,-y,1/2+z
1/2+x,1/2+y,z
1/2-x,1/2+y,1/2-z
1/2-x,1/2-y,-z
1/2+x,1/2-y,1/2+z
loop_
_atom_site_type_symbol
_atom_site_label
_atom_site_fract_x
_atom_site_fract_y
_atom_site_fract_z
Si Si1 0.414909 0.259492 0.564168
Si Si2 0.020172 0.640089 0.067339
Si Si3 0.500630 0.387533 0.938147
Si Si4 0.264645 0.054552 0.559311
Si Si5 0.227397 0.569013 0.568120
O O1 0.500000 0.255645 0.750000
O O2 0.250000 0.250000 0.500000
O O3 0.473515 0.206729 0.473471
O O4 0.451565 0.323322 0.508593
O O5 0.000000 0.631175 0.250000
O O6 0.147253 0.604055 0.014850
O O7 0.890631 0.614087 0.968293
O O8 0.500000 0.385961 0.750000
O O9 0.610748 0.435286 0.991439
O O10 0.360884 0.405676 0.001580
O O11 0.262229 0.059326 0.745707
O O12 0.311630 0.991629 0.514698
#
# Coordination Sequence:
#
# PCOD9305353 Si02
#       5
#     8   8   8   8   8
#     4  11  25  48  77 105 147 192 240 301 362 431
#     4  12  26  45  71 102 141 185 241 296 361 428
#     4  11  24  44  71 101 143 184 240 292 359 425
#     4  12  24  46  68 100 144 181 239 293 363 432
#     4  12  26  42  71 103 137 190 234 299 357 432
#
# _framework density 20.535298000000001
#
# number of rings (size 3 to 8) (size 9 to 14) (size 15 to 20)
#    0.000    0.400    2.000    7.200    2.800    2.400 
#    0.000    0.000    0.000    0.000    0.000    0.000 
#    0.000    0.000    0.000    0.000    0.000    0.000 
#
# Total GULP energy -111584.427417 kJ/mol
# GULP energy per Si atom -5579.221371 kJ/mol
# Density = 2.048856 g / cm^3
# Si number density = 20.535298 Si / 1000 Ang^3
#
#
#
# Elastic Constant Matrix: (Units=GPa)
#
#
# Indices 1 2 3 4 5 6 
#
# 1 79.8747 -8.4521 32.0324 0.0000 -2.0777 0.0000
# 2 -8.4521 90.6341 22.0030 0.0000 -3.8597 0.0000
# 3 32.0324 22.0030 122.9116 0.0000 -20.7995 0.0000
# 4 0.0000 0.0000 0.0000 40.4563 0.0000 -1.4369
# 5 -2.0777 -3.8597 -20.7995 0.0000 37.0469 0.0000
# 6 0.0000 0.0000 0.0000 -1.4369 0.0000 55.0318
#
#
#
# Elastic Compliance Matrix: (Units=1/GPa)
#
#
# Indices 1 2 3 4 5 6 
#
# 1 0.014519 0.002374 -0.004452 0.000000 -0.001438 0.000000
# 2 0.002374 0.011923 -0.002785 0.000000 -0.000188 0.000000
# 3 -0.004452 -0.002785 0.010722 0.000000 0.005480 0.000000
# 4 0.000000 0.000000 0.000000 0.024741 0.000000 0.000646
# 5 -0.001438 -0.000188 0.005480 0.000000 0.029969 0.000000
# 6 0.000000 0.000000 0.000000 0.000646 0.000000 0.018188
#
#
# Mechanical properties :
#
#
# Convention : Reuss Voigt Hill
#
# Bulk Modulus (GPa) = 36.44710 42.73188 39.58949
# Shear Modulus (GPa) = 38.77952 43.02949 40.90450
#
# Velocity S-wave (km/s) = 4.35032 4.58251 4.46793
# Velocity P-wave (km/s) = 6.55902 6.98952 6.77769
#
# Compressibility (1/GPa) = 0.02743702
#
# Stress axis : x y z
#
# Youngs Moduli (GPa) = 68.87643 83.87322 93.26595
#
# Poissons Ratio (x) = -0.19907 0.41522
# Poissons Ratio (y) = -0.16348 0.25972
# Poissons Ratio (z) = 0.30664 0.23357
#
# Static dielectric constant tensor:
#      x y z
#    x 1.520280 0.000000 0.447010 
#    y 0.000000 1.695660 0.000000 
#    z 0.447010 0.000000 1.007630 
# 
# From -- ./inp_files/23594.got.cif
#   From: 2010.05.17/outbox.cif.g08.bks.cpg/sg15_12_cif.got.tgz:23594.got - 2010.06.03 18:47:42.
