data_PCOD9305223
_publ_section_title
;
Structure prediction by ZEFSAII (Michael W. Deem and Ramdas Pophale) SiO2 
 PCOD9305223
Probable space group: C 2/C
;
_chemical_formula_sum "Si O2"
_cell_formula_units_Z 40
_cell_length_a 10.906657
_cell_length_b 22.822708
_cell_length_c 10.556540
_cell_angle_alpha 90.000000
_cell_angle_beta 45.151473
_cell_angle_gamma 90.000000
_cell_volume 1862.990089
_symmetry_space_group_name_H-M "C 2/C"
_symmetry_group_IT_number 15
_symmetry_cell_setting 'monoclinic'
loop_
_space_group_symop_operation_xyz
x,y,z
-x,y,1/2-z
-x,-y,-z
x,-y,1/2+z
1/2+x,1/2+y,z
1/2-x,1/2+y,1/2-z
1/2-x,1/2-y,-z
1/2+x,1/2-y,1/2+z
loop_
_atom_site_type_symbol
_atom_site_label
_atom_site_fract_x
_atom_site_fract_y
_atom_site_fract_z
Si Si1 0.000000 0.119199 0.250000
Si Si2 0.509296 0.802290 0.380244
Si Si3 0.124572 0.444633 0.551256
Si Si4 0.594613 0.686983 0.922132
Si Si5 0.000000 0.883491 0.250000
Si Si6 0.643863 0.927544 0.981054
O O1 0.940213 0.155973 0.417233
O O2 0.845767 0.080130 0.303795
O O3 0.500000 0.771909 0.250000
O O4 0.442900 0.755941 0.530522
O O5 0.705971 0.818267 0.261184
O O6 0.403567 0.861982 0.441156
O O7 0.317568 0.419428 0.387997
O O8 0.144260 0.514150 0.565485
O O9 0.000000 0.417333 0.750000
O O10 0.002273 0.438186 0.517784
O O11 0.494511 0.656109 0.880848
#
# Coordination Sequence:
#
# PCOD9305223 Si02
#       6
#     4   8   8   8   4   8
#     4  12  23  42  72 108 134 189 240 298 364 420
#     4  12  22  45  69 104 141 178 247 300 351 428
#     4  11  25  47  71 105 144 195 240 298 366 435
#     4  12  26  42  72 104 143 191 236 300 365 432
#     4  12  27  50  70 110 152 195 242 292 372 446
#     4  11  24  43  72 102 139 184 241 305 354 427
#
# _framework density 21.470859000000001
#
# number of rings (size 3 to 8) (size 9 to 14) (size 15 to 20)
#    0.000    0.400    5.000    4.200    0.000    0.800 
#    1.800    5.000    0.000    0.000    0.000    0.000 
#    0.000    0.000    0.000    0.000    0.000    0.000 
#
# Total GULP energy -111441.515305 kJ/mol
# GULP energy per Si atom -5572.075765 kJ/mol
# Density = 2.142199 g / cm^3
# Si number density = 21.470859 Si / 1000 Ang^3
#
#
#
# Elastic Constant Matrix: (Units=GPa)
#
#
# Indices 1 2 3 4 5 6 
#
# 1 106.0138 39.0253 33.5440 0.0000 -20.1398 0.0000
# 2 39.0253 114.3807 44.2701 0.0000 -2.6565 0.0000
# 3 33.5440 44.2701 82.3689 0.0000 -17.5802 0.0000
# 4 0.0000 0.0000 0.0000 7.2223 0.0000 -2.7404
# 5 -20.1398 -2.6565 -17.5802 0.0000 47.0702 0.0000
# 6 0.0000 0.0000 0.0000 -2.7404 0.0000 4.4485
#
#
#
# Elastic Compliance Matrix: (Units=1/GPa)
#
#
# Indices 1 2 3 4 5 6 
#
# 1 0.012116 -0.003117 -0.002379 0.000000 0.004119 0.000000
# 2 -0.003117 0.011972 -0.005765 0.000000 -0.002811 0.000000
# 3 -0.002379 -0.005765 0.017301 0.000000 0.005118 0.000000
# 4 0.000000 0.000000 0.000000 0.180695 0.000000 0.111314
# 5 0.004119 -0.002811 0.005118 0.000000 0.024760 0.000000
# 6 0.000000 0.000000 0.000000 0.111314 0.000000 0.293369
#
#
# Mechanical properties :
#
#
# Convention : Reuss Voigt Hill
#
# Bulk Modulus (GPa) = 53.00887 59.60470 56.30679
# Shear Modulus (GPa) = 8.78696 24.14314 16.46505
#
# Velocity S-wave (km/s) = 2.02519 3.35694 2.77222
# Velocity P-wave (km/s) = 5.49644 6.54571 6.04389
#
# Compressibility (1/GPa) = 0.01886477
#
# Stress axis : x y z
#
# Youngs Moduli (GPa) = 82.53810 83.52571 57.80174
#
# Poissons Ratio (x) = 0.26036 0.13754
# Poissons Ratio (y) = 0.25728 0.33324
# Poissons Ratio (z) = 0.19640 0.48155
#
# Static dielectric constant tensor:
#      x y z
#    x 1.801810 0.000000 -0.024510 
#    y 0.000000 1.834990 0.000000 
#    z -0.024510 0.000000 1.821470 
# 
# From -- ./inp_files/31494.got.cif
#   From: 2010.05.17/outbox.cif.g08.bks.cpg/sg15_16_cif.got.tgz:31494.got - 2010.06.03 18:47:42.
