data_PCOD9305513
_publ_section_title
;
Structure prediction by ZEFSAII (Michael W. Deem and Ramdas Pophale) SiO2 
 PCOD9305513
Probable space group: C 2/C
;
_chemical_formula_sum "Si O2"
_cell_formula_units_Z 32
_cell_length_a 12.778585
_cell_length_b 9.792410
_cell_length_c 9.375649
_cell_angle_alpha 90.000000
_cell_angle_beta 89.909402
_cell_angle_gamma 90.000000
_cell_volume 1173.202965
_symmetry_space_group_name_H-M "C 2/C"
_symmetry_group_IT_number 15
_symmetry_cell_setting 'monoclinic'
loop_
_space_group_symop_operation_xyz
x,y,z
-x,y,1/2-z
-x,-y,-z
x,-y,1/2+z
1/2+x,1/2+y,z
1/2-x,1/2+y,1/2-z
1/2-x,1/2-y,-z
1/2+x,1/2-y,1/2+z
loop_
_atom_site_type_symbol
_atom_site_label
_atom_site_fract_x
_atom_site_fract_y
_atom_site_fract_z
Si Si1 0.382253 0.704307 0.189199
Si Si2 0.430786 0.420100 0.115004
Si Si3 0.112950 0.432859 0.538636
Si Si4 0.315406 0.158594 0.151435
O O1 0.500000 0.720183 0.250000
O O2 0.359579 0.543533 0.169487
O O3 0.377275 0.789634 0.044741
O O4 0.286786 0.739137 0.292360
O O5 0.500000 0.382775 0.250000
O O6 0.381379 0.277711 0.074510
O O7 0.500000 0.500000 0.000000
O O8 0.194116 0.534674 0.459143
O O9 0.129300 0.403976 0.705883
O O10 0.000000 0.500000 0.500000
#
# Coordination Sequence:
#
# PCOD9305513 Si02
#       4
#     8   8   8   8
#     4  11  25  45  71 107 149 196 248 304 364 437
#     4  11  24  45  71 104 144 187 237 299 366 437
#     4  12  25  47  76 109 148 194 246 307 373 444
#     4  12  26  47  74 108 149 197 246 304 372 442
#
# _framework density 27.275756999999999
#
# number of rings (size 3 to 8) (size 9 to 14) (size 15 to 20)
#    0.000    0.500    0.000    9.000    0.000    6.000 
#    0.000   11.250    0.000    0.000    0.000    0.000 
#    0.000    0.000    0.000    0.000    0.000    0.000 
#
# Total GULP energy -89734.473210 kJ/mol
# GULP energy per Si atom -5608.404576 kJ/mol
# Density = 2.721368 g / cm^3
# Si number density = 27.275757 Si / 1000 Ang^3
#
#
#
# Elastic Constant Matrix: (Units=GPa)
#
#
# Indices 1 2 3 4 5 6 
#
# 1 108.3312 5.2662 40.2710 0.0000 -8.1166 0.0000
# 2 5.2662 134.8424 26.6773 0.0000 12.0435 0.0000
# 3 40.2710 26.6773 152.6201 0.0000 20.7269 0.0000
# 4 0.0000 0.0000 0.0000 60.4914 0.0000 -12.1141
# 5 -8.1166 12.0435 20.7269 0.0000 48.2418 0.0000
# 6 0.0000 0.0000 0.0000 -12.1141 0.0000 36.9587
#
#
#
# Elastic Compliance Matrix: (Units=1/GPa)
#
#
# Indices 1 2 3 4 5 6 
#
# 1 0.010679 -0.000062 -0.003242 0.000000 0.003205 0.000000
# 2 -0.000062 0.007775 -0.001145 0.000000 -0.001460 0.000000
# 3 -0.003242 -0.001145 0.008117 0.000000 -0.003747 0.000000
# 4 0.000000 0.000000 0.000000 0.017693 0.000000 0.005799
# 5 0.003205 -0.001460 -0.003747 0.000000 0.023243 0.000000
# 6 0.000000 0.000000 0.000000 0.005799 0.000000 0.028958
#
#
# Mechanical properties :
#
#
# Convention : Reuss Voigt Hill
#
# Bulk Modulus (GPa) = 56.58083 60.02476 58.30279
# Shear Modulus (GPa) = 44.94236 50.71033 47.82635
#
# Velocity S-wave (km/s) = 4.06360 4.31649 4.19195
# Velocity P-wave (km/s) = 6.54264 6.84815 6.69714
#
# Compressibility (1/GPa) = 0.01767383
#
# Stress axis : x y z
#
# Youngs Moduli (GPa) = 93.63774 128.61257 123.20254
#
# Poissons Ratio (x) = 0.00796 0.39947
# Poissons Ratio (y) = 0.00579 0.14101
# Poissons Ratio (z) = 0.30361 0.14720
#
# Static dielectric constant tensor:
#      x y z
#    x 2.274820 0.000000 -0.089130 
#    y 0.000000 2.118050 0.000000 
#    z -0.089130 0.000000 2.134730 
# 
# From -- ./inp_files/36574.got.cif
#   From: 2010.05.17/outbox.cif.g08.bks.cpg/sg15_19_cif.got.tgz:36574.got - 2010.06.03 18:47:42.
