data_PCOD9305827
_publ_section_title
;
Structure prediction by ZEFSAII (Michael W. Deem and Ramdas Pophale) SiO2 
 PCOD9305827
Probable space group: C 2/C
;
_chemical_formula_sum "Si O2"
_cell_formula_units_Z 48
_cell_length_a 13.233623
_cell_length_b 5.219898
_cell_length_c 29.066364
_cell_angle_alpha 90.000000
_cell_angle_beta 86.638680
_cell_angle_gamma 90.000000
_cell_volume 2004.396777
_symmetry_space_group_name_H-M "C 2/C"
_symmetry_group_IT_number 15
_symmetry_cell_setting 'monoclinic'
loop_
_space_group_symop_operation_xyz
x,y,z
-x,y,1/2-z
-x,-y,-z
x,-y,1/2+z
1/2+x,1/2+y,z
1/2-x,1/2+y,1/2-z
1/2-x,1/2-y,-z
1/2+x,1/2-y,1/2+z
loop_
_atom_site_type_symbol
_atom_site_label
_atom_site_fract_x
_atom_site_fract_y
_atom_site_fract_z
Si Si1 0.969145 0.330983 0.666725
Si Si2 0.972686 0.922022 0.913750
Si Si3 0.330893 0.812632 0.107733
Si Si4 0.284225 0.499893 0.971975
Si Si5 0.661886 0.916787 0.147405
Si Si6 0.778421 0.314889 0.722639
O O1 0.898244 0.547635 0.644538
O O2 0.893211 0.230960 0.707400
O O3 0.075359 0.445136 0.680129
O O4 0.001780 0.126219 0.627093
O O5 0.082678 0.825158 0.924973
O O6 0.902499 0.022087 0.956209
O O7 0.903676 0.698285 0.892628
O O8 0.272726 0.002956 0.075793
O O9 0.249040 0.611834 0.129103
O O10 0.250000 0.750000 0.000000
O O11 0.250000 0.250000 0.000000
O O12 0.714234 0.703727 0.177145
O O13 0.767806 0.596797 0.743331
#
# Coordination Sequence:
#
# PCOD9305827 Si02
#       6
#     8   8   8   8   8   8
#     4  11  25  46  77 103 134 200 251 283 354 445
#     4  11  25  45  79 100 137 197 254 281 358 443
#     4  11  24  47  76 102 142 193 246 296 350 444
#     4  12  28  46  70 111 151 185 234 310 374 421
#     4  11  24  48  75 104 141 196 246 296 351 444
#     4  12  28  48  70 110 153 181 231 309 367 415
#
# _framework density 23.947353
#
# number of rings (size 3 to 8) (size 9 to 14) (size 15 to 20)
#    0.000    0.667    3.333    3.000    9.333    2.000 
#    0.000    0.000    0.000    0.000    0.000    0.000 
#    0.000    0.000    0.000    0.000    0.000    0.000 
#
# Total GULP energy -134365.786003 kJ/mol
# GULP energy per Si atom -5598.574417 kJ/mol
# Density = 2.389285 g / cm^3
# Si number density = 23.947353 Si / 1000 Ang^3
#
#
#
# Elastic Constant Matrix: (Units=GPa)
#
#
# Indices 1 2 3 4 5 6 
#
# 1 166.8918 27.0767 36.4129 0.0000 -42.5225 0.0000
# 2 27.0767 92.7985 22.7079 0.0000 -15.3970 0.0000
# 3 36.4129 22.7079 85.2677 0.0000 -29.6247 0.0000
# 4 0.0000 0.0000 0.0000 50.1756 0.0000 -2.4332
# 5 -42.5225 -15.3970 -29.6247 0.0000 56.6459 0.0000
# 6 0.0000 0.0000 0.0000 -2.4332 0.0000 56.8282
#
#
#
# Elastic Compliance Matrix: (Units=1/GPa)
#
#
# Indices 1 2 3 4 5 6 
#
# 1 0.007677 -0.001126 -0.001323 0.000000 0.004765 0.000000
# 2 -0.001126 0.011856 -0.002262 0.000000 0.001195 0.000000
# 3 -0.001323 -0.002262 0.015076 0.000000 0.006276 0.000000
# 4 0.000000 0.000000 0.000000 0.019971 0.000000 0.000855
# 5 0.004765 0.001195 0.006276 0.000000 0.024838 0.000000
# 6 0.000000 0.000000 0.000000 0.000855 0.000000 0.017634
#
#
# Mechanical properties :
#
#
# Convention : Reuss Voigt Hill
#
# Bulk Modulus (GPa) = 39.70104 57.48366 48.59235
# Shear Modulus (GPa) = 43.52785 49.98065 46.75425
#
# Velocity S-wave (km/s) = 4.26801 4.57344 4.42336
# Velocity P-wave (km/s) = 6.39550 7.20727 6.81348
#
# Compressibility (1/GPa) = 0.02518826
#
# Stress axis : x y z
#
# Youngs Moduli (GPa) = 130.25297 84.34440 66.33191
#
# Poissons Ratio (x) = 0.09494 0.08777
# Poissons Ratio (y) = 0.14662 0.15002
# Poissons Ratio (z) = 0.17235 0.19075
#
# Static dielectric constant tensor:
#      x y z
#    x 1.922500 0.000000 -0.028080 
#    y 0.000000 1.968070 0.000000 
#    z -0.028080 0.000000 1.994240 
# 
# From -- ./inp_files/312054.got.cif
#   From: 2010.05.17/outbox.cif.g08.bks.cpg/sg15_157_cif.got.tgz:312054.got - 2010.06.03 18:47:42.
