data_PCOD9305278
_publ_section_title
;
Structure prediction by ZEFSAII (Michael W. Deem and Ramdas Pophale) SiO2 
 PCOD9305278
Probable space group: C 2/C
;
_chemical_formula_sum "Si O2"
_cell_formula_units_Z 40
_cell_length_a 17.520537
_cell_length_b 14.159510
_cell_length_c 17.533351
_cell_angle_alpha 90.000000
_cell_angle_beta 24.230488
_cell_angle_gamma 90.000000
_cell_volume 1785.158290
_symmetry_space_group_name_H-M "C 2/C"
_symmetry_group_IT_number 15
_symmetry_cell_setting 'monoclinic'
loop_
_space_group_symop_operation_xyz
x,y,z
-x,y,1/2-z
-x,-y,-z
x,-y,1/2+z
1/2+x,1/2+y,z
1/2-x,1/2+y,1/2-z
1/2-x,1/2-y,-z
1/2+x,1/2-y,1/2+z
loop_
_atom_site_type_symbol
_atom_site_label
_atom_site_fract_x
_atom_site_fract_y
_atom_site_fract_z
Si Si1 0.851016 0.027938 0.317450
Si Si2 0.171496 0.677395 0.135352
Si Si3 0.598390 0.351273 0.482403
Si Si4 0.940707 0.151500 0.662509
Si Si5 0.508805 0.837289 0.155684
O O1 0.811768 0.922032 0.325039
O O2 0.000000 0.028312 0.250000
O O3 0.668338 0.084607 0.507009
O O4 0.059265 0.252757 0.052280
O O5 0.098135 0.743848 0.270551
O O6 0.000000 0.626099 0.250000
O O7 0.250000 0.750000 0.000000
O O8 0.349473 0.622799 0.004060
O O9 0.583006 0.352205 0.405686
O O10 0.448524 0.419191 0.657751
O O11 0.807399 0.376485 0.316892
O O12 0.500000 0.797761 0.250000
#
# Coordination Sequence:
#
# PCOD9305278 Si02
#       5
#     8   8   8   8   8
#     4  12  25  45  70 100 142 179 233 289 337 417
#     4   9  19  41  67  92 131 184 232 269 341 418
#     4  12  24  43  69 102 141 177 231 285 350 406
#     4  11  24  44  66 103 139 177 228 294 345 400
#     4  12  24  44  72 103 136 190 231 275 349 418
#
# _framework density 22.406976
#
# number of rings (size 3 to 8) (size 9 to 14) (size 15 to 20)
#    0.000    0.800    4.000    4.800    0.000    0.800 
#   10.800    0.000    0.000    0.000    0.000    0.000 
#    0.000    0.000    0.000    0.000    0.000    0.000 
#
# Total GULP energy -111991.681929 kJ/mol
# GULP energy per Si atom -5599.584096 kJ/mol
# Density = 2.235598 g / cm^3
# Si number density = 22.406976 Si / 1000 Ang^3
#
#
#
# Elastic Constant Matrix: (Units=GPa)
#
#
# Indices 1 2 3 4 5 6 
#
# 1 128.9970 -0.2869 31.1989 0.0032 11.6795 0.0014
# 2 -0.2869 67.2931 10.5188 0.0004 3.3780 -0.0102
# 3 31.1989 10.5188 88.1131 0.0022 -6.3722 -0.0101
# 4 0.0032 0.0004 0.0022 31.4807 0.0004 12.1207
# 5 11.6795 3.3780 -6.3722 0.0004 38.7856 0.0066
# 6 0.0014 -0.0102 -0.0101 12.1207 0.0066 -13.2796
#
#
#
# Elastic Compliance Matrix: (Units=1/GPa)
#
#
# Indices 1 2 3 4 5 6 
#
# 1 0.008895 0.000748 -0.003479 -0.000001 -0.003315 0.000001
# 2 0.000748 0.015309 -0.002232 0.000003 -0.001925 -0.000008
# 3 -0.003479 -0.002232 0.013093 0.000002 0.003393 -0.000006
# 4 -0.000001 0.000003 0.000002 0.023505 -0.000004 0.021454
# 5 -0.003315 -0.001925 0.003393 -0.000004 0.027506 0.000009
# 6 0.000001 -0.000008 -0.000006 0.021454 0.000009 -0.055722
#
#
# Mechanical properties :
#
#
# Convention : Reuss Voigt Hill
#
# Bulk Modulus (GPa) = 36.53320 40.80719 38.67019
# Shear Modulus (GPa) = 96.83288 27.59550 62.21419
#
# Velocity S-wave (km/s) = 6.58098 3.51316 5.27502
# Velocity P-wave (km/s) = 8.60730 5.89133 7.37541
#
# Compressibility (1/GPa) = 0.02737236
#
# Stress axis : x y z
#
# Youngs Moduli (GPa) = 112.41888 65.32091 76.37923
#
# Poissons Ratio (x) = -0.04887 0.26570
# Poissons Ratio (y) = -0.08410 0.17045
# Poissons Ratio (z) = 0.39107 0.14578
#
# Static dielectric constant tensor:
#      x y z
#    x 1.778060 0.000000 -0.031400 
#    y 0.000000 1.838860 0.000000 
#    z -0.031400 0.000000 1.841330 
# 
# From -- ./inp_files/155352.got.cif
#   From: 2010.05.17/outbox.cif.g08.bks.cpg/sg15_78_cif.got.tgz:155352.got - 2010.06.03 18:47:42.
