data_PCOD9305956
_publ_section_title
;
Structure prediction by ZEFSAII (Michael W. Deem and Ramdas Pophale) SiO2 
 PCOD9305956
Probable space group: C 2/C
;
_chemical_formula_sum "Si O2"
_cell_formula_units_Z 40
_cell_length_a 7.980740
_cell_length_b 25.242070
_cell_length_c 8.852822
_cell_angle_alpha 90.000000
_cell_angle_beta 95.061475
_cell_angle_gamma 90.000000
_cell_volume 1776.450326
_symmetry_space_group_name_H-M "C 2/C"
_symmetry_group_IT_number 15
_symmetry_cell_setting 'monoclinic'
loop_
_space_group_symop_operation_xyz
x,y,z
-x,y,1/2-z
-x,-y,-z
x,-y,1/2+z
1/2+x,1/2+y,z
1/2-x,1/2+y,1/2-z
1/2-x,1/2-y,-z
1/2+x,1/2-y,1/2+z
loop_
_atom_site_type_symbol
_atom_site_label
_atom_site_fract_x
_atom_site_fract_y
_atom_site_fract_z
Si Si1 0.457392 0.653488 0.910152
Si Si2 0.725328 0.195557 0.407963
Si Si3 0.358095 0.846047 0.916808
Si Si4 0.686031 0.040049 0.250665
Si Si5 0.879278 0.041677 0.564598
O O1 0.500000 0.678791 0.750000
O O2 0.506364 0.592197 0.897252
O O3 0.592859 0.670337 0.045833
O O4 0.268385 0.661825 0.953431
O O5 0.750000 0.250000 0.500000
O O6 0.694180 0.192986 0.225519
O O7 0.556283 0.165970 0.458957
O O8 0.324887 0.906084 0.850993
O O9 0.500000 0.018387 0.250000
O O10 0.747533 0.055651 0.422018
O O11 0.793100 0.992105 0.189838
O O12 0.000000 0.000000 0.500000
#
# Coordination Sequence:
#
# PCOD9305956 Si02
#       5
#     8   8   8   8   8
#     4  12  26  46  70 107 151 194 246 308 367 443
#     4  11  26  49  77 107 137 185 255 314 383 449
#     4  11  24  49  78 104 146 198 244 309 385 440
#     4  12  23  43  69 104 149 197 245 301 363 442
#     4  12  24  40  69 105 145 197 242 294 364 438
#
# _framework density 22.516814
#
# number of rings (size 3 to 8) (size 9 to 14) (size 15 to 20)
#    0.000    0.400    6.000    3.000    2.800    1.600 
#    3.600    0.000    0.000    0.000    0.000    0.000 
#    0.000    0.000    0.000    0.000    0.000    0.000 
#
# Total GULP energy -111620.618587 kJ/mol
# GULP energy per Si atom -5581.030929 kJ/mol
# Density = 2.246556 g / cm^3
# Si number density = 22.516814 Si / 1000 Ang^3
#
#
#
# Elastic Constant Matrix: (Units=GPa)
#
#
# Indices 1 2 3 4 5 6 
#
# 1 119.0429 3.3095 39.3603 0.0000 -19.0741 0.0000
# 2 3.3095 89.8907 -0.9413 0.0000 -14.8459 0.0000
# 3 39.3603 -0.9413 83.1096 0.0000 -32.6341 0.0000
# 4 0.0000 0.0000 0.0000 25.8107 0.0000 4.6693
# 5 -19.0741 -14.8459 -32.6341 0.0000 32.8764 0.0000
# 6 0.0000 0.0000 0.0000 4.6693 0.0000 23.9984
#
#
#
# Elastic Compliance Matrix: (Units=1/GPa)
#
#
# Indices 1 2 3 4 5 6 
#
# 1 0.010026 -0.000129 -0.004078 0.000000 0.001710 0.000000
# 2 -0.000129 0.012766 0.003999 0.000000 0.009659 0.000000
# 3 -0.004078 0.003999 0.022596 0.000000 0.021869 0.000000
# 4 0.000000 0.000000 0.000000 0.040157 0.000000 -0.007813
# 5 0.001710 0.009659 0.021869 0.000000 0.057479 0.000000
# 6 0.000000 0.000000 0.000000 -0.007813 0.000000 0.043190
#
#
# Mechanical properties :
#
#
# Convention : Reuss Voigt Hill
#
# Bulk Modulus (GPa) = 22.23648 41.72224 31.97936
# Shear Modulus (GPa) = 24.79866 33.22476 29.01171
#
# Velocity S-wave (km/s) = 3.32224 3.84546 3.59339
# Velocity P-wave (km/s) = 4.96118 6.18760 5.60802
#
# Compressibility (1/GPa) = 0.04497114
#
# Stress axis : x y z
#
# Youngs Moduli (GPa) = 99.73636 78.33010 44.25491
#
# Poissons Ratio (x) = 0.01013 0.18049
# Poissons Ratio (y) = 0.01290 -0.17696
# Poissons Ratio (z) = 0.40676 -0.31321
#
# Static dielectric constant tensor:
#      x y z
#    x 1.805120 0.000000 0.071890 
#    y 0.000000 -4.736460 0.000000 
#    z 0.071890 0.000000 1.951410 
# 
# From -- ./inp_files/23498.got.cif
#   From: 2010.05.17/outbox.cif.g08.bks.cpg/sg15_12_cif.got.tgz:23498.got - 2010.06.03 18:47:42.
