data_PCOD9305533
_publ_section_title
;
Structure prediction by ZEFSAII (Michael W. Deem and Ramdas Pophale) SiO2 
 PCOD9305533
Probable space group: C 2/C
;
_chemical_formula_sum "Si O2"
_cell_formula_units_Z 48
_cell_length_a 15.790473
_cell_length_b 7.536563
_cell_length_c 29.784680
_cell_angle_alpha 90.000000
_cell_angle_beta 145.653877
_cell_angle_gamma 90.000000
_cell_volume 1999.804166
_symmetry_space_group_name_H-M "C 2/C"
_symmetry_group_IT_number 15
_symmetry_cell_setting 'monoclinic'
loop_
_space_group_symop_operation_xyz
x,y,z
-x,y,1/2-z
-x,-y,-z
x,-y,1/2+z
1/2+x,1/2+y,z
1/2-x,1/2+y,1/2-z
1/2-x,1/2-y,-z
1/2+x,1/2-y,1/2+z
loop_
_atom_site_type_symbol
_atom_site_label
_atom_site_fract_x
_atom_site_fract_y
_atom_site_fract_z
Si Si1 0.601082 0.029930 0.000773
Si Si2 0.929630 0.121681 0.430082
Si Si3 0.357812 0.513400 0.298974
Si Si4 0.525273 0.127599 0.140883
Si Si5 0.415445 0.357259 0.669612
Si Si6 0.863288 0.546653 0.158133
O O1 0.544991 0.228769 0.964115
O O2 0.552549 0.892531 0.941315
O O3 0.775696 0.036540 0.088423
O O4 0.500000 0.000000 0.000000
O O5 0.874354 0.035126 0.359626
O O6 0.774414 0.168136 0.387066
O O7 0.000000 0.000000 0.500000
O O8 0.426386 0.320667 0.321041
O O9 0.183995 0.524028 0.209160
O O10 0.457054 0.650641 0.313210
O O11 0.408179 0.061328 0.126269
O O12 0.500000 0.435763 0.750000
O O13 0.346989 0.167925 0.656398
O O14 0.000000 0.595673 0.250000
#
# Coordination Sequence:
#
# PCOD9305533 Si02
#       6
#     8   8   8   8   8   8
#     4  12  27  46  73 108 147 189 241 300 359 430
#     4  12  25  45  73 103 147 187 238 296 366 427
#     4  12  27  47  72 106 144 195 241 301 360 429
#     4  12  27  46  73 104 148 188 248 296 361 430
#     4  11  26  47  75 104 144 187 240 300 367 433
#     4  11  24  45  73 105 143 190 236 294 365 432
#
# _framework density 24.002348999999999
#
# number of rings (size 3 to 8) (size 9 to 14) (size 15 to 20)
#    0.000    0.333    3.333    5.000    7.000    2.667 
#    0.000    0.000    0.000    0.000    0.000    0.000 
#    0.000    0.000    0.000    0.000    0.000    0.000 
#
# Total GULP energy -134269.804774 kJ/mol
# GULP energy per Si atom -5594.575199 kJ/mol
# Density = 2.394772 g / cm^3
# Si number density = 24.002349 Si / 1000 Ang^3
#
#
#
# Elastic Constant Matrix: (Units=GPa)
#
#
# Indices 1 2 3 4 5 6 
#
# 1 114.7252 -20.7076 39.1228 0.0000 -1.5852 0.0000
# 2 -20.7076 51.0867 0.0136 0.0000 10.2950 0.0000
# 3 39.1228 0.0136 139.8250 0.0000 7.9266 0.0000
# 4 0.0000 0.0000 0.0000 20.3209 0.0000 -3.2315
# 5 -1.5852 10.2950 7.9266 0.0000 47.1943 0.0000
# 6 0.0000 0.0000 0.0000 -3.2315 0.0000 18.7564
#
#
#
# Elastic Compliance Matrix: (Units=1/GPa)
#
#
# Indices 1 2 3 4 5 6 
#
# 1 0.010484 0.004268 -0.002929 0.000000 -0.000087 0.000000
# 2 0.004268 0.022221 -0.000939 0.000000 -0.004546 0.000000
# 3 -0.002929 -0.000939 0.008042 0.000000 -0.001244 0.000000
# 4 0.000000 0.000000 0.000000 0.050597 0.000000 0.008717
# 5 -0.000087 -0.004546 -0.001244 0.000000 0.022387 0.000000
# 6 0.000000 0.000000 0.000000 0.008717 0.000000 0.054817
#
#
# Mechanical properties :
#
#
# Convention : Reuss Voigt Hill
#
# Bulk Modulus (GPa) = 24.06833 38.05496 31.06164
# Shear Modulus (GPa) = 27.53354 36.40151 31.96752
#
# Velocity S-wave (km/s) = 3.39059 3.89856 3.65341
# Velocity P-wave (km/s) = 5.03760 6.01283 5.54669
#
# Compressibility (1/GPa) = 0.04154838
#
# Stress axis : x y z
#
# Youngs Moduli (GPa) = 95.37891 45.00236 124.34767
#
# Poissons Ratio (x) = -0.19207 0.36422
# Poissons Ratio (y) = -0.40709 0.11672
# Poissons Ratio (z) = 0.27937 0.04224
#
# Static dielectric constant tensor:
#      x y z
#    x 1.893630 0.000000 0.002030 
#    y 0.000000 2.063900 0.000000 
#    z 0.002030 0.000000 1.824610 
# 
# From -- ./inp_files/295447.got.cif
#   From: 2010.05.17/outbox.cif.g08.bks.cpg/sg15_148_cif.got.tgz:295447.got - 2010.06.03 18:47:42.
