data_PCOD9305716
_publ_section_title
;
Structure prediction by ZEFSAII (Michael W. Deem and Ramdas Pophale) SiO2 
 PCOD9305716
Probable space group: C 2/C
;
_chemical_formula_sum "Si O2"
_cell_formula_units_Z 60
_cell_length_a 12.860112
_cell_length_b 17.956974
_cell_length_c 26.331688
_cell_angle_alpha 90.000000
_cell_angle_beta 23.921165
_cell_angle_gamma 90.000000
_cell_volume 2465.615070
_symmetry_space_group_name_H-M "C 2/C"
_symmetry_group_IT_number 15
_symmetry_cell_setting 'monoclinic'
loop_
_space_group_symop_operation_xyz
x,y,z
-x,y,1/2-z
-x,-y,-z
x,-y,1/2+z
1/2+x,1/2+y,z
1/2-x,1/2+y,1/2-z
1/2-x,1/2-y,-z
1/2+x,1/2-y,1/2+z
loop_
_atom_site_type_symbol
_atom_site_label
_atom_site_fract_x
_atom_site_fract_y
_atom_site_fract_z
Si Si1 0.475883 0.155432 0.860272
Si Si2 0.500000 0.430965 0.250000
Si Si3 0.165717 0.971104 0.282906
Si Si4 0.407496 0.676395 0.372380
Si Si5 0.236694 0.684098 0.114911
Si Si6 0.540892 0.554802 0.027706
Si Si7 0.466352 0.159745 0.500719
Si Si8 0.532853 0.890855 0.860130
O O1 0.746204 0.114355 0.748016
O O2 0.480379 0.236782 0.834200
O O3 0.304251 0.166356 0.988108
O O4 0.308189 0.097551 0.903222
O O5 0.532215 0.476285 0.287771
O O6 0.244600 0.381395 0.370754
O O7 0.007893 0.007327 0.399523
O O8 0.423379 0.021285 0.165175
O O9 0.673845 0.639150 0.268993
O O10 0.252213 0.645613 0.393568
O O11 0.339162 0.621604 0.107827
O O12 0.429633 0.751169 0.018581
O O13 0.000000 0.720782 0.250000
O O14 0.135191 0.645394 0.109130
O O15 0.500000 0.500000 0.000000
O O16 0.422124 0.130268 0.464040
#
# Coordination Sequence:
#
# PCOD9305716 Si02
#       8
#     8   4   8   8   8   8   8   8
#     4  11  24  46  76 104 144 196 252 301 367 445
#     4  12  30  46  76 106 152 194 248 306 376 454
#     4  12  28  48  72 112 148 198 249 310 377 452
#     4  11  24  49  74 108 144 201 246 307 369 444
#     4  12  24  49  74 106 142 194 243 308 370 435
#     4  12  27  47  75 106 150 194 247 308 374 444
#     4  12  27  48  76 110 144 194 249 309 373 442
#     4  12  28  45  78 108 153 187 252 314 374 447
#
# _framework density 24.334697999999999
#
# number of rings (size 3 to 8) (size 9 to 14) (size 15 to 20)
#    0.000    0.267    6.000    1.600    9.333    1.600 
#    2.400    0.000    0.000    0.000    0.000    0.000 
#    0.000    0.000    0.000    0.000    0.000    0.000 
#
# Total GULP energy -167996.191427 kJ/mol
# GULP energy per Si atom -5599.873048 kJ/mol
# Density = 2.427931 g / cm^3
# Si number density = 24.334698 Si / 1000 Ang^3
#
#
#
# Elastic Constant Matrix: (Units=GPa)
#
#
# Indices 1 2 3 4 5 6 
#
# 1 138.9740 25.6629 21.8435 -0.0509 -3.3471 -0.0850
# 2 25.6629 111.1131 17.8734 0.0817 -4.8959 -0.0064
# 3 21.8435 17.8734 78.0998 0.0726 -7.0005 -0.1499
# 4 -0.0509 0.0817 0.0726 25.1859 0.0600 -11.8207
# 5 -3.3471 -4.8959 -7.0005 0.0600 38.1788 0.0753
# 6 -0.0850 -0.0064 -0.1499 -11.8207 0.0753 23.4687
#
#
#
# Elastic Compliance Matrix: (Units=1/GPa)
#
#
# Indices 1 2 3 4 5 6 
#
# 1 0.007760 -0.001494 -0.001815 0.000043 0.000156 0.000037
# 2 -0.001494 0.009657 -0.001721 -0.000051 0.000792 -0.000042
# 3 -0.001815 -0.001721 0.013900 -0.000011 0.002169 0.000069
# 4 0.000043 -0.000051 -0.000011 0.051997 -0.000138 0.026190
# 5 0.000156 0.000792 0.002169 -0.000138 0.026706 -0.000141
# 6 0.000037 -0.000042 0.000069 0.026190 -0.000141 0.055802
#
#
# Mechanical properties :
#
#
# Convention : Reuss Voigt Hill
#
# Bulk Modulus (GPa) = 47.04090 50.99406 49.01748
# Shear Modulus (GPa) = 27.32719 34.88716 31.10718
#
# Velocity S-wave (km/s) = 3.35471 3.79045 3.57922
# Velocity P-wave (km/s) = 5.86329 6.33699 6.10474
#
# Compressibility (1/GPa) = 0.02125810
#
# Stress axis : x y z
#
# Youngs Moduli (GPa) = 128.85907 103.55594 71.94179
#
# Poissons Ratio (x) = 0.15467 0.13055
# Poissons Ratio (y) = 0.19247 0.12383
# Poissons Ratio (z) = 0.23384 0.17825
#
# Static dielectric constant tensor:
#      x y z
#    x 1.945620 0.000110 -0.028920 
#    y 0.000110 1.930760 -0.000050 
#    z -0.028920 -0.000050 2.004920 
# 
# From -- ./inp_files/293517.got.cif
#   From: 2010.05.17/outbox.cif.g08.bks.cpg/sg15_147_cif.got.tgz:293517.got - 2010.06.03 18:47:42.
