data_PCOD9305728
_publ_section_title
;
Structure prediction by ZEFSAII (Michael W. Deem and Ramdas Pophale) SiO2 
 PCOD9305728
Probable space group: C 2/C
;
_chemical_formula_sum "Si O2"
_cell_formula_units_Z 36
_cell_length_a 14.297284
_cell_length_b 22.629441
_cell_length_c 7.182807
_cell_angle_alpha 90.000000
_cell_angle_beta 141.820795
_cell_angle_gamma 90.000000
_cell_volume 1436.470018
_symmetry_space_group_name_H-M "C 2/C"
_symmetry_group_IT_number 15
_symmetry_cell_setting 'monoclinic'
loop_
_space_group_symop_operation_xyz
x,y,z
-x,y,1/2-z
-x,-y,-z
x,-y,1/2+z
1/2+x,1/2+y,z
1/2-x,1/2+y,1/2-z
1/2-x,1/2-y,-z
1/2+x,1/2-y,1/2+z
loop_
_atom_site_type_symbol
_atom_site_label
_atom_site_fract_x
_atom_site_fract_y
_atom_site_fract_z
Si Si1 0.500000 0.665768 0.250000
Si Si2 0.580556 0.761510 0.679669
Si Si3 0.716569 0.079327 0.893070
Si Si4 0.379393 0.538495 0.689532
Si Si5 0.880905 0.394122 0.836871
O O1 0.517623 0.709275 0.453475
O O2 0.650375 0.625702 0.453151
O O3 0.500000 0.767593 0.750000
O O4 0.585554 0.824834 0.589576
O O5 0.750000 0.750000 0.000000
O O6 0.546831 0.081789 0.548375
O O7 0.683903 0.085136 0.064322
O O8 0.784437 0.015413 0.953636
O O9 0.500000 0.572393 0.750000
O O10 0.246682 0.586421 0.513223
O O11 0.500000 0.500000 0.000000
#
# Coordination Sequence:
#
# PCOD9305728 Si02
#       5
#     4   8   8   8   8
#     4  12  26  50  82 116 158 208 266 320 392 466
#     4  12  28  48  77 114 154 206 258 320 387 464
#     4  11  24  46  77 110 153 203 254 324 380 459
#     4  12  25  45  73 107 150 200 252 311 382 461
#     4  11  26  46  72 111 155 199 258 314 385 460
#
# _framework density 25.061433999999998
#
# number of rings (size 3 to 8) (size 9 to 14) (size 15 to 20)
#    0.000    0.444    3.333    4.667    3.111    5.333 
#    4.000    0.000    0.000    0.000    0.000    0.000 
#    0.000    0.000    0.000    0.000    0.000    0.000 
#
# Total GULP energy -100599.736053 kJ/mol
# GULP energy per Si atom -5588.874225 kJ/mol
# Density = 2.500439 g / cm^3
# Si number density = 25.061434 Si / 1000 Ang^3
#
#
#
# Elastic Constant Matrix: (Units=GPa)
#
#
# Indices 1 2 3 4 5 6 
#
# 1 147.7810 54.0150 60.6547 0.0000 33.6597 0.0000
# 2 54.0150 142.2132 55.6839 0.0000 13.2029 0.0000
# 3 60.6547 55.6839 188.4925 0.0000 39.7186 0.0000
# 4 0.0000 0.0000 0.0000 75.9354 0.0000 -6.5097
# 5 33.6597 13.2029 39.7186 0.0000 57.3328 0.0000
# 6 0.0000 0.0000 0.0000 -6.5097 0.0000 36.9545
#
#
#
# Elastic Compliance Matrix: (Units=1/GPa)
#
#
# Indices 1 2 3 4 5 6 
#
# 1 0.009145 -0.002580 -0.001375 0.000000 -0.003822 0.000000
# 2 -0.002580 0.008682 -0.001912 0.000000 0.000840 0.000000
# 3 -0.001375 -0.001912 0.007084 0.000000 -0.003660 0.000000
# 4 0.000000 0.000000 0.000000 0.013371 0.000000 0.002355
# 5 -0.003822 0.000840 -0.003660 0.000000 0.022028 0.000000
# 6 0.000000 0.000000 0.000000 0.002355 0.000000 0.027475
#
#
# Mechanical properties :
#
#
# Convention : Reuss Voigt Hill
#
# Bulk Modulus (GPa) = 75.88931 91.02157 83.45544
# Shear Modulus (GPa) = 48.11831 54.58674 51.35252
#
# Velocity S-wave (km/s) = 4.38655 4.67209 4.53157
# Velocity P-wave (km/s) = 7.48350 8.09338 7.79441
#
# Compressibility (1/GPa) = 0.01317709
#
# Stress axis : x y z
#
# Youngs Moduli (GPa) = 109.35262 115.17857 141.17036
#
# Poissons Ratio (x) = 0.29717 0.19412
# Poissons Ratio (y) = 0.28214 0.26985
# Poissons Ratio (z) = 0.15037 0.22017
#
# Static dielectric constant tensor:
#      x y z
#    x 2.093830 0.000000 -0.147050 
#    y 0.000000 1.924740 0.000000 
#    z -0.147050 0.000000 2.003300 
# 
# From -- ./inp_files/50774.got.cif
#   From: 2010.05.17/outbox.cif.g08.bks.cpg/sg15_26_cif.got.tgz:50774.got - 2010.06.03 18:47:42.
