data_PCOD9305616
_publ_section_title
;
Structure prediction by ZEFSAII (Michael W. Deem and Ramdas Pophale) SiO2 
 PCOD9305616
Probable space group: C 2/C
;
_chemical_formula_sum "Si O2"
_cell_formula_units_Z 52
_cell_length_a 14.686412
_cell_length_b 13.877692
_cell_length_c 13.984499
_cell_angle_alpha 90.000000
_cell_angle_beta 115.517580
_cell_angle_gamma 90.000000
_cell_volume 2572.198785
_symmetry_space_group_name_H-M "C 2/C"
_symmetry_group_IT_number 15
_symmetry_cell_setting 'monoclinic'
loop_
_space_group_symop_operation_xyz
x,y,z
-x,y,1/2-z
-x,-y,-z
x,-y,1/2+z
1/2+x,1/2+y,z
1/2-x,1/2+y,1/2-z
1/2-x,1/2-y,-z
1/2+x,1/2-y,1/2+z
loop_
_atom_site_type_symbol
_atom_site_label
_atom_site_fract_x
_atom_site_fract_y
_atom_site_fract_z
Si Si1 0.500000 0.104714 0.250000
Si Si2 0.594026 0.992754 0.970900
Si Si3 0.858130 0.749217 0.304090
Si Si4 0.745253 0.158630 0.067092
Si Si5 0.292701 0.198706 0.924253
Si Si6 0.463650 0.353763 0.001077
Si Si7 0.559480 0.526396 0.374570
O O1 0.440885 0.039271 0.149075
O O2 0.426365 0.172641 0.277957
O O3 0.667185 0.907861 0.039291
O O4 0.500000 0.000000 0.000000
O O5 0.651514 0.092757 0.994693
O O6 0.780158 0.695864 0.338663
O O7 0.792362 0.803831 0.195398
O O8 0.934604 0.812926 0.402522
O O9 0.843961 0.092274 0.104500
O O10 0.750000 0.250000 0.000000
O O11 0.250000 0.250000 0.000000
O O12 0.388636 0.266585 0.942868
O O13 0.415854 0.428252 0.056479
O O14 0.491541 0.412570 0.918555
O O15 0.500000 0.504856 0.250000
#
# Coordination Sequence:
#
# PCOD9305616 Si02
#       7
#     4   8   8   8   8   8   8
#     4  12  24  46  76 102 140 184 232 298 358 416
#     4  12  26  46  73 106 141 181 237 297 353 426
#     4  12  24  46  75 101 142 187 233 291 353 421
#     4  12  26  49  69 101 144 185 233 289 351 425
#     4  12  24  42  74 105 137 185 241 289 355 417
#     4  11  24  46  69 106 141 184 236 293 347 424
#     4  11  26  44  71 101 145 185 232 288 357 419
#
# _framework density 20.216166999999999
#
# number of rings (size 3 to 8) (size 9 to 14) (size 15 to 20)
#    0.000    0.308    6.154    1.846    5.385    1.231 
#    1.385    0.000    0.000    0.000    0.000    0.000 
#    0.000    0.000    0.000    0.000    0.000    0.000 
#
# Total GULP energy -145527.945384 kJ/mol
# GULP energy per Si atom -5597.228669 kJ/mol
# Density = 2.017015 g / cm^3
# Si number density = 20.216167 Si / 1000 Ang^3
#
#
#
# Elastic Constant Matrix: (Units=GPa)
#
#
# Indices 1 2 3 4 5 6 
#
# 1 86.1926 26.6932 6.0020 0.0000 -18.4556 0.0000
# 2 26.6932 94.7118 9.1083 0.0000 -6.4645 0.0000
# 3 6.0020 9.1083 83.0858 0.0000 -9.9609 0.0000
# 4 0.0000 0.0000 0.0000 20.8852 0.0000 2.1102
# 5 -18.4556 -6.4645 -9.9609 0.0000 38.8589 0.0000
# 6 0.0000 0.0000 0.0000 2.1102 0.0000 53.7611
#
#
#
# Elastic Compliance Matrix: (Units=1/GPa)
#
#
# Indices 1 2 3 4 5 6 
#
# 1 0.013993 -0.003539 0.000107 0.000000 0.006085 0.000000
# 2 -0.003539 0.011654 -0.001022 0.000000 -0.000004 0.000000
# 3 0.000107 -0.001022 0.012510 0.000000 0.003087 0.000000
# 4 0.000000 0.000000 0.000000 0.048071 0.000000 -0.001887
# 5 0.006085 -0.000004 0.003087 0.000000 0.029415 0.000000
# 6 0.000000 0.000000 0.000000 -0.001887 0.000000 0.018675
#
#
# Mechanical properties :
#
#
# Convention : Reuss Voigt Hill
#
# Bulk Modulus (GPa) = 34.19032 38.62192 36.40612
# Shear Modulus (GPa) = 32.68470 37.51348 35.09909
#
# Velocity S-wave (km/s) = 4.02526 4.31236 4.17128
# Velocity P-wave (km/s) = 6.20908 6.62882 6.42238
#
# Compressibility (1/GPa) = 0.02924805
#
# Stress axis : x y z
#
# Youngs Moduli (GPa) = 71.46295 85.80932 79.93433
#
# Poissons Ratio (x) = 0.30366 -0.00852
# Poissons Ratio (y) = 0.25289 0.08172
# Poissons Ratio (z) = -0.00761 0.08773
#
# Static dielectric constant tensor:
#      x y z
#    x 1.722150 0.000000 0.001390 
#    y 0.000000 1.683890 0.000000 
#    z 0.001390 0.000000 1.683400 
# 
# From -- ./inp_files/152671.got.cif
#   From: 2010.05.17/outbox.cif.g08.bks.cpg/sg15_77_cif.got.tgz:152671.got - 2010.06.03 18:47:42.
