data_PCOD9305110
_publ_section_title
;
Structure prediction by ZEFSAII (Michael W. Deem and Ramdas Pophale) SiO2 
 PCOD9305110
Probable space group: C 2/C
;
_chemical_formula_sum "Si O2"
_cell_formula_units_Z 52
_cell_length_a 9.047547
_cell_length_b 16.316027
_cell_length_c 17.902635
_cell_angle_alpha 90.000000
_cell_angle_beta 63.906052
_cell_angle_gamma 90.000000
_cell_volume 2373.418720
_symmetry_space_group_name_H-M "C 2/C"
_symmetry_group_IT_number 15
_symmetry_cell_setting 'monoclinic'
loop_
_space_group_symop_operation_xyz
x,y,z
-x,y,1/2-z
-x,-y,-z
x,-y,1/2+z
1/2+x,1/2+y,z
1/2-x,1/2+y,1/2-z
1/2-x,1/2-y,-z
1/2+x,1/2-y,1/2+z
loop_
_atom_site_type_symbol
_atom_site_label
_atom_site_fract_x
_atom_site_fract_y
_atom_site_fract_z
Si Si1 0.000000 0.751705 0.750000
Si Si2 0.903831 0.582209 0.496082
Si Si3 0.153281 0.573030 0.169161
Si Si4 0.315675 0.159258 0.984803
Si Si5 0.055740 0.081911 0.655397
Si Si6 0.984427 0.105475 0.368407
Si Si7 0.220438 0.614989 0.670050
O O1 0.947839 0.816008 0.825307
O O2 0.852608 0.688422 0.763927
O O3 0.875496 0.575944 0.413533
O O4 0.737219 0.595468 0.581142
O O5 0.000000 0.500000 0.500000
O O6 0.036698 0.650271 0.490013
O O7 0.329325 0.614144 0.145285
O O8 0.174580 0.479407 0.195349
O O9 0.000000 0.608625 0.250000
O O10 0.361296 0.133724 0.891507
O O11 0.250000 0.250000 0.000000
O O12 0.158532 0.103345 0.038702
O O13 0.000000 0.112971 0.750000
O O14 0.917405 0.116221 0.629575
O O15 0.033988 0.983389 0.664272
#
# Coordination Sequence:
#
# PCOD9305110 Si02
#       7
#     4   8   8   8   8   8   8
#     4  12  24  42  70 104 132 180 230 276 348 426
#     4  12  25  43  71 106 135 176 243 278 332 418
#     4  11  25  43  72 103 137 179 231 289 335 396
#     4  12  25  43  69  95 140 180 217 284 351 403
#     4  11  25  43  72 103 137 179 231 289 335 396
#     4  11  24  42  69  98 138 176 231 275 346 406
#     4  11  24  42  69  98 138 176 231 275 346 406
#
# _framework density 21.909326
#
# number of rings (size 3 to 8) (size 9 to 14) (size 15 to 20)
#    0.000    0.615    6.154    0.923    8.615    2.462 
#    0.000    6.923    0.000    0.000    0.000    0.000 
#    0.000    0.000    0.000    0.000    0.000    0.000 
#
# Total GULP energy -145081.944867 kJ/mol
# GULP energy per Si atom -5580.074803 kJ/mol
# Density = 2.185946 g / cm^3
# Si number density = 21.909326 Si / 1000 Ang^3
#
#
#
# Elastic Constant Matrix: (Units=GPa)
#
#
# Indices 1 2 3 4 5 6 
#
# 1 123.9572 21.8287 52.1327 0.0000 -36.8154 0.0000
# 2 21.8287 68.7737 -2.0539 0.0000 -6.1004 0.0000
# 3 52.1327 -2.0539 125.9954 0.0000 -19.5465 0.0000
# 4 0.0000 0.0000 0.0000 9.4777 0.0000 -6.3745
# 5 -36.8154 -6.1004 -19.5465 0.0000 39.3126 0.0000
# 6 0.0000 0.0000 0.0000 -6.3745 0.0000 26.5548
#
#
#
# Elastic Compliance Matrix: (Units=1/GPa)
#
#
# Indices 1 2 3 4 5 6 
#
# 1 0.013323 -0.003468 -0.004028 0.000000 0.009936 0.000000
# 2 -0.003468 0.015694 0.001695 0.000000 0.000031 0.000000
# 3 -0.004028 0.001695 0.009846 0.000000 0.001387 0.000000
# 4 0.000000 0.000000 0.000000 0.125825 0.000000 0.030205
# 5 0.009936 0.000031 0.001387 0.000000 0.035436 0.000000
# 6 0.000000 0.000000 0.000000 0.030205 0.000000 0.044909
#
#
# Mechanical properties :
#
#
# Convention : Reuss Voigt Hill
#
# Bulk Modulus (GPa) = 36.67877 51.39349 44.03613
# Shear Modulus (GPa) = 18.81674 31.52362 25.17018
#
# Velocity S-wave (km/s) = 2.93379 3.79730 3.39312
# Velocity P-wave (km/s) = 5.31542 6.53714 5.95768
#
# Compressibility (1/GPa) = 0.02726373
#
# Stress axis : x y z
#
# Youngs Moduli (GPa) = 75.05925 63.71679 101.56313
#
# Poissons Ratio (x) = 0.22094 0.40906
# Poissons Ratio (y) = 0.26027 -0.17219
# Poissons Ratio (z) = 0.30231 -0.10803
#
# Static dielectric constant tensor:
#      x y z
#    x 1.803500 0.000000 -0.011880 
#    y 0.000000 1.835230 0.000000 
#    z -0.011880 0.000000 1.955010 
# 
# From -- ./inp_files/190857.got.cif
#   From: 2010.05.17/outbox.cif.g08.bks.cpg/sg15_96_cif.got.tgz:190857.got - 2010.06.03 18:47:42.
