data_PCOD9305206
_publ_section_title
;
Structure prediction by ZEFSAII (Michael W. Deem and Ramdas Pophale) SiO2 
 PCOD9305206
Probable space group: C 2/C
;
_chemical_formula_sum "Si O2"
_cell_formula_units_Z 40
_cell_length_a 9.228135
_cell_length_b 15.022690
_cell_length_c 17.229124
_cell_angle_alpha 90.000000
_cell_angle_beta 50.022638
_cell_angle_gamma 90.000000
_cell_volume 1830.301914
_symmetry_space_group_name_H-M "C 2/C"
_symmetry_group_IT_number 15
_symmetry_cell_setting 'monoclinic'
loop_
_space_group_symop_operation_xyz
x,y,z
-x,y,1/2-z
-x,-y,-z
x,-y,1/2+z
1/2+x,1/2+y,z
1/2-x,1/2+y,1/2-z
1/2-x,1/2-y,-z
1/2+x,1/2-y,1/2+z
loop_
_atom_site_type_symbol
_atom_site_label
_atom_site_fract_x
_atom_site_fract_y
_atom_site_fract_z
Si Si1 0.101416 0.518200 0.841547
Si Si2 0.872789 0.837562 0.470647
Si Si3 0.829486 0.199919 0.744671
Si Si4 0.265440 0.522542 0.445325
Si Si5 0.664387 0.387705 0.838390
O O1 0.209502 0.611653 0.800825
O O2 0.166599 0.464228 0.896450
O O3 0.174894 0.456545 0.746178
O O4 0.881972 0.539255 0.933954
O O5 0.750000 0.750000 0.500000
O O6 0.847720 0.874699 0.565154
O O7 0.080426 0.810944 0.371491
O O8 0.812620 0.918119 0.435907
O O9 0.712032 0.290263 0.789946
O O10 0.000000 0.207475 0.750000
O O11 0.461157 0.574913 0.382428
#
# Coordination Sequence:
#
# PCOD9305206 Si02
#       5
#     8   8   8   8   8
#     4  11  24  45  72  99 144 192 229 295 369 426
#     4  12  23  43  71 105 138 184 248 290 354 441
#     4  12  23  44  70  97 138 194 235 286 359 431
#     4  11  24  43  70 103 141 188 237 291 365 428
#     4  12  25  43  73 105 144 184 241 304 351 432
#
# _framework density 21.854317999999999
#
# number of rings (size 3 to 8) (size 9 to 14) (size 15 to 20)
#    0.000    0.400    6.000    2.400    0.000    2.400 
#    0.000    2.000    0.000    0.000    0.000    0.000 
#    0.000    0.000    0.000    0.000    0.000    0.000 
#
# Total GULP energy -111866.240207 kJ/mol
# GULP energy per Si atom -5593.312010 kJ/mol
# Density = 2.180458 g / cm^3
# Si number density = 21.854318 Si / 1000 Ang^3
#
#
#
# Elastic Constant Matrix: (Units=GPa)
#
#
# Indices 1 2 3 4 5 6 
#
# 1 48.6155 35.7943 40.3934 0.0000 -13.5546 0.0000
# 2 35.7943 141.2921 66.1099 0.0000 -12.8895 0.0000
# 3 40.3934 66.1099 184.5280 -0.0002 -18.3558 0.0000
# 4 0.0000 0.0000 -0.0002 56.2014 0.0001 -15.5931
# 5 -13.5546 -12.8895 -18.3558 0.0001 36.2201 0.0000
# 6 0.0000 0.0000 0.0000 -15.5931 0.0000 12.7074
#
#
#
# Elastic Compliance Matrix: (Units=1/GPa)
#
#
# Indices 1 2 3 4 5 6 
#
# 1 0.029551 -0.004967 -0.003965 0.000000 0.007282 0.000000
# 2 -0.004967 0.009422 -0.002253 0.000000 0.000352 0.000000
# 3 -0.003965 -0.002253 0.007232 0.000000 0.001379 0.000000
# 4 0.000000 0.000000 0.000000 0.026978 0.000000 0.033104
# 5 0.007282 0.000352 0.001379 0.000000 0.031158 0.000000
# 6 0.000000 0.000000 0.000000 0.033104 0.000000 0.119316
#
#
# Mechanical properties :
#
#
# Convention : Reuss Voigt Hill
#
# Bulk Modulus (GPa) = 41.95550 73.22567 57.59059
# Shear Modulus (GPa) = 19.68710 36.50164 28.09437
#
# Velocity S-wave (km/s) = 3.00464 4.09127 3.58932
# Velocity P-wave (km/s) = 5.59256 7.47643 6.60203
#
# Compressibility (1/GPa) = 0.02383478
#
# Stress axis : x y z
#
# Youngs Moduli (GPa) = 33.83947 106.13103 138.28065
#
# Poissons Ratio (x) = 0.52714 0.54828
# Poissons Ratio (y) = 0.16808 0.31160
# Poissons Ratio (z) = 0.13417 0.23915
#
# Static dielectric constant tensor:
#      x y z
#    x 1.830140 0.000000 0.001270 
#    y 0.000000 1.792230 0.000000 
#    z 0.001270 0.000000 1.858030 
# 
# From -- ./inp_files/197591.got.cif
#   From: 2010.05.17/outbox.cif.g08.bks.cpg/sg15_99_cif.got.tgz:197591.got - 2010.06.03 18:47:42.
