data_PCOD9305460
_publ_section_title
;
Structure prediction by ZEFSAII (Michael W. Deem and Ramdas Pophale) SiO2 
 PCOD9305460
Probable space group: C 2/C
;
_chemical_formula_sum "Si O2"
_cell_formula_units_Z 48
_cell_length_a 5.831901
_cell_length_b 29.079921
_cell_length_c 14.871317
_cell_angle_alpha 90.000000
_cell_angle_beta 120.331506
_cell_angle_gamma 90.000000
_cell_volume 2176.822234
_symmetry_space_group_name_H-M "C 2/C"
_symmetry_group_IT_number 15
_symmetry_cell_setting 'monoclinic'
loop_
_space_group_symop_operation_xyz
x,y,z
-x,y,1/2-z
-x,-y,-z
x,-y,1/2+z
1/2+x,1/2+y,z
1/2-x,1/2+y,1/2-z
1/2-x,1/2-y,-z
1/2+x,1/2-y,1/2+z
loop_
_atom_site_type_symbol
_atom_site_label
_atom_site_fract_x
_atom_site_fract_y
_atom_site_fract_z
Si Si1 0.500000 0.088546 0.250000
Si Si2 0.268493 0.029429 0.047242
Si Si3 0.500000 0.635523 0.250000
Si Si4 0.500000 0.743933 0.750000
Si Si5 0.000000 0.622070 0.750000
Si Si6 0.720970 0.048450 0.650301
Si Si7 0.477577 0.288953 0.617420
Si Si8 0.382594 0.299709 0.403844
O O1 0.325803 0.060887 0.143099
O O2 0.740524 0.111754 0.241310
O O3 0.510073 0.992889 0.102755
O O4 0.249289 0.058453 0.950386
O O5 0.000000 0.000000 0.000000
O O6 0.627135 0.666512 0.354254
O O7 0.451468 0.714087 0.651306
O O8 0.747877 0.775647 0.782366
O O9 0.119599 0.589412 0.695268
O O10 0.210610 0.656493 0.839241
O O11 0.000000 0.033300 0.750000
O O12 0.539722 0.303639 0.527461
O O13 0.305552 0.243318 0.603510
#
# Coordination Sequence:
#
# PCOD9305460 Si02
#       8
#     4   8   4   4   4   8   8   8
#     4  12  30  46  80 115 150 195 256 310 385 455
#     4  11  26  51  78 106 145 197 244 309 389 478
#     4  12  27  48  70 112 156 193 247 320 363 454
#     4  12  19  46  68 102 128 206 248 302 358 447
#     4  12  24  44  66 113 142 182 249 314 368 440
#     4  11  26  45  78 105 146 191 242 313 387 459
#     4  11  24  45  68  96 145 197 244 295 378 428
#     4  11  25  42  70  97 142 191 249 300 364 441
#
# _framework density 22.050491999999998
#
# number of rings (size 3 to 8) (size 9 to 14) (size 15 to 20)
#    0.000    0.667    3.333    3.500    9.333    1.333 
#    0.000    0.000    0.000    0.000    0.000    0.000 
#    0.000    0.000    0.000    0.000    0.000    0.000 
#
# Total GULP energy -133881.360095 kJ/mol
# GULP energy per Si atom -5578.390004 kJ/mol
# Density = 2.200030 g / cm^3
# Si number density = 22.050492 Si / 1000 Ang^3
#
#
#
# Elastic Constant Matrix: (Units=GPa)
#
#
# Indices 1 2 3 4 5 6 
#
# 1 104.1934 49.4579 42.9380 0.0000 -14.9190 0.0000
# 2 49.4579 87.2794 53.2196 0.0000 -16.8773 0.0000
# 3 42.9380 53.2196 153.8585 0.0000 -34.5962 0.0000
# 4 0.0000 0.0000 0.0000 -17.8550 0.0000 -9.5246
# 5 -14.9190 -16.8773 -34.5962 0.0000 54.6522 0.0000
# 6 0.0000 0.0000 0.0000 -9.5246 0.0000 31.7844
#
#
#
# Elastic Compliance Matrix: (Units=1/GPa)
#
#
# Indices 1 2 3 4 5 6 
#
# 1 0.013395 -0.006673 -0.001249 0.000000 0.000805 0.000000
# 2 -0.006673 0.017954 -0.004093 0.000000 0.001131 0.000000
# 3 -0.001249 -0.004093 0.009215 0.000000 0.004228 0.000000
# 4 0.000000 0.000000 0.000000 -0.048288 0.000000 -0.014470
# 5 0.000805 0.001131 0.004228 0.000000 0.021543 0.000000
# 6 0.000000 0.000000 0.000000 -0.014470 0.000000 0.027126
#
#
# Mechanical properties :
#
#
# Convention : Reuss Voigt Hill
#
# Bulk Modulus (GPa) = 60.48765 70.72914 65.60840
# Shear Modulus (GPa) = 70.93541 27.03072 48.98306
#
# Velocity S-wave (km/s) = 5.67797 3.50502 4.71829
# Velocity P-wave (km/s) = 8.39505 6.96605 7.71371
#
# Compressibility (1/GPa) = 0.01653230
#
# Stress axis : x y z
#
# Youngs Moduli (GPa) = 74.65401 55.69867 108.52281
#
# Poissons Ratio (x) = 0.37169 0.13553
# Poissons Ratio (y) = 0.49819 0.44423
# Poissons Ratio (z) = 0.09324 0.22800
#
# Static dielectric constant tensor:
#      x y z
#    x 2.761460 0.000000 -0.420430 
#    y 0.000000 1.863780 0.000000 
#    z -0.420430 0.000000 1.986220 
# 
# From -- ./inp_files/130994.got.cif
#   From: 2010.05.17/outbox.cif.g08.bks.cpg/sg15_66_cif.got.tgz:130994.got - 2010.06.03 18:47:42.
