data_PCOD9305920
_publ_section_title
;
Structure prediction by ZEFSAII (Michael W. Deem and Ramdas Pophale) SiO2 
 PCOD9305920
Probable space group: C 2/C
;
_chemical_formula_sum "Si O2"
_cell_formula_units_Z 40
_cell_length_a 13.180717
_cell_length_b 7.158543
_cell_length_c 23.555419
_cell_angle_alpha 90.000000
_cell_angle_beta 45.095442
_cell_angle_gamma 90.000000
_cell_volume 1574.206653
_symmetry_space_group_name_H-M "C 2/C"
_symmetry_group_IT_number 15
_symmetry_cell_setting 'monoclinic'
loop_
_space_group_symop_operation_xyz
x,y,z
-x,y,1/2-z
-x,-y,-z
x,-y,1/2+z
1/2+x,1/2+y,z
1/2-x,1/2+y,1/2-z
1/2-x,1/2-y,-z
1/2+x,1/2-y,1/2+z
loop_
_atom_site_type_symbol
_atom_site_label
_atom_site_fract_x
_atom_site_fract_y
_atom_site_fract_z
Si Si1 0.726900 0.606356 0.415758
Si Si2 0.561068 0.649574 0.907006
Si Si3 0.155317 0.460180 0.382469
Si Si4 0.102585 0.691545 0.589977
Si Si5 0.552977 0.534359 0.789277
O O1 0.591807 0.578356 0.511014
O O2 0.681861 0.499199 0.376077
O O3 0.722673 0.825519 0.403643
O O4 0.857659 0.495671 0.390908
O O5 0.597172 0.840326 0.925091
O O6 0.550657 0.669410 0.844013
O O7 0.281385 0.510520 0.288663
O O8 0.024889 0.356116 0.403027
O O9 0.250000 0.750000 0.500000
O O10 0.041181 0.854265 0.655264
O O11 0.500000 0.611664 0.750000
#
# Coordination Sequence:
#
# PCOD9305920 Si02
#       5
#     8   8   8   8   8
#     4  11  24  49  81 113 157 221 272 341 431 490
#     4  11  24  48  77 113 163 205 277 344 410 516
#     4  12  27  47  80 121 162 214 279 352 424 500
#     4  12  25  52  86 116 169 219 280 349 418 519
#     4  12  27  50  75 117 170 216 274 353 433 497
#
# _framework density 25.409624999999998
#
# number of rings (size 3 to 8) (size 9 to 14) (size 15 to 20)
#    0.000    0.400    4.000    4.200    2.800    2.400 
#    0.000    0.000    0.000    0.000    0.000    0.000 
#    0.000    0.000    0.000    0.000    0.000    0.000 
#
# Total GULP energy -112051.245338 kJ/mol
# GULP energy per Si atom -5602.562267 kJ/mol
# Density = 2.535179 g / cm^3
# Si number density = 25.409625 Si / 1000 Ang^3
#
#
#
# Elastic Constant Matrix: (Units=GPa)
#
#
# Indices 1 2 3 4 5 6 
#
# 1 121.1912 42.7720 53.9924 0.0000 3.3801 0.0005
# 2 42.7720 123.5053 6.7886 0.0002 -5.3037 0.0013
# 3 53.9924 6.7886 117.0634 0.0000 -10.1579 0.0000
# 4 0.0000 0.0002 0.0000 30.5658 0.0000 -8.8398
# 5 3.3801 -5.3037 -10.1579 0.0000 47.2401 0.0000
# 6 0.0005 0.0013 0.0000 -8.8398 0.0000 53.0589
#
#
#
# Elastic Compliance Matrix: (Units=1/GPa)
#
#
# Indices 1 2 3 4 5 6 
#
# 1 0.012265 -0.004047 -0.005643 0.000000 -0.002545 0.000000
# 2 -0.004047 0.009490 0.001461 0.000000 0.001669 0.000000
# 3 -0.005643 0.001461 0.011321 0.000000 0.003002 0.000000
# 4 0.000000 0.000000 0.000000 0.034372 0.000000 0.005727
# 5 -0.002545 0.001669 0.003002 0.000000 0.022183 0.000000
# 6 0.000000 0.000000 0.000000 0.005727 0.000000 0.019801
#
#
# Mechanical properties :
#
#
# Convention : Reuss Voigt Hill
#
# Bulk Modulus (GPa) = 60.17642 63.20733 61.69187
# Shear Modulus (GPa) = 38.04354 43.38674 40.71514
#
# Velocity S-wave (km/s) = 3.87358 4.13666 4.00728
# Velocity P-wave (km/s) = 6.61363 6.90980 6.76334
#
# Compressibility (1/GPa) = 0.01661781
#
# Stress axis : x y z
#
# Youngs Moduli (GPa) = 81.53584 105.37870 88.33305
#
# Poissons Ratio (x) = 0.42642 0.49845
# Poissons Ratio (y) = 0.32994 -0.12904
# Poissons Ratio (z) = 0.46010 -0.15395
#
# Static dielectric constant tensor:
#      x y z
#    x 1.985710 0.000000 -0.020300 
#    y 0.000000 2.012280 0.000000 
#    z -0.020300 0.000000 2.011150 
# 
# From -- ./inp_files/294693.got.cif
#   From: 2010.05.17/outbox.cif.g08.bks.cpg/sg15_148_cif.got.tgz:294693.got - 2010.06.03 18:47:42.
