data_PCOD9305174
_publ_section_title
;
Structure prediction by ZEFSAII (Michael W. Deem and Ramdas Pophale) SiO2 
 PCOD9305174
Probable space group: C 2/C
;
_chemical_formula_sum "Si O2"
_cell_formula_units_Z 56
_cell_length_a 9.033240
_cell_length_b 12.151658
_cell_length_c 23.507850
_cell_angle_alpha 90.000000
_cell_angle_beta 105.946841
_cell_angle_gamma 90.000000
_cell_volume 2481.126878
_symmetry_space_group_name_H-M "C 2/C"
_symmetry_group_IT_number 15
_symmetry_cell_setting 'monoclinic'
loop_
_space_group_symop_operation_xyz
x,y,z
-x,y,1/2-z
-x,-y,-z
x,-y,1/2+z
1/2+x,1/2+y,z
1/2-x,1/2+y,1/2-z
1/2-x,1/2-y,-z
1/2+x,1/2-y,1/2+z
loop_
_atom_site_type_symbol
_atom_site_label
_atom_site_fract_x
_atom_site_fract_y
_atom_site_fract_z
Si Si1 0.030568 0.415890 0.864578
Si Si2 0.349478 0.685394 0.059025
Si Si3 0.700699 0.262275 0.591000
Si Si4 0.000000 0.030916 0.750000
Si Si5 0.500000 0.995227 0.250000
Si Si6 0.188722 0.834743 0.820143
Si Si7 0.137366 0.526097 0.556100
Si Si8 0.719951 0.822914 0.222529
O O1 0.164126 0.347314 0.909118
O O2 0.092341 0.438252 0.807232
O O3 0.872843 0.349041 0.840230
O O4 0.960716 0.513530 0.895609
O O5 0.530409 0.687094 0.063519
O O6 0.348738 0.728153 0.125002
O O7 0.266999 0.567086 0.060111
O O8 0.250000 0.750000 0.000000
O O9 0.726290 0.223071 0.659526
O O10 0.705525 0.147090 0.558226
O O11 0.906301 0.949648 0.697212
O O12 0.875257 0.116944 0.760233
O O13 0.602040 0.920969 0.220740
O O14 0.165126 0.770844 0.759325
O O15 0.000000 0.500000 0.500000
#
# Coordination Sequence:
#
# PCOD9305174 Si02
#       8
#     8   8   8   4   4   8   8   8
#     4  11  25  43  66 101 137 177 227 288 336 410
#     4  11  24  45  72  99 137 184 232 287 338 410
#     4  12  24  46  71 100 138 182 230 282 352 402
#     4  12  23  45  68  98 142 178 221 275 352 404
#     4  12  21  41  62 100 142 168 225 277 342 406
#     4  11  24  43  66  99 138 178 226 280 341 408
#     4  11  24  48  71  95 137 179 230 285 343 402
#     4  12  24  39  71 101 135 182 221 281 345 416
#
# _framework density 22.570388999999999
#
# number of rings (size 3 to 8) (size 9 to 14) (size 15 to 20)
#    0.000    0.571    4.286    4.714    2.000    0.571 
#    0.000    0.714    0.000    0.000    0.000    0.000 
#    0.000    0.000    0.000    0.000    0.000    0.000 
#
# Total GULP energy -156143.646952 kJ/mol
# GULP energy per Si atom -5576.558820 kJ/mol
# Density = 2.251902 g / cm^3
# Si number density = 22.570389 Si / 1000 Ang^3
#
#
#
# Elastic Constant Matrix: (Units=GPa)
#
#
# Indices 1 2 3 4 5 6 
#
# 1 101.1336 29.2226 6.0656 0.0000 30.9025 0.0000
# 2 29.2226 50.5365 -16.6852 0.0000 10.7007 0.0000
# 3 6.0656 -16.6852 46.0710 0.0000 1.8664 0.0000
# 4 0.0000 0.0000 0.0000 45.3247 0.0000 1.6792
# 5 30.9025 10.7007 1.8664 0.0000 37.0446 0.0000
# 6 0.0000 0.0000 0.0000 1.6792 0.0000 41.3483
#
#
#
# Elastic Compliance Matrix: (Units=1/GPa)
#
#
# Indices 1 2 3 4 5 6 
#
# 1 0.015842 -0.008497 -0.004737 0.000000 -0.010523 0.000000
# 2 -0.008497 0.028951 0.011679 0.000000 -0.001863 0.000000
# 3 -0.004737 0.011679 0.026590 0.000000 -0.000762 0.000000
# 4 0.000000 0.000000 0.000000 0.022096 0.000000 -0.000897
# 5 -0.010523 -0.001863 -0.000762 0.000000 0.036349 0.000000
# 6 0.000000 0.000000 0.000000 -0.000897 0.000000 0.024221
#
#
# Mechanical properties :
#
#
# Convention : Reuss Voigt Hill
#
# Bulk Modulus (GPa) = 14.64645 26.10520 20.37582
# Shear Modulus (GPa) = 27.79059 36.68607 32.23833
#
# Velocity S-wave (km/s) = 3.51277 4.03601 3.78345
# Velocity P-wave (km/s) = 4.79125 5.77151 5.30408
#
# Compressibility (1/GPa) = 0.06827595
#
# Stress axis : x y z
#
# Youngs Moduli (GPa) = 63.12166 34.54059 37.60820
#
# Poissons Ratio (x) = 0.29348 0.17814
# Poissons Ratio (y) = 0.53632 -0.43924
# Poissons Ratio (z) = 0.29898 -0.40341
#
# Static dielectric constant tensor:
#      x y z
#    x 1.883720 0.000000 0.129750 
#    y 0.000000 1.912400 0.000000 
#    z 0.129750 0.000000 2.076960 
# 
# From -- ./inp_files/288087.got.cif
#   From: 2010.05.17/outbox.cif.g08.bks.cpg/sg15_145_cif.got.tgz:288087.got - 2010.06.03 18:47:42.
