data_PCOD9305500
_publ_section_title
;
Structure prediction by ZEFSAII (Michael W. Deem and Ramdas Pophale) SiO2 
 PCOD9305500
Probable space group: C 2/C
;
_chemical_formula_sum "Si O2"
_cell_formula_units_Z 44
_cell_length_a 5.307127
_cell_length_b 23.995155
_cell_length_c 15.050312
_cell_angle_alpha 90.000000
_cell_angle_beta 77.216750
_cell_angle_gamma 90.000000
_cell_volume 1869.082652
_symmetry_space_group_name_H-M "C 2/C"
_symmetry_group_IT_number 15
_symmetry_cell_setting 'monoclinic'
loop_
_space_group_symop_operation_xyz
x,y,z
-x,y,1/2-z
-x,-y,-z
x,-y,1/2+z
1/2+x,1/2+y,z
1/2-x,1/2+y,1/2-z
1/2-x,1/2-y,-z
1/2+x,1/2-y,1/2+z
loop_
_atom_site_type_symbol
_atom_site_label
_atom_site_fract_x
_atom_site_fract_y
_atom_site_fract_z
Si Si1 0.000000 0.878737 0.750000
Si Si2 0.687872 0.324260 0.904954
Si Si3 0.868741 0.356880 0.345841
Si Si4 0.531593 0.935007 0.874819
Si Si5 0.242215 0.964374 0.449932
Si Si6 0.625389 0.296175 0.112768
O O1 0.995775 0.839880 0.662932
O O2 0.754032 0.918310 0.788031
O O3 0.843232 0.268780 0.868826
O O4 0.850632 0.381036 0.897899
O O5 0.581827 0.307394 0.010005
O O6 0.709571 0.405381 0.406341
O O7 0.649223 0.315302 0.327443
O O8 0.000000 0.383223 0.250000
O O9 0.104908 0.327781 0.382062
O O10 0.391482 0.993992 0.871794
O O11 0.629310 0.946588 0.967241
O O12 0.000000 0.000000 0.500000
#
# Coordination Sequence:
#
# PCOD9305500 Si02
#       6
#     4   8   8   8   8   8
#     4  12  26  42  74 116 148 184 262 314 378 442
#     4  11  26  46  76 107 150 198 254 305 381 451
#     4  12  27  47  76 111 148 200 252 310 376 457
#     4  11  24  45  70 106 144 192 243 313 380 441
#     4  11  25  47  75 101 149 196 252 307 379 455
#     4  11  27  50  76 108 156 203 246 308 385 455
#
# _framework density 23.540958
#
# number of rings (size 3 to 8) (size 9 to 14) (size 15 to 20)
#    0.000    0.727    1.818    4.364    6.364    5.818 
#    0.000    0.000    0.000    0.000    0.000    0.000 
#    0.000    0.000    0.000    0.000    0.000    0.000 
#
# Total GULP energy -122835.220186 kJ/mol
# GULP energy per Si atom -5583.419099 kJ/mol
# Density = 2.348738 g / cm^3
# Si number density = 23.540958 Si / 1000 Ang^3
#
#
#
# Elastic Constant Matrix: (Units=GPa)
#
#
# Indices 1 2 3 4 5 6 
#
# 1 73.0654 27.8179 15.3573 0.0000 9.6679 0.0000
# 2 27.8179 141.6599 19.6108 0.0000 13.2211 0.0000
# 3 15.3573 19.6108 66.1478 0.0000 8.9474 0.0000
# 4 0.0000 0.0000 0.0000 14.9865 0.0000 2.9642
# 5 9.6679 13.2211 8.9474 0.0000 34.8568 0.0000
# 6 0.0000 0.0000 0.0000 2.9642 0.0000 31.6393
#
#
#
# Elastic Compliance Matrix: (Units=1/GPa)
#
#
# Indices 1 2 3 4 5 6 
#
# 1 0.015504 -0.002443 -0.002506 0.000000 -0.002730 0.000000
# 2 -0.002443 0.007931 -0.001522 0.000000 -0.001940 0.000000
# 3 -0.002506 -0.001522 0.016553 0.000000 -0.002977 0.000000
# 4 0.000000 0.000000 0.000000 0.067986 0.000000 -0.006370
# 5 -0.002730 -0.001940 -0.002977 0.000000 0.030946 0.000000
# 6 0.000000 0.000000 0.000000 -0.006370 0.000000 0.032203
#
#
# Mechanical properties :
#
#
# Convention : Reuss Voigt Hill
#
# Bulk Modulus (GPa) = 36.97240 45.16057 41.06648
# Shear Modulus (GPa) = 25.89592 30.83567 28.36579
#
# Velocity S-wave (km/s) = 3.32028 3.62314 3.47501
# Velocity P-wave (km/s) = 5.51712 6.06039 5.79513
#
# Compressibility (1/GPa) = 0.02704721
#
# Stress axis : x y z
#
# Youngs Moduli (GPa) = 64.49757 126.09442 60.41113
#
# Poissons Ratio (x) = 0.30803 0.15139
# Poissons Ratio (y) = 0.15756 0.09192
# Poissons Ratio (z) = 0.16163 0.19187
#
# Static dielectric constant tensor:
#      x y z
#    x 1.892070 0.000000 0.028340 
#    y 0.000000 1.960570 0.000000 
#    z 0.028340 0.000000 1.970100 
# 
# From -- ./inp_files/129358.got.cif
#   From: 2010.05.17/outbox.cif.g08.bks.cpg/sg15_65_cif.got.tgz:129358.got - 2010.06.03 18:47:42.
