data_PCOD9305607
_publ_section_title
;
Structure prediction by ZEFSAII (Michael W. Deem and Ramdas Pophale) SiO2 
 PCOD9305607
Probable space group: C 2/C
;
_chemical_formula_sum "Si O2"
_cell_formula_units_Z 48
_cell_length_a 9.629278
_cell_length_b 15.209981
_cell_length_c 17.304036
_cell_angle_alpha 90.000000
_cell_angle_beta 89.441713
_cell_angle_gamma 90.000000
_cell_volume 2534.248449
_symmetry_space_group_name_H-M "C 2/C"
_symmetry_group_IT_number 15
_symmetry_cell_setting 'monoclinic'
loop_
_space_group_symop_operation_xyz
x,y,z
-x,y,1/2-z
-x,-y,-z
x,-y,1/2+z
1/2+x,1/2+y,z
1/2-x,1/2+y,1/2-z
1/2-x,1/2-y,-z
1/2+x,1/2-y,1/2+z
loop_
_atom_site_type_symbol
_atom_site_label
_atom_site_fract_x
_atom_site_fract_y
_atom_site_fract_z
Si Si1 0.332166 0.257474 0.256390
Si Si2 0.728292 0.556069 0.816952
Si Si3 0.233035 0.423250 0.824839
Si Si4 0.510098 0.454044 0.916876
Si Si5 0.256258 0.307330 0.577683
Si Si6 0.454111 0.030545 0.416292
O O1 0.500000 0.253413 0.250000
O O2 0.284835 0.347022 0.216349
O O3 0.274296 0.173959 0.210234
O O4 0.275864 0.248565 0.344645
O O5 0.747150 0.489174 0.746312
O O6 0.590806 0.523320 0.861947
O O7 0.857265 0.540773 0.873976
O O8 0.359723 0.434199 0.883080
O O9 0.088783 0.447317 0.865805
O O10 0.602019 0.364703 0.918390
O O11 0.500000 0.500000 0.000000
O O12 0.250000 0.250000 0.500000
O O13 0.137908 0.381937 0.576234
O O14 0.500000 0.000000 0.500000
#
# Coordination Sequence:
#
# PCOD9305607 Si02
#       6
#     8   8   8   8   8   8
#     4  12  24  44  72 101 137 180 229 288 337 405
#     4  11  25  43  70 100 131 181 226 272 349 398
#     4  12  22  46  69  98 135 174 228 281 329 406
#     4  11  25  44  68  99 140 178 223 281 343 409
#     4  11  26  45  65 101 139 177 226 280 342 404
#     4  11  24  46  68  98 139 175 221 283 339 405
#
# _framework density 18.940526999999999
#
# number of rings (size 3 to 8) (size 9 to 14) (size 15 to 20)
#    0.000    0.667    5.000    4.000    7.000    1.333 
#    3.000    2.500    0.000    0.000    0.000    0.000 
#    0.000    0.000    0.000    0.000    0.000    0.000 
#
# Total GULP energy -134256.592848 kJ/mol
# GULP energy per Si atom -5594.024702 kJ/mol
# Density = 1.889742 g / cm^3
# Si number density = 18.940527 Si / 1000 Ang^3
#
#
#
# Elastic Constant Matrix: (Units=GPa)
#
#
# Indices 1 2 3 4 5 6 
#
# 1 122.6282 41.3384 45.0250 0.0000 16.8285 0.0000
# 2 41.3384 131.6757 73.1164 0.0000 12.5191 0.0000
# 3 45.0250 73.1164 125.7711 0.0000 10.1562 0.0000
# 4 0.0000 0.0000 0.0000 48.8471 0.0000 3.0226
# 5 16.8285 12.5191 10.1562 0.0000 42.4783 0.0000
# 6 0.0000 0.0000 0.0000 3.0226 0.0000 11.4519
#
#
#
# Elastic Compliance Matrix: (Units=1/GPa)
#
#
# Indices 1 2 3 4 5 6 
#
# 1 0.009961 -0.001477 -0.002471 0.000000 -0.002920 0.000000
# 2 -0.001477 0.011567 -0.006085 0.000000 -0.001369 0.000000
# 3 -0.002471 -0.006085 0.012389 0.000000 -0.000190 0.000000
# 4 0.000000 0.000000 0.000000 0.020812 0.000000 -0.005493
# 5 -0.002920 -0.001369 -0.000190 0.000000 0.025147 0.000000
# 6 0.000000 0.000000 0.000000 -0.005493 0.000000 0.088771
#
#
# Mechanical properties :
#
#
# Convention : Reuss Voigt Hill
#
# Bulk Modulus (GPa) = 72.20654 77.67050 74.93852
# Shear Modulus (GPa) = 25.86241 35.26181 30.56211
#
# Velocity S-wave (km/s) = 3.69921 4.31944 4.02130
# Velocity P-wave (km/s) = 7.51339 8.12240 7.82382
#
# Compressibility (1/GPa) = 0.01384916
#
# Stress axis : x y z
#
# Youngs Moduli (GPa) = 100.39353 86.45054 80.71954
#
# Poissons Ratio (x) = 0.12771 0.19948
# Poissons Ratio (y) = 0.14830 0.49120
# Poissons Ratio (z) = 0.24810 0.52607
#
# Static dielectric constant tensor:
#      x y z
#    x 1.658580 0.000000 -0.008120 
#    y 0.000000 1.618170 0.000000 
#    z -0.008120 0.000000 1.644410 
# 
# From -- ./inp_files/182432.got.cif
#   From: 2010.05.17/outbox.cif.g08.bks.cpg/sg15_92_cif.got.tgz:182432.got - 2010.06.03 18:47:42.
