data_PCOD9305355
_publ_section_title
;
Structure prediction by ZEFSAII (Michael W. Deem and Ramdas Pophale) SiO2 
 PCOD9305355
Probable space group: C 2/C
;
_chemical_formula_sum "Si O2"
_cell_formula_units_Z 40
_cell_length_a 9.753144
_cell_length_b 14.964305
_cell_length_c 14.494234
_cell_angle_alpha 90.000000
_cell_angle_beta 69.716867
_cell_angle_gamma 90.000000
_cell_volume 1984.244293
_symmetry_space_group_name_H-M "C 2/C"
_symmetry_group_IT_number 15
_symmetry_cell_setting 'monoclinic'
loop_
_space_group_symop_operation_xyz
x,y,z
-x,y,1/2-z
-x,-y,-z
x,-y,1/2+z
1/2+x,1/2+y,z
1/2-x,1/2+y,1/2-z
1/2-x,1/2-y,-z
1/2+x,1/2-y,1/2+z
loop_
_atom_site_type_symbol
_atom_site_label
_atom_site_fract_x
_atom_site_fract_y
_atom_site_fract_z
Si Si1 0.641640 0.703412 0.096662
Si Si2 0.656775 0.510811 0.012376
Si Si3 0.826393 0.517651 0.294065
Si Si4 0.667001 0.395515 0.181277
Si Si5 0.306635 0.714862 0.200351
O O1 0.653500 0.597436 0.077828
O O2 0.470920 0.726201 0.123264
O O3 0.683284 0.726517 0.191512
O O4 0.750000 0.750000 0.000000
O O5 0.687149 0.427851 0.071989
O O6 0.500000 0.500000 0.000000
O O7 0.774221 0.521430 0.904203
O O8 0.767265 0.453963 0.226634
O O9 0.752614 0.615451 0.303916
O O10 0.000000 0.525037 0.250000
O O11 0.500000 0.412582 0.250000
O O12 0.705447 0.291994 0.183635
#
# Coordination Sequence:
#
# PCOD9305355 Si02
#       5
#     8   8   8   8   8
#     4  11  24  44  71 102 141 184 236 284 352 417
#     4  12  24  46  75 101 136 194 234 284 357 420
#     4  12  27  46  71 106 144 180 240 297 354 418
#     4  12  25  45  74 102 142 188 235 288 350 422
#     4  11  25  45  68 103 144 184 227 295 351 411
#
# _framework density 20.158809000000002
#
# number of rings (size 3 to 8) (size 9 to 14) (size 15 to 20)
#    0.000    0.400    6.000    1.800    5.600    3.200 
#    0.000    0.000    0.000    0.000    0.000    0.000 
#    0.000    0.000    0.000    0.000    0.000    0.000 
#
# Total GULP energy -111947.927824 kJ/mol
# GULP energy per Si atom -5597.396391 kJ/mol
# Density = 2.011293 g / cm^3
# Si number density = 20.158809 Si / 1000 Ang^3
#
#
#
# Elastic Constant Matrix: (Units=GPa)
#
#
# Indices 1 2 3 4 5 6 
#
# 1 85.3768 0.2969 33.6925 0.0000 -20.6201 0.0000
# 2 0.2969 69.5082 -7.3493 0.0000 8.4214 0.0000
# 3 33.6925 -7.3493 102.0018 0.0000 -14.4120 0.0000
# 4 0.0000 0.0000 0.0000 37.0022 0.0000 3.8129
# 5 -20.6201 8.4214 -14.4120 0.0000 38.2268 0.0000
# 6 0.0000 0.0000 0.0000 3.8129 0.0000 40.6838
#
#
#
# Elastic Compliance Matrix: (Units=1/GPa)
#
#
# Indices 1 2 3 4 5 6 
#
# 1 0.014977 -0.001323 -0.004077 0.000000 0.006833 0.000000
# 2 -0.001323 0.014938 0.001001 0.000000 -0.003627 0.000000
# 3 -0.004077 0.001001 0.011493 0.000000 0.001913 0.000000
# 4 0.000000 0.000000 0.000000 0.027289 0.000000 -0.002558
# 5 0.006833 -0.003627 0.001913 0.000000 0.031366 0.000000
# 6 0.000000 0.000000 0.000000 -0.002558 0.000000 0.024819
#
#
# Mechanical properties :
#
#
# Convention : Reuss Voigt Hill
#
# Bulk Modulus (GPa) = 30.66621 34.46301 32.56461
# Shear Modulus (GPa) = 34.59035 38.53233 36.56134
#
# Velocity S-wave (km/s) = 4.14683 4.37674 4.26334
# Velocity P-wave (km/s) = 6.17848 6.53254 6.35797
#
# Compressibility (1/GPa) = 0.03260918
#
# Stress axis : x y z
#
# Youngs Moduli (GPa) = 66.77122 66.94465 87.01082
#
# Poissons Ratio (x) = 0.08856 0.35473
# Poissons Ratio (y) = 0.08833 -0.08708
# Poissons Ratio (z) = 0.27221 -0.06700
#
# Static dielectric constant tensor:
#      x y z
#    x 1.689030 0.000000 -0.007470 
#    y 0.000000 1.707880 0.000000 
#    z -0.007470 0.000000 1.696620 
# 
# From -- ./inp_files/133069.got.cif
#   From: 2010.05.17/outbox.cif.g08.bks.cpg/sg15_67_cif.got.tgz:133069.got - 2010.06.03 18:47:42.
