data_PCOD9305137
_publ_section_title
;
Structure prediction by ZEFSAII (Michael W. Deem and Ramdas Pophale) SiO2 
 PCOD9305137
Probable space group: C 2/C
;
_chemical_formula_sum "Si O2"
_cell_formula_units_Z 40
_cell_length_a 17.496948
_cell_length_b 6.528988
_cell_length_c 16.917154
_cell_angle_alpha 90.000000
_cell_angle_beta 103.848883
_cell_angle_gamma 90.000000
_cell_volume 1876.392036
_symmetry_space_group_name_H-M "C 2/C"
_symmetry_group_IT_number 15
_symmetry_cell_setting 'monoclinic'
loop_
_space_group_symop_operation_xyz
x,y,z
-x,y,1/2-z
-x,-y,-z
x,-y,1/2+z
1/2+x,1/2+y,z
1/2-x,1/2+y,1/2-z
1/2-x,1/2-y,-z
1/2+x,1/2-y,1/2+z
loop_
_atom_site_type_symbol
_atom_site_label
_atom_site_fract_x
_atom_site_fract_y
_atom_site_fract_z
Si Si1 0.026036 0.293656 0.045853
Si Si2 0.217829 0.886056 0.062574
Si Si3 0.827881 0.491964 0.837512
Si Si4 0.077851 0.969046 0.423043
Si Si5 0.177195 0.720864 0.324397
O O1 0.108308 0.354149 0.108260
O O2 0.021137 0.164743 0.962831
O O3 0.967089 0.185886 0.093934
O O4 0.000000 0.500000 0.000000
O O5 0.186978 0.717559 0.117007
O O6 0.280590 0.048954 0.110619
O O7 0.250000 0.750000 0.000000
O O8 0.149076 0.007677 0.002446
O O9 0.852693 0.407646 0.758020
O O10 0.745699 0.618882 0.814793
O O11 0.111857 0.852406 0.355488
#
# Coordination Sequence:
#
# PCOD9305137 Si02
#       5
#     8   8   8   8   8
#     4  11  24  44  72  98 136 186 232 286 345 427
#     4  12  22  39  75 103 128 178 236 285 338 413
#     4  12  24  43  72 102 141 179 234 294 354 412
#     4  11  24  42  73 101 136 179 238 281 348 423
#     4  12  25  43  71 105 139 183 230 297 355 417
#
# _framework density 21.317505000000001
#
# number of rings (size 3 to 8) (size 9 to 14) (size 15 to 20)
#    0.000    0.400    8.000    1.800    0.000    0.000 
#    0.000    1.000    8.800    0.000    0.000    0.000 
#    0.000    0.000    0.000    0.000    0.000    0.000 
#
# Total GULP energy -111483.924669 kJ/mol
# GULP energy per Si atom -5574.196233 kJ/mol
# Density = 2.126899 g / cm^3
# Si number density = 21.317505 Si / 1000 Ang^3
#
#
#
# Elastic Constant Matrix: (Units=GPa)
#
#
# Indices 1 2 3 4 5 6 
#
# 1 68.0604 29.6709 33.9373 0.0000 -22.9628 0.0000
# 2 29.6709 104.2905 36.4533 0.0000 -29.6414 0.0000
# 3 33.9373 36.4533 73.7629 0.0000 -24.2917 0.0000
# 4 0.0000 0.0000 0.0000 43.2035 0.0000 -10.8504
# 5 -22.9628 -29.6414 -24.2917 0.0000 21.8309 0.0000
# 6 0.0000 0.0000 0.0000 -10.8504 0.0000 43.4264
#
#
#
# Elastic Compliance Matrix: (Units=1/GPa)
#
#
# Indices 1 2 3 4 5 6 
#
# 1 0.023623 0.000789 -0.004298 0.000000 0.021137 0.000000
# 2 0.000789 0.015704 -0.001308 0.000000 0.020697 0.000000
# 3 -0.004298 -0.001308 0.022266 0.000000 0.018480 0.000000
# 4 0.000000 0.000000 0.000000 0.024696 0.000000 0.006170
# 5 0.021137 0.020697 0.018480 0.000000 0.116705 0.000000
# 6 0.000000 0.000000 0.000000 0.006170 0.000000 0.024569
#
#
# Mechanical properties :
#
#
# Convention : Reuss Voigt Hill
#
# Bulk Modulus (GPa) = 19.24544 49.58188 34.41366
# Shear Modulus (GPa) = 19.64508 31.42898 25.53703
#
# Velocity S-wave (km/s) = 3.03899 3.84386 3.46488
# Velocity P-wave (km/s) = 4.62186 6.55817 5.67324
#
# Compressibility (1/GPa) = 0.05196036
#
# Stress axis : x y z
#
# Youngs Moduli (GPa) = 42.33101 63.67935 44.91056
#
# Poissons Ratio (x) = -0.05024 0.19301
# Poissons Ratio (y) = -0.03340 0.05873
# Poissons Ratio (z) = 0.18193 0.08328
#
# Static dielectric constant tensor:
#      x y z
#    x 1.844350 0.000000 -0.089570 
#    y 0.000000 1.784400 0.000000 
#    z -0.089570 0.000000 1.731760 
# 
# From -- ./inp_files/208114.got.cif
#   From: 2010.05.17/outbox.cif.g08.bks.cpg/sg15_105_cif.got.tgz:208114.got - 2010.06.03 18:47:42.
