data_PCOD9305913
_publ_section_title
;
Structure prediction by ZEFSAII (Michael W. Deem and Ramdas Pophale) SiO2 
 PCOD9305913
Probable space group: C 2/C
;
_chemical_formula_sum "Si O2"
_cell_formula_units_Z 44
_cell_length_a 8.638398
_cell_length_b 14.336943
_cell_length_c 19.130844
_cell_angle_alpha 90.000000
_cell_angle_beta 53.873428
_cell_angle_gamma 90.000000
_cell_volume 1913.739752
_symmetry_space_group_name_H-M "C 2/C"
_symmetry_group_IT_number 15
_symmetry_cell_setting 'monoclinic'
loop_
_space_group_symop_operation_xyz
x,y,z
-x,y,1/2-z
-x,-y,-z
x,-y,1/2+z
1/2+x,1/2+y,z
1/2-x,1/2+y,1/2-z
1/2-x,1/2-y,-z
1/2+x,1/2-y,1/2+z
loop_
_atom_site_type_symbol
_atom_site_label
_atom_site_fract_x
_atom_site_fract_y
_atom_site_fract_z
Si Si1 0.500000 0.612392 0.750000
Si Si2 0.421512 0.415069 0.116628
Si Si3 0.966838 0.597702 0.048018
Si Si4 0.752012 0.420942 0.912486
Si Si5 0.630517 0.775000 0.388915
Si Si6 0.663768 0.741492 0.148387
O O1 0.521208 0.563057 0.819108
O O2 0.691150 0.673975 0.693461
O O3 0.266711 0.488006 0.129268
O O4 0.329236 0.312384 0.130915
O O5 0.603942 0.426886 0.017271
O O6 0.756469 0.641843 0.105647
O O7 0.042705 0.589562 0.106499
O O8 0.000000 0.500000 0.000000
O O9 0.089645 0.674258 0.972876
O O10 0.687515 0.331230 0.886563
O O11 0.440752 0.781657 0.392447
O O12 0.500000 0.733394 0.250000
#
# Coordination Sequence:
#
# PCOD9305913 Si02
#       6
#     4   8   8   8   8   8
#     4  12  24  46  72 108 148 192 242 314 364 424
#     4  11  24  48  75 107 146 189 245 303 367 440
#     4  12  26  47  74 104 142 195 248 296 366 442
#     4  11  25  46  77 104 141 197 245 295 367 450
#     4  12  25  45  74 104 148 191 242 304 363 438
#     4  12  26  47  72 106 149 189 243 307 370 428
#
# _framework density 22.991631000000002
#
# number of rings (size 3 to 8) (size 9 to 14) (size 15 to 20)
#    0.000    0.364    5.455    3.273    5.091    0.000 
#    8.182    0.000    0.000    0.000    0.000    0.000 
#    0.000    0.000    0.000    0.000    0.000    0.000 
#
# Total GULP energy -123212.491078 kJ/mol
# GULP energy per Si atom -5600.567776 kJ/mol
# Density = 2.293930 g / cm^3
# Si number density = 22.991631 Si / 1000 Ang^3
#
#
#
# Elastic Constant Matrix: (Units=GPa)
#
#
# Indices 1 2 3 4 5 6 
#
# 1 114.4826 15.9187 15.3667 0.0001 23.5792 0.0000
# 2 15.9187 101.8731 23.6103 0.0000 2.4275 0.0000
# 3 15.3667 23.6103 75.7761 0.0000 9.4508 0.0000
# 4 0.0001 0.0000 0.0000 12.2828 0.0000 7.0926
# 5 23.5792 2.4275 9.4508 0.0000 39.6247 0.0000
# 6 0.0000 0.0000 0.0000 7.0926 0.0000 31.7995
#
#
#
# Elastic Compliance Matrix: (Units=1/GPa)
#
#
# Indices 1 2 3 4 5 6 
#
# 1 0.010227 -0.001236 -0.000968 0.000000 -0.005779 0.000000
# 2 -0.001236 0.010730 -0.003198 0.000000 0.000841 0.000000
# 3 -0.000968 -0.003198 0.014731 0.000000 -0.002742 0.000000
# 4 0.000000 0.000000 0.000000 0.093451 0.000000 -0.020844
# 5 -0.005779 0.000841 -0.002742 0.000000 0.029278 0.000000
# 6 0.000000 0.000000 0.000000 -0.020844 0.000000 0.036096
#
#
# Mechanical properties :
#
#
# Convention : Reuss Voigt Hill
#
# Bulk Modulus (GPa) = 40.18418 44.65813 42.42116
# Shear Modulus (GPa) = 23.40690 32.55713 27.98202
#
# Velocity S-wave (km/s) = 3.19417 3.76712 3.49241
# Velocity P-wave (km/s) = 5.57847 6.19575 5.89520
#
# Compressibility (1/GPa) = 0.02488542
#
# Stress axis : x y z
#
# Youngs Moduli (GPa) = 97.77991 93.19393 67.88258
#
# Poissons Ratio (x) = 0.11519 0.06571
# Poissons Ratio (y) = 0.12086 0.21706
# Poissons Ratio (z) = 0.09466 0.29799
#
# Static dielectric constant tensor:
#      x y z
#    x 1.920470 0.000000 0.048910 
#    y 0.000000 1.829470 0.000000 
#    z 0.048910 0.000000 1.887240 
# 
# From -- ./inp_files/189172.got.cif
#   From: 2010.05.17/outbox.cif.g08.bks.cpg/sg15_95_cif.got.tgz:189172.got - 2010.06.03 18:47:42.
