data_PCOD9305685
_publ_section_title
;
Structure prediction by ZEFSAII (Michael W. Deem and Ramdas Pophale) SiO2 
 PCOD9305685
Probable space group: C 2/C
;
_chemical_formula_sum "Si O2"
_cell_formula_units_Z 56
_cell_length_a 15.084122
_cell_length_b 12.140297
_cell_length_c 30.343927
_cell_angle_alpha 90.000000
_cell_angle_beta 27.990501
_cell_angle_gamma 90.000000
_cell_volume 2607.924306
_symmetry_space_group_name_H-M "C 2/C"
_symmetry_group_IT_number 15
_symmetry_cell_setting 'monoclinic'
loop_
_space_group_symop_operation_xyz
x,y,z
-x,y,1/2-z
-x,-y,-z
x,-y,1/2+z
1/2+x,1/2+y,z
1/2-x,1/2+y,1/2-z
1/2-x,1/2-y,-z
1/2+x,1/2-y,1/2+z
loop_
_atom_site_type_symbol
_atom_site_label
_atom_site_fract_x
_atom_site_fract_y
_atom_site_fract_z
Si Si1 0.979112 0.024339 0.060054
Si Si2 0.203416 0.239038 0.970069
Si Si3 0.697318 0.646363 0.747918
Si Si4 0.490298 0.034977 0.953316
Si Si5 0.804894 0.877242 0.463632
Si Si6 0.967535 0.405261 0.211062
Si Si7 0.098188 0.622784 0.251744
O O1 0.759783 0.032302 0.169327
O O2 0.096547 0.941682 0.038915
O O3 0.040782 0.149714 0.038071
O O4 0.000000 0.000000 0.000000
O O5 0.377349 0.186170 0.869537
O O6 0.250000 0.250000 0.000000
O O7 0.138830 0.357728 0.984938
O O8 0.475946 0.616258 0.852248
O O9 0.802241 0.632053 0.748914
O O10 0.679622 0.775233 0.742326
O O11 0.677659 0.077583 0.843332
O O12 0.500000 0.000000 0.000000
O O13 0.376745 0.942146 0.975544
O O14 0.750000 0.750000 0.500000
O O15 0.033309 0.530700 0.167585
O O16 0.000000 0.402257 0.250000
O O17 0.000000 0.663396 0.250000
#
# Coordination Sequence:
#
# PCOD9305685 Si02
#       7
#     8   8   8   8   8   8   8
#     4  12  24  44  75 106 145 197 252 316 382 461
#     4  12  23  47  76 104 151 201 255 318 387 468
#     4  12  27  48  80 108 159 204 254 329 400 463
#     4  12  30  54  76 112 158 211 265 322 404 488
#     4  12  31  48  77 119 156 200 266 330 394 472
#     4  11  24  46  73 115 146 201 261 318 386 469
#     4  11  25  44  74 108 146 196 258 310 388 466
#
# _framework density 21.473016000000001
#
# number of rings (size 3 to 8) (size 9 to 14) (size 15 to 20)
#    0.000    0.286    5.714    1.714   10.000    0.000 
#    2.571    0.000    0.000    0.000    0.000    0.000 
#    0.000    0.000    0.000    0.000    0.000    0.000 
#
# Total GULP energy -155996.379120 kJ/mol
# GULP energy per Si atom -5571.299254 kJ/mol
# Density = 2.142414 g / cm^3
# Si number density = 21.473016 Si / 1000 Ang^3
#
#
#
# Elastic Constant Matrix: (Units=GPa)
#
#
# Indices 1 2 3 4 5 6 
#
# 1 175.8632 93.2479 42.3165 0.0002 22.2132 -0.0001
# 2 93.2479 179.2347 36.4110 0.0004 10.8720 -0.0002
# 3 42.3165 36.4110 110.4473 0.0004 9.3258 -0.0013
# 4 0.0002 0.0004 0.0004 32.2547 -0.0009 -0.0641
# 5 22.2132 10.8720 9.3258 -0.0009 27.9618 -0.0003
# 6 -0.0001 -0.0002 -0.0013 -0.0641 -0.0003 24.3387
#
#
#
# Elastic Compliance Matrix: (Units=1/GPa)
#
#
# Indices 1 2 3 4 5 6 
#
# 1 0.008793 -0.003941 -0.001656 0.000000 -0.004901 0.000000
# 2 -0.003941 0.007827 -0.001109 0.000000 0.000457 0.000000
# 3 -0.001656 -0.001109 0.010194 0.000000 -0.001653 0.000001
# 4 0.000000 0.000000 0.000000 0.031003 0.000001 0.000082
# 5 -0.004901 0.000457 -0.001653 0.000001 0.040030 0.000000
# 6 0.000000 0.000000 0.000001 0.000082 0.000000 0.041087
#
#
# Mechanical properties :
#
#
# Convention : Reuss Voigt Hill
#
# Bulk Modulus (GPa) = 74.61522 89.94399 82.27961
# Shear Modulus (GPa) = 31.88480 36.48237 34.18358
#
# Velocity S-wave (km/s) = 3.85759 4.12635 3.99423
# Velocity P-wave (km/s) = 7.39359 8.04240 7.72481
#
# Compressibility (1/GPa) = 0.01340209
#
# Stress axis : x y z
#
# Youngs Moduli (GPa) = 113.72083 127.75913 98.09932
#
# Poissons Ratio (x) = 0.50352 0.16245
# Poissons Ratio (y) = 0.44819 0.10879
# Poissons Ratio (z) = 0.18832 0.14169
#
# Static dielectric constant tensor:
#      x y z
#    x 1.715980 0.000000 -0.143510 
#    y 0.000000 2.045790 0.000000 
#    z -0.143510 0.000000 2.416640 
# 
# From -- ./inp_files/313714.got.cif
#   From: 2010.05.17/outbox.cif.g08.bks.cpg/sg15_157_cif.got.tgz:313714.got - 2010.06.03 18:47:42.
