data_PCOD9305690
_publ_section_title
;
Structure prediction by ZEFSAII (Michael W. Deem and Ramdas Pophale) SiO2 
 PCOD9305690
Probable space group: C 2/C
;
_chemical_formula_sum "Si O2"
_cell_formula_units_Z 36
_cell_length_a 4.782503
_cell_length_b 24.559241
_cell_length_c 12.305358
_cell_angle_alpha 90.000000
_cell_angle_beta 103.347514
_cell_angle_gamma 90.000000
_cell_volume 1406.280076
_symmetry_space_group_name_H-M "C 2/C"
_symmetry_group_IT_number 15
_symmetry_cell_setting 'monoclinic'
loop_
_space_group_symop_operation_xyz
x,y,z
-x,y,1/2-z
-x,-y,-z
x,-y,1/2+z
1/2+x,1/2+y,z
1/2-x,1/2+y,1/2-z
1/2-x,1/2-y,-z
1/2+x,1/2-y,1/2+z
loop_
_atom_site_type_symbol
_atom_site_label
_atom_site_fract_x
_atom_site_fract_y
_atom_site_fract_z
Si Si1 0.000000 0.146905 0.250000
Si Si2 0.500000 0.539299 0.750000
Si Si3 0.266758 0.557958 0.356285
Si Si4 0.235978 0.680499 0.867446
Si Si5 0.802417 0.389116 0.428752
Si Si6 0.000000 0.728460 0.250000
O O1 0.990037 0.102940 0.151449
O O2 0.232978 0.188041 0.221463
O O3 0.603602 0.500304 0.661344
O O4 0.229511 0.573420 0.680835
O O5 0.162585 0.571586 0.466405
O O6 0.000000 0.566942 0.250000
O O7 0.484940 0.636537 0.897334
O O8 0.418620 0.734060 0.847420
O O9 0.000000 0.678947 0.750000
O O10 0.026591 0.661328 0.946537
#
# Coordination Sequence:
#
# PCOD9305690 Si02
#       6
#     4   4   8   8   8   4
#     4  11  24  46  73  98 155 192 234 301 356 426
#     4  11  25  46  74 110 142 194 239 301 354 430
#     4  11  28  48  71 106 150 199 241 285 365 434
#     4  12  22  44  74 110 139 184 241 302 360 418
#     4  12  26  45  75 108 149 184 240 305 354 424
#     4  12  21  46  79 106 143 188 243 302 356 438
#
# _framework density 25.599451999999999
#
# number of rings (size 3 to 8) (size 9 to 14) (size 15 to 20)
#    0.000    0.444    6.667    0.667    9.333    0.889 
#    0.000    6.667    0.000    0.000    0.000    0.000 
#    0.000    0.000    0.000    0.000    0.000    0.000 
#
# Total GULP energy -100333.415242 kJ/mol
# GULP energy per Si atom -5574.078625 kJ/mol
# Density = 2.554119 g / cm^3
# Si number density = 25.599452 Si / 1000 Ang^3
#
#
#
# Elastic Constant Matrix: (Units=GPa)
#
#
# Indices 1 2 3 4 5 6 
#
# 1 148.9572 36.5503 20.5753 0.0000 -8.0974 0.0000
# 2 36.5503 112.1201 27.3703 0.0000 -3.1415 0.0000
# 3 20.5753 27.3703 73.8436 0.0000 -5.2621 0.0000
# 4 0.0000 0.0000 0.0000 6.8127 0.0000 -7.0101
# 5 -8.0974 -3.1415 -5.2621 0.0000 32.8671 0.0000
# 6 0.0000 0.0000 0.0000 -7.0101 0.0000 23.4940
#
#
#
# Elastic Compliance Matrix: (Units=1/GPa)
#
#
# Indices 1 2 3 4 5 6 
#
# 1 0.007474 -0.002103 -0.001200 0.000000 0.001448 0.000000
# 2 -0.002103 0.010402 -0.003273 0.000000 -0.000048 0.000000
# 3 -0.001200 -0.003273 0.015220 0.000000 0.001828 0.000000
# 4 0.000000 0.000000 0.000000 0.211815 0.000000 0.063201
# 5 0.001448 -0.000048 0.001828 0.000000 0.031070 0.000000
# 6 0.000000 0.000000 0.000000 0.063201 0.000000 0.061422
#
#
# Mechanical properties :
#
#
# Convention : Reuss Voigt Hill
#
# Bulk Modulus (GPa) = 50.13959 55.99030 53.06494
# Shear Modulus (GPa) = 13.99766 29.32979 21.66372
#
# Velocity S-wave (km/s) = 2.34090 3.38852 2.91221
# Velocity P-wave (km/s) = 5.18991 6.10152 5.66409
#
# Compressibility (1/GPa) = 0.01994432
#
# Stress axis : x y z
#
# Youngs Moduli (GPa) = 133.80084 96.13342 65.70346
#
# Poissons Ratio (x) = 0.20216 0.07883
# Poissons Ratio (y) = 0.28137 0.21505
# Poissons Ratio (z) = 0.16053 0.31465
#
# Static dielectric constant tensor:
#      x y z
#    x 2.068130 0.000000 -0.066460 
#    y 0.000000 2.045390 0.000000 
#    z -0.066460 0.000000 1.975740 
# 
# From -- ./inp_files/72721.got.cif
#   From: 2010.05.17/outbox.cif.g08.bks.cpg/sg15_37_cif.got.tgz:72721.got - 2010.06.03 18:47:42.
