data_PCOD9305836
_publ_section_title
;
Structure prediction by ZEFSAII (Michael W. Deem and Ramdas Pophale) SiO2 
 PCOD9305836
Probable space group: C 2/C
;
_chemical_formula_sum "Si O2"
_cell_formula_units_Z 24
_cell_length_a 16.063260
_cell_length_b 10.104540
_cell_length_c 10.356774
_cell_angle_alpha 90.000000
_cell_angle_beta 149.056612
_cell_angle_gamma 90.000000
_cell_volume 864.368856
_symmetry_space_group_name_H-M "C 2/C"
_symmetry_group_IT_number 15
_symmetry_cell_setting 'monoclinic'
loop_
_space_group_symop_operation_xyz
x,y,z
-x,y,1/2-z
-x,-y,-z
x,-y,1/2+z
1/2+x,1/2+y,z
1/2-x,1/2+y,1/2-z
1/2-x,1/2-y,-z
1/2+x,1/2-y,1/2+z
loop_
_atom_site_type_symbol
_atom_site_label
_atom_site_fract_x
_atom_site_fract_y
_atom_site_fract_z
Si Si1 0.439704 0.673060 0.867893
Si Si2 0.760314 0.292787 0.161238
Si Si3 0.852509 0.539385 0.148007
O O1 0.396149 0.684703 0.960936
O O2 0.326362 0.559808 0.656241
O O3 0.393558 0.811643 0.741381
O O4 0.633028 0.684396 0.119252
O O5 0.840020 0.437227 0.248890
O O6 0.750000 0.250000 0.000000
O O7 0.000000 0.495068 0.250000
#
# Coordination Sequence:
#
# PCOD9305836 Si02
#       3
#     8   8   8
#     4  11  25  46  72 103 137 185 240 282 352 424
#     4  12  26  45  71 105 143 183 234 291 352 418
#     4  11  24  47  76  96 141 194 224 290 360 411
#
# _framework density 27.765923999999998
#
# number of rings (size 3 to 8) (size 9 to 14) (size 15 to 20)
#    0.000    0.667    3.333    4.000    4.667    1.333 
#    6.000    0.000    0.000    0.000    0.000    0.000 
#    0.000    0.000    0.000    0.000    0.000    0.000 
#
# Total GULP energy -67173.302746 kJ/mol
# GULP energy per Si atom -5597.775229 kJ/mol
# Density = 2.770273 g / cm^3
# Si number density = 27.765924 Si / 1000 Ang^3
#
#
#
# Elastic Constant Matrix: (Units=GPa)
#
#
# Indices 1 2 3 4 5 6 
#
# 1 116.7245 -10.6161 -8.3482 0.0000 17.5060 0.0000
# 2 -10.6161 101.5359 23.7301 0.0000 6.8683 0.0000
# 3 -8.3482 23.7301 121.0415 0.0000 8.7484 0.0000
# 4 0.0000 0.0000 0.0000 36.1892 0.0000 -5.3737
# 5 17.5060 6.8683 8.7484 0.0000 45.1033 0.0000
# 6 0.0000 0.0000 0.0000 -5.3737 0.0000 44.5839
#
#
#
# Elastic Compliance Matrix: (Units=1/GPa)
#
#
# Indices 1 2 3 4 5 6 
#
# 1 0.009302 0.001070 0.000715 0.000000 -0.003912 0.000000
# 2 0.001070 0.010509 -0.001867 0.000000 -0.001654 0.000000
# 3 0.000715 -0.001867 0.008800 0.000000 -0.001700 0.000000
# 4 0.000000 0.000000 0.000000 0.028136 0.000000 0.003391
# 5 -0.003912 -0.001654 -0.001700 0.000000 0.024271 0.000000
# 6 0.000000 0.000000 0.000000 0.003391 0.000000 0.022838
#
#
# Mechanical properties :
#
#
# Convention : Reuss Voigt Hill
#
# Bulk Modulus (GPa) = 35.15356 38.75928 36.95642
# Shear Modulus (GPa) = 44.05162 47.47768 45.76465
#
# Velocity S-wave (km/s) = 3.98745 4.13961 4.06425
# Velocity P-wave (km/s) = 5.82133 6.06944 5.94668
#
# Compressibility (1/GPa) = 0.02844662
#
# Stress axis : x y z
#
# Youngs Moduli (GPa) = 107.49971 95.15827 113.63931
#
# Poissons Ratio (x) = -0.10184 -0.08120
# Poissons Ratio (y) = -0.11505 0.21216
# Poissons Ratio (z) = -0.07681 0.17765
#
# Static dielectric constant tensor:
#      x y z
#    x 2.034200 0.000000 0.014080 
#    y 0.000000 2.180650 0.000000 
#    z 0.014080 0.000000 2.383410 
# 
# From -- ./inp_files/26816.got.cif
#   From: 2010.05.17/outbox.cif.g08.bks.cpg/sg15_14_cif.got.tgz:26816.got - 2010.06.03 18:47:42.
