data_PCOD9305628
_publ_section_title
;
Structure prediction by ZEFSAII (Michael W. Deem and Ramdas Pophale) SiO2 
 PCOD9305628
Probable space group: C 2/C
;
_chemical_formula_sum "Si O2"
_cell_formula_units_Z 40
_cell_length_a 11.311943
_cell_length_b 23.821072
_cell_length_c 12.984318
_cell_angle_alpha 90.000000
_cell_angle_beta 147.969888
_cell_angle_gamma 90.000000
_cell_volume 1855.634404
_symmetry_space_group_name_H-M "C 2/C"
_symmetry_group_IT_number 15
_symmetry_cell_setting 'monoclinic'
loop_
_space_group_symop_operation_xyz
x,y,z
-x,y,1/2-z
-x,-y,-z
x,-y,1/2+z
1/2+x,1/2+y,z
1/2-x,1/2+y,1/2-z
1/2-x,1/2-y,-z
1/2+x,1/2-y,1/2+z
loop_
_atom_site_type_symbol
_atom_site_label
_atom_site_fract_x
_atom_site_fract_y
_atom_site_fract_z
Si Si1 0.500000 0.477718 0.250000
Si Si2 0.500000 0.660048 0.250000
Si Si3 0.735549 0.431564 0.063169
Si Si4 0.209802 0.111896 0.772934
Si Si5 0.119466 0.690641 0.117194
Si Si6 0.645785 0.707791 0.008981
O O1 0.604018 0.516245 0.416310
O O2 0.315134 0.436906 0.161996
O O3 0.655922 0.620898 0.435789
O O4 0.333765 0.692003 0.202890
O O5 0.678130 0.416062 0.137924
O O6 0.000000 0.440332 0.250000
O O7 0.019391 0.159230 0.650226
O O8 0.445710 0.143334 0.953645
O O9 0.180790 0.681230 0.282770
O O10 0.998517 0.750222 0.027420
O O11 0.750000 0.750000 0.000000
#
# Coordination Sequence:
#
# PCOD9305628 Si02
#       6
#     4   4   8   8   8   8
#     4  11  28  44  74 106 136 184 246 299 362 426
#     4  11  24  46  70 106 142 190 244 291 356 426
#     4  11  24  48  72 101 141 183 245 304 353 423
#     4  12  25  47  73 105 144 191 232 297 364 418
#     4  12  25  43  73 104 145 193 235 287 355 433
#     4  12  26  44  70 108 151 187 234 290 356 441
#
# _framework density 21.555969999999999
#
# number of rings (size 3 to 8) (size 9 to 14) (size 15 to 20)
#    0.000    0.400    6.000    2.400    0.000    3.200 
#    1.800    0.000    0.000    0.000    0.000    0.000 
#    0.000    0.000    0.000    0.000    0.000    0.000 
#
# Total GULP energy -111866.251520 kJ/mol
# GULP energy per Si atom -5593.312576 kJ/mol
# Density = 2.150691 g / cm^3
# Si number density = 21.555970 Si / 1000 Ang^3
#
#
#
# Elastic Constant Matrix: (Units=GPa)
#
#
# Indices 1 2 3 4 5 6 
#
# 1 147.2426 71.5002 49.4863 0.0002 -10.9790 0.0000
# 2 71.5002 114.8261 41.1107 0.0000 2.7975 0.0000
# 3 49.4863 41.1107 111.7671 0.0003 -1.9362 -0.0001
# 4 0.0002 0.0000 0.0003 4.4731 0.0004 -4.0579
# 5 -10.9790 2.7975 -1.9362 0.0004 33.0355 -0.0001
# 6 0.0000 0.0000 -0.0001 -4.0579 -0.0001 31.7747
#
#
#
# Elastic Compliance Matrix: (Units=1/GPa)
#
#
# Indices 1 2 3 4 5 6 
#
# 1 0.010815 -0.005920 -0.002543 -0.000001 0.003947 0.000000
# 2 -0.005920 0.013308 -0.002330 0.000001 -0.003231 0.000000
# 3 -0.002543 -0.002330 0.010930 -0.000001 -0.000007 0.000000
# 4 -0.000001 0.000001 -0.000001 0.252854 -0.000003 0.032291
# 5 0.003947 -0.003231 -0.000007 -0.000003 0.031855 0.000000
# 6 0.000000 0.000000 0.000000 0.032291 0.000000 0.035595
#
#
# Mechanical properties :
#
#
# Convention : Reuss Voigt Hill
#
# Bulk Modulus (GPa) = 74.25086 77.55890 75.90488
# Shear Modulus (GPa) = 13.10850 27.97256 20.54053
#
# Velocity S-wave (km/s) = 2.46867 3.60623 3.09025
# Velocity P-wave (km/s) = 6.53040 7.30741 6.92980
#
# Compressibility (1/GPa) = 0.01346786
#
# Stress axis : x y z
#
# Youngs Moduli (GPa) = 92.46285 75.14223 91.49344
#
# Poissons Ratio (x) = 0.44486 0.23263
# Poissons Ratio (y) = 0.54740 0.21316
# Poissons Ratio (z) = 0.23509 0.17506
#
# Static dielectric constant tensor:
#      x y z
#    x 1.801950 0.000000 -0.011810 
#    y 0.000000 1.742800 0.000000 
#    z -0.011810 0.000000 1.825190 
# 
# From -- ./inp_files/148192.got.cif
#   From: 2010.05.17/outbox.cif.g08.bks.cpg/sg15_75_cif.got.tgz:148192.got - 2010.06.03 18:47:42.
