data_PCOD9305220
_publ_section_title
;
Structure prediction by ZEFSAII (Michael W. Deem and Ramdas Pophale) SiO2 
 PCOD9305220
Probable space group: C 2/C
;
_chemical_formula_sum "Si O2"
_cell_formula_units_Z 40
_cell_length_a 17.562641
_cell_length_b 6.240418
_cell_length_c 19.317066
_cell_angle_alpha 90.000000
_cell_angle_beta 112.415406
_cell_angle_gamma 90.000000
_cell_volume 1957.154265
_symmetry_space_group_name_H-M "C 2/C"
_symmetry_group_IT_number 15
_symmetry_cell_setting 'monoclinic'
loop_
_space_group_symop_operation_xyz
x,y,z
-x,y,1/2-z
-x,-y,-z
x,-y,1/2+z
1/2+x,1/2+y,z
1/2-x,1/2+y,1/2-z
1/2-x,1/2-y,-z
1/2+x,1/2-y,1/2+z
loop_
_atom_site_type_symbol
_atom_site_label
_atom_site_fract_x
_atom_site_fract_y
_atom_site_fract_z
Si Si1 0.593331 0.478112 0.285466
Si Si2 0.664354 0.741761 0.429347
Si Si3 0.674736 0.070973 0.307565
Si Si4 0.842449 0.760386 0.818249
Si Si5 0.003457 0.252244 0.468169
O O1 0.500000 0.563667 0.250000
O O2 0.640976 0.541071 0.372027
O O3 0.597132 0.225388 0.282840
O O4 0.640750 0.559989 0.234227
O O5 0.750000 0.750000 0.500000
O O6 0.589157 0.759106 0.456366
O O7 0.669154 0.924286 0.372636
O O8 0.762196 0.191231 0.335656
O O9 0.671100 0.945740 0.234071
O O10 0.923194 0.746756 0.892235
O O11 0.000000 0.500000 0.500000
O O12 0.000000 0.000000 0.500000
#
# Coordination Sequence:
#
# PCOD9305220 Si02
#       5
#     8   8   8   8   8
#     4  11  24  43  71  99 141 180 237 298 360 427
#     4  11  27  46  68 103 141 191 240 295 365 427
#     4  11  25  41  73  99 140 187 238 302 354 435
#     4  11  24  45  68 105 138 186 243 293 363 430
#     4  12  30  48  75 104 148 193 242 300 363 430
#
# _framework density 20.437836000000001
#
# number of rings (size 3 to 8) (size 9 to 14) (size 15 to 20)
#    0.000    0.800    4.000    1.200   11.200    0.800 
#    0.000    0.000    0.000    0.000    0.000    0.000 
#    0.000    0.000    0.000    0.000    0.000    0.000 
#
# Total GULP energy -111360.551260 kJ/mol
# GULP energy per Si atom -5568.027563 kJ/mol
# Density = 2.039132 g / cm^3
# Si number density = 20.437836 Si / 1000 Ang^3
#
#
#
# Elastic Constant Matrix: (Units=GPa)
#
#
# Indices 1 2 3 4 5 6 
#
# 1 164.7659 51.7618 69.1912 0.0000 4.9869 0.0000
# 2 51.7618 100.3774 40.0699 0.0000 -7.4709 0.0000
# 3 69.1912 40.0699 98.9967 0.0000 18.2753 0.0000
# 4 0.0000 0.0000 0.0000 -44.6348 0.0000 26.6926
# 5 4.9869 -7.4709 18.2753 0.0000 44.6992 0.0000
# 6 0.0000 0.0000 0.0000 26.6926 0.0000 20.7514
#
#
#
# Elastic Compliance Matrix: (Units=1/GPa)
#
#
# Indices 1 2 3 4 5 6 
#
# 1 0.009143 -0.002431 -0.005563 0.000000 0.000848 0.000000
# 2 -0.002431 0.013335 -0.004500 0.000000 0.004340 0.000000
# 3 -0.005563 -0.004500 0.017128 0.000000 -0.007134 0.000000
# 4 0.000000 0.000000 0.000000 -0.012663 0.000000 0.016289
# 5 0.000848 0.004340 -0.007134 0.000000 0.025919 0.000000
# 6 0.000000 0.000000 0.000000 0.016289 0.000000 0.027237
#
#
# Mechanical properties :
#
#
# Convention : Reuss Voigt Hill
#
# Bulk Modulus (GPa) = 68.40455 76.24287 72.32371
# Shear Modulus (GPa) = 45.47084 17.70428 31.58756
#
# Velocity S-wave (km/s) = 4.72193 2.94641 3.93560
# Velocity P-wave (km/s) = 7.95431 6.99720 7.49106
#
# Compressibility (1/GPa) = 0.01461891
#
# Stress axis : x y z
#
# Youngs Moduli (GPa) = 109.36785 74.98924 58.38482
#
# Poissons Ratio (x) = 0.18231 0.32480
# Poissons Ratio (y) = 0.26589 0.26270
# Poissons Ratio (z) = 0.60842 0.33741
#
# Static dielectric constant tensor:
#      x y z
#    x 1.689630 0.000000 0.000440 
#    y 0.000000 1.850320 0.000000 
#    z 0.000440 0.000000 1.707750 
# 
# From -- ./inp_files/246314.got.cif
#   From: 2010.05.17/outbox.cif.g08.bks.cpg/sg15_124_cif.got.tgz:246314.got - 2010.06.03 18:47:42.
