data_PCOD9305984
_publ_section_title
;
Structure prediction by ZEFSAII (Michael W. Deem and Ramdas Pophale) SiO2 
 PCOD9305984
Probable space group: C 2/C
;
_chemical_formula_sum "Si O2"
_cell_formula_units_Z 36
_cell_length_a 15.379264
_cell_length_b 10.036118
_cell_length_c 15.001845
_cell_angle_alpha 90.000000
_cell_angle_beta 144.706872
_cell_angle_gamma 90.000000
_cell_volume 1337.806358
_symmetry_space_group_name_H-M "C 2/C"
_symmetry_group_IT_number 15
_symmetry_cell_setting 'monoclinic'
loop_
_space_group_symop_operation_xyz
x,y,z
-x,y,1/2-z
-x,-y,-z
x,-y,1/2+z
1/2+x,1/2+y,z
1/2-x,1/2+y,1/2-z
1/2-x,1/2-y,-z
1/2+x,1/2-y,1/2+z
loop_
_atom_site_type_symbol
_atom_site_label
_atom_site_fract_x
_atom_site_fract_y
_atom_site_fract_z
Si Si1 0.858428 0.242803 0.229292
Si Si2 0.211660 0.019324 0.922939
Si Si3 0.001215 0.907134 0.092408
Si Si4 0.500000 0.027248 0.750000
Si Si5 0.946059 0.345387 0.958366
O O1 0.839154 0.133474 0.137323
O O2 0.483625 0.254314 0.052744
O O3 0.871306 0.384938 0.192003
O O4 0.008187 0.267462 0.411941
O O5 0.268417 0.810534 0.808541
O O6 0.877015 0.062672 0.563341
O O7 0.388309 0.042168 0.087873
O O8 0.153379 0.920411 0.279806
O O9 0.000000 0.000000 0.000000
O O10 0.000000 0.500000 0.000000
#
# Coordination Sequence:
#
# PCOD9305984 Si02
#       5
#     8   8   8   4   8
#     4  12  26  49  84 122 176 227 291 354 432 522
#     4  11  25  47  86 127 167 232 292 357 434 516
#     4  11  24  50  88 121 176 232 290 367 433 517
#     4  12  24  44  84 136 166 220 292 364 432 526
#     4  12  30  53  85 129 176 232 294 360 440 524
#
# _framework density 26.909721999999999
#
# number of rings (size 3 to 8) (size 9 to 14) (size 15 to 20)
#    0.000    0.444    4.444    3.333    6.222    1.778 
#    0.000    6.667    0.000    1.333    0.000    0.000 
#    0.000    0.000    0.000    0.000    0.000    0.000 
#
# Total GULP energy -100302.863928 kJ/mol
# GULP energy per Si atom -5572.381329 kJ/mol
# Density = 2.684847 g / cm^3
# Si number density = 26.909722 Si / 1000 Ang^3
#
#
#
# Elastic Constant Matrix: (Units=GPa)
#
#
# Indices 1 2 3 4 5 6 
#
# 1 152.8747 100.2436 40.5736 0.0000 -24.5554 0.0000
# 2 100.2436 178.7167 77.3149 0.0000 -9.4241 0.0000
# 3 40.5736 77.3149 201.7477 0.0000 -8.1371 0.0000
# 4 0.0000 0.0000 0.0000 17.4935 0.0000 4.4013
# 5 -24.5554 -9.4241 -8.1371 0.0000 46.1988 0.0000
# 6 0.0000 0.0000 0.0000 4.4013 0.0000 42.3222
#
#
#
# Elastic Compliance Matrix: (Units=1/GPa)
#
#
# Indices 1 2 3 4 5 6 
#
# 1 0.011312 -0.006223 0.000303 0.000000 0.004796 0.000000
# 2 -0.006223 0.010170 -0.002715 0.000000 -0.001711 0.000000
# 3 0.000303 -0.002715 0.005963 0.000000 0.000658 0.000000
# 4 0.000000 0.000000 0.000000 0.058700 0.000000 -0.006105
# 5 0.004796 -0.001711 0.000658 0.000000 0.023962 0.000000
# 6 0.000000 0.000000 0.000000 -0.006105 0.000000 0.024263
#
#
# Mechanical properties :
#
#
# Convention : Reuss Voigt Hill
#
# Bulk Modulus (GPa) = 98.27753 107.73370 103.00561
# Shear Modulus (GPa) = 32.25152 42.21669 37.23410
#
# Velocity S-wave (km/s) = 3.46570 3.96514 3.72380
# Velocity P-wave (km/s) = 7.25364 7.81570 7.53991
#
# Compressibility (1/GPa) = 0.01017527
#
# Stress axis : x y z
#
# Youngs Moduli (GPa) = 88.40185 98.32382 167.71041
#
# Poissons Ratio (x) = 0.61190 -0.05089
# Poissons Ratio (y) = 0.55015 0.45534
# Poissons Ratio (z) = -0.02682 0.26695
#
# Static dielectric constant tensor:
#      x y z
#    x 2.509030 0.000000 0.066340 
#    y 0.000000 2.145840 0.000000 
#    z 0.066340 0.000000 2.268740 
# 
# From -- ./inp_files/214924.got.cif
#   From: 2010.05.17/outbox.cif.g08.bks.cpg/sg15_108_cif.got.tgz:214924.got - 2010.06.03 18:47:42.
