data_PCOD9305565
_publ_section_title
;
Structure prediction by ZEFSAII (Michael W. Deem and Ramdas Pophale) SiO2 
 PCOD9305565
Probable space group: C 2/C
;
_chemical_formula_sum "Si O2"
_cell_formula_units_Z 32
_cell_length_a 5.805723
_cell_length_b 12.816875
_cell_length_c 18.535688
_cell_angle_alpha 90.000000
_cell_angle_beta 109.533820
_cell_angle_gamma 90.000000
_cell_volume 1299.878793
_symmetry_space_group_name_H-M "C 2/C"
_symmetry_group_IT_number 15
_symmetry_cell_setting 'monoclinic'
loop_
_space_group_symop_operation_xyz
x,y,z
-x,y,1/2-z
-x,-y,-z
x,-y,1/2+z
1/2+x,1/2+y,z
1/2-x,1/2+y,1/2-z
1/2-x,1/2-y,-z
1/2+x,1/2-y,1/2+z
loop_
_atom_site_type_symbol
_atom_site_label
_atom_site_fract_x
_atom_site_fract_y
_atom_site_fract_z
Si Si1 0.737358 0.601078 0.323084
Si Si2 0.979299 0.386495 0.326064
Si Si3 0.183589 0.264080 0.906726
Si Si4 0.571028 0.516770 0.088116
O O1 0.500000 0.622230 0.250000
O O2 0.859303 0.500306 0.298678
O O3 0.662838 0.542277 0.389033
O O4 0.900893 0.702490 0.359713
O O5 0.819406 0.321197 0.368719
O O6 0.000000 0.335254 0.250000
O O7 0.254023 0.419697 0.376865
O O8 0.292626 0.374084 0.893548
O O9 0.250000 0.250000 0.000000
O O10 0.500000 0.500000 0.000000
#
# Coordination Sequence:
#
# PCOD9305565 Si02
#       4
#     8   8   8   8
#     4  11  24  48  73 106 157 200 262 336 404 463
#     4  11  24  48  75 108 151 206 264 331 403 472
#     4  11  26  46  75 113 152 205 270 326 400 489
#     4  11  24  45  75 104 155 203 253 324 402 477
#
# _framework density 24.61768
#
# number of rings (size 3 to 8) (size 9 to 14) (size 15 to 20)
#    0.000    1.000    2.500    3.000    0.000   11.000 
#    4.500    0.000    0.000    0.000    0.000    0.000 
#    0.000    0.000    0.000    0.000    0.000    0.000 
#
# Total GULP energy -89204.915506 kJ/mol
# GULP energy per Si atom -5575.307219 kJ/mol
# Density = 2.456165 g / cm^3
# Si number density = 24.617680 Si / 1000 Ang^3
#
#
#
# Elastic Constant Matrix: (Units=GPa)
#
#
# Indices 1 2 3 4 5 6 
#
# 1 115.9830 64.5462 77.3775 0.0000 -28.4504 0.0000
# 2 64.5462 212.8501 55.0897 0.0000 -5.3904 0.0000
# 3 77.3775 55.0897 182.2309 0.0000 -21.4954 0.0000
# 4 0.0000 0.0000 0.0000 31.7126 0.0000 -0.0717
# 5 -28.4504 -5.3904 -21.4954 0.0000 50.3001 0.0000
# 6 0.0000 0.0000 0.0000 -0.0717 0.0000 53.1296
#
#
#
# Elastic Compliance Matrix: (Units=1/GPa)
#
#
# Indices 1 2 3 4 5 6 
#
# 1 0.015040 -0.003190 -0.004696 0.000000 0.006159 0.000000
# 2 -0.003190 0.005774 -0.000559 0.000000 -0.001424 0.000000
# 3 -0.004696 -0.000559 0.007719 0.000000 0.000583 0.000000
# 4 0.000000 0.000000 0.000000 0.031533 0.000000 0.000043
# 5 0.006159 -0.001424 0.000583 0.000000 0.023461 0.000000
# 6 0.000000 0.000000 0.000000 0.000043 0.000000 0.018822
#
#
# Mechanical properties :
#
#
# Convention : Reuss Voigt Hill
#
# Bulk Modulus (GPa) = 85.87615 100.56565 93.22090
# Shear Modulus (GPa) = 40.61078 47.96515 44.28796
#
# Velocity S-wave (km/s) = 4.06601 4.41886 4.24610
# Velocity P-wave (km/s) = 7.55002 8.18381 7.87330
#
# Compressibility (1/GPa) = 0.01164468
#
# Stress axis : x y z
#
# Youngs Moduli (GPa) = 66.48751 173.18844 129.54765
#
# Poissons Ratio (x) = 0.55242 0.60831
# Poissons Ratio (y) = 0.21207 0.07244
# Poissons Ratio (z) = 0.31220 0.09684
#
# Static dielectric constant tensor:
#      x y z
#    x 1.554350 0.000000 0.213410 
#    y 0.000000 1.934620 0.000000 
#    z 0.213410 0.000000 1.863160 
# 
# From -- ./inp_files/183905.got.cif
#   From: 2010.05.17/outbox.cif.g08.bks.cpg/sg15_92_cif.got.tgz:183905.got - 2010.06.03 18:47:42.
