data_PCOD9305126
_publ_section_title
;
Structure prediction by ZEFSAII (Michael W. Deem and Ramdas Pophale) SiO2 
 PCOD9305126
Probable space group: C 2/C
;
_chemical_formula_sum "Si O2"
_cell_formula_units_Z 52
_cell_length_a 15.076939
_cell_length_b 16.566436
_cell_length_c 15.156101
_cell_angle_alpha 90.000000
_cell_angle_beta 38.007087
_cell_angle_gamma 90.000000
_cell_volume 2330.990385
_symmetry_space_group_name_H-M "C 2/C"
_symmetry_group_IT_number 15
_symmetry_cell_setting 'monoclinic'
loop_
_space_group_symop_operation_xyz
x,y,z
-x,y,1/2-z
-x,-y,-z
x,-y,1/2+z
1/2+x,1/2+y,z
1/2-x,1/2+y,1/2-z
1/2-x,1/2-y,-z
1/2+x,1/2-y,1/2+z
loop_
_atom_site_type_symbol
_atom_site_label
_atom_site_fract_x
_atom_site_fract_y
_atom_site_fract_z
Si Si1 0.863541 0.525610 0.010148
Si Si2 0.442218 0.481642 0.198236
Si Si3 0.538015 0.607719 0.986132
Si Si4 0.000000 0.393076 0.250000
Si Si5 0.234571 0.724659 0.613167
Si Si6 0.224647 0.793948 0.797515
Si Si7 0.970584 0.356048 0.983060
O O1 0.700488 0.530892 0.167736
O O2 0.958453 0.588262 0.994267
O O3 0.890962 0.554313 0.890624
O O4 0.902846 0.430686 0.982639
O O5 0.500000 0.456248 0.250000
O O6 0.397740 0.415476 0.159421
O O7 0.542573 0.538182 0.057235
O O8 0.622518 0.681918 0.962735
O O9 0.374374 0.632794 0.092606
O O10 0.101707 0.335595 0.226468
O O11 0.250000 0.750000 0.500000
O O12 0.203588 0.792814 0.708068
O O13 0.395304 0.811837 0.672519
O O14 0.147258 0.712179 0.896055
#
# Coordination Sequence:
#
# PCOD9305126 Si02
#       7
#     8   8   8   4   8   8   8
#     4  11  24  43  67  99 139 188 239 296 350 439
#     4  11  25  45  69 102 144 196 248 302 356 445
#     4  11  25  41  70 103 146 192 237 299 378 427
#     4  12  24  40  66 100 138 190 232 294 360 440
#     4  12  24  39  65 107 150 181 228 302 378 444
#     4  12  22  42  66 105 136 189 226 294 362 440
#     4  11  24  42  70  97 141 184 237 283 363 434
#
# _framework density 22.308112999999999
#
# number of rings (size 3 to 8) (size 9 to 14) (size 15 to 20)
#    0.000    0.615    4.615    3.692    4.308    1.231 
#    0.000    0.000    1.692    2.769    0.000    0.000 
#    0.000    0.000    0.000    0.000    0.000    0.000 
#
# Total GULP energy -144994.253273 kJ/mol
# GULP energy per Si atom -5576.702049 kJ/mol
# Density = 2.225734 g / cm^3
# Si number density = 22.308113 Si / 1000 Ang^3
#
#
#
# Elastic Constant Matrix: (Units=GPa)
#
#
# Indices 1 2 3 4 5 6 
#
# 1 56.3829 21.1833 22.0999 0.0001 6.9499 0.0002
# 2 21.1833 103.6631 40.0840 0.0000 -4.7652 0.0002
# 3 22.0999 40.0840 111.1157 0.0003 -1.6312 0.0003
# 4 0.0001 0.0000 0.0003 31.8019 -0.0002 -21.6087
# 5 6.9499 -4.7652 -1.6312 -0.0002 35.0066 -0.0002
# 6 0.0002 0.0002 0.0003 -21.6087 -0.0002 -11.2677
#
#
#
# Elastic Compliance Matrix: (Units=1/GPa)
#
#
# Indices 1 2 3 4 5 6 
#
# 1 0.020730 -0.003290 -0.003005 0.000000 -0.004703 0.000000
# 2 -0.003290 0.011796 -0.003570 0.000000 0.002093 0.000000
# 3 -0.003005 -0.003570 0.010894 0.000000 0.000618 0.000000
# 4 0.000000 0.000000 0.000000 0.013653 0.000000 -0.026184
# 5 -0.004703 0.002093 0.000618 0.000000 0.029813 0.000000
# 6 0.000000 0.000000 0.000000 -0.026184 0.000000 -0.038535
#
#
# Mechanical properties :
#
#
# Convention : Reuss Voigt Hill
#
# Bulk Modulus (GPa) = 42.21404 48.65511 45.43458
# Shear Modulus (GPa) = 65.80824 23.62779 44.71802
#
# Velocity S-wave (km/s) = 5.43725 3.25800 4.48209
# Velocity P-wave (km/s) = 7.64085 6.00088 6.86998
#
# Compressibility (1/GPa) = 0.02368880
#
# Stress axis : x y z
#
# Youngs Moduli (GPa) = 48.24000 84.77714 91.79166
#
# Poissons Ratio (x) = 0.27894 0.27584
# Poissons Ratio (y) = 0.15872 0.32770
# Poissons Ratio (z) = 0.14496 0.30266
#
# Static dielectric constant tensor:
#      x y z
#    x 2.369650 0.000000 -0.137690 
#    y 0.000000 1.899320 0.000000 
#    z -0.137690 0.000000 1.898510 
# 
# From -- ./inp_files/155437.got.cif
#   From: 2010.05.17/outbox.cif.g08.bks.cpg/sg15_78_cif.got.tgz:155437.got - 2010.06.03 18:47:42.
