data_PCOD9305669
_publ_section_title
;
Structure prediction by ZEFSAII (Michael W. Deem and Ramdas Pophale) SiO2 
 PCOD9305669
Probable space group: C 2/C
;
_chemical_formula_sum "Si O2"
_cell_formula_units_Z 48
_cell_length_a 29.180897
_cell_length_b 11.384553
_cell_length_c 14.942016
_cell_angle_alpha 90.000000
_cell_angle_beta 151.664390
_cell_angle_gamma 90.000000
_cell_volume 2356.046695
_symmetry_space_group_name_H-M "C 2/C"
_symmetry_group_IT_number 15
_symmetry_cell_setting 'monoclinic'
loop_
_space_group_symop_operation_xyz
x,y,z
-x,y,1/2-z
-x,-y,-z
x,-y,1/2+z
1/2+x,1/2+y,z
1/2-x,1/2+y,1/2-z
1/2-x,1/2-y,-z
1/2+x,1/2-y,1/2+z
loop_
_atom_site_type_symbol
_atom_site_label
_atom_site_fract_x
_atom_site_fract_y
_atom_site_fract_z
Si Si1 0.427464 0.751837 0.549961
Si Si2 0.075475 0.606063 0.638154
Si Si3 0.261204 0.065073 0.025314
Si Si4 0.766288 0.764603 0.177515
Si Si5 0.964183 0.977761 0.337665
Si Si6 0.476921 0.728596 0.114805
O O1 0.500000 0.803424 0.750000
O O2 0.412966 0.834930 0.439284
O O3 0.324732 0.727631 0.419511
O O4 0.479000 0.632588 0.605229
O O5 0.173538 0.548475 0.845094
O O6 0.000000 0.500000 0.500000
O O7 0.030007 0.700403 0.627566
O O8 0.292980 0.167039 0.148907
O O9 0.264696 0.119730 0.931824
O O10 0.149242 0.045590 0.853758
O O11 0.862943 0.780591 0.400298
O O12 0.000000 0.000000 0.500000
O O13 0.982870 0.096982 0.317470
O O14 0.500000 0.784985 0.250000
#
# Coordination Sequence:
#
# PCOD9305669 Si02
#       6
#     8   8   8   8   8   8
#     4  12  25  44  75 103 139 190 244 286 353 429
#     4  12  26  46  70 107 146 182 234 297 356 416
#     4  11  24  46  74 100 142 187 236 290 349 427
#     4  11  24  46  73 102 138 192 237 280 357 428
#     4  12  24  48  74 101 140 189 236 294 349 423
#     4  12  28  48  71 106 149 182 235 303 356 412
#
# _framework density 20.37311
#
# number of rings (size 3 to 8) (size 9 to 14) (size 15 to 20)
#    0.000    0.333    6.667    1.500    2.333    4.000 
#    0.000    0.000    0.000    0.000    0.000    0.000 
#    0.000    0.000    0.000    0.000    0.000    0.000 
#
# Total GULP energy -134278.118308 kJ/mol
# GULP energy per Si atom -5594.921596 kJ/mol
# Density = 2.032674 g / cm^3
# Si number density = 20.373110 Si / 1000 Ang^3
#
#
#
# Elastic Constant Matrix: (Units=GPa)
#
#
# Indices 1 2 3 4 5 6 
#
# 1 120.0433 32.2852 61.0536 0.0000 -3.8752 0.0000
# 2 32.2852 87.8623 49.8707 0.0000 8.2190 0.0000
# 3 61.0536 49.8707 98.7072 0.0000 4.5410 0.0000
# 4 0.0000 0.0000 0.0000 34.6259 0.0000 -4.9987
# 5 -3.8752 8.2190 4.5410 0.0000 46.2724 0.0000
# 6 0.0000 0.0000 0.0000 -4.9987 0.0000 7.6031
#
#
#
# Elastic Compliance Matrix: (Units=1/GPa)
#
#
# Indices 1 2 3 4 5 6 
#
# 1 0.012312 -0.000457 -0.007469 0.000000 0.001845 0.000000
# 2 -0.000457 0.016171 -0.007789 0.000000 -0.002146 0.000000
# 3 -0.007469 -0.007789 0.018736 0.000000 -0.001081 0.000000
# 4 0.000000 0.000000 0.000000 0.031909 0.000000 0.020979
# 5 0.001845 -0.002146 -0.001081 0.000000 0.022253 0.000000
# 6 0.000000 0.000000 0.000000 0.020979 0.000000 0.145318
#
#
# Mechanical properties :
#
#
# Convention : Reuss Voigt Hill
#
# Bulk Modulus (GPa) = 63.33714 65.89243 64.61478
# Shear Modulus (GPa) = 17.64350 28.59383 23.11866
#
# Velocity S-wave (km/s) = 2.94601 3.75041 3.37228
# Velocity P-wave (km/s) = 6.53667 7.15312 6.85183
#
# Compressibility (1/GPa) = 0.01578852
#
# Stress axis : x y z
#
# Youngs Moduli (GPa) = 81.22444 61.83864 53.37387
#
# Poissons Ratio (x) = 0.02827 0.39865
# Poissons Ratio (y) = 0.03713 0.41572
# Poissons Ratio (z) = 0.60667 0.48165
#
# Static dielectric constant tensor:
#      x y z
#    x 1.541140 0.000000 -0.039960 
#    y 0.000000 1.719300 0.000000 
#    z -0.039960 0.000000 1.725540 
# 
# From -- ./inp_files/152445.got.cif
#   From: 2010.05.17/outbox.cif.g08.bks.cpg/sg15_77_cif.got.tgz:152445.got - 2010.06.03 18:47:42.
