data_PCOD9305184
_publ_section_title
;
Structure prediction by ZEFSAII (Michael W. Deem and Ramdas Pophale) SiO2 
 PCOD9305184
Probable space group: C 2/C
;
_chemical_formula_sum "Si O2"
_cell_formula_units_Z 44
_cell_length_a 25.746131
_cell_length_b 5.456386
_cell_length_c 14.322461
_cell_angle_alpha 90.000000
_cell_angle_beta 108.974543
_cell_angle_gamma 90.000000
_cell_volume 1902.703724
_symmetry_space_group_name_H-M "C 2/C"
_symmetry_group_IT_number 15
_symmetry_cell_setting 'monoclinic'
loop_
_space_group_symop_operation_xyz
x,y,z
-x,y,1/2-z
-x,-y,-z
x,-y,1/2+z
1/2+x,1/2+y,z
1/2-x,1/2+y,1/2-z
1/2-x,1/2-y,-z
1/2+x,1/2-y,1/2+z
loop_
_atom_site_type_symbol
_atom_site_label
_atom_site_fract_x
_atom_site_fract_y
_atom_site_fract_z
Si Si1 0.105983 0.498463 0.666017
Si Si2 0.250000 0.750000 0.500000
Si Si3 0.948014 0.528364 0.173382
Si Si4 0.779411 0.265027 0.731765
Si Si5 0.541822 0.297042 0.985549
Si Si6 0.129611 0.165698 0.011951
O O1 0.088889 0.559304 0.761413
O O2 0.157931 0.315430 0.700592
O O3 0.054954 0.385610 0.578057
O O4 0.124265 0.723824 0.612503
O O5 0.221471 0.761269 0.379730
O O6 0.191277 0.821372 0.514993
O O7 0.973889 0.318203 0.122805
O O8 0.909720 0.680849 0.081042
O O9 0.000000 0.666850 0.250000
O O10 0.746562 0.514685 0.741731
O O11 0.602080 0.402863 0.997638
O O12 0.500000 0.500000 0.000000
#
# Coordination Sequence:
#
# PCOD9305184 Si02
#       6
#     8   4   8   8   8   8
#     4  11  24  45  69 103 146 192 246 311 381 455
#     4  12  24  48  72 112 150 202 264 312 398 476
#     4  11  24  43  68 104 141 192 247 309 381 453
#     4  12  27  48  78 113 155 207 260 324 389 466
#     4  11  25  45  72 103 143 194 252 314 384 465
#     4  11  24  45  69 103 145 195 243 313 379 464
#
# _framework density 23.124988999999999
#
# number of rings (size 3 to 8) (size 9 to 14) (size 15 to 20)
#    0.000    0.727    3.636    3.273    0.000    8.727 
#    0.000    0.000    0.000    0.000    0.000    0.000 
#    0.000    0.000    0.000    0.000    0.000    0.000 
#
# Total GULP energy -122505.072511 kJ/mol
# GULP energy per Si atom -5568.412387 kJ/mol
# Density = 2.307236 g / cm^3
# Si number density = 23.124989 Si / 1000 Ang^3
#
#
#
# Elastic Constant Matrix: (Units=GPa)
#
#
# Indices 1 2 3 4 5 6 
#
# 1 136.4103 22.0586 25.5998 0.0000 -13.7339 0.0000
# 2 22.0586 65.9193 36.6355 0.0000 -26.3178 0.0000
# 3 25.5998 36.6355 168.8273 0.0000 -18.3743 0.0000
# 4 0.0000 0.0000 0.0000 11.2404 0.0000 15.4862
# 5 -13.7339 -26.3178 -18.3743 0.0000 41.4774 0.0000
# 6 0.0000 0.0000 0.0000 15.4862 0.0000 -4.5301
#
#
#
# Elastic Compliance Matrix: (Units=1/GPa)
#
#
# Indices 1 2 3 4 5 6 
#
# 1 0.007865 -0.001789 -0.000677 0.000000 0.001169 0.000000
# 2 -0.001789 0.022463 -0.003274 0.000000 0.012210 0.000000
# 3 -0.000677 -0.003274 0.006814 0.000000 0.000717 0.000000
# 4 0.000000 0.000000 0.000000 0.015581 0.000000 0.053264
# 5 0.001169 0.012210 0.000717 0.000000 0.032562 0.000000
# 6 0.000000 0.000000 0.000000 0.053264 0.000000 -0.038661
#
#
# Mechanical properties :
#
#
# Convention : Reuss Voigt Hill
#
# Bulk Modulus (GPa) = 38.96784 59.97162 49.46973
# Shear Modulus (GPa) = 75.00865 28.76175 51.88520
#
# Velocity S-wave (km/s) = 5.70146 3.53051 4.74189
# Velocity P-wave (km/s) = 7.76078 6.52758 7.17074
#
# Compressibility (1/GPa) = 0.02566219
#
# Stress axis : x y z
#
# Youngs Moduli (GPa) = 127.14770 44.51711 146.74669
#
# Poissons Ratio (x) = 0.07962 0.09937
# Poissons Ratio (y) = 0.22742 0.48051
# Poissons Ratio (z) = 0.08610 0.14577
#
# Static dielectric constant tensor:
#      x y z
#    x 1.868000 0.000000 0.026190 
#    y 0.000000 1.922000 0.000000 
#    z 0.026190 0.000000 1.831350 
# 
# From -- ./inp_files/125062.got.cif
#   From: 2010.05.17/outbox.cif.g08.bks.cpg/sg15_63_cif.got.tgz:125062.got - 2010.06.03 18:47:42.
