data_PCOD9305816
_publ_section_title
;
Structure prediction by ZEFSAII (Michael W. Deem and Ramdas Pophale) SiO2 
 PCOD9305816
Probable space group: C 2/C
;
_chemical_formula_sum "Si O2"
_cell_formula_units_Z 44
_cell_length_a 11.929578
_cell_length_b 14.507701
_cell_length_c 12.317948
_cell_angle_alpha 90.000000
_cell_angle_beta 101.498262
_cell_angle_gamma 90.000000
_cell_volume 2089.091348
_symmetry_space_group_name_H-M "C 2/C"
_symmetry_group_IT_number 15
_symmetry_cell_setting 'monoclinic'
loop_
_space_group_symop_operation_xyz
x,y,z
-x,y,1/2-z
-x,-y,-z
x,-y,1/2+z
1/2+x,1/2+y,z
1/2-x,1/2+y,1/2-z
1/2-x,1/2-y,-z
1/2+x,1/2-y,1/2+z
loop_
_atom_site_type_symbol
_atom_site_label
_atom_site_fract_x
_atom_site_fract_y
_atom_site_fract_z
Si Si1 0.500000 0.401462 0.750000
Si Si2 0.416076 0.916000 0.452862
Si Si3 0.066084 0.744089 0.911225
Si Si4 0.215888 0.028382 0.757605
Si Si5 0.126807 0.613627 0.317191
Si Si6 0.307670 0.272675 0.338194
O O1 0.502190 0.334133 0.854519
O O2 0.611547 0.464589 0.772858
O O3 0.484470 0.844234 0.391537
O O4 0.304502 0.953686 0.371962
O O5 0.382110 0.865192 0.557757
O O6 0.500000 0.000000 0.500000
O O7 0.178316 0.733223 0.858070
O O8 0.111284 0.753845 0.042896
O O9 0.173405 0.125673 0.704424
O O10 0.289380 0.972582 0.682969
O O11 0.170211 0.696915 0.250118
O O12 0.000000 0.589203 0.250000
#
# Coordination Sequence:
#
# PCOD9305816 Si02
#       6
#     4   8   8   8   8   8
#     4  12  28  48  66 108 154 196 244 298 372 456
#     4  12  25  45  80 109 141 197 251 311 363 435
#     4  11  24  47  75 103 148 197 244 301 383 436
#     4  12  28  46  72 107 149 195 251 295 379 440
#     4  12  24  47  73 111 147 180 256 311 355 442
#     4  11  25  46  74 105 147 197 239 312 370 444
#
# _framework density 21.061789999999998
#
# number of rings (size 3 to 8) (size 9 to 14) (size 15 to 20)
#    0.000    0.364    5.455    2.182    6.364    1.455 
#    0.000    0.000    0.000    0.000    0.000    0.000 
#    0.000    0.000    0.000    0.000    0.000    0.000 
#
# Total GULP energy -123217.431931 kJ/mol
# GULP energy per Si atom -5600.792361 kJ/mol
# Density = 2.101385 g / cm^3
# Si number density = 21.061790 Si / 1000 Ang^3
#
#
#
# Elastic Constant Matrix: (Units=GPa)
#
#
# Indices 1 2 3 4 5 6 
#
# 1 119.7863 46.9342 48.5457 0.0000 16.1206 0.0000
# 2 46.9342 117.6578 39.5327 0.0000 7.2690 0.0000
# 3 48.5457 39.5327 91.8056 0.0000 -6.3966 0.0000
# 4 0.0000 0.0000 0.0000 26.3835 0.0000 2.6745
# 5 16.1206 7.2690 -6.3966 0.0000 31.8975 0.0000
# 6 0.0000 0.0000 0.0000 2.6745 0.0000 40.9503
#
#
#
# Elastic Compliance Matrix: (Units=1/GPa)
#
#
# Indices 1 2 3 4 5 6 
#
# 1 0.012822 -0.002607 -0.006153 0.000000 -0.007120 0.000000
# 2 -0.002607 0.010793 -0.003396 0.000000 -0.001823 0.000000
# 3 -0.006153 -0.003396 0.016104 0.000000 0.007113 0.000000
# 4 0.000000 0.000000 0.000000 0.038155 0.000000 -0.002492
# 5 -0.007120 -0.001823 0.007113 0.000000 0.036791 0.000000
# 6 0.000000 0.000000 0.000000 -0.002492 0.000000 0.024583
#
#
# Mechanical properties :
#
#
# Convention : Reuss Voigt Hill
#
# Bulk Modulus (GPa) = 64.90985 66.58609 65.74797
# Shear Modulus (GPa) = 29.63923 32.79540 31.21731
#
# Velocity S-wave (km/s) = 3.75540 3.95030 3.85408
# Velocity P-wave (km/s) = 7.04910 7.24498 7.14771
#
# Compressibility (1/GPa) = 0.01540598
#
# Stress axis : x y z
#
# Youngs Moduli (GPa) = 77.99286 92.65354 62.09517
#
# Poissons Ratio (x) = 0.24157 0.38209
# Poissons Ratio (y) = 0.20335 0.21087
# Poissons Ratio (z) = 0.47991 0.31464
#
# Static dielectric constant tensor:
#      x y z
#    x 1.747460 0.000000 -0.001570 
#    y 0.000000 1.732200 0.000000 
#    z -0.001570 0.000000 1.748220 
# 
# From -- ./inp_files/86184.got.cif
#   From: 2010.05.17/outbox.cif.g08.bks.cpg/sg15_44_cif.got.tgz:86184.got - 2010.06.03 18:47:42.
