data_PCOD9305865
_publ_section_title
;
Structure prediction by ZEFSAII (Michael W. Deem and Ramdas Pophale) SiO2 
 PCOD9305865
Probable space group: C 2/C
;
_chemical_formula_sum "Si O2"
_cell_formula_units_Z 32
_cell_length_a 26.365632
_cell_length_b 5.204184
_cell_length_c 9.674826
_cell_angle_alpha 90.000000
_cell_angle_beta 67.737938
_cell_angle_gamma 90.000000
_cell_volume 1228.547652
_symmetry_space_group_name_H-M "C 2/C"
_symmetry_group_IT_number 15
_symmetry_cell_setting 'monoclinic'
loop_
_space_group_symop_operation_xyz
x,y,z
-x,y,1/2-z
-x,-y,-z
x,-y,1/2+z
1/2+x,1/2+y,z
1/2-x,1/2+y,1/2-z
1/2-x,1/2-y,-z
1/2+x,1/2-y,1/2+z
loop_
_atom_site_type_symbol
_atom_site_label
_atom_site_fract_x
_atom_site_fract_y
_atom_site_fract_z
Si Si1 0.697157 0.815630 0.966410
Si Si2 0.091940 0.033467 0.138341
Si Si3 0.553771 0.032902 0.035455
Si Si4 0.350787 0.157019 0.248909
O O1 0.651762 0.591583 0.012366
O O2 0.668092 0.041760 0.085312
O O3 0.750000 0.750000 0.000000
O O4 0.702173 0.852330 0.797038
O O5 0.057255 0.804661 0.107494
O O6 0.113524 0.915152 0.260866
O O7 0.060567 0.298567 0.138129
O O8 0.605607 0.015812 0.878417
O O9 0.500000 0.000000 0.000000
#
# Coordination Sequence:
#
# PCOD9305865 Si02
#       4
#     8   8   8   8
#     4  11  28  46  79 108 151 205 248 314 381 447
#     4  11  24  48  70 112 148 191 253 309 365 452
#     4  11  26  49  77 108 152 203 249 308 381 447
#     4  11  25  49  71 113 157 189 256 312 369 458
#
# _framework density 26.047018000000001
#
# number of rings (size 3 to 8) (size 9 to 14) (size 15 to 20)
#    0.000    1.000    5.000    0.750   10.500    2.000 
#    4.500    0.000    0.000    0.000    0.000    0.000 
#    0.000    0.000    0.000    0.000    0.000    0.000 
#
# Total GULP energy -89387.203495 kJ/mol
# GULP energy per Si atom -5586.700218 kJ/mol
# Density = 2.598773 g / cm^3
# Si number density = 26.047018 Si / 1000 Ang^3
#
#
#
# Elastic Constant Matrix: (Units=GPa)
#
#
# Indices 1 2 3 4 5 6 
#
# 1 209.8575 54.0517 27.8343 0.0000 60.5740 0.0000
# 2 54.0517 178.9452 42.4200 0.0000 28.6010 0.0000
# 3 27.8343 42.4200 82.9053 0.0000 50.9970 0.0000
# 4 0.0000 0.0000 0.0000 24.4077 0.0000 12.3401
# 5 60.5740 28.6010 50.9970 0.0000 65.3833 0.0000
# 6 0.0000 0.0000 0.0000 12.3401 0.0000 29.2382
#
#
#
# Elastic Compliance Matrix: (Units=1/GPa)
#
#
# Indices 1 2 3 4 5 6 
#
# 1 0.007328 -0.001708 0.004094 0.000000 -0.009235 0.000000
# 2 -0.001708 0.006765 -0.003924 0.000000 0.001683 0.000000
# 3 0.004094 -0.003924 0.026859 0.000000 -0.023026 0.000000
# 4 0.000000 0.000000 0.000000 0.052085 0.000000 -0.021982
# 5 -0.009235 0.001683 -0.023026 0.000000 0.041074 0.000000
# 6 0.000000 0.000000 0.000000 -0.021982 0.000000 0.043480
#
#
# Mechanical properties :
#
#
# Convention : Reuss Voigt Hill
#
# Bulk Modulus (GPa) = 26.40080 80.03557 53.21818
# Shear Modulus (GPa) = 25.86800 46.96599 36.41700
#
# Velocity S-wave (km/s) = 3.15481 4.25093 3.74321
# Velocity P-wave (km/s) = 4.84028 7.40864 6.25764
#
# Compressibility (1/GPa) = 0.03787764
#
# Stress axis : x y z
#
# Youngs Moduli (GPa) = 136.46990 147.81389 37.23196
#
# Poissons Ratio (x) = 0.25246 -0.15245
# Poissons Ratio (y) = 0.23308 0.14608
# Poissons Ratio (z) = -0.55877 0.57995
#
# Static dielectric constant tensor:
#      x y z
#    x 2.061700 0.000000 0.095550 
#    y 0.000000 2.181490 0.000000 
#    z 0.095550 0.000000 2.257750 
# 
# From -- ./inp_files/67891.got.cif
#   From: 2010.05.17/outbox.cif.g08.bks.cpg/sg15_34_cif.got.tgz:67891.got - 2010.06.03 18:47:42.
