data_PCOD9305624
_publ_section_title
;
Structure prediction by ZEFSAII (Michael W. Deem and Ramdas Pophale) SiO2 
 PCOD9305624
Probable space group: C 2/C
;
_chemical_formula_sum "Si O2"
_cell_formula_units_Z 64
_cell_length_a 7.763537
_cell_length_b 18.109802
_cell_length_c 27.380788
_cell_angle_alpha 90.000000
_cell_angle_beta 135.602927
_cell_angle_gamma 90.000000
_cell_volume 2693.306220
_symmetry_space_group_name_H-M "C 2/C"
_symmetry_group_IT_number 15
_symmetry_cell_setting 'monoclinic'
loop_
_space_group_symop_operation_xyz
x,y,z
-x,y,1/2-z
-x,-y,-z
x,-y,1/2+z
1/2+x,1/2+y,z
1/2-x,1/2+y,1/2-z
1/2-x,1/2-y,-z
1/2+x,1/2-y,1/2+z
loop_
_atom_site_type_symbol
_atom_site_label
_atom_site_fract_x
_atom_site_fract_y
_atom_site_fract_z
Si Si1 0.327534 0.025324 0.510341
Si Si2 0.397101 0.791132 0.781101
Si Si3 0.912667 0.724040 0.651729
Si Si4 0.837943 0.943157 0.760550
Si Si5 0.820934 0.311064 0.974933
Si Si6 0.004785 0.561400 0.651826
Si Si7 0.891784 0.806620 0.097429
Si Si8 0.557916 0.537285 0.629283
O O1 0.272761 0.110210 0.488544
O O2 0.426224 0.022009 0.585280
O O3 0.500000 0.000000 0.500000
O O4 0.088245 0.977399 0.450724
O O5 0.500000 0.768102 0.750000
O O6 0.364678 0.879358 0.774221
O O7 0.579130 0.759348 0.858393
O O8 0.132367 0.750154 0.731439
O O9 0.856787 0.793744 0.606108
O O10 0.009679 0.649399 0.645376
O O11 0.636130 0.703917 0.613797
O O12 0.000000 0.909701 0.750000
O O13 0.743489 0.019513 0.718337
O O14 0.953596 0.969568 0.835210
O O15 0.113248 0.306375 0.020723
O O16 0.750000 0.250000 0.000000
O O17 0.829191 0.550238 0.663685
O O18 0.939544 0.888968 0.128521
#
# Coordination Sequence:
#
# PCOD9305624 Si02
#       8
#     8   8   8   8   8   8   8   8
#     4  12  24  43  69 102 142 183 240 289 356 425
#     4  12  26  45  71 101 138 183 237 295 358 429
#     4  11  24  46  70 102 141 186 236 292 358 427
#     4  12  26  45  71 101 138 183 237 295 358 429
#     4  12  24  43  69 102 142 183 240 289 356 425
#     4  11  25  44  69 102 141 186 236 293 355 425
#     4  11  25  44  69 102 141 186 236 293 355 425
#     4  11  24  46  70 102 141 186 236 292 358 427
#
# _framework density 23.762613999999999
#
# number of rings (size 3 to 8) (size 9 to 14) (size 15 to 20)
#    0.000    0.500    2.500    6.000    0.000    5.000 
#    4.500    0.000    0.000    0.000    0.000    0.000 
#    0.000    0.000    0.000    0.000    0.000    0.000 
#
# Total GULP energy -178763.015099 kJ/mol
# GULP energy per Si atom -5586.344222 kJ/mol
# Density = 2.370853 g / cm^3
# Si number density = 23.762614 Si / 1000 Ang^3
#
#
#
# Elastic Constant Matrix: (Units=GPa)
#
#
# Indices 1 2 3 4 5 6 
#
# 1 73.4952 8.9904 -2.9078 0.0000 1.6372 0.0000
# 2 8.9904 94.0223 4.5197 0.0002 2.9544 0.0001
# 3 -2.9078 4.5197 80.3626 0.0004 0.2642 0.0003
# 4 0.0000 0.0002 0.0004 36.4025 0.0000 0.7905
# 5 1.6372 2.9544 0.2642 0.0000 33.7665 0.0001
# 6 0.0000 0.0001 0.0003 0.7905 0.0001 29.4852
#
#
#
# Elastic Compliance Matrix: (Units=1/GPa)
#
#
# Indices 1 2 3 4 5 6 
#
# 1 0.013804 -0.001330 0.000576 0.000000 -0.000557 0.000000
# 2 -0.001330 0.010822 -0.000654 0.000000 -0.000877 0.000000
# 3 0.000576 -0.000654 0.012501 0.000000 -0.000069 0.000000
# 4 0.000000 0.000000 0.000000 0.027487 0.000000 -0.000737
# 5 -0.000557 -0.000877 -0.000069 0.000000 0.029719 0.000000
# 6 0.000000 0.000000 0.000000 -0.000737 0.000000 0.033935
#
#
# Mechanical properties :
#
#
# Convention : Reuss Voigt Hill
#
# Bulk Modulus (GPa) = 29.14442 29.89829 29.52136
# Shear Modulus (GPa) = 35.08234 35.74938 35.41586
#
# Velocity S-wave (km/s) = 3.84652 3.88292 3.86476
# Velocity P-wave (km/s) = 5.65854 5.71945 5.68908
#
# Compressibility (1/GPa) = 0.03431188
#
# Stress axis : x y z
#
# Youngs Moduli (GPa) = 72.44144 92.40470 79.99077
#
# Poissons Ratio (x) = 0.12291 -0.04609
# Poissons Ratio (y) = 0.09636 0.05230
# Poissons Ratio (z) = -0.04174 0.06042
#
# Static dielectric constant tensor:
#      x y z
#    x 1.988450 0.000000 0.023820 
#    y 0.000000 1.873790 0.000000 
#    z 0.023820 0.000000 1.896910 
# 
# From -- ./inp_files/308787.got.cif
#   From: 2010.05.17/outbox.cif.g08.bks.cpg/sg15_155_cif.got.tgz:308787.got - 2010.06.03 18:47:42.
