data_PCOD9305090
_publ_section_title
;
Structure prediction by ZEFSAII (Michael W. Deem and Ramdas Pophale) SiO2 
 PCOD9305090
Probable space group: C 2/C
;
_chemical_formula_sum "Si O2"
_cell_formula_units_Z 40
_cell_length_a 7.772825
_cell_length_b 24.264896
_cell_length_c 8.592187
_cell_angle_alpha 90.000000
_cell_angle_beta 91.280497
_cell_angle_gamma 90.000000
_cell_volume 1620.140119
_symmetry_space_group_name_H-M "C 2/C"
_symmetry_group_IT_number 15
_symmetry_cell_setting 'monoclinic'
loop_
_space_group_symop_operation_xyz
x,y,z
-x,y,1/2-z
-x,-y,-z
x,-y,1/2+z
1/2+x,1/2+y,z
1/2-x,1/2+y,1/2-z
1/2-x,1/2-y,-z
1/2+x,1/2-y,1/2+z
loop_
_atom_site_type_symbol
_atom_site_label
_atom_site_fract_x
_atom_site_fract_y
_atom_site_fract_z
Si Si1 0.185331 0.479338 0.560555
Si Si2 0.626913 0.125822 0.875237
Si Si3 0.837431 0.937936 0.859311
Si Si4 0.801399 0.738682 0.685315
Si Si5 0.629207 0.166341 0.378370
O O1 0.218918 0.420474 0.476551
O O2 0.200849 0.467503 0.742043
O O3 0.323766 0.525197 0.512313
O O4 0.000000 0.500000 0.500000
O O5 0.500000 0.097419 0.750000
O O6 0.739597 0.173515 0.799740
O O7 0.493673 0.162960 0.975360
O O8 0.784692 0.875917 0.899433
O O9 0.000000 0.937130 0.750000
O O10 0.750000 0.750000 0.500000
O O11 0.691787 0.777025 0.801250
O O12 0.000000 0.748912 0.750000
O O13 0.500000 0.140463 0.250000
#
# Coordination Sequence:
#
# PCOD9305090 Si02
#       5
#     8   8   8   8   8
#     4  12  22  43  70  98 131 183 227 279 339 425
#     4  11  24  42  68 100 134 176 240 276 343 414
#     4  12  25  41  66 101 139 175 224 287 349 411
#     4  11  24  43  69 102 140 180 233 295 347 417
#     4  12  22  45  70  98 134 187 233 279 353 424
#
# _framework density 24.689222999999998
#
# number of rings (size 3 to 8) (size 9 to 14) (size 15 to 20)
#    0.000    0.400    6.000    3.000    0.000    3.200 
#    0.000    1.000    0.000    0.000    0.000    0.000 
#    0.000    0.000    0.000    0.000    0.000    0.000 
#
# Total GULP energy -111626.933230 kJ/mol
# GULP energy per Si atom -5581.346661 kJ/mol
# Density = 2.463303 g / cm^3
# Si number density = 24.689223 Si / 1000 Ang^3
#
#
#
# Elastic Constant Matrix: (Units=GPa)
#
#
# Indices 1 2 3 4 5 6 
#
# 1 77.6931 8.2566 -8.3297 0.0000 -15.3443 0.0000
# 2 8.2566 151.5950 20.9964 0.0000 -30.6068 0.0000
# 3 -8.3297 20.9964 75.5609 0.0000 4.5470 0.0000
# 4 0.0000 0.0000 0.0000 39.1395 0.0000 -7.9895
# 5 -15.3443 -30.6068 4.5470 0.0000 46.9898 0.0000
# 6 0.0000 0.0000 0.0000 -7.9895 0.0000 34.9470
#
#
#
# Elastic Compliance Matrix: (Units=1/GPa)
#
#
# Indices 1 2 3 4 5 6 
#
# 1 0.013878 -0.000050 0.001280 0.000000 0.004375 0.000000
# 2 -0.000050 0.008064 -0.002576 0.000000 0.005485 0.000000
# 3 0.001280 -0.002576 0.014250 0.000000 -0.002639 0.000000
# 4 0.000000 0.000000 0.000000 0.026800 0.000000 0.006127
# 5 0.004375 0.005485 -0.002639 0.000000 0.026538 0.000000
# 6 0.000000 0.000000 0.000000 0.006127 0.000000 0.030015
#
#
# Mechanical properties :
#
#
# Convention : Reuss Voigt Hill
#
# Bulk Modulus (GPa) = 29.85049 38.52175 34.18612
# Shear Modulus (GPa) = 37.48029 43.14364 40.31197
#
# Velocity S-wave (km/s) = 3.90049 4.18481 4.04515
# Velocity P-wave (km/s) = 5.69226 6.24393 5.97447
#
# Compressibility (1/GPa) = 0.03350029
#
# Stress axis : x y z
#
# Youngs Moduli (GPa) = 72.05724 124.01559 70.17466
#
# Poissons Ratio (x) = 0.00618 -0.08985
# Poissons Ratio (y) = 0.00359 0.18078
# Poissons Ratio (z) = -0.09226 0.31949
#
# Static dielectric constant tensor:
#      x y z
#    x 2.068370 0.000000 0.013970 
#    y 0.000000 1.974450 0.000000 
#    z 0.013970 0.000000 2.078740 
# 
# From -- ./inp_files/23404.got.cif
#   From: 2010.05.17/outbox.cif.g08.bks.cpg/sg15_12_cif.got.tgz:23404.got - 2010.06.03 18:47:42.
