data_PCOD9305295
_publ_section_title
;
Structure prediction by ZEFSAII (Michael W. Deem and Ramdas Pophale) SiO2 
 PCOD9305295
Probable space group: C 2/C
;
_chemical_formula_sum "Si O2"
_cell_formula_units_Z 52
_cell_length_a 13.299708
_cell_length_b 15.667251
_cell_length_c 16.581034
_cell_angle_alpha 90.000000
_cell_angle_beta 136.818732
_cell_angle_gamma 90.000000
_cell_volume 2364.278355
_symmetry_space_group_name_H-M "C 2/C"
_symmetry_group_IT_number 15
_symmetry_cell_setting 'monoclinic'
loop_
_space_group_symop_operation_xyz
x,y,z
-x,y,1/2-z
-x,-y,-z
x,-y,1/2+z
1/2+x,1/2+y,z
1/2-x,1/2+y,1/2-z
1/2-x,1/2-y,-z
1/2+x,1/2-y,1/2+z
loop_
_atom_site_type_symbol
_atom_site_label
_atom_site_fract_x
_atom_site_fract_y
_atom_site_fract_z
Si Si1 0.188349 0.406836 0.915372
Si Si2 0.489189 0.375823 0.108562
Si Si3 0.234462 0.989001 0.196746
Si Si4 0.957550 0.752706 0.498700
Si Si5 0.875134 0.693594 0.744716
Si Si6 0.000000 0.749193 0.250000
Si Si7 0.462307 0.073622 0.416726
O O1 0.243065 0.470171 0.877857
O O2 0.055644 0.441482 0.890443
O O3 0.129652 0.315438 0.850968
O O4 0.330768 0.393893 0.053277
O O5 0.578472 0.459565 0.139132
O O6 0.472601 0.328125 0.013447
O O7 0.556804 0.307840 0.210004
O O8 0.324956 0.899481 0.248805
O O9 0.296254 0.059639 0.293147
O O10 0.778622 0.768805 0.384522
O O11 0.040627 0.743834 0.633170
O O12 0.989058 0.665184 0.469633
O O13 0.000000 0.683281 0.750000
O O14 0.500000 0.000000 0.500000
#
# Coordination Sequence:
#
# PCOD9305295 Si02
#       7
#     8   8   8   8   8   4   8
#     4  12  24  44  70  98 136 185 234 283 363 422
#     4  11  27  41  69 101 142 177 231 303 356 420
#     4  11  24  44  67  98 135 181 228 289 354 422
#     4  11  25  42  69 100 134 183 231 301 347 427
#     4  11  24  45  68  96 136 183 239 283 359 420
#     4  12  24  42  72 102 138 182 238 286 356 432
#     4  12  24  42  69  96 134 180 235 286 348 429
#
# _framework density 21.994026000000002
#
# number of rings (size 3 to 8) (size 9 to 14) (size 15 to 20)
#    0.000    0.615    4.615    2.308    8.615    0.000 
#    0.000    0.000    0.000    0.000    0.000    0.000 
#    0.000    0.000    0.000    0.000    0.000    0.000 
#
# Total GULP energy -145142.739316 kJ/mol
# GULP energy per Si atom -5582.413051 kJ/mol
# Density = 2.194397 g / cm^3
# Si number density = 21.994026 Si / 1000 Ang^3
#
#
#
# Elastic Constant Matrix: (Units=GPa)
#
#
# Indices 1 2 3 4 5 6 
#
# 1 52.5886 12.0698 25.6679 0.0000 18.8425 0.0000
# 2 12.0698 53.6211 16.9405 0.0000 6.1430 0.0000
# 3 25.6679 16.9405 92.3240 0.0000 6.4661 0.0000
# 4 0.0000 0.0000 0.0000 34.1699 0.0000 1.6567
# 5 18.8425 6.1430 6.4661 0.0000 36.7023 0.0000
# 6 0.0000 0.0000 0.0000 1.6567 0.0000 33.7197
#
#
#
# Elastic Compliance Matrix: (Units=1/GPa)
#
#
# Indices 1 2 3 4 5 6 
#
# 1 0.027078 -0.002733 -0.006161 0.000000 -0.012359 0.000000
# 2 -0.002733 0.020342 -0.002868 0.000000 -0.001496 0.000000
# 3 -0.006161 -0.002868 0.012976 0.000000 0.001357 0.000000
# 4 0.000000 0.000000 0.000000 0.029335 0.000000 -0.001441
# 5 -0.012359 -0.001496 0.001357 0.000000 0.033603 0.000000
# 6 0.000000 0.000000 0.000000 -0.001441 0.000000 0.029727
#
#
# Mechanical properties :
#
#
# Convention : Reuss Voigt Hill
#
# Bulk Modulus (GPa) = 27.12103 34.21000 30.66552
# Shear Modulus (GPa) = 26.47249 30.50874 28.49061
#
# Velocity S-wave (km/s) = 3.47309 3.72847 3.60304
# Velocity P-wave (km/s) = 5.33301 5.84152 5.59304
#
# Compressibility (1/GPa) = 0.03687175
#
# Stress axis : x y z
#
# Youngs Moduli (GPa) = 36.93014 49.15933 77.06789
#
# Poissons Ratio (x) = 0.13434 0.47484
# Poissons Ratio (y) = 0.10092 0.22103
# Poissons Ratio (z) = 0.22754 0.14099
#
# Static dielectric constant tensor:
#      x y z
#    x 1.780910 0.000000 0.020580 
#    y 0.000000 1.756710 0.000000 
#    z 0.020580 0.000000 1.910860 
# 
# From -- ./inp_files/205761.got.cif
#   From: 2010.05.17/outbox.cif.g08.bks.cpg/sg15_103_cif.got.tgz:205761.got - 2010.06.03 18:47:42.
