data_PCOD9305396
_publ_section_title
;
Structure prediction by ZEFSAII (Michael W. Deem and Ramdas Pophale) SiO2 
 PCOD9305396
Probable space group: C 2/C
;
_chemical_formula_sum "Si O2"
_cell_formula_units_Z 44
_cell_length_a 11.558161
_cell_length_b 9.734248
_cell_length_c 21.166164
_cell_angle_alpha 90.000000
_cell_angle_beta 132.825329
_cell_angle_gamma 90.000000
_cell_volume 1746.592679
_symmetry_space_group_name_H-M "C 2/C"
_symmetry_group_IT_number 15
_symmetry_cell_setting 'monoclinic'
loop_
_space_group_symop_operation_xyz
x,y,z
-x,y,1/2-z
-x,-y,-z
x,-y,1/2+z
1/2+x,1/2+y,z
1/2-x,1/2+y,1/2-z
1/2-x,1/2-y,-z
1/2+x,1/2-y,1/2+z
loop_
_atom_site_type_symbol
_atom_site_label
_atom_site_fract_x
_atom_site_fract_y
_atom_site_fract_z
Si Si1 0.410173 0.669662 0.043243
Si Si2 0.000000 0.420269 0.250000
Si Si3 0.102139 0.698435 0.513857
Si Si4 0.599015 0.513321 0.223181
Si Si5 0.813157 0.446122 0.570922
Si Si6 0.192433 0.760329 0.181973
O O1 0.496234 0.593523 0.132542
O O2 0.250000 0.750000 0.000000
O O3 0.531787 0.777614 0.057257
O O4 0.338156 0.544096 0.975771
O O5 0.054065 0.505850 0.331346
O O6 0.151012 0.328184 0.289410
O O7 0.144488 0.562950 0.488556
O O8 0.255821 0.793947 0.567498
O O9 0.956678 0.758052 0.419250
O O10 0.500000 0.513534 0.250000
O O11 0.755954 0.604953 0.286358
O O12 0.642320 0.359186 0.220033
#
# Coordination Sequence:
#
# PCOD9305396 Si02
#       6
#     8   4   8   8   8   8
#     4  12  24  44  72 100 146 193 235 299 372 431
#     4  12  22  42  76 104 142 196 244 290 376 428
#     4  11  24  46  71 101 143 185 242 297 365 432
#     4  12  27  47  71 110 149 192 249 309 363 441
#     4  11  24  44  73 106 138 191 241 298 358 444
#     4  12  24  48  73 103 151 195 243 312 366 436
#
# _framework density 25.191907
#
# number of rings (size 3 to 8) (size 9 to 14) (size 15 to 20)
#    0.000    0.364    4.545    4.909    0.000    2.182 
#    6.545    0.000    0.000    0.000    0.000    0.000 
#    0.000    0.000    0.000    0.000    0.000    0.000 
#
# Total GULP energy -123126.230217 kJ/mol
# GULP energy per Si atom -5596.646828 kJ/mol
# Density = 2.513457 g / cm^3
# Si number density = 25.191907 Si / 1000 Ang^3
#
#
#
# Elastic Constant Matrix: (Units=GPa)
#
#
# Indices 1 2 3 4 5 6 
#
# 1 130.6986 20.1654 12.6061 0.0000 5.0964 0.0000
# 2 20.1654 68.5013 -2.2215 0.0000 -2.9414 0.0000
# 3 12.6061 -2.2215 73.4397 0.0000 8.5669 0.0000
# 4 0.0000 0.0000 0.0000 30.0320 0.0000 31.3034
# 5 5.0964 -2.9414 8.5669 0.0000 35.2326 0.0000
# 6 0.0000 0.0000 0.0000 31.3034 0.0000 -476.2691
#
#
#
# Elastic Compliance Matrix: (Units=1/GPa)
#
#
# Indices 1 2 3 4 5 6 
#
# 1 0.008211 -0.002507 -0.001361 0.000000 -0.001066 0.000000
# 2 -0.002507 0.015423 0.000725 0.000000 0.001474 0.000000
# 3 -0.001361 0.000725 0.014246 0.000000 -0.003207 0.000000
# 4 0.000000 0.000000 0.000000 0.031163 0.000000 0.002048
# 5 -0.001066 0.001474 -0.003207 0.000000 0.029440 0.000000
# 6 0.000000 0.000000 0.000000 0.002048 0.000000 -0.001965
#
#
# Mechanical properties :
#
#
# Convention : Reuss Voigt Hill
#
# Bulk Modulus (GPa) = 31.65140 37.08217 34.36678
# Shear Modulus (GPa) = 44.11700 -66.06159 -10.97229
#
# Velocity S-wave (km/s) = 4.18932 -5.12643 -2.08924
# Velocity P-wave (km/s) = 5.99933 4.50428 2.80209
#
# Compressibility (1/GPa) = 0.03159418
#
# Stress axis : x y z
#
# Youngs Moduli (GPa) = 121.79043 64.83793 70.19415
#
# Poissons Ratio (x) = 0.16255 0.09553
# Poissons Ratio (y) = 0.30533 -0.05089
# Poissons Ratio (z) = 0.16574 -0.04700
#
# Static dielectric constant tensor:
#      x y z
#    x 2.072060 0.000000 -0.082850 
#    y 0.000000 -6.970500 0.000000 
#    z -0.082850 0.000000 1.976480 
# 
# From -- ./inp_files/237289.got.cif
#   From: 2010.05.17/outbox.cif.g08.bks.cpg/sg15_119_cif.got.tgz:237289.got - 2010.06.03 18:47:42.
