data_PCOD9305652
_publ_section_title
;
Structure prediction by ZEFSAII (Michael W. Deem and Ramdas Pophale) SiO2 
 PCOD9305652
Probable space group: C 2/C
;
_chemical_formula_sum "Si O2"
_cell_formula_units_Z 44
_cell_length_a 12.884474
_cell_length_b 14.475081
_cell_length_c 11.881486
_cell_angle_alpha 90.000000
_cell_angle_beta 65.543098
_cell_angle_gamma 90.000000
_cell_volume 2017.112368
_symmetry_space_group_name_H-M "C 2/C"
_symmetry_group_IT_number 15
_symmetry_cell_setting 'monoclinic'
loop_
_space_group_symop_operation_xyz
x,y,z
-x,y,1/2-z
-x,-y,-z
x,-y,1/2+z
1/2+x,1/2+y,z
1/2-x,1/2+y,1/2-z
1/2-x,1/2-y,-z
1/2+x,1/2-y,1/2+z
loop_
_atom_site_type_symbol
_atom_site_label
_atom_site_fract_x
_atom_site_fract_y
_atom_site_fract_z
Si Si1 0.388801 0.694377 0.562364
Si Si2 0.769422 0.169902 0.837719
Si Si3 0.860369 0.143307 0.047477
Si Si4 0.500000 0.002659 0.250000
Si Si5 0.168979 0.376093 0.029973
Si Si6 0.209474 0.469451 0.783631
O O1 0.363305 0.705052 0.706286
O O2 0.504305 0.637341 0.498998
O O3 0.273135 0.652669 0.562561
O O4 0.399858 0.788819 0.487445
O O5 0.683246 0.255181 0.893132
O O6 0.713722 0.078224 0.809064
O O7 0.822094 0.140522 0.934209
O O8 0.798611 0.066489 0.151369
O O9 0.416984 0.942485 0.366025
O O10 0.414780 0.057434 0.208113
O O11 0.226132 0.420988 0.894993
#
# Coordination Sequence:
#
# PCOD9305652 Si02
#       6
#     8   8   8   4   8   8
#     4  11  24  46  72 101 142 180 233 287 346 414
#     4  11  24  48  70 105 140 186 235 278 355 411
#     4  11  26  47  74 102 143 186 231 289 347 414
#     4  12  24  44  70  98 144 176 236 288 338 420
#     4  11  25  44  72 105 134 184 232 285 353 409
#     4  12  25  46  71 106 135 187 231 289 349 415
#
# _framework density 21.813362000000001
#
# number of rings (size 3 to 8) (size 9 to 14) (size 15 to 20)
#    0.000    0.727    3.636    3.273    0.000    4.364 
#    3.273    0.000    0.000    0.000    0.000    0.000 
#    0.000    0.000    0.000    0.000    0.000    0.000 
#
# Total GULP energy -123029.865761 kJ/mol
# GULP energy per Si atom -5592.266626 kJ/mol
# Density = 2.176371 g / cm^3
# Si number density = 21.813362 Si / 1000 Ang^3
#
#
#
# Elastic Constant Matrix: (Units=GPa)
#
#
# Indices 1 2 3 4 5 6 
#
# 1 67.9093 23.2842 46.2367 0.0000 -8.5522 0.0000
# 2 23.2842 50.4295 15.0591 0.0000 15.9728 0.0000
# 3 46.2367 15.0591 130.6518 0.0000 14.7189 0.0000
# 4 0.0000 0.0000 0.0000 11.6758 0.0000 -10.9969
# 5 -8.5522 15.9728 14.7189 0.0000 36.2441 0.0000
# 6 0.0000 0.0000 0.0000 -10.9969 0.0000 19.2557
#
#
#
# Elastic Compliance Matrix: (Units=1/GPa)
#
#
# Indices 1 2 3 4 5 6 
#
# 1 0.030285 -0.016724 -0.010925 0.000000 0.018953 0.000000
# 2 -0.016724 0.032599 0.004427 0.000000 -0.020110 0.000000
# 3 -0.010925 0.004427 0.012073 0.000000 -0.009431 0.000000
# 4 0.000000 0.000000 0.000000 0.185341 0.000000 0.105848
# 5 0.018953 -0.020110 -0.009431 0.000000 0.044756 0.000000
# 6 0.000000 0.000000 0.000000 0.105848 0.000000 0.112382
#
#
# Mechanical properties :
#
#
# Convention : Reuss Voigt Hill
#
# Bulk Modulus (GPa) = 35.07313 46.46119 40.76716
# Shear Modulus (GPa) = 10.56224 24.39581 17.47903
#
# Velocity S-wave (km/s) = 2.20286 3.34786 2.83379
# Velocity P-wave (km/s) = 4.75224 6.02411 5.42557
#
# Compressibility (1/GPa) = 0.02851186
#
# Stress axis : x y z
#
# Youngs Moduli (GPa) = 33.01960 30.67563 82.83229
#
# Poissons Ratio (x) = 0.51301 0.90496
# Poissons Ratio (y) = 0.55221 -0.36666
# Poissons Ratio (z) = 0.36075 -0.13579
#
# Static dielectric constant tensor:
#      x y z
#    x 1.753770 0.000000 0.015430 
#    y 0.000000 1.841680 0.000000 
#    z 0.015430 0.000000 1.764120 
# 
# From -- ./inp_files/87722.got.cif
#   From: 2010.05.17/outbox.cif.g08.bks.cpg/sg15_44_cif.got.tgz:87722.got - 2010.06.03 18:47:42.
