data_PCOD9305332
_publ_section_title
;
Structure prediction by ZEFSAII (Michael W. Deem and Ramdas Pophale) SiO2 
 PCOD9305332
Probable space group: C 2/C
;
_chemical_formula_sum "Si O2"
_cell_formula_units_Z 64
_cell_length_a 19.890959
_cell_length_b 8.479598
_cell_length_c 28.956444
_cell_angle_alpha 90.000000
_cell_angle_beta 149.869907
_cell_angle_gamma 90.000000
_cell_volume 2451.600524
_symmetry_space_group_name_H-M "C 2/C"
_symmetry_group_IT_number 15
_symmetry_cell_setting 'monoclinic'
loop_
_space_group_symop_operation_xyz
x,y,z
-x,y,1/2-z
-x,-y,-z
x,-y,1/2+z
1/2+x,1/2+y,z
1/2-x,1/2+y,1/2-z
1/2-x,1/2-y,-z
1/2+x,1/2-y,1/2+z
loop_
_atom_site_type_symbol
_atom_site_label
_atom_site_fract_x
_atom_site_fract_y
_atom_site_fract_z
Si Si1 0.542767 0.455835 0.444012
Si Si2 0.671042 0.737555 0.636807
Si Si3 0.890701 0.730439 0.838006
Si Si4 0.482053 0.664462 0.811704
Si Si5 0.210076 0.660429 0.885593
Si Si6 0.820860 0.581379 0.888039
Si Si7 0.462518 0.005827 0.645017
Si Si8 0.253866 0.016187 0.944708
O O1 0.447998 0.385337 0.427328
O O2 0.476311 0.613759 0.383188
O O3 0.530517 0.339718 0.393638
O O4 0.686667 0.516120 0.544988
O O5 0.744774 0.755496 0.729587
O O6 0.780536 0.683489 0.663867
O O7 0.625242 0.908184 0.592530
O O8 0.883432 0.697104 0.887920
O O9 0.952843 0.588599 0.845232
O O10 0.339148 0.583675 0.718451
O O11 0.472070 0.849749 0.794963
O O12 0.601928 0.577615 0.856236
O O13 0.081521 0.619820 0.839742
O O14 0.257951 0.830108 0.934321
O O15 0.827631 0.606696 0.946682
O O16 0.325369 0.963505 0.536019
#
# Coordination Sequence:
#
# PCOD9305332 Si02
#       8
#     8   8   8   8   8   8   8   8
#     4  12  23  44  73  98 137 179 227 281 341 403
#     4  11  24  44  70 100 135 184 225 280 344 402
#     4  12  24  44  67 100 139 181 227 281 344 404
#     4  12  24  44  71  97 136 184 229 282 334 406
#     4  11  25  46  69 102 140 177 229 284 338 408
#     4  11  26  46  68 100 138 178 231 284 337 405
#     4  12  26  44  71 102 137 184 227 279 345 399
#     4  11  24  47  70 100 138 183 228 279 344 407
#
# _framework density 26.105395000000001
#
# number of rings (size 3 to 8) (size 9 to 14) (size 15 to 20)
#    0.000    0.500    5.000    3.000    1.750    2.000 
#    4.500    0.000    0.000    0.000    0.000    0.000 
#    0.000    0.000    0.000    0.000    0.000    0.000 
#
# Total GULP energy -179428.612745 kJ/mol
# GULP energy per Si atom -5607.144148 kJ/mol
# Density = 2.604598 g / cm^3
# Si number density = 26.105395 Si / 1000 Ang^3
#
#
#
# Elastic Constant Matrix: (Units=GPa)
#
#
# Indices 1 2 3 4 5 6 
#
# 1 128.4430 17.5048 13.8174 0.0000 -7.6635 0.0001
# 2 17.5048 75.9283 -1.7529 0.0000 4.3392 0.0002
# 3 13.8174 -1.7529 64.3592 0.0001 -12.0927 0.0000
# 4 0.0000 0.0000 0.0001 20.7095 0.0000 4.1226
# 5 -7.6635 4.3392 -12.0927 0.0000 48.7090 0.0000
# 6 0.0001 0.0002 0.0000 4.1226 0.0000 44.8746
#
#
#
# Elastic Compliance Matrix: (Units=1/GPa)
#
#
# Indices 1 2 3 4 5 6 
#
# 1 0.008300 -0.002013 -0.001634 0.000000 0.001080 0.000000
# 2 -0.002013 0.013727 0.000542 0.000000 -0.001405 0.000000
# 3 -0.001634 0.000542 0.016621 0.000000 0.003821 0.000000
# 4 0.000000 0.000000 0.000000 0.049187 0.000000 -0.004519
# 5 0.001080 -0.001405 0.003821 0.000000 0.021774 0.000000
# 6 0.000000 0.000000 0.000000 -0.004519 0.000000 0.022699
#
#
# Mechanical properties :
#
#
# Convention : Reuss Voigt Hill
#
# Bulk Modulus (GPa) = 30.82717 36.42989 33.62853
# Shear Modulus (GPa) = 33.48268 38.80271 36.14270
#
# Velocity S-wave (km/s) = 3.58522 3.85955 3.72491
# Velocity P-wave (km/s) = 5.38264 5.81779 5.60444
#
# Compressibility (1/GPa) = 0.03243892
#
# Stress axis : x y z
#
# Youngs Moduli (GPa) = 120.48094 72.84813 60.16369
#
# Poissons Ratio (x) = 0.14664 0.09830
# Poissons Ratio (y) = 0.24252 -0.03261
# Poissons Ratio (z) = 0.19686 -0.03949
#
# Static dielectric constant tensor:
#      x y z
#    x 2.004580 0.000000 0.040170 
#    y 0.000000 1.960130 0.000000 
#    z 0.040170 0.000000 2.087020 
# 
# From -- ./inp_files/315764.got.cif
#   From: 2010.05.17/outbox.cif.g08.bks.cpg/sg15_158_cif.got.tgz:315764.got - 2010.06.03 18:47:42.
