data_PCOD9305427
_publ_section_title
;
Structure prediction by ZEFSAII (Michael W. Deem and Ramdas Pophale) SiO2 
 PCOD9305427
Probable space group: C 2/C
;
_chemical_formula_sum "Si O2"
_cell_formula_units_Z 56
_cell_length_a 16.875398
_cell_length_b 15.972552
_cell_length_c 10.358756
_cell_angle_alpha 90.000000
_cell_angle_beta 57.271692
_cell_angle_gamma 90.000000
_cell_volume 2348.863592
_symmetry_space_group_name_H-M "C 2/C"
_symmetry_group_IT_number 15
_symmetry_cell_setting 'monoclinic'
loop_
_space_group_symop_operation_xyz
x,y,z
-x,y,1/2-z
-x,-y,-z
x,-y,1/2+z
1/2+x,1/2+y,z
1/2-x,1/2+y,1/2-z
1/2-x,1/2-y,-z
1/2+x,1/2-y,1/2+z
loop_
_atom_site_type_symbol
_atom_site_label
_atom_site_fract_x
_atom_site_fract_y
_atom_site_fract_z
Si Si1 0.500000 0.638093 0.750000
Si Si2 0.566067 0.021425 0.256299
Si Si3 0.752728 0.061234 0.193745
Si Si4 0.237570 0.752432 0.856110
Si Si5 0.921417 0.614568 0.543744
Si Si6 0.345108 0.504695 0.364392
Si Si7 0.000000 0.142629 0.250000
Si Si8 0.944801 0.760794 0.055956
O O1 0.589773 0.578369 0.699673
O O2 0.496441 0.696660 0.878478
O O3 0.500000 0.946590 0.250000
O O4 0.655138 0.081859 0.204270
O O5 0.456980 0.065919 0.382125
O O6 0.600972 0.960832 0.343019
O O7 0.796128 0.155208 0.158610
O O8 0.767070 0.019262 0.322132
O O9 0.803227 0.001037 0.044803
O O10 0.163849 0.678718 0.890484
O O11 0.336288 0.736521 0.695471
O O12 0.250000 0.750000 0.000000
O O13 0.013874 0.668009 0.493708
O O14 0.415595 0.581283 0.285093
O O15 0.964847 0.194061 0.403845
#
# Coordination Sequence:
#
# PCOD9305427 Si02
#       8
#     4   8   8   8   8   8   4   8
#     4  11  24  44  76 107 148 198 248 317 380 448
#     4  11  27  46  72 101 146 198 244 316 381 457
#     4  12  26  47  75 113 149 191 265 312 389 466
#     4  12  26  45  80 113 149 206 261 326 381 466
#     4  11  26  46  70 107 144 196 254 310 385 454
#     4  11  25  45  74 110 149 198 248 317 385 467
#     4  11  26  46  72 111 160 200 242 317 406 464
#     4  12  25  47  72 111 155 199 259 320 386 472
#
# _framework density 23.841317
#
# number of rings (size 3 to 8) (size 9 to 14) (size 15 to 20)
#    0.000    0.571    1.429    6.000   12.000    2.286 
#    0.000    1.429    0.000    0.000    0.000    0.000 
#    0.000    0.000    0.000    0.000    0.000    0.000 
#
# Total GULP energy -156106.094906 kJ/mol
# GULP energy per Si atom -5575.217675 kJ/mol
# Density = 2.378705 g / cm^3
# Si number density = 23.841317 Si / 1000 Ang^3
#
#
#
# Elastic Constant Matrix: (Units=GPa)
#
#
# Indices 1 2 3 4 5 6 
#
# 1 130.3330 20.8653 21.7962 0.0000 -10.3623 0.0000
# 2 20.8653 81.6219 40.8150 0.0000 -1.5464 0.0000
# 3 21.7962 40.8150 114.8500 0.0000 -1.5095 0.0000
# 4 0.0000 0.0000 0.0000 41.2148 0.0000 -13.7063
# 5 -10.3623 -1.5464 -1.5095 0.0000 43.9945 0.0000
# 6 0.0000 0.0000 0.0000 -13.7063 0.0000 66.5135
#
#
#
# Elastic Compliance Matrix: (Units=1/GPa)
#
#
# Indices 1 2 3 4 5 6 
#
# 1 0.008236 -0.001582 -0.000977 0.000000 0.001851 0.000000
# 2 -0.001582 0.015208 -0.005105 0.000000 -0.000013 0.000000
# 3 -0.000977 -0.005105 0.010706 0.000000 -0.000042 0.000000
# 4 0.000000 0.000000 0.000000 0.026048 0.000000 0.005368
# 5 0.001851 -0.000013 -0.000042 0.000000 0.023164 0.000000
# 6 0.000000 0.000000 0.000000 0.005368 0.000000 0.016141
#
#
# Mechanical properties :
#
#
# Convention : Reuss Voigt Hill
#
# Bulk Modulus (GPa) = 53.12344 54.86199 53.99272
# Shear Modulus (GPa) = 41.28655 46.56646 43.92650
#
# Velocity S-wave (km/s) = 4.16591 4.42428 4.29704
# Velocity P-wave (km/s) = 6.74316 7.01144 6.87861
#
# Compressibility (1/GPa) = 0.01882408
#
# Stress axis : x y z
#
# Youngs Moduli (GPa) = 121.41222 65.75326 93.40694
#
# Poissons Ratio (x) = 0.10403 0.09121
# Poissons Ratio (y) = 0.19209 0.47681
# Poissons Ratio (z) = 0.11856 0.33565
#
# Static dielectric constant tensor:
#      x y z
#    x 1.998380 0.000000 -0.132370 
#    y 0.000000 1.861960 0.000000 
#    z -0.132370 0.000000 1.875370 
# 
# From -- ./inp_files/105667.got.cif
#   From: 2010.05.17/outbox.cif.g08.bks.cpg/sg15_53_cif.got.tgz:105667.got - 2010.06.03 18:47:42.
