data_PCOD9305491
_publ_section_title
;
Structure prediction by ZEFSAII (Michael W. Deem and Ramdas Pophale) SiO2 
 PCOD9305491
Probable space group: C 2/C
;
_chemical_formula_sum "Si O2"
_cell_formula_units_Z 36
_cell_length_a 10.866510
_cell_length_b 27.404685
_cell_length_c 9.145104
_cell_angle_alpha 90.000000
_cell_angle_beta 42.634472
_cell_angle_gamma 90.000000
_cell_volume 1844.576308
_symmetry_space_group_name_H-M "C 2/C"
_symmetry_group_IT_number 15
_symmetry_cell_setting 'monoclinic'
loop_
_space_group_symop_operation_xyz
x,y,z
-x,y,1/2-z
-x,-y,-z
x,-y,1/2+z
1/2+x,1/2+y,z
1/2-x,1/2+y,1/2-z
1/2-x,1/2-y,-z
1/2+x,1/2-y,1/2+z
loop_
_atom_site_type_symbol
_atom_site_label
_atom_site_fract_x
_atom_site_fract_y
_atom_site_fract_z
Si Si1 0.000000 0.122752 0.250000
Si Si2 0.978278 0.943024 0.051375
Si Si3 0.792798 0.301816 0.390954
Si Si4 0.706456 0.301239 0.118753
Si Si5 0.303103 0.090612 0.478265
O O1 0.006751 0.088340 0.382822
O O2 0.830306 0.158004 0.423747
O O3 0.782223 0.929454 0.294559
O O4 0.144038 0.926504 0.009260
O O5 0.000000 0.000000 0.000000
O O6 0.750000 0.250000 0.500000
O O7 0.743194 0.297933 0.261318
O O8 0.000000 0.313144 0.250000
O O9 0.500000 0.311328 0.250000
O O10 0.750000 0.250000 0.000000
O O11 0.808923 0.350440 0.980824
O O12 0.500000 0.073154 0.250000
#
# Coordination Sequence:
#
# PCOD9305491 Si02
#       5
#     4   8   8   8   8
#     4  12  24  44  70  98 148 180 226 294 356 412
#     4  11  25  48  73  99 135 186 236 297 354 411
#     4  12  26  42  67 104 143 184 232 286 350 421
#     4  12  24  44  69 102 141 192 235 281 349 425
#     4  11  24  45  70 103 140 176 239 288 345 431
#
# _framework density 19.516677999999999
#
# number of rings (size 3 to 8) (size 9 to 14) (size 15 to 20)
#    0.000    0.444    5.556    3.333    6.222    0.889 
#    0.000    2.222    0.000    0.000    0.000    0.000 
#    0.000    0.000    0.000    0.000    0.000    0.000 
#
# Total GULP energy -100504.543923 kJ/mol
# GULP energy per Si atom -5583.585774 kJ/mol
# Density = 1.947226 g / cm^3
# Si number density = 19.516678 Si / 1000 Ang^3
#
#
#
# Elastic Constant Matrix: (Units=GPa)
#
#
# Indices 1 2 3 4 5 6 
#
# 1 124.6878 37.8563 89.9069 0.0000 2.3468 0.0000
# 2 37.8563 179.0088 82.0055 0.0000 6.0255 0.0000
# 3 89.9069 82.0055 175.6223 0.0000 -8.1302 0.0000
# 4 0.0000 0.0000 0.0000 16.4203 0.0000 0.9502
# 5 2.3468 6.0255 -8.1302 0.0000 40.5635 0.0000
# 6 0.0000 0.0000 0.0000 0.9502 0.0000 22.3583
#
#
#
# Elastic Compliance Matrix: (Units=1/GPa)
#
#
# Indices 1 2 3 4 5 6 
#
# 1 0.012925 0.000534 -0.006969 0.000000 -0.002224 0.000000
# 2 0.000534 0.007252 -0.003746 0.000000 -0.001859 0.000000
# 3 -0.006969 -0.003746 0.011159 0.000000 0.003196 0.000000
# 4 0.000000 0.000000 0.000000 0.061050 0.000000 -0.002595
# 5 -0.002224 -0.001859 0.003196 0.000000 0.025698 0.000000
# 6 0.000000 0.000000 0.000000 -0.002595 0.000000 0.044836
#
#
# Mechanical properties :
#
#
# Convention : Reuss Voigt Hill
#
# Bulk Modulus (GPa) = 91.12286 99.87293 95.49790
# Shear Modulus (GPa) = 26.74668 33.83845 30.29256
#
# Velocity S-wave (km/s) = 3.70598 4.16844 3.94399
# Velocity P-wave (km/s) = 8.06867 8.62856 8.35331
#
# Compressibility (1/GPa) = 0.01097419
#
# Stress axis : x y z
#
# Youngs Moduli (GPa) = 77.37108 137.89551 89.61660
#
# Poissons Ratio (x) = -0.07365 0.62453
# Poissons Ratio (y) = -0.04132 0.33568
# Poissons Ratio (z) = 0.53919 0.51651
#
# Static dielectric constant tensor:
#      x y z
#    x 1.698960 0.000000 -0.027600 
#    y 0.000000 1.732470 0.000000 
#    z -0.027600 0.000000 1.763640 
# 
# From -- ./inp_files/33261.got.cif
#   From: 2010.05.17/outbox.cif.g08.bks.cpg/sg15_17_cif.got.tgz:33261.got - 2010.06.03 18:47:42.
