data_PCOD9305794
_publ_section_title
;
Structure prediction by ZEFSAII (Michael W. Deem and Ramdas Pophale) SiO2 
 PCOD9305794
Probable space group: C 2/C
;
_chemical_formula_sum "Si O2"
_cell_formula_units_Z 32
_cell_length_a 6.077770
_cell_length_b 25.727271
_cell_length_c 9.063488
_cell_angle_alpha 90.000000
_cell_angle_beta 100.697846
_cell_angle_gamma 90.000000
_cell_volume 1392.575810
_symmetry_space_group_name_H-M "C 2/C"
_symmetry_group_IT_number 15
_symmetry_cell_setting 'monoclinic'
loop_
_space_group_symop_operation_xyz
x,y,z
-x,y,1/2-z
-x,-y,-z
x,-y,1/2+z
1/2+x,1/2+y,z
1/2-x,1/2+y,1/2-z
1/2-x,1/2-y,-z
1/2+x,1/2-y,1/2+z
loop_
_atom_site_type_symbol
_atom_site_label
_atom_site_fract_x
_atom_site_fract_y
_atom_site_fract_z
Si Si1 0.813375 0.845751 0.596552
Si Si2 0.132827 0.121839 0.895113
Si Si3 0.494544 0.945844 0.581581
Si Si4 0.425801 0.781508 0.410447
O O1 0.682194 0.900869 0.584169
O O2 0.629812 0.800149 0.545197
O O3 0.000000 0.843791 0.750000
O O4 0.958301 0.845994 0.468071
O O5 0.304186 0.164294 0.856099
O O6 0.000000 0.093598 0.750000
O O7 0.264901 0.082576 0.012519
O O8 0.500000 0.960138 0.750000
O O9 0.500000 0.000000 0.500000
O O10 0.500000 0.762625 0.250000
O O11 0.250000 0.750000 0.500000
#
# Coordination Sequence:
#
# PCOD9305794 Si02
#       4
#     8   8   8   8
#     4  11  24  49  75 104 153 198 252 315 380 449
#     4  11  24  47  73 102 147 198 249 310 376 446
#     4  11  26  43  70 111 148 194 252 310 378 455
#     4  11  26  50  77 112 150 197 256 318 386 461
#
# _framework density 22.979002000000001
#
# number of rings (size 3 to 8) (size 9 to 14) (size 15 to 20)
#    0.000    1.000    5.000    0.000    3.500    4.000 
#    4.500    1.250    0.000    0.000    0.000    0.000 
#    0.000    0.000    0.000    0.000    0.000    0.000 
#
# Total GULP energy -89180.934154 kJ/mol
# GULP energy per Si atom -5573.808385 kJ/mol
# Density = 2.292670 g / cm^3
# Si number density = 22.979002 Si / 1000 Ang^3
#
#
#
# Elastic Constant Matrix: (Units=GPa)
#
#
# Indices 1 2 3 4 5 6 
#
# 1 141.4458 58.8777 80.5467 0.0000 26.2377 0.0000
# 2 58.8777 145.2484 52.3276 0.0000 8.9752 0.0000
# 3 80.5467 52.3276 170.3923 0.0000 32.3013 0.0000
# 4 0.0000 0.0000 0.0000 34.1501 0.0000 -20.6840
# 5 26.2377 8.9752 32.3013 0.0000 55.4537 0.0000
# 6 0.0000 0.0000 0.0000 -20.6840 0.0000 41.1259
#
#
#
# Elastic Compliance Matrix: (Units=1/GPa)
#
#
# Indices 1 2 3 4 5 6 
#
# 1 0.010894 -0.002897 -0.003790 0.000000 -0.002478 0.000000
# 2 -0.002897 0.008513 -0.001398 0.000000 0.000807 0.000000
# 3 -0.003790 -0.001398 0.008664 0.000000 -0.003027 0.000000
# 4 0.000000 0.000000 0.000000 0.042110 0.000000 0.021179
# 5 -0.002478 0.000807 -0.003027 0.000000 0.020838 0.000000
# 6 0.000000 0.000000 0.000000 0.021179 0.000000 0.034968
#
#
# Mechanical properties :
#
#
# Convention : Reuss Voigt Hill
#
# Bulk Modulus (GPa) = 84.03547 93.39896 88.71722
# Shear Modulus (GPa) = 34.21776 43.83490 39.02633
#
# Velocity S-wave (km/s) = 3.86306 4.37235 4.12557
# Velocity P-wave (km/s) = 7.51981 8.13779 7.83489
#
# Compressibility (1/GPa) = 0.01189974
#
# Stress axis : x y z
#
# Youngs Moduli (GPa) = 91.79527 117.46895 115.42646
#
# Poissons Ratio (x) = 0.34035 0.43749
# Poissons Ratio (y) = 0.26596 0.16133
# Poissons Ratio (z) = 0.34792 0.16419
#
# Static dielectric constant tensor:
#      x y z
#    x 1.947370 0.000000 0.024230 
#    y 0.000000 1.759040 0.000000 
#    z 0.024230 0.000000 1.923950 
# 
# From -- ./inp_files/20243.got.cif
#   From: 2010.05.17/outbox.cif.g08.bks.cpg/sg15_11_cif.got.tgz:20243.got - 2010.06.03 18:47:42.
