data_PCOD9305899
_publ_section_title
;
Structure prediction by ZEFSAII (Michael W. Deem and Ramdas Pophale) SiO2 
 PCOD9305899
Probable space group: C 2/C
;
_chemical_formula_sum "Si O2"
_cell_formula_units_Z 48
_cell_length_a 9.450327
_cell_length_b 11.162832
_cell_length_c 23.283372
_cell_angle_alpha 90.000000
_cell_angle_beta 41.887350
_cell_angle_gamma 90.000000
_cell_volume 1639.939394
_symmetry_space_group_name_H-M "C 2/C"
_symmetry_group_IT_number 15
_symmetry_cell_setting 'monoclinic'
loop_
_space_group_symop_operation_xyz
x,y,z
-x,y,1/2-z
-x,-y,-z
x,-y,1/2+z
1/2+x,1/2+y,z
1/2-x,1/2+y,1/2-z
1/2-x,1/2-y,-z
1/2+x,1/2-y,1/2+z
loop_
_atom_site_type_symbol
_atom_site_label
_atom_site_fract_x
_atom_site_fract_y
_atom_site_fract_z
Si Si1 0.335391 0.549209 0.248556
Si Si2 0.893130 0.657260 0.541271
Si Si3 0.966131 0.241821 0.696700
Si Si4 0.083274 0.008401 0.070992
Si Si5 0.064272 0.595520 0.612586
Si Si6 0.208971 0.779268 0.363444
O O1 0.500000 0.583767 0.250000
O O2 0.405325 0.399127 0.223721
O O3 0.432436 0.587083 0.157050
O O4 0.083180 0.516536 0.327699
O O5 0.696942 0.750149 0.597379
O O6 0.782059 0.538941 0.549193
O O7 0.957485 0.651926 0.588174
O O8 0.085988 0.691183 0.442848
O O9 0.794091 0.281269 0.699712
O O10 0.000000 0.293413 0.750000
O O11 0.942730 0.894900 0.096295
O O12 0.199003 0.067568 0.982170
O O13 0.092517 0.671553 0.661715
#
# Coordination Sequence:
#
# PCOD9305899 Si02
#       6
#     8   8   8   8   8   8
#     4  12  28  49  75 110 150 200 256 316 378 448
#     4  11  24  48  74 109 155 200 244 316 375 455
#     4  11  28  48  73 104 153 196 257 311 379 439
#     4  11  25  47  77 109 152 199 254 308 378 451
#     4  12  26  46  79 112 154 194 256 311 379 457
#     4  11  26  47  78 108 152 201 249 308 388 452
#
# _framework density 29.269373999999999
#
# number of rings (size 3 to 8) (size 9 to 14) (size 15 to 20)
#    0.000    0.667    1.667    5.500   11.667    1.333 
#    0.000    0.000    0.000    0.000    0.000    0.000 
#    0.000    0.000    0.000    0.000    0.000    0.000 
#
# Total GULP energy -134351.371111 kJ/mol
# GULP energy per Si atom -5597.973796 kJ/mol
# Density = 2.920276 g / cm^3
# Si number density = 29.269374 Si / 1000 Ang^3
#
#
#
# Elastic Constant Matrix: (Units=GPa)
#
#
# Indices 1 2 3 4 5 6 
#
# 1 244.3004 64.3407 58.9691 0.0000 38.4812 0.0000
# 2 64.3407 82.8697 23.3038 -0.0001 9.4057 0.0000
# 3 58.9691 23.3038 181.6324 -0.0001 9.6263 0.0000
# 4 0.0000 -0.0001 -0.0001 38.5889 0.0001 9.4605
# 5 38.4812 9.4057 9.6263 0.0001 63.0599 0.0000
# 6 0.0000 0.0000 0.0000 9.4605 0.0000 32.6037
#
#
#
# Elastic Compliance Matrix: (Units=1/GPa)
#
#
# Indices 1 2 3 4 5 6 
#
# 1 0.005860 -0.003878 -0.001256 0.000000 -0.002806 0.000000
# 2 -0.003878 0.015255 -0.000709 0.000000 0.000199 0.000000
# 3 -0.001256 -0.000709 0.006007 0.000000 -0.000045 0.000000
# 4 0.000000 0.000000 0.000000 0.027899 0.000000 -0.008095
# 5 -0.002806 0.000199 -0.000045 0.000000 0.017547 0.000000
# 6 0.000000 0.000000 0.000000 -0.008095 0.000000 0.033020
#
#
# Mechanical properties :
#
#
# Convention : Reuss Voigt Hill
#
# Bulk Modulus (GPa) = 64.78574 89.11440 76.95007
# Shear Modulus (GPa) = 40.84354 50.99643 45.91998
#
# Velocity S-wave (km/s) = 3.73961 4.17863 3.96520
# Velocity P-wave (km/s) = 6.38972 7.33442 6.87831
#
# Compressibility (1/GPa) = 0.01543550
#
# Stress axis : x y z
#
# Youngs Moduli (GPa) = 170.65472 65.55376 166.47881
#
# Poissons Ratio (x) = 0.25421 0.20913
# Poissons Ratio (y) = 0.66178 0.11799
# Poissons Ratio (z) = 0.21438 0.04646
#
# Static dielectric constant tensor:
#      x y z
#    x 2.253100 0.000000 -0.037260 
#    y 0.000000 2.960600 0.000000 
#    z -0.037260 0.000000 2.439920 
# 
# From -- ./inp_files/232503.got.cif
#   From: 2010.05.17/outbox.cif.g08.bks.cpg/sg15_117_cif.got.tgz:232503.got - 2010.06.03 18:47:42.
