data_PCOD9305663
_publ_section_title
;
Structure prediction by ZEFSAII (Michael W. Deem and Ramdas Pophale) SiO2 
 PCOD9305663
Probable space group: C 2/C
;
_chemical_formula_sum "Si O2"
_cell_formula_units_Z 40
_cell_length_a 5.265715
_cell_length_b 27.246304
_cell_length_c 11.389430
_cell_angle_alpha 90.000000
_cell_angle_beta 90.950680
_cell_angle_gamma 90.000000
_cell_volume 1633.831074
_symmetry_space_group_name_H-M "C 2/C"
_symmetry_group_IT_number 15
_symmetry_cell_setting 'monoclinic'
loop_
_space_group_symop_operation_xyz
x,y,z
-x,y,1/2-z
-x,-y,-z
x,-y,1/2+z
1/2+x,1/2+y,z
1/2-x,1/2+y,1/2-z
1/2-x,1/2-y,-z
1/2+x,1/2-y,1/2+z
loop_
_atom_site_type_symbol
_atom_site_label
_atom_site_fract_x
_atom_site_fract_y
_atom_site_fract_z
Si Si1 0.000000 0.434027 0.250000
Si Si2 0.931725 0.795476 0.969101
Si Si3 0.500000 0.238097 0.750000
Si Si4 0.750428 0.617897 0.172489
Si Si5 0.252636 0.007980 0.079687
Si Si6 0.217079 0.151365 0.676447
O O1 0.203325 0.473217 0.305492
O O2 0.066283 0.389648 0.345968
O O3 0.758589 0.839755 0.923550
O O4 0.074281 0.772284 0.857835
O O5 0.750000 0.750000 0.000000
O O6 0.123278 0.821130 0.060396
O O7 0.283018 0.197056 0.764560
O O8 0.500000 0.622563 0.250000
O O9 0.748235 0.563992 0.118946
O O10 0.000000 0.624133 0.250000
O O11 0.500000 0.000000 0.000000
O O12 0.000000 0.000000 0.000000
O O13 0.000000 0.123678 0.750000
#
# Coordination Sequence:
#
# PCOD9305663 Si02
#       6
#     4   8   4   8   8   8
#     4  11  28  48  76 110 158 194 270 331 408 490
#     4  12  26  45  78 110 158 207 270 334 410 494
#     4  11  24  46  72 108 146 208 256 335 398 484
#     4  12  28  50  78 116 157 205 267 329 408 489
#     4  12  28  50  83 114 156 210 267 332 411 482
#     4  11  25  45  72 109 150 202 261 322 407 481
#
# _framework density 24.482336
#
# number of rings (size 3 to 8) (size 9 to 14) (size 15 to 20)
#    0.000    0.400    4.000    3.000    8.400    1.600 
#    0.000    0.000    0.000    0.000    0.000    0.000 
#    0.000    0.000    0.000    0.000    0.000    0.000 
#
# Total GULP energy -111461.359792 kJ/mol
# GULP energy per Si atom -5573.067990 kJ/mol
# Density = 2.442661 g / cm^3
# Si number density = 24.482336 Si / 1000 Ang^3
#
#
#
# Elastic Constant Matrix: (Units=GPa)
#
#
# Indices 1 2 3 4 5 6 
#
# 1 125.2943 43.0166 44.9282 0.0000 24.4862 0.0000
# 2 43.0166 260.4089 82.4328 0.0000 36.6438 0.0000
# 3 44.9282 82.4328 86.6598 0.0000 41.4963 0.0000
# 4 0.0000 0.0000 0.0000 51.1063 0.0000 11.3987
# 5 24.4862 36.6438 41.4963 0.0000 57.8074 0.0000
# 6 0.0000 0.0000 0.0000 11.3987 0.0000 37.4182
#
#
#
# Elastic Compliance Matrix: (Units=1/GPa)
#
#
# Indices 1 2 3 4 5 6 
#
# 1 0.009826 -0.000027 -0.004699 0.000000 -0.000772 0.000000
# 2 -0.000027 0.005501 -0.005416 0.000000 0.000412 0.000000
# 3 -0.004699 -0.005416 0.025188 0.000000 -0.012658 0.000000
# 4 0.000000 0.000000 0.000000 0.020993 0.000000 -0.006395
# 5 -0.000772 0.000412 -0.012658 0.000000 0.026451 0.000000
# 6 0.000000 0.000000 0.000000 -0.006395 0.000000 0.028673
#
#
# Mechanical properties :
#
#
# Convention : Reuss Voigt Hill
#
# Bulk Modulus (GPa) = 49.42796 90.34647 69.88721
# Shear Modulus (GPa) = 34.80416 49.39876 42.10146
#
# Velocity S-wave (km/s) = 3.77451 4.49679 4.15139
# Velocity P-wave (km/s) = 6.26330 7.99652 7.18238
#
# Compressibility (1/GPa) = 0.02023147
#
# Stress axis : x y z
#
# Youngs Moduli (GPa) = 101.76722 181.78351 39.70085
#
# Poissons Ratio (x) = 0.00493 0.18655
# Poissons Ratio (y) = 0.00276 0.21502
# Poissons Ratio (z) = 0.47820 0.98455
#
# Static dielectric constant tensor:
#      x y z
#    x 2.930730 0.000000 -0.094710 
#    y 0.000000 1.872840 0.000000 
#    z -0.094710 0.000000 2.057650 
# 
# From -- ./inp_files/73371.got.cif
#   From: 2010.05.17/outbox.cif.g08.bks.cpg/sg15_37_cif.got.tgz:73371.got - 2010.06.03 18:47:42.
