data_PCOD9305479
_publ_section_title
;
Structure prediction by ZEFSAII (Michael W. Deem and Ramdas Pophale) SiO2 
 PCOD9305479
Probable space group: C 2/C
;
_chemical_formula_sum "Si O2"
_cell_formula_units_Z 64
_cell_length_a 14.741927
_cell_length_b 12.030487
_cell_length_c 29.018002
_cell_angle_alpha 90.000000
_cell_angle_beta 139.079270
_cell_angle_gamma 90.000000
_cell_volume 3370.976422
_symmetry_space_group_name_H-M "C 2/C"
_symmetry_group_IT_number 15
_symmetry_cell_setting 'monoclinic'
loop_
_space_group_symop_operation_xyz
x,y,z
-x,y,1/2-z
-x,-y,-z
x,-y,1/2+z
1/2+x,1/2+y,z
1/2-x,1/2+y,1/2-z
1/2-x,1/2-y,-z
1/2+x,1/2-y,1/2+z
loop_
_atom_site_type_symbol
_atom_site_label
_atom_site_fract_x
_atom_site_fract_y
_atom_site_fract_z
Si Si1 0.349360 0.374859 0.668444
Si Si2 0.346361 0.746049 0.329511
Si Si3 0.346646 0.637694 0.669155
Si Si4 0.290293 0.497788 0.948284
Si Si5 0.140508 0.719742 0.418637
Si Si6 0.150765 0.277050 0.419339
Si Si7 0.082745 0.990799 0.603518
Si Si8 0.166065 0.766258 0.168209
O O1 0.500000 0.361776 0.750000
O O2 0.317054 0.506015 0.654764
O O3 0.354629 0.322372 0.619642
O O4 0.240336 0.305136 0.657019
O O5 0.263476 0.802037 0.339767
O O6 0.496830 0.799121 0.378907
O O7 0.375331 0.616303 0.351067
O O8 0.256985 0.758330 0.249140
O O9 0.500000 0.650858 0.750000
O O10 0.347875 0.695122 0.619652
O O11 0.182072 0.401924 0.917478
O O12 0.215184 0.615743 0.919442
O O13 0.357693 0.473494 0.924800
O O14 0.416723 0.499357 0.033570
O O15 0.250000 0.750000 0.500000
O O16 0.986771 0.721870 0.379670
O O17 0.250000 0.250000 0.500000
O O18 0.145155 0.105053 0.646457
#
# Coordination Sequence:
#
# PCOD9305479 Si02
#       8
#     8   8   8   8   8   8   8   8
#     4  11  26  48  69 101 143 180 226 287 346 409
#     4  12  26  44  72 104 136 182 232 282 344 410
#     4  11  26  48  69 101 143 180 226 287 346 409
#     4  11  24  45  69  98 141 182 226 289 337 402
#     4  12  26  44  71 104 140 182 230 278 347 411
#     4  12  26  44  71 104 140 182 230 278 347 411
#     4  11  24  45  71  96 140 183 228 283 346 399
#     4  12  26  44  72 104 136 182 232 282 344 410
#
# _framework density 18.985596000000001
#
# number of rings (size 3 to 8) (size 9 to 14) (size 15 to 20)
#    0.000    0.500    7.500    0.000    7.000    1.000 
#    0.000    3.750    0.000    0.000    0.000    0.000 
#    0.000    0.000    0.000    0.000    0.000    0.000 
#
# Total GULP energy -178984.408030 kJ/mol
# GULP energy per Si atom -5593.262751 kJ/mol
# Density = 1.894238 g / cm^3
# Si number density = 18.985596 Si / 1000 Ang^3
#
#
#
# Elastic Constant Matrix: (Units=GPa)
#
#
# Indices 1 2 3 4 5 6 
#
# 1 115.6859 24.7923 41.1501 0.0000 10.8881 0.0000
# 2 24.7923 114.6263 41.5761 0.0000 -2.1405 0.0000
# 3 41.1501 41.5761 134.1931 0.0000 -0.3328 0.0000
# 4 0.0000 0.0000 0.0000 34.9540 0.0000 -2.7902
# 5 10.8881 -2.1405 -0.3328 0.0000 35.8964 0.0000
# 6 0.0000 0.0000 0.0000 -2.7902 0.0000 36.5592
#
#
#
# Elastic Compliance Matrix: (Units=1/GPa)
#
#
# Indices 1 2 3 4 5 6 
#
# 1 0.010191 -0.001270 -0.002739 0.000000 -0.003192 0.000000
# 2 -0.001270 0.009998 -0.002706 0.000000 0.000956 0.000000
# 3 -0.002739 -0.002706 0.009132 0.000000 0.000754 0.000000
# 4 0.000000 0.000000 0.000000 0.028784 0.000000 0.002197
# 5 -0.003192 0.000956 0.000754 0.000000 0.028890 0.000000
# 6 0.000000 0.000000 0.000000 0.002197 0.000000 0.027521
#
#
# Mechanical properties :
#
#
# Convention : Reuss Voigt Hill
#
# Bulk Modulus (GPa) = 62.93063 64.39360 63.66211
# Shear Modulus (GPa) = 37.52503 38.61435 38.06969
#
# Velocity S-wave (km/s) = 4.45061 4.51474 4.48279
# Velocity P-wave (km/s) = 7.72198 7.82099 7.77165
#
# Compressibility (1/GPa) = 0.01589051
#
# Stress axis : x y z
#
# Youngs Moduli (GPa) = 98.12364 100.02020 109.50295
#
# Poissons Ratio (x) = 0.12705 0.29998
# Poissons Ratio (y) = 0.12464 0.29628
# Poissons Ratio (z) = 0.26881 0.27063
#
# Static dielectric constant tensor:
#      x y z
#    x 1.641690 0.000000 -0.004110 
#    y 0.000000 1.631680 0.000000 
#    z -0.004110 0.000000 1.636960 
# 
# From -- ./inp_files/296147.got.cif
#   From: 2010.05.17/outbox.cif.g08.bks.cpg/sg15_149_cif.got.tgz:296147.got - 2010.06.03 18:47:42.
