data_PCOD9305215
_publ_section_title
;
Structure prediction by ZEFSAII (Michael W. Deem and Ramdas Pophale) SiO2 
 PCOD9305215
Probable space group: C 2/C
;
_chemical_formula_sum "Si O2"
_cell_formula_units_Z 28
_cell_length_a 7.851980
_cell_length_b 13.848496
_cell_length_c 10.722274
_cell_angle_alpha 90.000000
_cell_angle_beta 66.700078
_cell_angle_gamma 90.000000
_cell_volume 1070.835494
_symmetry_space_group_name_H-M "C 2/C"
_symmetry_group_IT_number 15
_symmetry_cell_setting 'monoclinic'
loop_
_space_group_symop_operation_xyz
x,y,z
-x,y,1/2-z
-x,-y,-z
x,-y,1/2+z
1/2+x,1/2+y,z
1/2-x,1/2+y,1/2-z
1/2-x,1/2-y,-z
1/2+x,1/2-y,1/2+z
loop_
_atom_site_type_symbol
_atom_site_label
_atom_site_fract_x
_atom_site_fract_y
_atom_site_fract_z
Si Si1 0.231668 0.171178 0.215847
Si Si2 0.000000 0.645032 0.750000
Si Si3 0.691499 0.464000 0.507392
Si Si4 0.652461 0.150216 0.047820
O O1 0.140767 0.275166 0.269300
O O2 0.137580 0.114722 0.127962
O O3 0.439504 0.177595 0.101360
O O4 0.280500 0.119975 0.331974
O O5 0.144473 0.582235 0.625914
O O6 0.500000 0.500000 0.500000
O O7 0.783524 0.557469 0.548365
O O8 0.750000 0.250000 0.000000
#
# Coordination Sequence:
#
# PCOD9305215 Si02
#       4
#     8   4   8   8
#     4  11  24  43  71 107 150 198 251 315 386 457
#     4  12  24  46  74 108 154 200 256 326 384 458
#     4  12  26  46  74 111 153 205 259 317 385 462
#     4  11  24  45  72 106 147 197 256 317 382 457
#
# _framework density 26.147805999999999
#
# number of rings (size 3 to 8) (size 9 to 14) (size 15 to 20)
#    0.000    0.571    0.000    8.571    0.000    2.286 
#    0.000    2.857    0.000    0.000    0.000    0.000 
#    0.000    0.000    0.000    0.000    0.000    0.000 
#
# Total GULP energy -78205.886744 kJ/mol
# GULP energy per Si atom -5586.134767 kJ/mol
# Density = 2.608829 g / cm^3
# Si number density = 26.147806 Si / 1000 Ang^3
#
#
#
# Elastic Constant Matrix: (Units=GPa)
#
#
# Indices 1 2 3 4 5 6 
#
# 1 178.5191 38.1566 48.0121 0.0000 -10.9650 0.0000
# 2 38.1566 176.5125 61.4450 0.0000 -20.2540 0.0000
# 3 48.0121 61.4450 123.4582 0.0000 -22.9923 0.0000
# 4 0.0000 0.0000 0.0000 50.5208 0.0000 -16.3298
# 5 -10.9650 -20.2540 -22.9923 0.0000 51.5012 0.0000
# 6 0.0000 0.0000 0.0000 -16.3298 0.0000 62.2428
#
#
#
# Elastic Compliance Matrix: (Units=1/GPa)
#
#
# Indices 1 2 3 4 5 6 
#
# 1 0.006312 -0.000607 -0.002123 0.000000 0.000157 0.000000
# 2 -0.000607 0.006989 -0.003004 0.000000 0.001278 0.000000
# 3 -0.002123 -0.003004 0.011034 0.000000 0.003293 0.000000
# 4 0.000000 0.000000 0.000000 0.021628 0.000000 0.005674
# 5 0.000157 0.001278 0.003293 0.000000 0.021423 0.000000
# 6 0.000000 0.000000 0.000000 0.005674 0.000000 0.017555
#
#
# Mechanical properties :
#
#
# Convention : Reuss Voigt Hill
#
# Bulk Modulus (GPa) = 77.72652 85.96857 81.84755
# Shear Modulus (GPa) = 49.65294 54.91138 52.28216
#
# Velocity S-wave (km/s) = 4.36240 4.58759 4.47641
# Velocity P-wave (km/s) = 7.42728 7.81093 7.62152
#
# Compressibility (1/GPa) = 0.01286562
#
# Stress axis : x y z
#
# Youngs Moduli (GPa) = 158.42486 143.08095 90.62901
#
# Poissons Ratio (x) = 0.08690 0.19242
# Poissons Ratio (y) = 0.09622 0.27227
# Poissons Ratio (z) = 0.33637 0.42985
#
# Static dielectric constant tensor:
#      x y z
#    x 2.195330 0.000000 0.092500 
#    y 0.000000 -6.332990 0.000000 
#    z 0.092500 0.000000 2.141480 
# 
# From -- ./inp_files/75482.got.cif
#   From: 2010.05.17/outbox.cif.g08.bks.cpg/sg15_38_cif.got.tgz:75482.got - 2010.06.03 18:47:42.
