data_PCOD9305504
_publ_section_title
;
Structure prediction by ZEFSAII (Michael W. Deem and Ramdas Pophale) SiO2 
 PCOD9305504
Probable space group: C 2/C
;
_chemical_formula_sum "Si O2"
_cell_formula_units_Z 60
_cell_length_a 25.460938
_cell_length_b 6.942168
_cell_length_c 17.853167
_cell_angle_alpha 90.000000
_cell_angle_beta 63.845081
_cell_angle_gamma 90.000000
_cell_volume 2832.502348
_symmetry_space_group_name_H-M "C 2/C"
_symmetry_group_IT_number 15
_symmetry_cell_setting 'monoclinic'
loop_
_space_group_symop_operation_xyz
x,y,z
-x,y,1/2-z
-x,-y,-z
x,-y,1/2+z
1/2+x,1/2+y,z
1/2-x,1/2+y,1/2-z
1/2-x,1/2-y,-z
1/2+x,1/2-y,1/2+z
loop_
_atom_site_type_symbol
_atom_site_label
_atom_site_fract_x
_atom_site_fract_y
_atom_site_fract_z
Si Si1 0.288975 0.012050 0.291203
Si Si2 0.916673 0.187395 0.906062
Si Si3 0.589197 0.032208 0.473906
Si Si4 0.585589 0.136146 0.812661
Si Si5 0.505783 0.375815 0.570875
Si Si6 0.791598 0.844873 0.411483
Si Si7 0.500000 0.938837 0.750000
Si Si8 0.781627 0.339984 0.625331
O O1 0.347885 0.882030 0.255749
O O2 0.237031 0.881055 0.355800
O O3 0.296680 0.198106 0.338226
O O4 0.278260 0.073203 0.211982
O O5 0.854736 0.135254 0.909305
O O6 0.955858 0.309410 0.824807
O O7 0.952247 0.996467 0.902540
O O8 0.910288 0.329414 0.982129
O O9 0.582785 0.993732 0.389518
O O10 0.537905 0.173492 0.533215
O O11 0.652422 0.130500 0.444892
O O12 0.558540 0.339242 0.855017
O O13 0.540907 0.062530 0.778518
O O14 0.500000 0.500000 0.500000
O O15 0.750000 0.750000 0.500000
O O16 0.761987 0.039449 0.399823
#
# Coordination Sequence:
#
# PCOD9305504 Si02
#       8
#     8   8   8   8   8   8   4   8
#     4  11  25  46  71 103 140 187 232 285 349 420
#     4  12  26  45  70 104 139 178 230 287 349 412
#     4  11  24  46  70 100 139 186 224 286 352 409
#     4  11  24  45  70  98 142 183 228 285 348 410
#     4  12  25  43  74 103 132 183 244 278 338 426
#     4  12  26  45  71 107 142 177 235 298 349 412
#     4  12  24  44  68  94 144 178 216 294 352 394
#     4  11  25  43  75 101 139 182 236 283 345 424
#
# _framework density 21.182683999999998
#
# number of rings (size 3 to 8) (size 9 to 14) (size 15 to 20)
#    0.000    0.533    6.667    1.200    1.867    5.333 
#    0.000    0.000    0.000    0.000    0.000    0.000 
#    0.000    0.000    0.000    0.000    0.000    0.000 
#
# Total GULP energy -167877.677515 kJ/mol
# GULP energy per Si atom -5595.922584 kJ/mol
# Density = 2.113447 g / cm^3
# Si number density = 21.182684 Si / 1000 Ang^3
#
#
#
# Elastic Constant Matrix: (Units=GPa)
#
#
# Indices 1 2 3 4 5 6 
#
# 1 84.6284 -1.5133 -8.3373 0.0022 9.2322 0.0056
# 2 -1.5133 32.0180 -20.2421 0.0039 1.4391 0.0117
# 3 -8.3373 -20.2421 46.8401 0.0007 1.2770 0.0032
# 4 0.0022 0.0039 0.0007 31.2191 -0.0009 -2.5308
# 5 9.2322 1.4391 1.2770 -0.0009 38.0733 -0.0013
# 6 0.0056 0.0117 0.0032 -2.5308 -0.0013 35.5023
#
#
#
# Elastic Compliance Matrix: (Units=1/GPa)
#
#
# Indices 1 2 3 4 5 6 
#
# 1 0.012589 0.003049 0.003648 -0.000002 -0.003290 -0.000004
# 2 0.003049 0.043905 0.019600 -0.000008 -0.003056 -0.000017
# 3 0.003648 0.019600 0.030541 -0.000004 -0.002650 -0.000010
# 4 -0.000002 -0.000008 -0.000004 0.032218 0.000002 0.002297
# 5 -0.003290 -0.003056 -0.002650 0.000002 0.027267 0.000003
# 6 -0.000004 -0.000017 -0.000010 0.002297 0.000003 0.028331
#
#
# Mechanical properties :
#
#
# Convention : Reuss Voigt Hill
#
# Bulk Modulus (GPa) = 7.16176 11.47791 9.31984
# Shear Modulus (GPa) = 29.62089 33.86421 31.74255
#
# Velocity S-wave (km/s) = 3.74351 4.00268 3.87526
# Velocity P-wave (km/s) = 4.69824 5.17612 4.94296
#
# Compressibility (1/GPa) = 0.13963045
#
# Stress axis : x y z
#
# Youngs Moduli (GPa) = 79.43282 22.77642 32.74289
#
# Poissons Ratio (x) = -0.06945 -0.11946
# Poissons Ratio (y) = -0.24222 -0.64175
# Poissons Ratio (z) = -0.28980 -0.44641
#
# Static dielectric constant tensor:
#      x y z
#    x 1.712080 0.000000 -0.015270 
#    y 0.000000 1.751830 0.000000 
#    z -0.015270 0.000000 1.753700 
# 
# From -- ./inp_files/256748.got.cif
#   From: 2010.05.17/outbox.cif.g08.bks.cpg/sg15_129_cif.got.tgz:256748.got - 2010.06.03 18:47:42.
