data_PCOD9305546
_publ_section_title
;
Structure prediction by ZEFSAII (Michael W. Deem and Ramdas Pophale) SiO2 
 PCOD9305546
Probable space group: C 2/C
;
_chemical_formula_sum "Si O2"
_cell_formula_units_Z 48
_cell_length_a 27.318706
_cell_length_b 8.547291
_cell_length_c 13.968522
_cell_angle_alpha 90.000000
_cell_angle_beta 142.260533
_cell_angle_gamma 90.000000
_cell_volume 1996.372236
_symmetry_space_group_name_H-M "C 2/C"
_symmetry_group_IT_number 15
_symmetry_cell_setting 'monoclinic'
loop_
_space_group_symop_operation_xyz
x,y,z
-x,y,1/2-z
-x,-y,-z
x,-y,1/2+z
1/2+x,1/2+y,z
1/2-x,1/2+y,1/2-z
1/2-x,1/2-y,-z
1/2+x,1/2-y,1/2+z
loop_
_atom_site_type_symbol
_atom_site_label
_atom_site_fract_x
_atom_site_fract_y
_atom_site_fract_z
Si Si1 0.008229 0.276201 0.874271
Si Si2 0.659406 0.273947 0.159095
Si Si3 0.009602 0.089930 0.152337
Si Si4 0.217262 0.511704 0.118434
Si Si5 0.144814 0.753693 0.731018
Si Si6 0.353579 0.920575 0.684970
O O1 0.949160 0.394319 0.836732
O O2 0.000000 0.313835 0.750000
O O3 0.978605 0.096390 0.838231
O O4 0.095226 0.274390 0.056242
O O5 0.729730 0.391621 0.237997
O O6 0.660491 0.122912 0.092689
O O7 0.678533 0.214385 0.295502
O O8 0.574836 0.360277 0.024191
O O9 0.000000 0.127814 0.250000
O O10 0.081253 0.176625 0.209373
O O11 0.283803 0.625854 0.174321
O O12 0.172115 0.421184 0.964629
O O13 0.171214 0.587026 0.811631
#
# Coordination Sequence:
#
# PCOD9305546 Si02
#       6
#     8   8   8   8   8   8
#     4  11  25  43  74 104 142 186 243 296 356 432
#     4  12  26  48  72 103 146 190 237 299 364 433
#     4  11  24  45  74 104 138 190 241 294 358 429
#     4  12  28  46  74 106 147 190 240 298 365 433
#     4  12  24  49  71 105 146 186 241 298 362 430
#     4  12  27  44  72 107 142 191 236 301 357 434
#
# _framework density 24.043610999999999
#
# number of rings (size 3 to 8) (size 9 to 14) (size 15 to 20)
#    0.000    0.333    3.333    5.000    4.667    2.000 
#    0.000    0.000    0.000    0.000    0.000    0.000 
#    0.000    0.000    0.000    0.000    0.000    0.000 
#
# Total GULP energy -134510.403264 kJ/mol
# GULP energy per Si atom -5604.600136 kJ/mol
# Density = 2.398889 g / cm^3
# Si number density = 24.043611 Si / 1000 Ang^3
#
#
#
# Elastic Constant Matrix: (Units=GPa)
#
#
# Indices 1 2 3 4 5 6 
#
# 1 90.1857 11.6707 19.5085 0.0000 -8.6093 0.0000
# 2 11.6707 58.0947 2.9505 0.0000 0.9835 0.0000
# 3 19.5085 2.9505 75.4128 0.0000 -9.2960 0.0000
# 4 0.0000 0.0000 0.0000 34.8423 0.0000 5.1552
# 5 -8.6093 0.9835 -9.2960 0.0000 42.4042 0.0000
# 6 0.0000 0.0000 0.0000 5.1552 0.0000 40.4660
#
#
#
# Elastic Compliance Matrix: (Units=1/GPa)
#
#
# Indices 1 2 3 4 5 6 
#
# 1 0.012184 -0.002336 -0.002825 0.000000 0.001909 0.000000
# 2 -0.002336 0.017709 -0.000203 0.000000 -0.000930 0.000000
# 3 -0.002825 -0.000203 0.014316 0.000000 0.002569 0.000000
# 4 0.000000 0.000000 0.000000 0.029252 0.000000 -0.003727
# 5 0.001909 -0.000930 0.002569 0.000000 0.024555 0.000000
# 6 0.000000 0.000000 0.000000 -0.003727 0.000000 0.025187
#
#
# Mechanical properties :
#
#
# Convention : Reuss Voigt Hill
#
# Bulk Modulus (GPa) = 29.86934 32.43918 31.15426
# Shear Modulus (GPa) = 34.46106 36.18009 35.32057
#
# Velocity S-wave (km/s) = 3.78997 3.88334 3.83694
# Velocity P-wave (km/s) = 5.62154 5.79899 5.71095
#
# Compressibility (1/GPa) = 0.03347915
#
# Stress axis : x y z
#
# Youngs Moduli (GPa) = 82.07554 56.46948 69.85259
#
# Poissons Ratio (x) = 0.13194 0.19735
# Poissons Ratio (y) = 0.19177 0.01418
# Poissons Ratio (z) = 0.23188 0.01146
#
# Static dielectric constant tensor:
#      x y z
#    x 1.927680 0.000000 -0.026130 
#    y 0.000000 1.856610 0.000000 
#    z -0.026130 0.000000 1.876960 
# 
# From -- ./inp_files/176974.got.cif
#   From: 2010.05.17/outbox.cif.g08.bks.cpg/sg15_89_cif.got.tgz:176974.got - 2010.06.03 18:47:42.
