data_PCOD9305576
_publ_section_title
;
Structure prediction by ZEFSAII (Michael W. Deem and Ramdas Pophale) SiO2 
 PCOD9305576
Probable space group: C 2/C
;
_chemical_formula_sum "Si O2"
_cell_formula_units_Z 48
_cell_length_a 9.429064
_cell_length_b 21.117217
_cell_length_c 14.161927
_cell_angle_alpha 90.000000
_cell_angle_beta 44.776662
_cell_angle_gamma 90.000000
_cell_volume 1986.154969
_symmetry_space_group_name_H-M "C 2/C"
_symmetry_group_IT_number 15
_symmetry_cell_setting 'monoclinic'
loop_
_space_group_symop_operation_xyz
x,y,z
-x,y,1/2-z
-x,-y,-z
x,-y,1/2+z
1/2+x,1/2+y,z
1/2-x,1/2+y,1/2-z
1/2-x,1/2-y,-z
1/2+x,1/2-y,1/2+z
loop_
_atom_site_type_symbol
_atom_site_label
_atom_site_fract_x
_atom_site_fract_y
_atom_site_fract_z
Si Si1 0.248486 0.639558 0.632401
Si Si2 0.964164 0.606781 0.509407
Si Si3 0.586554 0.579393 0.605966
Si Si4 0.046756 0.054577 0.116887
Si Si5 0.613749 0.000977 0.296825
Si Si6 0.730002 0.277857 0.614527
O O1 0.340932 0.611805 0.489455
O O2 0.278875 0.712826 0.646861
O O3 0.000000 0.634007 0.750000
O O4 0.110133 0.666282 0.450451
O O5 0.764356 0.627499 0.546477
O O6 0.915145 0.563996 0.626454
O O7 0.059236 0.556622 0.394059
O O8 0.500000 0.566804 0.750000
O O9 0.410583 0.603560 0.622517
O O10 0.677909 0.509485 0.542088
O O11 0.841617 0.026968 0.168123
O O12 0.000000 0.067122 0.250000
O O13 0.500000 0.997955 0.250000
O O14 0.500000 0.294742 0.750000
O O15 0.750000 0.250000 0.500000
#
# Coordination Sequence:
#
# PCOD9305576 Si02
#       6
#     8   8   8   8   8   8
#     4  11  28  49  80 117 162 212 271 325 393 492
#     4  11  26  49  76 115 167 204 274 341 399 484
#     4  11  24  46  73 116 159 211 256 333 410 462
#     4  11  24  45  77 117 159 203 262 330 406 476
#     4  11  25  46  81 117 156 212 262 339 417 479
#     4  11  30  51  80 119 157 221 275 327 399 485
#
# _framework density 24.167297999999999
#
# number of rings (size 3 to 8) (size 9 to 14) (size 15 to 20)
#    0.000    1.000    3.333    1.500    9.333    4.667 
#    0.000    0.833    3.667    0.000    0.000    0.000 
#    0.000    0.000    0.000    0.000    0.000    0.000 
#
# Total GULP energy -133739.774226 kJ/mol
# GULP energy per Si atom -5572.490593 kJ/mol
# Density = 2.411229 g / cm^3
# Si number density = 24.167298 Si / 1000 Ang^3
#
#
#
# Elastic Constant Matrix: (Units=GPa)
#
#
# Indices 1 2 3 4 5 6 
#
# 1 192.6500 93.7111 86.3343 0.0001 -8.9637 -0.0001
# 2 93.7111 199.5009 59.9961 0.0000 -19.9757 0.0000
# 3 86.3343 59.9961 149.3305 0.0001 -7.4704 0.0000
# 4 0.0001 0.0000 0.0001 8.5082 -0.0001 -0.3595
# 5 -8.9637 -19.9757 -7.4704 -0.0001 44.5441 0.0001
# 6 -0.0001 0.0000 0.0000 -0.3595 0.0001 48.0844
#
#
#
# Elastic Compliance Matrix: (Units=1/GPa)
#
#
# Indices 1 2 3 4 5 6 
#
# 1 0.008140 -0.002759 -0.003608 0.000000 -0.000204 0.000000
# 2 -0.002759 0.006857 -0.001042 0.000000 0.002345 0.000000
# 3 -0.003608 -0.001042 0.009219 0.000000 0.000353 0.000000
# 4 0.000000 0.000000 0.000000 0.117571 0.000000 0.000879
# 5 -0.000204 0.002345 0.000353 0.000000 0.023519 0.000000
# 6 0.000000 0.000000 0.000000 0.000879 0.000000 0.020803
#
#
# Mechanical properties :
#
#
# Convention : Reuss Voigt Hill
#
# Bulk Modulus (GPa) = 106.41585 113.50715 109.96150
# Shear Modulus (GPa) = 24.50249 40.32332 32.41290
#
# Velocity S-wave (km/s) = 3.18759 4.08917 3.66620
# Velocity P-wave (km/s) = 7.59448 8.32852 7.96996
#
# Compressibility (1/GPa) = 0.00939710
#
# Stress axis : x y z
#
# Youngs Moduli (GPa) = 122.84650 145.84029 108.47323
#
# Poissons Ratio (x) = 0.40239 0.39136
# Poissons Ratio (y) = 0.33895 0.11307
# Poissons Ratio (z) = 0.44322 0.15202
#
# Static dielectric constant tensor:
#      x y z
#    x 2.155020 0.000000 -0.071230 
#    y 0.000000 2.034920 0.000000 
#    z -0.071230 0.000000 2.080860 
# 
# From -- ./inp_files/79762.got.cif
#   From: 2010.05.17/outbox.cif.g08.bks.cpg/sg15_40_cif.got.tgz:79762.got - 2010.06.03 18:47:42.
