data_PCOD9305754
_publ_section_title
;
Structure prediction by ZEFSAII (Michael W. Deem and Ramdas Pophale) SiO2 
 PCOD9305754
Probable space group: C 2/C
;
_chemical_formula_sum "Si O2"
_cell_formula_units_Z 28
_cell_length_a 5.289059
_cell_length_b 18.980084
_cell_length_c 11.358081
_cell_angle_alpha 90.000000
_cell_angle_beta 66.742093
_cell_angle_gamma 90.000000
_cell_volume 1047.544740
_symmetry_space_group_name_H-M "C 2/C"
_symmetry_group_IT_number 15
_symmetry_cell_setting 'monoclinic'
loop_
_space_group_symop_operation_xyz
x,y,z
-x,y,1/2-z
-x,-y,-z
x,-y,1/2+z
1/2+x,1/2+y,z
1/2-x,1/2+y,1/2-z
1/2-x,1/2-y,-z
1/2+x,1/2-y,1/2+z
loop_
_atom_site_type_symbol
_atom_site_label
_atom_site_fract_x
_atom_site_fract_y
_atom_site_fract_z
Si Si1 0.535150 0.072226 0.924587
Si Si2 0.315656 0.217363 0.666269
Si Si3 0.000000 0.525972 0.250000
Si Si4 0.536678 0.628882 0.387904
O O1 0.683307 0.146645 0.911002
O O2 0.674595 0.033069 0.786811
O O3 0.217664 0.098615 0.992980
O O4 0.500000 0.000000 0.000000
O O5 0.500000 0.202863 0.750000
O O6 0.435300 0.288697 0.589326
O O7 0.000000 0.234908 0.750000
O O8 0.801677 0.579094 0.356350
O O9 0.500000 0.625848 0.250000
#
# Coordination Sequence:
#
# PCOD9305754 Si02
#       4
#     8   8   4   8
#     4  12  26  44  76 107 146 190 243 309 364 437
#     4  11  26  49  75 107 148 194 246 300 365 444
#     4  12  24  46  70 108 144 188 244 300 372 428
#     4  11  24  47  69 106 144 193 242 293 366 439
#
# _framework density 26.729167
#
# number of rings (size 3 to 8) (size 9 to 14) (size 15 to 20)
#    0.000    0.571    5.714    1.714    4.000    2.286 
#    0.000    5.714    0.000    0.000    0.000    0.000 
#    0.000    0.000    0.000    0.000    0.000    0.000 
#
# Total GULP energy -78050.416367 kJ/mol
# GULP energy per Si atom -5575.029741 kJ/mol
# Density = 2.666833 g / cm^3
# Si number density = 26.729167 Si / 1000 Ang^3
#
#
#
# Elastic Constant Matrix: (Units=GPa)
#
#
# Indices 1 2 3 4 5 6 
#
# 1 63.8311 42.4847 -4.5654 0.0000 -8.4152 0.0000
# 2 42.4847 326.5873 57.5341 0.0000 -2.7723 0.0000
# 3 -4.5654 57.5341 36.6590 0.0000 -7.0334 0.0000
# 4 0.0000 0.0000 0.0000 59.2576 0.0000 9.5249
# 5 -8.4152 -2.7723 -7.0334 0.0000 49.3451 0.0000
# 6 0.0000 0.0000 0.0000 9.5249 0.0000 -47.7455
#
#
#
# Elastic Compliance Matrix: (Units=1/GPa)
#
#
# Indices 1 2 3 4 5 6 
#
# 1 0.019888 -0.004340 0.010170 0.000000 0.004597 0.000000
# 2 -0.004340 0.005205 -0.009042 0.000000 -0.001737 0.000000
# 3 0.010170 -0.009042 0.044179 0.000000 0.007523 0.000000
# 4 0.000000 0.000000 0.000000 0.016351 0.000000 0.003262
# 5 0.004597 -0.001737 0.007523 0.000000 0.022024 0.000000
# 6 0.000000 0.000000 0.000000 0.003262 0.000000 -0.020294
#
#
# Mechanical properties :
#
#
# Convention : Reuss Voigt Hill
#
# Bulk Modulus (GPa) = 15.91125 68.66490 42.28807
# Shear Modulus (GPa) = 43.58145 34.27971 38.93058
#
# Velocity S-wave (km/s) = 4.04230 3.58506 3.82053
# Velocity P-wave (km/s) = 5.26808 6.54842 5.94283
#
# Compressibility (1/GPa) = 0.06284863
#
# Stress axis : x y z
#
# Youngs Moduli (GPa) = 50.28078 192.13383 22.63495
#
# Poissons Ratio (x) = 0.83382 -0.23020
# Poissons Ratio (y) = 0.21821 0.20467
# Poissons Ratio (z) = -0.51135 1.73730
#
# Static dielectric constant tensor:
#      x y z
#    x 2.767620 0.000000 0.975590 
#    y 0.000000 1.910660 0.000000 
#    z 0.975590 0.000000 3.148470 
# 
# From -- ./inp_files/71619.got.cif
#   From: 2010.05.17/outbox.cif.g08.bks.cpg/sg15_36_cif.got.tgz:71619.got - 2010.06.03 18:47:42.
