data_PCOD9305571
_publ_section_title
;
Structure prediction by ZEFSAII (Michael W. Deem and Ramdas Pophale) SiO2 
 PCOD9305571
Probable space group: C 2/C
;
_chemical_formula_sum "Si O2"
_cell_formula_units_Z 48
_cell_length_a 24.603067
_cell_length_b 5.344272
_cell_length_c 13.866589
_cell_angle_alpha 90.000000
_cell_angle_beta 84.524989
_cell_angle_gamma 90.000000
_cell_volume 1814.937278
_symmetry_space_group_name_H-M "C 2/C"
_symmetry_group_IT_number 15
_symmetry_cell_setting 'monoclinic'
loop_
_space_group_symop_operation_xyz
x,y,z
-x,y,1/2-z
-x,-y,-z
x,-y,1/2+z
1/2+x,1/2+y,z
1/2-x,1/2+y,1/2-z
1/2-x,1/2-y,-z
1/2+x,1/2-y,1/2+z
loop_
_atom_site_type_symbol
_atom_site_label
_atom_site_fract_x
_atom_site_fract_y
_atom_site_fract_z
Si Si1 0.301935 0.103142 0.180090
Si Si2 0.559954 0.387537 0.488565
Si Si3 0.839150 0.260773 0.022628
Si Si4 0.601326 0.376023 0.269884
Si Si5 0.266971 0.949143 0.395526
Si Si6 0.058320 0.381102 0.184873
O O1 0.336010 0.341979 0.210299
O O2 0.278166 0.991821 0.280656
O O3 0.285742 0.595866 0.056532
O O4 0.345189 0.928691 0.117490
O O5 0.500000 0.500000 0.500000
O O6 0.569039 0.330743 0.374729
O O7 0.589982 0.642928 0.224751
O O8 0.558301 0.171679 0.569991
O O9 0.819809 0.452264 0.942390
O O10 0.755308 0.665161 0.108722
O O11 0.890499 0.081567 0.996177
O O12 0.583856 0.148779 0.204391
O O13 0.000000 0.373084 0.250000
#
# Coordination Sequence:
#
# PCOD9305571 Si02
#       6
#     8   8   8   8   8   8
#     4  12  24  46  78 112 160 210 270 340 419 506
#     4  12  27  53  84 117 167 220 279 350 423 499
#     4  11  25  49  72 116 159 209 273 336 412 500
#     4  12  28  50  79 119 163 211 276 339 415 499
#     4  11  24  45  76 109 158 209 270 335 419 491
#     4  12  28  51  79 116 162 216 279 342 408 491
#
# _framework density 26.447196999999999
#
# number of rings (size 3 to 8) (size 9 to 14) (size 15 to 20)
#    0.000    0.333    5.000    3.000    0.000    4.667 
#    6.000    0.000    0.000    0.000    0.000    0.000 
#    0.000    0.000    0.000    0.000    0.000    0.000 
#
# Total GULP energy -134515.731558 kJ/mol
# GULP energy per Si atom -5604.822148 kJ/mol
# Density = 2.638700 g / cm^3
# Si number density = 26.447197 Si / 1000 Ang^3
#
#
#
# Elastic Constant Matrix: (Units=GPa)
#
#
# Indices 1 2 3 4 5 6 
#
# 1 89.2442 8.6096 -18.8773 0.0000 -12.0347 0.0000
# 2 8.6096 96.4172 30.1616 0.0000 14.3279 0.0000
# 3 -18.8773 30.1616 104.0249 0.0000 -8.2222 0.0000
# 4 0.0000 0.0000 0.0000 58.9678 0.0000 10.0587
# 5 -12.0347 14.3279 -8.2222 0.0000 46.1626 0.0000
# 6 0.0000 0.0000 0.0000 10.0587 0.0000 33.0371
#
#
#
# Elastic Compliance Matrix: (Units=1/GPa)
#
#
# Indices 1 2 3 4 5 6 
#
# 1 0.012929 -0.003021 0.003613 0.000000 0.004952 0.000000
# 2 -0.003021 0.012970 -0.004756 0.000000 -0.005660 0.000000
# 3 0.003613 -0.004756 0.012008 0.000000 0.004557 0.000000
# 4 0.000000 0.000000 0.000000 0.017887 0.000000 -0.005446
# 5 0.004952 -0.005660 0.004557 0.000000 0.025522 0.000000
# 6 0.000000 0.000000 0.000000 -0.005446 0.000000 0.031927
#
#
# Mechanical properties :
#
#
# Convention : Reuss Voigt Hill
#
# Bulk Modulus (GPa) = 33.80664 36.60822 35.20743
# Shear Modulus (GPa) = 38.04288 45.61966 41.83127
#
# Velocity S-wave (km/s) = 3.79680 4.15774 3.98136
# Velocity P-wave (km/s) = 5.65963 6.07627 5.87165
#
# Compressibility (1/GPa) = 0.02957998
#
# Stress axis : x y z
#
# Youngs Moduli (GPa) = 77.34754 77.09906 83.27752
#
# Poissons Ratio (x) = 0.23289 -0.30091
# Poissons Ratio (y) = 0.23364 0.39609
# Poissons Ratio (z) = -0.27948 0.36670
#
# Static dielectric constant tensor:
#      x y z
#    x 2.114600 0.000000 -0.099370 
#    y 0.000000 2.218480 0.000000 
#    z -0.099370 0.000000 2.325600 
# 
# From -- ./inp_files/175699.got.cif
#   From: 2010.05.17/outbox.cif.g08.bks.cpg/sg15_88_cif.got.tgz:175699.got - 2010.06.03 18:47:42.
