data_PCOD9305195
_publ_section_title
;
Structure prediction by ZEFSAII (Michael W. Deem and Ramdas Pophale) SiO2 
 PCOD9305195
Probable space group: C 2/C
;
_chemical_formula_sum "Si O2"
_cell_formula_units_Z 64
_cell_length_a 25.524864
_cell_length_b 17.005543
_cell_length_c 10.350289
_cell_angle_alpha 90.000000
_cell_angle_beta 40.774672
_cell_angle_gamma 90.000000
_cell_volume 2934.112273
_symmetry_space_group_name_H-M "C 2/C"
_symmetry_group_IT_number 15
_symmetry_cell_setting 'monoclinic'
loop_
_space_group_symop_operation_xyz
x,y,z
-x,y,1/2-z
-x,-y,-z
x,-y,1/2+z
1/2+x,1/2+y,z
1/2-x,1/2+y,1/2-z
1/2-x,1/2-y,-z
1/2+x,1/2-y,1/2+z
loop_
_atom_site_type_symbol
_atom_site_label
_atom_site_fract_x
_atom_site_fract_y
_atom_site_fract_z
Si Si1 0.377843 0.882129 0.944656
Si Si2 0.043982 0.307950 0.455281
Si Si3 0.320252 0.311613 0.852325
Si Si4 0.308327 0.593850 0.632817
Si Si5 0.239375 0.917652 0.753138
Si Si6 0.694545 0.184508 0.169780
Si Si7 0.930341 0.217414 0.489539
Si Si8 0.577522 0.061072 0.688254
O O1 0.363928 0.850390 0.827689
O O2 0.418166 0.966886 0.842494
O O3 0.428633 0.829653 0.950128
O O4 0.285418 0.883946 0.167200
O O5 0.107851 0.247863 0.280011
O O6 0.056511 0.392806 0.360036
O O7 0.969174 0.252779 0.548186
O O8 0.310831 0.356298 0.735664
O O9 0.250000 0.250000 0.000000
O O10 0.324077 0.375749 0.958444
O O11 0.304435 0.501002 0.661475
O O12 0.379191 0.636359 0.582668
O O13 0.252651 0.885554 0.872054
O O14 0.329305 0.921553 0.522864
O O15 0.644474 0.221624 0.382754
O O16 0.750000 0.250000 0.000000
O O17 0.000000 0.217680 0.250000
O O18 0.500000 0.088480 0.750000
#
# Coordination Sequence:
#
# PCOD9305195 Si02
#       8
#     8   8   8   8   8   8   8   8
#     4  11  26  41  64 106 147 187 234 294 371 443
#     4  12  24  43  71 100 142 191 244 302 359 441
#     4  12  21  41  73 102 132 188 260 290 346 441
#     4  11  24  43  69 100 144 187 245 295 357 430
#     4  11  25  42  70 103 142 191 239 304 358 434
#     4  12  25  44  73 103 147 187 238 300 367 431
#     4  12  25  46  74 107 138 194 245 300 363 438
#     4  11  25  41  64 103 146 181 229 290 376 438
#
# _framework density 21.812391000000002
#
# number of rings (size 3 to 8) (size 9 to 14) (size 15 to 20)
#    0.000    0.500    5.000    3.375    8.750    0.500 
#    0.000    0.625    2.750    0.000    0.000    0.000 
#    0.000    0.000    0.000    0.000    0.000    0.000 
#
# Total GULP energy -178222.706117 kJ/mol
# GULP energy per Si atom -5569.459566 kJ/mol
# Density = 2.176274 g / cm^3
# Si number density = 21.812391 Si / 1000 Ang^3
#
#
#
# Elastic Constant Matrix: (Units=GPa)
#
#
# Indices 1 2 3 4 5 6 
#
# 1 93.5100 28.5626 2.6707 0.0000 -0.7528 0.0000
# 2 28.5626 73.8791 10.0483 0.0000 -5.1533 0.0000
# 3 2.6707 10.0483 65.6933 0.0000 -12.2315 0.0000
# 4 0.0000 0.0000 0.0000 18.8963 0.0000 -1.2407
# 5 -0.7528 -5.1533 -12.2315 0.0000 29.8891 0.0000
# 6 0.0000 0.0000 0.0000 -1.2407 0.0000 30.6494
#
#
#
# Elastic Compliance Matrix: (Units=1/GPa)
#
#
# Indices 1 2 3 4 5 6 
#
# 1 0.012135 -0.004743 0.000148 0.000000 -0.000452 0.000000
# 2 -0.004743 0.015752 -0.001876 0.000000 0.001829 0.000000
# 3 0.000148 -0.001876 0.016717 0.000000 0.006522 0.000000
# 4 0.000000 0.000000 0.000000 0.053061 0.000000 0.002148
# 5 -0.000452 0.001829 0.006522 0.000000 0.036430 0.000000
# 6 0.000000 0.000000 0.000000 0.002148 0.000000 0.032714
#
#
# Mechanical properties :
#
#
# Convention : Reuss Voigt Hill
#
# Bulk Modulus (GPa) = 31.58340 35.07172 33.32756
# Shear Modulus (GPa) = 26.27346 28.67368 27.47357
#
# Velocity S-wave (km/s) = 3.47438 3.62962 3.55285
# Velocity P-wave (km/s) = 5.53228 5.80338 5.66945
#
# Compressibility (1/GPa) = 0.03166220
#
# Stress axis : x y z
#
# Youngs Moduli (GPa) = 82.40639 63.48349 59.81779
#
# Poissons Ratio (x) = 0.30111 -0.00886
# Poissons Ratio (y) = 0.39087 0.11222
# Poissons Ratio (z) = -0.01220 0.11910
#
# Static dielectric constant tensor:
#      x y z
#    x 1.249630 0.000000 0.612590 
#    y 0.000000 1.701810 0.000000 
#    z 0.612590 0.000000 1.248040 
# 
# From -- ./inp_files/123482.got.cif
#   From: 2010.05.17/outbox.cif.g08.bks.cpg/sg15_62_cif.got.tgz:123482.got - 2010.06.03 18:47:42.
