data_PCOD9305101
_publ_section_title
;
Structure prediction by ZEFSAII (Michael W. Deem and Ramdas Pophale) SiO2 
 PCOD9305101
Probable space group: C 2/C
;
_chemical_formula_sum "Si O2"
_cell_formula_units_Z 44
_cell_length_a 13.991826
_cell_length_b 17.842013
_cell_length_c 9.497609
_cell_angle_alpha 90.000000
_cell_angle_beta 122.430419
_cell_angle_gamma 90.000000
_cell_volume 2001.231249
_symmetry_space_group_name_H-M "C 2/C"
_symmetry_group_IT_number 15
_symmetry_cell_setting 'monoclinic'
loop_
_space_group_symop_operation_xyz
x,y,z
-x,y,1/2-z
-x,-y,-z
x,-y,1/2+z
1/2+x,1/2+y,z
1/2-x,1/2+y,1/2-z
1/2-x,1/2-y,-z
1/2+x,1/2-y,1/2+z
loop_
_atom_site_type_symbol
_atom_site_label
_atom_site_fract_x
_atom_site_fract_y
_atom_site_fract_z
Si Si1 0.628321 0.378487 0.345771
Si Si2 0.888314 0.598974 0.723236
Si Si3 0.822702 0.493672 0.418010
Si Si4 0.500000 0.336106 0.750000
Si Si5 0.799808 0.134041 0.284507
Si Si6 0.318602 0.287795 0.384842
O O1 0.500000 0.406303 0.250000
O O2 0.714290 0.443836 0.371893
O O3 0.662944 0.350027 0.527088
O O4 0.638099 0.315633 0.233035
O O5 0.867416 0.532733 0.593998
O O6 0.901615 0.561044 0.887540
O O7 0.780810 0.653917 0.648801
O O8 0.000000 0.637638 0.750000
O O9 0.780101 0.562104 0.287733
O O10 0.589607 0.380608 0.724342
O O11 0.420696 0.292609 0.576238
O O12 0.735354 0.206293 0.173326
#
# Coordination Sequence:
#
# PCOD9305101 Si02
#       6
#     8   8   8   4   8   8
#     4  11  24  46  71  98 139 183 226 279 338 410
#     4  11  24  44  67  98 139 182 228 276 337 408
#     4  11  24  42  69 100 134 181 224 283 336 401
#     4  12  24  42  70 104 134 176 220 292 344 388
#     4  12  25  44  68 101 140 174 231 279 343 405
#     4  11  26  44  72 102 136 181 226 282 344 401
#
# _framework density 21.986464000000002
#
# number of rings (size 3 to 8) (size 9 to 14) (size 15 to 20)
#    0.000    0.727    5.455    1.636    2.545    0.727 
#    0.000    0.909    0.000    0.000    0.000    0.000 
#    0.000    0.000    0.000    0.000    0.000    0.000 
#
# Total GULP energy -123075.022725 kJ/mol
# GULP energy per Si atom -5594.319215 kJ/mol
# Density = 2.193642 g / cm^3
# Si number density = 21.986464 Si / 1000 Ang^3
#
#
#
# Elastic Constant Matrix: (Units=GPa)
#
#
# Indices 1 2 3 4 5 6 
#
# 1 108.2492 16.5296 9.0158 0.0000 -16.0157 0.0000
# 2 16.5296 60.6353 9.0623 0.0000 -4.8754 0.0000
# 3 9.0158 9.0623 116.4873 0.0000 -20.8531 0.0000
# 4 0.0000 0.0000 0.0000 12.9002 0.0000 -9.1666
# 5 -16.0157 -4.8754 -20.8531 0.0000 38.8972 0.0000
# 6 0.0000 0.0000 0.0000 -9.1666 0.0000 18.1724
#
#
#
# Elastic Compliance Matrix: (Units=1/GPa)
#
#
# Indices 1 2 3 4 5 6 
#
# 1 0.010191 -0.002477 0.000110 0.000000 0.003944 0.000000
# 2 -0.002477 0.017373 -0.001054 0.000000 0.000593 0.000000
# 3 0.000110 -0.001054 0.009560 0.000000 0.005039 0.000000
# 4 0.000000 0.000000 0.000000 0.120827 0.000000 0.060948
# 5 0.003944 0.000593 0.005039 0.000000 0.030108 0.000000
# 6 0.000000 0.000000 0.000000 0.060948 0.000000 0.085772
#
#
# Mechanical properties :
#
#
# Convention : Reuss Voigt Hill
#
# Bulk Modulus (GPa) = 33.02356 39.39854 36.21105
# Shear Modulus (GPa) = 17.19594 30.71157 23.95375
#
# Velocity S-wave (km/s) = 2.79967 3.74149 3.30430
# Velocity P-wave (km/s) = 5.05009 6.05172 5.57345
#
# Compressibility (1/GPa) = 0.03028141
#
# Stress axis : x y z
#
# Youngs Moduli (GPa) = 98.12913 57.56219 104.60192
#
# Poissons Ratio (x) = 0.14260 -0.01152
# Poissons Ratio (y) = 0.24310 0.11022
# Poissons Ratio (z) = -0.01081 0.06065
#
# Static dielectric constant tensor:
#      x y z
#    x 1.821720 0.000000 -0.003770 
#    y 0.000000 1.762550 0.000000 
#    z -0.003770 0.000000 1.808850 
# 
# From -- ./inp_files/39744.got.cif
#   From: 2010.05.17/outbox.cif.g08.bks.cpg/sg15_20_cif.got.tgz:39744.got - 2010.06.03 18:47:42.
