data_PCOD9305207
_publ_section_title
;
Structure prediction by ZEFSAII (Michael W. Deem and Ramdas Pophale) SiO2 
 PCOD9305207
Probable space group: C 2/C
;
_chemical_formula_sum "Si O2"
_cell_formula_units_Z 40
_cell_length_a 11.610442
_cell_length_b 16.633204
_cell_length_c 9.047238
_cell_angle_alpha 90.000000
_cell_angle_beta 88.314304
_cell_angle_gamma 90.000000
_cell_volume 1746.436078
_symmetry_space_group_name_H-M "C 2/C"
_symmetry_group_IT_number 15
_symmetry_cell_setting 'monoclinic'
loop_
_space_group_symop_operation_xyz
x,y,z
-x,y,1/2-z
-x,-y,-z
x,-y,1/2+z
1/2+x,1/2+y,z
1/2-x,1/2+y,1/2-z
1/2-x,1/2-y,-z
1/2+x,1/2-y,1/2+z
loop_
_atom_site_type_symbol
_atom_site_label
_atom_site_fract_x
_atom_site_fract_y
_atom_site_fract_z
Si Si1 0.772921 0.997319 0.031025
Si Si2 0.125909 0.555565 0.802131
Si Si3 0.273121 0.227626 0.671118
Si Si4 0.594339 0.353218 0.629780
Si Si5 0.433303 0.366674 0.384222
O O1 0.832830 0.921068 0.954594
O O2 0.652166 0.016349 0.957317
O O3 0.855308 0.072568 0.985736
O O4 0.732074 0.977480 0.197258
O O5 0.142590 0.651362 0.816541
O O6 0.000000 0.536675 0.750000
O O7 0.250000 0.250000 0.500000
O O8 0.322567 0.294336 0.780152
O O9 0.146463 0.192952 0.708049
O O10 0.500000 0.384853 0.750000
O O11 0.513636 0.320453 0.499278
O O12 0.500000 0.412806 0.250000
#
# Coordination Sequence:
#
# PCOD9305207 Si02
#       5
#     8   8   8   8   8
#     4  11  24  43  70 104 136 170 236 285 334 421
#     4  11  25  45  69  96 137 183 223 282 349 401
#     4  11  25  45  65 100 141 179 236 281 329 417
#     4  12  22  41  72  97 136 185 220 282 351 394
#     4  11  24  44  71 105 141 176 226 286 350 403
#
# _framework density 22.903787999999999
#
# number of rings (size 3 to 8) (size 9 to 14) (size 15 to 20)
#    0.000    0.800    2.000    6.000    2.800    3.200 
#    0.000    0.000    0.000    0.000    0.000    0.000 
#    0.000    0.000    0.000    0.000    0.000    0.000 
#
# Total GULP energy -111611.982191 kJ/mol
# GULP energy per Si atom -5580.599110 kJ/mol
# Density = 2.285166 g / cm^3
# Si number density = 22.903788 Si / 1000 Ang^3
#
#
#
# Elastic Constant Matrix: (Units=GPa)
#
#
# Indices 1 2 3 4 5 6 
#
# 1 107.1386 31.6206 55.7865 0.0000 30.7855 0.0000
# 2 31.6206 53.0952 27.8615 0.0000 9.6530 0.0000
# 3 55.7865 27.8615 100.5554 0.0000 3.4219 0.0000
# 4 0.0000 0.0000 0.0000 35.2250 0.0000 10.8546
# 5 30.7855 9.6530 3.4219 0.0000 58.2718 0.0000
# 6 0.0000 0.0000 0.0000 10.8546 0.0000 13.4212
#
#
#
# Elastic Compliance Matrix: (Units=1/GPa)
#
#
# Indices 1 2 3 4 5 6 
#
# 1 0.017047 -0.004580 -0.007924 0.000000 -0.007782 0.000000
# 2 -0.004580 0.023920 -0.004043 0.000000 -0.001306 0.000000
# 3 -0.007924 -0.004043 0.015326 0.000000 0.003956 0.000000
# 4 0.000000 0.000000 0.000000 0.037813 0.000000 -0.030582
# 5 -0.007782 -0.001306 0.003956 0.000000 0.021256 0.000000
# 6 0.000000 0.000000 0.000000 -0.030582 0.000000 0.099243
#
#
# Mechanical properties :
#
#
# Convention : Reuss Voigt Hill
#
# Bulk Modulus (GPa) = 43.10028 54.59183 48.84605
# Shear Modulus (GPa) = 19.57466 31.08497 25.32981
#
# Velocity S-wave (km/s) = 2.92661 3.68801 3.32915
# Velocity P-wave (km/s) = 5.50262 6.48246 6.01253
#
# Compressibility (1/GPa) = 0.02320171
#
# Stress axis : x y z
#
# Youngs Moduli (GPa) = 58.65970 41.80575 65.24728
#
# Poissons Ratio (x) = 0.19145 0.51701
# Poissons Ratio (y) = 0.26864 0.26377
# Poissons Ratio (z) = 0.46482 0.16900
#
# Static dielectric constant tensor:
#      x y z
#    x 1.952670 0.000000 0.001160 
#    y 0.000000 1.869800 0.000000 
#    z 0.001160 0.000000 1.869550 
# 
# From -- ./inp_files/29206.got.cif
#   From: 2010.05.17/outbox.cif.g08.bks.cpg/sg15_15_cif.got.tgz:29206.got - 2010.06.03 18:47:42.
