data_PCOD9305625
_publ_section_title
;
Structure prediction by ZEFSAII (Michael W. Deem and Ramdas Pophale) SiO2 
 PCOD9305625
Probable space group: C 2/C
;
_chemical_formula_sum "Si O2"
_cell_formula_units_Z 32
_cell_length_a 28.734997
_cell_length_b 4.990248
_cell_length_c 25.740994
_cell_angle_alpha 90.000000
_cell_angle_beta 161.806440
_cell_angle_gamma 90.000000
_cell_volume 1152.472686
_symmetry_space_group_name_H-M "C 2/C"
_symmetry_group_IT_number 15
_symmetry_cell_setting 'monoclinic'
loop_
_space_group_symop_operation_xyz
x,y,z
-x,y,1/2-z
-x,-y,-z
x,-y,1/2+z
1/2+x,1/2+y,z
1/2-x,1/2+y,1/2-z
1/2-x,1/2-y,-z
1/2+x,1/2-y,1/2+z
loop_
_atom_site_type_symbol
_atom_site_label
_atom_site_fract_x
_atom_site_fract_y
_atom_site_fract_z
Si Si1 0.364774 0.258342 0.237766
Si Si2 0.263987 0.043720 0.298698
Si Si3 0.847897 0.442827 0.066317
Si Si4 0.875095 0.892722 0.498055
O O1 0.329894 0.418641 0.253871
O O2 0.534772 0.331656 0.408596
O O3 0.268950 0.363588 0.086784
O O4 0.298642 0.967410 0.178354
O O5 0.190796 0.282198 0.186750
O O6 0.389521 0.213136 0.462283
O O7 0.000000 0.573622 0.250000
O O8 0.918128 0.261367 0.095095
O O9 0.750000 0.250000 0.000000
#
# Coordination Sequence:
#
# PCOD9305625 Si02
#       4
#     8   8   8   8
#     4  11  26  45  73 109 150 194 252 310 370 454
#     4  11  24  50  74 114 149 199 247 313 376 442
#     4  11  24  46  70 105 149 198 248 305 378 443
#     4  11  26  45  73 110 149 194 253 308 374 450
#
# _framework density 27.766387000000002
#
# number of rings (size 3 to 8) (size 9 to 14) (size 15 to 20)
#    0.000    1.000    5.000    0.000    3.500    6.000 
#    0.000    0.000    0.000    0.000    0.000    0.000 
#    0.000    0.000    0.000    0.000    0.000    0.000 
#
# Total GULP energy -89583.759122 kJ/mol
# GULP energy per Si atom -5598.984945 kJ/mol
# Density = 2.770319 g / cm^3
# Si number density = 27.766387 Si / 1000 Ang^3
#
#
#
# Elastic Constant Matrix: (Units=GPa)
#
#
# Indices 1 2 3 4 5 6 
#
# 1 114.8489 31.8903 47.1201 -0.0056 -28.9198 0.0096
# 2 31.8903 106.1688 4.8547 0.0018 -17.5192 -0.0157
# 3 47.1201 4.8547 119.8887 0.0053 2.1463 -0.0138
# 4 -0.0056 0.0018 0.0053 34.2585 -0.0097 -1.0385
# 5 -28.9198 -17.5192 2.1463 -0.0097 31.4916 0.0016
# 6 0.0096 -0.0157 -0.0138 -1.0385 0.0016 49.9043
#
#
#
# Elastic Compliance Matrix: (Units=1/GPa)
#
#
# Indices 1 2 3 4 5 6 
#
# 1 0.015079 -0.002090 -0.006076 0.000007 0.013099 -0.000006
# 2 -0.002090 0.010694 0.000317 0.000000 0.004008 0.000004
# 3 -0.006076 0.000317 0.010826 -0.000004 -0.006142 0.000004
# 4 0.000007 0.000000 -0.000004 0.029208 0.000016 0.000608
# 5 0.013099 0.004008 -0.006142 0.000016 0.046432 -0.000004
# 6 -0.000006 0.000004 0.000004 0.000608 -0.000004 0.020051
#
#
# Mechanical properties :
#
#
# Convention : Reuss Voigt Hill
#
# Bulk Modulus (GPa) = 47.84789 56.51518 52.18153
# Shear Modulus (GPa) = 32.26728 40.26697 36.26712
#
# Velocity S-wave (km/s) = 3.41265 3.81229 3.61799
# Velocity P-wave (km/s) = 5.72695 6.30683 6.02387
#
# Compressibility (1/GPa) = 0.02089956
#
# Stress axis : x y z
#
# Youngs Moduli (GPa) = 66.31844 93.51341 92.36693
#
# Poissons Ratio (x) = 0.19544 0.56125
# Poissons Ratio (y) = 0.13860 -0.02925
# Poissons Ratio (z) = 0.40297 -0.02961
#
# Static dielectric constant tensor:
#      x y z
#    x 2.138970 0.000000 -0.029970 
#    y 0.000000 2.102270 -0.000050 
#    z -0.029970 -0.000050 2.167090 
# 
# From -- ./inp_files/67978.got.cif
#   From: 2010.05.17/outbox.cif.g08.bks.cpg/sg15_34_cif.got.tgz:67978.got - 2010.06.03 18:47:42.
