data_PCOD9305560
_publ_section_title
;
Structure prediction by ZEFSAII (Michael W. Deem and Ramdas Pophale) SiO2 
 PCOD9305560
Probable space group: C 2/C
;
_chemical_formula_sum "Si O2"
_cell_formula_units_Z 24
_cell_length_a 10.614706
_cell_length_b 10.754994
_cell_length_c 8.925172
_cell_angle_alpha 90.000000
_cell_angle_beta 111.110381
_cell_angle_gamma 90.000000
_cell_volume 950.526831
_symmetry_space_group_name_H-M "C 2/C"
_symmetry_group_IT_number 15
_symmetry_cell_setting 'monoclinic'
loop_
_space_group_symop_operation_xyz
x,y,z
-x,y,1/2-z
-x,-y,-z
x,-y,1/2+z
1/2+x,1/2+y,z
1/2-x,1/2+y,1/2-z
1/2-x,1/2-y,-z
1/2+x,1/2-y,1/2+z
loop_
_atom_site_type_symbol
_atom_site_label
_atom_site_fract_x
_atom_site_fract_y
_atom_site_fract_z
Si Si1 0.714321 0.971731 0.668465
Si Si2 0.890976 0.901564 0.011788
Si Si3 0.988641 0.679089 0.584572
O O1 0.767908 0.907749 0.840391
O O2 0.657125 0.871853 0.525112
O O3 0.830988 0.054326 0.642806
O O4 0.000000 0.000000 0.500000
O O5 0.956650 0.766949 0.023176
O O6 0.589979 0.063378 0.647849
O O7 0.000000 0.747981 0.750000
#
# Coordination Sequence:
#
# PCOD9305560 Si02
#       3
#     8   8   8
#     4  11  25  47  69 103 140 176 238 281 342 414
#     4  12  26  44  71 102 138 182 231 282 344 414
#     4  11  24  45  74  98 138 187 224 290 345 398
#
# _framework density 25.249154999999998
#
# number of rings (size 3 to 8) (size 9 to 14) (size 15 to 20)
#    0.000    0.667    3.333    4.000    4.667    2.667 
#    6.000    0.000    0.000    0.000    0.000    0.000 
#    0.000    0.000    0.000    0.000    0.000    0.000 
#
# Total GULP energy -67292.951218 kJ/mol
# GULP energy per Si atom -5607.745935 kJ/mol
# Density = 2.519169 g / cm^3
# Si number density = 25.249155 Si / 1000 Ang^3
#
#
#
# Elastic Constant Matrix: (Units=GPa)
#
#
# Indices 1 2 3 4 5 6 
#
# 1 69.2721 5.1310 -5.7804 0.0000 -7.4090 0.0000
# 2 5.1310 67.0779 4.5981 0.0000 9.7969 0.0000
# 3 -5.7804 4.5981 90.1371 0.0000 -0.0821 0.0000
# 4 0.0000 0.0000 0.0000 -2.5889 0.0000 -1.8352
# 5 -7.4090 9.7969 -0.0821 0.0000 40.4292 0.0000
# 6 0.0000 0.0000 0.0000 -1.8352 0.0000 49.8269
#
#
#
# Elastic Compliance Matrix: (Units=1/GPa)
#
#
# Indices 1 2 3 4 5 6 
#
# 1 0.014985 -0.001679 0.001050 0.000000 0.003155 0.000000
# 2 -0.001679 0.015700 -0.000912 0.000000 -0.004114 0.000000
# 3 0.001050 -0.000912 0.011208 0.000000 0.000436 0.000000
# 4 0.000000 0.000000 0.000000 -0.376434 0.000000 -0.013864
# 5 0.003155 -0.004114 0.000436 0.000000 0.026311 0.000000
# 6 0.000000 0.000000 0.000000 -0.013864 0.000000 0.019559
#
#
# Mechanical properties :
#
#
# Convention : Reuss Voigt Hill
#
# Bulk Modulus (GPa) = 25.76663 26.04273 25.90468
# Shear Modulus (GPa) = -18.33851 32.36934 7.01542
#
# Velocity S-wave (km/s) = -2.69792 3.58438 1.66868
# Velocity P-wave (km/s) = 0.72253 5.24091 3.74093
#
# Compressibility (1/GPa) = 0.03880989
#
# Stress axis : x y z
#
# Youngs Moduli (GPa) = 66.73235 63.69475 89.21843
#
# Poissons Ratio (x) = 0.10695 -0.09364
# Poissons Ratio (y) = 0.11205 0.08139
# Poissons Ratio (z) = -0.07004 0.05811
#
# Static dielectric constant tensor:
#      x y z
#    x 1.965720 0.000000 -0.033020 
#    y 0.000000 1.962510 0.000000 
#    z -0.033020 0.000000 1.976610 
# 
# From -- ./inp_files/74829.got.cif
#   From: 2010.05.17/outbox.cif.g08.bks.cpg/sg15_38_cif.got.tgz:74829.got - 2010.06.03 18:47:42.
