data_PCOD9305578
_publ_section_title
;
Structure prediction by ZEFSAII (Michael W. Deem and Ramdas Pophale) SiO2 
 PCOD9305578
Probable space group: C 2/C
;
_chemical_formula_sum "Si O2"
_cell_formula_units_Z 44
_cell_length_a 14.366682
_cell_length_b 5.227037
_cell_length_c 24.075553
_cell_angle_alpha 90.000000
_cell_angle_beta 74.572817
_cell_angle_gamma 90.000000
_cell_volume 1742.815970
_symmetry_space_group_name_H-M "C 2/C"
_symmetry_group_IT_number 15
_symmetry_cell_setting 'monoclinic'
loop_
_space_group_symop_operation_xyz
x,y,z
-x,y,1/2-z
-x,-y,-z
x,-y,1/2+z
1/2+x,1/2+y,z
1/2-x,1/2+y,1/2-z
1/2-x,1/2-y,-z
1/2+x,1/2-y,1/2+z
loop_
_atom_site_type_symbol
_atom_site_label
_atom_site_fract_x
_atom_site_fract_y
_atom_site_fract_z
Si Si1 0.223734 0.217795 0.785507
Si Si2 0.904487 0.661548 0.000494
Si Si3 0.518863 0.355841 0.617996
Si Si4 0.750000 0.750000 0.500000
Si Si5 0.313301 0.528607 0.103666
Si Si6 0.002215 0.350396 0.815574
O O1 0.278113 0.471397 0.755515
O O2 0.255627 0.092533 0.838765
O O3 0.115486 0.318083 0.810875
O O4 0.928387 0.876160 0.949945
O O5 0.825788 0.483967 0.985205
O O6 0.861808 0.802498 0.060032
O O7 0.000000 0.500000 0.000000
O O8 0.404685 0.351320 0.621566
O O9 0.543477 0.590156 0.653889
O O10 0.538229 0.090151 0.644852
O O11 0.727866 0.719995 0.435216
O O12 0.000000 0.382246 0.750000
#
# Coordination Sequence:
#
# PCOD9305578 Si02
#       6
#     8   8   8   4   8   8
#     4  11  25  45  73 101 144 196 243 312 377 439
#     4  12  25  47  75 107 153 198 247 314 389 445
#     4  11  24  45  78 103 146 203 243 318 387 454
#     4  12  28  42  74 110 154 190 260 300 374 478
#     4  11  26  47  72 107 153 195 259 306 387 458
#     4  11  25  46  73 107 145 192 262 307 373 462
#
# _framework density 25.246500000000001
#
# number of rings (size 3 to 8) (size 9 to 14) (size 15 to 20)
#    0.000    0.727    1.818    6.000    5.091    2.909 
#    0.000    0.000    0.000    0.000    0.000    0.000 
#    0.000    0.000    0.000    0.000    0.000    0.000 
#
# Total GULP energy -122831.821314 kJ/mol
# GULP energy per Si atom -5583.264605 kJ/mol
# Density = 2.518904 g / cm^3
# Si number density = 25.246500 Si / 1000 Ang^3
#
#
#
# Elastic Constant Matrix: (Units=GPa)
#
#
# Indices 1 2 3 4 5 6 
#
# 1 52.7812 0.7545 -2.7274 -0.0001 11.5996 -0.0001
# 2 0.7545 136.5988 53.6353 -0.0003 0.6564 -0.0002
# 3 -2.7274 53.6353 143.5150 -0.0002 11.3896 -0.0001
# 4 -0.0001 -0.0003 -0.0002 63.8393 -0.0001 -5.4364
# 5 11.5996 0.6564 11.3896 -0.0001 33.9449 0.0000
# 6 -0.0001 -0.0002 -0.0001 -5.4364 0.0000 1.2640
#
#
#
# Elastic Compliance Matrix: (Units=1/GPa)
#
#
# Indices 1 2 3 4 5 6 
#
# 1 0.020651 -0.000544 0.001187 0.000000 -0.007445 0.000001
# 2 -0.000544 0.008623 -0.003323 0.000000 0.001134 0.000002
# 3 0.001187 -0.003323 0.008485 0.000000 -0.003188 0.000000
# 4 0.000000 0.000000 0.000000 0.024717 0.000000 0.106308
# 5 -0.007445 0.001134 -0.003188 0.000000 0.033051 0.000000
# 6 0.000001 0.000002 0.000000 0.106308 0.000000 1.248365
#
#
# Mechanical properties :
#
#
# Convention : Reuss Voigt Hill
#
# Bulk Modulus (GPa) = 30.86556 48.46887 39.66721
# Shear Modulus (GPa) = 3.67633 38.55849 21.11741
#
# Velocity S-wave (km/s) = 1.20803 3.91228 2.89528
# Velocity P-wave (km/s) = 3.76802 6.29666 5.18873
#
# Compressibility (1/GPa) = 0.03239857
#
# Stress axis : x y z
#
# Youngs Moduli (GPa) = 48.42312 115.96833 117.84956
#
# Poissons Ratio (x) = 0.06311 -0.13985
# Poissons Ratio (y) = 0.02635 0.39162
# Poissons Ratio (z) = -0.05746 0.38536
#
# Static dielectric constant tensor:
#      x y z
#    x 2.084520 0.000000 -0.073350 
#    y 0.000000 2.040550 0.000000 
#    z -0.073350 0.000000 2.083680 
# 
# From -- ./inp_files/246407.got.cif
#   From: 2010.05.17/outbox.cif.g08.bks.cpg/sg15_124_cif.got.tgz:246407.got - 2010.06.03 18:47:42.
