data_PCOD9305390
_publ_section_title
;
Structure prediction by ZEFSAII (Michael W. Deem and Ramdas Pophale) SiO2 
 PCOD9305390
Probable space group: C 2/C
;
_chemical_formula_sum "Si O2"
_cell_formula_units_Z 60
_cell_length_a 8.804775
_cell_length_b 25.378632
_cell_length_c 20.670252
_cell_angle_alpha 90.000000
_cell_angle_beta 140.248228
_cell_angle_gamma 90.000000
_cell_volume 2953.571667
_symmetry_space_group_name_H-M "C 2/C"
_symmetry_group_IT_number 15
_symmetry_cell_setting 'monoclinic'
loop_
_space_group_symop_operation_xyz
x,y,z
-x,y,1/2-z
-x,-y,-z
x,-y,1/2+z
1/2+x,1/2+y,z
1/2-x,1/2+y,1/2-z
1/2-x,1/2-y,-z
1/2+x,1/2-y,1/2+z
loop_
_atom_site_type_symbol
_atom_site_label
_atom_site_fract_x
_atom_site_fract_y
_atom_site_fract_z
Si Si1 0.545593 0.648724 0.389289
Si Si2 0.403059 0.759037 0.290146
Si Si3 0.182733 0.377550 0.868337
Si Si4 0.850464 0.745731 0.104670
Si Si5 0.500000 0.585215 0.250000
Si Si6 0.236804 0.553227 0.640491
Si Si7 0.435286 0.167473 0.906835
Si Si8 0.971507 0.542576 0.070206
O O1 0.463745 0.708657 0.353746
O O2 0.441922 0.622319 0.419714
O O3 0.439316 0.619457 0.292750
O O4 0.827988 0.650560 0.478420
O O5 0.500000 0.751262 0.250000
O O6 0.509213 0.809127 0.361684
O O7 0.121015 0.764758 0.195428
O O8 0.148030 0.316331 0.877212
O O9 0.000000 0.388644 0.750000
O O10 0.137009 0.419090 0.910781
O O11 0.700202 0.785491 0.100421
O O12 0.750000 0.750000 0.000000
O O13 0.248244 0.558849 0.149100
O O14 0.500000 0.536723 0.750000
O O15 0.214735 0.614809 0.648856
O O16 0.024661 0.518840 0.604016
O O17 0.183517 0.546562 0.546062
#
# Coordination Sequence:
#
# PCOD9305390 Si02
#       8
#     8   8   8   8   4   8   8   8
#     4  12  24  40  69  98 134 172 228 284 344 402
#     4  12  24  40  60  94 135 180 223 274 341 418
#     4  12  23  42  66 101 138 174 226 303 353 396
#     4  12  24  39  64  96 134 179 228 276 345 421
#     4  12  20  42  74  98 124 168 238 288 322 408
#     4  11  24  46  73  99 135 184 235 283 349 427
#     4  12  25  43  63  95 137 185 221 274 343 425
#     4  11  24  44  73 102 129 175 240 292 346 407
#
# _framework density 20.314388000000001
#
# number of rings (size 3 to 8) (size 9 to 14) (size 15 to 20)
#    0.000    0.267    6.667    3.200    1.867    0.000 
#    0.000    1.333    0.000    0.000    0.000    0.000 
#    0.000    0.000    0.000    0.000    0.000    0.000 
#
# Total GULP energy -167494.951779 kJ/mol
# GULP energy per Si atom -5583.165059 kJ/mol
# Density = 2.026815 g / cm^3
# Si number density = 20.314388 Si / 1000 Ang^3
#
#
#
# Elastic Constant Matrix: (Units=GPa)
#
#
# Indices 1 2 3 4 5 6 
#
# 1 102.2410 47.8622 23.2570 0.0000 -5.0927 0.0000
# 2 47.8622 103.5851 27.6253 0.0000 -18.0320 0.0000
# 3 23.2570 27.6253 112.3519 0.0001 3.6814 0.0001
# 4 0.0000 0.0000 0.0001 17.7440 0.0000 -20.2280
# 5 -5.0927 -18.0320 3.6814 0.0000 31.3653 0.0001
# 6 0.0000 0.0000 0.0001 -20.2280 0.0001 3.0845
#
#
#
# Elastic Compliance Matrix: (Units=1/GPa)
#
#
# Indices 1 2 3 4 5 6 
#
# 1 0.012679 -0.005736 -0.001178 0.000000 -0.001101 0.000000
# 2 -0.005736 0.014316 -0.002582 0.000000 0.007602 0.000000
# 3 -0.001178 -0.002582 0.009872 0.000000 -0.002834 0.000000
# 4 0.000000 0.000000 0.000000 -0.008703 0.000000 -0.057070
# 5 -0.001101 0.007602 -0.002834 0.000000 0.036407 0.000000
# 6 0.000000 0.000000 0.000000 -0.057070 0.000000 -0.050062
#
#
# Mechanical properties :
#
#
# Convention : Reuss Voigt Hill
#
# Bulk Modulus (GPa) = 55.94198 57.29633 56.61916
# Shear Modulus (GPa) = 126.71209 25.06767 75.88988
#
# Velocity S-wave (km/s) = 7.90639 3.51662 6.11873
# Velocity P-wave (km/s) = 10.53308 6.68991 8.82329
#
# Compressibility (1/GPa) = 0.01787566
#
# Stress axis : x y z
#
# Youngs Moduli (GPa) = 78.86970 69.85138 101.29463
#
# Poissons Ratio (x) = 0.40066 0.11935
# Poissons Ratio (y) = 0.45239 0.26153
# Poissons Ratio (z) = 0.09292 0.18034
#
# Static dielectric constant tensor:
#      x y z
#    x 1.754320 0.000000 0.035580 
#    y 0.000000 1.781980 0.000000 
#    z 0.035580 0.000000 1.768270 
# 
# From -- ./inp_files/234797.got.cif
#   From: 2010.05.17/outbox.cif.g08.bks.cpg/sg15_118_cif.got.tgz:234797.got - 2010.06.03 18:47:42.
