data_PCOD9305583
_publ_section_title
;
Structure prediction by ZEFSAII (Michael W. Deem and Ramdas Pophale) SiO2 
 PCOD9305583
Probable space group: C 2/C
;
_chemical_formula_sum "Si O2"
_cell_formula_units_Z 40
_cell_length_a 29.318163
_cell_length_b 9.041489
_cell_length_c 14.451123
_cell_angle_alpha 90.000000
_cell_angle_beta 22.751292
_cell_angle_gamma 90.000000
_cell_volume 1481.453918
_symmetry_space_group_name_H-M "C 2/C"
_symmetry_group_IT_number 15
_symmetry_cell_setting 'monoclinic'
loop_
_space_group_symop_operation_xyz
x,y,z
-x,y,1/2-z
-x,-y,-z
x,-y,1/2+z
1/2+x,1/2+y,z
1/2-x,1/2+y,1/2-z
1/2-x,1/2-y,-z
1/2+x,1/2-y,1/2+z
loop_
_atom_site_type_symbol
_atom_site_label
_atom_site_fract_x
_atom_site_fract_y
_atom_site_fract_z
Si Si1 0.778416 0.463423 0.313014
Si Si2 0.015843 0.896872 0.845929
Si Si3 0.801337 0.509202 0.549513
Si Si4 0.079242 0.820638 0.923014
Si Si5 0.250000 0.250000 0.500000
Si Si6 0.000000 0.334260 0.250000
O O1 0.654247 0.383033 0.568979
O O2 0.776866 0.495468 0.206017
O O3 0.884764 0.345952 0.127789
O O4 0.783577 0.601840 0.372349
O O5 0.997129 0.845175 0.986661
O O6 0.937380 0.786656 0.932795
O O7 0.985531 0.067986 0.885433
O O8 0.702838 0.408808 0.684147
O O9 0.799363 0.663584 0.501217
O O10 0.927717 0.431424 0.314138
#
# Coordination Sequence:
#
# PCOD9305583 Si02
#       6
#     8   8   8   8   4   4
#     4  12  25  48  82 116 166 219 281 356 430 518
#     4  11  24  45  80 109 157 215 286 349 439 518
#     4  12  27  49  77 117 167 222 282 360 434 521
#     4  11  24  47  77 116 155 223 277 351 439 514
#     4  12  28  48  82 122 172 218 282 360 432 520
#     4  12  26  46  78 120 158 220 286 358 436 518
#
# _framework density 27.000502000000001
#
# number of rings (size 3 to 8) (size 9 to 14) (size 15 to 20)
#    0.000    0.400    4.000    4.200    2.800    1.600 
#    0.000    3.000    0.000    0.000    0.000    0.000 
#    0.000    0.000    0.000    0.000    0.000    0.000 
#
# Total GULP energy -111383.090955 kJ/mol
# GULP energy per Si atom -5569.154548 kJ/mol
# Density = 2.693905 g / cm^3
# Si number density = 27.000502 Si / 1000 Ang^3
#
#
#
# Elastic Constant Matrix: (Units=GPa)
#
#
# Indices 1 2 3 4 5 6 
#
# 1 171.8435 88.7655 13.3373 0.0000 14.0001 0.0000
# 2 88.7655 199.2112 42.6735 0.0000 0.9066 0.0000
# 3 13.3373 42.6735 44.3866 0.0000 3.2075 0.0000
# 4 0.0000 0.0000 0.0000 47.4329 0.0000 -5.1552
# 5 14.0001 0.9066 3.2075 0.0000 47.6399 0.0000
# 6 0.0000 0.0000 0.0000 -5.1552 0.0000 69.0776
#
#
#
# Elastic Compliance Matrix: (Units=1/GPa)
#
#
# Indices 1 2 3 4 5 6 
#
# 1 0.007862 -0.003807 0.001466 0.000000 -0.002337 0.000000
# 2 -0.003807 0.008169 -0.006812 0.000000 0.001422 0.000000
# 3 0.001466 -0.006812 0.028800 0.000000 -0.002240 0.000000
# 4 0.000000 0.000000 0.000000 0.021255 0.000000 0.001586
# 5 -0.002337 0.001422 -0.002240 0.000000 0.021801 0.000000
# 6 0.000000 0.000000 0.000000 0.001586 0.000000 0.014595
#
#
# Mechanical properties :
#
#
# Convention : Reuss Voigt Hill
#
# Bulk Modulus (GPa) = 37.69990 78.33266 58.01628
# Shear Modulus (GPa) = 38.57136 50.87441 44.72288
#
# Velocity S-wave (km/s) = 3.78371 4.34545 4.07427
# Velocity P-wave (km/s) = 5.75166 7.36558 6.60808
#
# Compressibility (1/GPa) = 0.02652527
#
# Stress axis : x y z
#
# Youngs Moduli (GPa) = 127.19117 122.41610 34.72202
#
# Poissons Ratio (x) = 0.46600 -0.05091
# Poissons Ratio (y) = 0.48418 0.23654
# Poissons Ratio (z) = -0.18649 0.83396
#
# Static dielectric constant tensor:
#      x y z
#    x 2.099560 0.000000 0.005630 
#    y 0.000000 2.164380 0.000000 
#    z 0.005630 0.000000 2.383820 
# 
# From -- ./inp_files/181011.got.cif
#   From: 2010.05.17/outbox.cif.g08.bks.cpg/sg15_91_cif.got.tgz:181011.got - 2010.06.03 18:47:42.
