data_PCOD9305308
_publ_section_title
;
Structure prediction by ZEFSAII (Michael W. Deem and Ramdas Pophale) SiO2 
 PCOD9305308
Probable space group: C 2/C
;
_chemical_formula_sum "Si O2"
_cell_formula_units_Z 40
_cell_length_a 16.544630
_cell_length_b 10.407221
_cell_length_c 24.651999
_cell_angle_alpha 90.000000
_cell_angle_beta 23.099481
_cell_angle_gamma 90.000000
_cell_volume 1665.306398
_symmetry_space_group_name_H-M "C 2/C"
_symmetry_group_IT_number 15
_symmetry_cell_setting 'monoclinic'
loop_
_space_group_symop_operation_xyz
x,y,z
-x,y,1/2-z
-x,-y,-z
x,-y,1/2+z
1/2+x,1/2+y,z
1/2-x,1/2+y,1/2-z
1/2-x,1/2-y,-z
1/2+x,1/2-y,1/2+z
loop_
_atom_site_type_symbol
_atom_site_label
_atom_site_fract_x
_atom_site_fract_y
_atom_site_fract_z
Si Si1 0.100083 0.938437 0.100543
Si Si2 0.676074 0.589388 0.364926
Si Si3 0.360707 0.771491 0.018772
Si Si4 0.821050 0.851076 0.757048
Si Si5 0.476147 0.095077 0.828334
O O1 0.086898 0.833945 0.060414
O O2 0.209091 0.870948 0.083756
O O3 0.885542 0.011179 0.241099
O O4 0.253297 0.052166 0.985776
O O5 0.500000 0.500000 0.500000
O O6 0.739249 0.695951 0.369445
O O7 0.612925 0.649340 0.347100
O O8 0.868169 0.497566 0.235686
O O9 0.577161 0.825673 0.907099
O O10 0.942881 0.737901 0.711841
O O11 0.500000 0.065726 0.750000
#
# Coordination Sequence:
#
# PCOD9305308 Si02
#       5
#     8   8   8   8   8
#     4  11  24  44  68 107 142 182 238 298 353 421
#     4  12  22  45  74 104 137 195 243 284 364 432
#     4  11  24  44  75 104 144 189 239 296 357 427
#     4  12  24  43  74 107 143 181 244 301 349 428
#     4  12  23  43  74 101 140 192 238 296 357 426
#
# _framework density 24.019601999999999
#
# number of rings (size 3 to 8) (size 9 to 14) (size 15 to 20)
#    0.000    0.400    8.000    0.600    0.000    0.000 
#    0.000    5.000    0.000    0.000    0.000    0.000 
#    0.000    0.000    0.000    0.000    0.000    0.000 
#
# Total GULP energy -112116.244027 kJ/mol
# GULP energy per Si atom -5605.812201 kJ/mol
# Density = 2.396493 g / cm^3
# Si number density = 24.019602 Si / 1000 Ang^3
#
#
#
# Elastic Constant Matrix: (Units=GPa)
#
#
# Indices 1 2 3 4 5 6 
#
# 1 79.1872 48.3668 2.8130 -0.2701 -15.8536 -0.2078
# 2 48.3668 106.5717 14.8217 0.1426 -20.2862 0.1158
# 3 2.8130 14.8217 56.0990 -0.0378 -21.2140 -0.0170
# 4 -0.2701 0.1426 -0.0378 19.8815 0.1354 -23.3191
# 5 -15.8536 -20.2862 -21.2140 0.1354 38.4194 0.0963
# 6 -0.2078 0.1158 -0.0170 -23.3191 0.0963 39.7148
#
#
#
# Elastic Compliance Matrix: (Units=1/GPa)
#
#
# Indices 1 2 3 4 5 6 
#
# 1 0.018291 -0.007752 0.003079 0.001287 0.005148 0.000863
# 2 -0.007752 0.013751 -0.002158 -0.001065 0.002876 -0.000714
# 3 0.003079 -0.002158 0.023118 0.000047 0.012896 0.000029
# 4 0.001287 -0.001065 0.000047 0.161709 -0.000813 0.094962
# 5 0.005148 0.002876 0.012896 -0.000813 0.036796 -0.000543
# 6 0.000863 -0.000714 0.000029 0.094962 -0.000543 0.080945
#
#
# Mechanical properties :
#
#
# Convention : Reuss Voigt Hill
#
# Bulk Modulus (GPa) = 24.09753 41.54009 32.81881
# Shear Modulus (GPa) = 13.80807 31.32692 22.56750
#
# Velocity S-wave (km/s) = 2.40024 3.61532 3.06853
# Velocity P-wave (km/s) = 4.21138 5.89569 5.12323
#
# Compressibility (1/GPa) = 0.04149803
#
# Stress axis : x y z
#
# Youngs Moduli (GPa) = 54.67107 72.71952 43.25636
#
# Poissons Ratio (x) = 0.56374 -0.13318
# Poissons Ratio (y) = 0.42383 0.09334
# Poissons Ratio (z) = -0.16832 0.15691
#
# Static dielectric constant tensor:
#      x y z
#    x 1.862640 0.000000 -0.020970 
#    y 0.000000 1.907060 0.000020 
#    z -0.020970 0.000020 2.023720 
# 
# From -- ./inp_files/273754.got.cif
#   From: 2010.05.17/outbox.cif.g08.bks.cpg/sg15_137_cif.got.tgz:273754.got - 2010.06.03 18:47:42.
