data_PCOD9305672
_publ_section_title
;
Structure prediction by ZEFSAII (Michael W. Deem and Ramdas Pophale) SiO2 
 PCOD9305672
Probable space group: C 2/C
;
_chemical_formula_sum "Si O2"
_cell_formula_units_Z 60
_cell_length_a 18.763025
_cell_length_b 13.713318
_cell_length_c 8.609835
_cell_angle_alpha 90.000000
_cell_angle_beta 91.564460
_cell_angle_gamma 90.000000
_cell_volume 2214.513418
_symmetry_space_group_name_H-M "C 2/C"
_symmetry_group_IT_number 15
_symmetry_cell_setting 'monoclinic'
loop_
_space_group_symop_operation_xyz
x,y,z
-x,y,1/2-z
-x,-y,-z
x,-y,1/2+z
1/2+x,1/2+y,z
1/2-x,1/2+y,1/2-z
1/2-x,1/2-y,-z
1/2+x,1/2-y,1/2+z
loop_
_atom_site_type_symbol
_atom_site_label
_atom_site_fract_x
_atom_site_fract_y
_atom_site_fract_z
Si Si1 0.362364 0.777822 0.434803
Si Si2 0.419359 0.955205 0.280936
Si Si3 0.166515 0.396622 0.518049
Si Si4 0.228575 0.284255 0.775436
Si Si5 0.205932 0.993429 0.645564
Si Si6 0.001268 0.191548 0.413189
Si Si7 0.100942 0.000705 0.888601
Si Si8 0.000000 0.832981 0.250000
O O1 0.407859 0.876170 0.418286
O O2 0.296863 0.783946 0.309310
O O3 0.331122 0.762184 0.602678
O O4 0.415335 0.688931 0.412365
O O5 0.500000 0.987128 0.250000
O O6 0.367250 0.041176 0.339745
O O7 0.392058 0.903843 0.120481
O O8 0.194248 0.298878 0.605136
O O9 0.235660 0.441451 0.435840
O O10 0.261969 0.386066 0.838303
O O11 0.180042 0.014720 0.818185
O O12 0.127996 0.002623 0.565583
O O13 0.050625 0.096838 0.380436
O O14 0.000000 0.252071 0.250000
O O15 0.021939 0.223800 0.591737
O O16 0.055690 0.090338 0.824929
#
# Coordination Sequence:
#
# PCOD9305672 Si02
#       8
#     8   8   8   8   8   8   8   4
#     4  11  26  48  68 100 152 200 227 299 366 440
#     4  12  25  48  75 105 138 181 240 310 370 435
#     4  12  24  46  78 112 131 181 253 311 371 432
#     4  11  24  46  73 102 149 185 241 295 366 439
#     4  12  22  40  72 106 140 179 237 309 367 418
#     4  12  25  45  65 100 157 201 248 287 365 445
#     4  12  22  36  66 107 144 186 236 300 350 433
#     4  12  24  42  66 106 150 196 256 282 364 440
#
# _framework density 27.093986999999998
#
# number of rings (size 3 to 8) (size 9 to 14) (size 15 to 20)
#    0.000    0.267    6.000    3.600    0.000    0.533 
#    4.800    0.000    0.000    0.000    0.000    0.000 
#    0.000    0.000    0.000    0.000    0.000    0.000 
#
# Total GULP energy -167395.252122 kJ/mol
# GULP energy per Si atom -5579.841737 kJ/mol
# Density = 2.703232 g / cm^3
# Si number density = 27.093987 Si / 1000 Ang^3
#
#
#
# Elastic Constant Matrix: (Units=GPa)
#
#
# Indices 1 2 3 4 5 6 
#
# 1 147.5174 33.0034 26.1105 0.0000 -18.5277 0.0000
# 2 33.0034 36.8049 6.7180 0.0000 -7.9684 0.0000
# 3 26.1105 6.7180 141.3412 0.0000 14.2794 0.0000
# 4 0.0000 0.0000 0.0000 31.2444 0.0000 13.4906
# 5 -18.5277 -7.9684 14.2794 0.0000 51.5673 0.0000
# 6 0.0000 0.0000 0.0000 13.4906 0.0000 15.8626
#
#
#
# Elastic Compliance Matrix: (Units=1/GPa)
#
#
# Indices 1 2 3 4 5 6 
#
# 1 0.008995 -0.007226 -0.001576 0.000000 0.002552 0.000000
# 2 -0.007226 0.034381 -0.000590 0.000000 0.002880 0.000000
# 3 -0.001576 -0.000590 0.007675 0.000000 -0.002783 0.000000
# 4 0.000000 0.000000 0.000000 0.050579 0.000000 -0.043015
# 5 0.002552 0.002880 -0.002783 0.000000 0.021525 0.000000
# 6 0.000000 0.000000 0.000000 -0.043015 0.000000 0.099624
#
#
# Mechanical properties :
#
#
# Convention : Reuss Voigt Hill
#
# Bulk Modulus (GPa) = 30.99116 50.81416 40.90266
# Shear Modulus (GPa) = 19.81628 37.05698 28.43663
#
# Velocity S-wave (km/s) = 2.70736 3.70228 3.24320
# Velocity P-wave (km/s) = 4.60828 6.08862 5.39943
#
# Compressibility (1/GPa) = 0.03226727
#
# Stress axis : x y z
#
# Youngs Moduli (GPa) = 111.17453 29.08589 130.28610
#
# Poissons Ratio (x) = 0.21017 0.20533
# Poissons Ratio (y) = 0.80331 0.07690
# Poissons Ratio (z) = 0.17521 0.01717
#
# Static dielectric constant tensor:
#      x y z
#    x 2.156330 0.000000 -0.019560 
#    y 0.000000 2.137080 0.000000 
#    z -0.019560 0.000000 2.179210 
# 
# From -- ./inp_files/49111.got.cif
#   From: 2010.05.17/outbox.cif.g08.bks.cpg/sg15_25_cif.got.tgz:49111.got - 2010.06.03 18:47:42.
