data_PCOD9305713
_publ_section_title
;
Structure prediction by ZEFSAII (Michael W. Deem and Ramdas Pophale) SiO2 
 PCOD9305713
Probable space group: C 2/C
;
_chemical_formula_sum "Si O2"
_cell_formula_units_Z 44
_cell_length_a 23.141207
_cell_length_b 10.302815
_cell_length_c 17.586285
_cell_angle_alpha 90.000000
_cell_angle_beta 22.127713
_cell_angle_gamma 90.000000
_cell_volume 1579.355056
_symmetry_space_group_name_H-M "C 2/C"
_symmetry_group_IT_number 15
_symmetry_cell_setting 'monoclinic'
loop_
_space_group_symop_operation_xyz
x,y,z
-x,y,1/2-z
-x,-y,-z
x,-y,1/2+z
1/2+x,1/2+y,z
1/2-x,1/2+y,1/2-z
1/2-x,1/2-y,-z
1/2+x,1/2-y,1/2+z
loop_
_atom_site_type_symbol
_atom_site_label
_atom_site_fract_x
_atom_site_fract_y
_atom_site_fract_z
Si Si1 0.441382 0.204968 0.578589
Si Si2 0.329954 0.383540 0.462856
Si Si3 0.000000 0.616197 0.750000
Si Si4 0.353049 0.967372 0.579801
Si Si5 0.348686 0.355827 0.265083
Si Si6 0.302894 0.680573 0.494992
O O1 0.401880 0.079755 0.577724
O O2 0.481759 0.316541 0.468976
O O3 0.589723 0.166304 0.450020
O O4 0.303973 0.233187 0.804475
O O5 0.500000 0.325990 0.250000
O O6 0.301009 0.395828 0.408041
O O7 0.231015 0.287297 0.634084
O O8 0.326343 0.530586 0.495318
O O9 0.046267 0.536924 0.619821
O O10 0.186614 0.660876 0.560304
O O11 0.199499 0.030318 0.732914
O O12 0.500000 0.714541 0.250000
#
# Coordination Sequence:
#
# PCOD9305713 Si02
#       6
#     8   8   4   8   8   8
#     4  11  26  48  73 107 148 195 246 311 369 438
#     4  11  24  46  75 109 146 192 248 308 373 443
#     4  12  26  46  76 104 144 198 244 310 372 444
#     4  11  25  46  76 103 148 195 247 302 377 435
#     4  11  26  45  75 111 148 191 247 310 372 447
#     4  12  25  48  74 105 147 192 250 305 371 442
#
# _framework density 27.859473000000001
#
# number of rings (size 3 to 8) (size 9 to 14) (size 15 to 20)
#    0.000    0.727    2.727    4.364    8.909    0.000 
#    6.545    1.818    0.000    0.000    0.000    0.000 
#    0.000    0.000    0.000    0.000    0.000    0.000 
#
# Total GULP energy -122673.307211 kJ/mol
# GULP energy per Si atom -5576.059419 kJ/mol
# Density = 2.779606 g / cm^3
# Si number density = 27.859473 Si / 1000 Ang^3
#
#
#
# Elastic Constant Matrix: (Units=GPa)
#
#
# Indices 1 2 3 4 5 6 
#
# 1 120.3431 6.1315 45.8261 0.0000 16.8841 0.0000
# 2 6.1315 99.5257 56.5377 0.0000 8.4176 0.0000
# 3 45.8261 56.5377 156.6383 0.0000 36.6268 0.0000
# 4 0.0000 0.0000 0.0000 46.4389 0.0000 7.0776
# 5 16.8841 8.4176 36.6268 0.0000 51.8295 0.0000
# 6 0.0000 0.0000 0.0000 7.0776 0.0000 37.5002
#
#
#
# Elastic Compliance Matrix: (Units=1/GPa)
#
#
# Indices 1 2 3 4 5 6 
#
# 1 0.009537 0.001180 -0.002929 0.000000 -0.001229 0.000000
# 2 0.001180 0.012871 -0.005286 0.000000 0.001261 0.000000
# 3 -0.002929 -0.005286 0.010452 0.000000 -0.005574 0.000000
# 4 0.000000 0.000000 0.000000 0.022171 0.000000 -0.004185
# 5 -0.001229 0.001261 -0.005574 0.000000 0.023428 0.000000
# 6 0.000000 0.000000 0.000000 -0.004185 0.000000 0.027456
#
#
# Mechanical properties :
#
#
# Convention : Reuss Voigt Hill
#
# Bulk Modulus (GPa) = 53.21557 65.94420 59.57988
# Shear Modulus (GPa) = 39.60426 45.02119 42.31273
#
# Velocity S-wave (km/s) = 3.77446 4.02432 3.90140
# Velocity P-wave (km/s) = 6.17562 6.73166 6.45963
#
# Compressibility (1/GPa) = 0.01879149
#
# Stress axis : x y z
#
# Youngs Moduli (GPa) = 104.85341 77.69405 95.67403
#
# Poissons Ratio (x) = -0.09169 0.28021
# Poissons Ratio (y) = -0.12374 0.50571
# Poissons Ratio (z) = 0.30710 0.41067
#
# Static dielectric constant tensor:
#      x y z
#    x 2.739780 0.000000 -0.149240 
#    y 0.000000 2.116100 0.000000 
#    z -0.149240 0.000000 2.251320 
# 
# From -- ./inp_files/219663.got.cif
#   From: 2010.05.17/outbox.cif.g08.bks.cpg/sg15_110_cif.got.tgz:219663.got - 2010.06.03 18:47:42.
