data_PCOD9305448
_publ_section_title
;
Structure prediction by ZEFSAII (Michael W. Deem and Ramdas Pophale) SiO2 
 PCOD9305448
Probable space group: C 2/C
;
_chemical_formula_sum "Si O2"
_cell_formula_units_Z 40
_cell_length_a 7.027110
_cell_length_b 12.067772
_cell_length_c 23.012187
_cell_angle_alpha 90.000000
_cell_angle_beta 49.414290
_cell_angle_gamma 90.000000
_cell_volume 1482.011405
_symmetry_space_group_name_H-M "C 2/C"
_symmetry_group_IT_number 15
_symmetry_cell_setting 'monoclinic'
loop_
_space_group_symop_operation_xyz
x,y,z
-x,y,1/2-z
-x,-y,-z
x,-y,1/2+z
1/2+x,1/2+y,z
1/2-x,1/2+y,1/2-z
1/2-x,1/2-y,-z
1/2+x,1/2-y,1/2+z
loop_
_atom_site_type_symbol
_atom_site_label
_atom_site_fract_x
_atom_site_fract_y
_atom_site_fract_z
Si Si1 0.254572 0.456172 0.579980
Si Si2 0.250000 0.750000 0.000000
Si Si3 0.000000 0.300299 0.750000
Si Si4 0.031087 0.900145 0.836708
Si Si5 0.820605 0.863134 0.384220
Si Si6 0.846829 0.663521 0.840518
O O1 0.500000 0.500000 0.500000
O O2 0.170847 0.355783 0.557254
O O3 0.354789 0.416021 0.622196
O O4 0.091317 0.565984 0.626533
O O5 0.111285 0.685290 0.968171
O O6 0.197252 0.374767 0.747755
O O7 0.871007 0.214269 0.819695
O O8 0.896071 0.785364 0.853166
O O9 0.871349 0.009607 0.856583
O O10 0.048890 0.843298 0.387079
O O11 0.000000 0.646119 0.750000
#
# Coordination Sequence:
#
# PCOD9305448 Si02
#       6
#     8   4   4   8   8   8
#     4  11  24  45  67  95 141 182 224 278 344 404
#     4  12  22  48  66  98 140 186 230 276 334 420
#     4  12  24  40  70 100 136 176 226 284 348 404
#     4  11  25  43  69 101 135 178 228 279 343 408
#     4  11  26  43  69 101 138 180 228 282 342 410
#     4  11  24  46  69 102 140 177 228 291 344 401
#
# _framework density 26.990347
#
# number of rings (size 3 to 8) (size 9 to 14) (size 15 to 20)
#    0.000    0.800    8.000    0.000    7.000    0.800 
#    3.600    2.000    0.000    0.000    0.000    0.000 
#    0.000    0.000    0.000    0.000    0.000    0.000 
#
# Total GULP energy -111374.943083 kJ/mol
# GULP energy per Si atom -5568.747154 kJ/mol
# Density = 2.692892 g / cm^3
# Si number density = 26.990347 Si / 1000 Ang^3
#
#
#
# Elastic Constant Matrix: (Units=GPa)
#
#
# Indices 1 2 3 4 5 6 
#
# 1 50.6560 23.4244 -19.6086 -0.0019 -14.6696 -0.0010
# 2 23.4244 294.9401 53.0361 -0.0011 -0.7327 -0.0012
# 3 -19.6086 53.0361 95.5377 -0.0025 13.5254 -0.0013
# 4 -0.0019 -0.0011 -0.0025 71.7194 0.0013 13.7213
# 5 -14.6696 -0.7327 13.5254 0.0013 19.5966 0.0000
# 6 -0.0010 -0.0012 -0.0013 13.7213 0.0000 52.8351
#
#
#
# Elastic Compliance Matrix: (Units=1/GPa)
#
#
# Indices 1 2 3 4 5 6 
#
# 1 0.028194 -0.003100 0.005027 0.000000 0.017520 0.000000
# 2 -0.003100 0.004163 -0.002926 0.000000 -0.000145 0.000000
# 3 0.005027 -0.002926 0.013971 0.000001 -0.005989 0.000000
# 4 0.000000 0.000000 0.000001 0.014672 -0.000001 -0.003810
# 5 0.017520 -0.000145 -0.005989 -0.000001 0.068273 0.000000
# 6 0.000000 0.000000 0.000000 -0.003810 0.000000 0.019916
#
#
# Mechanical properties :
#
#
# Convention : Reuss Voigt Hill
#
# Bulk Modulus (GPa) = 22.55824 61.64864 42.10344
# Shear Modulus (GPa) = 30.12705 54.44900 42.28803
#
# Velocity S-wave (km/s) = 3.34461 4.49637 3.96256
# Velocity P-wave (km/s) = 4.82610 7.06024 6.04724
#
# Compressibility (1/GPa) = 0.04432969
#
# Stress axis : x y z
#
# Youngs Moduli (GPa) = 35.46863 240.23629 71.57528
#
# Poissons Ratio (x) = 0.74464 -0.35981
# Poissons Ratio (y) = 0.10994 0.20946
# Poissons Ratio (z) = -0.17830 0.70304
#
# Static dielectric constant tensor:
#      x y z
#    x 2.222540 0.000030 0.076430 
#    y 0.000030 3.079030 -0.000010 
#    z 0.076430 -0.000010 1.555990 
# 
# From -- ./inp_files/229887.got.cif
#   From: 2010.05.17/outbox.cif.g08.bks.cpg/sg15_115_cif.got.tgz:229887.got - 2010.06.03 18:47:42.
