data_PCOD9305059
_publ_section_title
;
Structure prediction by ZEFSAII (Michael W. Deem and Ramdas Pophale) SiO2 
 PCOD9305059
Probable space group: C 2/C
;
_chemical_formula_sum "Si O2"
_cell_formula_units_Z 48
_cell_length_a 26.832876
_cell_length_b 15.696622
_cell_length_c 4.947829
_cell_angle_alpha 90.000000
_cell_angle_beta 83.889973
_cell_angle_gamma 90.000000
_cell_volume 2072.115640
_symmetry_space_group_name_H-M "C 2/C"
_symmetry_group_IT_number 15
_symmetry_cell_setting 'monoclinic'
loop_
_space_group_symop_operation_xyz
x,y,z
-x,y,1/2-z
-x,-y,-z
x,-y,1/2+z
1/2+x,1/2+y,z
1/2-x,1/2+y,1/2-z
1/2-x,1/2-y,-z
1/2+x,1/2-y,1/2+z
loop_
_atom_site_type_symbol
_atom_site_label
_atom_site_fract_x
_atom_site_fract_y
_atom_site_fract_z
Si Si1 0.000000 0.563151 0.250000
Si Si2 0.726190 0.058599 0.874527
Si Si3 0.823822 0.825259 0.257702
Si Si4 0.952489 0.299449 0.082414
Si Si5 0.000000 0.147515 0.750000
Si Si6 0.913529 0.944256 0.007799
Si Si7 0.841004 0.287947 0.268048
O O1 0.955023 0.628503 0.348070
O O2 0.000000 0.500000 0.500000
O O3 0.777475 0.110574 0.800043
O O4 0.682805 0.124683 0.822339
O O5 0.723920 0.977646 0.677282
O O6 0.871168 0.877495 0.117205
O O7 0.833322 0.783207 0.541707
O O8 0.815798 0.747683 0.053371
O O9 0.900536 0.299630 0.267678
O O10 0.000000 0.314992 0.250000
O O11 0.962806 0.209470 0.934571
O O12 0.967166 0.093525 0.560975
O O13 0.908028 0.027285 0.202714
#
# Coordination Sequence:
#
# PCOD9305059 Si02
#       7
#     4   8   8   8   4   8   8
#     4  11  24  44  66  97 134 184 236 295 348 400
#     4  12  26  48  73 106 143 177 228 300 357 413
#     4  12  24  47  72 103 139 185 233 280 353 427
#     4  11  25  44  72 100 141 192 238 287 348 410
#     4  11  24  42  62  97 144 182 232 279 336 410
#     4  12  25  41  65  99 135 181 224 280 340 404
#     4  12  26  45  75 104 138 187 239 283 348 421
#
# _framework density 23.164732000000001
#
# number of rings (size 3 to 8) (size 9 to 14) (size 15 to 20)
#    0.000    0.333    2.500    6.500    4.667    1.333 
#    0.000    0.000    0.000    0.000    0.000    0.000 
#    0.000    0.000    0.000    0.000    0.000    0.000 
#
# Total GULP energy -134531.464674 kJ/mol
# GULP energy per Si atom -5605.477695 kJ/mol
# Density = 2.311201 g / cm^3
# Si number density = 23.164732 Si / 1000 Ang^3
#
#
#
# Elastic Constant Matrix: (Units=GPa)
#
#
# Indices 1 2 3 4 5 6 
#
# 1 99.9947 27.2269 -11.3149 0.0000 7.9457 0.0000
# 2 27.2269 83.2070 9.1242 0.0000 1.3518 0.0000
# 3 -11.3149 9.1242 78.9806 0.0000 12.2930 0.0000
# 4 0.0000 0.0000 0.0000 53.0532 0.0000 -2.6664
# 5 7.9457 1.3518 12.2930 0.0000 22.3586 0.0000
# 6 0.0000 0.0000 0.0000 -2.6664 0.0000 18.8234
#
#
#
# Elastic Compliance Matrix: (Units=1/GPa)
#
#
# Indices 1 2 3 4 5 6 
#
# 1 0.011929 -0.004148 0.003072 0.000000 -0.005677 0.000000
# 2 -0.004148 0.013615 -0.002481 0.000000 0.002015 0.000000
# 3 0.003072 -0.002481 0.014801 0.000000 -0.009079 0.000000
# 4 0.000000 0.000000 0.000000 0.018984 0.000000 0.002689
# 5 -0.005677 0.002015 -0.009079 0.000000 0.051613 0.000000
# 6 0.000000 0.000000 0.000000 0.002689 0.000000 0.053506
#
#
# Mechanical properties :
#
#
# Convention : Reuss Voigt Hill
#
# Bulk Modulus (GPa) = 30.09244 34.69496 32.39370
# Shear Modulus (GPa) = 27.37645 34.65680 31.01662
#
# Velocity S-wave (km/s) = 3.44148 3.87214 3.66315
# Velocity P-wave (km/s) = 5.36755 5.91619 5.64854
#
# Compressibility (1/GPa) = 0.03323094
#
# Stress axis : x y z
#
# Youngs Moduli (GPa) = 83.83200 73.44970 67.56236
#
# Poissons Ratio (x) = 0.30466 -0.20753
# Poissons Ratio (y) = 0.34772 0.16760
# Poissons Ratio (z) = -0.25751 0.18220
#
# Static dielectric constant tensor:
#      x y z
#    x 1.893580 0.000000 -0.000270 
#    y 0.000000 1.867770 0.000000 
#    z -0.000270 0.000000 1.862810 
# 
# From -- ./inp_files/16939.got.cif
#   From: 2010.05.17/outbox.cif.g08.bks.cpg/sg15_9_cif.got.tgz:16939.got - 2010.06.03 18:47:42.
