data_PCOD9305372
_publ_section_title
;
Structure prediction by ZEFSAII (Michael W. Deem and Ramdas Pophale) SiO2 
 PCOD9305372
Probable space group: C 2/C
;
_chemical_formula_sum "Si O2"
_cell_formula_units_Z 32
_cell_length_a 17.716804
_cell_length_b 4.749704
_cell_length_c 17.135084
_cell_angle_alpha 90.000000
_cell_angle_beta 118.788119
_cell_angle_gamma 90.000000
_cell_volume 1263.699410
_symmetry_space_group_name_H-M "C 2/C"
_symmetry_group_IT_number 15
_symmetry_cell_setting 'monoclinic'
loop_
_space_group_symop_operation_xyz
x,y,z
-x,y,1/2-z
-x,-y,-z
x,-y,1/2+z
1/2+x,1/2+y,z
1/2-x,1/2+y,1/2-z
1/2-x,1/2-y,-z
1/2+x,1/2-y,1/2+z
loop_
_atom_site_type_symbol
_atom_site_label
_atom_site_fract_x
_atom_site_fract_y
_atom_site_fract_z
Si Si1 0.333199 0.818375 0.594731
Si Si2 0.575333 0.341851 0.926636
Si Si3 0.799330 0.447210 0.247226
Si Si4 0.560130 0.223528 0.078478
O O1 0.250000 0.750000 0.500000
O O2 0.380726 0.520908 0.619671
O O3 0.307087 0.950901 0.663004
O O4 0.403691 0.026333 0.590193
O O5 0.488765 0.518846 0.903691
O O6 0.616374 0.350948 0.034766
O O7 0.500000 0.000000 0.000000
O O8 0.777615 0.122609 0.249532
O O9 0.884543 0.544714 0.334564
#
# Coordination Sequence:
#
# PCOD9305372 Si02
#       4
#     8   8   8   8
#     4  12  24  45  71 106 144 185 238 304 358 429
#     4  11  24  44  72 102 141 185 240 290 370 425
#     4  12  28  47  73 105 146 192 250 299 367 438
#     4  11  25  48  74 103 147 195 239 302 370 440
#
# _framework density 25.322479999999999
#
# number of rings (size 3 to 8) (size 9 to 14) (size 15 to 20)
#    0.000    0.500    2.500    5.250    7.000    1.000 
#    4.500    0.000    0.000    0.000    0.000    0.000 
#    0.000    0.000    0.000    0.000    0.000    0.000 
#
# Total GULP energy -89387.226496 kJ/mol
# GULP energy per Si atom -5586.701656 kJ/mol
# Density = 2.526484 g / cm^3
# Si number density = 25.322480 Si / 1000 Ang^3
#
#
#
# Elastic Constant Matrix: (Units=GPa)
#
#
# Indices 1 2 3 4 5 6 
#
# 1 80.1055 33.3108 52.0295 0.0003 -17.0714 -0.0003
# 2 33.3108 141.0302 7.5289 0.0004 14.9870 -0.0003
# 3 52.0295 7.5289 109.9163 0.0006 6.5372 -0.0005
# 4 0.0003 0.0004 0.0006 27.6270 -0.0001 -6.1729
# 5 -17.0714 14.9870 6.5372 -0.0001 55.3734 0.0001
# 6 -0.0003 -0.0003 -0.0005 -6.1729 0.0001 47.6783
#
#
#
# Elastic Compliance Matrix: (Units=1/GPa)
#
#
# Indices 1 2 3 4 5 6 
#
# 1 0.025590 -0.006568 -0.012325 0.000000 0.011122 0.000000
# 2 -0.006568 0.009003 0.002777 0.000000 -0.004790 0.000000
# 3 -0.012325 0.002777 0.015118 0.000000 -0.006336 0.000000
# 4 0.000000 0.000000 0.000000 0.037275 0.000000 0.004826
# 5 0.011122 -0.004790 -0.006336 0.000000 0.023532 0.000000
# 6 0.000000 0.000000 0.000000 0.004826 0.000000 0.021599
#
#
# Mechanical properties :
#
#
# Convention : Reuss Voigt Hill
#
# Bulk Modulus (GPa) = 57.20867 57.42117 57.31492
# Shear Modulus (GPa) = 29.38136 42.01458 35.69797
#
# Velocity S-wave (km/s) = 3.41000 4.07772 3.75872
# Velocity P-wave (km/s) = 6.17618 6.70042 6.44363
#
# Compressibility (1/GPa) = 0.01747987
#
# Stress axis : x y z
#
# Youngs Moduli (GPa) = 39.07730 111.07660 66.14419
#
# Poissons Ratio (x) = 0.72959 0.81522
# Poissons Ratio (y) = 0.25667 -0.18370
# Poissons Ratio (z) = 0.48162 -0.30850
#
# Static dielectric constant tensor:
#      x y z
#    x 2.140820 0.000000 0.028240 
#    y 0.000000 2.044710 0.000000 
#    z 0.028240 0.000000 1.981520 
# 
# From -- ./inp_files/201879.got.cif
#   From: 2010.05.17/outbox.cif.g08.bks.cpg/sg15_101_cif.got.tgz:201879.got - 2010.06.03 18:47:42.
