data_PCOD9305529
_publ_section_title
;
Structure prediction by ZEFSAII (Michael W. Deem and Ramdas Pophale) SiO2 
 PCOD9305529
Probable space group: C 2/C
;
_chemical_formula_sum "Si O2"
_cell_formula_units_Z 52
_cell_length_a 11.319575
_cell_length_b 9.687768
_cell_length_c 22.073799
_cell_angle_alpha 90.000000
_cell_angle_beta 126.992880
_cell_angle_gamma 90.000000
_cell_volume 1933.393323
_symmetry_space_group_name_H-M "C 2/C"
_symmetry_group_IT_number 15
_symmetry_cell_setting 'monoclinic'
loop_
_space_group_symop_operation_xyz
x,y,z
-x,y,1/2-z
-x,-y,-z
x,-y,1/2+z
1/2+x,1/2+y,z
1/2-x,1/2+y,1/2-z
1/2-x,1/2-y,-z
1/2+x,1/2-y,1/2+z
loop_
_atom_site_type_symbol
_atom_site_label
_atom_site_fract_x
_atom_site_fract_y
_atom_site_fract_z
Si Si1 0.000000 0.570575 0.250000
Si Si2 0.155667 0.210755 0.710100
Si Si3 0.956809 0.963889 0.665209
Si Si4 0.307290 0.942410 0.084246
Si Si5 0.674871 0.827394 0.589073
Si Si6 0.855830 0.215392 0.477820
Si Si7 0.916500 0.305550 0.365871
O O1 0.910369 0.672270 0.266864
O O2 0.889898 0.483364 0.172939
O O3 0.218036 0.283198 0.670245
O O4 0.289480 0.132328 0.784261
O O5 0.028083 0.099569 0.657835
O O6 0.778401 0.955596 0.604710
O O7 0.000000 0.966577 0.750000
O O8 0.021296 0.828756 0.651112
O O9 0.175956 0.050572 0.032929
O O10 0.227994 0.796718 0.063207
O O11 0.448661 0.913155 0.084166
O O12 0.501457 0.805249 0.536305
O O13 0.750000 0.250000 0.500000
O O14 0.836530 0.255907 0.401749
#
# Coordination Sequence:
#
# PCOD9305529 Si02
#       7
#     4   8   8   8   8   8   8
#     4  12  24  42  68 110 150 190 248 300 366 442
#     4  12  24  43  73 108 149 193 246 312 370 436
#     4  11  24  45  72 114 146 188 257 305 374 442
#     4  11  25  46  73 106 149 196 250 304 379 446
#     4  11  26  45  75 106 151 193 246 312 369 451
#     4  12  27  49  69 108 151 196 251 303 382 453
#     4  11  26  46  76 106 148 199 246 317 375 442
#
# _framework density 26.895720000000001
#
# number of rings (size 3 to 8) (size 9 to 14) (size 15 to 20)
#    0.000    0.615    3.846    3.231    4.308    5.538 
#    0.000    0.000    0.000    0.000    0.000    0.000 
#    0.000    0.000    0.000    0.000    0.000    0.000 
#
# Total GULP energy -145604.949182 kJ/mol
# GULP energy per Si atom -5600.190353 kJ/mol
# Density = 2.683450 g / cm^3
# Si number density = 26.895720 Si / 1000 Ang^3
#
#
#
# Elastic Constant Matrix: (Units=GPa)
#
#
# Indices 1 2 3 4 5 6 
#
# 1 147.6780 35.6784 36.9810 0.0000 10.2495 0.0000
# 2 35.6784 100.4147 -0.5864 0.0000 -9.0175 0.0000
# 3 36.9810 -0.5864 51.5086 0.0000 1.8945 0.0000
# 4 0.0000 0.0000 0.0000 28.1209 0.0000 -1.7683
# 5 10.2495 -9.0175 1.8945 0.0000 47.2234 0.0000
# 6 0.0000 0.0000 0.0000 -1.7683 0.0000 46.4873
#
#
#
# Elastic Compliance Matrix: (Units=1/GPa)
#
#
# Indices 1 2 3 4 5 6 
#
# 1 0.009526 -0.003648 -0.006789 0.000000 -0.002492 0.000000
# 2 -0.003648 0.011530 0.002644 0.000000 0.002887 0.000000
# 3 -0.006789 0.002644 0.024282 0.000000 0.001004 0.000000
# 4 0.000000 0.000000 0.000000 0.035646 0.000000 0.001356
# 5 -0.002492 0.002887 0.001004 0.000000 0.022228 0.000000
# 6 0.000000 0.000000 0.000000 0.001356 0.000000 0.021563
#
#
# Mechanical properties :
#
#
# Convention : Reuss Voigt Hill
#
# Bulk Modulus (GPa) = 33.61190 49.30522 41.45856
# Shear Modulus (GPa) = 33.27195 39.53486 36.40341
#
# Velocity S-wave (km/s) = 3.52102 3.83813 3.68299
# Velocity P-wave (km/s) = 5.39021 6.16550 5.79085
#
# Compressibility (1/GPa) = 0.02975137
#
# Stress axis : x y z
#
# Youngs Moduli (GPa) = 104.97728 86.73309 41.18337
#
# Poissons Ratio (x) = 0.31641 0.27960
# Poissons Ratio (y) = 0.38296 -0.10890
# Poissons Ratio (z) = 0.71270 -0.22934
#
# Static dielectric constant tensor:
#      x y z
#    x 2.142980 0.000000 0.076400 
#    y 0.000000 2.126760 0.000000 
#    z 0.076400 0.000000 2.209830 
# 
# From -- ./inp_files/237686.got.cif
#   From: 2010.05.17/outbox.cif.g08.bks.cpg/sg15_119_cif.got.tgz:237686.got - 2010.06.03 18:47:42.
