data_PCOD9305828
_publ_section_title
;
Structure prediction by ZEFSAII (Michael W. Deem and Ramdas Pophale) SiO2 
 PCOD9305828
Probable space group: C 2/C
;
_chemical_formula_sum "Si O2"
_cell_formula_units_Z 24
_cell_length_a 9.449747
_cell_length_b 6.924254
_cell_length_c 18.963593
_cell_angle_alpha 90.000000
_cell_angle_beta 126.786664
_cell_angle_gamma 90.000000
_cell_volume 993.747946
_symmetry_space_group_name_H-M "C 2/C"
_symmetry_group_IT_number 15
_symmetry_cell_setting 'monoclinic'
loop_
_space_group_symop_operation_xyz
x,y,z
-x,y,1/2-z
-x,-y,-z
x,-y,1/2+z
1/2+x,1/2+y,z
1/2-x,1/2+y,1/2-z
1/2-x,1/2-y,-z
1/2+x,1/2-y,1/2+z
loop_
_atom_site_type_symbol
_atom_site_label
_atom_site_fract_x
_atom_site_fract_y
_atom_site_fract_z
Si Si1 0.085350 0.596951 0.454804
Si Si2 0.009182 0.709323 0.670695
Si Si3 0.408853 0.352134 0.293427
O O1 0.250000 0.750000 0.500000
O O2 0.000000 0.500000 0.500000
O O3 0.124617 0.413988 0.415699
O O4 0.935865 0.720693 0.369485
O O5 0.206322 0.641677 0.710624
O O6 0.006968 0.940058 0.663591
O O7 0.000000 0.666354 0.750000
O O8 0.500000 0.273896 0.250000
#
# Coordination Sequence:
#
# PCOD9305828 Si02
#       3
#     8   8   8
#     4  12  28  46  72 114 160 198 256 341 407 466
#     4  11  25  45  79 103 140 207 262 316 384 490
#     4  11  24  47  76 105 146 203 267 310 389 483
#
# _framework density 24.150991999999999
#
# number of rings (size 3 to 8) (size 9 to 14) (size 15 to 20)
#    0.000    0.667    3.333    3.000    9.333    2.667 
#    0.000    0.000    0.000    0.000    0.000    0.000 
#    0.000    0.000    0.000    0.000    0.000    0.000 
#
# Total GULP energy -67024.263272 kJ/mol
# GULP energy per Si atom -5585.355273 kJ/mol
# Density = 2.409602 g / cm^3
# Si number density = 24.150992 Si / 1000 Ang^3
#
#
#
# Elastic Constant Matrix: (Units=GPa)
#
#
# Indices 1 2 3 4 5 6 
#
# 1 124.1614 33.2028 40.1066 0.0000 -27.1582 0.0000
# 2 33.2028 204.1153 84.5983 0.0000 -31.8517 0.0000
# 3 40.1066 84.5983 113.0365 0.0000 -27.7581 0.0000
# 4 0.0000 0.0000 0.0000 34.4123 0.0000 15.4007
# 5 -27.1582 -31.8517 -27.7581 0.0000 50.5198 0.0000
# 6 0.0000 0.0000 0.0000 15.4007 0.0000 32.7319
#
#
#
# Elastic Compliance Matrix: (Units=1/GPa)
#
#
# Indices 1 2 3 4 5 6 
#
# 1 0.009703 0.000084 -0.002557 0.000000 0.003864 0.000000
# 2 0.000084 0.007247 -0.004995 0.000000 0.001870 0.000000
# 3 -0.002557 -0.004995 0.014312 0.000000 0.003340 0.000000
# 4 0.000000 0.000000 0.000000 0.036811 0.000000 -0.017320
# 5 0.003864 0.001870 0.003340 0.000000 0.024886 0.000000
# 6 0.000000 0.000000 0.000000 -0.017320 0.000000 0.038700
#
#
# Mechanical properties :
#
#
# Convention : Reuss Voigt Hill
#
# Bulk Modulus (GPa) = 61.24433 84.12538 72.68486
# Shear Modulus (GPa) = 32.88684 42.42650 37.65667
#
# Velocity S-wave (km/s) = 3.69415 4.19587 3.95298
# Velocity P-wave (km/s) = 6.60376 7.64084 7.14115
#
# Compressibility (1/GPa) = 0.01632804
#
# Stress axis : x y z
#
# Youngs Moduli (GPa) = 103.06515 137.97900 69.86977
#
# Poissons Ratio (x) = -0.01165 0.17865
# Poissons Ratio (y) = -0.00870 0.34898
# Poissons Ratio (z) = 0.26352 0.68917
#
# Static dielectric constant tensor:
#      x y z
#    x 1.691160 0.000000 0.063710 
#    y 0.000000 2.003140 0.000000 
#    z 0.063710 0.000000 1.899430 
# 
# From -- ./inp_files/187051.got.cif
#   From: 2010.05.17/outbox.cif.g08.bks.cpg/sg15_94_cif.got.tgz:187051.got - 2010.06.03 18:47:42.
