data_PCOD9305100
_publ_section_title
;
Structure prediction by ZEFSAII (Michael W. Deem and Ramdas Pophale) SiO2 
 PCOD9305100
Probable space group: C 2/C
;
_chemical_formula_sum "Si O2"
_cell_formula_units_Z 48
_cell_length_a 17.536539
_cell_length_b 9.771567
_cell_length_c 18.884279
_cell_angle_alpha 90.000000
_cell_angle_beta 45.243326
_cell_angle_gamma 90.000000
_cell_volume 2297.894461
_symmetry_space_group_name_H-M "C 2/C"
_symmetry_group_IT_number 15
_symmetry_cell_setting 'monoclinic'
loop_
_space_group_symop_operation_xyz
x,y,z
-x,y,1/2-z
-x,-y,-z
x,-y,1/2+z
1/2+x,1/2+y,z
1/2-x,1/2+y,1/2-z
1/2-x,1/2-y,-z
1/2+x,1/2-y,1/2+z
loop_
_atom_site_type_symbol
_atom_site_label
_atom_site_fract_x
_atom_site_fract_y
_atom_site_fract_z
Si Si1 0.293282 0.884256 0.878906
Si Si2 0.148665 0.644363 0.998814
Si Si3 0.241012 0.415716 0.849228
Si Si4 0.186538 0.173055 0.978175
Si Si5 0.531824 0.717796 0.311554
Si Si6 0.922357 0.525164 0.164361
O O1 0.344387 0.842642 0.920796
O O2 0.379290 0.889666 0.759999
O O3 0.193912 0.780796 0.932993
O O4 0.248456 0.036932 0.916993
O O5 0.028223 0.594950 0.061963
O O6 0.229219 0.525151 0.920071
O O7 0.361580 0.372760 0.752750
O O8 0.174598 0.475874 0.827691
O O9 0.186189 0.276982 0.912951
O O10 0.067065 0.149144 0.083445
O O11 0.250000 0.250000 0.000000
O O12 0.500000 0.731608 0.250000
O O13 0.548908 0.871177 0.330256
#
# Coordination Sequence:
#
# PCOD9305100 Si02
#       6
#     8   8   8   8   8   8
#     4  11  24  42  69 100 134 176 236 278 336 415
#     4  11  24  44  67  97 141 181 223 285 342 412
#     4  12  26  41  68 103 136 170 231 289 333 397
#     4  12  21  43  71 100 127 176 243 279 324 414
#     4  12  23  43  77  99 132 187 238 276 333 420
#     4  12  25  42  69  98 139 182 219 284 357 400
#
# _framework density 20.888687999999998
#
# number of rings (size 3 to 8) (size 9 to 14) (size 15 to 20)
#    0.000    0.333    6.667    2.000    2.333    1.333 
#    0.000    3.333    0.000    0.000    0.000    0.000 
#    0.000    0.000    0.000    0.000    0.000    0.000 
#
# Total GULP energy -134283.447731 kJ/mol
# GULP energy per Si atom -5595.143655 kJ/mol
# Density = 2.084114 g / cm^3
# Si number density = 20.888688 Si / 1000 Ang^3
#
#
#
# Elastic Constant Matrix: (Units=GPa)
#
#
# Indices 1 2 3 4 5 6 
#
# 1 63.9997 -8.8787 0.1646 0.0000 -20.3185 0.0000
# 2 -8.8787 78.9464 6.0315 0.0000 -13.2829 0.0000
# 3 0.1646 6.0315 95.6289 0.0000 -34.3126 0.0000
# 4 0.0000 0.0000 0.0000 16.8952 0.0000 -5.1227
# 5 -20.3185 -13.2829 -34.3126 0.0000 31.8326 0.0000
# 6 0.0000 0.0000 0.0000 -5.1227 0.0000 22.5928
#
#
#
# Elastic Compliance Matrix: (Units=1/GPa)
#
#
# Indices 1 2 3 4 5 6 
#
# 1 0.026885 0.007603 0.011040 0.000000 0.032232 0.000000
# 2 0.007603 0.015994 0.005078 0.000000 0.017001 0.000000
# 3 0.011040 0.005078 0.021862 0.000000 0.032730 0.000000
# 4 0.000000 0.000000 0.000000 0.063558 0.000000 0.014411
# 5 0.032232 0.017001 0.032730 0.000000 0.094363 0.000000
# 6 0.000000 0.000000 0.000000 0.014411 0.000000 0.047529
#
#
# Mechanical properties :
#
#
# Convention : Reuss Voigt Hill
#
# Bulk Modulus (GPa) = 8.91401 25.91221 17.41311
# Shear Modulus (GPa) = 19.22021 30.34797 24.78409
#
# Velocity S-wave (km/s) = 3.03665 3.81575 3.44827
# Velocity P-wave (km/s) = 4.07083 5.64315 4.92020
#
# Compressibility (1/GPa) = 0.11218300
#
# Stress axis : x y z
#
# Youngs Moduli (GPa) = 37.19603 62.52183 45.74187
#
# Poissons Ratio (x) = -0.47537 -0.50497
# Poissons Ratio (y) = -0.28281 -0.23229
# Poissons Ratio (z) = -0.41063 -0.31750
#
# Static dielectric constant tensor:
#      x y z
#    x 1.786010 0.000000 0.015640 
#    y 0.000000 1.731590 0.000000 
#    z 0.015640 0.000000 1.750590 
# 
# From -- ./inp_files/251781.got.cif
#   From: 2010.05.17/outbox.cif.g08.bks.cpg/sg15_126_cif.got.tgz:251781.got - 2010.06.03 18:47:42.
