data_PCOD9305088
_publ_section_title
;
Structure prediction by ZEFSAII (Michael W. Deem and Ramdas Pophale) SiO2 
 PCOD9305088
Probable space group: C 2/C
;
_chemical_formula_sum "Si O2"
_cell_formula_units_Z 60
_cell_length_a 11.891454
_cell_length_b 15.670686
_cell_length_c 17.466038
_cell_angle_alpha 90.000000
_cell_angle_beta 71.488903
_cell_angle_gamma 90.000000
_cell_volume 3086.354445
_symmetry_space_group_name_H-M "C 2/C"
_symmetry_group_IT_number 15
_symmetry_cell_setting 'monoclinic'
loop_
_space_group_symop_operation_xyz
x,y,z
-x,y,1/2-z
-x,-y,-z
x,-y,1/2+z
1/2+x,1/2+y,z
1/2-x,1/2+y,1/2-z
1/2-x,1/2-y,-z
1/2+x,1/2-y,1/2+z
loop_
_atom_site_type_symbol
_atom_site_label
_atom_site_fract_x
_atom_site_fract_y
_atom_site_fract_z
Si Si1 0.500000 0.175636 0.250000
Si Si2 0.138531 0.506572 0.487722
Si Si3 0.267719 0.609426 0.851400
Si Si4 0.509497 0.688181 0.621464
Si Si5 0.647391 0.192952 0.559053
Si Si6 0.265736 0.606953 0.669870
Si Si7 0.219263 0.417417 0.624079
Si Si8 0.602789 0.736019 0.438982
O O1 0.534366 0.237473 0.312635
O O2 0.389500 0.121904 0.304535
O O3 0.215313 0.477386 0.398180
O O4 0.154032 0.603145 0.512282
O O5 0.176321 0.442066 0.547713
O O6 0.000000 0.500000 0.500000
O O7 0.400695 0.628069 0.851063
O O8 0.256507 0.614975 0.762890
O O9 0.189793 0.686163 0.902474
O O10 0.396485 0.636791 0.617115
O O11 0.576163 0.728115 0.534833
O O12 0.750000 0.250000 0.500000
O O13 0.675276 0.165106 0.640446
O O14 0.521802 0.240328 0.574699
O O15 0.251610 0.508249 0.652614
O O16 0.327778 0.350441 0.599243
#
# Coordination Sequence:
#
# PCOD9305088 Si02
#       8
#     4   8   8   8   8   8   8   8
#     4  12  24  40  68 102 128 164 234 280 332 394
#     4  11  24  42  67  98 131 175 231 275 337 404
#     4  12  23  43  71 102 133 177 230 291 336 397
#     4  12  22  42  73  96 132 178 229 280 332 411
#     4  11  25  44  68 101 137 185 219 283 345 414
#     4  11  26  44  66 100 141 176 223 283 356 396
#     4  11  26  42  67 101 133 182 223 286 342 409
#     4  12  23  43  72  97 137 176 236 272 340 419
#
# _framework density 19.440411999999998
#
# number of rings (size 3 to 8) (size 9 to 14) (size 15 to 20)
#    0.000    0.533    6.667    1.200    1.867    2.133 
#    2.400    0.000    0.000    0.000    0.000    0.000 
#    0.000    0.000    0.000    0.000    0.000    0.000 
#
# Total GULP energy -167707.258014 kJ/mol
# GULP energy per Si atom -5590.241934 kJ/mol
# Density = 1.939616 g / cm^3
# Si number density = 19.440412 Si / 1000 Ang^3
#
#
#
# Elastic Constant Matrix: (Units=GPa)
#
#
# Indices 1 2 3 4 5 6 
#
# 1 119.7931 63.9176 23.6101 0.0000 11.4460 0.0000
# 2 63.9176 105.6580 33.6524 0.0000 -0.0726 0.0000
# 3 23.6101 33.6524 107.0603 0.0000 10.2256 0.0000
# 4 0.0000 0.0000 0.0000 20.7202 0.0000 -1.3593
# 5 11.4460 -0.0726 10.2256 0.0000 32.4757 0.0000
# 6 0.0000 0.0000 0.0000 -1.3593 0.0000 27.8432
#
#
#
# Elastic Compliance Matrix: (Units=1/GPa)
#
#
# Indices 1 2 3 4 5 6 
#
# 1 0.012977 -0.007870 0.000052 0.000000 -0.004608 0.000000
# 2 -0.007870 0.015329 -0.003455 0.000000 0.003896 0.000000
# 3 0.000052 -0.003455 0.010740 0.000000 -0.003408 0.000000
# 4 0.000000 0.000000 0.000000 0.048417 0.000000 0.002364
# 5 -0.004608 0.003896 -0.003408 0.000000 0.033498 0.000000
# 6 0.000000 0.000000 0.000000 0.002364 0.000000 0.036031
#
#
# Mechanical properties :
#
#
# Convention : Reuss Voigt Hill
#
# Bulk Modulus (GPa) = 60.60449 63.87461 62.23955
# Shear Modulus (GPa) = 27.02156 30.29660 28.65908
#
# Velocity S-wave (km/s) = 3.73227 3.95198 3.84370
# Velocity P-wave (km/s) = 7.05800 7.33159 7.19609
#
# Compressibility (1/GPa) = 0.01650043
#
# Stress axis : x y z
#
# Youngs Moduli (GPa) = 77.05974 65.23781 93.10580
#
# Poissons Ratio (x) = 0.51343 -0.00485
# Poissons Ratio (y) = 0.60647 0.32166
# Poissons Ratio (z) = -0.00402 0.22538
#
# Static dielectric constant tensor:
#      x y z
#    x 1.672900 0.000000 0.036900 
#    y 0.000000 1.762940 0.000000 
#    z 0.036900 0.000000 1.630330 
# 
# From -- ./inp_files/197827.got.cif
#   From: 2010.05.17/outbox.cif.g08.bks.cpg/sg15_99_cif.got.tgz:197827.got - 2010.06.03 18:47:42.
