data_PCOD9305114
_publ_section_title
;
Structure prediction by ZEFSAII (Michael W. Deem and Ramdas Pophale) SiO2 
 PCOD9305114
Probable space group: C 2/C
;
_chemical_formula_sum "Si O2"
_cell_formula_units_Z 48
_cell_length_a 8.149455
_cell_length_b 14.707876
_cell_length_c 23.911844
_cell_angle_alpha 90.000000
_cell_angle_beta 42.623018
_cell_angle_gamma 90.000000
_cell_volume 1940.842763
_symmetry_space_group_name_H-M "C 2/C"
_symmetry_group_IT_number 15
_symmetry_cell_setting 'monoclinic'
loop_
_space_group_symop_operation_xyz
x,y,z
-x,y,1/2-z
-x,-y,-z
x,-y,1/2+z
1/2+x,1/2+y,z
1/2-x,1/2+y,1/2-z
1/2-x,1/2-y,-z
1/2+x,1/2-y,1/2+z
loop_
_atom_site_type_symbol
_atom_site_label
_atom_site_fract_x
_atom_site_fract_y
_atom_site_fract_z
Si Si1 0.778099 0.296900 0.376561
Si Si2 0.222949 0.950156 0.127581
Si Si3 0.045320 0.126091 0.456947
Si Si4 0.441703 0.119643 0.454723
Si Si5 0.721880 0.477818 0.327607
Si Si6 0.770953 0.734152 0.678257
O O1 0.711904 0.353964 0.449877
O O2 0.598908 0.211468 0.418907
O O3 0.733364 0.371825 0.340927
O O4 0.054034 0.263703 0.312263
O O5 0.240795 0.868996 0.166350
O O6 0.951977 0.984873 0.182141
O O7 0.385639 0.035392 0.102869
O O8 0.322030 0.906952 0.044142
O O9 0.239254 0.129781 0.458211
O O10 0.094044 0.207086 0.402010
O O11 0.089762 0.035169 0.409945
O O12 0.000000 0.508313 0.250000
O O13 0.500000 0.772303 0.750000
#
# Coordination Sequence:
#
# PCOD9305114 Si02
#       6
#     8   8   8   8   8   8
#     4  12  24  44  70  99 130 177 225 274 328 395
#     4  11  24  43  67  97 135 168 222 273 333 392
#     4  12  24  44  69 101 131 175 229 275 326 397
#     4  11  24  42  70 100 126 170 225 281 320 389
#     4  12  26  44  67  99 138 177 220 276 339 394
#     4  12  26  44  67  99 139 177 219 277 338 393
#
# _framework density 24.731524
#
# number of rings (size 3 to 8) (size 9 to 14) (size 15 to 20)
#    0.000    0.333    3.333    6.000    4.667    0.000 
#    0.000    2.500    0.000    0.000    0.000    0.000 
#    0.000    0.000    0.000    0.000    0.000    0.000 
#
# Total GULP energy -134603.556643 kJ/mol
# GULP energy per Si atom -5608.481527 kJ/mol
# Density = 2.467523 g / cm^3
# Si number density = 24.731524 Si / 1000 Ang^3
#
#
#
# Elastic Constant Matrix: (Units=GPa)
#
#
# Indices 1 2 3 4 5 6 
#
# 1 104.3718 26.1010 -5.0810 0.0006 -32.6483 0.0003
# 2 26.1010 136.0419 12.6670 0.0011 -2.9162 0.0000
# 3 -5.0810 12.6670 59.3950 0.0016 -15.3948 -0.0011
# 4 0.0006 0.0011 0.0016 14.1509 -0.0010 9.3206
# 5 -32.6483 -2.9162 -15.3948 -0.0010 40.2471 0.0007
# 6 0.0003 0.0000 -0.0011 9.3206 0.0007 46.8282
#
#
#
# Elastic Compliance Matrix: (Units=1/GPa)
#
#
# Indices 1 2 3 4 5 6 
#
# 1 0.015052 -0.003108 0.005613 0.000000 0.014132 0.000000
# 2 -0.003108 0.008141 -0.002778 0.000000 -0.002994 0.000000
# 3 0.005613 -0.002778 0.021132 -0.000002 0.012436 0.000001
# 4 0.000000 0.000000 -0.000002 0.081329 0.000002 -0.016188
# 5 0.014132 -0.002994 0.012436 0.000002 0.040850 -0.000001
# 6 0.000000 0.000000 0.000001 -0.016188 -0.000001 0.024577
#
#
# Mechanical properties :
#
#
# Convention : Reuss Voigt Hill
#
# Bulk Modulus (GPa) = 22.84075 40.79806 31.81940
# Shear Modulus (GPa) = 24.24588 37.98669 31.11629
#
# Velocity S-wave (km/s) = 3.13447 3.92339 3.55091
# Velocity P-wave (km/s) = 4.72815 6.08738 5.45030
#
# Compressibility (1/GPa) = 0.04378141
#
# Stress axis : x y z
#
# Youngs Moduli (GPa) = 66.43517 122.82891 47.32087
#
# Poissons Ratio (x) = 0.38171 -0.26563
# Poissons Ratio (y) = 0.20646 0.13146
# Poissons Ratio (z) = -0.37293 0.34123
#
# Static dielectric constant tensor:
#      x y z
#    x 1.898600 0.000000 -0.005230 
#    y 0.000000 1.895030 0.000000 
#    z -0.005230 0.000000 2.024040 
# 
# From -- ./inp_files/289007.got.cif
#   From: 2010.05.17/outbox.cif.g08.bks.cpg/sg15_145_cif.got.tgz:289007.got - 2010.06.03 18:47:42.
