data_PCOD9305339
_publ_section_title
;
Structure prediction by ZEFSAII (Michael W. Deem and Ramdas Pophale) SiO2 
 PCOD9305339
Probable space group: C 2/C
;
_chemical_formula_sum "Si O2"
_cell_formula_units_Z 60
_cell_length_a 18.236979
_cell_length_b 21.970288
_cell_length_c 11.774697
_cell_angle_alpha 90.000000
_cell_angle_beta 33.500642
_cell_angle_gamma 90.000000
_cell_volume 2603.965568
_symmetry_space_group_name_H-M "C 2/C"
_symmetry_group_IT_number 15
_symmetry_cell_setting 'monoclinic'
loop_
_space_group_symop_operation_xyz
x,y,z
-x,y,1/2-z
-x,-y,-z
x,-y,1/2+z
1/2+x,1/2+y,z
1/2-x,1/2+y,1/2-z
1/2-x,1/2-y,-z
1/2+x,1/2-y,1/2+z
loop_
_atom_site_type_symbol
_atom_site_label
_atom_site_fract_x
_atom_site_fract_y
_atom_site_fract_z
Si Si1 0.000000 0.359963 0.750000
Si Si2 0.779825 0.929182 0.038142
Si Si3 0.998330 0.065920 0.441698
Si Si4 0.095528 0.134603 0.523957
Si Si5 0.850374 0.733316 0.611469
Si Si6 0.446409 0.756764 0.442412
Si Si7 0.652913 0.059504 0.229938
Si Si8 0.990236 0.393196 0.139490
O O1 0.081252 0.318943 0.553625
O O2 0.101017 0.402176 0.689968
O O3 0.664869 0.878979 0.180714
O O4 0.700742 0.992761 0.136255
O O5 0.881157 0.928180 0.803021
O O6 0.864290 0.926857 0.043534
O O7 0.019234 0.117214 0.508238
O O8 0.000000 0.000000 0.500000
O O9 0.139392 0.204192 0.473057
O O10 0.221552 0.091857 0.374605
O O11 0.000000 0.119499 0.750000
O O12 0.941921 0.746780 0.603884
O O13 0.694588 0.726889 0.843482
O O14 0.500000 0.735301 0.250000
O O15 0.427506 0.830397 0.458280
O O16 0.542604 0.066228 0.469810
O O17 0.000000 0.423592 0.250000
#
# Coordination Sequence:
#
# PCOD9305339 Si02
#       8
#     4   8   8   8   8   8   8   8
#     4  12  28  46  74 110 152 186 260 300 380 446
#     4  11  26  44  74 102 149 187 240 302 366 431
#     4  11  24  47  69 106 140 188 242 300 360 453
#     4  12  25  43  74 103 143 192 241 299 374 432
#     4  12  25  49  74 108 147 195 245 319 366 444
#     4  11  26  48  75 103 148 193 248 306 372 441
#     4  12  25  47  69 108 143 194 240 301 369 438
#     4  11  24  44  70 101 143 188 237 293 362 437
#
# _framework density 23.041778000000001
#
# number of rings (size 3 to 8) (size 9 to 14) (size 15 to 20)
#    0.000    0.533    4.667    2.400    4.667    4.267 
#    2.400    0.000    0.000    0.000    0.000    0.000 
#    0.000    0.000    0.000    0.000    0.000    0.000 
#
# Total GULP energy -168022.372004 kJ/mol
# GULP energy per Si atom -5600.745733 kJ/mol
# Density = 2.298933 g / cm^3
# Si number density = 23.041778 Si / 1000 Ang^3
#
#
#
# Elastic Constant Matrix: (Units=GPa)
#
#
# Indices 1 2 3 4 5 6 
#
# 1 150.9416 20.0608 74.0815 0.0002 -0.2553 -0.0011
# 2 20.0608 81.8183 21.4326 0.0003 -2.5899 -0.0004
# 3 74.0815 21.4326 136.4807 0.0003 -16.1322 0.0000
# 4 0.0002 0.0003 0.0003 3.5881 -0.0002 -26.8096
# 5 -0.2553 -2.5899 -16.1322 -0.0002 34.7908 0.0004
# 6 -0.0011 -0.0004 0.0000 -26.8096 0.0004 10.1473
#
#
#
# Elastic Compliance Matrix: (Units=1/GPa)
#
#
# Indices 1 2 3 4 5 6 
#
# 1 0.009292 -0.001000 -0.005171 0.000000 -0.002404 0.000000
# 2 -0.001000 0.012854 -0.001443 0.000000 0.000281 0.000000
# 3 -0.005171 -0.001443 0.010943 0.000000 0.004929 0.000000
# 4 0.000000 0.000000 0.000000 -0.014871 0.000001 -0.039290
# 5 -0.002404 0.000281 0.004929 0.000001 0.031032 0.000000
# 6 0.000000 0.000000 0.000000 -0.039290 0.000000 -0.005259
#
#
# Mechanical properties :
#
#
# Convention : Reuss Voigt Hill
#
# Bulk Modulus (GPa) = 55.98394 66.71004 61.34699
# Shear Modulus (GPa) = 76.72121 26.61629 51.66875
#
# Velocity S-wave (km/s) = 5.77658 3.40241 4.74053
# Velocity P-wave (km/s) = 8.29706 6.66707 7.52632
#
# Compressibility (1/GPa) = 0.01786227
#
# Stress axis : x y z
#
# Youngs Moduli (GPa) = 107.62419 77.79589 91.38458
#
# Poissons Ratio (x) = 0.07778 0.47251
# Poissons Ratio (y) = 0.10760 0.13184
# Poissons Ratio (z) = 0.55648 0.11224
#
# Static dielectric constant tensor:
#      x y z
#    x 1.865450 0.000000 -0.021810 
#    y 0.000000 1.878190 0.000000 
#    z -0.021810 0.000000 1.883000 
# 
# From -- ./inp_files/108416.got.cif
#   From: 2010.05.17/outbox.cif.g08.bks.cpg/sg15_55_cif.got.tgz:108416.got - 2010.06.03 18:47:42.
