data_PCOD9305219
_publ_section_title
;
Structure prediction by ZEFSAII (Michael W. Deem and Ramdas Pophale) SiO2 
 PCOD9305219
Probable space group: C 2/C
;
_chemical_formula_sum "Si O2"
_cell_formula_units_Z 32
_cell_length_a 36.363467
_cell_length_b 4.725068
_cell_length_c 19.227567
_cell_angle_alpha 90.000000
_cell_angle_beta 157.723230
_cell_angle_gamma 90.000000
_cell_volume 1252.361507
_symmetry_space_group_name_H-M "C 2/C"
_symmetry_group_IT_number 15
_symmetry_cell_setting 'monoclinic'
loop_
_space_group_symop_operation_xyz
x,y,z
-x,y,1/2-z
-x,-y,-z
x,-y,1/2+z
1/2+x,1/2+y,z
1/2-x,1/2+y,1/2-z
1/2-x,1/2-y,-z
1/2+x,1/2-y,1/2+z
loop_
_atom_site_type_symbol
_atom_site_label
_atom_site_fract_x
_atom_site_fract_y
_atom_site_fract_z
Si Si1 0.282069 0.043551 0.118351
Si Si2 0.406140 0.817501 0.229149
Si Si3 0.296930 0.948042 0.798781
Si Si4 0.488869 0.676638 0.651079
O O1 0.292646 0.167427 0.213048
O O2 0.382208 0.903137 0.266648
O O3 0.250000 0.250000 0.000000
O O4 0.195482 0.817997 0.972395
O O5 0.489837 0.588036 0.361821
O O6 0.429238 0.093885 0.225173
O O7 0.287584 0.676761 0.831932
O O8 0.391542 0.142047 0.972596
O O9 0.500000 0.581200 0.750000
#
# Coordination Sequence:
#
# PCOD9305219 Si02
#       4
#     8   8   8   8
#     4  11  25  47  73 101 145 187 233 292 356 428
#     4  11  24  43  71  99 137 188 231 285 359 415
#     4  12  28  46  72 104 142 188 241 293 358 421
#     4  12  24  44  69 103 142 183 237 298 348 420
#
# _framework density 25.551725000000001
#
# number of rings (size 3 to 8) (size 9 to 14) (size 15 to 20)
#    0.000    0.500    2.500    5.250    7.000    2.000 
#    0.000    0.000    0.000    0.000    0.000    0.000 
#    0.000    0.000    0.000    0.000    0.000    0.000 
#
# Total GULP energy -89647.210712 kJ/mol
# GULP energy per Si atom -5602.950670 kJ/mol
# Density = 2.549357 g / cm^3
# Si number density = 25.551725 Si / 1000 Ang^3
#
#
#
# Elastic Constant Matrix: (Units=GPa)
#
#
# Indices 1 2 3 4 5 6 
#
# 1 178.0234 56.5362 43.0240 0.0014 -0.7048 0.0031
# 2 56.5362 140.1657 21.0011 0.0089 11.0356 0.0213
# 3 43.0240 21.0011 76.0699 0.0036 12.5108 0.0091
# 4 0.0014 0.0089 0.0036 211.8381 -0.0021 488.5161
# 5 -0.7048 11.0356 12.5108 -0.0021 35.5085 -0.0057
# 6 0.0031 0.0213 0.0091 488.5161 -0.0057 1387.2406
#
#
#
# Elastic Compliance Matrix: (Units=1/GPa)
#
#
# Indices 1 2 3 4 5 6 
#
# 1 0.007373 -0.002580 -0.003836 0.000000 0.002300 0.000000
# 2 -0.002580 0.008442 -0.000458 0.000000 -0.002513 0.000000
# 3 -0.003836 -0.000458 0.016380 0.000000 -0.005705 0.000000
# 4 0.000000 0.000000 0.000000 0.025121 0.000000 -0.008846
# 5 0.002300 -0.002513 -0.005705 0.000000 0.030999 0.000000
# 6 0.000000 0.000000 0.000000 -0.008846 0.000000 0.003836
#
#
# Mechanical properties :
#
#
# Convention : Reuss Voigt Hill
#
# Bulk Modulus (GPa) = 54.21035 70.59796 62.40416
# Shear Modulus (GPa) = 44.62405 345.16394 194.89399
#
# Velocity S-wave (km/s) = 4.18355 11.63519 8.74299
# Velocity P-wave (km/s) = 6.67818 14.42889 11.24258
#
# Compressibility (1/GPa) = 0.01844666
#
# Stress axis : x y z
#
# Youngs Moduli (GPa) = 135.63408 118.46064 61.05012
#
# Poissons Ratio (x) = 0.30565 0.23418
# Poissons Ratio (y) = 0.34996 0.02795
# Poissons Ratio (z) = 0.52027 0.05424
#
# Static dielectric constant tensor:
#      x y z
#    x 2.020230 0.000000 0.078650 
#    y 0.000000 2.002650 0.000000 
#    z 0.078650 0.000000 2.053320 
# 
# From -- ./inp_files/223767.got.cif
#   From: 2010.05.17/outbox.cif.g08.bks.cpg/sg15_112_cif.got.tgz:223767.got - 2010.06.03 18:47:42.
