data_PCOD9305505
_publ_section_title
;
Structure prediction by ZEFSAII (Michael W. Deem and Ramdas Pophale) SiO2 
 PCOD9305505
Probable space group: C 2/C
;
_chemical_formula_sum "Si O2"
_cell_formula_units_Z 48
_cell_length_a 5.605012
_cell_length_b 22.560965
_cell_length_c 22.284836
_cell_angle_alpha 90.000000
_cell_angle_beta 44.280751
_cell_angle_gamma 90.000000
_cell_volume 1967.468700
_symmetry_space_group_name_H-M "C 2/C"
_symmetry_group_IT_number 15
_symmetry_cell_setting 'monoclinic'
loop_
_space_group_symop_operation_xyz
x,y,z
-x,y,1/2-z
-x,-y,-z
x,-y,1/2+z
1/2+x,1/2+y,z
1/2-x,1/2+y,1/2-z
1/2-x,1/2-y,-z
1/2+x,1/2-y,1/2+z
loop_
_atom_site_type_symbol
_atom_site_label
_atom_site_fract_x
_atom_site_fract_y
_atom_site_fract_z
Si Si1 0.464744 0.038729 0.585814
Si Si2 0.898271 0.793217 0.423251
Si Si3 0.280570 0.360050 0.962080
Si Si4 0.455318 0.196567 0.328040
Si Si5 0.763887 0.910330 0.150163
Si Si6 0.766820 0.416647 0.656570
O O1 0.756192 0.076130 0.498512
O O2 0.545515 0.054771 0.640156
O O3 0.098358 0.056931 0.620346
O O4 0.486304 0.967600 0.584703
O O5 0.750000 0.750000 0.500000
O O6 0.569534 0.827969 0.457369
O O7 0.091626 0.751822 0.341150
O O8 0.122423 0.849155 0.402519
O O9 0.567862 0.311348 0.920001
O O10 0.334164 0.376565 0.882247
O O11 0.500000 0.206480 0.250000
O O12 0.589906 0.132231 0.323413
O O13 0.500000 0.895609 0.250000
O O14 0.500000 0.448311 0.750000
#
# Coordination Sequence:
#
# PCOD9305505 Si02
#       6
#     8   8   8   8   8   8
#     4  11  27  46  76 108 145 191 242 301 361 435
#     4  11  24  45  70  99 141 188 242 303 359 434
#     4  11  25  46  71 104 142 189 246 294 365 433
#     4  12  26  44  73 106 144 191 242 303 370 438
#     4  11  25  47  73 106 143 190 245 298 367 431
#     4  12  25  45  70 106 146 188 239 300 368 436
#
# _framework density 24.396832
#
# number of rings (size 3 to 8) (size 9 to 14) (size 15 to 20)
#    0.000    0.667    3.333    3.500    4.667    7.333 
#    0.000    0.000    0.000    0.000    0.000    0.000 
#    0.000    0.000    0.000    0.000    0.000    0.000 
#
# Total GULP energy -133912.965664 kJ/mol
# GULP energy per Si atom -5579.706903 kJ/mol
# Density = 2.434130 g / cm^3
# Si number density = 24.396832 Si / 1000 Ang^3
#
#
#
# Elastic Constant Matrix: (Units=GPa)
#
#
# Indices 1 2 3 4 5 6 
#
# 1 66.0130 42.6423 17.7924 0.0000 17.5887 0.0000
# 2 42.6423 130.1829 12.9895 0.0000 11.3918 0.0000
# 3 17.7924 12.9895 80.7555 0.0000 17.4910 0.0000
# 4 0.0000 0.0000 0.0000 40.2874 0.0000 17.1164
# 5 17.5887 11.3918 17.4910 0.0000 40.8605 0.0000
# 6 0.0000 0.0000 0.0000 17.1164 0.0000 37.6523
#
#
#
# Elastic Compliance Matrix: (Units=1/GPa)
#
#
# Indices 1 2 3 4 5 6 
#
# 1 0.021561 -0.006258 -0.002327 0.000000 -0.006540 0.000000
# 2 -0.006258 0.009746 -0.000203 0.000000 0.000063 0.000000
# 3 -0.002327 -0.000203 0.013997 0.000000 -0.004933 0.000000
# 4 0.000000 0.000000 0.000000 0.030763 0.000000 -0.013985
# 5 -0.006540 0.000063 -0.004933 0.000000 0.029383 0.000000
# 6 0.000000 0.000000 0.000000 -0.013985 0.000000 0.032916
#
#
# Mechanical properties :
#
#
# Convention : Reuss Voigt Hill
#
# Bulk Modulus (GPa) = 36.06434 47.08886 41.57660
# Shear Modulus (GPa) = 30.26929 37.32851 33.79890
#
# Velocity S-wave (km/s) = 3.52619 3.91584 3.72611
# Velocity P-wave (km/s) = 5.60296 6.30778 5.96579
#
# Compressibility (1/GPa) = 0.02772822
#
# Stress axis : x y z
#
# Youngs Moduli (GPa) = 46.38063 102.60640 71.44433
#
# Poissons Ratio (x) = 0.64210 0.16627
# Poissons Ratio (y) = 0.29024 0.01447
# Poissons Ratio (z) = 0.10794 0.02079
#
# Static dielectric constant tensor:
#      x y z
#    x 2.099190 0.000000 -0.087810 
#    y 0.000000 2.030730 0.000000 
#    z -0.087810 0.000000 1.991530 
# 
# From -- ./inp_files/228034.got.cif
#   From: 2010.05.17/outbox.cif.g08.bks.cpg/sg15_115_cif.got.tgz:228034.got - 2010.06.03 18:47:42.
