data_PCOD9305480
_publ_section_title
;
Structure prediction by ZEFSAII (Michael W. Deem and Ramdas Pophale) SiO2 
 PCOD9305480
Probable space group: C 2/C
;
_chemical_formula_sum "Si O2"
_cell_formula_units_Z 36
_cell_length_a 6.991380
_cell_length_b 17.752789
_cell_length_c 15.917309
_cell_angle_alpha 90.000000
_cell_angle_beta 113.654449
_cell_angle_gamma 90.000000
_cell_volume 1809.614297
_symmetry_space_group_name_H-M "C 2/C"
_symmetry_group_IT_number 15
_symmetry_cell_setting 'monoclinic'
loop_
_space_group_symop_operation_xyz
x,y,z
-x,y,1/2-z
-x,-y,-z
x,-y,1/2+z
1/2+x,1/2+y,z
1/2-x,1/2+y,1/2-z
1/2-x,1/2-y,-z
1/2+x,1/2-y,1/2+z
loop_
_atom_site_type_symbol
_atom_site_label
_atom_site_fract_x
_atom_site_fract_y
_atom_site_fract_z
Si Si1 0.000000 0.899363 0.750000
Si Si2 0.517812 0.642569 0.653534
Si Si3 0.659258 0.939472 0.987287
Si Si4 0.766066 0.495985 0.173708
Si Si5 0.427436 0.814766 0.836375
O O1 0.191461 0.844238 0.804509
O O2 0.099848 0.955295 0.698069
O O3 0.500000 0.644717 0.750000
O O4 0.323240 0.596888 0.580245
O O5 0.719281 0.592103 0.671257
O O6 0.538090 0.728800 0.629256
O O7 0.551025 0.870270 0.919573
O O8 0.762010 0.982453 0.927589
O O9 0.500000 0.000000 0.000000
O O10 0.000000 0.511112 0.250000
O O11 0.500000 0.820422 0.750000
#
# Coordination Sequence:
#
# PCOD9305480 Si02
#       5
#     4   8   8   8   8
#     4  12  20  44  72  96 130 176 232 264 348 392
#     4  11  25  42  68  99 141 177 223 283 338 396
#     4  12  23  45  69 101 137 181 227 276 334 405
#     4  12  23  44  70  99 133 179 230 278 331 404
#     4  11  24  45  69  99 140 177 221 282 340 401
#
# _framework density 19.893742
#
# number of rings (size 3 to 8) (size 9 to 14) (size 15 to 20)
#    0.000    0.444    5.556    4.000    1.556    0.000 
#    0.000    2.222    0.000    0.000    0.000    0.000 
#    0.000    0.000    0.000    0.000    0.000    0.000 
#
# Total GULP energy -100494.410700 kJ/mol
# GULP energy per Si atom -5583.022817 kJ/mol
# Density = 1.984846 g / cm^3
# Si number density = 19.893742 Si / 1000 Ang^3
#
#
#
# Elastic Constant Matrix: (Units=GPa)
#
#
# Indices 1 2 3 4 5 6 
#
# 1 113.7586 54.6972 44.5654 0.0000 -5.5027 0.0000
# 2 54.6972 186.7976 46.0733 0.0000 -6.1251 0.0000
# 3 44.5654 46.0733 99.9524 0.0000 1.9657 0.0000
# 4 0.0000 0.0000 0.0000 28.6543 0.0000 -7.3952
# 5 -5.5027 -6.1251 1.9657 0.0000 37.4859 0.0000
# 6 0.0000 0.0000 0.0000 -7.3952 0.0000 10.9276
#
#
#
# Elastic Compliance Matrix: (Units=1/GPa)
#
#
# Indices 1 2 3 4 5 6 
#
# 1 0.011602 -0.002328 -0.004130 0.000000 0.001539 0.000000
# 2 -0.002328 0.006556 -0.002000 0.000000 0.000834 0.000000
# 3 -0.004130 -0.002000 0.012800 0.000000 -0.001604 0.000000
# 4 0.000000 0.000000 0.000000 0.042284 0.000000 0.028616
# 5 0.001539 0.000834 -0.001604 0.000000 0.027123 0.000000
# 6 0.000000 0.000000 0.000000 0.028616 0.000000 0.110877
#
#
# Mechanical properties :
#
#
# Convention : Reuss Voigt Hill
#
# Bulk Modulus (GPa) = 71.22110 76.79781 74.00946
# Shear Modulus (GPa) = 21.47396 32.42507 26.94952
#
# Velocity S-wave (km/s) = 3.28904 4.04160 3.68458
# Velocity P-wave (km/s) = 7.09240 7.77606 7.44209
#
# Compressibility (1/GPa) = 0.01404078
#
# Stress axis : x y z
#
# Youngs Moduli (GPa) = 86.18850 152.53575 78.12576
#
# Poissons Ratio (x) = 0.35513 0.32268
# Poissons Ratio (y) = 0.20066 0.15627
# Poissons Ratio (z) = 0.35598 0.30511
#
# Static dielectric constant tensor:
#      x y z
#    x 1.689610 0.000000 0.008480 
#    y 0.000000 1.722670 0.000000 
#    z 0.008480 0.000000 1.707100 
# 
# From -- ./inp_files/128667.got.cif
#   From: 2010.05.17/outbox.cif.g08.bks.cpg/sg15_65_cif.got.tgz:128667.got - 2010.06.03 18:47:42.
