data_PCOD9305577
_publ_section_title
;
Structure prediction by ZEFSAII (Michael W. Deem and Ramdas Pophale) SiO2 
 PCOD9305577
Probable space group: C 2/C
;
_chemical_formula_sum "Si O2"
_cell_formula_units_Z 40
_cell_length_a 9.302386
_cell_length_b 21.538297
_cell_length_c 16.818908
_cell_angle_alpha 90.000000
_cell_angle_beta 147.974671
_cell_angle_gamma 90.000000
_cell_volume 1786.982578
_symmetry_space_group_name_H-M "C 2/C"
_symmetry_group_IT_number 15
_symmetry_cell_setting 'monoclinic'
loop_
_space_group_symop_operation_xyz
x,y,z
-x,y,1/2-z
-x,-y,-z
x,-y,1/2+z
1/2+x,1/2+y,z
1/2-x,1/2+y,1/2-z
1/2-x,1/2-y,-z
1/2+x,1/2-y,1/2+z
loop_
_atom_site_type_symbol
_atom_site_label
_atom_site_fract_x
_atom_site_fract_y
_atom_site_fract_z
Si Si1 0.412248 0.613109 0.417182
Si Si2 0.697114 0.851334 0.109620
Si Si3 0.914050 0.429309 0.593047
Si Si4 0.530923 0.930592 0.359093
Si Si5 0.204072 0.758746 0.072139
O O1 0.325857 0.573730 0.454178
O O2 0.650290 0.581622 0.478268
O O3 0.528875 0.678889 0.500141
O O4 0.146522 0.615396 0.237907
O O5 0.631241 0.881726 0.164056
O O6 0.000000 0.824706 0.250000
O O7 0.678716 0.905268 0.035213
O O8 0.474745 0.799624 0.984873
O O9 0.030619 0.498730 0.647186
O O10 0.500000 0.922210 0.250000
O O11 0.500000 0.762418 0.250000
O O12 0.250000 0.750000 0.000000
#
# Coordination Sequence:
#
# PCOD9305577 Si02
#       5
#     8   8   8   8   8
#     4  11  24  45  77  99 146 197 245 294 369 435
#     4  12  29  45  74 110 148 188 248 308 363 429
#     4  11  26  45  71 111 144 190 247 307 361 435
#     4  12  24  47  73 102 147 195 243 294 372 443
#     4  12  27  50  75 106 147 197 250 303 367 442
#
# _framework density 22.384101999999999
#
# number of rings (size 3 to 8) (size 9 to 14) (size 15 to 20)
#    0.000    0.400    4.000    4.200    8.400    0.800 
#    0.000    0.000    0.000    0.000    0.000    0.000 
#    0.000    0.000    0.000    0.000    0.000    0.000 
#
# Total GULP energy -111975.161288 kJ/mol
# GULP energy per Si atom -5598.758064 kJ/mol
# Density = 2.233316 g / cm^3
# Si number density = 22.384102 Si / 1000 Ang^3
#
#
#
# Elastic Constant Matrix: (Units=GPa)
#
#
# Indices 1 2 3 4 5 6 
#
# 1 60.3968 2.8560 30.2290 0.0071 4.6201 0.0011
# 2 2.8560 112.0651 29.1755 0.0075 9.5251 0.0026
# 3 30.2290 29.1755 107.9053 0.0411 11.9860 0.0121
# 4 0.0071 0.0075 0.0411 28.3181 -0.0040 5.2778
# 5 4.6201 9.5251 11.9860 -0.0040 43.3451 -0.0009
# 6 0.0011 0.0026 0.0121 5.2778 -0.0009 31.2352
#
#
#
# Elastic Compliance Matrix: (Units=1/GPa)
#
#
# Indices 1 2 3 4 5 6 
#
# 1 0.019381 0.001034 -0.005627 0.000003 -0.000737 0.000001
# 2 0.001034 0.009742 -0.002758 0.000001 -0.001488 0.000000
# 3 -0.005627 -0.002758 0.011819 -0.000015 -0.002062 -0.000002
# 4 0.000003 0.000001 -0.000015 0.036461 0.000007 -0.006161
# 5 -0.000737 -0.001488 -0.002062 0.000007 0.024046 0.000000
# 6 0.000001 0.000000 -0.000002 -0.006161 0.000000 0.033056
#
#
# Mechanical properties :
#
#
# Convention : Reuss Voigt Hill
#
# Bulk Modulus (GPa) = 38.11263 44.98758 41.55011
# Shear Modulus (GPa) = 31.65467 35.12016 33.38741
#
# Velocity S-wave (km/s) = 3.76461 3.96533 3.86627
# Velocity P-wave (km/s) = 5.99667 6.41145 6.20753
#
# Compressibility (1/GPa) = 0.02623802
#
# Stress axis : x y z
#
# Youngs Moduli (GPa) = 51.59676 102.65239 84.61215
#
# Poissons Ratio (x) = -0.10611 0.47612
# Poissons Ratio (y) = -0.05334 0.23338
# Poissons Ratio (z) = 0.29034 0.28314
#
# Static dielectric constant tensor:
#      x y z
#    x 1.856450 0.000000 0.062830 
#    y 0.000000 1.836320 0.000000 
#    z 0.062830 0.000000 1.889660 
# 
# From -- ./inp_files/193460.got.cif
#   From: 2010.05.17/outbox.cif.g08.bks.cpg/sg15_97_cif.got.tgz:193460.got - 2010.06.03 18:47:42.
