data_PCOD9305438
_publ_section_title
;
Structure prediction by ZEFSAII (Michael W. Deem and Ramdas Pophale) SiO2 
 PCOD9305438
Probable space group: C 2/C
;
_chemical_formula_sum "Si O2"
_cell_formula_units_Z 32
_cell_length_a 12.737000
_cell_length_b 7.387532
_cell_length_c 19.521593
_cell_angle_alpha 90.000000
_cell_angle_beta 41.659914
_cell_angle_gamma 90.000000
_cell_volume 1220.991289
_symmetry_space_group_name_H-M "C 2/C"
_symmetry_group_IT_number 15
_symmetry_cell_setting 'monoclinic'
loop_
_space_group_symop_operation_xyz
x,y,z
-x,y,1/2-z
-x,-y,-z
x,-y,1/2+z
1/2+x,1/2+y,z
1/2-x,1/2+y,1/2-z
1/2-x,1/2-y,-z
1/2+x,1/2-y,1/2+z
loop_
_atom_site_type_symbol
_atom_site_label
_atom_site_fract_x
_atom_site_fract_y
_atom_site_fract_z
Si Si1 0.149251 0.751041 0.797229
Si Si2 0.430620 0.419513 0.354846
Si Si3 0.382540 0.036992 0.436375
Si Si4 0.812808 0.012514 0.607958
O O1 0.459991 0.415746 0.675176
O O2 0.226454 0.834812 0.827335
O O3 0.259545 0.677571 0.682871
O O4 0.032859 0.587407 0.873030
O O5 0.500000 0.357896 0.250000
O O6 0.425243 0.247430 0.407720
O O7 0.249816 0.486221 0.441200
O O8 0.291723 0.983333 0.409832
O O9 0.000000 0.000000 0.500000
#
# Coordination Sequence:
#
# PCOD9305438 Si02
#       4
#     8   8   8   8
#     4  12  28  48  77 111 155 206 251 327 396 457
#     4  11  24  44  80 108 146 204 256 312 396 462
#     4  11  26  51  74 113 158 200 261 328 387 477
#     4  12  28  50  77 117 159 200 269 326 385 483
#
# _framework density 26.208213000000001
#
# number of rings (size 3 to 8) (size 9 to 14) (size 15 to 20)
#    0.000    0.500    2.500    4.500   10.500    0.000 
#    0.000    6.250    0.000    0.000    0.000    0.000 
#    0.000    0.000    0.000    0.000    0.000    0.000 
#
# Total GULP energy -89814.166823 kJ/mol
# GULP energy per Si atom -5613.385426 kJ/mol
# Density = 2.614856 g / cm^3
# Si number density = 26.208213 Si / 1000 Ang^3
#
#
#
# Elastic Constant Matrix: (Units=GPa)
#
#
# Indices 1 2 3 4 5 6 
#
# 1 34.7506 18.7316 41.5224 0.0000 9.4890 0.0000
# 2 18.7316 140.6845 58.0201 0.0000 -4.8088 0.0000
# 3 41.5224 58.0201 197.9500 0.0000 8.7281 0.0000
# 4 0.0000 0.0000 0.0000 60.7150 0.0000 -10.3582
# 5 9.4890 -4.8088 8.7281 0.0000 29.7150 0.0000
# 6 0.0000 0.0000 0.0000 -10.3582 0.0000 52.8205
#
#
#
# Elastic Compliance Matrix: (Units=1/GPa)
#
#
# Indices 1 2 3 4 5 6 
#
# 1 0.042644 -0.002970 -0.007551 0.000000 -0.011880 0.000000
# 2 -0.002970 0.008415 -0.001971 0.000000 0.002889 0.000000
# 3 -0.007551 -0.001971 0.007214 0.000000 -0.000027 0.000000
# 4 0.000000 0.000000 0.000000 0.017041 0.000000 0.003342
# 5 -0.011880 0.002889 -0.000027 0.000000 0.037922 0.000000
# 6 0.000000 0.000000 0.000000 0.003342 0.000000 0.019587
#
#
# Mechanical properties :
#
#
# Convention : Reuss Voigt Hill
#
# Bulk Modulus (GPa) = 30.03892 67.77037 48.90465
# Shear Modulus (GPa) = 29.60279 45.65750 37.63015
#
# Velocity S-wave (km/s) = 3.36448 4.17838 3.79333
# Velocity P-wave (km/s) = 5.15553 7.01378 6.15519
#
# Compressibility (1/GPa) = 0.03329014
#
# Stress axis : x y z
#
# Youngs Moduli (GPa) = 23.45022 118.83357 138.60984
#
# Poissons Ratio (x) = 0.35293 1.04660
# Poissons Ratio (y) = 0.06965 0.27319
# Poissons Ratio (z) = 0.17706 0.23421
#
# Static dielectric constant tensor:
#      x y z
#    x 2.127400 0.000000 -0.012000 
#    y 0.000000 2.027260 0.000000 
#    z -0.012000 0.000000 2.063050 
# 
# From -- ./inp_files/273001.got.cif
#   From: 2010.05.17/outbox.cif.g08.bks.cpg/sg15_137_cif.got.tgz:273001.got - 2010.06.03 18:47:42.
