data_PCOD9305567
_publ_section_title
;
Structure prediction by ZEFSAII (Michael W. Deem and Ramdas Pophale) SiO2 
 PCOD9305567
Probable space group: C 2/C
;
_chemical_formula_sum "Si O2"
_cell_formula_units_Z 40
_cell_length_a 15.723431
_cell_length_b 16.340188
_cell_length_c 10.016834
_cell_angle_alpha 90.000000
_cell_angle_beta 142.458149
_cell_angle_gamma 90.000000
_cell_volume 1568.176986
_symmetry_space_group_name_H-M "C 2/C"
_symmetry_group_IT_number 15
_symmetry_cell_setting 'monoclinic'
loop_
_space_group_symop_operation_xyz
x,y,z
-x,y,1/2-z
-x,-y,-z
x,-y,1/2+z
1/2+x,1/2+y,z
1/2-x,1/2+y,1/2-z
1/2-x,1/2-y,-z
1/2+x,1/2-y,1/2+z
loop_
_atom_site_type_symbol
_atom_site_label
_atom_site_fract_x
_atom_site_fract_y
_atom_site_fract_z
Si Si1 0.500000 0.567749 0.750000
Si Si2 0.651112 0.793279 0.192913
Si Si3 0.742488 0.024905 0.887283
Si Si4 0.875517 0.554708 0.502948
Si Si5 0.625272 0.719869 0.750599
Si Si6 0.500000 0.216263 0.750000
O O1 0.394065 0.508741 0.540291
O O2 0.577478 0.631255 0.745939
O O3 0.677535 0.886787 0.271106
O O4 0.793826 0.780717 0.290040
O O5 0.600865 0.743870 0.264886
O O6 0.516147 0.774227 0.932386
O O7 0.748393 0.025480 0.055809
O O8 0.645601 0.967079 0.675553
O O9 0.904003 0.650526 0.551114
O O10 0.000000 0.516778 0.750000
O O11 0.750000 0.750000 0.000000
#
# Coordination Sequence:
#
# PCOD9305567 Si02
#       6
#     4   8   8   8   8   4
#     4  12  28  48  76 120 160 204 268 332 392 474
#     4  11  25  47  75 109 157 210 257 322 392 472
#     4  11  24  45  75 110 155 206 266 323 390 463
#     4   9  20  38  67 110 144 194 256 330 379 451
#     4  12  26  49  76 114 159 206 258 323 403 469
#     4   8  22  40  66 108 144 198 256 314 380 466
#
# _framework density 25.507325000000002
#
# number of rings (size 3 to 8) (size 9 to 14) (size 15 to 20)
#    0.600    0.800    2.000    1.800    2.800    5.600 
#    0.000    5.000    0.000    0.000    0.000    0.000 
#    0.000    0.000    0.000    0.000    0.000    0.000 
#
# Total GULP energy -111361.710420 kJ/mol
# GULP energy per Si atom -5568.085521 kJ/mol
# Density = 2.544927 g / cm^3
# Si number density = 25.507325 Si / 1000 Ang^3
#
#
#
# Elastic Constant Matrix: (Units=GPa)
#
#
# Indices 1 2 3 4 5 6 
#
# 1 158.4252 29.3435 25.7682 0.0000 14.6103 0.0000
# 2 29.3435 70.3615 45.3305 0.0000 8.4462 0.0000
# 3 25.7682 45.3305 123.9857 0.0000 25.9298 0.0000
# 4 0.0000 0.0000 0.0000 43.7149 0.0000 10.7413
# 5 14.6103 8.4462 25.9298 0.0000 48.9888 0.0000
# 6 0.0000 0.0000 0.0000 10.7413 0.0000 38.2403
#
#
#
# Elastic Compliance Matrix: (Units=1/GPa)
#
#
# Indices 1 2 3 4 5 6 
#
# 1 0.006965 -0.002609 -0.000172 0.000000 -0.001536 0.000000
# 2 -0.002609 0.019577 -0.006828 0.000000 0.001017 0.000000
# 3 -0.000172 -0.006828 0.011628 0.000000 -0.004926 0.000000
# 4 0.000000 0.000000 0.000000 0.024571 0.000000 -0.006902
# 5 -0.001536 0.001017 -0.004926 0.000000 0.023303 0.000000
# 6 0.000000 0.000000 0.000000 -0.006902 0.000000 0.028089
#
#
# Mechanical properties :
#
#
# Convention : Reuss Voigt Hill
#
# Bulk Modulus (GPa) = 52.76768 61.51741 57.14255
# Shear Modulus (GPa) = 35.79858 43.01082 39.40470
#
# Velocity S-wave (km/s) = 3.75035 4.11081 3.93471
# Velocity P-wave (km/s) = 6.28376 6.83385 6.56457
#
# Compressibility (1/GPa) = 0.01895099
#
# Stress axis : x y z
#
# Youngs Moduli (GPa) = 143.57253 51.07917 86.00009
#
# Poissons Ratio (x) = 0.13328 0.01482
# Poissons Ratio (y) = 0.37463 0.58722
# Poissons Ratio (z) = 0.02474 0.34877
#
# Static dielectric constant tensor:
#      x y z
#    x 2.553760 0.000000 0.150860 
#    y 0.000000 1.953280 0.000000 
#    z 0.150860 0.000000 2.145660 
# 
# From -- ./inp_files/106913.got.cif
#   From: 2010.05.17/outbox.cif.g08.bks.cpg/sg15_54_cif.got.tgz:106913.got - 2010.06.03 18:47:42.
