data_PCOD9305641
_publ_section_title
;
Structure prediction by ZEFSAII (Michael W. Deem and Ramdas Pophale) SiO2 
 PCOD9305641
Probable space group: C 2/C
;
_chemical_formula_sum "Si O2"
_cell_formula_units_Z 48
_cell_length_a 11.836504
_cell_length_b 15.430101
_cell_length_c 21.066622
_cell_angle_alpha 90.000000
_cell_angle_beta 39.545477
_cell_angle_gamma 90.000000
_cell_volume 2449.714509
_symmetry_space_group_name_H-M "C 2/C"
_symmetry_group_IT_number 15
_symmetry_cell_setting 'monoclinic'
loop_
_space_group_symop_operation_xyz
x,y,z
-x,y,1/2-z
-x,-y,-z
x,-y,1/2+z
1/2+x,1/2+y,z
1/2-x,1/2+y,1/2-z
1/2-x,1/2-y,-z
1/2+x,1/2-y,1/2+z
loop_
_atom_site_type_symbol
_atom_site_label
_atom_site_fract_x
_atom_site_fract_y
_atom_site_fract_z
Si Si1 0.000000 0.951780 0.750000
Si Si2 0.597188 0.623554 0.420744
Si Si3 0.500000 0.159160 0.750000
Si Si4 0.411429 0.772417 0.975881
Si Si5 0.765258 0.478132 0.427401
Si Si6 0.329402 0.958649 0.040540
Si Si7 0.297330 0.305812 0.758404
O O1 0.884347 0.888777 0.755354
O O2 0.855904 0.007263 0.850900
O O3 0.547593 0.690924 0.497412
O O4 0.737892 0.556047 0.389141
O O5 0.426235 0.566030 0.476987
O O6 0.663554 0.678516 0.332261
O O7 0.616375 0.096478 0.655226
O O8 0.388200 0.222191 0.751896
O O9 0.589096 0.798764 0.861958
O O10 0.250000 0.750000 0.000000
O O11 0.348476 0.856271 0.041646
O O12 0.833978 0.516259 0.464012
O O13 0.500000 0.000000 0.000000
#
# Coordination Sequence:
#
# PCOD9305641 Si02
#       7
#     4   8   4   8   8   8   8
#     4  11  24  46  71 104 138 186 237 284 354 419
#     4  11  25  47  72  99 145 181 227 290 353 415
#     4  11  26  42  75 106 128 184 245 274 346 425
#     4  12  26  47  66 106 144 177 233 292 364 411
#     4  11  25  46  71 104 139 184 230 287 345 425
#     4  12  26  45  72 104 143 185 232 294 348 427
#     4  11  25  45  73 101 139 184 232 292 348 418
#
# _framework density 19.594121000000001
#
# number of rings (size 3 to 8) (size 9 to 14) (size 15 to 20)
#    0.000    0.667    6.667    0.000    4.667    2.667 
#    0.000    0.000    0.000    0.000    0.000    0.000 
#    0.000    0.000    0.000    0.000    0.000    0.000 
#
# Total GULP energy -134159.137327 kJ/mol
# GULP energy per Si atom -5589.964055 kJ/mol
# Density = 1.954952 g / cm^3
# Si number density = 19.594121 Si / 1000 Ang^3
#
#
#
# Elastic Constant Matrix: (Units=GPa)
#
#
# Indices 1 2 3 4 5 6 
#
# 1 110.8351 22.8223 31.7556 0.0000 -8.1479 0.0000
# 2 22.8223 99.1633 17.5571 0.0000 -8.0755 0.0000
# 3 31.7556 17.5571 103.5944 0.0002 -9.2391 -0.0001
# 4 0.0000 0.0000 0.0002 39.7175 -0.0001 2.7889
# 5 -8.1479 -8.0755 -9.2391 -0.0001 32.4386 0.0000
# 6 0.0000 0.0000 -0.0001 2.7889 0.0000 26.4672
#
#
#
# Elastic Compliance Matrix: (Units=1/GPa)
#
#
# Indices 1 2 3 4 5 6 
#
# 1 0.010268 -0.001770 -0.002726 0.000000 0.001362 0.000000
# 2 -0.001770 0.010848 -0.001123 0.000000 0.001936 0.000000
# 3 -0.002726 -0.001123 0.010869 0.000000 0.002131 0.000000
# 4 0.000000 0.000000 0.000000 0.025365 0.000000 -0.002673
# 5 0.001362 0.001936 0.002131 0.000000 0.032259 0.000000
# 6 0.000000 0.000000 0.000000 -0.002673 0.000000 0.038064
#
#
# Mechanical properties :
#
#
# Convention : Reuss Voigt Hill
#
# Bulk Modulus (GPa) = 48.19948 50.87364 49.53656
# Shear Modulus (GPa) = 34.28702 35.82185 35.05443
#
# Velocity S-wave (km/s) = 4.18767 4.28038 4.23428
# Velocity P-wave (km/s) = 6.93069 7.10274 7.01724
#
# Compressibility (1/GPa) = 0.02074711
#
# Stress axis : x y z
#
# Youngs Moduli (GPa) = 97.38996 92.18102 92.00335
#
# Poissons Ratio (x) = 0.16312 0.25081
# Poissons Ratio (y) = 0.17234 0.10336
# Poissons Ratio (z) = 0.26550 0.10356
#
# Static dielectric constant tensor:
#      x y z
#    x 1.659640 0.000000 0.004890 
#    y 0.000000 1.639000 0.000000 
#    z 0.004890 0.000000 1.671180 
# 
# From -- ./inp_files/143494.got.cif
#   From: 2010.05.17/outbox.cif.g08.bks.cpg/sg15_72_cif.got.tgz:143494.got - 2010.06.03 18:47:42.
