data_PCOD9305042
_publ_section_title
;
Structure prediction by ZEFSAII (Michael W. Deem and Ramdas Pophale) SiO2 
 PCOD9305042
Probable space group: C 2/C
;
_chemical_formula_sum "Si O2"
_cell_formula_units_Z 48
_cell_length_a 20.495991
_cell_length_b 11.949842
_cell_length_c 14.674010
_cell_angle_alpha 90.000000
_cell_angle_beta 140.805026
_cell_angle_gamma 90.000000
_cell_volume 2271.278523
_symmetry_space_group_name_H-M "C 2/C"
_symmetry_group_IT_number 15
_symmetry_cell_setting 'monoclinic'
loop_
_space_group_symop_operation_xyz
x,y,z
-x,y,1/2-z
-x,-y,-z
x,-y,1/2+z
1/2+x,1/2+y,z
1/2-x,1/2+y,1/2-z
1/2-x,1/2-y,-z
1/2+x,1/2-y,1/2+z
loop_
_atom_site_type_symbol
_atom_site_label
_atom_site_fract_x
_atom_site_fract_y
_atom_site_fract_z
Si Si1 0.714832 0.507707 0.166196
Si Si2 0.500000 0.960744 0.250000
Si Si3 0.848585 0.055430 0.718349
Si Si4 0.000000 0.836957 0.250000
Si Si5 0.081229 0.553569 0.522709
Si Si6 0.228711 0.620166 0.956329
Si Si7 0.824106 0.746579 0.946684
O O1 0.632805 0.475719 0.155477
O O2 0.815178 0.510034 0.339234
O O3 0.733472 0.421102 0.103302
O O4 0.705458 0.629517 0.113306
O O5 0.395600 0.897423 0.169336
O O6 0.540845 0.032337 0.378381
O O7 0.770844 0.163647 0.635358
O O8 0.954448 0.087880 0.782146
O O9 0.790618 0.959929 0.595085
O O10 0.096547 0.763227 0.385308
O O11 0.110509 0.683576 0.561297
O O12 0.000000 0.500000 0.500000
O O13 0.250000 0.750000 0.000000
#
# Coordination Sequence:
#
# PCOD9305042 Si02
#       7
#     8   4   8   4   8   8   8
#     4  11  25  46  72 104 149 188 238 298 367 424
#     4  12  23  45  74 100 136 193 243 290 352 440
#     4  11  27  46  71 108 144 189 242 297 368 429
#     4  12  25  45  76 102 142 187 235 308 362 426
#     4  11  24  41  71 105 139 183 244 283 359 432
#     4  12  27  48  70 105 153 190 240 303 363 439
#     4  11  25  44  73 104 143 181 241 302 351 429
#
# _framework density 21.133472999999999
#
# number of rings (size 3 to 8) (size 9 to 14) (size 15 to 20)
#    0.000    0.667    6.667    1.000    7.000    1.333 
#    0.000    0.000    0.000    0.000    0.000    0.000 
#    0.000    0.000    0.000    0.000    0.000    0.000 
#
# Total GULP energy -133894.762929 kJ/mol
# GULP energy per Si atom -5578.948455 kJ/mol
# Density = 2.108537 g / cm^3
# Si number density = 21.133473 Si / 1000 Ang^3
#
#
#
# Elastic Constant Matrix: (Units=GPa)
#
#
# Indices 1 2 3 4 5 6 
#
# 1 155.2602 59.6945 14.4307 0.0000 -21.0825 0.0000
# 2 59.6945 153.8159 45.3159 0.0000 -9.6524 0.0000
# 3 14.4307 45.3159 80.3084 0.0000 -24.4448 0.0000
# 4 0.0000 0.0000 0.0000 20.1710 0.0000 -11.6339
# 5 -21.0825 -9.6524 -24.4448 0.0000 35.0849 0.0000
# 6 0.0000 0.0000 0.0000 -11.6339 0.0000 13.8515
#
#
#
# Elastic Compliance Matrix: (Units=1/GPa)
#
#
# Indices 1 2 3 4 5 6 
#
# 1 0.008354 -0.003538 0.002192 0.000000 0.005574 0.000000
# 2 -0.003538 0.009334 -0.005707 0.000000 -0.003534 0.000000
# 3 0.002192 -0.005707 0.019293 0.000000 0.013189 0.000000
# 4 0.000000 0.000000 0.000000 0.096157 0.000000 0.080762
# 5 0.005574 -0.003534 0.013189 0.000000 0.040069 0.000000
# 6 0.000000 0.000000 0.000000 0.080762 0.000000 0.140027
#
#
# Mechanical properties :
#
#
# Convention : Reuss Voigt Hill
#
# Bulk Modulus (GPa) = 43.71618 69.80741 56.76180
# Shear Modulus (GPa) = 14.92694 31.81771 23.37233
#
# Velocity S-wave (km/s) = 2.66055 3.88436 3.32917
# Velocity P-wave (km/s) = 5.49260 7.29528 6.45716
#
# Compressibility (1/GPa) = 0.02287482
#
# Stress axis : x y z
#
# Youngs Moduli (GPa) = 119.69860 107.13555 51.83227
#
# Poissons Ratio (x) = 0.37907 -0.11361
# Poissons Ratio (y) = 0.42352 0.29580
# Poissons Ratio (z) = -0.26237 0.61142
#
# Static dielectric constant tensor:
#      x y z
#    x 2.023340 0.000000 0.027920 
#    y 0.000000 1.789300 0.000000 
#    z 0.027920 0.000000 1.774640 
# 
# From -- ./inp_files/167959.got.cif
#   From: 2010.05.17/outbox.cif.g08.bks.cpg/sg15_84_cif.got.tgz:167959.got - 2010.06.03 18:47:42.
