data_PCOD9305693
_publ_section_title
;
Structure prediction by ZEFSAII (Michael W. Deem and Ramdas Pophale) SiO2 
 PCOD9305693
Probable space group: C 2/C
;
_chemical_formula_sum "Si O2"
_cell_formula_units_Z 32
_cell_length_a 11.085861
_cell_length_b 19.454624
_cell_length_c 8.163236
_cell_angle_alpha 90.000000
_cell_angle_beta 128.737246
_cell_angle_gamma 90.000000
_cell_volume 1373.290682
_symmetry_space_group_name_H-M "C 2/C"
_symmetry_group_IT_number 15
_symmetry_cell_setting 'monoclinic'
loop_
_space_group_symop_operation_xyz
x,y,z
-x,y,1/2-z
-x,-y,-z
x,-y,1/2+z
1/2+x,1/2+y,z
1/2-x,1/2+y,1/2-z
1/2-x,1/2-y,-z
1/2+x,1/2-y,1/2+z
loop_
_atom_site_type_symbol
_atom_site_label
_atom_site_fract_x
_atom_site_fract_y
_atom_site_fract_z
Si Si1 0.180667 0.094790 0.434825
Si Si2 0.668480 0.551785 0.806888
Si Si3 0.402266 0.781604 0.005851
Si Si4 0.711877 0.807969 0.096397
O O1 0.182446 0.072133 0.627448
O O2 0.287930 0.156591 0.460748
O O3 0.000000 0.108815 0.250000
O O4 0.230504 0.024697 0.383853
O O5 0.500000 0.549897 0.750000
O O6 0.747845 0.619006 0.948518
O O7 0.500000 0.760763 0.250000
O O8 0.534759 0.808125 0.997807
O O9 0.314931 0.719191 0.839744
O O10 0.750000 0.750000 0.000000
#
# Coordination Sequence:
#
# PCOD9305693 Si02
#       4
#     8   8   8   8
#     4  11  26  46  77 106 146 197 248 304 368 447
#     4  11  24  46  74 106 147 193 248 298 372 433
#     4  12  27  49  74 109 146 195 242 308 375 436
#     4  12  28  48  75 109 148 195 247 308 369 446
#
# _framework density 23.301694999999999
#
# number of rings (size 3 to 8) (size 9 to 14) (size 15 to 20)
#    0.000    0.500    2.500    6.000   10.500    1.000 
#    0.000    0.000    0.000    0.000    0.000    0.000 
#    0.000    0.000    0.000    0.000    0.000    0.000 
#
# Total GULP energy -89438.141693 kJ/mol
# GULP energy per Si atom -5589.883856 kJ/mol
# Density = 2.324866 g / cm^3
# Si number density = 23.301695 Si / 1000 Ang^3
#
#
#
# Elastic Constant Matrix: (Units=GPa)
#
#
# Indices 1 2 3 4 5 6 
#
# 1 108.1829 50.5323 22.6153 0.0000 2.6919 0.0000
# 2 50.5323 193.9691 38.6722 0.0000 9.7130 0.0000
# 3 22.6153 38.6722 66.7127 0.0000 -2.9066 0.0000
# 4 0.0000 0.0000 0.0000 24.2208 0.0000 13.9058
# 5 2.6919 9.7130 -2.9066 0.0000 37.1151 0.0000
# 6 0.0000 0.0000 0.0000 13.9058 0.0000 6.0386
#
#
#
# Elastic Compliance Matrix: (Units=1/GPa)
#
#
# Indices 1 2 3 4 5 6 
#
# 1 0.010833 -0.002339 -0.002332 0.000000 -0.000356 0.000000
# 2 -0.002339 0.006456 -0.003026 0.000000 -0.001757 0.000000
# 3 -0.002332 -0.003026 0.017636 0.000000 0.002342 0.000000
# 4 0.000000 0.000000 0.000000 -0.128180 0.000000 0.295174
# 5 -0.000356 -0.001757 0.002342 0.000000 0.027612 0.000000
# 6 0.000000 0.000000 0.000000 0.295174 0.000000 -0.514126
#
#
# Mechanical properties :
#
#
# Convention : Reuss Voigt Hill
#
# Bulk Modulus (GPa) = 51.20079 65.83381 58.51730
# Shear Modulus (GPa) = -8.96275 30.61124 10.82425
#
# Velocity S-wave (km/s) = -1.96335 3.62842 2.15763
# Velocity P-wave (km/s) = 4.10865 6.77260 5.60130
#
# Compressibility (1/GPa) = 0.01953095
#
# Stress axis : x y z
#
# Youngs Moduli (GPa) = 92.31384 154.88995 56.70144
#
# Poissons Ratio (x) = 0.36235 0.13221
# Poissons Ratio (y) = 0.21596 0.17158
# Poissons Ratio (z) = 0.21524 0.46870
#
# Static dielectric constant tensor:
#      x y z
#    x 1.850830 0.000000 -0.067050 
#    y 0.000000 1.933120 0.000000 
#    z -0.067050 0.000000 2.037370 
# 
# From -- ./inp_files/30636.got.cif
#   From: 2010.05.17/outbox.cif.g08.bks.cpg/sg15_16_cif.got.tgz:30636.got - 2010.06.03 18:47:42.
