data_PCOD9305885
_publ_section_title
;
Structure prediction by ZEFSAII (Michael W. Deem and Ramdas Pophale) SiO2 
 PCOD9305885
Probable space group: C 2/C
;
_chemical_formula_sum "Si O2"
_cell_formula_units_Z 64
_cell_length_a 14.291551
_cell_length_b 11.630130
_cell_length_c 25.060795
_cell_angle_alpha 90.000000
_cell_angle_beta 46.690852
_cell_angle_gamma 90.000000
_cell_volume 3031.022901
_symmetry_space_group_name_H-M "C 2/C"
_symmetry_group_IT_number 15
_symmetry_cell_setting 'monoclinic'
loop_
_space_group_symop_operation_xyz
x,y,z
-x,y,1/2-z
-x,-y,-z
x,-y,1/2+z
1/2+x,1/2+y,z
1/2-x,1/2+y,1/2-z
1/2-x,1/2-y,-z
1/2+x,1/2-y,1/2+z
loop_
_atom_site_type_symbol
_atom_site_label
_atom_site_fract_x
_atom_site_fract_y
_atom_site_fract_z
Si Si1 0.318321 0.591932 0.062356
Si Si2 0.183808 0.571226 0.396815
Si Si3 0.936950 0.673855 0.551204
Si Si4 0.165065 0.732950 0.307146
Si Si5 0.061297 0.314314 0.332201
Si Si6 0.545690 0.464951 0.395749
Si Si7 0.458607 0.594072 0.324978
Si Si8 0.981739 0.560705 0.320244
O O1 0.358615 0.724554 0.054255
O O2 0.354620 0.528713 0.103836
O O3 0.168727 0.578085 0.108717
O O4 0.411298 0.540071 0.980581
O O5 0.149763 0.437856 0.403476
O O6 0.214057 0.637914 0.330347
O O7 0.305459 0.580872 0.387630
O O8 0.057163 0.632335 0.469560
O O9 0.985854 0.714190 0.589859
O O10 0.287591 0.785810 0.229497
O O11 0.065503 0.667577 0.308175
O O12 0.095936 0.836964 0.364798
O O13 0.993245 0.227777 0.318120
O O14 0.031258 0.444902 0.329103
O O15 0.526918 0.527716 0.346638
O O16 0.500000 0.552108 0.250000
O O17 0.000000 0.548375 0.250000
#
# Coordination Sequence:
#
# PCOD9305885 Si02
#       8
#     8   8   8   8   8   8   8   8
#     4  11  25  48  73 104 141 187 239 288 355 415
#     4  11  26  46  72 106 142 182 236 288 356 416
#     4  11  24  48  73 101 143 187 228 297 352 415
#     4  12  26  47  69 102 143 184 230 292 350 418
#     4  12  26  45  72 100 143 182 233 292 348 420
#     4  11  27  45  72 103 146 185 233 296 347 418
#     4  12  27  43  71 105 139 189 234 292 350 420
#     4  12  28  45  71 105 136 188 235 287 352 426
#
# _framework density 21.114984
#
# number of rings (size 3 to 8) (size 9 to 14) (size 15 to 20)
#    0.000    0.500    5.000    1.875    8.750    1.500 
#    0.000    0.000    0.000    0.000    0.000    0.000 
#    0.000    0.000    0.000    0.000    0.000    0.000 
#
# Total GULP energy -179128.626391 kJ/mol
# GULP energy per Si atom -5597.769575 kJ/mol
# Density = 2.106693 g / cm^3
# Si number density = 21.114984 Si / 1000 Ang^3
#
#
#
# Elastic Constant Matrix: (Units=GPa)
#
#
# Indices 1 2 3 4 5 6 
#
# 1 94.9196 47.7418 27.3691 0.0000 -10.4142 0.0000
# 2 47.7418 118.4111 35.9971 0.0000 -10.4908 0.0000
# 3 27.3691 35.9971 55.8776 0.0000 -1.1502 0.0000
# 4 0.0000 0.0000 0.0000 30.3378 0.0000 1.4461
# 5 -10.4142 -10.4908 -1.1502 0.0000 38.5160 0.0000
# 6 0.0000 0.0000 0.0000 1.4461 0.0000 25.4374
#
#
#
# Elastic Compliance Matrix: (Units=1/GPa)
#
#
# Indices 1 2 3 4 5 6 
#
# 1 0.014130 -0.004207 -0.004158 0.000000 0.002551 0.000000
# 2 -0.004207 0.012034 -0.005651 0.000000 0.001971 0.000000
# 3 -0.004158 -0.005651 0.023533 0.000000 -0.001961 0.000000
# 4 0.000000 0.000000 0.000000 0.033052 0.000000 -0.001879
# 5 0.002551 0.001971 -0.001961 0.000000 0.027131 0.000000
# 6 0.000000 0.000000 0.000000 -0.001879 0.000000 0.039419
#
#
# Mechanical properties :
#
#
# Convention : Reuss Voigt Hill
#
# Bulk Modulus (GPa) = 46.15896 54.60270 50.38083
# Shear Modulus (GPa) = 27.09236 29.39827 28.24532
#
# Velocity S-wave (km/s) = 3.58591 3.73539 3.66141
# Velocity P-wave (km/s) = 6.24925 6.67234 6.46426
#
# Compressibility (1/GPa) = 0.02166427
#
# Stress axis : x y z
#
# Youngs Moduli (GPa) = 70.77122 83.09774 42.49300
#
# Poissons Ratio (x) = 0.34959 0.17670
# Poissons Ratio (y) = 0.29773 0.24014
# Poissons Ratio (z) = 0.29429 0.46961
#
# Static dielectric constant tensor:
#      x y z
#    x 1.733750 0.000000 0.005450 
#    y 0.000000 1.736730 0.000000 
#    z 0.005450 0.000000 1.758070 
# 
# From -- ./inp_files/296116.got.cif
#   From: 2010.05.17/outbox.cif.g08.bks.cpg/sg15_149_cif.got.tgz:296116.got - 2010.06.03 18:47:42.
