data_PCOD9305258
_publ_section_title
;
Structure prediction by ZEFSAII (Michael W. Deem and Ramdas Pophale) SiO2 
 PCOD9305258
Probable space group: C 2/C
;
_chemical_formula_sum "Si O2"
_cell_formula_units_Z 48
_cell_length_a 21.174213
_cell_length_b 5.432581
_cell_length_c 20.642645
_cell_angle_alpha 90.000000
_cell_angle_beta 126.083040
_cell_angle_gamma 90.000000
_cell_volume 1919.015443
_symmetry_space_group_name_H-M "C 2/C"
_symmetry_group_IT_number 15
_symmetry_cell_setting 'monoclinic'
loop_
_space_group_symop_operation_xyz
x,y,z
-x,y,1/2-z
-x,-y,-z
x,-y,1/2+z
1/2+x,1/2+y,z
1/2-x,1/2+y,1/2-z
1/2-x,1/2-y,-z
1/2+x,1/2-y,1/2+z
loop_
_atom_site_type_symbol
_atom_site_label
_atom_site_fract_x
_atom_site_fract_y
_atom_site_fract_z
Si Si1 0.683271 0.950957 0.453715
Si Si2 0.919971 0.758475 0.039705
Si Si3 0.084578 0.927017 0.831473
Si Si4 0.147463 0.064063 0.127643
Si Si5 0.311484 0.779478 0.671014
Si Si6 0.592568 0.065140 0.158938
O O1 0.750000 0.750000 0.500000
O O2 0.607148 0.831410 0.375041
O O3 0.650487 0.060392 0.500157
O O4 0.710786 0.134050 0.414645
O O5 0.003591 0.630368 0.087710
O O6 0.915246 0.895349 0.105681
O O7 0.901046 0.936097 0.968893
O O8 0.000000 0.934473 0.750000
O O9 0.151935 0.010761 0.821420
O O10 0.236007 0.150557 0.167200
O O11 0.111337 0.290759 0.146540
O O12 0.140389 0.795314 0.155560
O O13 0.383534 0.913356 0.751248
#
# Coordination Sequence:
#
# PCOD9305258 Si02
#       6
#     8   8   8   8   8   8
#     4  11  26  44  77 106 145 192 243 319 373 437
#     4  11  26  46  72 107 147 187 253 303 376 435
#     4  11  24  43  76 105 142 189 242 318 372 436
#     4  12  28  47  74 105 152 196 247 296 365 440
#     4  11  26  46  72 106 148 188 252 298 374 434
#     4  12  28  47  74 109 145 204 241 301 360 447
#
# _framework density 25.012826
#
# number of rings (size 3 to 8) (size 9 to 14) (size 15 to 20)
#    0.000    0.667    1.667    4.000   14.000    2.667 
#    0.000    0.000    0.000    0.000    0.000    0.000 
#    0.000    0.000    0.000    0.000    0.000    0.000 
#
# Total GULP energy -134323.077623 kJ/mol
# GULP energy per Si atom -5596.794901 kJ/mol
# Density = 2.495590 g / cm^3
# Si number density = 25.012826 Si / 1000 Ang^3
#
#
#
# Elastic Constant Matrix: (Units=GPa)
#
#
# Indices 1 2 3 4 5 6 
#
# 1 75.7135 20.1607 5.1849 0.0002 17.5481 -0.0002
# 2 20.1607 65.7228 9.2196 0.0002 -2.8344 -0.0003
# 3 5.1849 9.2196 118.8058 0.0002 8.3969 0.0000
# 4 0.0002 0.0002 0.0002 48.4923 0.0000 -5.0997
# 5 17.5481 -2.8344 8.3969 0.0000 36.9028 0.0000
# 6 -0.0002 -0.0003 0.0000 -5.0997 0.0000 18.8063
#
#
#
# Elastic Compliance Matrix: (Units=1/GPa)
#
#
# Indices 1 2 3 4 5 6 
#
# 1 0.016592 -0.005492 0.000294 0.000000 -0.008379 0.000000
# 2 -0.005492 0.017281 -0.001402 0.000000 0.004258 0.000000
# 3 0.000294 -0.001402 0.008670 0.000000 -0.002220 0.000000
# 4 0.000000 0.000000 0.000000 0.021227 0.000000 0.005756
# 5 -0.008379 0.004258 -0.002220 0.000000 0.031915 0.000000
# 6 0.000000 0.000000 0.000000 0.005756 0.000000 0.054735
#
#
# Mechanical properties :
#
#
# Convention : Reuss Voigt Hill
#
# Bulk Modulus (GPa) = 34.08082 36.59693 35.33887
# Shear Modulus (GPa) = 28.83508 35.88542 32.36025
#
# Velocity S-wave (km/s) = 3.39899 3.79183 3.60077
# Velocity P-wave (km/s) = 5.39065 5.81667 5.60771
#
# Compressibility (1/GPa) = 0.02934202
#
# Stress axis : x y z
#
# Youngs Moduli (GPa) = 60.27036 57.86861 115.34017
#
# Poissons Ratio (x) = 0.31783 -0.03394
# Poissons Ratio (y) = 0.33102 0.16174
# Poissons Ratio (z) = -0.01774 0.08115
#
# Static dielectric constant tensor:
#      x y z
#    x 2.012380 0.000000 -0.024580 
#    y 0.000000 2.017860 0.000000 
#    z -0.024580 0.000000 1.962350 
# 
# From -- ./inp_files/254454.got.cif
#   From: 2010.05.17/outbox.cif.g08.bks.cpg/sg15_128_cif.got.tgz:254454.got - 2010.06.03 18:47:42.
