data_PCOD9305394
_publ_section_title
;
Structure prediction by ZEFSAII (Michael W. Deem and Ramdas Pophale) SiO2 
 PCOD9305394
Probable space group: C 2/C
;
_chemical_formula_sum "Si O2"
_cell_formula_units_Z 56
_cell_length_a 10.225501
_cell_length_b 26.771420
_cell_length_c 9.257506
_cell_angle_alpha 90.000000
_cell_angle_beta 68.108389
_cell_angle_gamma 90.000000
_cell_volume 2351.510378
_symmetry_space_group_name_H-M "C 2/C"
_symmetry_group_IT_number 15
_symmetry_cell_setting 'monoclinic'
loop_
_space_group_symop_operation_xyz
x,y,z
-x,y,1/2-z
-x,-y,-z
x,-y,1/2+z
1/2+x,1/2+y,z
1/2-x,1/2+y,1/2-z
1/2-x,1/2-y,-z
1/2+x,1/2-y,1/2+z
loop_
_atom_site_type_symbol
_atom_site_label
_atom_site_fract_x
_atom_site_fract_y
_atom_site_fract_z
Si Si1 0.273125 0.785391 0.129653
Si Si2 0.151558 0.833989 0.451877
Si Si3 0.500000 0.021959 0.750000
Si Si4 0.617830 0.565189 0.823410
Si Si5 0.147493 0.598692 0.482537
Si Si6 0.000000 0.765657 0.750000
Si Si7 0.255056 0.538668 0.208413
Si Si8 0.838445 0.394399 0.016227
O O1 0.158932 0.801145 0.301727
O O2 0.399157 0.765576 0.182275
O O3 0.250000 0.750000 0.000000
O O4 0.296579 0.837413 0.039016
O O5 0.082896 0.888528 0.444316
O O6 0.303678 0.852667 0.450203
O O7 0.085992 0.801459 0.605818
O O8 0.597627 0.055688 0.610747
O O9 0.396500 0.987475 0.700502
O O10 0.500000 0.565166 0.750000
O O11 0.640595 0.507564 0.860039
O O12 0.765258 0.582458 0.688567
O O13 0.273733 0.575785 0.334812
O O14 0.007409 0.607601 0.447543
O O15 0.227786 0.572636 0.081822
#
# Coordination Sequence:
#
# PCOD9305394 Si02
#       8
#     8   8   4   8   8   4   8   8
#     4  11  27  51  79 109 147 203 260 330 402 462
#     4  11  27  48  78 113 150 201 258 322 392 473
#     4  12  18  37  64 102 142 188 239 304 370 440
#     4  11  26  44  68 102 158 206 246 299 383 472
#     4  12  22  41  72 104 147 188 249 322 378 447
#     4  12  28  53  80 112 160 198 263 336 406 470
#     4  12  23  40  68 110 142 197 249 307 378 464
#     4  11  24  44  73 104 144 187 259 320 377 455
#
# _framework density 23.814482999999999
#
# number of rings (size 3 to 8) (size 9 to 14) (size 15 to 20)
#    0.000    0.571    4.286    3.429    6.000    0.571 
#    3.857    0.000    0.000    0.000    0.000    0.000 
#    0.000    0.000    0.000    0.000    0.000    0.000 
#
# Total GULP energy -156356.234379 kJ/mol
# GULP energy per Si atom -5584.151228 kJ/mol
# Density = 2.376028 g / cm^3
# Si number density = 23.814483 Si / 1000 Ang^3
#
#
#
# Elastic Constant Matrix: (Units=GPa)
#
#
# Indices 1 2 3 4 5 6 
#
# 1 76.5797 40.0087 15.8355 0.0000 22.2884 0.0000
# 2 40.0087 160.3784 68.6044 0.0000 19.6853 0.0000
# 3 15.8355 68.6044 78.4785 0.0000 13.2107 0.0000
# 4 0.0000 0.0000 0.0000 -16.3060 0.0000 17.8864
# 5 22.2884 19.6853 13.2107 0.0000 39.2407 0.0000
# 6 0.0000 0.0000 0.0000 17.8864 0.0000 30.8254
#
#
#
# Elastic Compliance Matrix: (Units=1/GPa)
#
#
# Indices 1 2 3 4 5 6 
#
# 1 0.017200 -0.003811 0.001255 0.000000 -0.008280 0.000000
# 2 -0.003811 0.010985 -0.008767 0.000000 -0.000394 0.000000
# 3 0.001255 -0.008767 0.020706 0.000000 -0.003286 0.000000
# 4 0.000000 0.000000 0.000000 -0.037475 0.000000 0.021745
# 5 -0.008280 -0.000394 -0.003286 0.000000 0.031491 0.000000
# 6 0.000000 0.000000 0.000000 0.021745 0.000000 0.019823
#
#
# Mechanical properties :
#
#
# Convention : Reuss Voigt Hill
#
# Bulk Modulus (GPa) = 38.10431 62.70376 50.40404
# Shear Modulus (GPa) = 53.12074 23.48454 38.30264
#
# Velocity S-wave (km/s) = 4.72805 3.14370 4.01481
# Velocity P-wave (km/s) = 6.77061 6.29002 6.53474
#
# Compressibility (1/GPa) = 0.02624375
#
# Stress axis : x y z
#
# Youngs Moduli (GPa) = 58.14021 91.03534 48.29431
#
# Poissons Ratio (x) = 0.34696 -0.06061
# Poissons Ratio (y) = 0.22159 0.42341
# Poissons Ratio (z) = -0.07296 0.79813
#
# Static dielectric constant tensor:
#      x y z
#    x 2.006780 0.000000 0.005400 
#    y 0.000000 1.917910 0.000000 
#    z 0.005400 0.000000 1.941100 
# 
# From -- ./inp_files/34236.got.cif
#   From: 2010.05.17/outbox.cif.g08.bks.cpg/sg15_18_cif.got.tgz:34236.got - 2010.06.03 18:47:42.
