data_PCOD9305064
_publ_section_title
;
Structure prediction by ZEFSAII (Michael W. Deem and Ramdas Pophale) SiO2 
 PCOD9305064
Probable space group: C 2/C
;
_chemical_formula_sum "Si O2"
_cell_formula_units_Z 60
_cell_length_a 6.108375
_cell_length_b 16.679394
_cell_length_c 26.907510
_cell_angle_alpha 90.000000
_cell_angle_beta 83.690160
_cell_angle_gamma 90.000000
_cell_volume 2724.837158
_symmetry_space_group_name_H-M "C 2/C"
_symmetry_group_IT_number 15
_symmetry_cell_setting 'monoclinic'
loop_
_space_group_symop_operation_xyz
x,y,z
-x,y,1/2-z
-x,-y,-z
x,-y,1/2+z
1/2+x,1/2+y,z
1/2-x,1/2+y,1/2-z
1/2-x,1/2-y,-z
1/2+x,1/2-y,1/2+z
loop_
_atom_site_type_symbol
_atom_site_label
_atom_site_fract_x
_atom_site_fract_y
_atom_site_fract_z
Si Si1 0.500000 0.324657 0.750000
Si Si2 0.891819 0.823947 0.118462
Si Si3 0.295760 0.860997 0.046759
Si Si4 0.614758 0.435848 0.960389
Si Si5 0.907691 0.424537 0.700039
Si Si6 0.923126 0.462776 0.384147
Si Si7 0.640521 0.761169 0.696832
Si Si8 0.123619 0.221687 0.052872
O O1 0.678715 0.381455 0.719041
O O2 0.387059 0.269676 0.710704
O O3 0.713762 0.890554 0.137760
O O4 0.761850 0.749676 0.097214
O O5 0.044326 0.859484 0.071062
O O6 0.060967 0.798929 0.157017
O O7 0.436943 0.923510 0.075025
O O8 0.401623 0.774865 0.055433
O O9 0.289895 0.886817 0.989851
O O10 0.744002 0.478228 0.912917
O O11 0.436595 0.371176 0.946548
O O12 0.500000 0.500000 0.000000
O O13 0.000000 0.457930 0.750000
O O14 0.920296 0.490523 0.657583
O O15 0.068894 0.350570 0.681995
O O16 0.500000 0.744081 0.750000
O O17 0.250000 0.250000 0.000000
#
# Coordination Sequence:
#
# PCOD9305064 Si02
#       8
#     4   8   8   8   8   8   8   8
#     4   8  18  42  72 104 130 170 228 292 344 394
#     4  11  24  45  65 104 136 179 236 273 339 410
#     4  11  24  42  64  96 141 179 228 280 326 411
#     4  12  23  45  67  97 140 182 224 284 336 395
#     4   9  21  43  70 102 134 170 227 283 343 415
#     4  11  25  43  67 103 138 180 224 278 352 401
#     4   9  21  42  70  99 132 172 229 283 339 410
#     4  11  24  43  69  94 135 184 228 279 330 395
#
# _framework density 22.019663000000001
#
# number of rings (size 3 to 8) (size 9 to 14) (size 15 to 20)
#    0.000    1.867    2.667    1.600    1.867    7.467 
#    7.200    0.000    0.000    0.000    0.000    0.000 
#    0.000    0.000    0.000    0.000    0.000    0.000 
#
# Total GULP energy -167729.256204 kJ/mol
# GULP energy per Si atom -5590.975207 kJ/mol
# Density = 2.196955 g / cm^3
# Si number density = 22.019663 Si / 1000 Ang^3
#
#
#
# Elastic Constant Matrix: (Units=GPa)
#
#
# Indices 1 2 3 4 5 6 
#
# 1 88.9668 34.0280 26.3812 0.0000 24.3554 0.0000
# 2 34.0280 96.7429 47.6764 0.0000 12.8203 0.0000
# 3 26.3812 47.6764 81.4258 0.0000 15.6143 0.0000
# 4 0.0000 0.0000 0.0000 18.5115 0.0000 1.1139
# 5 24.3554 12.8203 15.6143 0.0000 28.6225 0.0000
# 6 0.0000 0.0000 0.0000 1.1139 0.0000 25.9996
#
#
#
# Elastic Compliance Matrix: (Units=1/GPa)
#
#
# Indices 1 2 3 4 5 6 
#
# 1 0.016069 -0.003720 -0.000810 0.000000 -0.011565 0.000000
# 2 -0.003720 0.015503 -0.007982 0.000000 0.000576 0.000000
# 3 -0.000810 -0.007982 0.018316 0.000000 -0.005727 0.000000
# 4 0.000000 0.000000 0.000000 0.054160 0.000000 -0.002320
# 5 -0.011565 0.000576 -0.005727 0.000000 0.047645 0.000000
# 6 0.000000 0.000000 0.000000 -0.002320 0.000000 0.038562
#
#
# Mechanical properties :
#
#
# Convention : Reuss Voigt Hill
#
# Bulk Modulus (GPa) = 40.22189 53.70074 46.96132
# Shear Modulus (GPa) = 22.36463 25.23004 23.79733
#
# Velocity S-wave (km/s) = 3.19041 3.38863 3.29101
# Velocity P-wave (km/s) = 5.64603 6.30484 5.98451
#
# Compressibility (1/GPa) = 0.02486208
#
# Stress axis : x y z
#
# Youngs Moduli (GPa) = 62.22981 64.50508 54.59814
#
# Poissons Ratio (x) = 0.23998 0.04424
# Poissons Ratio (y) = 0.23151 0.43582
# Poissons Ratio (z) = 0.05042 0.51490
#
# Static dielectric constant tensor:
#      x y z
#    x 1.845070 0.000000 -0.012490 
#    y 0.000000 1.808170 0.000000 
#    z -0.012490 0.000000 1.817490 
# 
# From -- ./inp_files/286091.got.cif
#   From: 2010.05.17/outbox.cif.g08.bks.cpg/sg15_144_cif.got.tgz:286091.got - 2010.06.03 18:47:42.
