data_PCOD9305048
_publ_section_title
;
Structure prediction by ZEFSAII (Michael W. Deem and Ramdas Pophale) SiO2 
 PCOD9305048
Probable space group: C 2/C
;
_chemical_formula_sum "Si O2"
_cell_formula_units_Z 56
_cell_length_a 19.667352
_cell_length_b 11.238861
_cell_length_c 14.063037
_cell_angle_alpha 90.000000
_cell_angle_beta 56.178730
_cell_angle_gamma 90.000000
_cell_volume 2582.451916
_symmetry_space_group_name_H-M "C 2/C"
_symmetry_group_IT_number 15
_symmetry_cell_setting 'monoclinic'
loop_
_space_group_symop_operation_xyz
x,y,z
-x,y,1/2-z
-x,-y,-z
x,-y,1/2+z
1/2+x,1/2+y,z
1/2-x,1/2+y,1/2-z
1/2-x,1/2-y,-z
1/2+x,1/2-y,1/2+z
loop_
_atom_site_type_symbol
_atom_site_label
_atom_site_fract_x
_atom_site_fract_y
_atom_site_fract_z
Si Si1 0.042901 0.436907 0.057521
Si Si2 0.335834 0.201618 0.320058
Si Si3 0.799880 0.923890 0.481482
Si Si4 0.319379 0.753068 0.618483
Si Si5 0.598401 0.507582 0.424790
Si Si6 0.500000 0.764230 0.250000
Si Si7 0.500000 0.113786 0.250000
Si Si8 0.840098 0.137501 0.317780
O O1 0.050290 0.538357 0.132456
O O2 0.991360 0.341745 0.160301
O O3 0.121695 0.359357 0.965720
O O4 0.000000 0.500000 0.000000
O O5 0.286993 0.090491 0.400214
O O6 0.314669 0.313910 0.400459
O O7 0.303892 0.218501 0.240151
O O8 0.432838 0.186461 0.244922
O O9 0.869070 0.921527 0.508824
O O10 0.802554 0.038868 0.415201
O O11 0.363240 0.624469 0.587689
O O12 0.229946 0.763096 0.641408
O O13 0.500000 0.500000 0.500000
O O14 0.631099 0.572490 0.303034
O O15 0.418645 0.686919 0.312136
#
# Coordination Sequence:
#
# PCOD9305048 Si02
#       8
#     8   8   8   8   8   4   4   8
#     4  11  24  45  69 103 142 180 238 298 355 427
#     4  11  24  43  69 107 137 182 240 287 361 426
#     4  11  25  46  68 103 143 184 236 295 354 431
#     4  12  25  46  73 105 141 191 238 294 361 425
#     4  12  27  45  73 105 143 190 236 294 362 424
#     4  11  28  47  72 110 138 193 244 289 366 426
#     4  11  24  41  72 100 140 185 228 297 362 424
#     4  12  25  47  73 101 146 187 237 298 354 436
#
# _framework density 21.684818
#
# number of rings (size 3 to 8) (size 9 to 14) (size 15 to 20)
#    0.000    0.571    4.286    3.429    2.000    7.429 
#    0.000    0.000    0.000    0.000    0.000    0.000 
#    0.000    0.000    0.000    0.000    0.000    0.000 
#
# Total GULP energy -156419.237181 kJ/mol
# GULP energy per Si atom -5586.401328 kJ/mol
# Density = 2.163546 g / cm^3
# Si number density = 21.684818 Si / 1000 Ang^3
#
#
#
# Elastic Constant Matrix: (Units=GPa)
#
#
# Indices 1 2 3 4 5 6 
#
# 1 108.4022 27.1394 27.4774 0.0000 -15.3079 0.0000
# 2 27.1394 68.5597 28.2530 0.0000 -8.5641 0.0000
# 3 27.4774 28.2530 102.5855 0.0000 13.1732 0.0000
# 4 0.0000 0.0000 0.0000 23.2557 0.0000 -14.2081
# 5 -15.3079 -8.5641 13.1732 0.0000 45.5039 0.0000
# 6 0.0000 0.0000 0.0000 -14.2081 0.0000 -0.1223
#
#
#
# Elastic Compliance Matrix: (Units=1/GPa)
#
#
# Indices 1 2 3 4 5 6 
#
# 1 0.011190 -0.002794 -0.002746 0.000000 0.004033 0.000000
# 2 -0.002794 0.018124 -0.004736 0.000000 0.003842 0.000000
# 3 -0.002746 -0.004736 0.012485 0.000000 -0.005429 0.000000
# 4 0.000000 0.000000 0.000000 0.000598 0.000000 -0.069404
# 5 0.004033 0.003842 -0.005429 0.000000 0.025628 0.000000
# 6 0.000000 0.000000 0.000000 -0.069404 0.000000 -0.113601
#
#
# Mechanical properties :
#
#
# Convention : Reuss Voigt Hill
#
# Bulk Modulus (GPa) = 47.06722 49.47635 48.27178
# Shear Modulus (GPa) = -278.67424 26.83931 -125.91746
#
# Velocity S-wave (km/s) = -11.34858 3.52191 -7.62844
# Velocity P-wave (km/s) = 12.24614 6.27727 7.43518
#
# Compressibility (1/GPa) = 0.02124621
#
# Stress axis : x y z
#
# Youngs Moduli (GPa) = 89.36563 55.17636 80.09609
#
# Poissons Ratio (x) = 0.15418 0.21991
# Poissons Ratio (y) = 0.24971 0.37936
# Poissons Ratio (z) = 0.24536 0.26134
#
# Static dielectric constant tensor:
#      x y z
#    x 1.854970 0.000000 -0.035670 
#    y 0.000000 1.820220 0.000000 
#    z -0.035670 0.000000 1.803290 
# 
# From -- ./inp_files/161281.got.cif
#   From: 2010.05.17/outbox.cif.g08.bks.cpg/sg15_81_cif.got.tgz:161281.got - 2010.06.03 18:47:42.
