data_PCOD9305142
_publ_section_title
;
Structure prediction by ZEFSAII (Michael W. Deem and Ramdas Pophale) SiO2 
 PCOD9305142
Probable space group: C 2/C
;
_chemical_formula_sum "Si O2"
_cell_formula_units_Z 48
_cell_length_a 22.650862
_cell_length_b 5.215443
_cell_length_c 22.490790
_cell_angle_alpha 90.000000
_cell_angle_beta 132.029518
_cell_angle_gamma 90.000000
_cell_volume 1973.570037
_symmetry_space_group_name_H-M "C 2/C"
_symmetry_group_IT_number 15
_symmetry_cell_setting 'monoclinic'
loop_
_space_group_symop_operation_xyz
x,y,z
-x,y,1/2-z
-x,-y,-z
x,-y,1/2+z
1/2+x,1/2+y,z
1/2-x,1/2+y,1/2-z
1/2-x,1/2-y,-z
1/2+x,1/2-y,1/2+z
loop_
_atom_site_type_symbol
_atom_site_label
_atom_site_fract_x
_atom_site_fract_y
_atom_site_fract_z
Si Si1 0.324478 0.238048 0.935434
Si Si2 0.964139 0.270520 0.162623
Si Si3 0.477704 0.303233 0.098315
Si Si4 0.708230 0.605594 0.418069
Si Si5 0.721834 0.123975 0.798902
Si Si6 0.874020 0.588182 0.362992
O O1 0.262702 0.364627 0.849007
O O2 0.265899 0.135571 0.946600
O O3 0.373105 0.038346 0.927269
O O4 0.395754 0.398977 0.012232
O O5 0.958079 0.533188 0.119602
O O6 0.882745 0.120235 0.124357
O O7 0.000000 0.349832 0.250000
O O8 0.008864 0.036543 0.159886
O O9 0.546411 0.239274 0.097495
O O10 0.750000 0.750000 0.500000
O O11 0.709114 0.729419 0.352491
O O12 0.793031 0.249925 0.810075
O O13 0.644589 0.093820 0.706175
#
# Coordination Sequence:
#
# PCOD9305142 Si02
#       6
#     8   8   8   8   8   8
#     4  11  25  44  73 102 139 190 234 301 352 426
#     4  12  28  47  71 107 145 192 236 292 358 427
#     4  12  28  46  73 105 146 187 236 299 360 420
#     4  11  24  45  72 102 142 186 244 289 356 431
#     4  11  24  42  74 101 138 189 239 298 355 424
#     4  11  25  45  69 105 140 184 243 293 361 426
#
# _framework density 24.321404999999999
#
# number of rings (size 3 to 8) (size 9 to 14) (size 15 to 20)
#    0.000    0.667    3.333    3.000    9.333    2.000 
#    0.000    0.000    0.000    0.000    0.000    0.000 
#    0.000    0.000    0.000    0.000    0.000    0.000 
#
# Total GULP energy -134020.420581 kJ/mol
# GULP energy per Si atom -5584.184191 kJ/mol
# Density = 2.426605 g / cm^3
# Si number density = 24.321405 Si / 1000 Ang^3
#
#
#
# Elastic Constant Matrix: (Units=GPa)
#
#
# Indices 1 2 3 4 5 6 
#
# 1 133.3888 30.2496 17.4992 0.0003 -2.3517 0.0022
# 2 30.2496 60.7903 -8.9978 0.0017 -12.7104 -0.0056
# 3 17.4992 -8.9978 77.5268 -0.0002 -10.5489 0.0010
# 4 0.0003 0.0017 -0.0002 23.3063 0.0006 -13.7515
# 5 -2.3517 -12.7104 -10.5489 0.0006 35.9625 0.0015
# 6 0.0022 -0.0056 0.0010 -13.7515 0.0015 27.7272
#
#
#
# Elastic Compliance Matrix: (Units=1/GPa)
#
#
# Indices 1 2 3 4 5 6 
#
# 1 0.009077 -0.005416 -0.002976 -0.000001 -0.002193 -0.000002
# 2 -0.005416 0.021708 0.004935 0.000001 0.008766 0.000005
# 3 -0.002976 0.004935 0.014951 0.000000 0.005935 0.000000
# 4 -0.000001 0.000001 0.000000 0.060657 -0.000002 0.030083
# 5 -0.002193 0.008766 0.005935 -0.000002 0.032502 -0.000001
# 6 -0.000002 0.000005 0.000000 0.030083 -0.000001 0.050986
#
#
# Mechanical properties :
#
#
# Convention : Reuss Voigt Hill
#
# Bulk Modulus (GPa) = 25.75878 38.80086 32.27982
# Shear Modulus (GPa) = 23.83959 32.92954 28.38457
#
# Velocity S-wave (km/s) = 3.13419 3.68357 3.41993
# Velocity P-wave (km/s) = 4.86945 5.83778 5.37546
#
# Compressibility (1/GPa) = 0.03882172
#
# Stress axis : x y z
#
# Youngs Moduli (GPa) = 110.17138 46.06583 66.88641
#
# Poissons Ratio (x) = 0.24948 0.19904
# Poissons Ratio (y) = 0.59666 -0.33006
# Poissons Ratio (z) = 0.32785 -0.22732
#
# Static dielectric constant tensor:
#      x y z
#    x 2.240430 0.000100 -0.161540 
#    y 0.000100 2.189190 -0.000030 
#    z -0.161540 -0.000030 2.025580 
# 
# From -- ./inp_files/278814.got.cif
#   From: 2010.05.17/outbox.cif.g08.bks.cpg/sg15_140_cif.got.tgz:278814.got - 2010.06.03 18:47:42.
