data_PCOD9305144
_publ_section_title
;
Structure prediction by ZEFSAII (Michael W. Deem and Ramdas Pophale) SiO2 
 PCOD9305144
Probable space group: C 2/C
;
_chemical_formula_sum "Si O2"
_cell_formula_units_Z 52
_cell_length_a 9.185838
_cell_length_b 28.685139
_cell_length_c 11.972208
_cell_angle_alpha 90.000000
_cell_angle_beta 126.557152
_cell_angle_gamma 90.000000
_cell_volume 2534.007102
_symmetry_space_group_name_H-M "C 2/C"
_symmetry_group_IT_number 15
_symmetry_cell_setting 'monoclinic'
loop_
_space_group_symop_operation_xyz
x,y,z
-x,y,1/2-z
-x,-y,-z
x,-y,1/2+z
1/2+x,1/2+y,z
1/2-x,1/2+y,1/2-z
1/2-x,1/2-y,-z
1/2+x,1/2-y,1/2+z
loop_
_atom_site_type_symbol
_atom_site_label
_atom_site_fract_x
_atom_site_fract_y
_atom_site_fract_z
Si Si1 0.149559 0.618242 0.025980
Si Si2 0.129652 0.021470 0.652323
Si Si3 0.293746 0.714634 0.116545
Si Si4 0.000000 0.562708 0.750000
Si Si5 0.500000 0.395215 0.250000
Si Si6 0.000000 0.943239 0.750000
Si Si7 0.800153 0.259696 0.679050
Si Si8 0.325979 0.169809 0.987469
O O1 0.233758 0.667122 0.032181
O O2 0.333733 0.588661 0.131039
O O3 0.038622 0.593757 0.876832
O O4 0.002933 0.635886 0.053925
O O5 0.325377 0.031444 0.692427
O O6 0.063865 0.069450 0.680547
O O7 0.000000 0.000000 0.500000
O O8 0.120861 0.979858 0.735641
O O9 0.500000 0.712577 0.250000
O O10 0.203069 0.725581 0.194272
O O11 0.250000 0.750000 0.000000
O O12 0.339402 0.362707 0.129300
O O13 0.667472 0.216593 0.588533
O O14 0.787020 0.304799 0.589844
O O15 0.000000 0.239860 0.750000
#
# Coordination Sequence:
#
# PCOD9305144 Si02
#       8
#     8   8   8   4   4   4   8   8
#     4  12  25  46  71 110 140 192 248 309 367 455
#     4  11  25  47  70 108 144 190 239 316 386 455
#     4  12  28  45  70 107 154 201 246 312 377 441
#     4  12  26  44  79 104 144 194 243 304 394 460
#     4  11  24  42  74 104 140 196 254 306 377 462
#     4  11  26  48  77 102 150 178 247 308 381 454
#     4  11  24  45  68 104 149 196 247 310 363 437
#     4  11  24  43  72 105 144 189 256 304 366 443
#
# _framework density 20.520859000000002
#
# number of rings (size 3 to 8) (size 9 to 14) (size 15 to 20)
#    0.000    0.615    6.154    0.923    5.385    4.308 
#    0.000    0.000    0.000    0.000    0.000    0.000 
#    0.000    0.000    0.000    0.000    0.000    0.000 
#
# Total GULP energy -144828.760003 kJ/mol
# GULP energy per Si atom -5570.336923 kJ/mol
# Density = 2.047415 g / cm^3
# Si number density = 20.520859 Si / 1000 Ang^3
#
#
#
# Elastic Constant Matrix: (Units=GPa)
#
#
# Indices 1 2 3 4 5 6 
#
# 1 118.3583 60.1993 45.5287 0.0000 12.3670 0.0000
# 2 60.1993 157.3654 63.3215 0.0000 0.4423 0.0000
# 3 45.5287 63.3215 95.9653 0.0000 8.9899 0.0000
# 4 0.0000 0.0000 0.0000 42.7941 0.0000 10.9453
# 5 12.3670 0.4423 8.9899 0.0000 40.7007 0.0000
# 6 0.0000 0.0000 0.0000 10.9453 0.0000 1.2005
#
#
#
# Elastic Compliance Matrix: (Units=1/GPa)
#
#
# Indices 1 2 3 4 5 6 
#
# 1 0.011548 -0.003145 -0.003143 0.000000 -0.002781 0.000000
# 2 -0.003145 0.009565 -0.005003 0.000000 0.001957 0.000000
# 3 -0.003143 -0.005003 0.015437 0.000000 -0.002400 0.000000
# 4 0.000000 0.000000 0.000000 -0.017544 0.000000 0.159956
# 5 -0.002781 0.001957 -0.002400 0.000000 0.025923 0.000000
# 6 0.000000 0.000000 0.000000 0.159956 0.000000 -0.625400
#
#
# Mechanical properties :
#
#
# Convention : Reuss Voigt Hill
#
# Bulk Modulus (GPa) = 71.58641 78.86534 75.22588
# Shear Modulus (GPa) = -9.03781 30.44836 10.70527
#
# Velocity S-wave (km/s) = -2.10090 3.85616 2.28650
# Velocity P-wave (km/s) = 5.39216 7.63818 6.61125
#
# Compressibility (1/GPa) = 0.01396913
#
# Stress axis : x y z
#
# Youngs Moduli (GPa) = 86.59383 104.54432 64.77779
#
# Poissons Ratio (x) = 0.32881 0.20360
# Poissons Ratio (y) = 0.27235 0.32406
# Poissons Ratio (z) = 0.27216 0.52300
#
# Static dielectric constant tensor:
#      x y z
#    x 1.791690 0.000000 0.025800 
#    y 0.000000 1.654510 0.000000 
#    z 0.025800 0.000000 1.726110 
# 
# From -- ./inp_files/81528.got.cif
#   From: 2010.05.17/outbox.cif.g08.bks.cpg/sg15_41_cif.got.tgz:81528.got - 2010.06.03 18:47:42.
