data_PCOD9305418
_publ_section_title
;
Structure prediction by ZEFSAII (Michael W. Deem and Ramdas Pophale) SiO2 
 PCOD9305418
Probable space group: C 2/C
;
_chemical_formula_sum "Si O2"
_cell_formula_units_Z 56
_cell_length_a 11.085691
_cell_length_b 15.044512
_cell_length_c 15.809515
_cell_angle_alpha 90.000000
_cell_angle_beta 104.996667
_cell_angle_gamma 90.000000
_cell_volume 2546.888707
_symmetry_space_group_name_H-M "C 2/C"
_symmetry_group_IT_number 15
_symmetry_cell_setting 'monoclinic'
loop_
_space_group_symop_operation_xyz
x,y,z
-x,y,1/2-z
-x,-y,-z
x,-y,1/2+z
1/2+x,1/2+y,z
1/2-x,1/2+y,1/2-z
1/2-x,1/2-y,-z
1/2+x,1/2-y,1/2+z
loop_
_atom_site_type_symbol
_atom_site_label
_atom_site_fract_x
_atom_site_fract_y
_atom_site_fract_z
Si Si1 0.627564 0.267302 0.425129
Si Si2 0.084890 0.026508 0.896533
Si Si3 0.981068 0.608155 0.406225
Si Si4 0.295941 0.805261 0.742921
Si Si5 0.679473 0.959923 0.469816
Si Si6 0.825614 0.013355 0.278552
Si Si7 0.853173 0.357550 0.199656
O O1 0.750000 0.250000 0.500000
O O2 0.596849 0.369553 0.416310
O O3 0.527055 0.202804 0.449377
O O4 0.650091 0.236198 0.332769
O O5 0.134116 0.001554 0.811339
O O6 0.938293 0.009507 0.862160
O O7 0.177637 0.979317 0.979514
O O8 0.902489 0.639676 0.311596
O O9 0.890216 0.560196 0.454966
O O10 0.102298 0.544590 0.417139
O O11 0.199478 0.883817 0.708088
O O12 0.227923 0.726907 0.783538
O O13 0.661648 0.878637 0.402364
O O14 0.710138 0.946030 0.271388
O O15 0.000000 0.349296 0.250000
#
# Coordination Sequence:
#
# PCOD9305418 Si02
#       7
#     8   8   8   8   8   8   8
#     4  12  25  44  72 107 138 187 246 303 347 439
#     4  11  24  49  72 102 145 189 243 298 370 422
#     4  11  24  44  75 102 146 187 248 295 366 435
#     4  12  26  46  71 107 141 194 241 296 376 432
#     4  11  25  47  71 106 145 195 238 309 366 435
#     4  11  25  48  73 101 145 193 236 305 361 443
#     4  12  28  45  73 106 148 190 247 299 371 443
#
# _framework density 21.987611999999999
#
# number of rings (size 3 to 8) (size 9 to 14) (size 15 to 20)
#    0.000    0.571    4.286    3.000    8.000    1.143 
#    2.571    0.000    0.000    0.000    0.000    0.000 
#    0.000    0.000    0.000    0.000    0.000    0.000 
#
# Total GULP energy -156519.384113 kJ/mol
# GULP energy per Si atom -5589.978004 kJ/mol
# Density = 2.193757 g / cm^3
# Si number density = 21.987612 Si / 1000 Ang^3
#
#
#
# Elastic Constant Matrix: (Units=GPa)
#
#
# Indices 1 2 3 4 5 6 
#
# 1 69.3870 30.5573 50.4041 0.0000 20.4708 0.0000
# 2 30.5573 118.8727 35.2104 0.0000 21.9744 0.0000
# 3 50.4041 35.2104 124.6211 0.0000 36.3274 0.0000
# 4 0.0000 0.0000 0.0000 -3.7829 0.0000 -9.9500
# 5 20.4708 21.9744 36.3274 0.0000 44.3237 0.0000
# 6 0.0000 0.0000 0.0000 -9.9500 0.0000 19.2502
#
#
#
# Elastic Compliance Matrix: (Units=1/GPa)
#
#
# Indices 1 2 3 4 5 6 
#
# 1 0.021712 -0.002963 -0.007160 0.000000 -0.002690 0.000000
# 2 -0.002963 0.009941 -0.000752 0.000000 -0.002943 0.000000
# 3 -0.007160 -0.000752 0.013218 0.000000 -0.007154 0.000000
# 4 0.000000 0.000000 0.000000 -0.112035 0.000000 -0.057908
# 5 -0.002690 -0.002943 -0.007154 0.000000 0.031126 0.000000
# 6 0.000000 0.000000 0.000000 -0.057908 0.000000 0.022016
#
#
# Mechanical properties :
#
#
# Convention : Reuss Voigt Hill
#
# Bulk Modulus (GPa) = 43.25274 60.58050 51.91662
# Shear Modulus (GPa) = 323.92346 25.07214 174.49780
#
# Velocity S-wave (km/s) = 12.15075 3.38047 8.91819
# Velocity P-wave (km/s) = 14.71626 6.54589 11.38897
#
# Compressibility (1/GPa) = 0.02311992
#
# Stress axis : x y z
#
# Youngs Moduli (GPa) = 46.05802 100.59371 75.65350
#
# Poissons Ratio (x) = 0.29807 0.54169
# Poissons Ratio (y) = 0.13647 0.05691
# Poissons Ratio (z) = 0.32978 0.07567
#
# Static dielectric constant tensor:
#      x y z
#    x 1.933880 0.000000 0.063670 
#    y 0.000000 1.768220 0.000000 
#    z 0.063670 0.000000 1.902070 
# 
# From -- ./inp_files/197934.got.cif
#   From: 2010.05.17/outbox.cif.g08.bks.cpg/sg15_99_cif.got.tgz:197934.got - 2010.06.03 18:47:42.
