data_PCOD9305197
_publ_section_title
;
Structure prediction by ZEFSAII (Michael W. Deem and Ramdas Pophale) SiO2 
 PCOD9305197
Probable space group: C 2/C
;
_chemical_formula_sum "Si O2"
_cell_formula_units_Z 56
_cell_length_a 11.812784
_cell_length_b 15.935272
_cell_length_c 13.553392
_cell_angle_alpha 90.000000
_cell_angle_beta 111.806670
_cell_angle_gamma 90.000000
_cell_volume 2368.725835
_symmetry_space_group_name_H-M "C 2/C"
_symmetry_group_IT_number 15
_symmetry_cell_setting 'monoclinic'
loop_
_space_group_symop_operation_xyz
x,y,z
-x,y,1/2-z
-x,-y,-z
x,-y,1/2+z
1/2+x,1/2+y,z
1/2-x,1/2+y,1/2-z
1/2-x,1/2-y,-z
1/2+x,1/2-y,1/2+z
loop_
_atom_site_type_symbol
_atom_site_label
_atom_site_fract_x
_atom_site_fract_y
_atom_site_fract_z
Si Si1 0.817286 0.036897 0.541232
Si Si2 0.929800 0.260840 0.970593
Si Si3 0.110926 0.367054 0.720565
Si Si4 0.500000 0.136922 0.750000
Si Si5 0.894451 0.530660 0.893598
Si Si6 0.227395 0.363292 0.434080
Si Si7 0.500000 0.441601 0.750000
Si Si8 0.867182 0.160673 0.380247
O O1 0.710852 0.074010 0.576614
O O2 0.749214 0.961753 0.457918
O O3 0.915670 0.996865 0.648673
O O4 0.871651 0.100160 0.478286
O O5 0.949661 0.298869 0.870668
O O6 0.858042 0.173609 0.950235
O O7 0.830656 0.324057 0.986294
O O8 0.052714 0.242832 0.069982
O O9 0.158927 0.448554 0.677571
O O10 0.224538 0.326877 0.813328
O O11 0.000000 0.399597 0.750000
O O12 0.370045 0.173519 0.675899
O O13 0.461296 0.083931 0.832567
O O14 0.000000 0.500000 0.000000
O O15 0.575460 0.383265 0.698190
#
# Coordination Sequence:
#
# PCOD9305197 Si02
#       8
#     8   8   8   4   8   8   4   8
#     4  12  24  45  71 111 145 184 247 315 369 437
#     4  11  26  46  67 104 150 192 245 292 371 456
#     4  12  25  48  71  99 149 195 237 299 378 437
#     4  12  24  39  74 103 134 182 248 300 356 428
#     4  12  22  41  71 104 137 179 239 306 360 418
#     4  11  24  43  69 102 141 183 245 304 353 441
#     4  12  24  43  74 103 146 194 236 310 380 432
#     4  12  27  46  77 108 146 198 249 306 376 449
#
# _framework density 23.641401999999999
#
# number of rings (size 3 to 8) (size 9 to 14) (size 15 to 20)
#    0.000    0.286    6.429    2.143    4.000    0.571 
#    3.857    0.000    0.000    0.000    0.000    0.000 
#    0.000    0.000    0.000    0.000    0.000    0.000 
#
# Total GULP energy -156561.333385 kJ/mol
# GULP energy per Si atom -5591.476192 kJ/mol
# Density = 2.358759 g / cm^3
# Si number density = 23.641402 Si / 1000 Ang^3
#
#
#
# Elastic Constant Matrix: (Units=GPa)
#
#
# Indices 1 2 3 4 5 6 
#
# 1 117.1512 25.3896 37.6524 0.0000 -7.0966 0.0000
# 2 25.3896 57.2544 14.4641 0.0000 -11.1290 0.0000
# 3 37.6524 14.4641 107.2823 0.0000 5.2303 0.0000
# 4 0.0000 0.0000 0.0000 28.7391 0.0000 11.5235
# 5 -7.0966 -11.1290 5.2303 0.0000 56.2438 0.0000
# 6 0.0000 0.0000 0.0000 11.5235 0.0000 22.3479
#
#
#
# Elastic Compliance Matrix: (Units=1/GPa)
#
#
# Indices 1 2 3 4 5 6 
#
# 1 0.010408 -0.003632 -0.003207 0.000000 0.000893 0.000000
# 2 -0.003632 0.020206 -0.001630 0.000000 0.003691 0.000000
# 3 -0.003207 -0.001630 0.010751 0.000000 -0.001727 0.000000
# 4 0.000000 0.000000 0.000000 0.043865 0.000000 -0.022619
# 5 0.000893 0.003691 -0.001727 0.000000 0.018783 0.000000
# 6 0.000000 0.000000 0.000000 -0.022619 0.000000 0.056410
#
#
# Mechanical properties :
#
#
# Convention : Reuss Voigt Hill
#
# Bulk Modulus (GPa) = 40.93654 48.52224 44.72939
# Shear Modulus (GPa) = 26.95406 35.07828 31.01617
#
# Velocity S-wave (km/s) = 3.38023 3.85615 3.62600
# Velocity P-wave (km/s) = 5.70857 6.35573 6.04082
#
# Compressibility (1/GPa) = 0.02442805
#
# Stress axis : x y z
#
# Youngs Moduli (GPa) = 96.08216 49.49123 93.01881
#
# Poissons Ratio (x) = 0.17974 0.29828
# Poissons Ratio (y) = 0.34894 0.15158
# Poissons Ratio (z) = 0.30810 0.08065
#
# Static dielectric constant tensor:
#      x y z
#    x 1.892930 0.000000 0.058170 
#    y 0.000000 1.932530 0.000000 
#    z 0.058170 0.000000 2.109360 
# 
# From -- ./inp_files/145777.got.cif
#   From: 2010.05.17/outbox.cif.g08.bks.cpg/sg15_73_cif.got.tgz:145777.got - 2010.06.03 18:47:42.
