data_PCOD9305941
_publ_section_title
;
Structure prediction by ZEFSAII (Michael W. Deem and Ramdas Pophale) SiO2 
 PCOD9305941
Probable space group: C 2/C
;
_chemical_formula_sum "Si O2"
_cell_formula_units_Z 44
_cell_length_a 23.749854
_cell_length_b 5.869870
_cell_length_c 14.069184
_cell_angle_alpha 90.000000
_cell_angle_beta 109.862678
_cell_angle_gamma 90.000000
_cell_volume 1844.682347
_symmetry_space_group_name_H-M "C 2/C"
_symmetry_group_IT_number 15
_symmetry_cell_setting 'monoclinic'
loop_
_space_group_symop_operation_xyz
x,y,z
-x,y,1/2-z
-x,-y,-z
x,-y,1/2+z
1/2+x,1/2+y,z
1/2-x,1/2+y,1/2-z
1/2-x,1/2-y,-z
1/2+x,1/2-y,1/2+z
loop_
_atom_site_type_symbol
_atom_site_label
_atom_site_fract_x
_atom_site_fract_y
_atom_site_fract_z
Si Si1 0.313688 0.310949 0.489089
Si Si2 0.379109 0.295650 0.724947
Si Si3 0.000000 0.993821 0.750000
Si Si4 0.480434 0.710189 0.552084
Si Si5 0.895328 0.520326 0.394377
Si Si6 0.280160 0.524304 0.290261
O O1 0.250000 0.250000 0.500000
O O2 0.357697 0.310924 0.604521
O O3 0.297417 0.523428 0.411610
O O4 0.346969 0.146978 0.431860
O O5 0.449360 0.343984 0.769795
O O6 0.370051 0.062441 0.778641
O O7 0.340309 0.476585 0.761541
O O8 0.031904 0.144043 0.847171
O O9 0.500000 0.500000 0.500000
O O10 0.421274 0.813138 0.471977
O O11 0.541769 0.853651 0.588186
O O12 0.248844 0.275170 0.251408
#
# Coordination Sequence:
#
# PCOD9305941 Si02
#       6
#     8   8   4   8   8   8
#     4  12  28  49  80 120 153 222 277 339 418 506
#     4  12  28  49  81 116 166 208 278 338 421 498
#     4  12  26  42  76 116 150 208 264 326 410 502
#     4  11  24  49  74 114 159 208 263 337 410 500
#     4  11  27  49  78 110 165 208 269 347 414 489
#     4  12  28  57  83 118 170 214 279 353 419 497
#
# _framework density 23.852346000000001
#
# number of rings (size 3 to 8) (size 9 to 14) (size 15 to 20)
#    0.000    0.364    3.636    3.273    7.636    2.182 
#    0.000    0.000    0.000    0.000    0.000    0.000 
#    0.000    0.000    0.000    0.000    0.000    0.000 
#
# Total GULP energy -122862.705769 kJ/mol
# GULP energy per Si atom -5584.668444 kJ/mol
# Density = 2.379806 g / cm^3
# Si number density = 23.852346 Si / 1000 Ang^3
#
#
#
# Elastic Constant Matrix: (Units=GPa)
#
#
# Indices 1 2 3 4 5 6 
#
# 1 153.9780 39.2925 12.2368 0.0000 -4.1535 0.0000
# 2 39.2925 72.9169 37.4273 0.0000 5.8543 0.0000
# 3 12.2368 37.4273 159.4545 0.0000 -7.2819 0.0000
# 4 0.0000 0.0000 0.0000 -3.5894 0.0000 0.3535
# 5 -4.1535 5.8543 -7.2819 0.0000 44.5893 0.0000
# 6 0.0000 0.0000 0.0000 0.3535 0.0000 41.6802
#
#
#
# Elastic Compliance Matrix: (Units=1/GPa)
#
#
# Indices 1 2 3 4 5 6 
#
# 1 0.007638 -0.004502 0.000534 0.000000 0.001390 0.000000
# 2 -0.004502 0.018567 -0.004174 0.000000 -0.003539 0.000000
# 3 0.000534 -0.004174 0.007292 0.000000 0.001789 0.000000
# 4 0.000000 0.000000 0.000000 -0.278367 0.000000 0.002361
# 5 0.001390 -0.003539 0.001789 0.000000 0.023313 0.000000
# 6 0.000000 0.000000 0.000000 0.002361 0.000000 0.023972
#
#
# Mechanical properties :
#
#
# Convention : Reuss Voigt Hill
#
# Bulk Modulus (GPa) = 58.09535 62.69583 60.39559
# Shear Modulus (GPa) = -28.47975 36.36220 3.94123
#
# Velocity S-wave (km/s) = -3.45918 3.90868 1.28683
# Velocity P-wave (km/s) = 2.90767 6.83465 5.25200
#
# Compressibility (1/GPa) = 0.01721308
#
# Stress axis : x y z
#
# Youngs Moduli (GPa) = 130.92042 53.85996 137.13955
#
# Poissons Ratio (x) = 0.24246 -0.07322
# Poissons Ratio (y) = 0.58935 0.57244
# Poissons Ratio (z) = -0.06990 0.22482
#
# Static dielectric constant tensor:
#      x y z
#    x 1.922040 0.000000 0.071700 
#    y 0.000000 1.999140 0.000000 
#    z 0.071700 0.000000 1.912730 
# 
# From -- ./inp_files/175508.got.cif
#   From: 2010.05.17/outbox.cif.g08.bks.cpg/sg15_88_cif.got.tgz:175508.got - 2010.06.03 18:47:42.
