data_PCOD9305229
_publ_section_title
;
Structure prediction by ZEFSAII (Michael W. Deem and Ramdas Pophale) SiO2 
 PCOD9305229
Probable space group: C 2/C
;
_chemical_formula_sum "Si O2"
_cell_formula_units_Z 48
_cell_length_a 26.803119
_cell_length_b 8.320655
_cell_length_c 14.819969
_cell_angle_alpha 90.000000
_cell_angle_beta 43.129520
_cell_angle_gamma 90.000000
_cell_volume 2259.560040
_symmetry_space_group_name_H-M "C 2/C"
_symmetry_group_IT_number 15
_symmetry_cell_setting 'monoclinic'
loop_
_space_group_symop_operation_xyz
x,y,z
-x,y,1/2-z
-x,-y,-z
x,-y,1/2+z
1/2+x,1/2+y,z
1/2-x,1/2+y,1/2-z
1/2-x,1/2-y,-z
1/2+x,1/2-y,1/2+z
loop_
_atom_site_type_symbol
_atom_site_label
_atom_site_fract_x
_atom_site_fract_y
_atom_site_fract_z
Si Si1 0.468262 0.828905 0.068486
Si Si2 0.761484 0.684330 0.385093
Si Si3 0.601967 0.605941 0.839808
Si Si4 0.069651 0.865401 0.716167
Si Si5 0.775780 0.815859 0.061860
Si Si6 0.331085 0.309120 0.657095
O O1 0.450248 0.790770 0.196827
O O2 0.393517 0.805361 0.112783
O O3 0.526143 0.690047 0.964670
O O4 0.500000 0.000000 0.000000
O O5 0.750000 0.750000 0.500000
O O6 0.837523 0.757712 0.252614
O O7 0.758120 0.492752 0.384017
O O8 0.695105 0.734641 0.407456
O O9 0.593241 0.499258 0.759717
O O10 0.633891 0.484696 0.873184
O O11 0.137341 0.829269 0.561428
O O12 0.000000 0.916353 0.750000
O O13 0.740764 0.706295 0.185386
O O14 0.750000 0.750000 0.000000
#
# Coordination Sequence:
#
# PCOD9305229 Si02
#       6
#     8   8   8   8   8   8
#     4  11  25  46  68 101 139 180 226 279 343 408
#     4  12  25  42  68 105 132 180 232 281 337 402
#     4  11  24  43  72  98 139 182 227 280 342 408
#     4  11  25  44  71 101 137 184 223 280 344 408
#     4  12  23  45  70  98 143 176 230 281 340 406
#     4  11  24  45  69 100 138 183 226 284 339 404
#
# _framework density 21.243074
#
# number of rings (size 3 to 8) (size 9 to 14) (size 15 to 20)
#    0.000    0.667    5.000    4.000    7.000    0.000 
#    3.000    0.833    0.000    0.000    0.000    0.000 
#    0.000    0.000    0.000    0.000    0.000    0.000 
#
# Total GULP energy -134272.343952 kJ/mol
# GULP energy per Si atom -5594.680998 kJ/mol
# Density = 2.119472 g / cm^3
# Si number density = 21.243074 Si / 1000 Ang^3
#
#
#
# Elastic Constant Matrix: (Units=GPa)
#
#
# Indices 1 2 3 4 5 6 
#
# 1 151.9647 8.5871 54.3796 0.0001 -2.8756 0.0000
# 2 8.5871 79.9571 41.8982 -0.0010 -7.8391 0.0003
# 3 54.3796 41.8982 119.5696 -0.0004 -23.2536 0.0001
# 4 0.0001 -0.0010 -0.0004 43.1913 0.0002 -4.6231
# 5 -2.8756 -7.8391 -23.2536 0.0002 39.7026 0.0000
# 6 0.0000 0.0003 0.0001 -4.6231 0.0000 17.8523
#
#
#
# Elastic Compliance Matrix: (Units=1/GPa)
#
#
# Indices 1 2 3 4 5 6 
#
# 1 0.008074 0.001303 -0.004475 0.000000 -0.001779 0.000000
# 2 0.001303 0.015531 -0.006117 0.000000 -0.000422 0.000000
# 3 -0.004475 -0.006117 0.013818 0.000000 0.006561 0.000000
# 4 0.000000 0.000000 0.000000 0.023813 0.000000 0.006167
# 5 -0.001779 -0.000422 0.006561 0.000000 0.028818 0.000000
# 6 0.000000 0.000000 0.000000 0.006167 0.000000 0.057612
#
#
# Mechanical properties :
#
#
# Convention : Reuss Voigt Hill
#
# Bulk Modulus (GPa) = 53.06095 62.35792 57.70943
# Shear Modulus (GPa) = 28.98133 36.59099 32.78616
#
# Velocity S-wave (km/s) = 3.69761 4.15479 3.93285
# Velocity P-wave (km/s) = 6.57739 7.24117 6.91725
#
# Compressibility (1/GPa) = 0.01884625
#
# Stress axis : x y z
#
# Youngs Moduli (GPa) = 123.84725 64.38876 72.37017
#
# Poissons Ratio (x) = -0.08392 0.32384
# Poissons Ratio (y) = -0.16141 0.44267
# Poissons Ratio (z) = 0.55420 0.39385
#
# Static dielectric constant tensor:
#      x y z
#    x 1.742490 0.000000 0.014910 
#    y 0.000000 1.766410 0.000000 
#    z 0.014910 0.000000 1.773980 
# 
# From -- ./inp_files/176908.got.cif
#   From: 2010.05.17/outbox.cif.g08.bks.cpg/sg15_89_cif.got.tgz:176908.got - 2010.06.03 18:47:42.
