data_PCOD9305135
_publ_section_title
;
Structure prediction by ZEFSAII (Michael W. Deem and Ramdas Pophale) SiO2 
 PCOD9305135
Probable space group: C 2/C
;
_chemical_formula_sum "Si O2"
_cell_formula_units_Z 56
_cell_length_a 22.566483
_cell_length_b 11.590396
_cell_length_c 12.139273
_cell_angle_alpha 90.000000
_cell_angle_beta 129.852279
_cell_angle_gamma 90.000000
_cell_volume 2437.507087
_symmetry_space_group_name_H-M "C 2/C"
_symmetry_group_IT_number 15
_symmetry_cell_setting 'monoclinic'
loop_
_space_group_symop_operation_xyz
x,y,z
-x,y,1/2-z
-x,-y,-z
x,-y,1/2+z
1/2+x,1/2+y,z
1/2-x,1/2+y,1/2-z
1/2-x,1/2-y,-z
1/2+x,1/2-y,1/2+z
loop_
_atom_site_type_symbol
_atom_site_label
_atom_site_fract_x
_atom_site_fract_y
_atom_site_fract_z
Si Si1 0.858413 0.419183 0.272161
Si Si2 0.291686 0.816458 0.408822
Si Si3 0.819240 0.341866 0.834764
Si Si4 0.123759 0.106870 0.885684
Si Si5 0.507691 0.196039 0.884582
Si Si6 0.508313 0.382335 0.446508
Si Si7 0.247233 0.057852 0.453244
O O1 0.846233 0.346898 0.369592
O O2 0.831064 0.548988 0.268560
O O3 0.945564 0.406969 0.330692
O O4 0.798811 0.379977 0.106516
O O5 0.210876 0.772644 0.260893
O O6 0.320423 0.713175 0.519640
O O7 0.286080 0.935532 0.466913
O O8 0.753550 0.373276 0.846741
O O9 0.902426 0.331664 0.990670
O O10 0.077679 0.098525 0.944501
O O11 0.065207 0.140242 0.719181
O O12 0.166093 0.987265 0.904038
O O13 0.500000 0.238073 0.750000
O O14 0.485151 0.286466 0.951995
O O15 0.500000 0.500000 0.500000
#
# Coordination Sequence:
#
# PCOD9305135 Si02
#       7
#     8   8   8   8   8   8   8
#     4  11  24  45  68 105 144 184 241 294 359 440
#     4  11  24  45  71 104 141 185 241 294 360 437
#     4  11  25  44  71 104 144 187 237 302 359 435
#     4  11  24  46  72 100 144 183 239 298 350 435
#     4  12  25  47  70 104 146 188 236 301 369 430
#     4  11  28  47  71 105 137 194 242 298 362 427
#     4  11  24  42  72 106 137 189 236 289 367 427
#
# _framework density 22.974291000000001
#
# number of rings (size 3 to 8) (size 9 to 14) (size 15 to 20)
#    0.000    0.857    4.286    1.714    6.000    1.714 
#    0.000    0.000    0.000    0.000    0.000    0.000 
#    0.000    0.000    0.000    0.000    0.000    0.000 
#
# Total GULP energy -156584.193863 kJ/mol
# GULP energy per Si atom -5592.292638 kJ/mol
# Density = 2.292200 g / cm^3
# Si number density = 22.974291 Si / 1000 Ang^3
#
#
#
# Elastic Constant Matrix: (Units=GPa)
#
#
# Indices 1 2 3 4 5 6 
#
# 1 149.6861 23.4307 43.0096 0.0000 -18.8634 0.0000
# 2 23.4307 47.4400 8.0340 0.0000 -11.4849 0.0000
# 3 43.0096 8.0340 83.6589 0.0000 -26.9149 0.0000
# 4 0.0000 0.0000 0.0000 33.8775 0.0000 -5.1094
# 5 -18.8634 -11.4849 -26.9149 0.0000 39.5509 0.0000
# 6 0.0000 0.0000 0.0000 -5.1094 0.0000 26.5267
#
#
#
# Elastic Compliance Matrix: (Units=1/GPa)
#
#
# Indices 1 2 3 4 5 6 
#
# 1 0.008366 -0.003386 -0.003852 0.000000 0.000386 0.000000
# 2 -0.003386 0.024044 0.001483 0.000000 0.006376 0.000000
# 3 -0.003852 0.001483 0.017078 0.000000 0.010215 0.000000
# 4 0.000000 0.000000 0.000000 0.030401 0.000000 0.005856
# 5 0.000386 0.006376 0.010215 0.000000 0.034271 0.000000
# 6 0.000000 0.000000 0.000000 0.005856 0.000000 0.038826
#
#
# Mechanical properties :
#
#
# Convention : Reuss Voigt Hill
#
# Bulk Modulus (GPa) = 26.33089 47.74816 37.03952
# Shear Modulus (GPa) = 28.22390 33.74505 30.98447
#
# Velocity S-wave (km/s) = 3.50880 3.83667 3.67639
# Velocity P-wave (km/s) = 5.28218 6.36044 5.84622
#
# Compressibility (1/GPa) = 0.03797821
#
# Stress axis : x y z
#
# Youngs Moduli (GPa) = 119.53060 41.58994 58.55649
#
# Poissons Ratio (x) = 0.14084 0.22555
# Poissons Ratio (y) = 0.40477 -0.08686
# Poissons Ratio (z) = 0.46041 -0.06169
#
# Static dielectric constant tensor:
#      x y z
#    x 1.933340 0.000000 -0.010870 
#    y 0.000000 1.794890 0.000000 
#    z -0.010870 0.000000 1.841490 
# 
# From -- ./inp_files/122699.got.cif
#   From: 2010.05.17/outbox.cif.g08.bks.cpg/sg15_62_cif.got.tgz:122699.got - 2010.06.03 18:47:42.
