data_PCOD9305270
_publ_section_title
;
Structure prediction by ZEFSAII (Michael W. Deem and Ramdas Pophale) SiO2 
 PCOD9305270
Probable space group: C 2/C
;
_chemical_formula_sum "Si O2"
_cell_formula_units_Z 40
_cell_length_a 23.487428
_cell_length_b 4.906365
_cell_length_c 12.909903
_cell_angle_alpha 90.000000
_cell_angle_beta 82.816951
_cell_angle_gamma 90.000000
_cell_volume 1476.034104
_symmetry_space_group_name_H-M "C 2/C"
_symmetry_group_IT_number 15
_symmetry_cell_setting 'monoclinic'
loop_
_space_group_symop_operation_xyz
x,y,z
-x,y,1/2-z
-x,-y,-z
x,-y,1/2+z
1/2+x,1/2+y,z
1/2-x,1/2+y,1/2-z
1/2-x,1/2-y,-z
1/2+x,1/2-y,1/2+z
loop_
_atom_site_type_symbol
_atom_site_label
_atom_site_fract_x
_atom_site_fract_y
_atom_site_fract_z
Si Si1 0.938414 0.920557 0.418046
Si Si2 0.013006 0.562178 0.864105
Si Si3 0.205703 0.568214 0.574813
Si Si4 0.874282 0.692417 0.087232
Si Si5 0.171867 0.077735 0.699330
O O1 0.011740 0.865582 0.622929
O O2 0.891242 0.889722 0.338509
O O3 0.970545 0.641511 0.435919
O O4 0.905932 0.059955 0.521313
O O5 0.079258 0.495611 0.866972
O O6 0.000000 0.472574 0.750000
O O7 0.250000 0.750000 0.500000
O O8 0.156357 0.534321 0.499339
O O9 0.214667 0.274666 0.624249
O O10 0.186957 0.765550 0.673460
O O11 0.832143 0.821948 0.182358
#
# Coordination Sequence:
#
# PCOD9305270 Si02
#       5
#     8   8   8   8   8
#     4  11  24  44  63 103 143 183 228 277 333 417
#     4  12  24  41  67  97 146 187 228 276 338 413
#     4  11  27  49  72 102 136 175 237 300 357 423
#     4  11  26  43  73 100 140 190 229 287 352 410
#     4  11  25  46  72 103 138 178 236 290 349 426
#
# _framework density 27.099643
#
# number of rings (size 3 to 8) (size 9 to 14) (size 15 to 20)
#    0.000    0.800    2.000    4.800    0.000    9.600 
#    0.000    0.000    0.000    0.000    0.000    0.000 
#    0.000    0.000    0.000    0.000    0.000    0.000 
#
# Total GULP energy -112251.806145 kJ/mol
# GULP energy per Si atom -5612.590307 kJ/mol
# Density = 2.703796 g / cm^3
# Si number density = 27.099643 Si / 1000 Ang^3
#
#
#
# Elastic Constant Matrix: (Units=GPa)
#
#
# Indices 1 2 3 4 5 6 
#
# 1 56.8444 5.6035 -1.7736 0.0000 -1.6629 0.0000
# 2 5.6035 120.0108 8.4156 0.0000 6.3734 0.0000
# 3 -1.7736 8.4156 118.7186 0.0000 -8.9041 0.0000
# 4 0.0000 0.0000 0.0000 27.9983 0.0000 -2.9914
# 5 -1.6629 6.3734 -8.9041 0.0000 30.6026 0.0000
# 6 0.0000 0.0000 0.0000 -2.9914 0.0000 39.0453
#
#
#
# Elastic Compliance Matrix: (Units=1/GPa)
#
#
# Indices 1 2 3 4 5 6 
#
# 1 0.017734 -0.000926 0.000427 0.000000 0.001281 0.000000
# 2 -0.000926 0.008539 -0.000773 0.000000 -0.002054 0.000000
# 3 0.000427 -0.000773 0.008688 0.000000 0.002712 0.000000
# 4 0.000000 0.000000 0.000000 0.036011 0.000000 0.002759
# 5 0.001281 -0.002054 0.002712 0.000000 0.033963 0.000000
# 6 0.000000 0.000000 0.000000 0.002759 0.000000 0.025823
#
#
# Mechanical properties :
#
#
# Convention : Reuss Voigt Hill
#
# Bulk Modulus (GPa) = 30.84908 35.56277 33.20593
# Shear Modulus (GPa) = 34.69610 38.41778 36.55694
#
# Velocity S-wave (km/s) = 3.58203 3.76925 3.67683
# Velocity P-wave (km/s) = 5.34006 5.66520 5.50503
#
# Compressibility (1/GPa) = 0.03241588
#
# Stress axis : x y z
#
# Youngs Moduli (GPa) = 56.38907 117.10837 115.10304
#
# Poissons Ratio (x) = 0.10844 -0.04911
# Poissons Ratio (y) = 0.05221 0.08899
# Poissons Ratio (z) = -0.02406 0.09054
#
# Static dielectric constant tensor:
#      x y z
#    x 2.156170 0.000000 -0.010460 
#    y 0.000000 2.032330 0.000000 
#    z -0.010460 0.000000 2.207590 
# 
# From -- ./inp_files/120752.got.cif
#   From: 2010.05.17/outbox.cif.g08.bks.cpg/sg15_61_cif.got.tgz:120752.got - 2010.06.03 18:47:42.
