data_PCOD9305886
_publ_section_title
;
Structure prediction by ZEFSAII (Michael W. Deem and Ramdas Pophale) SiO2 
 PCOD9305886
Probable space group: C 2/C
;
_chemical_formula_sum "Si O2"
_cell_formula_units_Z 44
_cell_length_a 8.690558
_cell_length_b 13.132535
_cell_length_c 19.746593
_cell_angle_alpha 90.000000
_cell_angle_beta 58.209652
_cell_angle_gamma 90.000000
_cell_volume 1915.569232
_symmetry_space_group_name_H-M "C 2/C"
_symmetry_group_IT_number 15
_symmetry_cell_setting 'monoclinic'
loop_
_space_group_symop_operation_xyz
x,y,z
-x,y,1/2-z
-x,-y,-z
x,-y,1/2+z
1/2+x,1/2+y,z
1/2-x,1/2+y,1/2-z
1/2-x,1/2-y,-z
1/2+x,1/2-y,1/2+z
loop_
_atom_site_type_symbol
_atom_site_label
_atom_site_fract_x
_atom_site_fract_y
_atom_site_fract_z
Si Si1 0.000000 0.989020 0.750000
Si Si2 0.280124 0.309054 0.858851
Si Si3 0.747232 0.406990 0.291429
Si Si4 0.374531 0.839400 0.999400
Si Si5 0.996424 0.333503 0.116848
Si Si6 0.714110 0.486569 0.442797
O O1 0.160910 0.911689 0.692439
O O2 0.065578 0.060493 0.795363
O O3 0.251381 0.208215 0.819338
O O4 0.449864 0.277608 0.867648
O O5 0.086676 0.324026 0.937016
O O6 0.902760 0.399217 0.198345
O O7 0.757469 0.485320 0.352162
O O8 0.310492 0.935231 0.970623
O O9 0.250000 0.750000 0.000000
O O10 0.367611 0.841370 0.082298
O O11 0.194952 0.380320 0.056133
O O12 0.500000 0.500000 0.500000
#
# Coordination Sequence:
#
# PCOD9305886 Si02
#       6
#     4   8   8   8   8   8
#     4  12  26  44  82 104 146 212 248 320 394 438
#     4  11  24  49  70 111 149 192 260 320 378 455
#     4  11  26  46  76 105 153 197 259 311 382 454
#     4  12  27  42  74 109 145 200 250 309 391 452
#     4  11  24  48  73 102 154 196 247 319 374 454
#     4  11  25  45  69 105 147 189 249 314 375 447
#
# _framework density 22.969674000000001
#
# number of rings (size 3 to 8) (size 9 to 14) (size 15 to 20)
#    0.000    0.727    1.818    6.000   10.182    0.000 
#    0.000    0.000    0.000    0.000    0.000    0.000 
#    0.000    0.000    0.000    0.000    0.000    0.000 
#
# Total GULP energy -122881.403106 kJ/mol
# GULP energy per Si atom -5585.518323 kJ/mol
# Density = 2.291739 g / cm^3
# Si number density = 22.969674 Si / 1000 Ang^3
#
#
#
# Elastic Constant Matrix: (Units=GPa)
#
#
# Indices 1 2 3 4 5 6 
#
# 1 144.8435 41.1996 75.3291 0.0000 33.0082 0.0000
# 2 41.1996 47.4542 23.4386 0.0000 6.2921 0.0000
# 3 75.3291 23.4386 135.2047 0.0000 10.1891 0.0000
# 4 0.0000 0.0000 0.0000 15.9252 0.0000 3.0276
# 5 33.0082 6.2921 10.1891 0.0000 54.7281 0.0000
# 6 0.0000 0.0000 0.0000 3.0276 0.0000 47.5585
#
#
#
# Elastic Compliance Matrix: (Units=1/GPa)
#
#
# Indices 1 2 3 4 5 6 
#
# 1 0.013606 -0.008177 -0.005695 0.000000 -0.006206 0.000000
# 2 -0.008177 0.028164 -0.000461 0.000000 0.001780 0.000000
# 3 -0.005695 -0.000461 0.010534 0.000000 0.001527 0.000000
# 4 0.000000 0.000000 0.000000 0.063563 0.000000 -0.004046
# 5 -0.006206 0.001780 0.001527 0.000000 0.021526 0.000000
# 6 0.000000 0.000000 0.000000 -0.004046 0.000000 0.021284
#
#
# Mechanical properties :
#
#
# Convention : Reuss Voigt Hill
#
# Bulk Modulus (GPa) = 42.30490 67.49301 54.89895
# Shear Modulus (GPa) = 25.61177 36.14471 30.87824
#
# Velocity S-wave (km/s) = 3.34282 3.97115 3.67045
# Velocity P-wave (km/s) = 5.77555 7.10450 6.47422
#
# Compressibility (1/GPa) = 0.02363792
#
# Stress axis : x y z
#
# Youngs Moduli (GPa) = 73.49631 35.50674 94.92881
#
# Poissons Ratio (x) = 0.29033 0.54066
# Poissons Ratio (y) = 0.60097 0.04374
# Poissons Ratio (z) = 0.41859 0.01636
#
# Static dielectric constant tensor:
#      x y z
#    x 1.945320 0.000000 -0.350590 
#    y 0.000000 1.939280 0.000000 
#    z -0.350590 0.000000 4.277430 
# 
# From -- ./inp_files/189176.got.cif
#   From: 2010.05.17/outbox.cif.g08.bks.cpg/sg15_95_cif.got.tgz:189176.got - 2010.06.03 18:47:42.
