data_PCOD9305423
_publ_section_title
;
Structure prediction by ZEFSAII (Michael W. Deem and Ramdas Pophale) SiO2 
 PCOD9305423
Probable space group: C 2/C
;
_chemical_formula_sum "Si O2"
_cell_formula_units_Z 48
_cell_length_a 28.430090
_cell_length_b 11.736206
_cell_length_c 20.296990
_cell_angle_alpha 90.000000
_cell_angle_beta 161.712615
_cell_angle_gamma 90.000000
_cell_volume 2125.042278
_symmetry_space_group_name_H-M "C 2/C"
_symmetry_group_IT_number 15
_symmetry_cell_setting 'monoclinic'
loop_
_space_group_symop_operation_xyz
x,y,z
-x,y,1/2-z
-x,-y,-z
x,-y,1/2+z
1/2+x,1/2+y,z
1/2-x,1/2+y,1/2-z
1/2-x,1/2-y,-z
1/2+x,1/2-y,1/2+z
loop_
_atom_site_type_symbol
_atom_site_label
_atom_site_fract_x
_atom_site_fract_y
_atom_site_fract_z
Si Si1 0.050871 0.440155 0.470272
Si Si2 0.946222 0.041928 0.314924
Si Si3 0.639278 0.387078 0.657157
Si Si4 0.661642 0.656478 0.928896
Si Si5 0.965362 0.656548 0.409335
Si Si6 0.076773 0.272672 0.282161
O O1 0.059878 0.575820 0.485653
O O2 0.936990 0.399610 0.264380
O O3 0.193757 0.364370 0.642501
O O4 0.000559 0.393305 0.473561
O O5 0.877874 0.952954 0.170573
O O6 0.087466 0.984553 0.538269
O O7 0.850706 0.071973 0.253809
O O8 0.992055 0.161580 0.344835
O O9 0.523329 0.285089 0.490115
O O10 0.500000 0.686596 0.750000
O O11 0.750000 0.750000 0.000000
O O12 0.791234 0.638428 0.156978
O O13 0.250000 0.250000 0.500000
O O14 0.000000 0.272706 0.250000
#
# Coordination Sequence:
#
# PCOD9305423 Si02
#       6
#     8   8   8   8   8   8
#     4  11  26  44  73 105 146 191 251 307 377 454
#     4  11  24  45  71 106 145 191 249 301 380 443
#     4  11  24  44  75 106 145 199 246 310 382 451
#     4  12  26  47  74 110 151 199 251 315 381 447
#     4  11  25  46  72 107 147 192 254 309 382 456
#     4  12  26  45  73 103 146 189 245 302 375 444
#
# _framework density 22.587785
#
# number of rings (size 3 to 8) (size 9 to 14) (size 15 to 20)
#    0.000    0.667    3.333    3.500    2.333    2.667 
#    0.000    0.833    0.000    0.000    0.000    0.000 
#    0.000    0.000    0.000    0.000    0.000    0.000 
#
# Total GULP energy -133731.389184 kJ/mol
# GULP energy per Si atom -5572.141216 kJ/mol
# Density = 2.253637 g / cm^3
# Si number density = 22.587785 Si / 1000 Ang^3
#
#
#
# Elastic Constant Matrix: (Units=GPa)
#
#
# Indices 1 2 3 4 5 6 
#
# 1 176.5040 97.7899 -26.0635 0.0000 31.7319 0.0000
# 2 97.7899 126.8112 -18.4747 0.0000 26.3811 0.0000
# 3 -26.0635 -18.4747 131.7977 0.0000 -1.9038 0.0000
# 4 0.0000 0.0000 0.0000 32.8837 0.0000 -5.0111
# 5 31.7319 26.3811 -1.9038 0.0000 30.0973 0.0000
# 6 0.0000 0.0000 0.0000 -5.0111 0.0000 62.6614
#
#
#
# Elastic Compliance Matrix: (Units=1/GPa)
#
#
# Indices 1 2 3 4 5 6 
#
# 1 0.010574 -0.006967 0.001043 0.000000 -0.004976 0.000000
# 2 -0.006967 0.014439 0.000570 0.000000 -0.005274 0.000000
# 3 0.001043 0.000570 0.007858 0.000000 -0.001102 0.000000
# 4 0.000000 0.000000 0.000000 0.030785 0.000000 0.002462
# 5 -0.004976 -0.005274 -0.001102 0.000000 0.043025 0.000000
# 6 0.000000 0.000000 0.000000 0.002462 0.000000 0.016156
#
#
# Mechanical properties :
#
#
# Convention : Reuss Voigt Hill
#
# Bulk Modulus (GPa) = 45.12417 60.17958 52.65187
# Shear Modulus (GPa) = 35.47793 50.58589 43.03191
#
# Velocity S-wave (km/s) = 3.96747 4.73750 4.36948
# Velocity P-wave (km/s) = 6.40377 7.52499 6.98691
#
# Compressibility (1/GPa) = 0.02216107
#
# Stress axis : x y z
#
# Youngs Moduli (GPa) = 94.57013 69.25802 127.26632
#
# Poissons Ratio (x) = 0.48254 -0.13269
# Poissons Ratio (y) = 0.65889 -0.07254
# Poissons Ratio (z) = -0.09860 -0.03947
#
# Static dielectric constant tensor:
#      x y z
#    x 1.989070 0.000000 0.136520 
#    y 0.000000 2.244330 0.000000 
#    z 0.136520 0.000000 2.086090 
# 
# From -- ./inp_files/257631.got.cif
#   From: 2010.05.17/outbox.cif.g08.bks.cpg/sg15_129_cif.got.tgz:257631.got - 2010.06.03 18:47:42.
