data_PCOD9305764
_publ_section_title
;
Structure prediction by ZEFSAII (Michael W. Deem and Ramdas Pophale) SiO2 
 PCOD9305764
Probable space group: C 2/C
;
_chemical_formula_sum "Si O2"
_cell_formula_units_Z 56
_cell_length_a 21.860465
_cell_length_b 14.645230
_cell_length_c 9.283421
_cell_angle_alpha 90.000000
_cell_angle_beta 126.945901
_cell_angle_gamma 90.000000
_cell_volume 2375.313605
_symmetry_space_group_name_H-M "C 2/C"
_symmetry_group_IT_number 15
_symmetry_cell_setting 'monoclinic'
loop_
_space_group_symop_operation_xyz
x,y,z
-x,y,1/2-z
-x,-y,-z
x,-y,1/2+z
1/2+x,1/2+y,z
1/2-x,1/2+y,1/2-z
1/2-x,1/2-y,-z
1/2+x,1/2-y,1/2+z
loop_
_atom_site_type_symbol
_atom_site_label
_atom_site_fract_x
_atom_site_fract_y
_atom_site_fract_z
Si Si1 0.339923 0.099971 0.268162
Si Si2 0.140794 0.286570 0.223475
Si Si3 0.083403 0.556786 0.816812
Si Si4 0.080138 0.260658 0.815846
Si Si5 0.196741 0.118716 0.482803
Si Si6 0.512203 0.579113 0.909438
Si Si7 0.681675 0.543759 0.159146
O O1 0.373215 0.085592 0.475633
O O2 0.369897 0.191694 0.236122
O O3 0.248972 0.091126 0.162888
O O4 0.372347 0.020947 0.209363
O O5 0.079244 0.356349 0.203671
O O6 0.146606 0.200315 0.341923
O O7 0.222686 0.336768 0.358678
O O8 0.126433 0.270416 0.033295
O O9 0.000000 0.527104 0.750000
O O10 0.043502 0.166615 0.690126
O O11 0.000000 0.307923 0.750000
O O12 0.204891 0.049338 0.359041
O O13 0.169891 0.057411 0.578586
O O14 0.500000 0.522181 0.750000
O O15 0.500000 0.500000 0.000000
O O16 0.602149 0.597580 0.037971
#
# Coordination Sequence:
#
# PCOD9305764 Si02
#       7
#     8   8   8   8   8   8   8
#     4  12  24  44  73 115 143 202 254 314 388 459
#     4  11  24  47  70 107 158 196 255 316 385 452
#     4  12  24  43  73 108 155 202 251 312 387 467
#     4  11  25  48  73 107 154 198 251 320 384 454
#     4  11  25  45  74 109 150 198 251 328 374 454
#     4  11  26  50  77 111 151 205 259 318 383 459
#     4  12  24  47  77 109 151 197 265 308 386 460
#
# _framework density 23.575835999999999
#
# number of rings (size 3 to 8) (size 9 to 14) (size 15 to 20)
#    0.000    0.571    2.857    5.143    2.000    1.143 
#    0.000    7.857    0.000    0.000    0.000    0.000 
#    0.000    0.000    0.000    0.000    0.000    0.000 
#
# Total GULP energy -156118.001224 kJ/mol
# GULP energy per Si atom -5575.642901 kJ/mol
# Density = 2.352218 g / cm^3
# Si number density = 23.575836 Si / 1000 Ang^3
#
#
#
# Elastic Constant Matrix: (Units=GPa)
#
#
# Indices 1 2 3 4 5 6 
#
# 1 96.6028 46.3578 53.8209 0.0000 -0.5941 0.0000
# 2 46.3578 137.8120 69.1421 0.0000 -16.3659 0.0000
# 3 53.8209 69.1421 175.8234 0.0000 -8.4869 0.0000
# 4 0.0000 0.0000 0.0000 27.4416 0.0000 -28.1120
# 5 -0.5941 -16.3659 -8.4869 0.0000 41.5867 0.0000
# 6 0.0000 0.0000 0.0000 -28.1120 0.0000 -21.8522
#
#
#
# Elastic Compliance Matrix: (Units=1/GPa)
#
#
# Indices 1 2 3 4 5 6 
#
# 1 0.013556 -0.003287 -0.002939 0.000000 -0.001700 0.000000
# 2 -0.003287 0.010187 -0.002836 0.000000 0.003383 0.000000
# 3 -0.002939 -0.002836 0.007723 0.000000 0.000418 0.000000
# 4 0.000000 0.000000 0.000000 0.015722 0.000000 -0.020225
# 5 -0.001700 0.003383 0.000418 0.000000 0.025439 0.000000
# 6 0.000000 0.000000 0.000000 -0.020225 0.000000 -0.019743
#
#
# Mechanical properties :
#
#
# Convention : Reuss Voigt Hill
#
# Bulk Modulus (GPa) = 74.96066 83.20888 79.08477
# Shear Modulus (GPa) = 66.26440 25.49636 45.88038
#
# Velocity S-wave (km/s) = 5.30735 3.29213 4.41622
# Velocity P-wave (km/s) = 8.33198 7.05844 7.72151
#
# Compressibility (1/GPa) = 0.01334033
#
# Stress axis : x y z
#
# Youngs Moduli (GPa) = 73.76711 98.16516 129.48821
#
# Poissons Ratio (x) = 0.32271 0.38056
# Poissons Ratio (y) = 0.24251 0.36728
# Poissons Ratio (z) = 0.21680 0.27843
#
# Static dielectric constant tensor:
#      x y z
#    x 1.950800 0.000000 -0.016780 
#    y 0.000000 1.765830 0.000000 
#    z -0.016780 0.000000 1.967680 
# 
# From -- ./inp_files/61983.got.cif
#   From: 2010.05.17/outbox.cif.g08.bks.cpg/sg15_31_cif.got.tgz:61983.got - 2010.06.03 18:47:42.
