data_PCOD9305386
_publ_section_title
;
Structure prediction by ZEFSAII (Michael W. Deem and Ramdas Pophale) SiO2 
 PCOD9305386
Probable space group: C 2/C
;
_chemical_formula_sum "Si O2"
_cell_formula_units_Z 64
_cell_length_a 16.929141
_cell_length_b 8.691580
_cell_length_c 30.200336
_cell_angle_alpha 90.000000
_cell_angle_beta 140.852082
_cell_angle_gamma 90.000000
_cell_volume 2805.421698
_symmetry_space_group_name_H-M "C 2/C"
_symmetry_group_IT_number 15
_symmetry_cell_setting 'monoclinic'
loop_
_space_group_symop_operation_xyz
x,y,z
-x,y,1/2-z
-x,-y,-z
x,-y,1/2+z
1/2+x,1/2+y,z
1/2-x,1/2+y,1/2-z
1/2-x,1/2-y,-z
1/2+x,1/2-y,1/2+z
loop_
_atom_site_type_symbol
_atom_site_label
_atom_site_fract_x
_atom_site_fract_y
_atom_site_fract_z
Si Si1 0.998349 0.579290 0.928464
Si Si2 0.746016 0.424997 0.585167
Si Si3 0.234195 0.936736 0.173324
Si Si4 0.136128 0.133467 0.460862
Si Si5 0.459693 0.441484 0.331098
Si Si6 0.200539 0.428133 0.078731
Si Si7 0.022754 0.581980 0.174968
Si Si8 0.367715 0.368350 0.708213
O O1 0.022945 0.751825 0.922930
O O2 0.887941 0.577786 0.916023
O O3 0.976903 0.475858 0.875748
O O4 0.121644 0.520123 0.007833
O O5 0.703855 0.471522 0.615725
O O6 0.672263 0.524206 0.517117
O O7 0.726763 0.242559 0.572481
O O8 0.892054 0.464872 0.640897
O O9 0.125817 0.938632 0.162227
O O10 0.267331 0.763827 0.172869
O O11 0.358679 0.009104 0.249164
O O12 0.250000 0.250000 0.500000
O O13 0.088895 0.022767 0.401435
O O14 0.472726 0.266269 0.321499
O O15 0.392219 0.539714 0.263937
O O16 0.320744 0.515383 0.150130
O O17 0.500000 0.299572 0.750000
#
# Coordination Sequence:
#
# PCOD9305386 Si02
#       8
#     8   8   8   8   8   8   8   8
#     4  11  24  44  72  97 141 183 231 293 346 429
#     4  12  26  44  71 100 142 178 233 297 345 427
#     4  12  26  46  70 103 142 186 234 290 356 427
#     4  12  27  45  71 102 136 187 238 292 357 422
#     4  12  27  45  72 101 142 186 237 291 357 423
#     4  11  25  44  69 105 138 182 234 287 358 413
#     4  12  25  45  70 104 140 184 234 291 357 416
#     4  12  26  44  74 104 145 188 235 295 353 429
#
# _framework density 22.81297
#
# number of rings (size 3 to 8) (size 9 to 14) (size 15 to 20)
#    0.000    0.250    1.250    7.875    5.250    5.000 
#    0.000    0.000    0.000    0.000    0.000    0.000 
#    0.000    0.000    0.000    0.000    0.000    0.000 
#
# Total GULP energy -179447.961525 kJ/mol
# GULP energy per Si atom -5607.748798 kJ/mol
# Density = 2.276105 g / cm^3
# Si number density = 22.812970 Si / 1000 Ang^3
#
#
#
# Elastic Constant Matrix: (Units=GPa)
#
#
# Indices 1 2 3 4 5 6 
#
# 1 85.3482 -3.0382 -10.6102 0.0000 -8.8581 0.0000
# 2 -3.0382 97.5587 -1.5228 0.0000 -10.1582 0.0000
# 3 -10.6102 -1.5228 55.2182 0.0000 -17.7932 0.0000
# 4 0.0000 0.0000 0.0000 23.9244 0.0000 -11.9111
# 5 -8.8581 -10.1582 -17.7932 0.0000 38.1575 0.0000
# 6 0.0000 0.0000 0.0000 -11.9111 0.0000 32.5865
#
#
#
# Elastic Compliance Matrix: (Units=1/GPa)
#
#
# Indices 1 2 3 4 5 6 
#
# 1 0.012807 0.001003 0.004157 0.000000 0.005179 0.000000
# 2 0.001003 0.010715 0.001745 0.000000 0.003899 0.000000
# 3 0.004157 0.001745 0.022851 0.000000 0.012085 0.000000
# 4 0.000000 0.000000 0.000000 0.051097 0.000000 0.018677
# 5 0.005179 0.003899 0.012085 0.000000 0.034083 0.000000
# 6 0.000000 0.000000 0.000000 0.018677 0.000000 0.037514
#
#
# Mechanical properties :
#
#
# Convention : Reuss Voigt Hill
#
# Bulk Modulus (GPa) = 16.61635 23.08697 19.85166
# Shear Modulus (GPa) = 28.51965 35.82011 32.16988
#
# Velocity S-wave (km/s) = 3.53958 3.96683 3.75928
# Velocity P-wave (km/s) = 4.89943 5.57880 5.25012
#
# Compressibility (1/GPa) = 0.06018167
#
# Stress axis : x y z
#
# Youngs Moduli (GPa) = 78.08423 93.33014 43.76152
#
# Poissons Ratio (x) = -0.09360 -0.18192
# Poissons Ratio (y) = -0.07831 -0.07634
# Poissons Ratio (z) = -0.32461 -0.16282
#
# Static dielectric constant tensor:
#      x y z
#    x 1.868950 0.000000 0.023440 
#    y 0.000000 1.792480 0.000000 
#    z 0.023440 0.000000 1.799170 
# 
# From -- ./inp_files/315736.got.cif
#   From: 2010.05.17/outbox.cif.g08.bks.cpg/sg15_158_cif.got.tgz:315736.got - 2010.06.03 18:47:42.
