data_PCOD9305118
_publ_section_title
;
Structure prediction by ZEFSAII (Michael W. Deem and Ramdas Pophale) SiO2 
 PCOD9305118
Probable space group: C 2/C
;
_chemical_formula_sum "Si O2"
_cell_formula_units_Z 40
_cell_length_a 15.925287
_cell_length_b 13.726430
_cell_length_c 12.348415
_cell_angle_alpha 90.000000
_cell_angle_beta 142.811343
_cell_angle_gamma 90.000000
_cell_volume 1631.587222
_symmetry_space_group_name_H-M "C 2/C"
_symmetry_group_IT_number 15
_symmetry_cell_setting 'monoclinic'
loop_
_space_group_symop_operation_xyz
x,y,z
-x,y,1/2-z
-x,-y,-z
x,-y,1/2+z
1/2+x,1/2+y,z
1/2-x,1/2+y,1/2-z
1/2-x,1/2-y,-z
1/2+x,1/2-y,1/2+z
loop_
_atom_site_type_symbol
_atom_site_label
_atom_site_fract_x
_atom_site_fract_y
_atom_site_fract_z
Si Si1 0.997157 0.735898 0.452494
Si Si2 0.715829 0.066775 0.736293
Si Si3 0.366867 0.707115 0.040938
Si Si4 0.631937 0.915740 0.817469
Si Si5 0.402992 0.572033 0.742254
O O1 0.919418 0.734244 0.488588
O O2 0.904163 0.689294 0.264363
O O3 0.996706 0.846756 0.404501
O O4 0.129013 0.661601 0.602071
O O5 0.820217 0.021369 0.755302
O O6 0.634133 0.982668 0.712749
O O7 0.805183 0.110879 0.925496
O O8 0.500000 0.692793 0.250000
O O9 0.250000 0.750000 0.000000
O O10 0.500000 0.952976 0.750000
O O11 0.768089 0.902994 0.029465
O O12 0.500000 0.526961 0.750000
#
# Coordination Sequence:
#
# PCOD9305118 Si02
#       5
#     8   8   8   8   8
#     4  11  24  44  72 106 135 184 251 284 342 434
#     4  11  26  44  70 109 136 186 242 289 352 432
#     4  11  24  42  70 100 139 186 231 288 352 421
#     4  12  26  44  75 104 146 185 236 297 359 422
#     4  11  27  45  73 105 144 188 235 297 360 422
#
# _framework density 24.516005
#
# number of rings (size 3 to 8) (size 9 to 14) (size 15 to 20)
#    0.000    0.800    4.000    1.800    8.400    1.600 
#    0.000    0.000    0.000    0.000    0.000    0.000 
#    0.000    0.000    0.000    0.000    0.000    0.000 
#
# Total GULP energy -111532.239345 kJ/mol
# GULP energy per Si atom -5576.611967 kJ/mol
# Density = 2.446021 g / cm^3
# Si number density = 24.516005 Si / 1000 Ang^3
#
#
#
# Elastic Constant Matrix: (Units=GPa)
#
#
# Indices 1 2 3 4 5 6 
#
# 1 230.0991 39.6682 12.2671 0.0000 -7.9113 0.0000
# 2 39.6682 40.3993 6.7497 0.0000 0.8332 0.0000
# 3 12.2671 6.7497 142.4394 0.0000 -1.9181 0.0000
# 4 0.0000 0.0000 0.0000 24.7133 0.0000 -18.0651
# 5 -7.9113 0.8332 -1.9181 0.0000 35.4500 0.0000
# 6 0.0000 0.0000 0.0000 -18.0651 0.0000 -13.1997
#
#
#
# Elastic Compliance Matrix: (Units=1/GPa)
#
#
# Indices 1 2 3 4 5 6 
#
# 1 0.005296 -0.005195 -0.000193 0.000000 0.001294 0.000000
# 2 -0.005195 0.030061 -0.001003 0.000000 -0.001920 0.000000
# 3 -0.000193 -0.001003 0.007090 0.000000 0.000364 0.000000
# 4 0.000000 0.000000 0.000000 0.020228 0.000000 -0.027684
# 5 0.001294 -0.001920 0.000364 0.000000 0.028562 0.000000
# 6 0.000000 0.000000 0.000000 -0.027684 0.000000 -0.037872
#
#
# Mechanical properties :
#
#
# Convention : Reuss Voigt Hill
#
# Bulk Modulus (GPa) = 33.70867 58.92309 46.31588
# Shear Modulus (GPa) = 65.75943 33.00957 49.38450
#
# Velocity S-wave (km/s) = 5.18472 3.67338 4.49305
# Velocity P-wave (km/s) = 7.04423 6.48678 6.77125
#
# Compressibility (1/GPa) = 0.02966595
#
# Stress axis : x y z
#
# Youngs Moduli (GPa) = 188.81162 33.26571 141.05283
#
# Poissons Ratio (x) = 0.17281 0.02716
# Poissons Ratio (y) = 0.98087 0.14147
# Poissons Ratio (z) = 0.03635 0.03336
#
# Static dielectric constant tensor:
#      x y z
#    x 1.963260 0.000000 0.067090 
#    y 0.000000 1.980850 0.000000 
#    z 0.067090 0.000000 1.931110 
# 
# From -- ./inp_files/98084.got.cif
#   From: 2010.05.17/outbox.cif.g08.bks.cpg/sg15_50_cif.got.tgz:98084.got - 2010.06.03 18:47:42.
