data_PCOD9305062
_publ_section_title
;
Structure prediction by ZEFSAII (Michael W. Deem and Ramdas Pophale) SiO2 
 PCOD9305062
Probable space group: C 2/C
;
_chemical_formula_sum "Si O2"
_cell_formula_units_Z 56
_cell_length_a 16.093202
_cell_length_b 16.902252
_cell_length_c 12.279526
_cell_angle_alpha 90.000000
_cell_angle_beta 58.503034
_cell_angle_gamma 90.000000
_cell_volume 2848.055948
_symmetry_space_group_name_H-M "C 2/C"
_symmetry_group_IT_number 15
_symmetry_cell_setting 'monoclinic'
loop_
_space_group_symop_operation_xyz
x,y,z
-x,y,1/2-z
-x,-y,-z
x,-y,1/2+z
1/2+x,1/2+y,z
1/2-x,1/2+y,1/2-z
1/2-x,1/2-y,-z
1/2+x,1/2-y,1/2+z
loop_
_atom_site_type_symbol
_atom_site_label
_atom_site_fract_x
_atom_site_fract_y
_atom_site_fract_z
Si Si1 0.249840 0.923063 0.539421
Si Si2 0.404268 0.044602 0.523094
Si Si3 0.810157 0.816816 0.525044
Si Si4 0.113651 0.055512 0.694867
Si Si5 0.205142 0.701578 0.310674
Si Si6 0.756991 0.115237 0.708464
Si Si7 0.484779 0.208289 0.388002
O O1 0.269144 0.845668 0.598452
O O2 0.239281 0.906498 0.419854
O O3 0.339438 0.983094 0.499623
O O4 0.154560 0.967887 0.649210
O O5 0.335146 0.075139 0.668509
O O6 0.435534 0.122443 0.435327
O O7 0.500000 0.000000 0.500000
O O8 0.750000 0.750000 0.500000
O O9 0.830878 0.888736 0.430190
O O10 0.750840 0.840489 0.672834
O O11 0.912233 0.774609 0.483827
O O12 0.148597 0.085946 0.788657
O O13 0.000000 0.061702 0.750000
O O14 0.246928 0.790118 0.279503
O O15 0.089122 0.706613 0.374105
O O16 0.500000 0.226132 0.250000
#
# Coordination Sequence:
#
# PCOD9305062 Si02
#       7
#     8   8   8   8   8   8   8
#     4  11  27  43  68  94 136 184 215 276 343 409
#     4  11  24  42  64 101 134 170 222 274 338 398
#     4  12  21  41  69 101 130 169 228 284 325 387
#     4  11  25  45  68  99 130 173 228 281 334 391
#     4  12  24  44  66  98 137 175 224 275 337 402
#     4  11  24  46  68  95 136 175 222 275 336 405
#     4  12  23  38  70 101 128 172 224 283 334 384
#
# _framework density 19.662534999999998
#
# number of rings (size 3 to 8) (size 9 to 14) (size 15 to 20)
#    0.000    0.571    5.714    2.571    6.000    0.571 
#    2.571    0.000    0.000    0.000    0.000    0.000 
#    0.000    0.000    0.000    0.000    0.000    0.000 
#
# Total GULP energy -156676.026242 kJ/mol
# GULP energy per Si atom -5595.572366 kJ/mol
# Density = 1.961778 g / cm^3
# Si number density = 19.662535 Si / 1000 Ang^3
#
#
#
# Elastic Constant Matrix: (Units=GPa)
#
#
# Indices 1 2 3 4 5 6 
#
# 1 145.8877 47.6672 71.4646 0.0000 4.1014 0.0000
# 2 47.6672 62.3856 18.6326 0.0000 9.3935 0.0000
# 3 71.4646 18.6326 85.2726 0.0000 16.8756 0.0000
# 4 0.0000 0.0000 0.0000 16.8291 0.0000 6.0180
# 5 4.1014 9.3935 16.8756 0.0000 35.7651 0.0000
# 6 0.0000 0.0000 0.0000 6.0180 0.0000 21.0494
#
#
#
# Elastic Compliance Matrix: (Units=1/GPa)
#
#
# Indices 1 2 3 4 5 6 
#
# 1 0.015891 -0.009377 -0.012569 0.000000 0.006571 0.000000
# 2 -0.009377 0.022982 0.004212 0.000000 -0.006948 0.000000
# 3 -0.012569 0.004212 0.023466 0.000000 -0.010737 0.000000
# 4 0.000000 0.000000 0.000000 0.066188 0.000000 -0.018923
# 5 0.006571 -0.006948 -0.010737 0.000000 0.034098 0.000000
# 6 0.000000 0.000000 0.000000 -0.018923 0.000000 0.052918
#
#
# Mechanical properties :
#
#
# Convention : Reuss Voigt Hill
#
# Bulk Modulus (GPa) = 37.21609 63.23054 50.22331
# Shear Modulus (GPa) = 19.23318 25.11415 22.17366
#
# Velocity S-wave (km/s) = 3.13095 3.57775 3.36178
# Velocity P-wave (km/s) = 5.66030 7.02102 6.37706
#
# Compressibility (1/GPa) = 0.02687010
#
# Stress axis : x y z
#
# Youngs Moduli (GPa) = 62.92897 43.51148 42.61572
#
# Poissons Ratio (x) = 0.40802 0.53565
# Poissons Ratio (y) = 0.59010 -0.17950
# Poissons Ratio (z) = 0.79097 -0.18327
#
# Static dielectric constant tensor:
#      x y z
#    x 1.684760 0.000000 -0.015100 
#    y 0.000000 1.696170 0.000000 
#    z -0.015100 0.000000 1.683120 
# 
# From -- ./inp_files/98655.got.cif
#   From: 2010.05.17/outbox.cif.g08.bks.cpg/sg15_50_cif.got.tgz:98655.got - 2010.06.03 18:47:42.
