data_PCOD9305838
_publ_section_title
;
Structure prediction by ZEFSAII (Michael W. Deem and Ramdas Pophale) SiO2 
 PCOD9305838
Probable space group: C 2/C
;
_chemical_formula_sum "Si O2"
_cell_formula_units_Z 32
_cell_length_a 15.829823
_cell_length_b 7.676175
_cell_length_c 11.446485
_cell_angle_alpha 90.000000
_cell_angle_beta 111.798121
_cell_angle_gamma 90.000000
_cell_volume 1291.439437
_symmetry_space_group_name_H-M "C 2/C"
_symmetry_group_IT_number 15
_symmetry_cell_setting 'monoclinic'
loop_
_space_group_symop_operation_xyz
x,y,z
-x,y,1/2-z
-x,-y,-z
x,-y,1/2+z
1/2+x,1/2+y,z
1/2-x,1/2+y,1/2-z
1/2-x,1/2-y,-z
1/2+x,1/2-y,1/2+z
loop_
_atom_site_type_symbol
_atom_site_label
_atom_site_fract_x
_atom_site_fract_y
_atom_site_fract_z
Si Si1 0.804483 0.344431 0.267208
Si Si2 0.239518 0.047185 0.428998
Si Si3 0.916950 0.116545 0.501607
Si Si4 0.407783 0.061382 0.158762
O O1 0.775235 0.228932 0.142316
O O2 0.729626 0.399249 0.323056
O O3 0.877765 0.228163 0.373703
O O4 0.844427 0.527137 0.239085
O O5 0.342937 0.020597 0.525856
O O6 0.164750 0.999325 0.487023
O O7 0.937496 0.256755 0.615061
O O8 0.000000 0.000000 0.500000
O O9 0.500000 0.970505 0.250000
#
# Coordination Sequence:
#
# PCOD9305838 Si02
#       4
#     8   8   8   8
#     4  11  24  47  77 107 152 195 256 312 371 444
#     4  11  24  48  76 111 148 201 250 307 378 446
#     4  11  27  47  75 112 152 200 251 307 380 449
#     4  11  26  47  74 111 151 191 252 308 376 443
#
# _framework density 24.778555000000001
#
# number of rings (size 3 to 8) (size 9 to 14) (size 15 to 20)
#    0.000    1.000    0.000    6.750    7.000    4.000 
#    9.000    0.000    0.000    0.000    0.000    0.000 
#    0.000    0.000    0.000    0.000    0.000    0.000 
#
# Total GULP energy -89380.687034 kJ/mol
# GULP energy per Si atom -5586.292940 kJ/mol
# Density = 2.472216 g / cm^3
# Si number density = 24.778555 Si / 1000 Ang^3
#
#
#
# Elastic Constant Matrix: (Units=GPa)
#
#
# Indices 1 2 3 4 5 6 
#
# 1 149.8979 78.7157 65.1991 0.0000 -12.0742 0.0000
# 2 78.7157 156.6225 58.7833 0.0000 -11.6452 0.0000
# 3 65.1991 58.7833 135.9659 0.0000 -1.8657 0.0000
# 4 0.0000 0.0000 0.0000 50.6296 0.0000 -22.9418
# 5 -12.0742 -11.6452 -1.8657 0.0000 30.4205 0.0000
# 6 0.0000 0.0000 0.0000 -22.9418 0.0000 48.6609
#
#
#
# Elastic Compliance Matrix: (Units=1/GPa)
#
#
# Indices 1 2 3 4 5 6 
#
# 1 0.010255 -0.003748 -0.003264 0.000000 0.002435 0.000000
# 2 -0.003748 0.009223 -0.002164 0.000000 0.001910 0.000000
# 3 -0.003264 -0.002164 0.009834 0.000000 -0.001521 0.000000
# 4 0.000000 0.000000 0.000000 0.025117 0.000000 0.011842
# 5 0.002435 0.001910 -0.001521 0.000000 0.034477 0.000000
# 6 0.000000 0.000000 0.000000 0.011842 0.000000 0.026133
#
#
# Mechanical properties :
#
#
# Convention : Reuss Voigt Hill
#
# Bulk Modulus (GPa) = 91.23224 94.20918 92.72071
# Shear Modulus (GPa) = 36.48436 41.92807 39.20621
#
# Velocity S-wave (km/s) = 3.84137 4.11799 3.98208
# Velocity P-wave (km/s) = 7.52156 7.79188 7.65791
#
# Compressibility (1/GPa) = 0.01096104
#
# Stress axis : x y z
#
# Youngs Moduli (GPa) = 97.51157 108.42910 101.68309
#
# Poissons Ratio (x) = 0.40640 0.33187
# Poissons Ratio (y) = 0.36548 0.22002
# Poissons Ratio (z) = 0.31826 0.23462
#
# Static dielectric constant tensor:
#      x y z
#    x 1.939710 0.000000 -0.016160 
#    y 0.000000 2.052370 0.000000 
#    z -0.016160 0.000000 2.061140 
# 
# From -- ./inp_files/93576.got.cif
#   From: 2010.05.17/outbox.cif.g08.bks.cpg/sg15_47_cif.got.tgz:93576.got - 2010.06.03 18:47:42.
