data_PCOD9305831
_publ_section_title
;
Structure prediction by ZEFSAII (Michael W. Deem and Ramdas Pophale) SiO2 
 PCOD9305831
Probable space group: C 2/C
;
_chemical_formula_sum "Si O2"
_cell_formula_units_Z 40
_cell_length_a 14.398572
_cell_length_b 13.617379
_cell_length_c 12.282650
_cell_angle_alpha 90.000000
_cell_angle_beta 46.738762
_cell_angle_gamma 90.000000
_cell_volume 1753.789657
_symmetry_space_group_name_H-M "C 2/C"
_symmetry_group_IT_number 15
_symmetry_cell_setting 'monoclinic'
loop_
_space_group_symop_operation_xyz
x,y,z
-x,y,1/2-z
-x,-y,-z
x,-y,1/2+z
1/2+x,1/2+y,z
1/2-x,1/2+y,1/2-z
1/2-x,1/2-y,-z
1/2+x,1/2-y,1/2+z
loop_
_atom_site_type_symbol
_atom_site_label
_atom_site_fract_x
_atom_site_fract_y
_atom_site_fract_z
Si Si1 0.370589 0.312373 0.442695
Si Si2 0.354715 0.780129 0.324370
Si Si3 0.500000 0.860382 0.750000
Si Si4 0.382332 0.010077 0.682361
Si Si5 0.000000 0.018139 0.750000
Si Si6 0.365490 0.405356 0.677947
O O1 0.250000 0.250000 0.500000
O O2 0.467677 0.220556 0.368111
O O3 0.386833 0.401685 0.344544
O O4 0.392222 0.374149 0.533879
O O5 0.500000 0.768282 0.250000
O O6 0.250000 0.750000 0.500000
O O7 0.326352 0.698006 0.259044
O O8 0.357872 0.885972 0.262017
O O9 0.404852 0.933204 0.764094
O O10 0.254201 0.977763 0.725203
O O11 0.500000 0.000000 0.500000
O O12 0.023134 0.950182 0.836362
#
# Coordination Sequence:
#
# PCOD9305831 Si02
#       6
#     8   8   4   8   4   8
#     4  11  25  47  73 110 149 197 257 317 384 470
#     4  12  28  50  77 118 164 208 271 336 406 487
#     4  11  24  47  76 108 148 195 266 315 384 478
#     4  12  27  46  80 112 155 211 262 324 407 479
#     4  11  28  45  74 110 150 203 252 311 406 462
#     4  12  27  47  78 107 156 198 260 323 391 471
#
# _framework density 22.807751
#
# number of rings (size 3 to 8) (size 9 to 14) (size 15 to 20)
#    0.000    0.400    4.000    3.000    8.400    1.600 
#    0.000    0.000    0.000    0.000    0.000    0.000 
#    0.000    0.000    0.000    0.000    0.000    0.000 
#
# Total GULP energy -111351.814991 kJ/mol
# GULP energy per Si atom -5567.590750 kJ/mol
# Density = 2.275584 g / cm^3
# Si number density = 22.807751 Si / 1000 Ang^3
#
#
#
# Elastic Constant Matrix: (Units=GPa)
#
#
# Indices 1 2 3 4 5 6 
#
# 1 108.2444 60.5634 22.2628 0.0000 3.4323 0.0000
# 2 60.5634 208.1351 78.5637 0.0000 9.6251 0.0000
# 3 22.2628 78.5637 91.6662 0.0000 -3.5663 0.0000
# 4 0.0000 0.0000 0.0000 25.3174 0.0000 20.8772
# 5 3.4323 9.6251 -3.5663 0.0000 20.8110 0.0000
# 6 0.0000 0.0000 0.0000 20.8772 0.0000 51.4546
#
#
#
# Elastic Compliance Matrix: (Units=1/GPa)
#
#
# Indices 1 2 3 4 5 6 
#
# 1 0.011038 -0.003223 0.000070 0.000000 -0.000318 0.000000
# 2 -0.003223 0.008459 -0.006643 0.000000 -0.004519 0.000000
# 3 0.000070 -0.006643 0.016817 0.000000 0.005943 0.000000
# 4 0.000000 0.000000 0.000000 0.059359 0.000000 -0.024084
# 5 -0.000318 -0.004519 0.005943 0.000000 0.051212 0.000000
# 6 0.000000 0.000000 0.000000 -0.024084 0.000000 0.029207
#
#
# Mechanical properties :
#
#
# Convention : Reuss Voigt Hill
#
# Bulk Modulus (GPa) = 59.80818 81.20283 70.50551
# Shear Modulus (GPa) = 24.84381 35.96032 30.40206
#
# Velocity S-wave (km/s) = 3.30399 3.97504 3.65495
# Velocity P-wave (km/s) = 6.39021 7.53315 6.98510
#
# Compressibility (1/GPa) = 0.01672012
#
# Stress axis : x y z
#
# Youngs Moduli (GPa) = 90.59963 118.21909 59.46459
#
# Poissons Ratio (x) = 0.38105 -0.00413
# Poissons Ratio (y) = 0.29203 0.39501
# Poissons Ratio (z) = -0.00630 0.78530
#
# Static dielectric constant tensor:
#      x y z
#    x 1.925580 0.000000 0.127320 
#    y 0.000000 1.875290 0.000000 
#    z 0.127320 0.000000 2.302160 
# 
# From -- ./inp_files/96041.got.cif
#   From: 2010.05.17/outbox.cif.g08.bks.cpg/sg15_49_cif.got.tgz:96041.got - 2010.06.03 18:47:42.
