data_PCOD9305861
_publ_section_title
;
Structure prediction by ZEFSAII (Michael W. Deem and Ramdas Pophale) SiO2 
 PCOD9305861
Probable space group: C 2/C
;
_chemical_formula_sum "Si O2"
_cell_formula_units_Z 32
_cell_length_a 6.905706
_cell_length_b 7.469395
_cell_length_c 26.110772
_cell_angle_alpha 90.000000
_cell_angle_beta 87.284030
_cell_angle_gamma 90.000000
_cell_volume 1345.318485
_symmetry_space_group_name_H-M "C 2/C"
_symmetry_group_IT_number 15
_symmetry_cell_setting 'monoclinic'
loop_
_space_group_symop_operation_xyz
x,y,z
-x,y,1/2-z
-x,-y,-z
x,-y,1/2+z
1/2+x,1/2+y,z
1/2-x,1/2+y,1/2-z
1/2-x,1/2-y,-z
1/2+x,1/2-y,1/2+z
loop_
_atom_site_type_symbol
_atom_site_label
_atom_site_fract_x
_atom_site_fract_y
_atom_site_fract_z
Si Si1 0.928770 0.714634 0.193487
Si Si2 0.563366 0.165816 0.646591
Si Si3 0.684529 0.789405 0.943795
Si Si4 0.320020 0.667928 0.896552
O O1 0.699991 0.742585 0.187354
O O2 0.000000 0.734460 0.250000
O O3 0.990098 0.520656 0.170906
O O4 0.043109 0.851169 0.155035
O O5 0.703384 0.154311 0.595588
O O6 0.371987 0.257702 0.625151
O O7 0.456011 0.766510 0.936058
O O8 0.750315 0.984409 0.923381
O O9 0.750000 0.750000 0.000000
#
# Coordination Sequence:
#
# PCOD9305861 Si02
#       4
#     8   8   8   8
#     4  11  28  47  75 105 143 189 234 291 356 414
#     4  11  25  49  70 107 142 183 237 294 341 430
#     4  11  26  47  75 105 143 189 234 291 356 414
#     4  11  24  48  69 108 141 184 237 294 340 431
#
# _framework density 23.786187000000002
#
# number of rings (size 3 to 8) (size 9 to 14) (size 15 to 20)
#    0.000    1.000    5.000    0.750   10.500    2.000 
#    0.000    1.250    0.000    0.000    0.000    0.000 
#    0.000    0.000    0.000    0.000    0.000    0.000 
#
# Total GULP energy -89434.742710 kJ/mol
# GULP energy per Si atom -5589.671419 kJ/mol
# Density = 2.373205 g / cm^3
# Si number density = 23.786187 Si / 1000 Ang^3
#
#
#
# Elastic Constant Matrix: (Units=GPa)
#
#
# Indices 1 2 3 4 5 6 
#
# 1 213.8413 61.6453 65.0963 0.0000 64.3158 0.0000
# 2 61.6453 110.4896 15.2522 0.0000 17.8202 0.0000
# 3 65.0963 15.2522 168.7671 0.0000 63.9050 0.0000
# 4 0.0000 0.0000 0.0000 28.7124 0.0000 0.8551
# 5 64.3158 17.8202 63.9050 0.0000 50.3389 0.0000
# 6 0.0000 0.0000 0.0000 0.8551 0.0000 42.2949
#
#
#
# Elastic Compliance Matrix: (Units=1/GPa)
#
#
# Indices 1 2 3 4 5 6 
#
# 1 0.008698 -0.003148 0.001378 0.000000 -0.011747 0.000000
# 2 -0.003148 0.010796 0.000313 0.000000 -0.000197 0.000000
# 3 0.001378 0.000313 0.011697 0.000000 -0.016721 0.000000
# 4 0.000000 0.000000 0.000000 0.034849 0.000000 -0.000705
# 5 -0.011747 -0.000197 -0.016721 0.000000 0.056171 0.000000
# 6 0.000000 0.000000 0.000000 -0.000705 0.000000 0.023658
#
#
# Mechanical properties :
#
#
# Convention : Reuss Voigt Hill
#
# Bulk Modulus (GPa) = 35.36535 86.34287 60.85411
# Shear Modulus (GPa) = 31.60409 47.67619 39.64014
#
# Velocity S-wave (km/s) = 3.64905 4.48187 4.08673
# Velocity P-wave (km/s) = 5.71440 7.94741 6.92155
#
# Compressibility (1/GPa) = 0.02827627
#
# Stress axis : x y z
#
# Youngs Moduli (GPa) = 114.97357 92.62996 85.49268
#
# Poissons Ratio (x) = 0.29162 -0.11780
# Poissons Ratio (y) = 0.36196 -0.02679
# Poissons Ratio (z) = -0.15843 -0.02902
#
# Static dielectric constant tensor:
#      x y z
#    x 1.984380 0.000000 0.009530 
#    y 0.000000 1.984340 0.000000 
#    z 0.009530 0.000000 1.850380 
# 
# From -- ./inp_files/304605.got.cif
#   From: 2010.05.17/outbox.cif.g08.bks.cpg/sg15_153_cif.got.tgz:304605.got - 2010.06.03 18:47:42.
