data_PCOD9305958
_publ_section_title
;
Structure prediction by ZEFSAII (Michael W. Deem and Ramdas Pophale) SiO2 
 PCOD9305958
Probable space group: C 2/C
;
_chemical_formula_sum "Si O2"
_cell_formula_units_Z 44
_cell_length_a 5.120958
_cell_length_b 23.424171
_cell_length_c 16.709156
_cell_angle_alpha 90.000000
_cell_angle_beta 118.922705
_cell_angle_gamma 90.000000
_cell_volume 1754.338772
_symmetry_space_group_name_H-M "C 2/C"
_symmetry_group_IT_number 15
_symmetry_cell_setting 'monoclinic'
loop_
_space_group_symop_operation_xyz
x,y,z
-x,y,1/2-z
-x,-y,-z
x,-y,1/2+z
1/2+x,1/2+y,z
1/2-x,1/2+y,1/2-z
1/2-x,1/2-y,-z
1/2+x,1/2-y,1/2+z
loop_
_atom_site_type_symbol
_atom_site_label
_atom_site_fract_x
_atom_site_fract_y
_atom_site_fract_z
Si Si1 0.747546 0.715155 0.663318
Si Si2 0.570732 0.031752 0.595259
Si Si3 0.500000 0.622116 0.750000
Si Si4 0.297525 0.365254 0.473312
Si Si5 0.000000 0.049345 0.250000
Si Si6 0.966869 0.671884 0.080387
Si Si7 0.000000 0.391562 0.750000
O O1 0.651826 0.665060 0.709288
O O2 0.507110 0.760681 0.598747
O O3 0.000000 0.748726 0.750000
O O4 0.872873 0.682127 0.605104
O O5 0.274992 0.070234 0.564140
O O6 0.810012 0.080818 0.661578
O O7 0.500000 0.000000 0.500000
O O8 0.708856 0.982201 0.670114
O O9 0.187043 0.352443 0.545947
O O10 0.861302 0.150436 0.489590
O O11 0.177723 0.077116 0.201704
O O12 0.032828 0.645042 0.175610
#
# Coordination Sequence:
#
# PCOD9305958 Si02
#       7
#     8   8   4   8   4   8   4
#     4  12  27  47  78 112 158 205 256 320 403 479
#     4  11  24  49  78 110 159 207 271 333 395 461
#     4  11  25  48  76 116 152 214 263 325 394 482
#     4  12  27  50  74 117 153 203 262 326 388 478
#     4  11  28  46  79 114 153 216 270 327 404 466
#     4  12  28  46  79 112 159 203 256 321 400 472
#     4  12  25  50  73 114 159 202 269 322 392 470
#
# _framework density 25.080676
#
# number of rings (size 3 to 8) (size 9 to 14) (size 15 to 20)
#    0.000    0.364    1.818    6.000    6.364    4.364 
#    0.000    6.364    0.000    0.000    0.000    0.000 
#    0.000    0.000    0.000    0.000    0.000    0.000 
#
# Total GULP energy -122736.768778 kJ/mol
# GULP energy per Si atom -5578.944035 kJ/mol
# Density = 2.502359 g / cm^3
# Si number density = 25.080676 Si / 1000 Ang^3
#
#
#
# Elastic Constant Matrix: (Units=GPa)
#
#
# Indices 1 2 3 4 5 6 
#
# 1 100.0770 61.2775 39.2484 0.0000 -10.2632 0.0000
# 2 61.2775 116.3619 48.3023 0.0000 6.4310 0.0000
# 3 39.2484 48.3023 155.6794 0.0000 4.5168 0.0000
# 4 0.0000 0.0000 0.0000 208.5543 0.0000 -420.2061
# 5 -10.2632 6.4310 4.5168 0.0000 52.5373 0.0000
# 6 0.0000 0.0000 0.0000 -420.2061 0.0000 1064.9991
#
#
#
# Elastic Compliance Matrix: (Units=1/GPa)
#
#
# Indices 1 2 3 4 5 6 
#
# 1 0.015941 -0.007931 -0.001681 0.000000 0.004230 0.000000
# 2 -0.007931 0.013857 -0.002211 0.000000 -0.003055 0.000000
# 3 -0.001681 -0.002211 0.007554 0.000000 -0.000707 0.000000
# 4 0.000000 0.000000 0.000000 0.023388 0.000000 0.009228
# 5 0.004230 -0.003055 -0.000707 0.000000 0.020295 0.000000
# 6 0.000000 0.000000 0.000000 0.009228 0.000000 0.004580
#
#
# Mechanical properties :
#
#
# Convention : Reuss Voigt Hill
#
# Bulk Modulus (GPa) = 72.96066 74.41941 73.69003
# Shear Modulus (GPa) = 43.92507 280.10414 162.01461
#
# Velocity S-wave (km/s) = 4.18945 10.57940 8.04597
# Velocity P-wave (km/s) = 7.24952 13.37789 10.75927
#
# Compressibility (1/GPa) = 0.01370602
#
# Stress axis : x y z
#
# Youngs Moduli (GPa) = 62.72963 72.16477 132.38242
#
# Poissons Ratio (x) = 0.57233 0.22254
# Poissons Ratio (y) = 0.49750 0.29274
# Poissons Ratio (z) = 0.10545 0.15958
#
# Static dielectric constant tensor:
#      x y z
#    x 2.100600 0.000000 0.106860 
#    y 0.000000 2.046180 0.000000 
#    z 0.106860 0.000000 2.122050 
# 
# From -- ./inp_files/185015.got.cif
#   From: 2010.05.17/outbox.cif.g08.bks.cpg/sg15_93_cif.got.tgz:185015.got - 2010.06.03 18:47:42.
