data_PCOD9305686
_publ_section_title
;
Structure prediction by ZEFSAII (Michael W. Deem and Ramdas Pophale) SiO2 
 PCOD9305686
Probable space group: C 2/C
;
_chemical_formula_sum "Si O2"
_cell_formula_units_Z 48
_cell_length_a 24.349365
_cell_length_b 7.434279
_cell_length_c 19.685818
_cell_angle_alpha 90.000000
_cell_angle_beta 145.618506
_cell_angle_gamma 90.000000
_cell_volume 2012.324943
_symmetry_space_group_name_H-M "C 2/C"
_symmetry_group_IT_number 15
_symmetry_cell_setting 'monoclinic'
loop_
_space_group_symop_operation_xyz
x,y,z
-x,y,1/2-z
-x,-y,-z
x,-y,1/2+z
1/2+x,1/2+y,z
1/2-x,1/2+y,1/2-z
1/2-x,1/2-y,-z
1/2+x,1/2-y,1/2+z
loop_
_atom_site_type_symbol
_atom_site_label
_atom_site_fract_x
_atom_site_fract_y
_atom_site_fract_z
Si Si1 0.514931 0.684203 0.448116
Si Si2 0.314545 0.617844 0.024606
Si Si3 0.329218 0.573040 0.332965
Si Si4 0.249632 0.738170 0.392320
Si Si5 0.343995 0.073902 0.451045
Si Si6 0.945883 0.922399 0.257317
O O1 0.670205 0.734458 0.526941
O O2 0.411977 0.694977 0.381818
O O3 0.547304 0.887542 0.462958
O O4 0.501117 0.531266 0.374092
O O5 0.269654 0.425605 0.962775
O O6 0.400800 0.578247 0.164220
O O7 0.250000 0.750000 0.000000
O O8 0.281907 0.655903 0.352317
O O9 0.396313 0.397403 0.416141
O O10 0.240088 0.547181 0.190595
O O11 0.140966 0.812326 0.294819
O O12 0.324259 0.904486 0.478759
O O13 0.000000 0.817036 0.250000
#
# Coordination Sequence:
#
# PCOD9305686 Si02
#       6
#     8   8   8   8   8   8
#     4  11  24  47  77 109 160 201 250 337 386 466
#     4  12  25  47  74 106 152 198 255 321 399 463
#     4  11  24  46  73 115 150 203 255 319 406 465
#     4  12  26  45  79 109 149 208 259 319 400 473
#     4  12  24  45  79 109 153 200 255 323 394 469
#     4  12  24  46  75 110 153 199 262 317 388 475
#
# _framework density 23.853007000000002
#
# number of rings (size 3 to 8) (size 9 to 14) (size 15 to 20)
#    0.000    0.333    6.667    1.500    2.333    0.667 
#    0.000    7.500    0.000    0.000    0.000    0.000 
#    0.000    0.000    0.000    0.000    0.000    0.000 
#
# Total GULP energy -133868.373902 kJ/mol
# GULP energy per Si atom -5577.848913 kJ/mol
# Density = 2.379872 g / cm^3
# Si number density = 23.853007 Si / 1000 Ang^3
#
#
#
# Elastic Constant Matrix: (Units=GPa)
#
#
# Indices 1 2 3 4 5 6 
#
# 1 152.3171 27.9656 33.8415 0.0000 18.8257 0.0000
# 2 27.9656 125.4023 37.1888 0.0000 7.6422 0.0000
# 3 33.8415 37.1888 95.5665 0.0000 -9.6984 0.0000
# 4 0.0000 0.0000 0.0000 16.8407 0.0000 9.9294
# 5 18.8257 7.6422 -9.6984 0.0000 35.1043 0.0000
# 6 0.0000 0.0000 0.0000 9.9294 0.0000 34.3718
#
#
#
# Elastic Compliance Matrix: (Units=1/GPa)
#
#
# Indices 1 2 3 4 5 6 
#
# 1 0.007980 -0.000548 -0.003123 0.000000 -0.005023 0.000000
# 2 -0.000548 0.009374 -0.003736 0.000000 -0.002779 0.000000
# 3 -0.003123 -0.003736 0.013659 0.000000 0.006262 0.000000
# 4 0.000000 0.000000 0.000000 0.071570 0.000000 -0.020675
# 5 -0.005023 -0.002779 0.006262 0.000000 0.033515 0.000000
# 6 0.000000 0.000000 0.000000 -0.020675 0.000000 0.035066
#
#
# Mechanical properties :
#
#
# Convention : Reuss Voigt Hill
#
# Bulk Modulus (GPa) = 61.72486 63.47530 62.60008
# Shear Modulus (GPa) = 26.12639 35.54937 30.83788
#
# Velocity S-wave (km/s) = 3.31313 3.86470 3.59950
# Velocity P-wave (km/s) = 6.36939 6.82520 6.60123
#
# Compressibility (1/GPa) = 0.01620093
#
# Stress axis : x y z
#
# Youngs Moduli (GPa) = 125.30669 106.68166 73.21226
#
# Poissons Ratio (x) = 0.05841 0.22862
# Poissons Ratio (y) = 0.06861 0.27351
# Poissons Ratio (z) = 0.39130 0.39854
#
# Static dielectric constant tensor:
#      x y z
#    x 2.574850 0.000000 0.021190 
#    y 0.000000 1.897150 0.000000 
#    z 0.021190 0.000000 1.897760 
# 
# From -- ./inp_files/252012.got.cif
#   From: 2010.05.17/outbox.cif.g08.bks.cpg/sg15_127_cif.got.tgz:252012.got - 2010.06.03 18:47:42.
