data_PCOD9305684
_publ_section_title
;
Structure prediction by ZEFSAII (Michael W. Deem and Ramdas Pophale) SiO2 
 PCOD9305684
Probable space group: C 2/C
;
_chemical_formula_sum "Si O2"
_cell_formula_units_Z 36
_cell_length_a 11.134578
_cell_length_b 25.301901
_cell_length_c 5.268733
_cell_angle_alpha 90.000000
_cell_angle_beta 67.838301
_cell_angle_gamma 90.000000
_cell_volume 1374.680443
_symmetry_space_group_name_H-M "C 2/C"
_symmetry_group_IT_number 15
_symmetry_cell_setting 'monoclinic'
loop_
_space_group_symop_operation_xyz
x,y,z
-x,y,1/2-z
-x,-y,-z
x,-y,1/2+z
1/2+x,1/2+y,z
1/2-x,1/2+y,1/2-z
1/2-x,1/2-y,-z
1/2+x,1/2-y,1/2+z
loop_
_atom_site_type_symbol
_atom_site_label
_atom_site_fract_x
_atom_site_fract_y
_atom_site_fract_z
Si Si1 0.789293 0.472233 0.501561
Si Si2 0.858196 0.650146 0.994616
Si Si3 0.500000 0.621164 0.750000
Si Si4 0.000000 0.292844 0.750000
Si Si5 0.676138 0.712402 0.763399
Si Si6 0.500000 0.550982 0.250000
O O1 0.842405 0.496815 0.201337
O O2 0.810319 0.409560 0.504160
O O3 0.633489 0.480472 0.622252
O O4 0.761991 0.691344 0.929087
O O5 0.000000 0.653657 0.750000
O O6 0.888458 0.664935 0.263101
O O7 0.622316 0.659538 0.678968
O O8 0.509670 0.587298 0.490050
O O9 0.047446 0.248565 0.920354
O O10 0.750000 0.750000 0.500000
#
# Coordination Sequence:
#
# PCOD9305684 Si02
#       6
#     8   8   4   4   8   4
#     4  12  29  50  80 113 152 204 268 331 396 462
#     4  12  27  48  77 110 156 208 255 325 385 473
#     4  11  26  43  78 116 150 208 242 333 381 468
#     4  11  26  44  75 106 152 199 258 306 385 462
#     4  11  24  46  73 112 155 201 257 310 388 467
#     4  12  24  49  79 108 156 189 266 325 406 440
#
# _framework density 26.187902000000001
#
# number of rings (size 3 to 8) (size 9 to 14) (size 15 to 20)
#    0.000    0.444    4.444    2.667    6.222    4.444 
#    0.000    0.000    0.000    0.000    0.000    0.000 
#    0.000    0.000    0.000    0.000    0.000    0.000 
#
# Total GULP energy -100566.587624 kJ/mol
# GULP energy per Si atom -5587.032646 kJ/mol
# Density = 2.612830 g / cm^3
# Si number density = 26.187902 Si / 1000 Ang^3
#
#
#
# Elastic Constant Matrix: (Units=GPa)
#
#
# Indices 1 2 3 4 5 6 
#
# 1 156.4532 63.8546 71.4433 0.0000 36.5081 0.0000
# 2 63.8546 163.9038 58.0844 0.0000 40.7432 0.0000
# 3 71.4433 58.0844 123.0008 0.0000 39.8726 0.0000
# 4 0.0000 0.0000 0.0000 49.1406 0.0000 0.0882
# 5 36.5081 40.7432 39.8726 0.0000 62.4737 0.0000
# 6 0.0000 0.0000 0.0000 0.0882 0.0000 47.2829
#
#
#
# Elastic Compliance Matrix: (Units=1/GPa)
#
#
# Indices 1 2 3 4 5 6 
#
# 1 0.009369 -0.001789 -0.004035 0.000000 -0.001733 0.000000
# 2 -0.001789 0.008229 -0.001823 0.000000 -0.003158 0.000000
# 3 -0.004035 -0.001823 0.012842 0.000000 -0.004649 0.000000
# 4 0.000000 0.000000 0.000000 0.020350 0.000000 -0.000038
# 5 -0.001733 -0.003158 -0.004649 0.000000 0.022046 0.000000
# 6 0.000000 0.000000 0.000000 -0.000038 0.000000 0.021149
#
#
# Mechanical properties :
#
#
# Convention : Reuss Voigt Hill
#
# Bulk Modulus (GPa) = 66.03021 92.23584 79.13302
# Shear Modulus (GPa) = 43.73367 48.44447 46.08907
#
# Velocity S-wave (km/s) = 4.09099 4.30569 4.19971
# Velocity P-wave (km/s) = 6.89809 7.74699 7.33483
#
# Compressibility (1/GPa) = 0.01514458
#
# Stress axis : x y z
#
# Youngs Moduli (GPa) = 106.73579 121.51777 77.87071
#
# Poissons Ratio (x) = 0.21743 0.31422
# Poissons Ratio (y) = 0.19098 0.14198
# Poissons Ratio (z) = 0.43070 0.22155
#
# Static dielectric constant tensor:
#      x y z
#    x 2.281960 0.000000 -0.233780 
#    y 0.000000 1.985030 0.000000 
#    z -0.233780 0.000000 2.377570 
# 
# From -- ./inp_files/4313.got.cif
#   From: 2010.05.17/outbox.cif.g08.bks.cpg/sg15_3_cif.got.tgz:4313.got - 2010.06.03 18:47:42.
