data_PCOD9305942
_publ_section_title
;
Structure prediction by ZEFSAII (Michael W. Deem and Ramdas Pophale) SiO2 
 PCOD9305942
Probable space group: C 2/C
;
_chemical_formula_sum "Si O2"
_cell_formula_units_Z 28
_cell_length_a 12.611187
_cell_length_b 14.430484
_cell_length_c 7.469832
_cell_angle_alpha 90.000000
_cell_angle_beta 54.053232
_cell_angle_gamma 90.000000
_cell_volume 1100.520685
_symmetry_space_group_name_H-M "C 2/C"
_symmetry_group_IT_number 15
_symmetry_cell_setting 'monoclinic'
loop_
_space_group_symop_operation_xyz
x,y,z
-x,y,1/2-z
-x,-y,-z
x,-y,1/2+z
1/2+x,1/2+y,z
1/2-x,1/2+y,1/2-z
1/2-x,1/2-y,-z
1/2+x,1/2-y,1/2+z
loop_
_atom_site_type_symbol
_atom_site_label
_atom_site_fract_x
_atom_site_fract_y
_atom_site_fract_z
Si Si1 0.797247 0.653466 0.530378
Si Si2 0.000000 0.254436 0.250000
Si Si3 0.435296 0.101379 0.070230
Si Si4 0.532602 0.605750 0.925390
O O1 0.750000 0.750000 0.500000
O O2 0.939452 0.656644 0.476438
O O3 0.689822 0.617714 0.773838
O O4 0.819520 0.593314 0.328383
O O5 0.030854 0.179289 0.375740
O O6 0.900467 0.331779 0.437181
O O7 0.500000 0.000000 0.000000
O O8 0.500000 0.625147 0.750000
O O9 0.500000 0.500000 0.000000
#
# Coordination Sequence:
#
# PCOD9305942 Si02
#       4
#     8   4   8   8
#     4  11  24  49  75 102 161 196 253 332 378 471
#     4  12  24  48  78 110 152 206 252 318 392 462
#     4  11  26  48  75 115 150 204 265 319 400 466
#     4  12  27  48  74 115 157 199 263 321 392 465
#
# _framework density 25.442502999999999
#
# number of rings (size 3 to 8) (size 9 to 14) (size 15 to 20)
#    0.000    0.571    4.286    3.429    4.000    1.143 
#    5.143    0.000    0.000    0.000    0.000    0.000 
#    0.000    0.000    0.000    0.000    0.000    0.000 
#
# Total GULP energy -78115.317154 kJ/mol
# GULP energy per Si atom -5579.665511 kJ/mol
# Density = 2.538459 g / cm^3
# Si number density = 25.442503 Si / 1000 Ang^3
#
#
#
# Elastic Constant Matrix: (Units=GPa)
#
#
# Indices 1 2 3 4 5 6 
#
# 1 72.2964 21.2328 17.6597 0.0000 13.4307 0.0000
# 2 21.2328 242.9484 55.0446 0.0000 22.7824 0.0000
# 3 17.6597 55.0446 97.8374 0.0000 17.2547 0.0000
# 4 0.0000 0.0000 0.0000 48.3820 0.0000 -6.8751
# 5 13.4307 22.7824 17.2547 0.0000 49.5164 0.0000
# 6 0.0000 0.0000 0.0000 -6.8751 0.0000 16.4793
#
#
#
# Elastic Compliance Matrix: (Units=1/GPa)
#
#
# Indices 1 2 3 4 5 6 
#
# 1 0.015042 -0.000606 -0.001815 0.000000 -0.003168 0.000000
# 2 -0.000606 0.004825 -0.002390 0.000000 -0.001223 0.000000
# 3 -0.001815 -0.002390 0.012373 0.000000 -0.002720 0.000000
# 4 0.000000 0.000000 0.000000 0.021971 0.000000 0.009166
# 5 -0.003168 -0.001223 -0.002720 0.000000 0.022565 0.000000
# 6 0.000000 0.000000 0.000000 0.009166 0.000000 0.064506
#
#
# Mechanical properties :
#
#
# Convention : Reuss Voigt Hill
#
# Bulk Modulus (GPa) = 44.21292 66.77296 55.49294
# Shear Modulus (GPa) = 31.55688 44.15187 37.85437
#
# Velocity S-wave (km/s) = 3.52564 4.17028 3.86144
# Velocity P-wave (km/s) = 5.82999 7.03491 6.46060
#
# Compressibility (1/GPa) = 0.02261782
#
# Stress axis : x y z
#
# Youngs Moduli (GPa) = 66.48050 207.24645 80.82271
#
# Poissons Ratio (x) = 0.12564 0.14671
# Poissons Ratio (y) = 0.04030 0.19313
# Poissons Ratio (z) = 0.12068 0.49524
#
# Static dielectric constant tensor:
#      x y z
#    x 2.230020 0.000000 0.100480 
#    y 0.000000 1.986790 0.000000 
#    z 0.100480 0.000000 2.177500 
# 
# From -- ./inp_files/37334.got.cif
#   From: 2010.05.17/outbox.cif.g08.bks.cpg/sg15_19_cif.got.tgz:37334.got - 2010.06.03 18:47:42.
