data_PCOD9305199
_publ_section_title
;
Structure prediction by ZEFSAII (Michael W. Deem and Ramdas Pophale) SiO2 
 PCOD9305199
Probable space group: C 2/C
;
_chemical_formula_sum "Si O2"
_cell_formula_units_Z 36
_cell_length_a 19.172564
_cell_length_b 5.220210
_cell_length_c 22.569982
_cell_angle_alpha 90.000000
_cell_angle_beta 141.521625
_cell_angle_gamma 90.000000
_cell_volume 1405.538679
_symmetry_space_group_name_H-M "C 2/C"
_symmetry_group_IT_number 15
_symmetry_cell_setting 'monoclinic'
loop_
_space_group_symop_operation_xyz
x,y,z
-x,y,1/2-z
-x,-y,-z
x,-y,1/2+z
1/2+x,1/2+y,z
1/2-x,1/2+y,1/2-z
1/2-x,1/2-y,-z
1/2+x,1/2-y,1/2+z
loop_
_atom_site_type_symbol
_atom_site_label
_atom_site_fract_x
_atom_site_fract_y
_atom_site_fract_z
Si Si1 0.605316 0.254939 0.032892
Si Si2 0.301294 0.873097 0.691137
Si Si3 0.500000 0.146500 0.250000
Si Si4 0.377599 0.123311 0.851207
Si Si5 0.323855 0.001994 0.536940
O O1 0.700449 0.472066 0.092354
O O2 0.597856 0.127308 0.092613
O O3 0.478121 0.321357 0.930615
O O4 0.637138 0.036009 0.005250
O O5 0.365545 0.079688 0.774097
O O6 0.395593 0.726601 0.715919
O O7 0.239673 0.705846 0.699021
O O8 0.572709 0.000340 0.348207
O O9 0.250000 0.750000 0.500000
O O10 0.250000 0.250000 0.500000
#
# Coordination Sequence:
#
# PCOD9305199 Si02
#       5
#     8   8   4   8   8
#     4  11  24  45  70 100 142 192 252 303 372 446
#     4  12  23  45  70 105 143 190 248 307 376 454
#     4  12  26  48  72 110 156 200 252 320 388 456
#     4  11  24  43  69 103 139 189 248 305 372 445
#     4  12  27  50  75 111 156 200 253 312 383 457
#
# _framework density 25.612957000000002
#
# number of rings (size 3 to 8) (size 9 to 14) (size 15 to 20)
#    0.000    0.444    6.667    2.000    0.000    0.889 
#    8.000    0.000    0.000    0.000    0.000    0.000 
#    0.000    0.000    0.000    0.000    0.000    0.000 
#
# Total GULP energy -100611.253572 kJ/mol
# GULP energy per Si atom -5589.514087 kJ/mol
# Density = 2.555466 g / cm^3
# Si number density = 25.612957 Si / 1000 Ang^3
#
#
#
# Elastic Constant Matrix: (Units=GPa)
#
#
# Indices 1 2 3 4 5 6 
#
# 1 150.7742 24.6878 36.9005 0.0016 34.8447 0.0035
# 2 24.6878 88.5207 28.9836 0.0029 7.6614 0.0051
# 3 36.9005 28.9836 148.6567 0.0003 16.8079 0.0004
# 4 0.0016 0.0029 0.0003 16.8585 -0.0002 7.6415
# 5 34.8447 7.6614 16.8079 -0.0002 57.8456 0.0012
# 6 0.0035 0.0051 0.0004 7.6415 0.0012 33.0223
#
#
#
# Elastic Compliance Matrix: (Units=1/GPa)
#
#
# Indices 1 2 3 4 5 6 
#
# 1 0.008194 -0.001498 -0.001247 0.000000 -0.004375 0.000000
# 2 -0.001498 0.012391 -0.002027 -0.000001 -0.000150 -0.000001
# 3 -0.001247 -0.002027 0.007565 0.000000 -0.001178 0.000000
# 4 0.000000 -0.000001 0.000000 0.066268 0.000001 -0.015335
# 5 -0.004375 -0.000150 -0.001178 0.000001 0.020285 0.000000
# 6 0.000000 -0.000001 0.000000 -0.015335 0.000000 0.033831
#
#
# Mechanical properties :
#
#
# Convention : Reuss Voigt Hill
#
# Bulk Modulus (GPa) = 53.74833 63.23282 58.49058
# Shear Modulus (GPa) = 30.43554 41.37059 35.90306
#
# Velocity S-wave (km/s) = 3.45089 4.02334 3.74806
# Velocity P-wave (km/s) = 6.07524 6.80621 6.45109
#
# Compressibility (1/GPa) = 0.01860523
#
# Stress axis : x y z
#
# Youngs Moduli (GPa) = 122.03899 80.70165 132.18859
#
# Poissons Ratio (x) = 0.12091 0.16487
# Poissons Ratio (y) = 0.18285 0.26796
# Poissons Ratio (z) = 0.15221 0.16359
#
# Static dielectric constant tensor:
#      x y z
#    x 2.059310 -0.000020 -0.008490 
#    y -0.000020 2.068580 -0.000010 
#    z -0.008490 -0.000010 2.098440 
# 
# From -- ./inp_files/165032.got.cif
#   From: 2010.05.17/outbox.cif.g08.bks.cpg/sg15_83_cif.got.tgz:165032.got - 2010.06.03 18:47:42.
