data_PCOD9305982
_publ_section_title
;
Structure prediction by ZEFSAII (Michael W. Deem and Ramdas Pophale) SiO2 
 PCOD9305982
Probable space group: C 2/C
;
_chemical_formula_sum "Si O2"
_cell_formula_units_Z 36
_cell_length_a 14.135105
_cell_length_b 25.802340
_cell_length_c 9.498014
_cell_angle_alpha 90.000000
_cell_angle_beta 27.556260
_cell_angle_gamma 90.000000
_cell_volume 1602.561656
_symmetry_space_group_name_H-M "C 2/C"
_symmetry_group_IT_number 15
_symmetry_cell_setting 'monoclinic'
loop_
_space_group_symop_operation_xyz
x,y,z
-x,y,1/2-z
-x,-y,-z
x,-y,1/2+z
1/2+x,1/2+y,z
1/2-x,1/2+y,1/2-z
1/2-x,1/2-y,-z
1/2+x,1/2-y,1/2+z
loop_
_atom_site_type_symbol
_atom_site_label
_atom_site_fract_x
_atom_site_fract_y
_atom_site_fract_z
Si Si1 0.026904 0.787726 0.562558
Si Si2 0.723583 0.114296 0.638682
Si Si3 0.513009 0.439719 0.518206
Si Si4 0.327019 0.819125 0.679681
Si Si5 0.500000 0.376748 0.250000
O O1 0.165734 0.835549 0.431692
O O2 0.097372 0.738425 0.380846
O O3 0.831616 0.810606 0.740522
O O4 0.000000 0.760444 0.750000
O O5 0.841939 0.085939 0.350927
O O6 0.499369 0.138700 0.588143
O O7 0.766332 0.071506 0.701688
O O8 0.500000 0.500000 0.500000
O O9 0.496853 0.410476 0.392984
O O10 0.199272 0.841217 0.978519
#
# Coordination Sequence:
#
# PCOD9305982 Si02
#       5
#     8   8   8   8   4
#     4  12  23  42  72 111 150 201 251 290 355 477
#     4  11  24  50  80 103 148 206 241 302 370 463
#     4  11  25  51  76 107 141 187 257 325 373 434
#     4  12  27  43  74 111 157 200 248 294 380 448
#     4  12  26  44  70 112 156 188 250 330 362 432
#
# _framework density 22.464034999999999
#
# number of rings (size 3 to 8) (size 9 to 14) (size 15 to 20)
#    0.000    0.444    6.667    2.000    3.111    1.778 
#    0.000    6.667    0.000    0.000    0.000    0.000 
#    0.000    0.000    0.000    0.000    0.000    0.000 
#
# Total GULP energy -100307.304614 kJ/mol
# GULP energy per Si atom -5572.628034 kJ/mol
# Density = 2.241291 g / cm^3
# Si number density = 22.464035 Si / 1000 Ang^3
#
#
#
# Elastic Constant Matrix: (Units=GPa)
#
#
# Indices 1 2 3 4 5 6 
#
# 1 121.2200 59.0862 46.7037 0.0003 -12.3834 0.0011
# 2 59.0862 212.1749 87.4166 -0.0003 -0.1649 -0.0005
# 3 46.7037 87.4166 106.5250 0.0006 -8.6868 0.0005
# 4 0.0003 -0.0003 0.0006 15.2331 -0.0007 5.3101
# 5 -12.3834 -0.1649 -8.6868 -0.0007 36.9441 -0.0007
# 6 0.0011 -0.0005 0.0005 5.3101 -0.0007 37.2550
#
#
#
# Elastic Compliance Matrix: (Units=1/GPa)
#
#
# Indices 1 2 3 4 5 6 
#
# 1 0.010515 -0.001694 -0.002991 0.000000 0.002814 0.000000
# 2 -0.001694 0.007462 -0.005530 0.000000 -0.001835 0.000000
# 3 -0.002991 -0.005530 0.015449 -0.000001 0.002606 0.000000
# 4 0.000000 0.000000 -0.000001 0.069079 0.000001 -0.009846
# 5 0.002814 -0.001835 0.002606 0.000001 0.028616 0.000000
# 6 0.000000 0.000000 0.000000 -0.009846 0.000000 0.028245
#
#
# Mechanical properties :
#
#
# Convention : Reuss Voigt Hill
#
# Bulk Modulus (GPa) = 76.94345 91.81478 84.37911
# Shear Modulus (GPa) = 27.15509 34.33400 30.74455
#
# Velocity S-wave (km/s) = 3.48059 3.91372 3.70349
# Velocity P-wave (km/s) = 7.10485 7.83476 7.47872
#
# Compressibility (1/GPa) = 0.01299656
#
# Stress axis : x y z
#
# Youngs Moduli (GPa) = 95.10482 134.01426 64.72742
#
# Poissons Ratio (x) = 0.22700 0.19357
# Poissons Ratio (y) = 0.16109 0.35797
# Poissons Ratio (z) = 0.28441 0.74115
#
# Static dielectric constant tensor:
#      x y z
#    x 1.865500 0.000000 -0.036500 
#    y 0.000000 1.873560 0.000000 
#    z -0.036500 0.000000 1.973390 
# 
# From -- ./inp_files/43761.got.cif
#   From: 2010.05.17/outbox.cif.g08.bks.cpg/sg15_22_cif.got.tgz:43761.got - 2010.06.03 18:47:42.
