data_PCOD9305739
_publ_section_title
;
Structure prediction by ZEFSAII (Michael W. Deem and Ramdas Pophale) SiO2 
 PCOD9305739
Probable space group: C 2/C
;
_chemical_formula_sum "Si O2"
_cell_formula_units_Z 32
_cell_length_a 11.501897
_cell_length_b 18.434767
_cell_length_c 8.418179
_cell_angle_alpha 90.000000
_cell_angle_beta 47.963393
_cell_angle_gamma 90.000000
_cell_volume 1325.710634
_symmetry_space_group_name_H-M "C 2/C"
_symmetry_group_IT_number 15
_symmetry_cell_setting 'monoclinic'
loop_
_space_group_symop_operation_xyz
x,y,z
-x,y,1/2-z
-x,-y,-z
x,-y,1/2+z
1/2+x,1/2+y,z
1/2-x,1/2+y,1/2-z
1/2-x,1/2-y,-z
1/2+x,1/2-y,1/2+z
loop_
_atom_site_type_symbol
_atom_site_label
_atom_site_fract_x
_atom_site_fract_y
_atom_site_fract_z
Si Si1 0.788267 0.686277 0.090541
Si Si2 0.326690 0.598018 0.840834
Si Si3 0.824654 0.045792 0.481876
Si Si4 0.089304 0.728642 0.004052
O O1 0.763829 0.609478 0.030397
O O2 0.667642 0.702522 0.345233
O O3 0.961280 0.696897 0.999802
O O4 0.750000 0.750000 0.000000
O O5 0.500000 0.610343 0.750000
O O6 0.336032 0.564952 0.655498
O O7 0.254776 0.534046 0.015524
O O8 0.222864 0.669449 0.916481
O O9 0.000000 0.045090 0.250000
O O10 0.000000 0.740276 0.250000
#
# Coordination Sequence:
#
# PCOD9305739 Si02
#       4
#     8   8   8   8
#     4  12  26  51  74 108 148 199 246 307 377 443
#     4  11  26  48  77 112 148 197 249 306 373 446
#     4  11  24  46  80 107 150 198 247 303 377 445
#     4  12  29  48  75 111 148 197 248 310 372 441
#
# _framework density 24.137999000000001
#
# number of rings (size 3 to 8) (size 9 to 14) (size 15 to 20)
#    0.000    0.500    2.500    6.000    7.000    2.000 
#    0.000    0.000    0.000    0.000    0.000    0.000 
#    0.000    0.000    0.000    0.000    0.000    0.000 
#
# Total GULP energy -89793.086472 kJ/mol
# GULP energy per Si atom -5612.067904 kJ/mol
# Density = 2.408306 g / cm^3
# Si number density = 24.137999 Si / 1000 Ang^3
#
#
#
# Elastic Constant Matrix: (Units=GPa)
#
#
# Indices 1 2 3 4 5 6 
#
# 1 212.6897 74.7571 32.4370 0.0000 5.3727 0.0000
# 2 74.7571 153.3587 16.7578 0.0000 3.6140 0.0000
# 3 32.4370 16.7578 106.7240 0.0000 25.9656 0.0000
# 4 0.0000 0.0000 0.0000 25.6123 0.0000 6.9046
# 5 5.3727 3.6140 25.9656 0.0000 41.6342 0.0000
# 6 0.0000 0.0000 0.0000 6.9046 0.0000 46.7557
#
#
#
# Elastic Compliance Matrix: (Units=1/GPa)
#
#
# Indices 1 2 3 4 5 6 
#
# 1 0.005866 -0.002710 -0.001450 0.000000 0.000383 0.000000
# 2 -0.002710 0.007887 -0.000393 0.000000 -0.000090 0.000000
# 3 -0.001450 -0.000393 0.011575 0.000000 -0.006998 0.000000
# 4 0.000000 0.000000 0.000000 0.040663 0.000000 -0.006005
# 5 0.000383 -0.000090 -0.006998 0.000000 0.028341 0.000000
# 6 0.000000 0.000000 0.000000 -0.006005 0.000000 0.022274
#
#
# Mechanical properties :
#
#
# Convention : Reuss Voigt Hill
#
# Bulk Modulus (GPa) = 61.64846 80.07513 70.86179
# Shear Modulus (GPa) = 38.13331 46.05515 42.09423
#
# Velocity S-wave (km/s) = 3.97899 4.37280 4.18053
# Velocity P-wave (km/s) = 6.83412 7.66427 7.26107
#
# Compressibility (1/GPa) = 0.01622101
#
# Stress axis : x y z
#
# Youngs Moduli (GPa) = 170.48306 126.79626 86.39329
#
# Poissons Ratio (x) = 0.34360 0.12531
# Poissons Ratio (y) = 0.46198 0.03394
# Poissons Ratio (z) = 0.24727 0.04982
#
# Static dielectric constant tensor:
#      x y z
#    x 1.891780 0.000000 0.024150 
#    y 0.000000 1.970110 0.000000 
#    z 0.024150 0.000000 1.950190 
# 
# From -- ./inp_files/30048.got.cif
#   From: 2010.05.17/outbox.cif.g08.bks.cpg/sg15_16_cif.got.tgz:30048.got - 2010.06.03 18:47:42.
