data_PCOD9305833
_publ_section_title
;
Structure prediction by ZEFSAII (Michael W. Deem and Ramdas Pophale) SiO2 
 PCOD9305833
Probable space group: C 2/C
;
_chemical_formula_sum "Si O2"
_cell_formula_units_Z 36
_cell_length_a 5.175675
_cell_length_b 14.076224
_cell_length_c 22.848980
_cell_angle_alpha 90.000000
_cell_angle_beta 112.201668
_cell_angle_gamma 90.000000
_cell_volume 1541.221686
_symmetry_space_group_name_H-M "C 2/C"
_symmetry_group_IT_number 15
_symmetry_cell_setting 'monoclinic'
loop_
_space_group_symop_operation_xyz
x,y,z
-x,y,1/2-z
-x,-y,-z
x,-y,1/2+z
1/2+x,1/2+y,z
1/2-x,1/2+y,1/2-z
1/2-x,1/2-y,-z
1/2+x,1/2-y,1/2+z
loop_
_atom_site_type_symbol
_atom_site_label
_atom_site_fract_x
_atom_site_fract_y
_atom_site_fract_z
Si Si1 0.780703 0.441310 0.442132
Si Si2 0.000000 0.659146 0.250000
Si Si3 0.757089 0.719877 0.684469
Si Si4 0.265541 0.313120 0.443228
Si Si5 0.910393 0.011393 0.807854
O O1 0.542414 0.381432 0.458162
O O2 0.631293 0.502789 0.378838
O O3 0.000000 0.500000 0.500000
O O4 0.980788 0.372154 0.422750
O O5 0.003210 0.728837 0.194789
O O6 0.245334 0.584495 0.283034
O O7 0.753547 0.748891 0.617134
O O8 0.749940 0.605438 0.683517
O O9 0.000000 0.747494 0.750000
O O10 0.250000 0.250000 0.500000
O O11 0.000000 0.040324 0.750000
#
# Coordination Sequence:
#
# PCOD9305833 Si02
#       5
#     8   4   8   8   8
#     4  11  26  50  78 111 155 205 253 324 390 464
#     4  12  26  44  80 116 144 220 246 328 382 474
#     4  11  24  47  76 109 157 196 266 321 387 454
#     4  11  26  50  78 111 155 205 253 324 390 464
#     4  11  24  47  76 109 157 196 266 321 387 454
#
# _framework density 23.358093
#
# number of rings (size 3 to 8) (size 9 to 14) (size 15 to 20)
#    0.000    0.889    2.222    3.333    6.222    3.556 
#    8.000    0.000    0.000    0.000    0.000    0.000 
#    0.000    0.000    0.000    0.000    0.000    0.000 
#
# Total GULP energy -100454.864954 kJ/mol
# GULP energy per Si atom -5580.825831 kJ/mol
# Density = 2.330493 g / cm^3
# Si number density = 23.358093 Si / 1000 Ang^3
#
#
#
# Elastic Constant Matrix: (Units=GPa)
#
#
# Indices 1 2 3 4 5 6 
#
# 1 98.3813 32.3333 50.6435 0.0000 -13.2399 0.0000
# 2 32.3333 96.7598 47.1033 0.0000 -3.8093 0.0000
# 3 50.6435 47.1033 224.8254 0.0000 -15.0409 0.0000
# 4 0.0000 0.0000 0.0000 -15.4116 0.0000 -15.7809
# 5 -13.2399 -3.8093 -15.0409 0.0000 53.9702 0.0000
# 6 0.0000 0.0000 0.0000 -15.7809 0.0000 27.4433
#
#
#
# Elastic Compliance Matrix: (Units=1/GPa)
#
#
# Indices 1 2 3 4 5 6 
#
# 1 0.012536 -0.003117 -0.002017 0.000000 0.002293 0.000000
# 2 -0.003117 0.012285 -0.001900 0.000000 -0.000427 0.000000
# 3 -0.002017 -0.001900 0.005358 0.000000 0.000864 0.000000
# 4 0.000000 0.000000 0.000000 -0.040839 0.000000 -0.023484
# 5 0.002293 -0.000427 0.000864 0.000000 0.019302 0.000000
# 6 0.000000 0.000000 0.000000 -0.023484 0.000000 0.022935
#
#
# Mechanical properties :
#
#
# Convention : Reuss Voigt Hill
#
# Bulk Modulus (GPa) = 62.07285 75.56963 68.82124
# Shear Modulus (GPa) = 98.01081 32.52613 65.26847
#
# Velocity S-wave (km/s) = 6.48469 3.73567 5.29181
# Velocity P-wave (km/s) = 9.09398 7.14352 8.17711
#
# Compressibility (1/GPa) = 0.01611010
#
# Stress axis : x y z
#
# Youngs Moduli (GPa) = 79.77074 81.40282 186.62691
#
# Poissons Ratio (x) = 0.25370 0.37651
# Poissons Ratio (y) = 0.24862 0.35464
# Poissons Ratio (z) = 0.16093 0.15469
#
# Static dielectric constant tensor:
#      x y z
#    x 2.067690 0.000000 0.046080 
#    y 0.000000 1.861180 0.000000 
#    z 0.046080 0.000000 1.826880 
# 
# From -- ./inp_files/226891.got.cif
#   From: 2010.05.17/outbox.cif.g08.bks.cpg/sg15_114_cif.got.tgz:226891.got - 2010.06.03 18:47:42.
