data_PCOD9305425
_publ_section_title
;
Structure prediction by ZEFSAII (Michael W. Deem and Ramdas Pophale) SiO2 
 PCOD9305425
Probable space group: C 2/C
;
_chemical_formula_sum "Si O2"
_cell_formula_units_Z 56
_cell_length_a 11.773250
_cell_length_b 12.619615
_cell_length_c 18.313819
_cell_angle_alpha 90.000000
_cell_angle_beta 130.542821
_cell_angle_gamma 90.000000
_cell_volume 2067.709293
_symmetry_space_group_name_H-M "C 2/C"
_symmetry_group_IT_number 15
_symmetry_cell_setting 'monoclinic'
loop_
_space_group_symop_operation_xyz
x,y,z
-x,y,1/2-z
-x,-y,-z
x,-y,1/2+z
1/2+x,1/2+y,z
1/2-x,1/2+y,1/2-z
1/2-x,1/2-y,-z
1/2+x,1/2-y,1/2+z
loop_
_atom_site_type_symbol
_atom_site_label
_atom_site_fract_x
_atom_site_fract_y
_atom_site_fract_z
Si Si1 0.192832 0.967869 0.719214
Si Si2 0.000000 0.891196 0.250000
Si Si3 0.276166 0.466165 0.931460
Si Si4 0.690646 0.781983 0.064914
Si Si5 0.069141 0.581496 0.085294
Si Si6 0.610101 0.247857 0.692366
Si Si7 0.000000 0.574563 0.750000
Si Si8 0.305010 0.354930 0.564418
O O1 0.081437 0.034460 0.724015
O O2 0.149042 0.990202 0.616952
O O3 0.355055 0.991194 0.821287
O O4 0.231908 0.839620 0.737930
O O5 0.858631 0.827789 0.153245
O O6 0.302644 0.341777 0.954052
O O7 0.107851 0.500058 0.841129
O O8 0.309043 0.544061 0.012568
O O9 0.604443 0.789676 0.106916
O O10 0.928896 0.660041 0.038680
O O11 0.205008 0.629386 0.093429
O O12 0.000000 0.500000 0.000000
O O13 0.607367 0.157708 0.751254
O O14 0.472302 0.324485 0.653546
O O15 0.250000 0.250000 0.500000
#
# Coordination Sequence:
#
# PCOD9305425 Si02
#       8
#     8   4   8   8   8   8   4   8
#     4  11  26  45  75 111 147 203 262 325 387 475
#     4  12  22  48  72 108 156 202 262 318 402 482
#     4  11  27  45  74 111 157 198 260 330 397 468
#     4  11  25  46  70 106 156 202 258 324 400 481
#     4  12  25  49  76 109 155 204 261 327 393 482
#     4  11  24  44  75 110 145 198 264 319 394 459
#     4  12  20  40  76 106 148 200 254 324 386 470
#     4  12  24  49  79 111 150 202 266 327 391 471
#
# _framework density 27.083110000000001
#
# number of rings (size 3 to 8) (size 9 to 14) (size 15 to 20)
#    0.000    0.571    4.286    3.429    2.000    2.286 
#    0.000    3.571    0.000    0.000    0.000    0.000 
#    0.000    0.000    0.000    0.000    0.000    0.000 
#
# Total GULP energy -156429.932030 kJ/mol
# GULP energy per Si atom -5586.783287 kJ/mol
# Density = 2.702147 g / cm^3
# Si number density = 27.083110 Si / 1000 Ang^3
#
#
#
# Elastic Constant Matrix: (Units=GPa)
#
#
# Indices 1 2 3 4 5 6 
#
# 1 141.0420 26.2865 25.2881 0.0000 -9.8352 0.0000
# 2 26.2865 194.3018 49.7407 0.0000 -1.5093 0.0000
# 3 25.2881 49.7407 118.2647 0.0000 -3.1740 0.0000
# 4 0.0000 0.0000 0.0000 46.4494 0.0000 -6.4826
# 5 -9.8352 -1.5093 -3.1740 0.0000 48.4827 0.0000
# 6 0.0000 0.0000 0.0000 -6.4826 0.0000 16.0795
#
#
#
# Elastic Compliance Matrix: (Units=1/GPa)
#
#
# Indices 1 2 3 4 5 6 
#
# 1 0.007547 -0.000680 -0.001290 0.000000 0.001425 0.000000
# 2 -0.000680 0.005829 -0.002309 0.000000 -0.000108 0.000000
# 3 -0.001290 -0.002309 0.009711 0.000000 0.000302 0.000000
# 4 0.000000 0.000000 0.000000 0.022812 0.000000 0.009197
# 5 0.001425 -0.000108 0.000302 0.000000 0.020932 0.000000
# 6 0.000000 0.000000 0.000000 0.009197 0.000000 0.065899
#
#
# Mechanical properties :
#
#
# Convention : Reuss Voigt Hill
#
# Bulk Modulus (GPa) = 68.82400 72.91545 70.86973
# Shear Modulus (GPa) = 34.21603 45.68853 39.95228
#
# Velocity S-wave (km/s) = 3.55825 4.11174 3.84497
# Velocity P-wave (km/s) = 6.50760 7.03727 6.77761
#
# Compressibility (1/GPa) = 0.01452981
#
# Stress axis : x y z
#
# Youngs Moduli (GPa) = 132.49556 171.55932 102.97976
#
# Poissons Ratio (x) = 0.11663 0.13281
# Poissons Ratio (y) = 0.09008 0.23779
# Poissons Ratio (z) = 0.17087 0.39614
#
# Static dielectric constant tensor:
#      x y z
#    x 0.211470 0.000000 -0.417460 
#    y 0.000000 2.110690 0.000000 
#    z -0.417460 0.000000 2.053200 
# 
# From -- ./inp_files/198450.got.cif
#   From: 2010.05.17/outbox.cif.g08.bks.cpg/sg15_100_cif.got.tgz:198450.got - 2010.06.03 18:47:42.
