data_PCOD9305094
_publ_section_title
;
Structure prediction by ZEFSAII (Michael W. Deem and Ramdas Pophale) SiO2 
 PCOD9305094
Probable space group: C 2/C
;
_chemical_formula_sum "Si O2"
_cell_formula_units_Z 36
_cell_length_a 24.714810
_cell_length_b 5.893757
_cell_length_c 19.727684
_cell_angle_alpha 90.000000
_cell_angle_beta 146.228347
_cell_angle_gamma 90.000000
_cell_volume 1597.386854
_symmetry_space_group_name_H-M "C 2/C"
_symmetry_group_IT_number 15
_symmetry_cell_setting 'monoclinic'
loop_
_space_group_symop_operation_xyz
x,y,z
-x,y,1/2-z
-x,-y,-z
x,-y,1/2+z
1/2+x,1/2+y,z
1/2-x,1/2+y,1/2-z
1/2-x,1/2-y,-z
1/2+x,1/2-y,1/2+z
loop_
_atom_site_type_symbol
_atom_site_label
_atom_site_fract_x
_atom_site_fract_y
_atom_site_fract_z
Si Si1 0.452698 0.177418 0.551556
Si Si2 0.587976 0.762324 0.071699
Si Si3 0.708873 0.004606 0.435728
Si Si4 0.000000 0.632226 0.750000
Si Si5 0.234049 0.918617 0.155028
O O1 0.514582 0.301119 0.556601
O O2 0.489539 0.248697 0.664722
O O3 0.335138 0.201318 0.430042
O O4 0.466833 0.917486 0.540887
O O5 0.675610 0.893954 0.201306
O O6 0.650500 0.577675 0.097822
O O7 0.750000 0.250000 0.500000
O O8 0.750000 0.750000 0.500000
O O9 0.598295 0.006893 0.345252
O O10 0.722059 0.000910 0.369166
#
# Coordination Sequence:
#
# PCOD9305094 Si02
#       5
#     8   8   8   4   8
#     4  11  24  45  67 102 145 186 247 304 371 447
#     4  11  24  42  68 105 140 189 244 305 370 443
#     4  12  28  50  76 110 155 202 254 313 383 456
#     4  12  24  48  74 112 152 198 258 310 386 456
#     4  12  23  44  72 100 145 193 247 308 372 445
#
# _framework density 22.536808000000001
#
# number of rings (size 3 to 8) (size 9 to 14) (size 15 to 20)
#    0.000    0.444    6.667    2.000    0.000    0.889 
#    4.000    0.000    0.000    0.000    0.000    0.000 
#    0.000    0.000    0.000    0.000    0.000    0.000 
#
# Total GULP energy -100242.352571 kJ/mol
# GULP energy per Si atom -5569.019587 kJ/mol
# Density = 2.248551 g / cm^3
# Si number density = 22.536808 Si / 1000 Ang^3
#
#
#
# Elastic Constant Matrix: (Units=GPa)
#
#
# Indices 1 2 3 4 5 6 
#
# 1 173.5403 37.8942 24.0557 -0.0001 6.5091 -0.0002
# 2 37.8942 68.7537 32.7481 -0.0004 1.3528 -0.0014
# 3 24.0557 32.7481 72.3344 -0.0002 5.6346 -0.0005
# 4 -0.0001 -0.0004 -0.0002 48.2480 0.0000 150.4646
# 5 6.5091 1.3528 5.6346 0.0000 63.6653 0.0002
# 6 -0.0002 -0.0014 -0.0005 150.4646 0.0002 834.3246
#
#
#
# Elastic Compliance Matrix: (Units=1/GPa)
#
#
# Indices 1 2 3 4 5 6 
#
# 1 0.006597 -0.003315 -0.000650 0.000000 -0.000546 0.000000
# 2 -0.003315 0.020217 -0.008099 0.000000 0.000626 0.000000
# 3 -0.000650 -0.008099 0.017812 0.000000 -0.001338 0.000000
# 4 0.000000 0.000000 0.000000 0.047365 0.000000 -0.008542
# 5 -0.000546 0.000626 -0.001338 0.000000 0.015868 0.000000
# 6 0.000000 0.000000 0.000000 -0.008542 0.000000 0.002739
#
#
# Mechanical properties :
#
#
# Convention : Reuss Voigt Hill
#
# Bulk Modulus (GPa) = 48.78935 56.00271 52.39603
# Shear Modulus (GPa) = 35.32057 203.90959 119.61508
#
# Velocity S-wave (km/s) = 3.96313 9.52234 7.29319
# Velocity P-wave (km/s) = 6.52975 12.07490 9.70672
#
# Compressibility (1/GPa) = 0.02049628
#
# Stress axis : x y z
#
# Youngs Moduli (GPa) = 151.58511 49.46219 56.14196
#
# Poissons Ratio (x) = 0.16399 0.03651
# Poissons Ratio (y) = 0.50257 0.45471
# Poissons Ratio (z) = 0.09858 0.40061
#
# Static dielectric constant tensor:
#      x y z
#    x 1.829870 0.000000 -0.026330 
#    y 0.000000 2.001480 0.000000 
#    z -0.026330 0.000000 1.909740 
# 
# From -- ./inp_files/170404.got.cif
#   From: 2010.05.17/outbox.cif.g08.bks.cpg/sg15_86_cif.got.tgz:170404.got - 2010.06.03 18:47:42.
