data_PCOD9305049
_publ_section_title
;
Structure prediction by ZEFSAII (Michael W. Deem and Ramdas Pophale) SiO2 
 PCOD9305049
Probable space group: C 2/C
;
_chemical_formula_sum "Si O2"
_cell_formula_units_Z 44
_cell_length_a 7.400330
_cell_length_b 27.748870
_cell_length_c 9.377079
_cell_angle_alpha 90.000000
_cell_angle_beta 62.997872
_cell_angle_gamma 90.000000
_cell_volume 1715.681344
_symmetry_space_group_name_H-M "C 2/C"
_symmetry_group_IT_number 15
_symmetry_cell_setting 'monoclinic'
loop_
_space_group_symop_operation_xyz
x,y,z
-x,y,1/2-z
-x,-y,-z
x,-y,1/2+z
1/2+x,1/2+y,z
1/2-x,1/2+y,1/2-z
1/2-x,1/2-y,-z
1/2+x,1/2-y,1/2+z
loop_
_atom_site_type_symbol
_atom_site_label
_atom_site_fract_x
_atom_site_fract_y
_atom_site_fract_z
Si Si1 0.189424 0.549159 0.866807
Si Si2 0.500000 0.195319 0.250000
Si Si3 0.405883 0.153922 0.570139
Si Si4 0.770799 0.034552 0.514903
Si Si5 0.798166 0.223718 0.633892
Si Si6 0.890157 0.861225 0.936084
O O1 0.223264 0.606281 0.849058
O O2 0.223753 0.528943 0.697360
O O3 0.946374 0.546291 0.984084
O O4 0.318381 0.517067 0.929245
O O5 0.388863 0.163549 0.408100
O O6 0.625043 0.231713 0.302174
O O7 0.344438 0.196904 0.698118
O O8 0.645032 0.145049 0.515066
O O9 0.913957 0.081204 0.448284
O O10 0.750000 0.250000 0.500000
O O11 0.943102 0.179185 0.534525
O O12 0.000000 0.848389 0.750000
#
# Coordination Sequence:
#
# PCOD9305049 Si02
#       6
#     8   4   8   8   8   8
#     4   9  18  35  67  94 131 178 225 293 351 428
#     4  12  28  40  72 110 144 182 246 302 362 428
#     4  11  24  47  69 104 144 187 243 297 362 433
#     4   9  18  36  61  99 131 172 232 282 357 422
#     4  12  26  46  74 101 145 192 239 300 365 424
#     4  11  24  41  72 101 139 192 238 291 356 431
#
# _framework density 25.645788
#
# number of rings (size 3 to 8) (size 9 to 14) (size 15 to 20)
#    0.000    1.455    3.636    1.091    2.545    5.818 
#    0.000    0.909    2.000    0.000    0.000    0.000 
#    0.000    0.000    0.000    0.000    0.000    0.000 
#
# Total GULP energy -122915.892946 kJ/mol
# GULP energy per Si atom -5587.086043 kJ/mol
# Density = 2.558742 g / cm^3
# Si number density = 25.645788 Si / 1000 Ang^3
#
#
#
# Elastic Constant Matrix: (Units=GPa)
#
#
# Indices 1 2 3 4 5 6 
#
# 1 43.4157 18.9434 13.5378 0.0000 5.0456 0.0000
# 2 18.9434 141.5484 30.5717 0.0000 23.7350 0.0000
# 3 13.5378 30.5717 146.3990 0.0000 29.3581 0.0000
# 4 0.0000 0.0000 0.0000 56.6373 0.0000 7.4089
# 5 5.0456 23.7350 29.3581 0.0000 43.4132 0.0000
# 6 0.0000 0.0000 0.0000 7.4089 0.0000 24.5111
#
#
#
# Elastic Compliance Matrix: (Units=1/GPa)
#
#
# Indices 1 2 3 4 5 6 
#
# 1 0.024850 -0.002942 -0.001651 0.000000 -0.000163 0.000000
# 2 -0.002942 0.008228 -0.000709 0.000000 -0.003677 0.000000
# 3 -0.001651 -0.000709 0.008116 0.000000 -0.004909 0.000000
# 4 0.000000 0.000000 0.000000 0.018383 0.000000 -0.005557
# 5 -0.000163 -0.003677 -0.004909 0.000000 0.028384 0.000000
# 6 0.000000 0.000000 0.000000 -0.005557 0.000000 0.042477
#
#
# Mechanical properties :
#
#
# Convention : Reuss Voigt Hill
#
# Bulk Modulus (GPa) = 32.68887 50.82990 41.75939
# Shear Modulus (GPa) = 33.06042 42.79968 37.93005
#
# Velocity S-wave (km/s) = 3.59432 4.08962 3.84995
# Velocity P-wave (km/s) = 5.47718 6.49331 6.00677
#
# Compressibility (1/GPa) = 0.03059145
#
# Stress axis : x y z
#
# Youngs Moduli (GPa) = 40.24071 121.53454 123.21780
#
# Poissons Ratio (x) = 0.35753 0.20342
# Poissons Ratio (y) = 0.11838 0.08733
# Poissons Ratio (z) = 0.06643 0.08614
#
# Static dielectric constant tensor:
#      x y z
#    x 2.262130 0.000000 -0.094520 
#    y 0.000000 2.076530 0.000000 
#    z -0.094520 0.000000 2.004180 
# 
# From -- ./inp_files/25994.got.cif
#   From: 2010.05.17/outbox.cif.g08.bks.cpg/sg15_13_cif.got.tgz:25994.got - 2010.06.03 18:47:42.
