data_PCOD9305777
_publ_section_title
;
Structure prediction by ZEFSAII (Michael W. Deem and Ramdas Pophale) SiO2 
 PCOD9305777
Probable space group: C 2/C
;
_chemical_formula_sum "Si O2"
_cell_formula_units_Z 40
_cell_length_a 10.306443
_cell_length_b 19.009974
_cell_length_c 16.151823
_cell_angle_alpha 90.000000
_cell_angle_beta 149.175261
_cell_angle_gamma 90.000000
_cell_volume 1621.558439
_symmetry_space_group_name_H-M "C 2/C"
_symmetry_group_IT_number 15
_symmetry_cell_setting 'monoclinic'
loop_
_space_group_symop_operation_xyz
x,y,z
-x,y,1/2-z
-x,-y,-z
x,-y,1/2+z
1/2+x,1/2+y,z
1/2-x,1/2+y,1/2-z
1/2-x,1/2-y,-z
1/2+x,1/2-y,1/2+z
loop_
_atom_site_type_symbol
_atom_site_label
_atom_site_fract_x
_atom_site_fract_y
_atom_site_fract_z
Si Si1 0.478437 0.429255 0.378347
Si Si2 0.782548 0.869674 0.824979
Si Si3 0.472702 0.011761 0.081664
Si Si4 0.236836 0.800930 0.070974
Si Si5 0.461781 0.271005 0.355215
O O1 0.649729 0.406591 0.551601
O O2 0.200899 0.462587 0.244690
O O3 0.425248 0.352473 0.308565
O O4 0.673446 0.482423 0.439899
O O5 0.690496 0.789165 0.776245
O O6 0.578926 0.911554 0.662906
O O7 0.062118 0.863211 0.941349
O O8 0.500000 0.000000 0.000000
O O9 0.500000 0.828088 0.250000
O O10 0.127639 0.767991 0.097270
O O11 0.250000 0.750000 0.000000
O O12 0.750000 0.250000 0.500000
#
# Coordination Sequence:
#
# PCOD9305777 Si02
#       5
#     8   8   8   8   8
#     4  11  27  51  81 112 159 213 265 332 408 478
#     4  11  25  49  83 111 155 206 270 324 397 481
#     4  12  27  51  72 112 156 211 265 326 399 482
#     4  11  24  47  71 118 166 198 247 327 408 471
#     4  11  24  48  86 118 152 203 273 329 399 476
#
# _framework density 24.667625000000001
#
# number of rings (size 3 to 8) (size 9 to 14) (size 15 to 20)
#    0.000    0.800    4.000    1.800    2.800    6.400 
#   14.400    0.000    0.000    0.000    0.000    0.000 
#    0.000    0.000    0.000    0.000    0.000    0.000 
#
# Total GULP energy -111544.909339 kJ/mol
# GULP energy per Si atom -5577.245467 kJ/mol
# Density = 2.461148 g / cm^3
# Si number density = 24.667625 Si / 1000 Ang^3
#
#
#
# Elastic Constant Matrix: (Units=GPa)
#
#
# Indices 1 2 3 4 5 6 
#
# 1 118.4531 42.0599 14.0626 0.0055 -2.6337 -0.0002
# 2 42.0599 134.8533 34.5482 0.0004 15.2081 0.0004
# 3 14.0626 34.5482 120.0900 0.0089 12.5450 0.0029
# 4 0.0055 0.0004 0.0089 44.3649 0.0090 16.6273
# 5 -2.6337 15.2081 12.5450 0.0090 46.8247 0.0005
# 6 -0.0002 0.0004 0.0029 16.6273 0.0005 37.5020
#
#
#
# Elastic Compliance Matrix: (Units=1/GPa)
#
#
# Indices 1 2 3 4 5 6 
#
# 1 0.009622 -0.003082 -0.000413 -0.000002 0.001653 0.000001
# 2 -0.003082 0.009187 -0.002008 0.000001 -0.002619 -0.000001
# 3 -0.000413 -0.002008 0.009143 -0.000001 -0.001821 0.000000
# 4 -0.000002 0.000001 -0.000001 0.027032 -0.000005 -0.011985
# 5 0.001653 -0.002619 -0.001821 -0.000005 0.022788 0.000002
# 6 0.000001 -0.000001 0.000000 -0.011985 0.000002 0.031979
#
#
# Mechanical properties :
#
#
# Convention : Reuss Voigt Hill
#
# Bulk Modulus (GPa) = 59.01028 61.63756 60.32392
# Shear Modulus (GPa) = 39.55520 44.58669 42.07094
#
# Velocity S-wave (km/s) = 4.00875 4.25608 4.13427
# Velocity P-wave (km/s) = 6.73802 7.01383 6.87730
#
# Compressibility (1/GPa) = 0.01694620
#
# Stress axis : x y z
#
# Youngs Moduli (GPa) = 103.92679 108.85526 109.36854
#
# Poissons Ratio (x) = 0.33546 0.04515
# Poissons Ratio (y) = 0.32027 0.21965
# Poissons Ratio (z) = 0.04291 0.21862
#
# Static dielectric constant tensor:
#      x y z
#    x 2.111220 0.000000 0.134420 
#    y 0.000000 2.029270 0.000000 
#    z 0.134420 0.000000 1.958580 
# 
# From -- ./inp_files/199731.got.cif
#   From: 2010.05.17/outbox.cif.g08.bks.cpg/sg15_100_cif.got.tgz:199731.got - 2010.06.03 18:47:42.
