data_PCOD9305242
_publ_section_title
;
Structure prediction by ZEFSAII (Michael W. Deem and Ramdas Pophale) SiO2 
 PCOD9305242
Probable space group: C 2/C
;
_chemical_formula_sum "Si O2"
_cell_formula_units_Z 40
_cell_length_a 8.197434
_cell_length_b 17.243227
_cell_length_c 11.938265
_cell_angle_alpha 90.000000
_cell_angle_beta 95.211896
_cell_angle_gamma 90.000000
_cell_volume 1680.499558
_symmetry_space_group_name_H-M "C 2/C"
_symmetry_group_IT_number 15
_symmetry_cell_setting 'monoclinic'
loop_
_space_group_symop_operation_xyz
x,y,z
-x,y,1/2-z
-x,-y,-z
x,-y,1/2+z
1/2+x,1/2+y,z
1/2-x,1/2+y,1/2-z
1/2-x,1/2-y,-z
1/2+x,1/2-y,1/2+z
loop_
_atom_site_type_symbol
_atom_site_label
_atom_site_fract_x
_atom_site_fract_y
_atom_site_fract_z
Si Si1 0.798206 0.647091 0.554114
Si Si2 0.166298 0.806695 0.830790
Si Si3 0.687929 0.573983 0.760334
Si Si4 0.179061 0.573877 0.293117
Si Si5 0.175259 0.338148 0.016149
O O1 0.779664 0.721955 0.630347
O O2 0.663086 0.647787 0.448662
O O3 0.774515 0.580471 0.643247
O O4 0.976714 0.659020 0.510601
O O5 0.305298 0.842958 0.764131
O O6 0.000000 0.805751 0.750000
O O7 0.500000 0.598009 0.750000
O O8 0.699568 0.481039 0.770173
O O9 0.771607 0.624973 0.861600
O O10 0.217579 0.598067 0.422907
O O11 0.000000 0.543006 0.250000
O O12 0.250000 0.250000 0.000000
#
# Coordination Sequence:
#
# PCOD9305242 Si02
#       5
#     8   8   8   8   8
#     4  11  25  47  73 107 151 190 243 305 369 441
#     4  11  24  43  74 107 145 190 240 305 365 436
#     4  12  30  46  73 109 148 195 251 305 374 441
#     4  12  26  47  75 105 149 192 248 304 379 441
#     4  12  27  48  79 109 148 198 246 304 372 453
#
# _framework density 23.802447000000001
#
# number of rings (size 3 to 8) (size 9 to 14) (size 15 to 20)
#    0.000    0.400    2.000    6.000   11.200    4.000 
#    0.000    0.000    0.000    0.000    0.000    0.000 
#    0.000    0.000    0.000    0.000    0.000    0.000 
#
# Total GULP energy -111635.048072 kJ/mol
# GULP energy per Si atom -5581.752404 kJ/mol
# Density = 2.374827 g / cm^3
# Si number density = 23.802447 Si / 1000 Ang^3
#
#
#
# Elastic Constant Matrix: (Units=GPa)
#
#
# Indices 1 2 3 4 5 6 
#
# 1 83.9163 6.1362 27.0050 0.0000 19.5250 0.0000
# 2 6.1362 61.7863 30.1451 0.0000 1.8984 0.0000
# 3 27.0050 30.1451 143.7442 0.0000 34.7893 0.0000
# 4 0.0000 0.0000 0.0000 44.6766 0.0000 -15.1758
# 5 19.5250 1.8984 34.7893 0.0000 38.5840 0.0000
# 6 0.0000 0.0000 0.0000 -15.1758 0.0000 26.3377
#
#
#
# Elastic Compliance Matrix: (Units=1/GPa)
#
#
# Indices 1 2 3 4 5 6 
#
# 1 0.013679 -0.000702 -0.000967 0.000000 -0.006016 0.000000
# 2 -0.000702 0.018385 -0.004593 0.000000 0.003592 0.000000
# 3 -0.000967 -0.004593 0.010142 0.000000 -0.008429 0.000000
# 4 0.000000 0.000000 0.000000 0.027830 0.000000 0.016036
# 5 -0.006016 0.003592 -0.008429 0.000000 0.036385 0.000000
# 6 0.000000 0.000000 0.000000 0.016036 0.000000 0.047208
#
#
# Mechanical properties :
#
#
# Convention : Reuss Voigt Hill
#
# Bulk Modulus (GPa) = 33.69034 46.22436 39.95735
# Shear Modulus (GPa) = 28.40160 36.99702 32.69931
#
# Velocity S-wave (km/s) = 3.45805 3.94678 3.71047
# Velocity P-wave (km/s) = 5.48899 6.34284 5.93130
#
# Compressibility (1/GPa) = 0.02968210
#
# Stress axis : x y z
#
# Youngs Moduli (GPa) = 73.10604 54.39188 98.60327
#
# Poissons Ratio (x) = 0.03819 0.09531
# Poissons Ratio (y) = 0.05132 0.45289
# Poissons Ratio (z) = 0.07066 0.24983
#
# Static dielectric constant tensor:
#      x y z
#    x 2.022510 0.000000 -0.008150 
#    y 0.000000 1.574600 0.000000 
#    z -0.008150 0.000000 2.003190 
# 
# From -- ./inp_files/76832.got.cif
#   From: 2010.05.17/outbox.cif.g08.bks.cpg/sg15_39_cif.got.tgz:76832.got - 2010.06.03 18:47:42.
