data_PCOD9305992
_publ_section_title
;
Structure prediction by ZEFSAII (Michael W. Deem and Ramdas Pophale) SiO2 
 PCOD9305992
Probable space group: C 2/C
;
_chemical_formula_sum "Si O2"
_cell_formula_units_Z 44
_cell_length_a 18.230796
_cell_length_b 8.991171
_cell_length_c 16.608548
_cell_angle_alpha 90.000000
_cell_angle_beta 143.484872
_cell_angle_gamma 90.000000
_cell_volume 1619.929352
_symmetry_space_group_name_H-M "C 2/C"
_symmetry_group_IT_number 15
_symmetry_cell_setting 'monoclinic'
loop_
_space_group_symop_operation_xyz
x,y,z
-x,y,1/2-z
-x,-y,-z
x,-y,1/2+z
1/2+x,1/2+y,z
1/2-x,1/2+y,1/2-z
1/2-x,1/2-y,-z
1/2+x,1/2-y,1/2+z
loop_
_atom_site_type_symbol
_atom_site_label
_atom_site_fract_x
_atom_site_fract_y
_atom_site_fract_z
Si Si1 0.250000 0.250000 0.500000
Si Si2 0.043318 0.794181 0.954287
Si Si3 0.090225 0.519368 0.165681
Si Si4 0.329176 0.468470 0.286220
Si Si5 0.507742 0.712503 0.664581
Si Si6 0.260333 0.581231 0.472449
O O1 0.368887 0.281820 0.546231
O O2 0.244601 0.434933 0.513750
O O3 0.982763 0.631570 0.905570
O O4 0.919521 0.894555 0.848751
O O5 0.101615 0.095152 0.942726
O O6 0.194631 0.524101 0.189635
O O7 0.125092 0.865738 0.098302
O O8 0.994334 0.653592 0.091177
O O9 0.361067 0.361185 0.240144
O O10 0.500000 0.759727 0.750000
O O11 0.332996 0.959961 0.682928
O O12 0.250000 0.750000 0.500000
#
# Coordination Sequence:
#
# PCOD9305992 Si02
#       6
#     4   8   8   8   8   8
#     4  12  24  48  80 118 166 216 280 356 422 504
#     4  11  25  47  79 116 162 220 277 364 426 513
#     4  12  26  49  80 117 162 225 285 347 438 514
#     4  11  24  52  76 116 167 216 286 360 431 523
#     4  12  26  48  78 115 166 226 280 356 432 514
#     4  12  25  49  77 119 165 216 280 349 416 515
#
# _framework density 27.161678999999999
#
# number of rings (size 3 to 8) (size 9 to 14) (size 15 to 20)
#    0.000    0.364    5.455    3.273    0.000    2.182 
#    3.273    0.000    0.000    0.000    0.000    0.000 
#    0.000    0.000    0.000    0.000    0.000    0.000 
#
# Total GULP energy -122586.887742 kJ/mol
# GULP energy per Si atom -5572.131261 kJ/mol
# Density = 2.709986 g / cm^3
# Si number density = 27.161679 Si / 1000 Ang^3
#
#
#
# Elastic Constant Matrix: (Units=GPa)
#
#
# Indices 1 2 3 4 5 6 
#
# 1 210.2416 102.5439 68.1001 0.0000 51.1021 0.0000
# 2 102.5439 276.0129 54.2731 0.0000 21.5111 0.0000
# 3 68.1001 54.2731 106.0399 0.0000 8.5311 0.0000
# 4 0.0000 0.0000 0.0000 27.8303 0.0000 10.6790
# 5 51.1021 21.5111 8.5311 0.0000 50.8485 0.0000
# 6 0.0000 0.0000 0.0000 10.6790 0.0000 59.0761
#
#
#
# Elastic Compliance Matrix: (Units=1/GPa)
#
#
# Indices 1 2 3 4 5 6 
#
# 1 0.008786 -0.001888 -0.004085 0.000000 -0.007346 0.000000
# 2 -0.001888 0.004532 -0.001120 0.000000 0.000169 0.000000
# 3 -0.004085 -0.001120 0.012427 0.000000 0.002494 0.000000
# 4 0.000000 0.000000 0.000000 0.038610 0.000000 -0.006979
# 5 -0.007346 0.000169 0.002494 0.000000 0.026559 0.000000
# 6 0.000000 0.000000 0.000000 -0.006979 0.000000 0.018189
#
#
# Mechanical properties :
#
#
# Convention : Reuss Voigt Hill
#
# Bulk Modulus (GPa) = 86.52764 115.79207 101.15985
# Shear Modulus (GPa) = 39.32601 52.04280 45.68441
#
# Velocity S-wave (km/s) = 3.80919 4.38201 4.10560
# Velocity P-wave (km/s) = 7.16046 8.26595 7.73298
#
# Compressibility (1/GPa) = 0.01155700
#
# Stress axis : x y z
#
# Youngs Moduli (GPa) = 113.81442 220.66555 80.47283
#
# Poissons Ratio (x) = 0.41673 0.32874
# Poissons Ratio (y) = 0.21494 0.09014
# Poissons Ratio (z) = 0.46494 0.24719
#
# Static dielectric constant tensor:
#      x y z
#    x 2.149320 0.000000 -0.042290 
#    y 0.000000 2.194330 0.000000 
#    z -0.042290 0.000000 2.231100 
# 
# From -- ./inp_files/276683.got.cif
#   From: 2010.05.17/outbox.cif.g08.bks.cpg/sg15_139_cif.got.tgz:276683.got - 2010.06.03 18:47:42.
