data_PCOD9305181
_publ_section_title
;
Structure prediction by ZEFSAII (Michael W. Deem and Ramdas Pophale) SiO2 
 PCOD9305181
Probable space group: C 2/C
;
_chemical_formula_sum "Si O2"
_cell_formula_units_Z 48
_cell_length_a 26.450349
_cell_length_b 8.922043
_cell_length_c 8.714750
_cell_angle_alpha 90.000000
_cell_angle_beta 87.249963
_cell_angle_gamma 90.000000
_cell_volume 2054.235408
_symmetry_space_group_name_H-M "C 2/C"
_symmetry_group_IT_number 15
_symmetry_cell_setting 'monoclinic'
loop_
_space_group_symop_operation_xyz
x,y,z
-x,y,1/2-z
-x,-y,-z
x,-y,1/2+z
1/2+x,1/2+y,z
1/2-x,1/2+y,1/2-z
1/2-x,1/2-y,-z
1/2+x,1/2-y,1/2+z
loop_
_atom_site_type_symbol
_atom_site_label
_atom_site_fract_x
_atom_site_fract_y
_atom_site_fract_z
Si Si1 0.608527 0.412318 0.301664
Si Si2 0.952379 0.589332 0.668591
Si Si3 0.219121 0.520330 0.072287
Si Si4 0.045180 0.880813 0.009709
Si Si5 0.717801 0.340158 0.213397
Si Si6 0.611889 0.865430 0.027871
O O1 0.590051 0.558702 0.393417
O O2 0.662856 0.416923 0.212271
O O3 0.614532 0.286966 0.432115
O O4 0.566962 0.371626 0.178335
O O5 0.971651 0.723438 0.557754
O O6 0.922081 0.475035 0.569663
O O7 0.914998 0.652106 0.804672
O O8 0.000000 0.520280 0.750000
O O9 0.256271 0.394860 0.134683
O O10 0.212396 0.661721 0.189998
O O11 0.165668 0.444809 0.045116
O O12 0.245141 0.595757 0.921995
O O13 0.000000 0.000000 0.000000
#
# Coordination Sequence:
#
# PCOD9305181 Si02
#       6
#     8   8   8   8   8   8
#     4  12  25  43  69  99 134 179 226 280 342 408
#     4  12  25  44  69 100 137 181 229 281 342 404
#     4  11  25  44  67  97 136 177 224 283 341 405
#     4  12  26  46  69 101 140 178 225 281 341 407
#     4  11  24  43  67  98 135 178 227 280 342 407
#     4  12  26  46  71 101 139 181 231 286 341 407
#
# _framework density 23.366357000000001
#
# number of rings (size 3 to 8) (size 9 to 14) (size 15 to 20)
#    0.000    0.333    0.000   10.000    0.000    9.333 
#    0.000    0.000    0.000    0.000    0.000    0.000 
#    0.000    0.000    0.000    0.000    0.000    0.000 
#
# Total GULP energy -134578.165516 kJ/mol
# GULP energy per Si atom -5607.423563 kJ/mol
# Density = 2.331317 g / cm^3
# Si number density = 23.366357 Si / 1000 Ang^3
#
#
#
# Elastic Constant Matrix: (Units=GPa)
#
#
# Indices 1 2 3 4 5 6 
#
# 1 126.0477 29.4774 14.1383 0.0000 23.1767 0.0000
# 2 29.4774 68.8469 27.4494 0.0000 26.7004 0.0000
# 3 14.1383 27.4494 87.0734 0.0000 14.9212 0.0000
# 4 0.0000 0.0000 0.0000 41.2625 0.0000 5.7500
# 5 23.1767 26.7004 14.9212 0.0000 50.1356 0.0000
# 6 0.0000 0.0000 0.0000 5.7500 0.0000 36.0513
#
#
#
# Elastic Compliance Matrix: (Units=1/GPa)
#
#
# Indices 1 2 3 4 5 6 
#
# 1 0.009096 -0.002805 -0.000135 0.000000 -0.002671 0.000000
# 2 -0.002805 0.020855 -0.004676 0.000000 -0.008418 0.000000
# 3 -0.000135 -0.004676 0.013217 0.000000 -0.001381 0.000000
# 4 0.000000 0.000000 0.000000 0.024786 0.000000 -0.003953
# 5 -0.002671 -0.008418 -0.001381 0.000000 0.026075 0.000000
# 6 0.000000 0.000000 0.000000 -0.003953 0.000000 0.028369
#
#
# Mechanical properties :
#
#
# Convention : Reuss Voigt Hill
#
# Bulk Modulus (GPa) = 35.79647 47.12203 41.45925
# Shear Modulus (GPa) = 34.02703 39.55009 36.78856
#
# Velocity S-wave (km/s) = 3.82021 4.11860 3.97221
# Velocity P-wave (km/s) = 5.90014 6.54427 6.23053
#
# Compressibility (1/GPa) = 0.02793572
#
# Stress axis : x y z
#
# Youngs Moduli (GPa) = 109.94261 47.94976 75.65824
#
# Poissons Ratio (x) = 0.13449 0.01022
# Poissons Ratio (y) = 0.30836 0.35381
# Poissons Ratio (z) = 0.01485 0.22424
#
# Static dielectric constant tensor:
#      x y z
#    x 1.850610 0.000000 -0.041630 
#    y 0.000000 1.850940 0.000000 
#    z -0.041630 0.000000 1.876150 
# 
# From -- ./inp_files/68580.got.cif
#   From: 2010.05.17/outbox.cif.g08.bks.cpg/sg15_35_cif.got.tgz:68580.got - 2010.06.03 18:47:42.
