data_PCOD9305473
_publ_section_title
;
Structure prediction by ZEFSAII (Michael W. Deem and Ramdas Pophale) SiO2 
 PCOD9305473
Probable space group: C 2/C
;
_chemical_formula_sum "Si O2"
_cell_formula_units_Z 48
_cell_length_a 9.020225
_cell_length_b 11.690902
_cell_length_c 20.037363
_cell_angle_alpha 90.000000
_cell_angle_beta 118.993092
_cell_angle_gamma 90.000000
_cell_volume 1848.222427
_symmetry_space_group_name_H-M "C 2/C"
_symmetry_group_IT_number 15
_symmetry_cell_setting 'monoclinic'
loop_
_space_group_symop_operation_xyz
x,y,z
-x,y,1/2-z
-x,-y,-z
x,-y,1/2+z
1/2+x,1/2+y,z
1/2-x,1/2+y,1/2-z
1/2-x,1/2-y,-z
1/2+x,1/2-y,1/2+z
loop_
_atom_site_type_symbol
_atom_site_label
_atom_site_fract_x
_atom_site_fract_y
_atom_site_fract_z
Si Si1 0.347496 0.312354 0.590269
Si Si2 0.200198 0.918772 0.100081
Si Si3 0.702227 0.555071 0.975265
Si Si4 0.322247 0.021443 0.767946
Si Si5 0.000000 0.686688 0.250000
Si Si6 0.000000 0.089601 0.250000
Si Si7 0.827943 0.697235 0.884448
O O1 0.238627 0.197439 0.567838
O O2 0.264903 0.432094 0.552192
O O3 0.399224 0.332541 0.677691
O O4 0.524061 0.289960 0.590180
O O5 0.313014 0.925377 0.191613
O O6 0.240162 0.027230 0.060772
O O7 0.999854 0.921329 0.072532
O O8 0.801417 0.647546 0.952745
O O9 0.414092 0.899669 0.783786
O O10 0.127366 0.990741 0.738787
O O11 0.380279 0.099778 0.841745
O O12 0.148917 0.757379 0.317298
#
# Coordination Sequence:
#
# PCOD9305473 Si02
#       7
#     8   8   8   8   4   4   8
#     4  12  24  44  67 100 131 174 223 272 332 391
#     4  11  24  45  69  95 137 181 215 274 338 384
#     4  11  25  45  66  98 137 174 226 272 322 403
#     4  12  23  44  66  96 134 167 221 274 326 394
#     4  12  25  41  66 102 128 168 219 275 334 384
#     4  12  21  41  70  92 132 164 217 281 316 392
#     4  12  25  41  71  98 129 177 220 270 336 388
#
# _framework density 25.970897999999998
#
# number of rings (size 3 to 8) (size 9 to 14) (size 15 to 20)
#    0.000    0.333    5.000    4.000    2.333    0.667 
#    0.000    9.167    0.000    0.000    0.000    0.000 
#    0.000    0.000    0.000    0.000    0.000    0.000 
#
# Total GULP energy -134597.491531 kJ/mol
# GULP energy per Si atom -5608.228814 kJ/mol
# Density = 2.591179 g / cm^3
# Si number density = 25.970898 Si / 1000 Ang^3
#
#
#
# Elastic Constant Matrix: (Units=GPa)
#
#
# Indices 1 2 3 4 5 6 
#
# 1 91.0718 29.6888 23.2632 0.0000 -23.6666 0.0000
# 2 29.6888 83.3860 4.4762 0.0000 -11.3389 0.0000
# 3 23.2632 4.4762 86.3155 0.0000 -4.8350 0.0000
# 4 0.0000 0.0000 0.0000 45.2506 0.0000 -9.1846
# 5 -23.6666 -11.3389 -4.8350 0.0000 37.0115 0.0000
# 6 0.0000 0.0000 0.0000 -9.1846 0.0000 58.6057
#
#
#
# Elastic Compliance Matrix: (Units=1/GPa)
#
#
# Indices 1 2 3 4 5 6 
#
# 1 0.015321 -0.004172 -0.003461 0.000000 0.008066 0.000000
# 2 -0.004172 0.013666 0.000505 0.000000 0.001585 0.000000
# 3 -0.003461 0.000505 0.012468 0.000000 -0.000430 0.000000
# 4 0.000000 0.000000 0.000000 0.022825 0.000000 0.003577
# 5 0.008066 0.001585 -0.000430 0.000000 0.032606 0.000000
# 6 0.000000 0.000000 0.000000 0.003577 0.000000 0.017624
#
#
# Mechanical properties :
#
#
# Convention : Reuss Voigt Hill
#
# Bulk Modulus (GPa) = 36.76766 41.73663 39.25215
# Shear Modulus (GPa) = 36.27581 41.72991 39.00286
#
# Velocity S-wave (km/s) = 3.74142 4.01283 3.87950
# Velocity P-wave (km/s) = 5.73169 6.12992 5.93414
#
# Compressibility (1/GPa) = 0.02719782
#
# Stress axis : x y z
#
# Youngs Moduli (GPa) = 65.27133 73.17263 80.20573
#
# Poissons Ratio (x) = 0.30529 0.27759
# Poissons Ratio (y) = 0.27232 -0.04047
# Poissons Ratio (z) = 0.22590 -0.03692
#
# Static dielectric constant tensor:
#      x y z
#    x 2.032480 0.000000 -0.011010 
#    y 0.000000 1.996810 0.000000 
#    z -0.011010 0.000000 2.085240 
# 
# From -- ./inp_files/263582.got.cif
#   From: 2010.05.17/outbox.cif.g08.bks.cpg/sg15_132_cif.got.tgz:263582.got - 2010.06.03 18:47:42.
