data_PCOD9305718
_publ_section_title
;
Structure prediction by ZEFSAII (Michael W. Deem and Ramdas Pophale) SiO2 
 PCOD9305718
Probable space group: C 2/C
;
_chemical_formula_sum "Si O2"
_cell_formula_units_Z 40
_cell_length_a 11.334424
_cell_length_b 15.197006
_cell_length_c 9.038256
_cell_angle_alpha 90.000000
_cell_angle_beta 86.610873
_cell_angle_gamma 90.000000
_cell_volume 1554.110554
_symmetry_space_group_name_H-M "C 2/C"
_symmetry_group_IT_number 15
_symmetry_cell_setting 'monoclinic'
loop_
_space_group_symop_operation_xyz
x,y,z
-x,y,1/2-z
-x,-y,-z
x,-y,1/2+z
1/2+x,1/2+y,z
1/2-x,1/2+y,1/2-z
1/2-x,1/2-y,-z
1/2+x,1/2-y,1/2+z
loop_
_atom_site_type_symbol
_atom_site_label
_atom_site_fract_x
_atom_site_fract_y
_atom_site_fract_z
Si Si1 0.325337 0.505272 0.047356
Si Si2 0.108155 0.606731 0.647313
Si Si3 0.892198 0.681190 0.168796
Si Si4 0.786437 0.181354 0.868388
Si Si5 0.381689 0.382407 0.808383
O O1 0.191485 0.471257 0.081481
O O2 0.378631 0.535654 0.196564
O O3 0.322635 0.591498 0.945686
O O4 0.391266 0.422528 0.970583
O O5 0.080868 0.668304 0.506981
O O6 0.180832 0.660008 0.764322
O O7 0.000000 0.571650 0.750000
O O8 0.880687 0.773953 0.253387
O O9 0.753694 0.651353 0.193693
O O10 0.000000 0.635511 0.250000
O O11 0.750000 0.250000 0.000000
O O12 0.500000 0.330542 0.750000
#
# Coordination Sequence:
#
# PCOD9305718 Si02
#       5
#     8   8   8   8   8
#     4  11  24  47  73 110 150 202 262 316 386 463
#     4  11  26  48  78 111 157 207 263 321 388 468
#     4  11  26  49  77 113 155 203 258 322 399 463
#     4  12  24  47  72 107 157 203 252 317 389 464
#     4  11  24  46  76 105 152 201 263 317 384 466
#
# _framework density 25.738195999999999
#
# number of rings (size 3 to 8) (size 9 to 14) (size 15 to 20)
#    0.000    0.800    4.000    2.400    0.000    3.200 
#   10.800    0.000    0.000    0.000    0.000    0.000 
#    0.000    0.000    0.000    0.000    0.000    0.000 
#
# Total GULP energy -111813.577015 kJ/mol
# GULP energy per Si atom -5590.678851 kJ/mol
# Density = 2.567961 g / cm^3
# Si number density = 25.738196 Si / 1000 Ang^3
#
#
#
# Elastic Constant Matrix: (Units=GPa)
#
#
# Indices 1 2 3 4 5 6 
#
# 1 151.3229 44.7061 40.8793 0.0000 -30.1592 0.0000
# 2 44.7061 102.3476 60.2540 0.0000 -12.5296 0.0000
# 3 40.8793 60.2540 154.4777 0.0000 6.3678 0.0000
# 4 0.0000 0.0000 0.0000 -17.0115 0.0000 -8.2126
# 5 -30.1592 -12.5296 6.3678 0.0000 58.4343 0.0000
# 6 0.0000 0.0000 0.0000 -8.2126 0.0000 14.0456
#
#
#
# Elastic Compliance Matrix: (Units=1/GPa)
#
#
# Indices 1 2 3 4 5 6 
#
# 1 0.008515 -0.002333 -0.001511 0.000000 0.004059 0.000000
# 2 -0.002333 0.013978 -0.004931 0.000000 0.002330 0.000000
# 3 -0.001511 -0.004931 0.008912 0.000000 -0.002808 0.000000
# 4 0.000000 0.000000 0.000000 -0.045843 0.000000 -0.026805
# 5 0.004059 0.002330 -0.002808 0.000000 0.020014 0.000000
# 6 0.000000 0.000000 0.000000 -0.026805 0.000000 0.055524
#
#
# Mechanical properties :
#
#
# Convention : Reuss Voigt Hill
#
# Bulk Modulus (GPa) = 72.17092 77.75854 74.96473
# Shear Modulus (GPa) = 60.04845 28.58093 44.31469
#
# Velocity S-wave (km/s) = 4.83540 3.33595 4.15390
# Velocity P-wave (km/s) = 7.69910 6.71677 7.22465
#
# Compressibility (1/GPa) = 0.01385600
#
# Stress axis : x y z
#
# Youngs Moduli (GPa) = 117.44408 71.54193 112.20655
#
# Poissons Ratio (x) = 0.16691 0.16949
# Poissons Ratio (y) = 0.27401 0.55326
# Poissons Ratio (z) = 0.17740 0.35275
#
# Static dielectric constant tensor:
#      x y z
#    x 2.199790 0.000000 -0.073640 
#    y 0.000000 2.124570 0.000000 
#    z -0.073640 0.000000 2.024060 
# 
# From -- ./inp_files/30309.got.cif
#   From: 2010.05.17/outbox.cif.g08.bks.cpg/sg15_16_cif.got.tgz:30309.got - 2010.06.03 18:47:42.
