data_PCOD9305028
_publ_section_title
;
Structure prediction by ZEFSAII (Michael W. Deem and Ramdas Pophale) SiO2 
 PCOD9305028
Probable space group: C 2/C
;
_chemical_formula_sum "Si O2"
_cell_formula_units_Z 48
_cell_length_a 20.293409
_cell_length_b 18.198065
_cell_length_c 12.687947
_cell_angle_alpha 90.000000
_cell_angle_beta 153.025166
_cell_angle_gamma 90.000000
_cell_volume 2125.415091
_symmetry_space_group_name_H-M "C 2/C"
_symmetry_group_IT_number 15
_symmetry_cell_setting 'monoclinic'
loop_
_space_group_symop_operation_xyz
x,y,z
-x,y,1/2-z
-x,-y,-z
x,-y,1/2+z
1/2+x,1/2+y,z
1/2-x,1/2+y,1/2-z
1/2-x,1/2-y,-z
1/2+x,1/2-y,1/2+z
loop_
_atom_site_type_symbol
_atom_site_label
_atom_site_fract_x
_atom_site_fract_y
_atom_site_fract_z
Si Si1 0.396135 0.846114 0.194808
Si Si2 0.141159 0.561837 0.646835
Si Si3 0.603099 0.291157 0.672496
Si Si4 0.818571 0.585047 0.180240
Si Si5 0.325680 0.621192 0.724280
Si Si6 0.162865 0.232628 0.025221
O O1 0.500000 0.873839 0.250000
O O2 0.367794 0.900091 0.251415
O O3 0.458145 0.770308 0.334637
O O4 0.242592 0.825991 0.925150
O O5 0.171831 0.476928 0.716620
O O6 0.263793 0.587987 0.742741
O O7 0.984040 0.582272 0.373170
O O8 0.488581 0.352502 0.474800
O O9 0.649864 0.251850 0.631074
O O10 0.709453 0.571409 0.927044
O O11 0.762373 0.661074 0.149705
O O12 0.235502 0.696640 0.575895
O O13 0.000000 0.219982 0.750000
#
# Coordination Sequence:
#
# PCOD9305028 Si02
#       6
#     8   8   8   8   8   8
#     4  11  24  44  68  95 139 182 229 279 334 414
#     4  11  25  45  69  98 136 185 228 274 347 413
#     4  11  24  41  68 105 135 176 229 285 339 399
#     4  11  25  44  69 100 138 180 227 283 341 413
#     4  12  24  43  71 105 136 175 233 288 342 407
#     4  12  23  43  71 103 138 175 226 285 345 402
#
# _framework density 22.583825000000001
#
# number of rings (size 3 to 8) (size 9 to 14) (size 15 to 20)
#    0.000    0.667    3.333    5.000    2.333    4.000 
#    3.000    1.667    0.000    0.000    0.000    0.000 
#    0.000    0.000    0.000    0.000    0.000    0.000 
#
# Total GULP energy -134328.433533 kJ/mol
# GULP energy per Si atom -5597.018064 kJ/mol
# Density = 2.253242 g / cm^3
# Si number density = 22.583825 Si / 1000 Ang^3
#
#
#
# Elastic Constant Matrix: (Units=GPa)
#
#
# Indices 1 2 3 4 5 6 
#
# 1 72.7465 6.9698 7.6010 0.0000 -14.6026 0.0000
# 2 6.9698 63.7546 20.3199 0.0000 2.0961 0.0000
# 3 7.6010 20.3199 135.5881 0.0000 -5.9490 0.0000
# 4 0.0000 0.0000 0.0000 4.5739 0.0000 3.9010
# 5 -14.6026 2.0961 -5.9490 0.0000 32.9140 0.0000
# 6 0.0000 0.0000 0.0000 3.9010 0.0000 26.0659
#
#
#
# Elastic Compliance Matrix: (Units=1/GPa)
#
#
# Indices 1 2 3 4 5 6 
#
# 1 0.015327 -0.001810 -0.000287 0.000000 0.006864 0.000000
# 2 -0.001810 0.016760 -0.002512 0.000000 -0.002324 0.000000
# 3 -0.000287 -0.002512 0.007831 0.000000 0.001448 0.000000
# 4 0.000000 0.000000 0.000000 0.250622 0.000000 -0.037508
# 5 0.006864 -0.002324 0.001448 0.000000 0.033837 0.000000
# 6 0.000000 0.000000 0.000000 -0.037508 0.000000 0.043978
#
#
# Mechanical properties :
#
#
# Convention : Reuss Voigt Hill
#
# Bulk Modulus (GPa) = 32.57224 37.98562 35.27893
# Shear Modulus (GPa) = 12.89300 28.52400 20.70850
#
# Velocity S-wave (km/s) = 2.39193 3.55777 3.03142
# Velocity P-wave (km/s) = 4.69921 5.80804 5.28280
#
# Compressibility (1/GPa) = 0.03070099
#
# Stress axis : x y z
#
# Youngs Moduli (GPa) = 65.24229 59.66544 127.69104
#
# Poissons Ratio (x) = 0.10799 0.03663
# Poissons Ratio (y) = 0.11808 0.32079
# Poissons Ratio (z) = 0.01872 0.14990
#
# Static dielectric constant tensor:
#      x y z
#    x 1.823050 0.000000 -0.011020 
#    y 0.000000 1.866160 0.000000 
#    z -0.011020 0.000000 1.829180 
# 
# From -- ./inp_files/114302.got.cif
#   From: 2010.05.17/outbox.cif.g08.bks.cpg/sg15_58_cif.got.tgz:114302.got - 2010.06.03 18:47:42.
