data_PCOD9305074
_publ_section_title
;
Structure prediction by ZEFSAII (Michael W. Deem and Ramdas Pophale) SiO2 
 PCOD9305074
Probable space group: C 2/C
;
_chemical_formula_sum "Si O2"
_cell_formula_units_Z 48
_cell_length_a 17.905476
_cell_length_b 14.773645
_cell_length_c 18.453576
_cell_angle_alpha 90.000000
_cell_angle_beta 152.883005
_cell_angle_gamma 90.000000
_cell_volume 2225.035311
_symmetry_space_group_name_H-M "C 2/C"
_symmetry_group_IT_number 15
_symmetry_cell_setting 'monoclinic'
loop_
_space_group_symop_operation_xyz
x,y,z
-x,y,1/2-z
-x,-y,-z
x,-y,1/2+z
1/2+x,1/2+y,z
1/2-x,1/2+y,1/2-z
1/2-x,1/2-y,-z
1/2+x,1/2-y,1/2+z
loop_
_atom_site_type_symbol
_atom_site_label
_atom_site_fract_x
_atom_site_fract_y
_atom_site_fract_z
Si Si1 0.854692 0.365062 0.451115
Si Si2 0.358785 0.459917 0.966795
Si Si3 0.010188 0.803993 0.343247
Si Si4 0.497957 0.973346 0.161765
Si Si5 0.437041 0.628706 0.380833
Si Si6 0.579152 0.174800 0.010606
O O1 0.664683 0.340065 0.279730
O O2 0.880281 0.456122 0.518761
O O3 0.937481 0.283916 0.567781
O O4 0.948863 0.366194 0.455998
O O5 0.415605 0.405720 0.944614
O O6 0.180856 0.498665 0.796982
O O7 0.362070 0.385307 0.032649
O O8 0.477492 0.544198 0.085002
O O9 0.000000 0.782887 0.250000
O O10 0.500000 0.979172 0.250000
O O11 0.452275 0.875213 0.092173
O O12 0.546520 0.718606 0.476110
O O13 0.260278 0.653588 0.196139
#
# Coordination Sequence:
#
# PCOD9305074 Si02
#       6
#     8   8   8   8   8   8
#     4  12  23  40  66  97 134 176 226 271 332 404
#     4  11  24  42  66 100 133 177 222 274 329 395
#     4  12  24  40  63  97 140 178 216 276 344 397
#     4  12  26  45  68 100 138 176 223 279 339 398
#     4  11  24  42  70  98 132 170 232 278 319 390
#     4  12  24  45  69 101 128 181 225 278 330 394
#
# _framework density 21.572690999999999
#
# number of rings (size 3 to 8) (size 9 to 14) (size 15 to 20)
#    0.000    0.333    3.333    6.500    4.667    0.000 
#    0.000    4.167    0.000    0.000    0.000    0.000 
#    0.000    0.000    0.000    0.000    0.000    0.000 
#
# Total GULP energy -134465.913423 kJ/mol
# GULP energy per Si atom -5602.746393 kJ/mol
# Density = 2.152359 g / cm^3
# Si number density = 21.572691 Si / 1000 Ang^3
#
#
#
# Elastic Constant Matrix: (Units=GPa)
#
#
# Indices 1 2 3 4 5 6 
#
# 1 21.8015 18.7698 -7.3303 0.0002 -11.4542 0.0001
# 2 18.7698 130.2540 23.9714 0.0009 -3.5162 0.0005
# 3 -7.3303 23.9714 84.9233 0.0012 13.1321 0.0003
# 4 0.0002 0.0009 0.0012 46.2979 0.0007 -3.0495
# 5 -11.4542 -3.5162 13.1321 0.0007 31.0793 0.0002
# 6 0.0001 0.0005 0.0003 -3.0495 0.0002 12.4721
#
#
#
# Elastic Compliance Matrix: (Units=1/GPa)
#
#
# Indices 1 2 3 4 5 6 
#
# 1 0.067759 -0.010174 0.005389 -0.000001 0.021544 -0.000001
# 2 -0.010174 0.009745 -0.003445 0.000000 -0.001192 0.000000
# 3 0.005389 -0.003445 0.013872 0.000000 -0.004265 0.000000
# 4 -0.000001 0.000000 0.000000 0.021953 -0.000001 0.005368
# 5 0.021544 -0.001192 -0.004265 -0.000001 0.041783 -0.000001
# 6 -0.000001 0.000000 0.000000 0.005368 -0.000001 0.081491
#
#
# Mechanical properties :
#
#
# Convention : Reuss Voigt Hill
#
# Bulk Modulus (GPa) = 13.34813 34.20008 23.77411
# Shear Modulus (GPa) = 17.98327 31.40772 24.69550
#
# Velocity S-wave (km/s) = 2.89037 3.81977 3.38710
# Velocity P-wave (km/s) = 4.16412 5.94491 5.13234
#
# Compressibility (1/GPa) = 0.07491686
#
# Stress axis : x y z
#
# Youngs Moduli (GPa) = 14.75814 102.61421 72.08563
#
# Poissons Ratio (x) = 1.04404 -0.38848
# Poissons Ratio (y) = 0.15016 0.24832
# Poissons Ratio (z) = -0.07953 0.35348
#
# Static dielectric constant tensor:
#      x y z
#    x 1.783850 0.000000 0.025810 
#    y 0.000000 1.762090 0.000000 
#    z 0.025810 0.000000 1.764510 
# 
# From -- ./inp_files/66385.got.cif
#   From: 2010.05.17/outbox.cif.g08.bks.cpg/sg15_34_cif.got.tgz:66385.got - 2010.06.03 18:47:42.
