data_PCOD9305087
_publ_section_title
;
Structure prediction by ZEFSAII (Michael W. Deem and Ramdas Pophale) SiO2 
 PCOD9305087
Probable space group: C 2/C
;
_chemical_formula_sum "Si O2"
_cell_formula_units_Z 40
_cell_length_a 20.691385
_cell_length_b 11.585762
_cell_length_c 21.792119
_cell_angle_alpha 90.000000
_cell_angle_beta 20.501403
_cell_angle_gamma 90.000000
_cell_volume 1829.647236
_symmetry_space_group_name_H-M "C 2/C"
_symmetry_group_IT_number 15
_symmetry_cell_setting 'monoclinic'
loop_
_space_group_symop_operation_xyz
x,y,z
-x,y,1/2-z
-x,-y,-z
x,-y,1/2+z
1/2+x,1/2+y,z
1/2-x,1/2+y,1/2-z
1/2-x,1/2-y,-z
1/2+x,1/2-y,1/2+z
loop_
_atom_site_type_symbol
_atom_site_label
_atom_site_fract_x
_atom_site_fract_y
_atom_site_fract_z
Si Si1 0.666889 0.608828 0.472251
Si Si2 0.144282 0.823028 0.171391
Si Si3 0.921333 0.347353 0.535413
Si Si4 0.002931 0.570184 0.403094
Si Si5 0.496041 0.585732 0.063091
O O1 0.799046 0.691378 0.395691
O O2 0.469752 0.666583 0.662982
O O3 0.606492 0.476021 0.520726
O O4 0.797731 0.614120 0.296154
O O5 0.000000 0.869807 0.250000
O O6 0.332671 0.893228 0.011845
O O7 0.006808 0.431936 0.408170
O O8 0.714421 0.393663 0.729525
O O9 0.924800 0.211763 0.521419
O O10 0.031748 0.374455 0.499628
O O11 0.500000 0.500000 0.000000
#
# Coordination Sequence:
#
# PCOD9305087 Si02
#       5
#     8   8   8   8   8
#     4  12  24  41  66  95 131 178 217 275 332 390
#     4  12  26  43  68  99 131 171 231 284 331 384
#     4  11  25  41  63 102 139 174 218 266 329 408
#     4  11  24  42  67  95 139 173 216 269 335 391
#     4  12  24  39  65  97 136 180 220 262 333 404
#
# _framework density 21.862137000000001
#
# number of rings (size 3 to 8) (size 9 to 14) (size 15 to 20)
#    0.000    0.400    6.000    3.000    2.800    0.000 
#    0.000    0.000    0.000    2.400    0.000    0.000 
#    0.000    0.000    0.000    0.000    0.000    0.000 
#
# Total GULP energy -111352.482172 kJ/mol
# GULP energy per Si atom -5567.624109 kJ/mol
# Density = 2.181238 g / cm^3
# Si number density = 21.862137 Si / 1000 Ang^3
#
#
#
# Elastic Constant Matrix: (Units=GPa)
#
#
# Indices 1 2 3 4 5 6 
#
# 1 64.3495 42.0488 21.2756 0.0004 -21.4375 -0.0001
# 2 42.0488 172.9397 37.4912 0.0036 -6.5376 -0.0007
# 3 21.2756 37.4912 122.4997 0.0097 4.4221 -0.0012
# 4 0.0004 0.0036 0.0097 49.4977 0.0003 -4.9341
# 5 -21.4375 -6.5376 4.4221 0.0003 34.8992 -0.0001
# 6 -0.0001 -0.0007 -0.0012 -4.9341 -0.0001 27.2214
#
#
#
# Elastic Compliance Matrix: (Units=1/GPa)
#
#
# Indices 1 2 3 4 5 6 
#
# 1 0.024608 -0.004700 -0.003365 0.000001 0.014662 0.000000
# 2 -0.004700 0.007160 -0.001325 0.000000 -0.001377 0.000000
# 3 -0.003365 -0.001325 0.009279 -0.000002 -0.003491 0.000000
# 4 0.000001 0.000000 -0.000002 0.020575 0.000000 0.003729
# 5 0.014662 -0.001377 -0.003491 0.000000 0.037845 0.000000
# 6 0.000000 0.000000 0.000000 0.003729 0.000000 0.037412
#
#
# Mechanical properties :
#
#
# Convention : Reuss Voigt Hill
#
# Bulk Modulus (GPa) = 44.90759 62.38002 53.64381
# Shear Modulus (GPa) = 30.65957 39.58855 35.12406
#
# Velocity S-wave (km/s) = 3.74893 4.26000 4.01261
# Velocity P-wave (km/s) = 6.27098 7.26582 6.78665
#
# Compressibility (1/GPa) = 0.02226795
#
# Stress axis : x y z
#
# Youngs Moduli (GPa) = 40.63713 139.65930 107.76578
#
# Poissons Ratio (x) = 0.65633 0.36262
# Poissons Ratio (y) = 0.19097 0.14284
# Poissons Ratio (z) = 0.13674 0.18512
#
# Static dielectric constant tensor:
#      x y z
#    x 1.897890 0.000000 0.063640 
#    y 0.000000 1.844060 0.000000 
#    z 0.063640 0.000000 1.837320 
# 
# From -- ./inp_files/279942.got.cif
#   From: 2010.05.17/outbox.cif.g08.bks.cpg/sg15_140_cif.got.tgz:279942.got - 2010.06.03 18:47:42.
