data_PCOD9305416
_publ_section_title
;
Structure prediction by ZEFSAII (Michael W. Deem and Ramdas Pophale) SiO2 
 PCOD9305416
Probable space group: C 2/C
;
_chemical_formula_sum "Si O2"
_cell_formula_units_Z 52
_cell_length_a 26.556731
_cell_length_b 8.719362
_cell_length_c 14.376758
_cell_angle_alpha 90.000000
_cell_angle_beta 36.242817
_cell_angle_gamma 90.000000
_cell_volume 1968.162650
_symmetry_space_group_name_H-M "C 2/C"
_symmetry_group_IT_number 15
_symmetry_cell_setting 'monoclinic'
loop_
_space_group_symop_operation_xyz
x,y,z
-x,y,1/2-z
-x,-y,-z
x,-y,1/2+z
1/2+x,1/2+y,z
1/2-x,1/2+y,1/2-z
1/2-x,1/2-y,-z
1/2+x,1/2-y,1/2+z
loop_
_atom_site_type_symbol
_atom_site_label
_atom_site_fract_x
_atom_site_fract_y
_atom_site_fract_z
Si Si1 0.134398 0.686221 0.610521
Si Si2 0.280152 0.278415 0.559705
Si Si3 0.474600 0.508743 0.187453
Si Si4 0.719754 0.105958 0.666430
Si Si5 0.598336 0.320910 0.373719
Si Si6 0.000000 0.500000 0.000000
Si Si7 0.403170 0.072135 0.475283
O O1 0.078912 0.835030 0.715678
O O2 0.225948 0.743270 0.434766
O O3 0.151122 0.600087 0.683863
O O4 0.098857 0.579758 0.583477
O O5 0.250000 0.250000 0.500000
O O6 0.280217 0.459692 0.573449
O O7 0.198660 0.208276 0.736346
O O8 0.367483 0.200023 0.458130
O O9 0.500000 0.446871 0.250000
O O10 0.423195 0.400222 0.193369
O O11 0.559741 0.561780 0.006206
O O12 0.665961 0.093746 0.838961
O O13 0.551130 0.158057 0.454448
O O14 0.986601 0.426145 0.913385
#
# Coordination Sequence:
#
# PCOD9305416 Si02
#       7
#     8   8   8   8   8   4   8
#     4  11  25  48  75 116 154 208 272 336 409 496
#     4  12  25  49  75 119 154 204 267 343 408 493
#     4  11  26  48  74 107 155 216 260 330 412 499
#     4  11  24  44  74 113 155 199 264 331 411 478
#     4  11  27  50  73 110 158 200 272 336 405 491
#     4  12  26  50  74 116 156 216 270 330 422 486
#     4  12  26  47  81 112 159 210 265 341 406 495
#
# _framework density 26.420580999999999
#
# number of rings (size 3 to 8) (size 9 to 14) (size 15 to 20)
#    0.000    0.615    3.077    3.692    4.308    2.462 
#    2.769    2.308    0.000    0.000    0.000    0.000 
#    0.000    0.000    0.000    0.000    0.000    0.000 
#
# Total GULP energy -145395.175592 kJ/mol
# GULP energy per Si atom -5592.122138 kJ/mol
# Density = 2.636045 g / cm^3
# Si number density = 26.420581 Si / 1000 Ang^3
#
#
#
# Elastic Constant Matrix: (Units=GPa)
#
#
# Indices 1 2 3 4 5 6 
#
# 1 195.5493 63.0236 45.2233 0.0001 23.0264 -0.0001
# 2 63.0236 98.2028 33.0550 0.0008 -1.3232 -0.0009
# 3 45.2233 33.0550 108.4638 0.0004 18.1295 -0.0005
# 4 0.0001 0.0008 0.0004 47.8080 -0.0002 -2.9770
# 5 23.0264 -1.3232 18.1295 -0.0002 49.8811 0.0002
# 6 -0.0001 -0.0009 -0.0005 -2.9770 0.0002 42.5309
#
#
#
# Elastic Compliance Matrix: (Units=1/GPa)
#
#
# Indices 1 2 3 4 5 6 
#
# 1 0.007085 -0.004188 -0.001184 0.000000 -0.002951 0.000000
# 2 -0.004188 0.013953 -0.003078 0.000000 0.003422 0.000000
# 3 -0.001184 -0.003078 0.011258 0.000000 -0.003627 0.000000
# 4 0.000000 0.000000 0.000000 0.021009 0.000000 0.001471
# 5 -0.002951 0.003422 -0.003627 0.000000 0.022819 0.000000
# 6 0.000000 0.000000 0.000000 0.001471 0.000000 0.023615
#
#
# Mechanical properties :
#
#
# Convention : Reuss Voigt Hill
#
# Bulk Modulus (GPa) = 64.95775 76.09106 70.52440
# Shear Modulus (GPa) = 41.06066 45.43825 43.24945
#
# Velocity S-wave (km/s) = 3.94651 4.15155 4.05033
# Velocity P-wave (km/s) = 6.73839 7.20021 6.97312
#
# Compressibility (1/GPa) = 0.01539462
#
# Stress axis : x y z
#
# Youngs Moduli (GPa) = 141.14353 71.66940 88.82775
#
# Poissons Ratio (x) = 0.30015 0.10521
# Poissons Ratio (y) = 0.59111 0.27342
# Poissons Ratio (z) = 0.16717 0.22060
#
# Static dielectric constant tensor:
#      x y z
#    x 2.093150 0.000000 0.154540 
#    y 0.000000 1.976010 0.000000 
#    z 0.154540 0.000000 2.207330 
# 
# From -- ./inp_files/181043.got.cif
#   From: 2010.05.17/outbox.cif.g08.bks.cpg/sg15_91_cif.got.tgz:181043.got - 2010.06.03 18:47:42.
