data_PCOD9305157
_publ_section_title
;
Structure prediction by ZEFSAII (Michael W. Deem and Ramdas Pophale) SiO2 
 PCOD9305157
Probable space group: C 2/C
;
_chemical_formula_sum "Si O2"
_cell_formula_units_Z 44
_cell_length_a 25.612200
_cell_length_b 12.316906
_cell_length_c 8.816256
_cell_angle_alpha 90.000000
_cell_angle_beta 49.979635
_cell_angle_gamma 90.000000
_cell_volume 2129.889619
_symmetry_space_group_name_H-M "C 2/C"
_symmetry_group_IT_number 15
_symmetry_cell_setting 'monoclinic'
loop_
_space_group_symop_operation_xyz
x,y,z
-x,y,1/2-z
-x,-y,-z
x,-y,1/2+z
1/2+x,1/2+y,z
1/2-x,1/2+y,1/2-z
1/2-x,1/2-y,-z
1/2+x,1/2-y,1/2+z
loop_
_atom_site_type_symbol
_atom_site_label
_atom_site_fract_x
_atom_site_fract_y
_atom_site_fract_z
Si Si1 0.428736 0.644633 0.436685
Si Si2 0.586991 0.422093 0.870348
Si Si3 0.000000 0.774459 0.250000
Si Si4 0.862681 0.257186 0.823445
Si Si5 0.239766 0.130251 0.088387
Si Si6 0.241689 0.410895 0.613287
O O1 0.500000 0.693280 0.250000
O O2 0.433655 0.542182 0.540387
O O3 0.404459 0.592850 0.325046
O O4 0.386735 0.731148 0.607364
O O5 0.661840 0.389903 0.784681
O O6 0.532910 0.344323 0.052712
O O7 0.069560 0.725633 0.199020
O O8 0.812033 0.358406 0.904074
O O9 0.812936 0.154806 0.954548
O O10 0.278872 0.109626 0.173437
O O11 0.250000 0.250000 0.000000
O O12 0.253672 0.037159 0.938187
#
# Coordination Sequence:
#
# PCOD9305157 Si02
#       6
#     8   8   4   8   8   8
#     4  12  21  34  57  95 140 171 217 284 351 413
#     4  12  22  34  58  97 134 174 226 283 352 414
#     4  12  22  40  64  98 140 186 224 292 358 420
#     4  11  24  43  65 101 142 184 228 290 354 421
#     4  12  26  44  72 102 142 187 237 291 351 418
#     4  11  26  44  70 101 144 183 236 289 348 422
#
# _framework density 20.658348
#
# number of rings (size 3 to 8) (size 9 to 14) (size 15 to 20)
#    0.000    0.364    6.364    3.818    5.091    0.000 
#    0.000    0.000    0.000    4.364    2.364    0.000 
#    0.000    0.000    0.000    0.000    0.000    0.000 
#
# Total GULP energy -122667.033077 kJ/mol
# GULP energy per Si atom -5575.774231 kJ/mol
# Density = 2.061133 g / cm^3
# Si number density = 20.658348 Si / 1000 Ang^3
#
#
#
# Elastic Constant Matrix: (Units=GPa)
#
#
# Indices 1 2 3 4 5 6 
#
# 1 141.8648 34.2086 29.8418 0.0000 13.7486 0.0000
# 2 34.2086 114.1769 34.2209 0.0000 8.6701 0.0000
# 3 29.8418 34.2209 87.3054 0.0000 18.3718 0.0000
# 4 0.0000 0.0000 0.0000 -4.4277 0.0000 -15.0741
# 5 13.7486 8.6701 18.3718 0.0000 32.5842 0.0000
# 6 0.0000 0.0000 0.0000 -15.0741 0.0000 17.7847
#
#
#
# Elastic Compliance Matrix: (Units=1/GPa)
#
#
# Indices 1 2 3 4 5 6 
#
# 1 0.008009 -0.001760 -0.001628 0.000000 -0.001993 0.000000
# 2 -0.001760 0.010319 -0.003428 0.000000 -0.000070 0.000000
# 3 -0.001628 -0.003428 0.014770 0.000000 -0.006729 0.000000
# 4 0.000000 0.000000 0.000000 -0.058125 0.000000 -0.049266
# 5 -0.001993 -0.000070 -0.006729 0.000000 0.035343 0.000000
# 6 0.000000 0.000000 0.000000 -0.049266 0.000000 0.014471
#
#
# Mechanical properties :
#
#
# Convention : Reuss Voigt Hill
#
# Bulk Modulus (GPa) = 51.37535 59.98776 55.68156
# Shear Modulus (GPa) = 111.33799 25.52662 68.43230
#
# Velocity S-wave (km/s) = 7.34928 3.51900 5.76174
# Velocity P-wave (km/s) = 9.84576 6.75368 8.44249
#
# Compressibility (1/GPa) = 0.01946459
#
# Stress axis : x y z
#
# Youngs Moduli (GPa) = 124.85840 96.91321 67.70381
#
# Poissons Ratio (x) = 0.17059 0.11024
# Poissons Ratio (y) = 0.21978 0.23210
# Poissons Ratio (z) = 0.20330 0.33223
#
# Static dielectric constant tensor:
#      x y z
#    x 1.889990 0.000000 0.014930 
#    y 0.000000 1.700320 0.000000 
#    z 0.014930 0.000000 1.720510 
# 
# From -- ./inp_files/54457.got.cif
#   From: 2010.05.17/outbox.cif.g08.bks.cpg/sg15_28_cif.got.tgz:54457.got - 2010.06.03 18:47:42.
