data_PCOD9305979
_publ_section_title
;
Structure prediction by ZEFSAII (Michael W. Deem and Ramdas Pophale) SiO2 
 PCOD9305979
Probable space group: C 2/C
;
_chemical_formula_sum "Si O2"
_cell_formula_units_Z 32
_cell_length_a 12.733984
_cell_length_b 11.022791
_cell_length_c 17.106125
_cell_angle_alpha 90.000000
_cell_angle_beta 147.082669
_cell_angle_gamma 90.000000
_cell_volume 1304.817708
_symmetry_space_group_name_H-M "C 2/C"
_symmetry_group_IT_number 15
_symmetry_cell_setting 'monoclinic'
loop_
_space_group_symop_operation_xyz
x,y,z
-x,y,1/2-z
-x,-y,-z
x,-y,1/2+z
1/2+x,1/2+y,z
1/2-x,1/2+y,1/2-z
1/2-x,1/2-y,-z
1/2+x,1/2-y,1/2+z
loop_
_atom_site_type_symbol
_atom_site_label
_atom_site_fract_x
_atom_site_fract_y
_atom_site_fract_z
Si Si1 0.269686 0.692262 0.097878
Si Si2 0.219382 0.924783 0.352459
Si Si3 0.178464 0.917109 0.140831
Si Si4 0.250000 0.250000 0.000000
Si Si5 0.500000 0.943965 0.750000
O O1 0.500000 0.683810 0.250000
O O2 0.198954 0.555613 0.070973
O O3 0.176602 0.785217 0.100403
O O4 0.250000 0.750000 0.000000
O O5 0.191263 0.912389 0.242389
O O6 0.000000 0.914891 0.250000
O O7 0.316649 0.813548 0.457119
O O8 0.373436 0.975394 0.228689
O O9 0.000000 0.000000 0.000000
O O10 0.147211 0.360559 0.889225
#
# Coordination Sequence:
#
# PCOD9305979 Si02
#       5
#     8   8   8   4   4
#     4  11  24  50  77 112 154 204 267 325 400 483
#     4  11  26  48  75 115 158 212 265 330 409 482
#     4  12  27  50  83 118 162 211 270 344 410 495
#     4  12  26  50  76 114 168 208 274 336 410 498
#     4  12  28  50  78 120 160 222 268 342 422 488
#
# _framework density 24.524495999999999
#
# number of rings (size 3 to 8) (size 9 to 14) (size 15 to 20)
#    0.000    0.500    2.500    6.000    3.500    1.000 
#    4.500    0.000    0.000    0.000    0.000    0.000 
#    0.000    0.000    0.000    0.000    0.000    0.000 
#
# Total GULP energy -89194.142960 kJ/mol
# GULP energy per Si atom -5574.633935 kJ/mol
# Density = 2.446868 g / cm^3
# Si number density = 24.524496 Si / 1000 Ang^3
#
#
#
# Elastic Constant Matrix: (Units=GPa)
#
#
# Indices 1 2 3 4 5 6 
#
# 1 202.0883 92.1514 71.3750 0.0002 -54.4027 0.0004
# 2 92.1514 157.6870 33.7316 -0.0005 -18.2905 0.0005
# 3 71.3750 33.7316 99.5573 0.0001 -54.6720 0.0008
# 4 0.0002 -0.0005 0.0001 28.1702 0.0003 -12.7210
# 5 -54.4027 -18.2905 -54.6720 0.0003 64.5226 0.0005
# 6 0.0004 0.0005 0.0008 -12.7210 0.0005 34.1680
#
#
#
# Elastic Compliance Matrix: (Units=1/GPa)
#
#
# Indices 1 2 3 4 5 6 
#
# 1 0.008886 -0.004136 -0.002803 0.000000 0.003945 0.000000
# 2 -0.004136 0.008762 -0.001037 0.000000 -0.001882 0.000000
# 3 -0.002803 -0.001037 0.020472 -0.000001 0.014689 -0.000001
# 4 0.000000 0.000000 -0.000001 0.042673 -0.000001 0.015887
# 5 0.003945 -0.001882 0.014689 -0.000001 0.030738 -0.000001
# 6 0.000000 0.000000 -0.000001 0.015887 -0.000001 0.035182
#
#
# Mechanical properties :
#
#
# Convention : Reuss Voigt Hill
#
# Bulk Modulus (GPa) = 45.11007 94.87207 69.99107
# Shear Modulus (GPa) = 29.40218 42.84379 36.12298
#
# Velocity S-wave (km/s) = 3.46626 4.18422 3.84205
# Velocity P-wave (km/s) = 5.86973 7.88113 6.94859
#
# Compressibility (1/GPa) = 0.02216800
#
# Stress axis : x y z
#
# Youngs Moduli (GPa) = 112.53286 114.12614 48.84688
#
# Poissons Ratio (x) = 0.47201 0.13692
# Poissons Ratio (y) = 0.46542 0.05067
# Poissons Ratio (z) = 0.31544 0.11839
#
# Static dielectric constant tensor:
#      x y z
#    x 1.905260 0.000000 0.052620 
#    y 0.000000 2.058380 0.000000 
#    z 0.052620 0.000000 1.987210 
# 
# From -- ./inp_files/142068.got.cif
#   From: 2010.05.17/outbox.cif.g08.bks.cpg/sg15_72_cif.got.tgz:142068.got - 2010.06.03 18:47:42.
