data_PCOD9305271
_publ_section_title
;
Structure prediction by ZEFSAII (Michael W. Deem and Ramdas Pophale) SiO2 
 PCOD9305271
Probable space group: C 2/C
;
_chemical_formula_sum "Si O2"
_cell_formula_units_Z 44
_cell_length_a 13.551796
_cell_length_b 27.380755
_cell_length_c 5.003617
_cell_angle_alpha 90.000000
_cell_angle_beta 98.954433
_cell_angle_gamma 90.000000
_cell_volume 1834.006308
_symmetry_space_group_name_H-M "C 2/C"
_symmetry_group_IT_number 15
_symmetry_cell_setting 'monoclinic'
loop_
_space_group_symop_operation_xyz
x,y,z
-x,y,1/2-z
-x,-y,-z
x,-y,1/2+z
1/2+x,1/2+y,z
1/2-x,1/2+y,1/2-z
1/2-x,1/2-y,-z
1/2+x,1/2-y,1/2+z
loop_
_atom_site_type_symbol
_atom_site_label
_atom_site_fract_x
_atom_site_fract_y
_atom_site_fract_z
Si Si1 0.310130 0.401411 0.844398
Si Si2 0.808632 0.161945 0.857962
Si Si3 0.000000 0.780111 0.250000
Si Si4 0.905430 0.307983 0.400991
Si Si5 0.500000 0.889058 0.750000
Si Si6 0.500000 0.463400 0.750000
Si Si7 0.629750 0.033553 0.050035
O O1 0.302420 0.353136 0.662538
O O2 0.410643 0.427546 0.791929
O O3 0.226441 0.438171 0.699857
O O4 0.306960 0.384928 0.152817
O O5 0.706410 0.191570 0.757133
O O6 0.914321 0.188171 0.854073
O O7 0.063345 0.743632 0.463728
O O8 0.000000 0.319739 0.250000
O O9 0.913877 0.352522 0.614624
O O10 0.455260 0.926139 0.945067
O O11 0.500000 0.500000 0.500000
O O12 0.625120 0.987970 0.252592
#
# Coordination Sequence:
#
# PCOD9305271 Si02
#       7
#     8   8   4   8   4   4   8
#     4  12  25  46  71 103 142 191 239 294 362 422
#     4  12  26  48  75 104 146 188 242 295 361 442
#     4  11  28  47  74 112 136 190 244 297 368 435
#     4  11  26  46  75 103 150 188 237 303 363 441
#     4  11  24  44  64 105 138 191 230 286 366 413
#     4  12  24  43  70 103 146 189 244 305 358 414
#     4  12  25  42  68 100 139 182 237 288 341 421
#
# _framework density 23.991195000000001
#
# number of rings (size 3 to 8) (size 9 to 14) (size 15 to 20)
#    0.000    0.364    1.818    6.545    7.636    0.727 
#    0.000    0.000    0.000    0.000    0.000    0.000 
#    0.000    0.000    0.000    0.000    0.000    0.000 
#
# Total GULP energy -123115.426043 kJ/mol
# GULP energy per Si atom -5596.155729 kJ/mol
# Density = 2.393659 g / cm^3
# Si number density = 23.991195 Si / 1000 Ang^3
#
#
#
# Elastic Constant Matrix: (Units=GPa)
#
#
# Indices 1 2 3 4 5 6 
#
# 1 117.3370 26.0942 -9.7371 0.0000 3.2574 0.0000
# 2 26.0942 70.8914 -2.9815 0.0000 7.6908 0.0000
# 3 -9.7371 -2.9815 58.6339 0.0000 -11.6910 0.0000
# 4 0.0000 0.0000 0.0000 23.5231 0.0000 -16.9224
# 5 3.2574 7.6908 -11.6910 0.0000 30.9060 0.0000
# 6 0.0000 0.0000 0.0000 -16.9224 0.0000 47.2309
#
#
#
# Elastic Compliance Matrix: (Units=1/GPa)
#
#
# Indices 1 2 3 4 5 6 
#
# 1 0.009398 -0.003443 0.001470 0.000000 0.000422 0.000000
# 2 -0.003443 0.015759 -0.000519 0.000000 -0.003755 0.000000
# 3 0.001470 -0.000519 0.018676 0.000000 0.007039 0.000000
# 4 0.000000 0.000000 0.000000 0.057274 0.000000 0.020521
# 5 0.000422 -0.003755 0.007039 0.000000 0.035909 0.000000
# 6 0.000000 0.000000 0.000000 0.020521 0.000000 0.028525
#
#
# Mechanical properties :
#
#
# Convention : Reuss Voigt Hill
#
# Bulk Modulus (GPa) = 25.74121 30.40149 28.07135
# Shear Modulus (GPa) = 27.25143 35.89778 31.57461
#
# Velocity S-wave (km/s) = 3.37396 3.87239 3.63173
# Velocity P-wave (km/s) = 5.09223 5.71780 5.41406
#
# Compressibility (1/GPa) = 0.03884821
#
# Stress axis : x y z
#
# Youngs Moduli (GPa) = 106.40008 63.45542 53.54413
#
# Poissons Ratio (x) = 0.21851 -0.07870
# Poissons Ratio (y) = 0.36638 0.02780
# Poissons Ratio (z) = -0.15640 0.03295
#
# Static dielectric constant tensor:
#      x y z
#    x 1.724860 0.000000 0.027950 
#    y 0.000000 2.348010 0.000000 
#    z 0.027950 0.000000 1.925310 
# 
# From -- ./inp_files/7649.got.cif
#   From: 2010.05.17/outbox.cif.g08.bks.cpg/sg15_4_cif.got.tgz:7649.got - 2010.06.03 18:47:42.
