data_PCOD9305821
_publ_section_title
;
Structure prediction by ZEFSAII (Michael W. Deem and Ramdas Pophale) SiO2 
 PCOD9305821
Probable space group: C 2/C
;
_chemical_formula_sum "Si O2"
_cell_formula_units_Z 40
_cell_length_a 17.601225
_cell_length_b 8.529253
_cell_length_c 11.146795
_cell_angle_alpha 90.000000
_cell_angle_beta 100.282993
_cell_angle_gamma 90.000000
_cell_volume 1646.537663
_symmetry_space_group_name_H-M "C 2/C"
_symmetry_group_IT_number 15
_symmetry_cell_setting 'monoclinic'
loop_
_space_group_symop_operation_xyz
x,y,z
-x,y,1/2-z
-x,-y,-z
x,-y,1/2+z
1/2+x,1/2+y,z
1/2-x,1/2+y,1/2-z
1/2-x,1/2-y,-z
1/2+x,1/2-y,1/2+z
loop_
_atom_site_type_symbol
_atom_site_label
_atom_site_fract_x
_atom_site_fract_y
_atom_site_fract_z
Si Si1 0.870055 0.792682 0.482294
Si Si2 0.704508 0.901835 0.336721
Si Si3 0.928006 0.922768 0.139726
Si Si4 0.006359 0.614300 0.114038
Si Si5 0.276728 0.262574 0.143852
O O1 0.788178 0.861087 0.417746
O O2 0.855720 0.671868 0.587409
O O3 0.913412 0.704361 0.388144
O O4 0.920774 0.935534 0.545812
O O5 0.706966 0.814678 0.210326
O O6 0.697554 0.086455 0.317970
O O7 0.843001 0.896279 0.172660
O O8 0.000000 0.948801 0.250000
O O9 0.943832 0.753265 0.085985
O O10 0.000000 0.554126 0.250000
O O11 0.000000 0.500000 0.000000
O O12 0.250000 0.250000 0.000000
#
# Coordination Sequence:
#
# PCOD9305821 Si02
#       5
#     8   8   8   8   8
#     4  11  24  47  75 106 145 196 244 312 369 445
#     4  11  25  45  76 108 148 191 251 306 370 439
#     4  11  24  48  74 109 151 194 251 308 377 450
#     4  11  25  47  70 104 149 194 247 306 373 449
#     4  12  25  48  76 111 150 196 249 306 374 442
#
# _framework density 24.293402
#
# number of rings (size 3 to 8) (size 9 to 14) (size 15 to 20)
#    0.000    0.800    2.000    5.400    2.800    0.800 
#   14.400    2.000    0.000    0.000    0.000    0.000 
#    0.000    0.000    0.000    0.000    0.000    0.000 
#
# Total GULP energy -112002.753543 kJ/mol
# GULP energy per Si atom -5600.137677 kJ/mol
# Density = 2.423811 g / cm^3
# Si number density = 24.293402 Si / 1000 Ang^3
#
#
#
# Elastic Constant Matrix: (Units=GPa)
#
#
# Indices 1 2 3 4 5 6 
#
# 1 80.7683 2.2037 38.2058 0.0000 -10.5021 0.0000
# 2 2.2037 103.0840 64.5105 0.0000 0.1277 0.0000
# 3 38.2058 64.5105 185.6489 0.0000 -17.4326 0.0000
# 4 0.0000 0.0000 0.0000 42.4452 0.0000 2.6438
# 5 -10.5021 0.1277 -17.4326 0.0000 49.1816 0.0000
# 6 0.0000 0.0000 0.0000 2.6438 0.0000 34.5830
#
#
#
# Elastic Compliance Matrix: (Units=1/GPa)
#
#
# Indices 1 2 3 4 5 6 
#
# 1 0.014163 0.001804 -0.003370 0.000000 0.001825 0.000000
# 2 0.001804 0.012751 -0.004933 0.000000 -0.001396 0.000000
# 3 -0.003370 -0.004933 0.007994 0.000000 0.002127 0.000000
# 4 0.000000 0.000000 0.000000 0.023673 0.000000 -0.001810
# 5 0.001825 -0.001396 0.002127 0.000000 0.021480 0.000000
# 6 0.000000 0.000000 0.000000 -0.001810 0.000000 0.029054
#
#
# Mechanical properties :
#
#
# Convention : Reuss Voigt Hill
#
# Bulk Modulus (GPa) = 45.64172 64.37124 55.00648
# Shear Modulus (GPa) = 38.63456 42.88071 40.75763
#
# Velocity S-wave (km/s) = 3.99222 4.20589 4.10045
# Velocity P-wave (km/s) = 6.33079 7.08103 6.71639
#
# Compressibility (1/GPa) = 0.02190978
#
# Stress axis : x y z
#
# Youngs Moduli (GPa) = 70.60429 78.42353 125.09284
#
# Poissons Ratio (x) = -0.14148 0.42160
# Poissons Ratio (y) = -0.12738 0.61712
# Poissons Ratio (z) = 0.23796 0.38689
#
# Static dielectric constant tensor:
#      x y z
#    x 1.991000 0.000000 0.003830 
#    y 0.000000 1.903260 0.000000 
#    z 0.003830 0.000000 1.957020 
# 
# From -- ./inp_files/102767.got.cif
#   From: 2010.05.17/outbox.cif.g08.bks.cpg/sg15_52_cif.got.tgz:102767.got - 2010.06.03 18:47:42.
