data_PCOD9305927
_publ_section_title
;
Structure prediction by ZEFSAII (Michael W. Deem and Ramdas Pophale) SiO2 
 PCOD9305927
Probable space group: C 2/C
;
_chemical_formula_sum "Si O2"
_cell_formula_units_Z 52
_cell_length_a 14.530589
_cell_length_b 10.336899
_cell_length_c 17.985895
_cell_angle_alpha 90.000000
_cell_angle_beta 50.621106
_cell_angle_gamma 90.000000
_cell_volume 2088.174017
_symmetry_space_group_name_H-M "C 2/C"
_symmetry_group_IT_number 15
_symmetry_cell_setting 'monoclinic'
loop_
_space_group_symop_operation_xyz
x,y,z
-x,y,1/2-z
-x,-y,-z
x,-y,1/2+z
1/2+x,1/2+y,z
1/2-x,1/2+y,1/2-z
1/2-x,1/2-y,-z
1/2+x,1/2-y,1/2+z
loop_
_atom_site_type_symbol
_atom_site_label
_atom_site_fract_x
_atom_site_fract_y
_atom_site_fract_z
Si Si1 0.632213 0.699554 0.103257
Si Si2 0.500000 0.912677 0.250000
Si Si3 0.250027 0.602440 0.305683
Si Si4 0.831624 0.389772 0.876550
Si Si5 0.559708 0.537194 0.546626
Si Si6 0.480612 0.177731 0.440892
Si Si7 0.727456 0.189508 0.834054
O O1 0.678364 0.646520 0.158386
O O2 0.561252 0.584898 0.099648
O O3 0.750000 0.750000 0.000000
O O4 0.699252 0.432883 0.962999
O O5 0.609276 0.008599 0.210043
O O6 0.545532 0.820075 0.161870
O O7 0.266250 0.449807 0.284454
O O8 0.109184 0.622403 0.392171
O O9 0.909408 0.391483 0.911070
O O10 0.717257 0.300972 0.777749
O O11 0.500000 0.500000 0.500000
O O12 0.504074 0.674854 0.595866
O O13 0.678541 0.748797 0.654571
O O14 0.395268 0.177608 0.556508
#
# Coordination Sequence:
#
# PCOD9305927 Si02
#       7
#     8   4   8   8   8   8   8
#     4  12  27  49  77 118 174 211 280 344 431 486
#     4  12  28  44  82 118 166 216 272 350 412 498
#     4  12  28  47  80 120 168 215 276 340 420 504
#     4  11  24  50  79 114 160 215 283 331 414 488
#     4  11  24  48  80 113 155 213 273 342 411 497
#     4  11  25  48  86 111 161 219 275 334 414 493
#     4  11  27  48  76 121 167 211 277 336 412 497
#
# _framework density 24.902139999999999
#
# number of rings (size 3 to 8) (size 9 to 14) (size 15 to 20)
#    0.000    0.615    1.538    6.000    4.308    6.154 
#    0.000    1.538    0.000    0.000    0.000    0.000 
#    0.000    0.000    0.000    0.000    0.000    0.000 
#
# Total GULP energy -145872.855434 kJ/mol
# GULP energy per Si atom -5610.494440 kJ/mol
# Density = 2.484546 g / cm^3
# Si number density = 24.902140 Si / 1000 Ang^3
#
#
#
# Elastic Constant Matrix: (Units=GPa)
#
#
# Indices 1 2 3 4 5 6 
#
# 1 127.3512 42.8979 23.4258 0.0000 22.4715 0.0000
# 2 42.8979 196.1264 57.4028 0.0000 -5.8899 0.0000
# 3 23.4258 57.4028 115.2906 0.0000 6.4882 0.0000
# 4 0.0000 0.0000 0.0000 49.2163 0.0000 2.6848
# 5 22.4715 -5.8899 6.4882 0.0000 40.8103 0.0000
# 6 0.0000 0.0000 0.0000 2.6848 0.0000 43.4062
#
#
#
# Elastic Compliance Matrix: (Units=1/GPa)
#
#
# Indices 1 2 3 4 5 6 
#
# 1 0.009644 -0.002098 -0.000604 0.000000 -0.005517 0.000000
# 2 -0.002098 0.006499 -0.002954 0.000000 0.002563 0.000000
# 3 -0.000604 -0.002954 0.010365 0.000000 -0.001741 0.000000
# 4 0.000000 0.000000 0.000000 0.020387 0.000000 -0.001261
# 5 -0.005517 0.002563 -0.001741 0.000000 0.028188 0.000000
# 6 0.000000 0.000000 0.000000 -0.001261 0.000000 0.023116
#
#
# Mechanical properties :
#
#
# Convention : Reuss Voigt Hill
#
# Bulk Modulus (GPa) = 65.80917 76.24679 71.02798
# Shear Modulus (GPa) = 43.63860 47.68934 45.66397
#
# Velocity S-wave (km/s) = 4.19071 4.38090 4.28686
# Velocity P-wave (km/s) = 7.06404 7.50165 7.28613
#
# Compressibility (1/GPa) = 0.01519545
#
# Stress axis : x y z
#
# Youngs Moduli (GPa) = 103.69485 153.86588 96.47629
#
# Poissons Ratio (x) = 0.32283 0.05831
# Poissons Ratio (y) = 0.21756 0.28497
# Poissons Ratio (z) = 0.06267 0.45449
#
# Static dielectric constant tensor:
#      x y z
#    x 1.923420 0.000000 -0.003800 
#    y 0.000000 1.987800 0.000000 
#    z -0.003800 0.000000 2.002160 
# 
# From -- ./inp_files/243074.got.cif
#   From: 2010.05.17/outbox.cif.g08.bks.cpg/sg15_122_cif.got.tgz:243074.got - 2010.06.03 18:47:42.
