data_PCOD9305909
_publ_section_title
;
Structure prediction by ZEFSAII (Michael W. Deem and Ramdas Pophale) SiO2 
 PCOD9305909
Probable space group: C 2/C
;
_chemical_formula_sum "Si O2"
_cell_formula_units_Z 32
_cell_length_a 14.792047
_cell_length_b 10.587387
_cell_length_c 9.194592
_cell_angle_alpha 90.000000
_cell_angle_beta 111.797705
_cell_angle_gamma 90.000000
_cell_volume 1337.001101
_symmetry_space_group_name_H-M "C 2/C"
_symmetry_group_IT_number 15
_symmetry_cell_setting 'monoclinic'
loop_
_space_group_symop_operation_xyz
x,y,z
-x,y,1/2-z
-x,-y,-z
x,-y,1/2+z
1/2+x,1/2+y,z
1/2-x,1/2+y,1/2-z
1/2-x,1/2-y,-z
1/2+x,1/2-y,1/2+z
loop_
_atom_site_type_symbol
_atom_site_label
_atom_site_fract_x
_atom_site_fract_y
_atom_site_fract_z
Si Si1 0.823024 0.496600 0.750933
Si Si2 0.201428 0.239672 0.128034
Si Si3 0.573242 0.890923 0.436496
Si Si4 0.004754 0.866106 0.923158
O O1 0.783055 0.371291 0.283319
O O2 0.748941 0.383075 0.728433
O O3 0.845919 0.523353 0.596243
O O4 0.920193 0.454322 0.898263
O O5 0.086127 0.213717 0.065939
O O6 0.250000 0.250000 0.000000
O O7 0.500000 0.879582 0.250000
O O8 0.588928 0.741387 0.480858
O O9 0.000000 0.897165 0.750000
O O10 0.000000 0.000000 0.000000
#
# Coordination Sequence:
#
# PCOD9305909 Si02
#       4
#     8   8   8   8
#     4  12  26  46  78 107 152 191 248 312 370 449
#     4  12  28  47  73 116 148 196 253 307 385 439
#     4  11  24  48  75 106 143 196 250 299 371 449
#     4  11  27  48  72 107 151 194 251 303 373 442
#
# _framework density 23.934161
#
# number of rings (size 3 to 8) (size 9 to 14) (size 15 to 20)
#    0.000    0.500    7.500    0.750    7.000    1.000 
#    0.000    0.000    0.000    0.000    0.000    0.000 
#    0.000    0.000    0.000    0.000    0.000    0.000 
#
# Total GULP energy -89133.020048 kJ/mol
# GULP energy per Si atom -5570.813753 kJ/mol
# Density = 2.387969 g / cm^3
# Si number density = 23.934161 Si / 1000 Ang^3
#
#
#
# Elastic Constant Matrix: (Units=GPa)
#
#
# Indices 1 2 3 4 5 6 
#
# 1 25.2033 12.6764 19.1003 0.0000 -18.6199 0.0000
# 2 12.6764 209.8907 58.3548 0.0000 5.5664 0.0000
# 3 19.1003 58.3548 77.3396 0.0000 -34.5521 0.0000
# 4 0.0000 0.0000 0.0000 51.4763 0.0000 -16.7736
# 5 -18.6199 5.5664 -34.5521 0.0000 35.6288 0.0000
# 6 0.0000 0.0000 0.0000 -16.7736 0.0000 17.1788
#
#
#
# Elastic Compliance Matrix: (Units=1/GPa)
#
#
# Indices 1 2 3 4 5 6 
#
# 1 0.072750 -0.008801 0.011070 0.000000 0.050130 0.000000
# 2 -0.008801 0.009664 -0.013846 0.000000 -0.019537 0.000000
# 3 0.011070 -0.013846 0.042691 0.000000 0.049349 0.000000
# 4 0.000000 0.000000 0.000000 0.028491 0.000000 0.027819
# 5 0.050130 -0.019537 0.049349 0.000000 0.105175 0.000000
# 6 0.000000 0.000000 0.000000 0.027819 0.000000 0.085374
#
#
# Mechanical properties :
#
#
# Convention : Reuss Voigt Hill
#
# Bulk Modulus (GPa) = 9.80883 54.74407 32.27645
# Shear Modulus (GPa) = 12.46002 35.67694 24.06848
#
# Velocity S-wave (km/s) = 2.28413 3.86505 3.17458
# Velocity P-wave (km/s) = 3.32618 6.54527 5.19154
#
# Compressibility (1/GPa) = 0.10194896
#
# Stress axis : x y z
#
# Youngs Moduli (GPa) = 13.74571 103.48028 23.42437
#
# Poissons Ratio (x) = 0.91071 -0.25930
# Poissons Ratio (y) = 0.12097 0.32434
# Poissons Ratio (z) = -0.15216 1.43282
#
# Static dielectric constant tensor:
#      x y z
#    x 2.060360 0.000000 0.037960 
#    y 0.000000 1.973580 0.000000 
#    z 0.037960 0.000000 1.880270 
# 
# From -- ./inp_files/53934.got.cif
#   From: 2010.05.17/outbox.cif.g08.bks.cpg/sg15_27_cif.got.tgz:53934.got - 2010.06.03 18:47:42.
