data_PCOD9305968
_publ_section_title
;
Structure prediction by ZEFSAII (Michael W. Deem and Ramdas Pophale) SiO2 
 PCOD9305968
Probable space group: C 2/C
;
_chemical_formula_sum "Si O2"
_cell_formula_units_Z 40
_cell_length_a 17.577203
_cell_length_b 13.682779
_cell_length_c 12.725897
_cell_angle_alpha 90.000000
_cell_angle_beta 144.173400
_cell_angle_gamma 90.000000
_cell_volume 1791.498096
_symmetry_space_group_name_H-M "C 2/C"
_symmetry_group_IT_number 15
_symmetry_cell_setting 'monoclinic'
loop_
_space_group_symop_operation_xyz
x,y,z
-x,y,1/2-z
-x,-y,-z
x,-y,1/2+z
1/2+x,1/2+y,z
1/2-x,1/2+y,1/2-z
1/2-x,1/2-y,-z
1/2+x,1/2-y,1/2+z
loop_
_atom_site_type_symbol
_atom_site_label
_atom_site_fract_x
_atom_site_fract_y
_atom_site_fract_z
Si Si1 0.911439 0.497441 0.245635
Si Si2 0.131246 0.029037 0.331663
Si Si3 0.363537 0.321679 0.097577
Si Si4 0.342699 0.329712 0.836555
Si Si5 0.445876 0.837579 0.962334
O O1 0.915328 0.584132 0.335669
O O2 0.000000 0.534289 0.250000
O O3 0.987773 0.404175 0.375388
O O4 0.768478 0.462599 0.047929
O O5 0.135722 0.089036 0.228643
O O6 0.000000 0.054872 0.250000
O O7 0.127877 0.911640 0.312512
O O8 0.500000 0.267318 0.250000
O O9 0.250000 0.250000 0.000000
O O10 0.350217 0.364864 0.965625
O O11 0.193049 0.294239 0.658079
O O12 0.450074 0.245372 0.947917
#
# Coordination Sequence:
#
# PCOD9305968 Si02
#       5
#     8   8   8   8   8
#     4  11  24  50  73 105 151 202 250 309 378 455
#     4  11  27  47  74 110 153 194 252 319 382 443
#     4  11  26  47  75 107 147 198 251 310 377 450
#     4  12  26  48  73 114 147 199 255 312 381 455
#     4  11  27  44  76 108 147 201 251 308 381 456
#
# _framework density 22.327680999999998
#
# number of rings (size 3 to 8) (size 9 to 14) (size 15 to 20)
#    0.000    0.800    4.000    1.200    5.600    4.800 
#    0.000    0.000    0.000    0.000    0.000    0.000 
#    0.000    0.000    0.000    0.000    0.000    0.000 
#
# Total GULP energy -111748.062817 kJ/mol
# GULP energy per Si atom -5587.403141 kJ/mol
# Density = 2.227686 g / cm^3
# Si number density = 22.327681 Si / 1000 Ang^3
#
#
#
# Elastic Constant Matrix: (Units=GPa)
#
#
# Indices 1 2 3 4 5 6 
#
# 1 137.5344 48.3093 82.1261 0.0000 27.0610 0.0000
# 2 48.3093 90.4435 52.7126 0.0000 1.3425 0.0000
# 3 82.1261 52.7126 158.5705 0.0000 31.1524 0.0000
# 4 0.0000 0.0000 0.0000 2.7019 0.0000 18.7880
# 5 27.0610 1.3425 31.1524 0.0000 55.5234 0.0000
# 6 0.0000 0.0000 0.0000 18.7880 0.0000 36.5462
#
#
#
# Elastic Compliance Matrix: (Units=1/GPa)
#
#
# Indices 1 2 3 4 5 6 
#
# 1 0.011743 -0.003790 -0.004176 0.000000 -0.003289 0.000000
# 2 -0.003790 0.015253 -0.003819 0.000000 0.003621 0.000000
# 3 -0.004176 -0.003819 0.010475 0.000000 -0.003750 0.000000
# 4 0.000000 0.000000 0.000000 -0.143743 0.000000 0.073897
# 5 -0.003289 0.003621 -0.003750 0.000000 0.021630 0.000000
# 6 0.000000 0.000000 0.000000 0.073897 0.000000 -0.010627
#
#
# Mechanical properties :
#
#
# Convention : Reuss Voigt Hill
#
# Bulk Modulus (GPa) = 71.93350 83.64939 77.79144
# Shear Modulus (GPa) = -74.55222 32.51432 -21.01895
#
# Velocity S-wave (km/s) = -5.78468 3.82020 -3.07153
# Velocity P-wave (km/s) = 3.51135 7.55012 4.72624
#
# Compressibility (1/GPa) = 0.01390173
#
# Stress axis : x y z
#
# Youngs Moduli (GPa) = 85.16006 65.56130 95.46227
#
# Poissons Ratio (x) = 0.24845 0.39864
# Poissons Ratio (y) = 0.32272 0.36458
# Poissons Ratio (z) = 0.35562 0.25039
#
# Static dielectric constant tensor:
#      x y z
#    x 1.664600 0.000000 0.068200 
#    y 0.000000 1.814530 0.000000 
#    z 0.068200 0.000000 1.891010 
# 
# From -- ./inp_files/105542.got.cif
#   From: 2010.05.17/outbox.cif.g08.bks.cpg/sg15_53_cif.got.tgz:105542.got - 2010.06.03 18:47:42.
