data_PCOD9305188
_publ_section_title
;
Structure prediction by ZEFSAII (Michael W. Deem and Ramdas Pophale) SiO2 
 PCOD9305188
Probable space group: C 2/C
;
_chemical_formula_sum "Si O2"
_cell_formula_units_Z 64
_cell_length_a 12.260371
_cell_length_b 25.190793
_cell_length_c 11.840139
_cell_angle_alpha 90.000000
_cell_angle_beta 136.127101
_cell_angle_gamma 90.000000
_cell_volume 2534.391297
_symmetry_space_group_name_H-M "C 2/C"
_symmetry_group_IT_number 15
_symmetry_cell_setting 'monoclinic'
loop_
_space_group_symop_operation_xyz
x,y,z
-x,y,1/2-z
-x,-y,-z
x,-y,1/2+z
1/2+x,1/2+y,z
1/2-x,1/2+y,1/2-z
1/2-x,1/2-y,-z
1/2+x,1/2-y,1/2+z
loop_
_atom_site_type_symbol
_atom_site_label
_atom_site_fract_x
_atom_site_fract_y
_atom_site_fract_z
Si Si1 0.174031 0.416732 0.391992
Si Si2 0.698811 0.546535 0.279988
Si Si3 0.986372 0.427658 0.604271
Si Si4 0.461887 0.356023 0.969747
Si Si5 0.770745 0.752139 0.811795
Si Si6 0.666552 0.566757 0.732939
Si Si7 0.527733 0.191588 0.402883
Si Si8 0.235967 0.301441 0.413071
O O1 0.269191 0.442286 0.565027
O O2 0.253577 0.424160 0.329996
O O3 0.158190 0.353790 0.407514
O O4 0.000000 0.440115 0.250000
O O5 0.871503 0.540739 0.348933
O O6 0.600862 0.492748 0.189459
O O7 0.615228 0.596544 0.159737
O O8 0.012117 0.366588 0.584946
O O9 0.000000 0.431493 0.750000
O O10 0.807158 0.435597 0.429446
O O11 0.539586 0.385635 0.136091
O O12 0.596487 0.326683 0.997754
O O13 0.336006 0.309693 0.894384
O O14 0.593031 0.764297 0.643192
O O15 0.845450 0.721214 0.761190
O O16 0.800120 0.710957 0.933916
O O17 0.500000 0.191470 0.250000
O O18 0.250000 0.250000 0.500000
#
# Coordination Sequence:
#
# PCOD9305188 Si02
#       8
#     8   8   8   8   8   8   8   8
#     4  11  25  42  71 108 140 182 246 296 350 434
#     4  12  25  45  75  98 144 189 241 302 361 416
#     4  11  25  44  73 103 138 182 246 294 351 429
#     4  11  25  47  66 106 145 183 236 289 354 434
#     4  12  23  43  69  99 140 182 225 281 351 429
#     4  11  26  46  71 101 143 186 240 300 358 417
#     4  11  24  43  68  98 135 178 229 283 342 414
#     4  11  26  41  70 103 145 184 225 282 366 430
#
# _framework density 25.252611000000002
#
# number of rings (size 3 to 8) (size 9 to 14) (size 15 to 20)
#    0.000    0.750    3.750    3.375    3.500    4.000 
#    0.000    0.625    0.000    0.000    0.000    0.000 
#    0.000    0.000    0.000    0.000    0.000    0.000 
#
# Total GULP energy -179052.693229 kJ/mol
# GULP energy per Si atom -5595.396663 kJ/mol
# Density = 2.519514 g / cm^3
# Si number density = 25.252611 Si / 1000 Ang^3
#
#
#
# Elastic Constant Matrix: (Units=GPa)
#
#
# Indices 1 2 3 4 5 6 
#
# 1 35.6577 7.9728 11.3080 0.0000 -2.0974 0.0000
# 2 7.9728 141.3436 41.9472 0.0000 2.0443 0.0000
# 3 11.3080 41.9472 137.9049 0.0000 -6.5755 0.0000
# 4 0.0000 0.0000 0.0000 41.0449 0.0000 7.5758
# 5 -2.0974 2.0443 -6.5755 0.0000 36.6989 0.0000
# 6 0.0000 0.0000 0.0000 7.5758 0.0000 25.7613
#
#
#
# Elastic Compliance Matrix: (Units=1/GPa)
#
#
# Indices 1 2 3 4 5 6 
#
# 1 0.028993 -0.001065 -0.001989 0.000000 0.001360 0.000000
# 2 -0.001065 0.007843 -0.002342 0.000000 -0.000917 0.000000
# 3 -0.001989 -0.002342 0.008198 0.000000 0.001486 0.000000
# 4 0.000000 0.000000 0.000000 0.025762 0.000000 -0.007576
# 5 0.001360 -0.000917 0.001486 0.000000 0.027644 0.000000
# 6 0.000000 0.000000 0.000000 -0.007576 0.000000 0.041046
#
#
# Mechanical properties :
#
#
# Convention : Reuss Voigt Hill
#
# Bulk Modulus (GPa) = 29.20319 48.59579 38.89949
# Shear Modulus (GPa) = 30.92309 37.61292 34.26800
#
# Velocity S-wave (km/s) = 3.50315 3.86355 3.68776
# Velocity P-wave (km/s) = 5.28699 6.26006 5.79399
#
# Compressibility (1/GPa) = 0.03424283
#
# Stress axis : x y z
#
# Youngs Moduli (GPa) = 34.49086 127.49579 121.98524
#
# Poissons Ratio (x) = 0.13577 0.24258
# Poissons Ratio (y) = 0.03673 0.28571
# Poissons Ratio (z) = 0.06859 0.29862
#
# Static dielectric constant tensor:
#      x y z
#    x 2.226890 0.000000 0.014250 
#    y 0.000000 1.987550 0.000000 
#    z 0.014250 0.000000 2.029490 
# 
# From -- ./inp_files/101347.got.cif
#   From: 2010.05.17/outbox.cif.g08.bks.cpg/sg15_51_cif.got.tgz:101347.got - 2010.06.03 18:47:42.
