data_PCOD9305702
_publ_section_title
;
Structure prediction by ZEFSAII (Michael W. Deem and Ramdas Pophale) SiO2 
 PCOD9305702
Probable space group: C 2/C
;
_chemical_formula_sum "Si O2"
_cell_formula_units_Z 56
_cell_length_a 29.704208
_cell_length_b 13.879287
_cell_length_c 12.060368
_cell_angle_alpha 90.000000
_cell_angle_beta 30.533512
_cell_angle_gamma 90.000000
_cell_volume 2526.070774
_symmetry_space_group_name_H-M "C 2/C"
_symmetry_group_IT_number 15
_symmetry_cell_setting 'monoclinic'
loop_
_space_group_symop_operation_xyz
x,y,z
-x,y,1/2-z
-x,-y,-z
x,-y,1/2+z
1/2+x,1/2+y,z
1/2-x,1/2+y,1/2-z
1/2-x,1/2-y,-z
1/2+x,1/2-y,1/2+z
loop_
_atom_site_type_symbol
_atom_site_label
_atom_site_fract_x
_atom_site_fract_y
_atom_site_fract_z
Si Si1 0.500000 0.161418 0.750000
Si Si2 0.083218 0.508601 0.740928
Si Si3 0.685446 0.826829 0.499610
Si Si4 0.866902 0.783660 0.179951
Si Si5 0.000000 0.137295 0.750000
Si Si6 0.588623 0.541837 0.756731
Si Si7 0.246513 0.409871 0.026940
Si Si8 0.658290 0.734236 0.340428
O O1 0.558313 0.091508 0.705670
O O2 0.562148 0.231513 0.546899
O O3 0.115286 0.409228 0.616068
O O4 0.168868 0.530685 0.633997
O O5 0.000000 0.500000 0.000000
O O6 0.791252 0.839383 0.270692
O O7 0.669172 0.800635 0.662508
O O8 0.672223 0.739432 0.442424
O O9 0.899163 0.861956 0.198055
O O10 0.934848 0.068425 0.819525
O O11 0.055147 0.205956 0.549673
O O12 0.675179 0.473959 0.586245
O O13 0.500000 0.500000 0.000000
O O14 0.196538 0.335089 0.214284
O O15 0.290045 0.346319 0.837057
#
# Coordination Sequence:
#
# PCOD9305702 Si02
#       8
#     4   8   8   8   4   8   8   8
#     4  12  28  46  78 114 154 194 260 316 380 448
#     4  12  27  47  74 112 146 196 251 316 369 455
#     4  11  24  46  75 103 148 198 245 302 385 453
#     4  11  25  48  72 106 151 200 243 306 384 458
#     4  12  26  46  80 112 150 198 256 316 382 454
#     4  12  26  48  76 110 149 200 255 311 372 458
#     4  11  27  50  73 108 153 193 256 309 380 449
#     4  11  26  45  77 108 146 196 246 317 377 439
#
# _framework density 22.168817000000001
#
# number of rings (size 3 to 8) (size 9 to 14) (size 15 to 20)
#    0.000    0.571    5.714    0.857    6.000    4.000 
#    0.000    0.000    0.000    0.000    0.000    0.000 
#    0.000    0.000    0.000    0.000    0.000    0.000 
#
# Total GULP energy -156351.796855 kJ/mol
# GULP energy per Si atom -5583.992745 kJ/mol
# Density = 2.211836 g / cm^3
# Si number density = 22.168817 Si / 1000 Ang^3
#
#
#
# Elastic Constant Matrix: (Units=GPa)
#
#
# Indices 1 2 3 4 5 6 
#
# 1 105.0543 52.7977 35.0231 0.0000 -14.0797 0.0000
# 2 52.7977 109.3127 66.1126 0.0000 -8.2613 0.0000
# 3 35.0231 66.1126 135.8675 0.0000 -1.5427 0.0000
# 4 0.0000 0.0000 0.0000 32.5460 0.0000 4.4986
# 5 -14.0797 -8.2613 -1.5427 0.0000 39.2255 0.0000
# 6 0.0000 0.0000 0.0000 4.4986 0.0000 19.7125
#
#
#
# Elastic Compliance Matrix: (Units=1/GPa)
#
#
# Indices 1 2 3 4 5 6 
#
# 1 0.013029 -0.005703 -0.000544 0.000000 0.003454 0.000000
# 2 -0.005703 0.015705 -0.006161 0.000000 0.001018 0.000000
# 3 -0.000544 -0.006161 0.010486 0.000000 -0.001081 0.000000
# 4 0.000000 0.000000 0.000000 0.031726 0.000000 -0.007240
# 5 0.003454 0.001018 -0.001081 0.000000 0.026906 0.000000
# 6 0.000000 0.000000 0.000000 -0.007240 0.000000 0.052381
#
#
# Mechanical properties :
#
#
# Convention : Reuss Voigt Hill
#
# Bulk Modulus (GPa) = 69.42021 73.12238 71.27129
# Shear Modulus (GPa) = 27.80069 31.38357 29.59213
#
# Velocity S-wave (km/s) = 3.54509 3.76661 3.65753
# Velocity P-wave (km/s) = 6.93824 7.20919 7.07501
#
# Compressibility (1/GPa) = 0.01440503
#
# Stress axis : x y z
#
# Youngs Moduli (GPa) = 76.74909 63.67229 95.36616
#
# Poissons Ratio (x) = 0.36311 0.05192
# Poissons Ratio (y) = 0.43769 0.58751
# Poissons Ratio (z) = 0.04179 0.39226
#
# Static dielectric constant tensor:
#      x y z
#    x 1.880520 0.000000 -0.066370 
#    y 0.000000 1.940230 0.000000 
#    z -0.066370 0.000000 1.882510 
# 
# From -- ./inp_files/127025.got.cif
#   From: 2010.05.17/outbox.cif.g08.bks.cpg/sg15_64_cif.got.tgz:127025.got - 2010.06.03 18:47:42.
