data_PCOD9305272
_publ_section_title
;
Structure prediction by ZEFSAII (Michael W. Deem and Ramdas Pophale) SiO2 
 PCOD9305272
Probable space group: C 2/C
;
_chemical_formula_sum "Si O2"
_cell_formula_units_Z 52
_cell_length_a 17.034884
_cell_length_b 18.593999
_cell_length_c 15.254621
_cell_angle_alpha 90.000000
_cell_angle_beta 149.538388
_cell_angle_gamma 90.000000
_cell_volume 2449.559103
_symmetry_space_group_name_H-M "C 2/C"
_symmetry_group_IT_number 15
_symmetry_cell_setting 'monoclinic'
loop_
_space_group_symop_operation_xyz
x,y,z
-x,y,1/2-z
-x,-y,-z
x,-y,1/2+z
1/2+x,1/2+y,z
1/2-x,1/2+y,1/2-z
1/2-x,1/2-y,-z
1/2+x,1/2-y,1/2+z
loop_
_atom_site_type_symbol
_atom_site_label
_atom_site_fract_x
_atom_site_fract_y
_atom_site_fract_z
Si Si1 0.838997 0.555936 0.511329
Si Si2 0.000000 0.577106 0.250000
Si Si3 0.102598 0.833802 0.262288
Si Si4 0.451545 0.812515 0.563446
Si Si5 0.138254 0.622755 0.709467
Si Si6 0.828637 0.177201 0.043813
Si Si7 0.347243 0.475160 0.306048
O O1 0.876014 0.479227 0.591772
O O2 0.748167 0.607111 0.488299
O O3 0.730641 0.537467 0.325444
O O4 0.994119 0.597721 0.630331
O O5 0.955639 0.628572 0.288957
O O6 0.283093 0.813216 0.448582
O O7 0.109969 0.906228 0.212439
O O8 0.000000 0.845229 0.250000
O O9 0.027012 0.765367 0.141387
O O10 0.425180 0.836697 0.437982
O O11 0.220023 0.551325 0.752606
O O12 0.273215 0.667671 0.889277
O O13 0.000000 0.179496 0.250000
O O14 0.750000 0.250000 0.000000
O O15 0.500000 0.500000 0.500000
#
# Coordination Sequence:
#
# PCOD9305272 Si02
#       7
#     8   4   8   8   8   8   8
#     4  12  24  45  71 101 137 190 232 287 353 421
#     4  12  22  44  72 102 136 182 236 274 356 416
#     4  11  24  44  64  96 136 178 225 276 344 412
#     4  11  26  42  70 101 136 182 231 281 345 413
#     4  11  24  45  69 100 139 179 240 286 347 416
#     4  12  27  47  73 100 142 186 233 290 354 425
#     4  11  26  42  66 106 138 176 235 294 351 408
#
# _framework density 21.22831
#
# number of rings (size 3 to 8) (size 9 to 14) (size 15 to 20)
#    0.000    0.615    5.385    2.769    0.000   10.462 
#    0.000    0.000    0.000    0.000    0.000    0.000 
#    0.000    0.000    0.000    0.000    0.000    0.000 
#
# Total GULP energy -145275.259170 kJ/mol
# GULP energy per Si atom -5587.509968 kJ/mol
# Density = 2.117999 g / cm^3
# Si number density = 21.228310 Si / 1000 Ang^3
#
#
#
# Elastic Constant Matrix: (Units=GPa)
#
#
# Indices 1 2 3 4 5 6 
#
# 1 57.3755 6.0694 29.3036 0.0000 0.9434 0.0000
# 2 6.0694 68.8882 28.3510 0.0000 -3.3956 0.0000
# 3 29.3036 28.3510 155.1761 0.0000 -11.7228 0.0000
# 4 0.0000 0.0000 0.0000 48.2576 0.0000 4.8140
# 5 0.9434 -3.3956 -11.7228 0.0000 37.5062 0.0000
# 6 0.0000 0.0000 0.0000 4.8140 0.0000 17.8808
#
#
#
# Elastic Compliance Matrix: (Units=1/GPa)
#
#
# Indices 1 2 3 4 5 6 
#
# 1 0.019395 -0.000251 -0.003744 0.000000 -0.001681 0.000000
# 2 -0.000251 0.015710 -0.002781 0.000000 0.000560 0.000000
# 3 -0.003744 -0.002781 0.007832 0.000000 0.002290 0.000000
# 4 0.000000 0.000000 0.000000 0.021294 0.000000 -0.005733
# 5 -0.001681 0.000560 0.002290 0.000000 0.027471 0.000000
# 6 0.000000 0.000000 0.000000 -0.005733 0.000000 0.057469
#
#
# Mechanical properties :
#
#
# Convention : Reuss Voigt Hill
#
# Bulk Modulus (GPa) = 34.02830 45.43197 39.73013
# Shear Modulus (GPa) = 28.98232 35.24330 32.11281
#
# Velocity S-wave (km/s) = 3.69896 4.07898 3.89361
# Velocity P-wave (km/s) = 5.85727 6.60546 6.24258
#
# Compressibility (1/GPa) = 0.02938731
#
# Stress axis : x y z
#
# Youngs Moduli (GPa) = 51.55892 63.65237 127.67595
#
# Poissons Ratio (x) = 0.01597 0.47799
# Poissons Ratio (y) = 0.01294 0.35502
# Poissons Ratio (z) = 0.19302 0.17700
#
# Static dielectric constant tensor:
#      x y z
#    x 1.805970 0.000000 -0.168380 
#    y 0.000000 1.742220 0.000000 
#    z -0.168380 0.000000 3.221120 
# 
# From -- ./inp_files/163639.got.cif
#   From: 2010.05.17/outbox.cif.g08.bks.cpg/sg15_82_cif.got.tgz:163639.got - 2010.06.03 18:47:42.
