data_PCOD9305391
_publ_section_title
;
Structure prediction by ZEFSAII (Michael W. Deem and Ramdas Pophale) SiO2 
 PCOD9305391
Probable space group: C 2/C
;
_chemical_formula_sum "Si O2"
_cell_formula_units_Z 56
_cell_length_a 7.869268
_cell_length_b 23.523679
_cell_length_c 14.535404
_cell_angle_alpha 90.000000
_cell_angle_beta 128.332524
_cell_angle_gamma 90.000000
_cell_volume 2110.657651
_symmetry_space_group_name_H-M "C 2/C"
_symmetry_group_IT_number 15
_symmetry_cell_setting 'monoclinic'
loop_
_space_group_symop_operation_xyz
x,y,z
-x,y,1/2-z
-x,-y,-z
x,-y,1/2+z
1/2+x,1/2+y,z
1/2-x,1/2+y,1/2-z
1/2-x,1/2-y,-z
1/2+x,1/2-y,1/2+z
loop_
_atom_site_type_symbol
_atom_site_label
_atom_site_fract_x
_atom_site_fract_y
_atom_site_fract_z
Si Si1 0.328167 0.650692 0.762989
Si Si2 0.882409 0.149769 0.460895
Si Si3 0.404958 0.252626 0.859131
Si Si4 0.265782 0.073146 0.417736
Si Si5 0.359759 0.466204 0.880161
Si Si6 0.052515 0.691843 0.099845
Si Si7 0.385433 0.963381 0.338797
O O1 0.500000 0.679834 0.750000
O O2 0.114990 0.689623 0.693501
O O3 0.270562 0.590529 0.698596
O O4 0.448836 0.643665 0.899773
O O5 0.993171 0.183327 0.413257
O O6 0.773354 0.089652 0.400668
O O7 0.675009 0.186194 0.422716
O O8 0.216997 0.277395 0.724806
O O9 0.492218 0.227606 0.988344
O O10 0.984441 0.061509 0.144496
O O11 0.349268 0.130849 0.398266
O O12 0.386399 0.063823 0.556577
O O13 0.345096 0.018591 0.387231
O O14 0.195345 0.510752 0.783703
O O15 0.500000 0.500000 0.000000
#
# Coordination Sequence:
#
# PCOD9305391 Si02
#       7
#     8   8   8   8   8   8   8
#     4  12  20  38  68  99 139 186 241 304 362 428
#     4  12  25  42  68 106 143 190 244 313 366 435
#     4  12  24  41  72 109 141 190 253 312 363 436
#     4  11  26  47  74 103 144 198 240 301 380 451
#     4  12  27  46  72 105 150 189 244 304 373 446
#     4  12  25  45  75 107 146 196 253 309 371 440
#     4  11  24  44  73 103 142 190 247 296 372 451
#
# _framework density 26.532015000000001
#
# number of rings (size 3 to 8) (size 9 to 14) (size 15 to 20)
#    0.000    0.286    5.714    3.857    4.000    0.571 
#    0.000    0.714    3.143    0.000    0.000    0.000 
#    0.000    0.000    0.000    0.000    0.000    0.000 
#
# Total GULP energy -155973.431768 kJ/mol
# GULP energy per Si atom -5570.479706 kJ/mol
# Density = 2.647163 g / cm^3
# Si number density = 26.532015 Si / 1000 Ang^3
#
#
#
# Elastic Constant Matrix: (Units=GPa)
#
#
# Indices 1 2 3 4 5 6 
#
# 1 64.1073 23.9754 20.6210 0.0000 3.9342 0.0000
# 2 23.9754 177.4130 24.9901 0.0000 -7.2980 0.0000
# 3 20.6210 24.9901 178.3613 0.0000 -10.8157 0.0000
# 4 0.0000 0.0000 0.0000 240.4340 0.0000 -39.0835
# 5 3.9342 -7.2980 -10.8157 0.0000 21.6539 0.0000
# 6 0.0000 0.0000 0.0000 -39.0835 0.0000 26.4092
#
#
#
# Elastic Compliance Matrix: (Units=1/GPa)
#
#
# Indices 1 2 3 4 5 6 
#
# 1 0.017391 -0.002272 -0.001991 0.000000 -0.004920 0.000000
# 2 -0.002272 0.006100 -0.000456 0.000000 0.002241 0.000000
# 3 -0.001991 -0.000456 0.006098 0.000000 0.003254 0.000000
# 4 0.000000 0.000000 0.000000 0.005477 0.000000 0.008105
# 5 -0.004920 0.002241 0.003254 0.000000 0.049455 0.000000
# 6 0.000000 0.000000 0.000000 0.008105 0.000000 0.049860
#
#
# Mechanical properties :
#
#
# Convention : Reuss Voigt Hill
#
# Bulk Modulus (GPa) = 49.62505 62.11721 55.87113
# Shear Modulus (GPa) = 33.21467 81.05244 57.13356
#
# Velocity S-wave (km/s) = 3.54202 5.53310 4.64549
# Velocity P-wave (km/s) = 5.95586 8.01769 7.06242
#
# Compressibility (1/GPa) = 0.02015111
#
# Stress axis : x y z
#
# Youngs Moduli (GPa) = 57.50157 163.93313 163.98963
#
# Poissons Ratio (x) = 0.37248 0.32644
# Poissons Ratio (y) = 0.13065 0.07479
# Poissons Ratio (z) = 0.11446 0.07477
#
# Static dielectric constant tensor:
#      x y z
#    x 2.309960 0.000000 -0.021650 
#    y 0.000000 2.019580 0.000000 
#    z -0.021650 0.000000 2.110330 
# 
# From -- ./inp_files/200811.got.cif
#   From: 2010.05.17/outbox.cif.g08.bks.cpg/sg15_101_cif.got.tgz:200811.got - 2010.06.03 18:47:42.
