data_PCOD9305938
_publ_section_title
;
Structure prediction by ZEFSAII (Michael W. Deem and Ramdas Pophale) SiO2 
 PCOD9305938
Probable space group: C 2/C
;
_chemical_formula_sum "Si O2"
_cell_formula_units_Z 48
_cell_length_a 13.770840
_cell_length_b 6.088148
_cell_length_c 26.031044
_cell_angle_alpha 90.000000
_cell_angle_beta 122.029079
_cell_angle_gamma 90.000000
_cell_volume 1850.205191
_symmetry_space_group_name_H-M "C 2/C"
_symmetry_group_IT_number 15
_symmetry_cell_setting 'monoclinic'
loop_
_space_group_symop_operation_xyz
x,y,z
-x,y,1/2-z
-x,-y,-z
x,-y,1/2+z
1/2+x,1/2+y,z
1/2-x,1/2+y,1/2-z
1/2-x,1/2-y,-z
1/2+x,1/2-y,1/2+z
loop_
_atom_site_type_symbol
_atom_site_label
_atom_site_fract_x
_atom_site_fract_y
_atom_site_fract_z
Si Si1 0.382782 0.481963 0.434560
Si Si2 0.627670 0.892719 0.728190
Si Si3 0.521070 0.804705 0.110135
Si Si4 0.315135 0.086341 0.054855
Si Si5 0.431851 0.567048 0.658219
Si Si6 0.275726 0.751083 0.182202
O O1 0.500000 0.500000 0.500000
O O2 0.387266 0.714112 0.404745
O O3 0.282048 0.439193 0.446838
O O4 0.344783 0.303900 0.380637
O O5 0.547006 0.681636 0.711719
O O6 0.742060 0.825929 0.729802
O O7 0.568919 0.058959 0.671436
O O8 0.656034 0.022274 0.788108
O O9 0.466520 0.588040 0.120153
O O10 0.418692 0.952518 0.058840
O O11 0.362532 0.233610 0.114333
O O12 0.250000 0.250000 0.000000
O O13 0.355320 0.416900 0.674031
#
# Coordination Sequence:
#
# PCOD9305938 Si02
#       6
#     8   8   8   8   8   8
#     4  12  26  45  78 111 151 202 251 315 390 458
#     4  11  27  51  77 112 150 201 258 319 391 465
#     4  11  24  49  73 112 150 195 265 312 379 464
#     4  11  26  45  74 110 151 206 254 311 384 460
#     4  11  25  50  77 109 152 198 252 323 386 463
#     4  12  26  52  77 115 154 200 259 324 390 464
#
# _framework density 25.943068
#
# number of rings (size 3 to 8) (size 9 to 14) (size 15 to 20)
#    0.000    0.667    3.333    3.000    4.667    2.667 
#    6.000    0.000    0.000    0.000    0.000    0.000 
#    0.000    0.000    0.000    0.000    0.000    0.000 
#
# Total GULP energy -134422.872243 kJ/mol
# GULP energy per Si atom -5600.953010 kJ/mol
# Density = 2.588402 g / cm^3
# Si number density = 25.943068 Si / 1000 Ang^3
#
#
#
# Elastic Constant Matrix: (Units=GPa)
#
#
# Indices 1 2 3 4 5 6 
#
# 1 104.5353 30.4788 16.0850 0.0000 10.8964 0.0000
# 2 30.4788 85.4354 44.3425 0.0000 13.9591 0.0000
# 3 16.0850 44.3425 104.8997 0.0000 16.3380 0.0000
# 4 0.0000 0.0000 0.0000 55.6292 0.0000 1.5058
# 5 10.8964 13.9591 16.3380 0.0000 39.8664 0.0000
# 6 0.0000 0.0000 0.0000 1.5058 0.0000 68.7704
#
#
#
# Elastic Compliance Matrix: (Units=1/GPa)
#
#
# Indices 1 2 3 4 5 6 
#
# 1 0.010786 -0.003646 0.000158 0.000000 -0.001736 0.000000
# 2 -0.003646 0.016533 -0.006071 0.000000 -0.002305 0.000000
# 3 0.000158 -0.006071 0.012552 0.000000 -0.003061 0.000000
# 4 0.000000 0.000000 0.000000 0.017987 0.000000 -0.000394
# 5 -0.001736 -0.002305 -0.003061 0.000000 0.027620 0.000000
# 6 0.000000 0.000000 0.000000 -0.000394 0.000000 0.014550
#
#
# Mechanical properties :
#
#
# Convention : Reuss Voigt Hill
#
# Bulk Modulus (GPa) = 48.18706 52.96476 50.57591
# Shear Modulus (GPa) = 39.66301 46.45082 43.05691
#
# Velocity S-wave (km/s) = 3.91429 4.23601 4.07832
# Velocity P-wave (km/s) = 6.24847 6.66222 6.45866
#
# Compressibility (1/GPa) = 0.02075246
#
# Stress axis : x y z
#
# Youngs Moduli (GPa) = 92.71375 60.48603 79.67068
#
# Poissons Ratio (x) = 0.22054 -0.01257
# Poissons Ratio (y) = 0.33804 0.48365
# Poissons Ratio (z) = -0.01462 0.36719
#
# Static dielectric constant tensor:
#      x y z
#    x 2.123200 0.000000 -0.057720 
#    y 0.000000 2.129250 0.000000 
#    z -0.057720 0.000000 2.168700 
# 
# From -- ./inp_files/312449.got.cif
#   From: 2010.05.17/outbox.cif.g08.bks.cpg/sg15_157_cif.got.tgz:312449.got - 2010.06.03 18:47:42.
