data_PCOD9305799
_publ_section_title
;
Structure prediction by ZEFSAII (Michael W. Deem and Ramdas Pophale) SiO2 
 PCOD9305799
Probable space group: C 2/C
;
_chemical_formula_sum "Si O2"
_cell_formula_units_Z 44
_cell_length_a 12.393932
_cell_length_b 11.678325
_cell_length_c 22.537169
_cell_angle_alpha 90.000000
_cell_angle_beta 142.917894
_cell_angle_gamma 90.000000
_cell_volume 1966.874785
_symmetry_space_group_name_H-M "C 2/C"
_symmetry_group_IT_number 15
_symmetry_cell_setting 'monoclinic'
loop_
_space_group_symop_operation_xyz
x,y,z
-x,y,1/2-z
-x,-y,-z
x,-y,1/2+z
1/2+x,1/2+y,z
1/2-x,1/2+y,1/2-z
1/2-x,1/2-y,-z
1/2+x,1/2-y,1/2+z
loop_
_atom_site_type_symbol
_atom_site_label
_atom_site_fract_x
_atom_site_fract_y
_atom_site_fract_z
Si Si1 0.098053 0.280337 0.020592
Si Si2 0.016261 0.286928 0.849145
Si Si3 0.274829 0.578980 0.700039
Si Si4 0.260022 0.298705 0.439297
Si Si5 0.500000 0.629874 0.250000
Si Si6 0.992884 0.468553 0.313592
O O1 0.278693 0.215718 0.081705
O O2 0.166556 0.383942 0.092980
O O3 0.011439 0.305555 0.918161
O O4 0.953484 0.210087 0.994499
O O5 0.935491 0.400569 0.786201
O O6 0.920739 0.174770 0.782236
O O7 0.375013 0.458428 0.732968
O O8 0.138708 0.583450 0.695549
O O9 0.250000 0.250000 0.500000
O O10 0.129198 0.212148 0.345078
O O11 0.191824 0.429260 0.418149
O O12 0.000000 0.424809 0.250000
#
# Coordination Sequence:
#
# PCOD9305799 Si02
#       6
#     8   8   8   8   4   8
#     4  11  24  47  73 105 144 187 250 284 362 434
#     4  11  26  46  73 108 142 190 244 301 355 425
#     4  12  25  48  75 103 146 196 242 297 358 439
#     4  12  27  44  71 107 143 186 238 294 360 427
#     4  12  28  48  74 102 142 194 242 288 368 432
#     4  12  26  43  71 104 148 186 236 301 361 419
#
# _framework density 22.370514
#
# number of rings (size 3 to 8) (size 9 to 14) (size 15 to 20)
#    0.000    0.364    4.545    3.273    5.091    3.636 
#    0.000    0.000    0.000    0.000    0.000    0.000 
#    0.000    0.000    0.000    0.000    0.000    0.000 
#
# Total GULP energy -122774.856421 kJ/mol
# GULP energy per Si atom -5580.675292 kJ/mol
# Density = 2.231960 g / cm^3
# Si number density = 22.370514 Si / 1000 Ang^3
#
#
#
# Elastic Constant Matrix: (Units=GPa)
#
#
# Indices 1 2 3 4 5 6 
#
# 1 190.7058 21.9225 32.9017 0.0000 3.0737 0.0000
# 2 21.9225 99.5336 26.2254 0.0000 -0.6463 0.0000
# 3 32.9017 26.2254 69.0595 0.0000 -12.2447 0.0000
# 4 0.0000 0.0000 0.0000 4.1051 0.0000 9.9839
# 5 3.0737 -0.6463 -12.2447 0.0000 51.8118 0.0000
# 6 0.0000 0.0000 0.0000 9.9839 0.0000 14.5296
#
#
#
# Elastic Compliance Matrix: (Units=1/GPa)
#
#
# Indices 1 2 3 4 5 6 
#
# 1 0.005794 -0.000565 -0.002722 0.000000 -0.000994 0.000000
# 2 -0.000565 0.011259 -0.004149 0.000000 -0.000807 0.000000
# 3 -0.002722 -0.004149 0.018132 0.000000 0.004395 0.000000
# 4 0.000000 0.000000 0.000000 -0.362941 0.000000 0.249392
# 5 -0.000994 -0.000807 0.004395 0.000000 0.020388 0.000000
# 6 0.000000 0.000000 0.000000 0.249392 0.000000 -0.102543
#
#
# Mechanical properties :
#
#
# Convention : Reuss Voigt Hill
#
# Bulk Modulus (GPa) = 49.23195 57.93310 53.58253
# Shear Modulus (GPa) = -12.87779 32.63925 9.88073
#
# Velocity S-wave (km/s) = -2.40189 3.82387 2.10391
# Velocity P-wave (km/s) = 3.78988 6.74161 5.46866
#
# Compressibility (1/GPa) = 0.02031201
#
# Stress axis : x y z
#
# Youngs Moduli (GPa) = 172.58240 88.81419 55.15067
#
# Poissons Ratio (x) = 0.05022 0.15013
# Poissons Ratio (y) = 0.09759 0.22884
# Poissons Ratio (z) = 0.46979 0.36853
#
# Static dielectric constant tensor:
#      x y z
#    x 1.803680 0.000000 -0.003560 
#    y 0.000000 1.806590 0.000000 
#    z -0.003560 0.000000 1.857230 
# 
# From -- ./inp_files/269365.got.cif
#   From: 2010.05.17/outbox.cif.g08.bks.cpg/sg15_135_cif.got.tgz:269365.got - 2010.06.03 18:47:42.
