data_PCOD9305469
_publ_section_title
;
Structure prediction by ZEFSAII (Michael W. Deem and Ramdas Pophale) SiO2 
 PCOD9305469
Probable space group: C 2/C
;
_chemical_formula_sum "Si O2"
_cell_formula_units_Z 56
_cell_length_a 11.158492
_cell_length_b 19.848179
_cell_length_c 10.861943
_cell_angle_alpha 90.000000
_cell_angle_beta 103.615747
_cell_angle_gamma 90.000000
_cell_volume 2338.049166
_symmetry_space_group_name_H-M "C 2/C"
_symmetry_group_IT_number 15
_symmetry_cell_setting 'monoclinic'
loop_
_space_group_symop_operation_xyz
x,y,z
-x,y,1/2-z
-x,-y,-z
x,-y,1/2+z
1/2+x,1/2+y,z
1/2-x,1/2+y,1/2-z
1/2-x,1/2-y,-z
1/2+x,1/2-y,1/2+z
loop_
_atom_site_type_symbol
_atom_site_label
_atom_site_fract_x
_atom_site_fract_y
_atom_site_fract_z
Si Si1 0.517884 0.263751 0.111455
Si Si2 0.892228 0.002606 0.116102
Si Si3 0.962724 0.887457 0.956990
Si Si4 0.500000 0.289011 0.750000
Si Si5 0.786485 0.683965 0.622860
Si Si6 0.475379 0.127222 0.490343
Si Si7 0.327131 0.056607 0.788419
Si Si8 0.000000 0.544296 0.250000
O O1 0.500000 0.248671 0.250000
O O2 0.657455 0.276933 0.096610
O O3 0.458903 0.335329 0.067834
O O4 0.465311 0.200541 0.023671
O O5 0.768220 0.985877 0.155884
O O6 0.000000 0.994638 0.250000
O O7 0.912896 0.076000 0.061774
O O8 0.895831 0.951771 0.999805
O O9 0.937237 0.838399 0.835812
O O10 0.392288 0.238425 0.680886
O O11 0.844517 0.644734 0.520217
O O12 0.770946 0.623909 0.717646
O O13 0.560572 0.084444 0.601586
O O14 0.469363 0.088745 0.360458
O O15 0.384140 0.005307 0.703229
#
# Coordination Sequence:
#
# PCOD9305469 Si02
#       8
#     8   8   8   4   8   8   8   4
#     4  12  26  46  72 105 145 185 241 297 358 425
#     4  11  26  47  70 106 143 188 244 291 361 427
#     4  11  24  45  69 103 142 187 236 296 352 426
#     4  12  23  44  72 105 142 186 244 288 364 419
#     4  12  24  46  76 103 141 190 236 297 356 425
#     4  12  25  47  68 110 141 187 241 287 363 423
#     4  12  25  47  76 103 145 188 238 298 354 428
#     4  12  27  44  72 105 150 188 240 298 352 429
#
# _framework density 23.951589999999999
#
# number of rings (size 3 to 8) (size 9 to 14) (size 15 to 20)
#    0.000    0.286    5.714    3.000    2.000    3.429 
#    0.000    2.857    0.000    0.000    0.000    0.000 
#    0.000    0.000    0.000    0.000    0.000    0.000 
#
# Total GULP energy -156375.824501 kJ/mol
# GULP energy per Si atom -5584.850875 kJ/mol
# Density = 2.389708 g / cm^3
# Si number density = 23.951590 Si / 1000 Ang^3
#
#
#
# Elastic Constant Matrix: (Units=GPa)
#
#
# Indices 1 2 3 4 5 6 
#
# 1 73.8350 27.5474 16.3023 0.0000 -26.7623 0.0000
# 2 27.5474 130.1327 29.6402 0.0000 -8.9060 0.0000
# 3 16.3023 29.6402 81.9008 0.0000 -26.5382 0.0000
# 4 0.0000 0.0000 0.0000 17.5875 0.0000 0.1667
# 5 -26.7623 -8.9060 -26.5382 0.0000 33.2138 0.0000
# 6 0.0000 0.0000 0.0000 0.1667 0.0000 16.1745
#
#
#
# Elastic Compliance Matrix: (Units=1/GPa)
#
#
# Indices 1 2 3 4 5 6 
#
# 1 0.020966 -0.003909 0.003206 0.000000 0.018407 0.000000
# 2 -0.003909 0.009105 -0.003706 0.000000 -0.003669 0.000000
# 3 0.003206 -0.003706 0.018119 0.000000 0.016067 0.000000
# 4 0.000000 0.000000 0.000000 0.056864 0.000000 -0.000586
# 5 0.018407 -0.003669 0.016067 0.000000 0.056793 0.000000
# 6 0.000000 0.000000 0.000000 -0.000586 0.000000 0.061832
#
#
# Mechanical properties :
#
#
# Convention : Reuss Voigt Hill
#
# Bulk Modulus (GPa) = 25.39882 48.09424 36.74653
# Shear Modulus (GPa) = 20.35660 27.55373 23.95517
#
# Velocity S-wave (km/s) = 2.91848 3.39542 3.16594
# Velocity P-wave (km/s) = 4.68870 5.95779 5.36093
#
# Compressibility (1/GPa) = 0.03937191
#
# Stress axis : x y z
#
# Youngs Moduli (GPa) = 47.69637 109.83129 55.19042
#
# Poissons Ratio (x) = 0.42929 -0.17692
# Poissons Ratio (y) = 0.18643 0.20454
# Poissons Ratio (z) = -0.15290 0.40703
#
# Static dielectric constant tensor:
#      x y z
#    x 1.951990 0.000000 0.026430 
#    y 0.000000 1.887800 0.000000 
#    z 0.026430 0.000000 1.948800 
# 
# From -- ./inp_files/89001.got.cif
#   From: 2010.05.17/outbox.cif.g08.bks.cpg/sg15_45_cif.got.tgz:89001.got - 2010.06.03 18:47:42.
