data_PCOD9305774
_publ_section_title
;
Structure prediction by ZEFSAII (Michael W. Deem and Ramdas Pophale) SiO2 
 PCOD9305774
Probable space group: C 2/C
;
_chemical_formula_sum "Si O2"
_cell_formula_units_Z 52
_cell_length_a 12.837537
_cell_length_b 14.408865
_cell_length_c 13.138950
_cell_angle_alpha 90.000000
_cell_angle_beta 75.719010
_cell_angle_gamma 90.000000
_cell_volume 2355.264422
_symmetry_space_group_name_H-M "C 2/C"
_symmetry_group_IT_number 15
_symmetry_cell_setting 'monoclinic'
loop_
_space_group_symop_operation_xyz
x,y,z
-x,y,1/2-z
-x,-y,-z
x,-y,1/2+z
1/2+x,1/2+y,z
1/2-x,1/2+y,1/2-z
1/2-x,1/2-y,-z
1/2+x,1/2-y,1/2+z
loop_
_atom_site_type_symbol
_atom_site_label
_atom_site_fract_x
_atom_site_fract_y
_atom_site_fract_z
Si Si1 0.060361 0.592091 0.520219
Si Si2 0.471831 0.416687 0.934209
Si Si3 0.174829 0.822259 0.165855
Si Si4 0.174730 0.819645 0.793299
Si Si5 0.962123 0.223056 0.599369
Si Si6 0.233299 0.967298 0.630974
Si Si7 0.500000 0.182600 0.750000
O O1 0.034656 0.673007 0.444361
O O2 0.185637 0.563731 0.477496
O O3 0.023045 0.624846 0.641302
O O4 0.000000 0.500000 0.500000
O O5 0.581923 0.379877 0.864376
O O6 0.389326 0.448415 0.869934
O O7 0.500000 0.500000 0.000000
O O8 0.421131 0.335684 0.013668
O O9 0.262241 0.741049 0.139363
O O10 0.115099 0.799524 0.287387
O O11 0.080370 0.812365 0.105530
O O12 0.232853 0.922655 0.153356
O O13 0.251148 0.893106 0.717226
O O14 0.106318 0.746857 0.740740
#
# Coordination Sequence:
#
# PCOD9305774 Si02
#       7
#     8   8   8   8   8   8   4
#     4  12  28  51  74 110 153 198 245 306 377 451
#     4  12  24  43  73 108 144 189 247 314 360 435
#     4  11  26  45  75 107 148 199 243 307 370 447
#     4  12  24  45  74 107 147 193 248 306 369 437
#     4  11  24  47  71 105 151 191 251 305 373 437
#     4  12  25  46  75 111 144 194 255 301 374 442
#     4  12  26  48  78 104 150 192 252 308 370 444
#
# _framework density 22.078199999999999
#
# number of rings (size 3 to 8) (size 9 to 14) (size 15 to 20)
#    0.000    0.308    6.154    1.846    4.308    4.308 
#    5.538    0.000    0.000    0.000    0.000    0.000 
#    0.000    0.000    0.000    0.000    0.000    0.000 
#
# Total GULP energy -145342.449327 kJ/mol
# GULP energy per Si atom -5590.094205 kJ/mol
# Density = 2.202795 g / cm^3
# Si number density = 22.078200 Si / 1000 Ang^3
#
#
#
# Elastic Constant Matrix: (Units=GPa)
#
#
# Indices 1 2 3 4 5 6 
#
# 1 57.5222 24.5223 9.2687 0.0000 -12.8773 0.0000
# 2 24.5223 170.7767 51.4817 0.0000 -0.1121 0.0000
# 3 9.2687 51.4817 123.4129 0.0000 -13.7988 0.0000
# 4 0.0000 0.0000 0.0000 22.5667 0.0000 -2.6657
# 5 -12.8773 -0.1121 -13.7988 0.0000 28.5958 0.0000
# 6 0.0000 0.0000 0.0000 -2.6657 0.0000 39.8237
#
#
#
# Elastic Compliance Matrix: (Units=1/GPa)
#
#
# Indices 1 2 3 4 5 6 
#
# 1 0.020819 -0.003250 0.000887 0.000000 0.009791 0.000000
# 2 -0.003250 0.007259 -0.003112 0.000000 -0.002937 0.000000
# 3 0.000887 -0.003112 0.009913 0.000000 0.005171 0.000000
# 4 0.000000 0.000000 0.000000 0.044666 0.000000 0.002990
# 5 0.009791 -0.002937 0.005171 0.000000 0.041863 0.000000
# 6 0.000000 0.000000 0.000000 0.002990 0.000000 0.025311
#
#
# Mechanical properties :
#
#
# Convention : Reuss Voigt Hill
#
# Bulk Modulus (GPa) = 36.98343 58.02858 47.50600
# Shear Modulus (GPa) = 29.44739 35.95985 32.70362
#
# Velocity S-wave (km/s) = 3.65605 4.04015 3.85289
# Velocity P-wave (km/s) = 5.88301 6.93571 6.43093
#
# Compressibility (1/GPa) = 0.02703914
#
# Stress axis : x y z
#
# Youngs Moduli (GPa) = 48.03265 137.76754 100.88138
#
# Poissons Ratio (x) = 0.44781 -0.08948
# Poissons Ratio (y) = 0.15613 0.31396
# Poissons Ratio (z) = -0.04261 0.42876
#
# Static dielectric constant tensor:
#      x y z
#    x 1.822170 0.000000 -0.030510 
#    y 0.000000 1.808180 0.000000 
#    z -0.030510 0.000000 1.902650 
# 
# From -- ./inp_files/144182.got.cif
#   From: 2010.05.17/outbox.cif.g08.bks.cpg/sg15_73_cif.got.tgz:144182.got - 2010.06.03 18:47:42.
