data_PCOD9305039
_publ_section_title
;
Structure prediction by ZEFSAII (Michael W. Deem and Ramdas Pophale) SiO2 
 PCOD9305039
Probable space group: C 2/C
;
_chemical_formula_sum "Si O2"
_cell_formula_units_Z 48
_cell_length_a 5.511007
_cell_length_b 13.684098
_cell_length_c 31.063639
_cell_angle_alpha 90.000000
_cell_angle_beta 122.374991
_cell_angle_gamma 90.000000
_cell_volume 1978.476362
_symmetry_space_group_name_H-M "C 2/C"
_symmetry_group_IT_number 15
_symmetry_cell_setting 'monoclinic'
loop_
_space_group_symop_operation_xyz
x,y,z
-x,y,1/2-z
-x,-y,-z
x,-y,1/2+z
1/2+x,1/2+y,z
1/2-x,1/2+y,1/2-z
1/2-x,1/2-y,-z
1/2+x,1/2-y,1/2+z
loop_
_atom_site_type_symbol
_atom_site_label
_atom_site_fract_x
_atom_site_fract_y
_atom_site_fract_z
Si Si1 0.172611 0.843012 0.639818
Si Si2 0.912652 0.871865 0.057641
Si Si3 0.110227 0.132711 0.846832
Si Si4 0.595521 0.166800 0.039471
Si Si5 0.158343 0.045208 0.220436
Si Si6 0.619354 0.979165 0.906688
O O1 0.311197 0.739191 0.662533
O O2 0.037938 0.889244 0.669696
O O3 0.384108 0.921337 0.638808
O O4 0.934128 0.834005 0.579529
O O5 0.004964 0.855008 0.115584
O O6 0.016591 0.779538 0.040174
O O7 0.567263 0.870354 0.018603
O O8 0.070026 0.970005 0.058193
O O9 0.394154 0.067024 0.880558
O O10 0.904730 0.067445 0.797989
O O11 0.461982 0.095878 0.063444
O O12 0.500000 0.063007 0.250000
O O13 0.000000 0.067559 0.250000
#
# Coordination Sequence:
#
# PCOD9305039 Si02
#       6
#     8   8   8   8   8   8
#     4  12  26  47  75 106 149 194 243 313 375 447
#     4  11  24  41  70 110 152 200 249 297 362 447
#     4  12  26  47  75 106 149 194 243 313 375 447
#     4  11  24  41  70 110 152 200 249 297 362 447
#     4  12  29  54  82 112 145 191 258 323 392 460
#     4  12  22  44  69 104 148 201 242 299 367 434
#
# _framework density 24.261095000000001
#
# number of rings (size 3 to 8) (size 9 to 14) (size 15 to 20)
#    0.000    0.333    6.667    1.500    0.000    5.333 
#    0.000    5.000    0.000    0.000    0.000    0.000 
#    0.000    0.000    0.000    0.000    0.000    0.000 
#
# Total GULP energy -134377.784465 kJ/mol
# GULP energy per Si atom -5599.074353 kJ/mol
# Density = 2.420588 g / cm^3
# Si number density = 24.261095 Si / 1000 Ang^3
#
#
#
# Elastic Constant Matrix: (Units=GPa)
#
#
# Indices 1 2 3 4 5 6 
#
# 1 59.4965 12.7198 24.3996 0.0000 -6.3363 0.0000
# 2 12.7198 147.2696 10.3184 0.0000 -13.3429 0.0000
# 3 24.3996 10.3184 50.1010 0.0000 -6.7312 0.0000
# 4 0.0000 0.0000 0.0000 30.1742 0.0000 9.6438
# 5 -6.3363 -13.3429 -6.7312 0.0000 45.9679 0.0000
# 6 0.0000 0.0000 0.0000 9.6438 0.0000 22.1758
#
#
#
# Elastic Compliance Matrix: (Units=1/GPa)
#
#
# Indices 1 2 3 4 5 6 
#
# 1 0.021244 -0.001030 -0.009977 0.000000 0.001168 0.000000
# 2 -0.001030 0.007094 -0.000716 0.000000 0.001812 0.000000
# 3 -0.009977 -0.000716 0.025250 0.000000 0.002114 0.000000
# 4 0.000000 0.000000 0.000000 0.038491 0.000000 -0.016739
# 5 0.001168 0.001812 0.002114 0.000000 0.022751 0.000000
# 6 0.000000 0.000000 0.000000 -0.016739 0.000000 0.052373
#
#
# Mechanical properties :
#
#
# Convention : Reuss Voigt Hill
#
# Bulk Modulus (GPa) = 33.17621 39.08255 36.12938
# Shear Modulus (GPa) = 24.91341 33.62555 29.26948
#
# Velocity S-wave (km/s) = 3.20798 3.72692 3.47715
# Velocity P-wave (km/s) = 5.23697 5.88762 5.57180
#
# Compressibility (1/GPa) = 0.03014208
#
# Stress axis : x y z
#
# Youngs Moduli (GPa) = 47.07246 140.97263 39.60397
#
# Poissons Ratio (x) = 0.14520 0.39512
# Poissons Ratio (y) = 0.04848 0.02835
# Poissons Ratio (z) = 0.46963 0.10092
#
# Static dielectric constant tensor:
#      x y z
#    x 1.994820 0.000000 0.075490 
#    y 0.000000 1.876020 0.000000 
#    z 0.075490 0.000000 2.010250 
# 
# From -- ./inp_files/305494.got.cif
#   From: 2010.05.17/outbox.cif.g08.bks.cpg/sg15_153_cif.got.tgz:305494.got - 2010.06.03 18:47:42.
