data_PCOD9305230
_publ_section_title
;
Structure prediction by ZEFSAII (Michael W. Deem and Ramdas Pophale) SiO2 
 PCOD9305230
Probable space group: C 2/C
;
_chemical_formula_sum "Si O2"
_cell_formula_units_Z 36
_cell_length_a 6.765064
_cell_length_b 20.453395
_cell_length_c 14.767389
_cell_angle_alpha 90.000000
_cell_angle_beta 119.970631
_cell_angle_gamma 90.000000
_cell_volume 1770.109414
_symmetry_space_group_name_H-M "C 2/C"
_symmetry_group_IT_number 15
_symmetry_cell_setting 'monoclinic'
loop_
_space_group_symop_operation_xyz
x,y,z
-x,y,1/2-z
-x,-y,-z
x,-y,1/2+z
1/2+x,1/2+y,z
1/2-x,1/2+y,1/2-z
1/2-x,1/2-y,-z
1/2+x,1/2-y,1/2+z
loop_
_atom_site_type_symbol
_atom_site_label
_atom_site_fract_x
_atom_site_fract_y
_atom_site_fract_z
Si Si1 0.253457 0.087869 0.333552
Si Si2 0.693648 0.446901 0.021075
Si Si3 0.454660 0.790149 0.635740
Si Si4 0.000000 0.498253 0.250000
Si Si5 0.420497 0.704560 0.981626
O O1 0.254193 0.047998 0.428113
O O2 0.439251 0.145438 0.386977
O O3 0.322799 0.044256 0.263201
O O4 0.000000 0.113880 0.250000
O O5 0.618989 0.371648 0.013678
O O6 0.883901 0.458719 0.141623
O O7 0.500000 0.500000 0.000000
O O8 0.500000 0.798951 0.750000
O O9 0.587753 0.728842 0.623782
O O10 0.184016 0.782196 0.565956
O O11 0.250000 0.750000 0.000000
#
# Coordination Sequence:
#
# PCOD9305230 Si02
#       5
#     8   8   8   4   8
#     4  12  23  45  74  99 139 190 237 296 359 428
#     4  12  25  47  69 100 145 184 239 295 358 439
#     4  11  24  43  73 100 134 182 241 286 352 436
#     4  12  26  42  68 104 136 188 228 292 372 420
#     4  11  25  46  68 101 140 183 230 296 361 417
#
# _framework density 20.337726
#
# number of rings (size 3 to 8) (size 9 to 14) (size 15 to 20)
#    0.000    0.444    5.556    3.333    0.000    1.778 
#    4.000    0.000    0.000    0.000    0.000    0.000 
#    0.000    0.000    0.000    0.000    0.000    0.000 
#
# Total GULP energy -100487.417809 kJ/mol
# GULP energy per Si atom -5582.634323 kJ/mol
# Density = 2.029144 g / cm^3
# Si number density = 20.337726 Si / 1000 Ang^3
#
#
#
# Elastic Constant Matrix: (Units=GPa)
#
#
# Indices 1 2 3 4 5 6 
#
# 1 137.6660 59.2152 44.5478 0.0000 -8.1284 0.0000
# 2 59.2152 108.5245 9.9081 0.0000 -7.2728 0.0000
# 3 44.5478 9.9081 85.5967 0.0000 -10.8978 0.0000
# 4 0.0000 0.0000 0.0000 27.5392 0.0000 -0.4527
# 5 -8.1284 -7.2728 -10.8978 0.0000 45.1712 0.0000
# 6 0.0000 0.0000 0.0000 -0.4527 0.0000 44.9054
#
#
#
# Elastic Compliance Matrix: (Units=1/GPa)
#
#
# Indices 1 2 3 4 5 6 
#
# 1 0.011460 -0.005778 -0.005315 0.000000 -0.000150 0.000000
# 2 -0.005778 0.012298 0.001757 0.000000 0.001364 0.000000
# 3 -0.005315 0.001757 0.014608 0.000000 0.002851 0.000000
# 4 0.000000 0.000000 0.000000 0.036318 0.000000 0.000366
# 5 -0.000150 0.001364 0.002851 0.000000 0.023018 0.000000
# 6 0.000000 0.000000 0.000000 0.000366 0.000000 0.022273
#
#
# Mechanical properties :
#
#
# Convention : Reuss Voigt Hill
#
# Bulk Modulus (GPa) = 50.77228 62.12550 56.44889
# Shear Modulus (GPa) = 34.43251 38.06423 36.24837
#
# Velocity S-wave (km/s) = 4.11912 4.33090 4.22634
# Velocity P-wave (km/s) = 6.90229 7.45803 7.18553
#
# Compressibility (1/GPa) = 0.01969579
#
# Stress axis : x y z
#
# Youngs Moduli (GPa) = 87.25871 81.31277 68.45485
#
# Poissons Ratio (x) = 0.46982 0.36381
# Poissons Ratio (y) = 0.50418 -0.12029
# Poissons Ratio (z) = 0.46375 -0.14288
#
# Static dielectric constant tensor:
#      x y z
#    x 1.746070 0.000000 -0.001050 
#    y 0.000000 1.758640 0.000000 
#    z -0.001050 0.000000 1.764230 
# 
# From -- ./inp_files/129234.got.cif
#   From: 2010.05.17/outbox.cif.g08.bks.cpg/sg15_65_cif.got.tgz:129234.got - 2010.06.03 18:47:42.
