data_PCOD9305594
_publ_section_title
;
Structure prediction by ZEFSAII (Michael W. Deem and Ramdas Pophale) SiO2 
 PCOD9305594
Probable space group: C 2/C
;
_chemical_formula_sum "Si O2"
_cell_formula_units_Z 40
_cell_length_a 20.193555
_cell_length_b 5.170541
_cell_length_c 22.652141
_cell_angle_alpha 90.000000
_cell_angle_beta 141.145526
_cell_angle_gamma 90.000000
_cell_volume 1483.761534
_symmetry_space_group_name_H-M "C 2/C"
_symmetry_group_IT_number 15
_symmetry_cell_setting 'monoclinic'
loop_
_space_group_symop_operation_xyz
x,y,z
-x,y,1/2-z
-x,-y,-z
x,-y,1/2+z
1/2+x,1/2+y,z
1/2-x,1/2+y,1/2-z
1/2-x,1/2-y,-z
1/2+x,1/2-y,1/2+z
loop_
_atom_site_type_symbol
_atom_site_label
_atom_site_fract_x
_atom_site_fract_y
_atom_site_fract_z
Si Si1 0.579073 0.204162 0.128449
Si Si2 0.713468 0.111572 0.795328
Si Si3 0.353798 0.826139 0.037752
Si Si4 0.357846 0.322819 0.965047
Si Si5 0.954568 0.947561 0.777819
O O1 0.680928 0.296529 0.163608
O O2 0.470297 0.232233 0.016974
O O3 0.554230 0.368075 0.170975
O O4 0.621465 0.933045 0.183157
O O5 0.657664 0.300771 0.803006
O O6 0.754712 0.844282 0.852818
O O7 0.366137 0.616389 0.993907
O O8 0.455996 0.770897 0.148358
O O9 0.343589 0.115265 0.006862
O O10 0.250000 0.750000 0.000000
O O11 0.000000 0.080534 0.750000
#
# Coordination Sequence:
#
# PCOD9305594 Si02
#       5
#     8   8   8   8   8
#     4  11  25  47  69 109 143 190 251 305 364 445
#     4  12  24  45  75 101 147 194 245 303 375 434
#     4  11  24  46  67 106 149 187 245 301 362 440
#     4  11  26  44  73 106 144 192 243 304 366 434
#     4  11  25  44  70 104 144 194 240 302 368 440
#
# _framework density 26.958507999999998
#
# number of rings (size 3 to 8) (size 9 to 14) (size 15 to 20)
#    0.000    0.800    4.000    2.400    5.600    0.800 
#    0.000    4.000    0.000    0.000    0.000    0.000 
#    0.000    0.000    0.000    0.000    0.000    0.000 
#
# Total GULP energy -111945.170851 kJ/mol
# GULP energy per Si atom -5597.258543 kJ/mol
# Density = 2.689715 g / cm^3
# Si number density = 26.958508 Si / 1000 Ang^3
#
#
#
# Elastic Constant Matrix: (Units=GPa)
#
#
# Indices 1 2 3 4 5 6 
#
# 1 201.5068 34.7709 28.1238 0.0022 29.0454 -0.0063
# 2 34.7709 64.6660 10.6509 0.0006 1.3182 -0.0073
# 3 28.1238 10.6509 103.6308 0.0003 26.7372 -0.0001
# 4 0.0022 0.0006 0.0003 43.6026 0.0009 0.7906
# 5 29.0454 1.3182 26.7372 0.0009 54.6514 -0.0022
# 6 -0.0063 -0.0073 -0.0001 0.7906 -0.0022 51.2427
#
#
#
# Elastic Compliance Matrix: (Units=1/GPa)
#
#
# Indices 1 2 3 4 5 6 
#
# 1 0.005978 -0.003061 -0.000580 0.000000 -0.002820 0.000000
# 2 -0.003061 0.017309 -0.001442 0.000000 0.001915 0.000002
# 3 -0.000580 -0.001442 0.011292 0.000000 -0.005181 0.000000
# 4 0.000000 0.000000 0.000000 0.022941 0.000000 -0.000354
# 5 -0.002820 0.001915 -0.005181 0.000000 0.022285 0.000001
# 6 0.000000 0.000002 0.000000 -0.000354 0.000001 0.019520
#
#
# Mechanical properties :
#
#
# Convention : Reuss Voigt Hill
#
# Bulk Modulus (GPa) = 40.96494 57.43277 49.19885
# Shear Modulus (GPa) = 42.50600 49.64987 46.07793
#
# Velocity S-wave (km/s) = 3.97510 4.29618 4.13875
# Velocity P-wave (km/s) = 6.02471 6.77937 6.41315
#
# Compressibility (1/GPa) = 0.02441112
#
# Stress axis : x y z
#
# Youngs Moduli (GPa) = 167.27211 57.77425 88.55710
#
# Poissons Ratio (x) = 0.17687 0.05139
# Poissons Ratio (y) = 0.51210 0.12772
# Poissons Ratio (z) = 0.09707 0.08332
#
# Static dielectric constant tensor:
#      x y z
#    x 2.109700 0.000000 -0.092390 
#    y 0.000000 2.095280 0.000000 
#    z -0.092390 0.000000 2.299220 
# 
# From -- ./inp_files/208107.got.cif
#   From: 2010.05.17/outbox.cif.g08.bks.cpg/sg15_105_cif.got.tgz:208107.got - 2010.06.03 18:47:42.
