data_PCOD9305940
_publ_section_title
;
Structure prediction by ZEFSAII (Michael W. Deem and Ramdas Pophale) SiO2 
 PCOD9305940
Probable space group: C 2/C
;
_chemical_formula_sum "Si O2"
_cell_formula_units_Z 40
_cell_length_a 11.914559
_cell_length_b 20.015289
_cell_length_c 12.367060
_cell_angle_alpha 90.000000
_cell_angle_beta 144.084129
_cell_angle_gamma 90.000000
_cell_volume 1729.999323
_symmetry_space_group_name_H-M "C 2/C"
_symmetry_group_IT_number 15
_symmetry_cell_setting 'monoclinic'
loop_
_space_group_symop_operation_xyz
x,y,z
-x,y,1/2-z
-x,-y,-z
x,-y,1/2+z
1/2+x,1/2+y,z
1/2-x,1/2+y,1/2-z
1/2-x,1/2-y,-z
1/2+x,1/2-y,1/2+z
loop_
_atom_site_type_symbol
_atom_site_label
_atom_site_fract_x
_atom_site_fract_y
_atom_site_fract_z
Si Si1 0.406845 0.083971 0.493298
Si Si2 0.955196 0.830815 0.399498
Si Si3 0.725328 0.175354 0.941441
Si Si4 0.811061 0.033152 0.794588
Si Si5 0.898676 0.321263 0.783398
O O1 0.252977 0.121763 0.448029
O O2 0.612493 0.057933 0.701591
O O3 0.459138 0.136235 0.436496
O O4 0.287493 0.021855 0.356276
O O5 0.852187 0.831651 0.435281
O O6 0.883718 0.899741 0.291243
O O7 0.917454 0.758819 0.316754
O O8 0.177914 0.836237 0.593761
O O9 0.500000 0.169680 0.750000
O O10 0.750000 0.250000 0.000000
O O11 0.000000 0.000000 0.000000
O O12 0.000000 0.339177 0.750000
#
# Coordination Sequence:
#
# PCOD9305940 Si02
#       5
#     8   8   8   8   8
#     4  11  25  48  76 113 153 198 252 316 380 453
#     4  12  24  46  73 110 149 194 250 314 382 445
#     4  12  24  43  77 115 152 189 250 322 384 451
#     4  11  24  49  74 107 158 197 251 305 380 469
#     4  12  26  48  77 107 149 197 264 312 372 458
#
# _framework density 23.121397000000002
#
# number of rings (size 3 to 8) (size 9 to 14) (size 15 to 20)
#    0.000    0.400    6.000    3.000    0.000    0.000 
#    7.200    4.000    0.000    0.000    0.000    0.000 
#    0.000    0.000    0.000    0.000    0.000    0.000 
#
# Total GULP energy -111646.435837 kJ/mol
# GULP energy per Si atom -5582.321792 kJ/mol
# Density = 2.306877 g / cm^3
# Si number density = 23.121397 Si / 1000 Ang^3
#
#
#
# Elastic Constant Matrix: (Units=GPa)
#
#
# Indices 1 2 3 4 5 6 
#
# 1 163.2793 12.2043 34.3174 0.0000 11.0834 0.0000
# 2 12.2043 123.4230 34.8754 0.0000 4.1478 0.0000
# 3 34.3174 34.8754 92.0530 0.0000 42.3774 0.0000
# 4 0.0000 0.0000 0.0000 52.6442 0.0000 0.1610
# 5 11.0834 4.1478 42.3774 0.0000 40.8560 0.0000
# 6 0.0000 0.0000 0.0000 0.1610 0.0000 36.8628
#
#
#
# Elastic Compliance Matrix: (Units=1/GPa)
#
#
# Indices 1 2 3 4 5 6 
#
# 1 0.006697 0.000222 -0.003318 0.000000 0.001603 0.000000
# 2 0.000222 0.009663 -0.006247 0.000000 0.005439 0.000000
# 3 -0.003318 -0.006247 0.026337 0.000000 -0.025783 0.000000
# 4 0.000000 0.000000 0.000000 0.018996 0.000000 -0.000083
# 5 0.001603 0.005439 -0.025783 0.000000 0.050232 0.000000
# 6 0.000000 0.000000 0.000000 -0.000083 0.000000 0.027128
#
#
# Mechanical properties :
#
#
# Convention : Reuss Voigt Hill
#
# Bulk Modulus (GPa) = 41.65260 60.17216 50.91238
# Shear Modulus (GPa) = 30.16728 45.89649 38.03189
#
# Velocity S-wave (km/s) = 3.61603 4.46019 4.06011
# Velocity P-wave (km/s) = 5.95719 7.25296 6.63677
#
# Compressibility (1/GPa) = 0.02400811
#
# Stress axis : x y z
#
# Youngs Moduli (GPa) = 149.33092 103.48958 37.96998
#
# Poissons Ratio (x) = -0.02293 0.12599
# Poissons Ratio (y) = -0.03309 0.23721
# Poissons Ratio (z) = 0.49551 0.64653
#
# Static dielectric constant tensor:
#      x y z
#    x 2.085530 0.000000 -0.209830 
#    y 0.000000 1.812600 0.000000 
#    z -0.209830 0.000000 2.021320 
# 
# From -- ./inp_files/89882.got.cif
#   From: 2010.05.17/outbox.cif.g08.bks.cpg/sg15_45_cif.got.tgz:89882.got - 2010.06.03 18:47:42.
