data_PCOD9305145
_publ_section_title
;
Structure prediction by ZEFSAII (Michael W. Deem and Ramdas Pophale) SiO2 
 PCOD9305145
Probable space group: C 2/C
;
_chemical_formula_sum "Si O2"
_cell_formula_units_Z 48
_cell_length_a 10.505463
_cell_length_b 22.429009
_cell_length_c 8.964641
_cell_angle_alpha 90.000000
_cell_angle_beta 59.520150
_cell_angle_gamma 90.000000
_cell_volume 1820.407034
_symmetry_space_group_name_H-M "C 2/C"
_symmetry_group_IT_number 15
_symmetry_cell_setting 'monoclinic'
loop_
_space_group_symop_operation_xyz
x,y,z
-x,y,1/2-z
-x,-y,-z
x,-y,1/2+z
1/2+x,1/2+y,z
1/2-x,1/2+y,1/2-z
1/2-x,1/2-y,-z
1/2+x,1/2-y,1/2+z
loop_
_atom_site_type_symbol
_atom_site_label
_atom_site_fract_x
_atom_site_fract_y
_atom_site_fract_z
Si Si1 0.372101 0.408673 0.059651
Si Si2 0.660243 0.232598 0.404301
Si Si3 0.600155 0.921609 0.548227
Si Si4 0.858208 0.326540 0.173002
Si Si5 0.309445 0.487067 0.814289
Si Si6 0.810457 0.129110 0.128640
O O1 0.224155 0.369867 0.153742
O O2 0.380605 0.454441 0.194667
O O3 0.377395 0.451631 0.912980
O O4 0.485892 0.366175 0.523830
O O5 0.750000 0.250000 0.500000
O O6 0.713576 0.282238 0.250569
O O7 0.491561 0.221876 0.560575
O O8 0.729243 0.174021 0.285278
O O9 0.500000 0.923483 0.750000
O O10 0.542945 0.882487 0.449184
O O11 0.659005 0.984833 0.465656
O O12 0.733574 0.873966 0.512337
O O13 0.287272 0.438626 0.700115
#
# Coordination Sequence:
#
# PCOD9305145 Si02
#       6
#     8   8   8   8   8   8
#     4  11  25  44  75 110 150 199 245 310 368 441
#     4  12  26  48  76 106 142 193 250 311 373 441
#     4  11  25  47  70 108 149 194 247 299 377 440
#     4  11  26  48  74 105 145 191 247 308 372 444
#     4  11  24  42  74 107 150 195 249 298 366 440
#     4  12  25  44  75 109 152 195 246 305 364 443
#
# _framework density 26.367729000000001
#
# number of rings (size 3 to 8) (size 9 to 14) (size 15 to 20)
#    0.000    0.667    3.333    3.500    2.333    6.000 
#    0.000    0.000    0.000    0.000    0.000    0.000 
#    0.000    0.000    0.000    0.000    0.000    0.000 
#
# Total GULP energy -133606.302600 kJ/mol
# GULP energy per Si atom -5566.929275 kJ/mol
# Density = 2.630771 g / cm^3
# Si number density = 26.367729 Si / 1000 Ang^3
#
#
#
# Elastic Constant Matrix: (Units=GPa)
#
#
# Indices 1 2 3 4 5 6 
#
# 1 1166.9414 233.1972 898.8936 0.0000 990.9520 0.0000
# 2 233.1972 177.1403 233.0239 0.0000 182.9542 0.0000
# 3 898.8936 233.0239 826.3835 0.0000 769.3647 0.0000
# 4 0.0000 0.0000 0.0000 55.4584 0.0000 -45.2897
# 5 990.9520 182.9542 769.3647 0.0000 1034.5667 0.0000
# 6 0.0000 0.0000 0.0000 -45.2897 0.0000 -1.2638
#
#
#
# Elastic Compliance Matrix: (Units=1/GPa)
#
#
# Indices 1 2 3 4 5 6 
#
# 1 0.008737 0.000309 -0.005684 0.000000 -0.004197 0.000000
# 2 0.000309 0.009287 -0.003739 0.000000 0.000842 0.000000
# 3 -0.005684 -0.003739 0.008981 0.000000 -0.000573 0.000000
# 4 0.000000 0.000000 0.000000 0.000596 0.000000 -0.021351
# 5 -0.004197 0.000842 -0.000573 0.000000 0.005263 0.000000
# 6 0.000000 0.000000 0.000000 -0.021351 0.000000 -0.026144
#
#
# Mechanical properties :
#
#
# Convention : Reuss Voigt Hill
#
# Bulk Modulus (GPa) = 113.93322 544.52163 329.22742
# Shear Modulus (GPa) = 179.37917 271.44231 225.41074
#
# Velocity S-wave (km/s) = 8.25697 10.15718 9.25597
# Velocity P-wave (km/s) = 11.58475 18.56116 15.47132
#
# Compressibility (1/GPa) = 0.00877707
#
# Stress axis : x y z
#
# Youngs Moduli (GPa) = 114.45111 107.67483 111.35058
#
# Poissons Ratio (x) = -0.03332 0.63294
# Poissons Ratio (y) = -0.03542 0.41638
# Poissons Ratio (z) = 0.65056 0.40263
#
# Static dielectric constant tensor:
#      x y z
#    x 2.178320 0.000000 -0.107720 
#    y 0.000000 1.727520 0.000000 
#    z -0.107720 0.000000 1.908000 
# 
# From -- ./inp_files/51821.got.cif
#   From: 2010.05.17/outbox.cif.g08.bks.cpg/sg15_26_cif.got.tgz:51821.got - 2010.06.03 18:47:42.
