data_PCOD9305367
_publ_section_title
;
Structure prediction by ZEFSAII (Michael W. Deem and Ramdas Pophale) SiO2 
 PCOD9305367
Probable space group: C 2/C
;
_chemical_formula_sum "Si O2"
_cell_formula_units_Z 56
_cell_length_a 28.917104
_cell_length_b 11.693186
_cell_length_c 14.006595
_cell_angle_alpha 90.000000
_cell_angle_beta 31.781099
_cell_angle_gamma 90.000000
_cell_volume 2494.383701
_symmetry_space_group_name_H-M "C 2/C"
_symmetry_group_IT_number 15
_symmetry_cell_setting 'monoclinic'
loop_
_space_group_symop_operation_xyz
x,y,z
-x,y,1/2-z
-x,-y,-z
x,-y,1/2+z
1/2+x,1/2+y,z
1/2-x,1/2+y,1/2-z
1/2-x,1/2-y,-z
1/2+x,1/2-y,1/2+z
loop_
_atom_site_type_symbol
_atom_site_label
_atom_site_fract_x
_atom_site_fract_y
_atom_site_fract_z
Si Si1 0.840530 0.790120 0.296538
Si Si2 0.351505 0.584755 0.047740
Si Si3 0.900827 0.958797 0.678766
Si Si4 0.000000 0.450728 0.250000
Si Si5 0.969310 0.586982 0.137940
Si Si6 0.905829 0.155429 0.363020
Si Si7 0.000000 0.741049 0.250000
Si Si8 0.161321 0.678412 0.392450
O O1 0.750000 0.750000 0.500000
O O2 0.852437 0.924466 0.296433
O O3 0.908757 0.689267 0.205630
O O4 0.842222 0.778486 0.179435
O O5 0.371964 0.581706 0.125033
O O6 0.248822 0.609634 0.216905
O O7 0.376732 0.464134 0.958861
O O8 0.415509 0.677662 0.884665
O O9 0.904337 0.861540 0.752801
O O10 0.000000 0.000000 0.500000
O O11 0.065828 0.507914 0.213488
O O12 0.928836 0.392213 0.444749
O O13 0.028838 0.662663 0.108431
O O14 0.000000 0.500000 0.000000
O O15 0.839354 0.255758 0.506444
O O16 0.000000 0.180097 0.250000
#
# Coordination Sequence:
#
# PCOD9305367 Si02
#       8
#     8   8   8   4   8   8   4   8
#     4  12  25  46  70 104 141 190 240 293 358 435
#     4  12  25  45  73 106 143 184 244 298 355 432
#     4  12  24  44  76 104 138 190 240 293 365 429
#     4  11  26  45  68 102 146 189 236 295 360 424
#     4  11  24  44  71  97 140 190 238 289 364 429
#     4  12  23  45  73 104 146 191 235 299 361 427
#     4  11  24  45  70 104 138 187 240 305 356 424
#     4  12  26  44  71 105 146 187 237 298 360 426
#
# _framework density 22.450434999999999
#
# number of rings (size 3 to 8) (size 9 to 14) (size 15 to 20)
#    0.000    0.286    5.714    3.429    2.000    4.000 
#    2.571    0.000    0.000    0.000    0.000    0.000 
#    0.000    0.000    0.000    0.000    0.000    0.000 
#
# Total GULP energy -155994.138491 kJ/mol
# GULP energy per Si atom -5571.219232 kJ/mol
# Density = 2.239934 g / cm^3
# Si number density = 22.450435 Si / 1000 Ang^3
#
#
#
# Elastic Constant Matrix: (Units=GPa)
#
#
# Indices 1 2 3 4 5 6 
#
# 1 76.2703 1.9732 -3.9418 0.0000 24.4856 0.0000
# 2 1.9732 57.2973 11.2086 0.0000 4.9210 0.0000
# 3 -3.9418 11.2086 72.1088 0.0000 -0.6580 0.0000
# 4 0.0000 0.0000 0.0000 32.2451 0.0000 5.5350
# 5 24.4856 4.9210 -0.6580 0.0000 36.6077 0.0000
# 6 0.0000 0.0000 0.0000 5.5350 0.0000 23.3495
#
#
#
# Elastic Compliance Matrix: (Units=1/GPa)
#
#
# Indices 1 2 3 4 5 6 
#
# 1 0.016747 0.000235 0.000777 0.000000 -0.011219 0.000000
# 2 0.000235 0.018230 -0.002845 0.000000 -0.002659 0.000000
# 3 0.000777 -0.002845 0.014354 0.000000 0.000121 0.000000
# 4 0.000000 0.000000 0.000000 0.032328 0.000000 -0.007663
# 5 -0.011219 -0.002659 0.000121 0.000000 0.035180 0.000000
# 6 0.000000 0.000000 0.000000 -0.007663 0.000000 0.044644
#
#
# Mechanical properties :
#
#
# Convention : Reuss Voigt Hill
#
# Bulk Modulus (GPa) = 21.89940 24.90626 23.40283
# Shear Modulus (GPa) = 27.72064 31.53621 29.62842
#
# Velocity S-wave (km/s) = 3.51771 3.75200 3.63674
# Velocity P-wave (km/s) = 5.12589 5.46699 5.29919
#
# Compressibility (1/GPa) = 0.04566336
#
# Stress axis : x y z
#
# Youngs Moduli (GPa) = 59.71189 54.85571 69.66836
#
# Poissons Ratio (x) = -0.01289 -0.05410
# Poissons Ratio (y) = -0.01403 0.19821
# Poissons Ratio (z) = -0.04637 0.15607
#
# Static dielectric constant tensor:
#      x y z
#    x 1.907630 0.000000 0.033990 
#    y 0.000000 1.899650 0.000000 
#    z 0.033990 0.000000 1.829430 
# 
# From -- ./inp_files/181942.got.cif
#   From: 2010.05.17/outbox.cif.g08.bks.cpg/sg15_91_cif.got.tgz:181942.got - 2010.06.03 18:47:42.
