data_PCOD9305874
_publ_section_title
;
Structure prediction by ZEFSAII (Michael W. Deem and Ramdas Pophale) SiO2 
 PCOD9305874
Probable space group: C 2/C
;
_chemical_formula_sum "Si O2"
_cell_formula_units_Z 60
_cell_length_a 8.811290
_cell_length_b 13.740918
_cell_length_c 24.044539
_cell_angle_alpha 90.000000
_cell_angle_beta 111.833056
_cell_angle_gamma 90.000000
_cell_volume 2702.381604
_symmetry_space_group_name_H-M "C 2/C"
_symmetry_group_IT_number 15
_symmetry_cell_setting 'monoclinic'
loop_
_space_group_symop_operation_xyz
x,y,z
-x,y,1/2-z
-x,-y,-z
x,-y,1/2+z
1/2+x,1/2+y,z
1/2-x,1/2+y,1/2-z
1/2-x,1/2-y,-z
1/2+x,1/2-y,1/2+z
loop_
_atom_site_type_symbol
_atom_site_label
_atom_site_fract_x
_atom_site_fract_y
_atom_site_fract_z
Si Si1 0.654836 0.124439 0.437249
Si Si2 0.819456 0.986127 0.369857
Si Si3 0.164559 0.013216 0.753495
Si Si4 0.205027 0.320254 0.171778
Si Si5 0.896868 0.698129 0.679134
Si Si6 0.841284 0.369678 0.840731
Si Si7 0.500000 0.183240 0.250000
Si Si8 0.153266 0.139266 0.925216
O O1 0.466539 0.092025 0.403581
O O2 0.734177 0.108420 0.507891
O O3 0.637719 0.242003 0.426501
O O4 0.768206 0.068521 0.407300
O O5 0.672512 0.908270 0.344447
O O6 0.985552 0.923614 0.404506
O O7 0.837699 0.024346 0.309119
O O8 0.186249 0.932962 0.803397
O O9 0.000000 0.066682 0.750000
O O10 0.300630 0.094370 0.782601
O O11 0.343448 0.245379 0.209567
O O12 0.257784 0.370282 0.121845
O O13 0.025888 0.274033 0.148366
O O14 0.734648 0.764486 0.658927
O O15 0.000000 0.714526 0.750000
O O16 0.944274 0.372874 0.797260
#
# Coordination Sequence:
#
# PCOD9305874 Si02
#       8
#     8   8   8   8   8   8   4   8
#     4  11  25  43  74 100 135 193 250 294 345 440
#     4  12  23  46  71 104 139 186 239 297 369 441
#     4  12  24  38  66 103 138 170 222 293 366 436
#     4  12  22  42  65  96 133 184 223 287 366 418
#     4  12  23  39  66  99 144 178 219 292 372 434
#     4  12  24  41  62 105 140 175 238 287 360 443
#     4  12  20  38  66  92 132 180 212 288 364 408
#     4  11  24  48  71  98 140 190 250 292 352 436
#
# _framework density 22.202639000000001
#
# number of rings (size 3 to 8) (size 9 to 14) (size 15 to 20)
#    0.000    0.267    7.333    2.400    0.000    0.000 
#    0.000    3.333    0.000    0.000    0.000    0.000 
#    0.000    0.000    0.000    0.000    0.000    0.000 
#
# Total GULP energy -167504.106530 kJ/mol
# GULP energy per Si atom -5583.470218 kJ/mol
# Density = 2.215210 g / cm^3
# Si number density = 22.202639 Si / 1000 Ang^3
#
#
#
# Elastic Constant Matrix: (Units=GPa)
#
#
# Indices 1 2 3 4 5 6 
#
# 1 121.2221 16.4140 54.2196 0.0000 14.5870 0.0000
# 2 16.4140 63.9545 28.6321 0.0000 9.5368 0.0000
# 3 54.2196 28.6321 149.8258 0.0000 23.3612 0.0000
# 4 0.0000 0.0000 0.0000 27.6691 0.0000 0.9062
# 5 14.5870 9.5368 23.3612 0.0000 29.5436 0.0000
# 6 0.0000 0.0000 0.0000 0.9062 0.0000 33.0017
#
#
#
# Elastic Compliance Matrix: (Units=1/GPa)
#
#
# Indices 1 2 3 4 5 6 
#
# 1 0.010026 -0.000846 -0.003122 0.000000 -0.002208 0.000000
# 2 -0.000846 0.017466 -0.002530 0.000000 -0.003220 0.000000
# 3 -0.003122 -0.002530 0.009034 0.000000 -0.004785 0.000000
# 4 0.000000 0.000000 0.000000 0.036174 0.000000 -0.000993
# 5 -0.002208 -0.003220 -0.004785 0.000000 0.039762 0.000000
# 6 0.000000 0.000000 0.000000 -0.000993 0.000000 0.030329
#
#
# Mechanical properties :
#
#
# Convention : Reuss Voigt Hill
#
# Bulk Modulus (GPa) = 42.49869 59.28151 50.89010
# Shear Modulus (GPa) = 30.55682 33.75867 32.15775
#
# Velocity S-wave (km/s) = 3.71384 3.90356 3.80988
# Velocity P-wave (km/s) = 6.12968 6.86114 6.50570
#
# Compressibility (1/GPa) = 0.02353014
#
# Stress axis : x y z
#
# Youngs Moduli (GPa) = 99.73933 57.25442 110.69485
#
# Poissons Ratio (x) = 0.04844 0.34562
# Poissons Ratio (y) = 0.08439 0.28000
# Poissons Ratio (z) = 0.31141 0.14483
#
# Static dielectric constant tensor:
#      x y z
#    x 1.872730 0.000000 0.023280 
#    y 0.000000 1.883960 0.000000 
#    z 0.023280 0.000000 1.806870 
# 
# From -- ./inp_files/264745.got.cif
#   From: 2010.05.17/outbox.cif.g08.bks.cpg/sg15_133_cif.got.tgz:264745.got - 2010.06.03 18:47:42.
