data_PCOD9305455
_publ_section_title
;
Structure prediction by ZEFSAII (Michael W. Deem and Ramdas Pophale) SiO2 
 PCOD9305455
Probable space group: C 2/C
;
_chemical_formula_sum "Si O2"
_cell_formula_units_Z 52
_cell_length_a 15.552641
_cell_length_b 18.535060
_cell_length_c 9.019195
_cell_angle_alpha 90.000000
_cell_angle_beta 107.497343
_cell_angle_gamma 90.000000
_cell_volume 2479.657916
_symmetry_space_group_name_H-M "C 2/C"
_symmetry_group_IT_number 15
_symmetry_cell_setting 'monoclinic'
loop_
_space_group_symop_operation_xyz
x,y,z
-x,y,1/2-z
-x,-y,-z
x,-y,1/2+z
1/2+x,1/2+y,z
1/2-x,1/2+y,1/2-z
1/2-x,1/2-y,-z
1/2+x,1/2-y,1/2+z
loop_
_atom_site_type_symbol
_atom_site_label
_atom_site_fract_x
_atom_site_fract_y
_atom_site_fract_z
Si Si1 0.898843 0.782208 0.755260
Si Si2 0.396184 0.568225 0.745165
Si Si3 0.000000 0.313272 0.750000
Si Si4 0.016564 0.416301 0.036941
Si Si5 0.838436 0.924334 0.549569
Si Si6 0.847224 0.213630 0.570554
Si Si7 0.851390 0.373171 0.160136
O O1 0.867772 0.854597 0.658267
O O2 0.892129 0.790877 0.929648
O O3 0.840210 0.712418 0.678464
O O4 0.000000 0.767104 0.750000
O O5 0.500000 0.574443 0.750000
O O6 0.356296 0.494605 0.657581
O O7 0.390818 0.569837 0.920412
O O8 0.343692 0.635788 0.645939
O O9 0.912381 0.262376 0.706556
O O10 0.986934 0.366037 0.606372
O O11 0.934786 0.387884 0.094875
O O12 0.112199 0.405220 0.166709
O O13 0.000000 0.500000 0.000000
O O14 0.735489 0.912168 0.448054
O O15 0.750000 0.250000 0.500000
#
# Coordination Sequence:
#
# PCOD9305455 Si02
#       7
#     8   8   4   8   8   8   8
#     4  12  23  48  71 103 141 189 240 291 359 429
#     4  12  26  49  69 105 141 189 237 295 365 414
#     4  12  24  46  72 102 146 184 236 302 350 412
#     4  11  25  44  71 100 143 190 227 284 361 423
#     4  12  28  43  76 101 144 185 241 299 346 426
#     4  12  27  44  76 108 142 187 243 296 358 428
#     4  11  24  45  68 104 141 183 236 282 355 427
#
# _framework density 20.970635999999999
#
# number of rings (size 3 to 8) (size 9 to 14) (size 15 to 20)
#    0.000    0.308    3.846    5.077    6.462    1.231 
#    0.000    0.000    0.000    0.000    0.000    0.000 
#    0.000    0.000    0.000    0.000    0.000    0.000 
#
# Total GULP energy -145558.861615 kJ/mol
# GULP energy per Si atom -5598.417754 kJ/mol
# Density = 2.092291 g / cm^3
# Si number density = 20.970636 Si / 1000 Ang^3
#
#
#
# Elastic Constant Matrix: (Units=GPa)
#
#
# Indices 1 2 3 4 5 6 
#
# 1 37.6024 -0.0095 -8.0272 0.0000 23.7453 0.0000
# 2 -0.0095 190.8910 41.7832 0.0000 16.0377 0.0000
# 3 -8.0272 41.7832 62.0430 0.0000 9.5857 0.0000
# 4 0.0000 0.0000 0.0000 54.0166 0.0000 1.2114
# 5 23.7453 16.0377 9.5857 0.0000 48.4725 0.0000
# 6 0.0000 0.0000 0.0000 1.2114 0.0000 22.1084
#
#
#
# Elastic Compliance Matrix: (Units=1/GPa)
#
#
# Indices 1 2 3 4 5 6 
#
# 1 0.042958 -0.000081 0.009139 0.000000 -0.022825 0.000000
# 2 -0.000081 0.006219 -0.004009 0.000000 -0.001225 0.000000
# 3 0.009139 -0.004009 0.021133 0.000000 -0.007329 0.000000
# 4 0.000000 0.000000 0.000000 0.018536 0.000000 -0.001016
# 5 -0.022825 -0.001225 -0.007329 0.000000 0.033666 0.000000
# 6 0.000000 0.000000 0.000000 -0.001016 0.000000 0.045287
#
#
# Mechanical properties :
#
#
# Convention : Reuss Voigt Hill
#
# Bulk Modulus (GPa) = 12.43665 39.78103 26.10884
# Shear Modulus (GPa) = 27.09960 42.03881 34.56921
#
# Velocity S-wave (km/s) = 3.59871 4.48219 4.06453
# Velocity P-wave (km/s) = 4.81778 6.76740 5.87404
#
# Compressibility (1/GPa) = 0.08040748
#
# Stress axis : x y z
#
# Youngs Moduli (GPa) = 23.27841 160.79409 47.31992
#
# Poissons Ratio (x) = 0.01295 -0.43244
# Poissons Ratio (y) = 0.00188 0.18973
# Poissons Ratio (z) = -0.21273 0.64469
#
# Static dielectric constant tensor:
#      x y z
#    x 1.750910 0.000000 -0.002990 
#    y 0.000000 1.738310 0.000000 
#    z -0.002990 0.000000 1.740850 
# 
# From -- ./inp_files/49227.got.cif
#   From: 2010.05.17/outbox.cif.g08.bks.cpg/sg15_25_cif.got.tgz:49227.got - 2010.06.03 18:47:42.
