data_PCOD9305527
_publ_section_title
;
Structure prediction by ZEFSAII (Michael W. Deem and Ramdas Pophale) SiO2 
 PCOD9305527
Probable space group: C 2/C
;
_chemical_formula_sum "Si O2"
_cell_formula_units_Z 40
_cell_length_a 23.779114
_cell_length_b 8.665009
_cell_length_c 9.157204
_cell_angle_alpha 90.000000
_cell_angle_beta 67.328918
_cell_angle_gamma 90.000000
_cell_volume 1741.018992
_symmetry_space_group_name_H-M "C 2/C"
_symmetry_group_IT_number 15
_symmetry_cell_setting 'monoclinic'
loop_
_space_group_symop_operation_xyz
x,y,z
-x,y,1/2-z
-x,-y,-z
x,-y,1/2+z
1/2+x,1/2+y,z
1/2-x,1/2+y,1/2-z
1/2-x,1/2-y,-z
1/2+x,1/2-y,1/2+z
loop_
_atom_site_type_symbol
_atom_site_label
_atom_site_fract_x
_atom_site_fract_y
_atom_site_fract_z
Si Si1 0.178298 0.372466 0.456455
Si Si2 0.005132 0.331951 0.918484
Si Si3 0.881858 0.305712 0.504098
Si Si4 0.105168 0.824591 0.814630
Si Si5 0.316949 0.630769 0.783107
O O1 0.134197 0.518398 0.515541
O O2 0.157206 0.284191 0.332299
O O3 0.247969 0.426479 0.374719
O O4 0.172766 0.251516 0.594833
O O5 0.000000 0.344353 0.750000
O O6 0.071103 0.284384 0.910717
O O7 0.953970 0.212829 0.028128
O O8 0.000000 0.500000 0.000000
O O9 0.909115 0.229370 0.333940
O O10 0.822091 0.220621 0.624351
O O11 0.134590 0.992868 0.774437
#
# Coordination Sequence:
#
# PCOD9305527 Si02
#       5
#     8   8   8   8   8
#     4  11  24  45  72 104 149 198 246 306 366 454
#     4  12  26  47  75 107 139 189 248 301 366 452
#     4  12  25  44  74 105 141 196 249 301 372 445
#     4  12  25  44  72 106 147 191 248 315 366 439
#     4  11  26  45  69 109 150 193 248 309 375 430
#
# _framework density 22.975051000000001
#
# number of rings (size 3 to 8) (size 9 to 14) (size 15 to 20)
#    0.000    0.400    2.000    6.600    0.000    7.200 
#    0.000    2.000    0.000    0.000    0.000    0.000 
#    0.000    0.000    0.000    0.000    0.000    0.000 
#
# Total GULP energy -111948.979697 kJ/mol
# GULP energy per Si atom -5597.448985 kJ/mol
# Density = 2.292276 g / cm^3
# Si number density = 22.975051 Si / 1000 Ang^3
#
#
#
# Elastic Constant Matrix: (Units=GPa)
#
#
# Indices 1 2 3 4 5 6 
#
# 1 116.3758 45.0483 41.5499 0.0000 -12.8470 0.0000
# 2 45.0483 125.4658 22.9476 0.0000 -14.4645 0.0000
# 3 41.5499 22.9476 138.0612 0.0000 6.8430 0.0000
# 4 0.0000 0.0000 0.0000 30.4751 0.0000 -10.9239
# 5 -12.8470 -14.4645 6.8430 0.0000 33.8640 0.0000
# 6 0.0000 0.0000 0.0000 -10.9239 0.0000 23.8785
#
#
#
# Elastic Compliance Matrix: (Units=1/GPa)
#
#
# Indices 1 2 3 4 5 6 
#
# 1 0.011270 -0.003074 -0.003058 0.000000 0.003580 0.000000
# 2 -0.003074 0.009581 -0.000820 0.000000 0.003092 0.000000
# 3 -0.003058 -0.000820 0.008460 0.000000 -0.003220 0.000000
# 4 0.000000 0.000000 0.000000 0.039250 0.000000 0.017956
# 5 0.003580 0.003092 -0.003220 0.000000 0.032859 0.000000
# 6 0.000000 0.000000 0.000000 0.017956 0.000000 0.050093
#
#
# Mechanical properties :
#
#
# Convention : Reuss Voigt Hill
#
# Bulk Modulus (GPa) = 64.91751 66.55492 65.73621
# Shear Modulus (GPa) = 29.31630 35.66734 32.49182
#
# Velocity S-wave (km/s) = 3.57600 3.94437 3.76469
# Velocity P-wave (km/s) = 6.73553 7.05516 6.89720
#
# Compressibility (1/GPa) = 0.01540416
#
# Stress axis : x y z
#
# Youngs Moduli (GPa) = 88.73076 104.37723 118.21020
#
# Poissons Ratio (x) = 0.32090 0.36151
# Poissons Ratio (y) = 0.27279 0.09698
# Poissons Ratio (z) = 0.27136 0.08563
#
# Static dielectric constant tensor:
#      x y z
#    x 1.917760 0.000000 -0.049110 
#    y 0.000000 1.875440 0.000000 
#    z -0.049110 0.000000 1.856990 
# 
# From -- ./inp_files/59922.got.cif
#   From: 2010.05.17/outbox.cif.g08.bks.cpg/sg15_30_cif.got.tgz:59922.got - 2010.06.03 18:47:42.
