data_PCOD9305620
_publ_section_title
;
Structure prediction by ZEFSAII (Michael W. Deem and Ramdas Pophale) SiO2 
 PCOD9305620
Probable space group: C 2/C
;
_chemical_formula_sum "Si O2"
_cell_formula_units_Z 48
_cell_length_a 28.830590
_cell_length_b 11.616982
_cell_length_c 14.497780
_cell_angle_alpha 90.000000
_cell_angle_beta 26.128584
_cell_angle_gamma 90.000000
_cell_volume 2138.370565
_symmetry_space_group_name_H-M "C 2/C"
_symmetry_group_IT_number 15
_symmetry_cell_setting 'monoclinic'
loop_
_space_group_symop_operation_xyz
x,y,z
-x,y,1/2-z
-x,-y,-z
x,-y,1/2+z
1/2+x,1/2+y,z
1/2-x,1/2+y,1/2-z
1/2-x,1/2-y,-z
1/2+x,1/2-y,1/2+z
loop_
_atom_site_type_symbol
_atom_site_label
_atom_site_fract_x
_atom_site_fract_y
_atom_site_fract_z
Si Si1 0.749736 0.067028 0.159192
Si Si2 0.356164 0.823637 0.814250
Si Si3 0.886791 0.451498 0.952243
Si Si4 0.533292 0.634835 0.452735
Si Si5 0.316896 0.265604 0.669987
Si Si6 0.393310 0.350931 0.879789
O O1 0.659671 0.090243 0.245170
O O2 0.807706 0.182699 0.084617
O O3 0.701440 0.029377 0.343963
O O4 0.836970 0.975565 0.974179
O O5 0.364361 0.901495 0.891231
O O6 0.444155 0.725723 0.642464
O O7 0.250000 0.750000 0.000000
O O8 0.000000 0.510904 0.750000
O O9 0.887969 0.347267 0.024961
O O10 0.500000 0.500000 0.500000
O O11 0.624931 0.649639 0.364277
O O12 0.574846 0.679892 0.280319
O O13 0.201343 0.226060 0.910163
O O14 0.500000 0.352802 0.750000
#
# Coordination Sequence:
#
# PCOD9305620 Si02
#       6
#     8   8   8   8   8   8
#     4  11  26  42  72 104 140 188 235 298 356 431
#     4  12  25  45  73 105 146 185 240 300 365 425
#     4  11  25  47  69 102 141 189 236 292 367 430
#     4  12  26  43  75 106 137 190 239 298 367 436
#     4  11  24  46  69  99 145 184 232 300 359 423
#     4  11  25  45  68 104 142 184 245 293 357 431
#
# _framework density 22.446997
#
# number of rings (size 3 to 8) (size 9 to 14) (size 15 to 20)
#    0.000    0.667    3.333    3.500    7.000    3.333 
#    0.000    0.000    0.000    0.000    0.000    0.000 
#    0.000    0.000    0.000    0.000    0.000    0.000 
#
# Total GULP energy -134057.404592 kJ/mol
# GULP energy per Si atom -5585.725191 kJ/mol
# Density = 2.239591 g / cm^3
# Si number density = 22.446997 Si / 1000 Ang^3
#
#
#
# Elastic Constant Matrix: (Units=GPa)
#
#
# Indices 1 2 3 4 5 6 
#
# 1 161.0326 35.8098 46.1863 0.0000 -7.7825 0.0000
# 2 35.8098 71.9153 17.9864 0.0000 -6.1306 0.0000
# 3 46.1863 17.9864 120.6807 0.0000 -5.4178 0.0000
# 4 0.0000 0.0000 0.0000 21.9826 0.0000 -1.1493
# 5 -7.7825 -6.1306 -5.4178 0.0000 40.3018 0.0000
# 6 0.0000 0.0000 0.0000 -1.1493 0.0000 34.1041
#
#
#
# Elastic Compliance Matrix: (Units=1/GPa)
#
#
# Indices 1 2 3 4 5 6 
#
# 1 0.007636 -0.003139 -0.002424 0.000000 0.000671 0.000000
# 2 -0.003139 0.015883 -0.001091 0.000000 0.001663 0.000000
# 3 -0.002424 -0.001091 0.009405 0.000000 0.000630 0.000000
# 4 0.000000 0.000000 0.000000 0.045571 0.000000 0.001536
# 5 0.000671 0.001663 0.000630 0.000000 0.025280 0.000000
# 6 0.000000 0.000000 0.000000 0.001536 0.000000 0.029374
#
#
# Mechanical properties :
#
#
# Convention : Reuss Voigt Hill
#
# Bulk Modulus (GPa) = 50.98136 61.51039 56.24587
# Shear Modulus (GPa) = 32.68081 36.18747 34.43414
#
# Velocity S-wave (km/s) = 3.81978 4.01949 3.92091
# Velocity P-wave (km/s) = 6.49734 7.00027 6.75349
#
# Compressibility (1/GPa) = 0.01961501
#
# Stress axis : x y z
#
# Youngs Moduli (GPa) = 130.96481 62.96117 106.32512
#
# Poissons Ratio (x) = 0.19761 0.25777
# Poissons Ratio (y) = 0.41104 0.11604
# Poissons Ratio (z) = 0.31751 0.06871
#
# Static dielectric constant tensor:
#      x y z
#    x 1.866420 0.000000 -0.019890 
#    y 0.000000 1.895680 0.000000 
#    z -0.019890 0.000000 1.836880 
# 
# From -- ./inp_files/177727.got.cif
#   From: 2010.05.17/outbox.cif.g08.bks.cpg/sg15_89_cif.got.tgz:177727.got - 2010.06.03 18:47:42.
