data_PCOD9305857
_publ_section_title
;
Structure prediction by ZEFSAII (Michael W. Deem and Ramdas Pophale) SiO2 
 PCOD9305857
Probable space group: C 2/C
;
_chemical_formula_sum "Si O2"
_cell_formula_units_Z 36
_cell_length_a 28.399440
_cell_length_b 6.651466
_cell_length_c 28.368378
_cell_angle_alpha 90.000000
_cell_angle_beta 160.379978
_cell_angle_gamma 90.000000
_cell_volume 1799.357478
_symmetry_space_group_name_H-M "C 2/C"
_symmetry_group_IT_number 15
_symmetry_cell_setting 'monoclinic'
loop_
_space_group_symop_operation_xyz
x,y,z
-x,y,1/2-z
-x,-y,-z
x,-y,1/2+z
1/2+x,1/2+y,z
1/2-x,1/2+y,1/2-z
1/2-x,1/2-y,-z
1/2+x,1/2-y,1/2+z
loop_
_atom_site_type_symbol
_atom_site_label
_atom_site_fract_x
_atom_site_fract_y
_atom_site_fract_z
Si Si1 0.000000 0.727271 0.750000
Si Si2 0.689573 0.132319 0.397852
Si Si3 0.986451 0.943354 0.155971
Si Si4 0.611217 0.524313 0.173004
Si Si5 0.406427 0.195593 0.420753
O O1 0.872647 0.578481 0.643053
O O2 0.022133 0.872204 0.815444
O O3 0.750000 0.250000 0.500000
O O4 0.566997 0.260963 0.257968
O O5 0.825161 0.109749 0.492436
O O6 0.072257 0.996258 0.190423
O O7 0.617559 0.313980 0.150767
O O8 0.758907 0.633054 0.303950
O O9 0.490877 0.656498 0.034745
O O10 0.500000 0.000000 0.500000
#
# Coordination Sequence:
#
# PCOD9305857 Si02
#       5
#     4   8   8   8   8
#     4  12  24  44  70  94 140 176 232 268 334 406
#     4  12  24  47  64  98 141 179 222 285 329 394
#     4  12  28  42  71 102 136 181 229 277 342 405
#     4  11  27  44  72 103 134 184 224 286 343 407
#     4  11  24  48  68  98 142 173 230 283 343 402
#
# _framework density 20.007141000000001
#
# number of rings (size 3 to 8) (size 9 to 14) (size 15 to 20)
#    0.000    0.444    6.667    0.667    6.222    1.778 
#    0.000    0.000    0.000    0.000    0.000    0.000 
#    0.000    0.000    0.000    0.000    0.000    0.000 
#
# Total GULP energy -100702.349237 kJ/mol
# GULP energy per Si atom -5594.574958 kJ/mol
# Density = 1.996160 g / cm^3
# Si number density = 20.007141 Si / 1000 Ang^3
#
#
#
# Elastic Constant Matrix: (Units=GPa)
#
#
# Indices 1 2 3 4 5 6 
#
# 1 154.0708 56.9216 54.4318 -0.0005 21.2020 -0.0002
# 2 56.9216 116.7257 48.5078 0.0006 17.3901 0.0008
# 3 54.4318 48.5078 119.2226 0.0001 38.5456 0.0002
# 4 -0.0005 0.0006 0.0001 38.4127 0.0000 14.9340
# 5 21.2020 17.3901 38.5456 0.0000 30.6878 0.0001
# 6 -0.0002 0.0008 0.0002 14.9340 0.0001 27.2316
#
#
#
# Elastic Compliance Matrix: (Units=1/GPa)
#
#
# Indices 1 2 3 4 5 6 
#
# 1 0.008601 -0.003059 -0.002225 0.000000 -0.001414 0.000000
# 2 -0.003059 0.011415 -0.003098 0.000000 -0.000464 0.000000
# 3 -0.002225 -0.003098 0.016163 0.000000 -0.017009 0.000000
# 4 0.000000 0.000000 0.000000 0.033088 0.000000 -0.018146
# 5 -0.001414 -0.000464 -0.017009 0.000000 0.055191 0.000000
# 6 0.000000 0.000000 0.000000 -0.018146 0.000000 0.046673
#
#
# Mechanical properties :
#
#
# Convention : Reuss Voigt Hill
#
# Bulk Modulus (GPa) = 51.50426 78.86015 65.18220
# Shear Modulus (GPa) = 25.72444 34.61026 30.16735
#
# Velocity S-wave (km/s) = 3.58964 4.16371 3.88729
# Velocity P-wave (km/s) = 6.55588 7.91309 7.26624
#
# Compressibility (1/GPa) = 0.01941587
#
# Stress axis : x y z
#
# Youngs Moduli (GPa) = 116.25929 87.60090 61.86939
#
# Poissons Ratio (x) = 0.26798 0.13767
# Poissons Ratio (y) = 0.35565 0.19166
# Poissons Ratio (z) = 0.25869 0.27137
#
# Static dielectric constant tensor:
#      x y z
#    x 1.677900 0.000000 0.018440 
#    y 0.000000 1.698180 0.000000 
#    z 0.018440 0.000000 1.713590 
# 
# From -- ./inp_files/120551.got.cif
#   From: 2010.05.17/outbox.cif.g08.bks.cpg/sg15_61_cif.got.tgz:120551.got - 2010.06.03 18:47:42.
