data_PCOD9305376
_publ_section_title
;
Structure prediction by ZEFSAII (Michael W. Deem and Ramdas Pophale) SiO2 
 PCOD9305376
Probable space group: C 2/C
;
_chemical_formula_sum "Si O2"
_cell_formula_units_Z 40
_cell_length_a 16.768022
_cell_length_b 11.808743
_cell_length_c 10.815096
_cell_angle_alpha 90.000000
_cell_angle_beta 48.070461
_cell_angle_gamma 90.000000
_cell_volume 1593.197591
_symmetry_space_group_name_H-M "C 2/C"
_symmetry_group_IT_number 15
_symmetry_cell_setting 'monoclinic'
loop_
_space_group_symop_operation_xyz
x,y,z
-x,y,1/2-z
-x,-y,-z
x,-y,1/2+z
1/2+x,1/2+y,z
1/2-x,1/2+y,1/2-z
1/2-x,1/2-y,-z
1/2+x,1/2-y,1/2+z
loop_
_atom_site_type_symbol
_atom_site_label
_atom_site_fract_x
_atom_site_fract_y
_atom_site_fract_z
Si Si1 0.237174 0.466963 0.902493
Si Si2 0.089392 0.902332 0.397275
Si Si3 0.458305 0.204838 0.428209
Si Si4 0.789659 0.715614 0.787045
Si Si5 0.110854 0.500416 0.276255
O O1 0.340132 0.546499 0.786203
O O2 0.270705 0.334405 0.873129
O O3 0.179206 0.469149 0.827690
O O4 0.169286 0.520102 0.084564
O O5 0.026810 0.787580 0.442363
O O6 0.182481 0.862257 0.397660
O O7 0.000000 0.000000 0.500000
O O8 0.500000 0.239185 0.250000
O O9 0.335561 0.228096 0.597713
O O10 0.505842 0.077497 0.392145
O O11 0.887577 0.636593 0.733076
#
# Coordination Sequence:
#
# PCOD9305376 Si02
#       5
#     8   8   8   8   8
#     4  11  24  45  76 108 147 196 247 305 366 447
#     4  11  24  44  72 104 147 192 251 302 370 441
#     4  12  25  43  73 109 146 199 247 311 366 444
#     4  11  24  45  72 105 150 194 248 305 376 442
#     4  11  25  46  72 107 150 190 249 302 371 436
#
# _framework density 25.106742000000001
#
# number of rings (size 3 to 8) (size 9 to 14) (size 15 to 20)
#    0.000    0.800    4.000    3.600    2.800    1.600 
#    0.000    0.000    0.000    0.000    0.000    0.000 
#    0.000    0.000    0.000    0.000    0.000    0.000 
#
# Total GULP energy -111440.415758 kJ/mol
# GULP energy per Si atom -5572.020788 kJ/mol
# Density = 2.504960 g / cm^3
# Si number density = 25.106742 Si / 1000 Ang^3
#
#
#
# Elastic Constant Matrix: (Units=GPa)
#
#
# Indices 1 2 3 4 5 6 
#
# 1 73.8926 33.5096 53.9187 0.0000 -8.0744 0.0000
# 2 33.5096 149.8725 40.1349 0.0000 -27.0130 0.0000
# 3 53.9187 40.1349 149.2132 0.0000 -13.0216 0.0000
# 4 0.0000 0.0000 0.0000 54.9411 0.0000 -14.2223
# 5 -8.0744 -27.0130 -13.0216 0.0000 36.0707 0.0000
# 6 0.0000 0.0000 0.0000 -14.2223 0.0000 35.0880
#
#
#
# Elastic Compliance Matrix: (Units=1/GPa)
#
#
# Indices 1 2 3 4 5 6 
#
# 1 0.019301 -0.002621 -0.006261 0.000000 0.000097 0.000000
# 2 -0.002621 0.008469 -0.000855 0.000000 0.005447 0.000000
# 3 -0.006261 -0.000855 0.009309 0.000000 0.001319 0.000000
# 4 0.000000 0.000000 0.000000 0.020335 0.000000 0.008242
# 5 0.000097 0.005447 0.001319 0.000000 0.032300 0.000000
# 6 0.000000 0.000000 0.000000 0.008242 0.000000 0.031841
#
#
# Mechanical properties :
#
#
# Convention : Reuss Voigt Hill
#
# Bulk Modulus (GPa) = 56.80434 69.78941 63.29687
# Shear Modulus (GPa) = 34.03693 41.58098 37.80895
#
# Velocity S-wave (km/s) = 3.68596 4.07402 3.88484
# Velocity P-wave (km/s) = 6.38665 7.07019 6.73710
#
# Compressibility (1/GPa) = 0.01760429
#
# Stress axis : x y z
#
# Youngs Moduli (GPa) = 51.81057 118.07381 107.41825
#
# Poissons Ratio (x) = 0.30951 0.67254
# Poissons Ratio (y) = 0.13581 0.09189
# Poissons Ratio (z) = 0.32438 0.10101
#
# Static dielectric constant tensor:
#      x y z
#    x 2.068350 0.000000 0.099460 
#    y 0.000000 2.046790 0.000000 
#    z 0.099460 0.000000 2.157920 
# 
# From -- ./inp_files/111360.got.cif
#   From: 2010.05.17/outbox.cif.g08.bks.cpg/sg15_56_cif.got.tgz:111360.got - 2010.06.03 18:47:42.
