data_PCOD9305563
_publ_section_title
;
Structure prediction by ZEFSAII (Michael W. Deem and Ramdas Pophale) SiO2 
 PCOD9305563
Probable space group: C 2/C
;
_chemical_formula_sum "Si O2"
_cell_formula_units_Z 48
_cell_length_a 9.215446
_cell_length_b 20.343823
_cell_length_c 12.102912
_cell_angle_alpha 90.000000
_cell_angle_beta 63.074534
_cell_angle_gamma 90.000000
_cell_volume 2023.052181
_symmetry_space_group_name_H-M "C 2/C"
_symmetry_group_IT_number 15
_symmetry_cell_setting 'monoclinic'
loop_
_space_group_symop_operation_xyz
x,y,z
-x,y,1/2-z
-x,-y,-z
x,-y,1/2+z
1/2+x,1/2+y,z
1/2-x,1/2+y,1/2-z
1/2-x,1/2-y,-z
1/2+x,1/2-y,1/2+z
loop_
_atom_site_type_symbol
_atom_site_label
_atom_site_fract_x
_atom_site_fract_y
_atom_site_fract_z
Si Si1 0.500000 0.487773 0.750000
Si Si2 0.500000 0.004758 0.750000
Si Si3 0.000000 0.763151 0.750000
Si Si4 0.199824 0.882057 0.585429
Si Si5 0.475061 0.106897 0.441159
Si Si6 0.000000 0.289986 0.750000
Si Si7 0.766516 0.687803 0.666116
Si Si8 0.344460 0.420018 0.139074
O O1 0.649676 0.437827 0.690217
O O2 0.526474 0.532925 0.846758
O O3 0.535157 0.957951 0.630360
O O4 0.335513 0.046805 0.788774
O O5 0.866727 0.812054 0.851273
O O6 0.916151 0.719720 0.683360
O O7 0.391503 0.892966 0.508165
O O8 0.117839 0.902180 0.499233
O O9 0.544041 0.162468 0.335037
O O10 0.316594 0.136584 0.553587
O O11 0.152849 0.246149 0.663645
O O12 0.663929 0.647259 0.790651
#
# Coordination Sequence:
#
# PCOD9305563 Si02
#       8
#     4   4   4   8   8   4   8   8
#     4  11  25  48  66 106 143 183 230 288 350 417
#     4  11  25  46  72 102 141 185 240 284 348 417
#     4  11  25  46  72 102 141 185 240 284 348 417
#     4  11  24  45  75 100 140 189 230 291 346 410
#     4  11  24  45  75 100 140 189 230 291 346 410
#     4  11  25  48  66 106 143 183 230 288 350 417
#     4  12  26  44  71 104 139 184 233 290 348 412
#     4  12  26  44  71 104 139 184 233 290 348 412
#
# _framework density 23.726524999999999
#
# number of rings (size 3 to 8) (size 9 to 14) (size 15 to 20)
#    0.000    0.667    3.333    4.000    4.667    2.667 
#    6.000    0.000    0.000    0.000    0.000    0.000 
#    0.000    0.000    0.000    0.000    0.000    0.000 
#
# Total GULP energy -134289.387791 kJ/mol
# GULP energy per Si atom -5595.391158 kJ/mol
# Density = 2.367252 g / cm^3
# Si number density = 23.726525 Si / 1000 Ang^3
#
#
#
# Elastic Constant Matrix: (Units=GPa)
#
#
# Indices 1 2 3 4 5 6 
#
# 1 46.0474 7.0847 -20.1866 0.0000 0.0635 0.0000
# 2 7.0847 84.7059 6.4376 0.0000 9.7323 0.0000
# 3 -20.1866 6.4376 62.3969 0.0000 15.1423 0.0000
# 4 0.0000 0.0000 0.0000 40.6056 0.0000 -8.0756
# 5 0.0635 9.7323 15.1423 0.0000 24.6493 0.0000
# 6 0.0000 0.0000 0.0000 -8.0756 0.0000 13.6436
#
#
#
# Elastic Compliance Matrix: (Units=1/GPa)
#
#
# Indices 1 2 3 4 5 6 
#
# 1 0.026528 -0.002373 0.010126 0.000000 -0.005352 0.000000
# 2 -0.002373 0.012580 -0.001013 0.000000 -0.004338 0.000000
# 3 0.010126 -0.001013 0.022700 0.000000 -0.013571 0.000000
# 4 0.000000 0.000000 0.000000 0.027913 0.000000 0.016521
# 5 -0.005352 -0.004338 -0.013571 0.000000 0.050633 0.000000
# 6 0.000000 0.000000 0.000000 0.016521 0.000000 0.083073
#
#
# Mechanical properties :
#
#
# Convention : Reuss Voigt Hill
#
# Bulk Modulus (GPa) = 13.28240 19.98019 16.63129
# Shear Modulus (GPa) = 21.27264 29.10068 25.18666
#
# Velocity S-wave (km/s) = 2.99754 3.50595 3.26166
# Velocity P-wave (km/s) = 4.19411 4.98279 4.60537
#
# Compressibility (1/GPa) = 0.07528762
#
# Stress axis : x y z
#
# Youngs Moduli (GPa) = 37.69540 79.49440 44.05227
#
# Poissons Ratio (x) = 0.18868 -0.44608
# Poissons Ratio (y) = 0.08947 0.04462
# Poissons Ratio (z) = -0.38171 0.08052
#
# Static dielectric constant tensor:
#      x y z
#    x 1.975550 0.000000 0.004500 
#    y 0.000000 1.857400 0.000000 
#    z 0.004500 0.000000 1.880240 
# 
# From -- ./inp_files/79837.got.cif
#   From: 2010.05.17/outbox.cif.g08.bks.cpg/sg15_40_cif.got.tgz:79837.got - 2010.06.03 18:47:42.
