data_PCOD9305823
_publ_section_title
;
Structure prediction by ZEFSAII (Michael W. Deem and Ramdas Pophale) SiO2 
 PCOD9305823
Probable space group: C 2/C
;
_chemical_formula_sum "Si O2"
_cell_formula_units_Z 48
_cell_length_a 14.406411
_cell_length_b 25.103615
_cell_length_c 8.688610
_cell_angle_alpha 90.000000
_cell_angle_beta 44.188413
_cell_angle_gamma 90.000000
_cell_volume 2190.219677
_symmetry_space_group_name_H-M "C 2/C"
_symmetry_group_IT_number 15
_symmetry_cell_setting 'monoclinic'
loop_
_space_group_symop_operation_xyz
x,y,z
-x,y,1/2-z
-x,-y,-z
x,-y,1/2+z
1/2+x,1/2+y,z
1/2-x,1/2+y,1/2-z
1/2-x,1/2-y,-z
1/2+x,1/2-y,1/2+z
loop_
_atom_site_type_symbol
_atom_site_label
_atom_site_fract_x
_atom_site_fract_y
_atom_site_fract_z
Si Si1 0.132528 0.559123 0.483621
Si Si2 0.000000 0.037146 0.750000
Si Si3 0.740320 0.477653 0.376434
Si Si4 0.879807 0.226461 0.764084
Si Si5 0.060399 0.323820 0.006866
Si Si6 0.500000 0.866005 0.750000
Si Si7 0.216735 0.107989 0.663575
O O1 0.149049 0.518580 0.321428
O O2 0.242779 0.535033 0.465178
O O3 0.147832 0.621579 0.422551
O O4 0.000000 0.556136 0.750000
O O5 0.105225 0.073791 0.712055
O O6 0.094690 0.002019 0.530121
O O7 0.750127 0.421127 0.282121
O O8 0.893852 0.265079 0.599337
O O9 0.842097 0.167014 0.759064
O O10 0.000000 0.226431 0.750000
O O11 0.750000 0.250000 0.000000
O O12 0.982930 0.337058 0.936935
O O13 0.000000 0.318954 0.250000
O O14 0.642300 0.893807 0.592670
#
# Coordination Sequence:
#
# PCOD9305823 Si02
#       7
#     8   4   8   8   8   4   8
#     4  11  25  43  74 112 147 196 257 312 382 445
#     4  12  26  49  68 110 158 195 254 302 384 466
#     4  12  26  46  71 107 156 202 246 317 376 463
#     4  12  25  48  77 108 147 204 252 310 388 454
#     4  11  24  47  75 114 150 191 256 323 371 450
#     4  12  24  49  80 104 154 193 250 324 376 452
#     4  12  25  45  79 108 147 202 254 307 385 456
#
# _framework density 21.915609
#
# number of rings (size 3 to 8) (size 9 to 14) (size 15 to 20)
#    0.000    0.333    5.000    4.000    1.167    0.000 
#    1.500    5.833    0.000    0.000    0.000    0.000 
#    0.000    0.000    0.000    0.000    0.000    0.000 
#
# Total GULP energy -133713.653982 kJ/mol
# GULP energy per Si atom -5571.402249 kJ/mol
# Density = 2.186573 g / cm^3
# Si number density = 21.915609 Si / 1000 Ang^3
#
#
#
# Elastic Constant Matrix: (Units=GPa)
#
#
# Indices 1 2 3 4 5 6 
#
# 1 82.9171 49.8556 46.2077 0.0000 9.6195 0.0000
# 2 49.8556 198.2600 62.6283 0.0000 10.8534 0.0000
# 3 46.2077 62.6283 126.2164 0.0000 6.5229 0.0000
# 4 0.0000 0.0000 0.0000 2.1417 0.0000 7.6934
# 5 9.6195 10.8534 6.5229 0.0000 52.6922 0.0000
# 6 0.0000 0.0000 0.0000 7.6934 0.0000 36.6843
#
#
#
# Elastic Compliance Matrix: (Units=1/GPa)
#
#
# Indices 1 2 3 4 5 6 
#
# 1 0.016401 -0.002555 -0.004639 0.000000 -0.001894 0.000000
# 2 -0.002555 0.006419 -0.002220 0.000000 -0.000581 0.000000
# 3 -0.004639 -0.002220 0.010724 0.000000 -0.000023 0.000000
# 4 0.000000 0.000000 0.000000 1.892937 0.000000 -0.396984
# 5 -0.001894 -0.000581 -0.000023 0.000000 0.019446 0.000000
# 6 0.000000 0.000000 0.000000 -0.396984 0.000000 0.110515
#
#
# Mechanical properties :
#
#
# Convention : Reuss Voigt Hill
#
# Bulk Modulus (GPa) = 67.94892 80.53075 74.23983
# Shear Modulus (GPa) = 2.40364 34.88379 18.64372
#
# Velocity S-wave (km/s) = 1.04841 3.99398 2.91985
# Velocity P-wave (km/s) = 5.70418 7.62199 6.73173
#
# Compressibility (1/GPa) = 0.01471694
#
# Stress axis : x y z
#
# Youngs Moduli (GPa) = 60.97018 155.77561 93.25072
#
# Poissons Ratio (x) = 0.39807 0.43256
# Poissons Ratio (y) = 0.15580 0.20700
# Poissons Ratio (z) = 0.28282 0.34579
#
# Static dielectric constant tensor:
#      x y z
#    x 1.863250 0.000000 0.030470 
#    y 0.000000 1.849340 0.000000 
#    z 0.030470 0.000000 1.843670 
# 
# From -- ./inp_files/43859.got.cif
#   From: 2010.05.17/outbox.cif.g08.bks.cpg/sg15_22_cif.got.tgz:43859.got - 2010.06.03 18:47:42.
