data_PCOD9305977
_publ_section_title
;
Structure prediction by ZEFSAII (Michael W. Deem and Ramdas Pophale) SiO2 
 PCOD9305977
Probable space group: C 2/C
;
_chemical_formula_sum "Si O2"
_cell_formula_units_Z 32
_cell_length_a 14.057451
_cell_length_b 10.459673
_cell_length_c 12.737813
_cell_angle_alpha 90.000000
_cell_angle_beta 39.120351
_cell_angle_gamma 90.000000
_cell_volume 1181.722411
_symmetry_space_group_name_H-M "C 2/C"
_symmetry_group_IT_number 15
_symmetry_cell_setting 'monoclinic'
loop_
_space_group_symop_operation_xyz
x,y,z
-x,y,1/2-z
-x,-y,-z
x,-y,1/2+z
1/2+x,1/2+y,z
1/2-x,1/2+y,1/2-z
1/2-x,1/2-y,-z
1/2+x,1/2-y,1/2+z
loop_
_atom_site_type_symbol
_atom_site_label
_atom_site_fract_x
_atom_site_fract_y
_atom_site_fract_z
Si Si1 0.390692 0.532280 0.744880
Si Si2 0.446576 0.704483 0.503195
Si Si3 0.827001 0.384834 0.915040
Si Si4 0.368618 0.124150 0.773202
O O1 0.500000 0.550277 0.750000
O O2 0.411924 0.650103 0.647584
O O3 0.448229 0.403518 0.641177
O O4 0.226665 0.532857 0.938336
O O5 0.543148 0.832086 0.406387
O O6 0.283162 0.707796 0.587747
O O7 0.798526 0.481114 0.841402
O O8 0.000000 0.359334 0.750000
O O9 0.750000 0.250000 0.000000
O O10 0.500000 0.138183 0.750000
#
# Coordination Sequence:
#
# PCOD9305977 Si02
#       4
#     8   8   8   8
#     4  11  24  50  77 109 163 208 256 333 395 465
#     4  11  26  45  80 118 158 204 265 325 406 464
#     4  11  26  46  76 107 153 210 261 321 395 462
#     4  11  25  47  80 118 155 207 263 326 392 473
#
# _framework density 27.079115999999999
#
# number of rings (size 3 to 8) (size 9 to 14) (size 15 to 20)
#    0.000    1.000    2.500    2.250    7.000    4.000 
#    0.000    6.250    0.000    0.000    0.000    0.000 
#    0.000    0.000    0.000    0.000    0.000    0.000 
#
# Total GULP energy -89531.696820 kJ/mol
# GULP energy per Si atom -5595.731051 kJ/mol
# Density = 2.701748 g / cm^3
# Si number density = 27.079116 Si / 1000 Ang^3
#
#
#
# Elastic Constant Matrix: (Units=GPa)
#
#
# Indices 1 2 3 4 5 6 
#
# 1 107.9539 26.5267 44.5525 0.0000 1.1502 0.0000
# 2 26.5267 126.2104 83.0251 0.0000 -4.5011 0.0000
# 3 44.5525 83.0251 239.8641 0.0000 -22.6452 0.0000
# 4 0.0000 0.0000 0.0000 73.5707 0.0000 -2.4429
# 5 1.1502 -4.5011 -22.6452 0.0000 44.7353 0.0000
# 6 0.0000 0.0000 0.0000 -2.4429 0.0000 29.5391
#
#
#
# Elastic Compliance Matrix: (Units=1/GPa)
#
#
# Indices 1 2 3 4 5 6 
#
# 1 0.010222 -0.001124 -0.001623 0.000000 -0.001197 0.000000
# 2 -0.001124 0.010410 -0.003458 0.000000 -0.000674 0.000000
# 3 -0.001623 -0.003458 0.005922 0.000000 0.002691 0.000000
# 4 0.000000 0.000000 0.000000 0.013630 0.000000 0.001127
# 5 -0.001197 -0.000674 0.002691 0.000000 0.023679 0.000000
# 6 0.000000 0.000000 0.000000 0.001127 0.000000 0.033947
#
#
# Mechanical properties :
#
#
# Convention : Reuss Voigt Hill
#
# Bulk Modulus (GPa) = 70.69954 86.91521 78.80737
# Shear Modulus (GPa) = 43.50352 50.89731 47.20041
#
# Velocity S-wave (km/s) = 4.01251 4.34011 4.17952
# Velocity P-wave (km/s) = 6.90160 7.56848 7.24272
#
# Compressibility (1/GPa) = 0.01414436
#
# Stress axis : x y z
#
# Youngs Moduli (GPa) = 97.83055 96.05782 168.87442
#
# Poissons Ratio (x) = 0.10793 0.27403
# Poissons Ratio (y) = 0.10992 0.58403
# Poissons Ratio (z) = 0.15875 0.33220
#
# Static dielectric constant tensor:
#      x y z
#    x 2.186030 0.000000 -0.034260 
#    y 0.000000 2.193800 0.000000 
#    z -0.034260 0.000000 2.063660 
# 
# From -- ./inp_files/160639.got.cif
#   From: 2010.05.17/outbox.cif.g08.bks.cpg/sg15_81_cif.got.tgz:160639.got - 2010.06.03 18:47:42.
