data_PCOD9305266
_publ_section_title
;
Structure prediction by ZEFSAII (Michael W. Deem and Ramdas Pophale) SiO2 
 PCOD9305266
Probable space group: C 2/C
;
_chemical_formula_sum "Si O2"
_cell_formula_units_Z 40
_cell_length_a 21.627381
_cell_length_b 10.862523
_cell_length_c 11.629176
_cell_angle_alpha 90.000000
_cell_angle_beta 39.220102
_cell_angle_gamma 90.000000
_cell_volume 1727.458231
_symmetry_space_group_name_H-M "C 2/C"
_symmetry_group_IT_number 15
_symmetry_cell_setting 'monoclinic'
loop_
_space_group_symop_operation_xyz
x,y,z
-x,y,1/2-z
-x,-y,-z
x,-y,1/2+z
1/2+x,1/2+y,z
1/2-x,1/2+y,1/2-z
1/2-x,1/2-y,-z
1/2+x,1/2-y,1/2+z
loop_
_atom_site_type_symbol
_atom_site_label
_atom_site_fract_x
_atom_site_fract_y
_atom_site_fract_z
Si Si1 0.021488 0.662237 0.026728
Si Si2 0.217005 0.874729 0.978894
Si Si3 0.500000 0.040844 0.750000
Si Si4 0.647699 0.206407 0.412178
Si Si5 0.500000 0.353565 0.250000
Si Si6 0.730688 0.864385 0.110730
O O1 0.991377 0.546224 0.149923
O O2 0.937571 0.707314 0.061184
O O3 0.038443 0.769212 0.092409
O O4 0.123691 0.639379 0.819039
O O5 0.262250 0.856859 0.785573
O O6 0.260062 0.002914 0.960992
O O7 0.250000 0.750000 0.000000
O O8 0.101787 0.906345 0.147836
O O9 0.593520 0.126356 0.588514
O O10 0.689074 0.333961 0.403970
O O11 0.750000 0.750000 0.000000
#
# Coordination Sequence:
#
# PCOD9305266 Si02
#       6
#     8   8   4   8   4   8
#     4  11  24  46  75 114 147 210 261 315 375 472
#     4  12  27  50  79 113 154 208 255 316 396 468
#     4  11  24  43  80 108 156 200 272 314 372 468
#     4  12  25  45  75 112 152 197 263 326 378 443
#     4  11  24  47  76 110 156 196 254 318 398 456
#     4  12  29  48  76 116 157 201 262 325 386 458
#
# _framework density 23.155408000000001
#
# number of rings (size 3 to 8) (size 9 to 14) (size 15 to 20)
#    0.000    0.400    6.000    1.800    2.800    4.000 
#    0.000    2.000    0.000    0.000    0.000    0.000 
#    0.000    0.000    0.000    0.000    0.000    0.000 
#
# Total GULP energy -111693.470140 kJ/mol
# GULP energy per Si atom -5584.673507 kJ/mol
# Density = 2.310271 g / cm^3
# Si number density = 23.155408 Si / 1000 Ang^3
#
#
#
# Elastic Constant Matrix: (Units=GPa)
#
#
# Indices 1 2 3 4 5 6 
#
# 1 114.9541 33.9852 38.3309 0.0000 -19.7406 0.0000
# 2 33.9852 116.3224 49.9978 0.0000 -0.2524 0.0000
# 3 38.3309 49.9978 173.4633 0.0000 -19.1605 0.0000
# 4 0.0000 0.0000 0.0000 -63.1491 0.0000 -6.3930
# 5 -19.7406 -0.2524 -19.1605 0.0000 45.3263 0.0000
# 6 0.0000 0.0000 0.0000 -6.3930 0.0000 40.6878
#
#
#
# Elastic Compliance Matrix: (Units=1/GPa)
#
#
# Indices 1 2 3 4 5 6 
#
# 1 0.010545 -0.002585 -0.001132 0.000000 0.004100 0.000000
# 2 -0.002585 0.010509 -0.002702 0.000000 -0.002210 0.000000
# 3 -0.001132 -0.002702 0.007068 0.000000 0.002480 0.000000
# 4 0.000000 0.000000 0.000000 -0.015588 0.000000 -0.002449
# 5 0.004100 -0.002210 0.002480 0.000000 0.024884 0.000000
# 6 0.000000 0.000000 0.000000 -0.002449 0.000000 0.024193
#
#
# Mechanical properties :
#
#
# Convention : Reuss Voigt Hill
#
# Bulk Modulus (GPa) = 65.43265 72.15196 68.79230
# Shear Modulus (GPa) = 62.85950 23.40139 43.13044
#
# Velocity S-wave (km/s) = 5.21591 3.18248 4.32053
# Velocity P-wave (km/s) = 8.03702 6.68818 7.39342
#
# Compressibility (1/GPa) = 0.01528289
#
# Stress axis : x y z
#
# Youngs Moduli (GPa) = 94.83192 95.16025 141.48893
#
# Poissons Ratio (x) = 0.24602 0.16019
# Poissons Ratio (y) = 0.24517 0.38226
# Poissons Ratio (z) = 0.10736 0.25709
#
# Static dielectric constant tensor:
#      x y z
#    x 2.427960 0.000000 -0.162620 
#    y 0.000000 1.885850 0.000000 
#    z -0.162620 0.000000 1.943220 
# 
# From -- ./inp_files/117413.got.cif
#   From: 2010.05.17/outbox.cif.g08.bks.cpg/sg15_59_cif.got.tgz:117413.got - 2010.06.03 18:47:42.
