data_PCOD9305528
_publ_section_title
;
Structure prediction by ZEFSAII (Michael W. Deem and Ramdas Pophale) SiO2 
 PCOD9305528
Probable space group: C 2/C
;
_chemical_formula_sum "Si O2"
_cell_formula_units_Z 56
_cell_length_a 13.458684
_cell_length_b 14.744372
_cell_length_c 18.652483
_cell_angle_alpha 90.000000
_cell_angle_beta 40.406955
_cell_angle_gamma 90.000000
_cell_volume 2399.290429
_symmetry_space_group_name_H-M "C 2/C"
_symmetry_group_IT_number 15
_symmetry_cell_setting 'monoclinic'
loop_
_space_group_symop_operation_xyz
x,y,z
-x,y,1/2-z
-x,-y,-z
x,-y,1/2+z
1/2+x,1/2+y,z
1/2-x,1/2+y,1/2-z
1/2-x,1/2-y,-z
1/2+x,1/2-y,1/2+z
loop_
_atom_site_type_symbol
_atom_site_label
_atom_site_fract_x
_atom_site_fract_y
_atom_site_fract_z
Si Si1 0.592857 0.897152 0.868408
Si Si2 0.805215 0.954674 0.290926
Si Si3 0.310063 0.838860 0.927711
Si Si4 0.643268 0.502162 0.570044
Si Si5 0.246044 0.739626 0.186259
Si Si6 0.083260 0.276192 0.002045
Si Si7 0.644292 0.150478 0.621168
O O1 0.443828 0.884131 0.901474
O O2 0.705453 0.819260 0.777076
O O3 0.573533 0.868107 0.961392
O O4 0.200655 0.845899 0.216121
O O5 0.803397 0.975638 0.377427
O O6 0.666141 0.004083 0.327135
O O7 0.959987 0.003446 0.177627
O O8 0.342828 0.807212 0.830051
O O9 0.250000 0.750000 0.000000
O O10 0.175343 0.911239 0.003504
O O11 0.743479 0.423688 0.477894
O O12 0.424525 0.728829 0.069857
O O13 0.076706 0.296020 0.090165
O O14 0.236846 0.218301 0.904527
O O15 0.500000 0.120661 0.750000
#
# Coordination Sequence:
#
# PCOD9305528 Si02
#       7
#     8   8   8   8   8   8   8
#     4  12  25  45  75 109 146 197 260 308 379 463
#     4  11  25  45  78 109 148 203 258 307 390 465
#     4  12  24  45  71 104 150 196 252 313 381 450
#     4  11  24  45  72 104 152 196 254 311 384 457
#     4  12  26  46  74 109 151 200 253 320 385 454
#     4  11  24  45  73 102 147 195 255 307 386 450
#     4  11  25  46  72 109 150 198 250 322 385 453
#
# _framework density 23.340233999999999
#
# number of rings (size 3 to 8) (size 9 to 14) (size 15 to 20)
#    0.000    0.571    4.286    3.000    4.000    3.429 
#    2.571    1.429    0.000    0.000    0.000    0.000 
#    0.000    0.000    0.000    0.000    0.000    0.000 
#
# Total GULP energy -156522.595612 kJ/mol
# GULP energy per Si atom -5590.092700 kJ/mol
# Density = 2.328711 g / cm^3
# Si number density = 23.340234 Si / 1000 Ang^3
#
#
#
# Elastic Constant Matrix: (Units=GPa)
#
#
# Indices 1 2 3 4 5 6 
#
# 1 109.9120 39.9056 37.8545 -0.0001 -14.9038 0.0000
# 2 39.9056 91.0400 54.2940 -0.0001 0.5390 0.0000
# 3 37.8545 54.2940 124.9451 -0.0003 -14.1355 0.0002
# 4 -0.0001 -0.0001 -0.0003 16.6235 0.0002 3.4933
# 5 -14.9038 0.5390 -14.1355 0.0002 28.6046 -0.0001
# 6 0.0000 0.0000 0.0002 3.4933 -0.0001 27.5107
#
#
#
# Elastic Compliance Matrix: (Units=1/GPa)
#
#
# Indices 1 2 3 4 5 6 
#
# 1 0.011915 -0.004724 -0.000895 0.000000 0.005855 0.000000
# 2 -0.004724 0.017072 -0.006675 0.000000 -0.006082 0.000000
# 3 -0.000895 -0.006675 0.011796 0.000000 0.005489 0.000000
# 4 0.000000 0.000000 0.000000 0.061805 0.000000 -0.007848
# 5 0.005855 -0.006082 0.005489 0.000000 0.040837 0.000000
# 6 0.000000 0.000000 0.000000 -0.007848 0.000000 0.037346
#
#
# Mechanical properties :
#
#
# Convention : Reuss Voigt Hill
#
# Bulk Modulus (GPa) = 61.74570 65.55614 63.65092
# Shear Modulus (GPa) = 23.72388 27.47064 25.59726
#
# Velocity S-wave (km/s) = 3.19162 3.43441 3.31524
# Velocity P-wave (km/s) = 6.33198 6.62383 6.47955
#
# Compressibility (1/GPa) = 0.01619546
#
# Stress axis : x y z
#
# Youngs Moduli (GPa) = 83.92489 58.57618 84.77238
#
# Poissons Ratio (x) = 0.27671 0.07586
# Poissons Ratio (y) = 0.39645 0.56588
# Poissons Ratio (z) = 0.07510 0.39101
#
# Static dielectric constant tensor:
#      x y z
#    x 1.856260 0.000000 0.037320 
#    y 0.000000 1.833730 0.000000 
#    z 0.037320 0.000000 2.141470 
# 
# From -- ./inp_files/249238.got.cif
#   From: 2010.05.17/outbox.cif.g08.bks.cpg/sg15_125_cif.got.tgz:249238.got - 2010.06.03 18:47:42.
