data_PCOD9305671
_publ_section_title
;
Structure prediction by ZEFSAII (Michael W. Deem and Ramdas Pophale) SiO2 
 PCOD9305671
Probable space group: C 2/C
;
_chemical_formula_sum "Si O2"
_cell_formula_units_Z 40
_cell_length_a 20.766996
_cell_length_b 7.604743
_cell_length_c 11.321843
_cell_angle_alpha 90.000000
_cell_angle_beta 75.925106
_cell_angle_gamma 90.000000
_cell_volume 1734.353150
_symmetry_space_group_name_H-M "C 2/C"
_symmetry_group_IT_number 15
_symmetry_cell_setting 'monoclinic'
loop_
_space_group_symop_operation_xyz
x,y,z
-x,y,1/2-z
-x,-y,-z
x,-y,1/2+z
1/2+x,1/2+y,z
1/2-x,1/2+y,1/2-z
1/2-x,1/2-y,-z
1/2+x,1/2-y,1/2+z
loop_
_atom_site_type_symbol
_atom_site_label
_atom_site_fract_x
_atom_site_fract_y
_atom_site_fract_z
Si Si1 0.569050 0.602837 0.974845
Si Si2 0.360037 0.254262 0.478415
Si Si3 0.566637 0.061863 0.644364
Si Si4 0.312461 0.205330 0.758725
Si Si5 0.324453 0.383801 0.256417
O O1 0.604222 0.650806 0.835421
O O2 0.500000 0.500000 0.000000
O O3 0.616801 0.452951 0.007664
O O4 0.562736 0.776440 0.055222
O O5 0.326840 0.184276 0.612467
O O6 0.317961 0.268954 0.377347
O O7 0.420815 0.123021 0.425146
O O8 0.500000 0.059422 0.750000
O O9 0.631984 0.100381 0.694610
O O10 0.320739 0.409918 0.785297
O O11 0.235595 0.155095 0.807020
#
# Coordination Sequence:
#
# PCOD9305671 Si02
#       5
#     8   8   8   8   8
#     4  11  27  47  73 101 143 190 239 290 354 419
#     4  11  26  46  71 103 141 186 235 291 356 420
#     4  12  27  45  73 104 142 186 240 293 352 421
#     4  11  25  46  70 107 142 182 240 285 357 427
#     4  11  24  46  73 102 146 187 229 299 352 415
#
# _framework density 23.063351999999998
#
# number of rings (size 3 to 8) (size 9 to 14) (size 15 to 20)
#    0.000    0.800    2.000    4.200    8.400    4.000 
#    0.000    0.000    0.000    0.000    0.000    0.000 
#    0.000    0.000    0.000    0.000    0.000    0.000 
#
# Total GULP energy -111935.970100 kJ/mol
# GULP energy per Si atom -5596.798505 kJ/mol
# Density = 2.301086 g / cm^3
# Si number density = 23.063352 Si / 1000 Ang^3
#
#
#
# Elastic Constant Matrix: (Units=GPa)
#
#
# Indices 1 2 3 4 5 6 
#
# 1 80.8804 -23.0371 29.1501 0.0000 1.2209 0.0000
# 2 -23.0371 86.6295 35.4558 0.0000 -4.3905 0.0000
# 3 29.1501 35.4558 76.1111 0.0000 -3.2522 0.0000
# 4 0.0000 0.0000 0.0000 20.0521 0.0000 -3.1288
# 5 1.2209 -4.3905 -3.2522 0.0000 31.8488 0.0000
# 6 0.0000 0.0000 0.0000 -3.1288 0.0000 26.2646
#
#
#
# Elastic Compliance Matrix: (Units=1/GPa)
#
#
# Indices 1 2 3 4 5 6 
#
# 1 0.019777 0.010304 -0.012400 0.000000 -0.000604 0.000000
# 2 0.010304 0.019684 -0.013074 0.000000 0.000984 0.000000
# 3 -0.012400 -0.013074 0.024027 0.000000 0.001127 0.000000
# 4 0.000000 0.000000 0.000000 0.050815 0.000000 0.006053
# 5 -0.000604 0.000984 0.001127 0.000000 0.031672 0.000000
# 6 0.000000 0.000000 0.000000 0.006053 0.000000 0.038795
#
#
# Mechanical properties :
#
#
# Convention : Reuss Voigt Hill
#
# Bulk Modulus (GPa) = 30.16875 36.30652 33.23763
# Shear Modulus (GPa) = 22.10825 29.10325 25.60575
#
# Velocity S-wave (km/s) = 3.09947 3.55615 3.33563
# Velocity P-wave (km/s) = 5.09099 5.71296 5.41092
#
# Compressibility (1/GPa) = 0.03314689
#
# Stress axis : x y z
#
# Youngs Moduli (GPa) = 50.56354 50.80184 41.62061
#
# Poissons Ratio (x) = -0.52346 0.51611
# Poissons Ratio (y) = -0.52100 0.54415
# Poissons Ratio (z) = 0.62700 0.66419
#
# Static dielectric constant tensor:
#      x y z
#    x 1.889680 0.000000 0.030180 
#    y 0.000000 1.852410 0.000000 
#    z 0.030180 0.000000 1.933660 
# 
# From -- ./inp_files/109574.got.cif
#   From: 2010.05.17/outbox.cif.g08.bks.cpg/sg15_55_cif.got.tgz:109574.got - 2010.06.03 18:47:42.
