data_PCOD9305780
_publ_section_title
;
Structure prediction by ZEFSAII (Michael W. Deem and Ramdas Pophale) SiO2 
 PCOD9305780
Probable space group: C 2/C
;
_chemical_formula_sum "Si O2"
_cell_formula_units_Z 40
_cell_length_a 17.982557
_cell_length_b 5.128719
_cell_length_c 17.010682
_cell_angle_alpha 90.000000
_cell_angle_beta 101.882136
_cell_angle_gamma 90.000000
_cell_volume 1535.236924
_symmetry_space_group_name_H-M "C 2/C"
_symmetry_group_IT_number 15
_symmetry_cell_setting 'monoclinic'
loop_
_space_group_symop_operation_xyz
x,y,z
-x,y,1/2-z
-x,-y,-z
x,-y,1/2+z
1/2+x,1/2+y,z
1/2-x,1/2+y,1/2-z
1/2-x,1/2-y,-z
1/2+x,1/2-y,1/2+z
loop_
_atom_site_type_symbol
_atom_site_label
_atom_site_fract_x
_atom_site_fract_y
_atom_site_fract_z
Si Si1 0.111497 0.330227 0.579505
Si Si2 0.500200 0.526696 0.365112
Si Si3 0.905923 0.552077 0.079494
Si Si4 0.853381 0.275355 0.284818
Si Si5 0.255180 0.958783 0.122206
O O1 0.051659 0.098125 0.575690
O O2 0.086756 0.552661 0.513547
O O3 0.123859 0.452930 0.668530
O O4 0.191641 0.217994 0.568115
O O5 0.553940 0.774552 0.392666
O O6 0.432175 0.619769 0.293269
O O7 0.552351 0.275571 0.362296
O O8 0.817211 0.581196 0.079361
O O9 0.808131 0.301572 0.194864
O O10 0.795129 0.148044 0.334292
#
# Coordination Sequence:
#
# PCOD9305780 Si02
#       5
#     8   8   8   8   8
#     4  11  24  47  75 101 143 191 231 283 358 416
#     4  11  26  47  71 103 145 184 228 290 357 414
#     4  12  27  45  74 109 140 178 242 296 338 414
#     4  11  24  47  71  99 143 195 227 285 356 427
#     4  11  26  45  71 105 142 186 241 286 350 413
#
# _framework density 26.054613
#
# number of rings (size 3 to 8) (size 9 to 14) (size 15 to 20)
#    0.000    0.800    4.000    1.800    8.400    1.600 
#    3.600    0.000    0.000    0.000    0.000    0.000 
#    0.000    0.000    0.000    0.000    0.000    0.000 
#
# Total GULP energy -111919.334615 kJ/mol
# GULP energy per Si atom -5595.966731 kJ/mol
# Density = 2.599531 g / cm^3
# Si number density = 26.054613 Si / 1000 Ang^3
#
#
#
# Elastic Constant Matrix: (Units=GPa)
#
#
# Indices 1 2 3 4 5 6 
#
# 1 166.1017 36.5817 7.1722 0.0000 15.5060 0.0000
# 2 36.5817 118.6882 -4.1672 0.0000 12.3992 0.0000
# 3 7.1722 -4.1672 31.2831 0.0000 11.9385 0.0000
# 4 0.0000 0.0000 0.0000 28.6006 0.0000 23.8575
# 5 15.5060 12.3992 11.9385 0.0000 30.2852 0.0000
# 6 0.0000 0.0000 0.0000 23.8575 0.0000 41.9487
#
#
#
# Elastic Compliance Matrix: (Units=1/GPa)
#
#
# Indices 1 2 3 4 5 6 
#
# 1 0.006682 -0.001850 -0.000897 0.000000 -0.002311 0.000000
# 2 -0.001850 0.009560 0.003331 0.000000 -0.004280 0.000000
# 3 -0.000897 0.003331 0.038797 0.000000 -0.016199 0.000000
# 4 0.000000 0.000000 0.000000 0.066524 0.000000 -0.037834
# 5 -0.002311 -0.004280 -0.016199 0.000000 0.042340 0.000000
# 6 0.000000 0.000000 0.000000 -0.037834 0.000000 0.045356
#
#
# Mechanical properties :
#
#
# Convention : Reuss Voigt Hill
#
# Bulk Modulus (GPa) = 17.79108 43.91627 30.85368
# Shear Modulus (GPa) = 22.04324 38.59931 30.32128
#
# Velocity S-wave (km/s) = 2.91183 3.85317 3.41509
# Velocity P-wave (km/s) = 4.26007 6.05706 5.23623
#
# Compressibility (1/GPa) = 0.05620795
#
# Stress axis : x y z
#
# Youngs Moduli (GPa) = 149.65173 104.60710 25.77505
#
# Poissons Ratio (x) = 0.19349 0.02311
# Poissons Ratio (y) = 0.27680 -0.08585
# Poissons Ratio (z) = 0.13418 -0.34842
#
# Static dielectric constant tensor:
#      x y z
#    x 2.037620 0.000000 -0.065020 
#    y 0.000000 2.052530 0.000000 
#    z -0.065020 0.000000 2.059370 
# 
# From -- ./inp_files/246300.got.cif
#   From: 2010.05.17/outbox.cif.g08.bks.cpg/sg15_124_cif.got.tgz:246300.got - 2010.06.03 18:47:42.
