data_PCOD9305224
_publ_section_title
;
Structure prediction by ZEFSAII (Michael W. Deem and Ramdas Pophale) SiO2 
 PCOD9305224
Probable space group: C 2/C
;
_chemical_formula_sum "Si O2"
_cell_formula_units_Z 52
_cell_length_a 23.354391
_cell_length_b 11.648811
_cell_length_c 11.086254
_cell_angle_alpha 90.000000
_cell_angle_beta 44.713089
_cell_angle_gamma 90.000000
_cell_volume 2121.945857
_symmetry_space_group_name_H-M "C 2/C"
_symmetry_group_IT_number 15
_symmetry_cell_setting 'monoclinic'
loop_
_space_group_symop_operation_xyz
x,y,z
-x,y,1/2-z
-x,-y,-z
x,-y,1/2+z
1/2+x,1/2+y,z
1/2-x,1/2+y,1/2-z
1/2-x,1/2-y,-z
1/2+x,1/2-y,1/2+z
loop_
_atom_site_type_symbol
_atom_site_label
_atom_site_fract_x
_atom_site_fract_y
_atom_site_fract_z
Si Si1 0.132189 0.667536 0.897760
Si Si2 0.253959 0.681707 0.117086
Si Si3 0.000000 0.286877 0.250000
Si Si4 0.008534 0.184841 0.976245
Si Si5 0.433996 0.487234 0.739896
Si Si6 0.263152 0.419607 0.023253
Si Si7 0.155011 0.411428 0.963043
O O1 0.170683 0.762631 0.926775
O O2 0.041274 0.709541 0.004056
O O3 0.198824 0.659106 0.689712
O O4 0.133288 0.539127 0.950084
O O5 0.256180 0.548559 0.082202
O O6 0.176777 0.677727 0.323372
O O7 0.250000 0.750000 0.000000
O O8 0.020867 0.217523 0.097641
O O9 0.921229 0.365774 0.347189
O O10 0.946718 0.078806 0.092348
O O11 0.075197 0.120497 0.793358
O O12 0.500000 0.495539 0.750000
O O13 0.359162 0.407988 0.898847
O O14 0.234439 0.419347 0.928223
#
# Coordination Sequence:
#
# PCOD9305224 Si02
#       7
#     8   8   4   8   8   8   8
#     4  11  24  47  74 107 147 195 246 307 374 444
#     4  11  24  43  72 104 142 185 243 300 370 436
#     4  12  26  48  74 102 146 194 246 308 378 446
#     4  11  25  45  72 106 145 194 241 303 379 436
#     4  11  25  45  72 110 148 190 247 304 370 453
#     4  11  24  46  74 107 146 190 256 302 368 460
#     4  11  26  46  74 107 143 193 249 308 368 455
#
# _framework density 24.505807999999998
#
# number of rings (size 3 to 8) (size 9 to 14) (size 15 to 20)
#    0.000    0.923    3.846    1.846    4.308    5.538 
#    4.154    0.000    0.000    0.000    0.000    0.000 
#    0.000    0.000    0.000    0.000    0.000    0.000 
#
# Total GULP energy -144961.480651 kJ/mol
# GULP energy per Si atom -5575.441563 kJ/mol
# Density = 2.445003 g / cm^3
# Si number density = 24.505808 Si / 1000 Ang^3
#
#
#
# Elastic Constant Matrix: (Units=GPa)
#
#
# Indices 1 2 3 4 5 6 
#
# 1 112.2928 35.2552 21.6383 0.0000 13.8007 0.0000
# 2 35.2552 104.0275 22.0224 0.0000 8.9375 0.0000
# 3 21.6383 22.0224 72.8571 0.0000 2.5236 0.0000
# 4 0.0000 0.0000 0.0000 34.2942 0.0000 -2.2650
# 5 13.8007 8.9375 2.5236 0.0000 32.0238 0.0000
# 6 0.0000 0.0000 0.0000 -2.2650 0.0000 18.9585
#
#
#
# Elastic Compliance Matrix: (Units=1/GPa)
#
#
# Indices 1 2 3 4 5 6 
#
# 1 0.010664 -0.002840 -0.002183 0.000000 -0.003631 0.000000
# 2 -0.002840 0.011252 -0.002498 0.000000 -0.001720 0.000000
# 3 -0.002183 -0.002498 0.015113 0.000000 0.000447 0.000000
# 4 0.000000 0.000000 0.000000 0.029391 0.000000 0.003511
# 5 -0.003631 -0.001720 0.000447 0.000000 0.033236 0.000000
# 6 0.000000 0.000000 0.000000 0.003511 0.000000 0.053166
#
#
# Mechanical properties :
#
#
# Convention : Reuss Voigt Hill
#
# Bulk Modulus (GPa) = 45.48089 49.66769 47.57429
# Shear Modulus (GPa) = 28.53982 31.07274 29.80628
#
# Velocity S-wave (km/s) = 3.41635 3.56473 3.49132
# Velocity P-wave (km/s) = 5.84478 6.10367 5.97562
#
# Compressibility (1/GPa) = 0.02198726
#
# Stress axis : x y z
#
# Youngs Moduli (GPa) = 93.77534 88.87405 66.16633
#
# Poissons Ratio (x) = 0.25240 0.14444
# Poissons Ratio (y) = 0.26631 0.16529
# Poissons Ratio (z) = 0.20470 0.22201
#
# Static dielectric constant tensor:
#      x y z
#    x 1.965630 0.000000 -0.072170 
#    y 0.000000 1.994000 0.000000 
#    z -0.072170 0.000000 2.176910 
# 
# From -- ./inp_files/117940.got.cif
#   From: 2010.05.17/outbox.cif.g08.bks.cpg/sg15_59_cif.got.tgz:117940.got - 2010.06.03 18:47:42.
