data_PCOD9305238
_publ_section_title
;
Structure prediction by ZEFSAII (Michael W. Deem and Ramdas Pophale) SiO2 
 PCOD9305238
Probable space group: C 2/C
;
_chemical_formula_sum "Si O2"
_cell_formula_units_Z 44
_cell_length_a 15.310906
_cell_length_b 16.446587
_cell_length_c 9.494959
_cell_angle_alpha 90.000000
_cell_angle_beta 56.226142
_cell_angle_gamma 90.000000
_cell_volume 1987.445664
_symmetry_space_group_name_H-M "C 2/C"
_symmetry_group_IT_number 15
_symmetry_cell_setting 'monoclinic'
loop_
_space_group_symop_operation_xyz
x,y,z
-x,y,1/2-z
-x,-y,-z
x,-y,1/2+z
1/2+x,1/2+y,z
1/2-x,1/2+y,1/2-z
1/2-x,1/2-y,-z
1/2+x,1/2-y,1/2+z
loop_
_atom_site_type_symbol
_atom_site_label
_atom_site_fract_x
_atom_site_fract_y
_atom_site_fract_z
Si Si1 0.399932 0.440676 0.109392
Si Si2 0.253347 0.670844 0.594710
Si Si3 0.683875 0.733752 0.419780
Si Si4 0.787507 0.564186 0.279840
Si Si5 0.500000 0.336175 0.250000
Si Si6 0.614282 0.970023 0.082807
O O1 0.367473 0.369851 0.026444
O O2 0.301390 0.500329 0.187462
O O3 0.419773 0.394159 0.237857
O O4 0.500000 0.500000 0.000000
O O5 0.250000 0.750000 0.500000
O O6 0.201417 0.696647 0.789703
O O7 0.183452 0.603096 0.583532
O O8 0.750000 0.750000 0.500000
O O9 0.735338 0.651745 0.310743
O O10 0.565556 0.715583 0.577826
O O11 0.828102 0.548833 0.401760
O O12 0.880765 0.543980 0.087983
O O13 0.500000 0.966648 0.250000
#
# Coordination Sequence:
#
# PCOD9305238 Si02
#       6
#     8   8   8   8   4   8
#     4  11  24  43  74 103 139 188 243 297 364 439
#     4  11  25  46  71 104 148 184 232 309 371 425
#     4  12  25  44  68 100 144 182 233 296 357 427
#     4  11  24  45  69 100 140 183 233 305 352 434
#     4  12  24  44  70 108 134 190 246 282 368 436
#     4  11  25  45  69  98 136 186 241 281 364 436
#
# _framework density 22.13897
#
# number of rings (size 3 to 8) (size 9 to 14) (size 15 to 20)
#    0.000    0.727    5.455    1.636    5.091    2.909 
#    1.636    0.000    0.000    0.000    0.000    0.000 
#    0.000    0.000    0.000    0.000    0.000    0.000 
#
# Total GULP energy -122942.311210 kJ/mol
# GULP energy per Si atom -5588.286873 kJ/mol
# Density = 2.208858 g / cm^3
# Si number density = 22.138970 Si / 1000 Ang^3
#
#
#
# Elastic Constant Matrix: (Units=GPa)
#
#
# Indices 1 2 3 4 5 6 
#
# 1 75.7899 20.6427 12.1226 0.0000 2.2205 0.0000
# 2 20.6427 71.5980 11.4164 0.0000 2.0401 0.0000
# 3 12.1226 11.4164 106.7891 0.0000 -7.3588 0.0000
# 4 0.0000 0.0000 0.0000 23.9045 0.0000 1.5290
# 5 2.2205 2.0401 -7.3588 0.0000 43.4702 0.0000
# 6 0.0000 0.0000 0.0000 1.5290 0.0000 34.2982
#
#
#
# Elastic Compliance Matrix: (Units=1/GPa)
#
#
# Indices 1 2 3 4 5 6 
#
# 1 0.014498 -0.003955 -0.001276 0.000000 -0.000771 0.000000
# 2 -0.003955 0.015325 -0.001240 0.000000 -0.000727 0.000000
# 3 -0.001276 -0.001240 0.009764 0.000000 0.001776 0.000000
# 4 0.000000 0.000000 0.000000 0.041953 0.000000 -0.001870
# 5 -0.000771 -0.000727 0.001776 0.000000 0.023378 0.000000
# 6 0.000000 0.000000 0.000000 -0.001870 0.000000 0.029239
#
#
# Mechanical properties :
#
#
# Convention : Reuss Voigt Hill
#
# Bulk Modulus (GPa) = 37.52768 38.06003 37.79386
# Shear Modulus (GPa) = 32.05514 34.33426 33.19470
#
# Velocity S-wave (km/s) = 3.80926 3.94236 3.87638
# Velocity P-wave (km/s) = 6.02786 6.16049 6.09454
#
# Compressibility (1/GPa) = 0.02664700
#
# Stress axis : x y z
#
# Youngs Moduli (GPa) = 68.97416 65.25112 102.41657
#
# Poissons Ratio (x) = 0.25804 0.13070
# Poissons Ratio (y) = 0.27276 0.12695
# Poissons Ratio (z) = 0.08802 0.08088
#
# Static dielectric constant tensor:
#      x y z
#    x 1.800420 0.000000 0.009860 
#    y 0.000000 1.850300 0.000000 
#    z 0.009860 0.000000 1.886290 
# 
# From -- ./inp_files/39539.got.cif
#   From: 2010.05.17/outbox.cif.g08.bks.cpg/sg15_20_cif.got.tgz:39539.got - 2010.06.03 18:47:42.
