data_PCOD9305424
_publ_section_title
;
Structure prediction by ZEFSAII (Michael W. Deem and Ramdas Pophale) SiO2 
 PCOD9305424
Probable space group: C 2/C
;
_chemical_formula_sum "Si O2"
_cell_formula_units_Z 56
_cell_length_a 16.440854
_cell_length_b 21.609133
_cell_length_c 14.733873
_cell_angle_alpha 90.000000
_cell_angle_beta 153.215175
_cell_angle_gamma 90.000000
_cell_volume 2358.899591
_symmetry_space_group_name_H-M "C 2/C"
_symmetry_group_IT_number 15
_symmetry_cell_setting 'monoclinic'
loop_
_space_group_symop_operation_xyz
x,y,z
-x,y,1/2-z
-x,-y,-z
x,-y,1/2+z
1/2+x,1/2+y,z
1/2-x,1/2+y,1/2-z
1/2-x,1/2-y,-z
1/2+x,1/2-y,1/2+z
loop_
_atom_site_type_symbol
_atom_site_label
_atom_site_fract_x
_atom_site_fract_y
_atom_site_fract_z
Si Si1 0.074631 0.953518 0.151531
Si Si2 0.085022 0.233974 0.021062
Si Si3 0.790397 0.835021 0.318722
Si Si4 0.000000 0.707738 0.250000
Si Si5 0.500000 0.913998 0.250000
Si Si6 0.739845 0.121350 0.390156
Si Si7 0.289459 0.322227 0.524256
Si Si8 0.532772 0.014216 0.426989
O O1 0.155558 0.898169 0.172619
O O2 0.251509 0.981286 0.377027
O O3 0.918005 0.922779 0.058849
O O4 0.000000 0.000000 0.000000
O O5 0.151464 0.300359 0.116898
O O6 0.220985 0.176650 0.142342
O O7 0.003758 0.247294 0.840756
O O8 0.959781 0.210913 0.977179
O O9 0.738930 0.837684 0.370568
O O10 0.826834 0.661848 0.089237
O O11 0.658369 0.869317 0.445254
O O12 0.450287 0.960735 0.281780
O O13 0.572931 0.077172 0.200601
O O14 0.500000 0.334429 0.750000
O O15 0.250000 0.250000 0.500000
O O16 0.500000 0.000000 0.500000
#
# Coordination Sequence:
#
# PCOD9305424 Si02
#       8
#     8   8   8   4   4   8   8   8
#     4  11  25  47  76 109 141 204 258 312 379 461
#     4  11  24  44  75 107 153 195 255 308 383 468
#     4  11  25  45  74 108 141 198 250 312 383 450
#     4  12  23  46  72 114 159 204 240 318 390 460
#     4  12  31  48  76 116 145 210 256 318 394 460
#     4  11  25  45  73 110 152 201 252 311 383 457
#     4  12  27  50  77 109 151 190 251 327 388 456
#     4  12  26  50  78 105 158 203 260 324 385 461
#
# _framework density 23.739882000000001
#
# number of rings (size 3 to 8) (size 9 to 14) (size 15 to 20)
#    0.000    0.571    3.571    3.429    2.000    1.143 
#    2.571    0.000    0.000    0.000    0.000    0.000 
#    0.000    0.000    0.000    0.000    0.000    0.000 
#
# Total GULP energy -156480.268043 kJ/mol
# GULP energy per Si atom -5588.581002 kJ/mol
# Density = 2.368585 g / cm^3
# Si number density = 23.739882 Si / 1000 Ang^3
#
#
#
# Elastic Constant Matrix: (Units=GPa)
#
#
# Indices 1 2 3 4 5 6 
#
# 1 66.1459 8.4408 -1.1418 0.0000 9.5690 0.0000
# 2 8.4408 140.5777 38.8509 0.0000 5.8913 0.0000
# 3 -1.1418 38.8509 85.3199 0.0000 22.0134 0.0000
# 4 0.0000 0.0000 0.0000 47.1334 0.0000 12.1257
# 5 9.5690 5.8913 22.0134 0.0000 43.0532 0.0000
# 6 0.0000 0.0000 0.0000 12.1257 0.0000 27.4689
#
#
#
# Elastic Compliance Matrix: (Units=1/GPa)
#
#
# Indices 1 2 3 4 5 6 
#
# 1 0.015948 -0.001309 0.001933 0.000000 -0.004354 0.000000
# 2 -0.001309 0.008275 -0.004111 0.000000 0.001261 0.000000
# 3 0.001933 -0.004111 0.015649 0.000000 -0.007868 0.000000
# 4 0.000000 0.000000 0.000000 0.023935 0.000000 -0.010566
# 5 -0.004354 0.001261 -0.007868 0.000000 0.028045 0.000000
# 6 0.000000 0.000000 0.000000 -0.010566 0.000000 0.041069
#
#
# Mechanical properties :
#
#
# Convention : Reuss Voigt Hill
#
# Bulk Modulus (GPa) = 30.39734 42.70482 36.55108
# Shear Modulus (GPa) = 33.14291 39.92399 36.53345
#
# Velocity S-wave (km/s) = 3.74048 4.10533 3.92715
# Velocity P-wave (km/s) = 5.61133 6.36391 5.99943
#
# Compressibility (1/GPa) = 0.03289761
#
# Stress axis : x y z
#
# Youngs Moduli (GPa) = 62.70216 120.83938 63.90367
#
# Poissons Ratio (x) = 0.15822 -0.12353
# Poissons Ratio (y) = 0.08210 0.26271
# Poissons Ratio (z) = -0.12120 0.49678
#
# Static dielectric constant tensor:
#      x y z
#    x 1.397040 0.000000 -0.169530 
#    y 0.000000 1.858230 0.000000 
#    z -0.169530 0.000000 1.848220 
# 
# From -- ./inp_files/163852.got.cif
#   From: 2010.05.17/outbox.cif.g08.bks.cpg/sg15_82_cif.got.tgz:163852.got - 2010.06.03 18:47:42.
