data_PCOD9305085
_publ_section_title
;
Structure prediction by ZEFSAII (Michael W. Deem and Ramdas Pophale) SiO2 
 PCOD9305085
Probable space group: C 2/C
;
_chemical_formula_sum "Si O2"
_cell_formula_units_Z 48
_cell_length_a 11.711657
_cell_length_b 15.905954
_cell_length_c 12.422732
_cell_angle_alpha 90.000000
_cell_angle_beta 79.485230
_cell_angle_gamma 90.000000
_cell_volume 2275.309820
_symmetry_space_group_name_H-M "C 2/C"
_symmetry_group_IT_number 15
_symmetry_cell_setting 'monoclinic'
loop_
_space_group_symop_operation_xyz
x,y,z
-x,y,1/2-z
-x,-y,-z
x,-y,1/2+z
1/2+x,1/2+y,z
1/2-x,1/2+y,1/2-z
1/2-x,1/2-y,-z
1/2+x,1/2-y,1/2+z
loop_
_atom_site_type_symbol
_atom_site_label
_atom_site_fract_x
_atom_site_fract_y
_atom_site_fract_z
Si Si1 0.055732 0.847462 0.884587
Si Si2 0.907483 0.346539 0.125471
Si Si3 0.060982 0.387239 0.904881
Si Si4 0.500000 0.976035 0.250000
Si Si5 0.500000 0.743150 0.750000
Si Si6 0.667659 0.427736 0.662893
Si Si7 0.341329 0.379772 0.399701
O O1 0.078436 0.750756 0.848855
O O2 0.129936 0.905748 0.791100
O O3 0.921102 0.871490 0.891946
O O4 0.097054 0.862765 0.998056
O O5 0.901599 0.410067 0.227790
O O6 0.794572 0.359293 0.071918
O O7 0.015081 0.374338 0.032697
O O8 0.990888 0.460260 0.852344
O O9 0.036838 0.302758 0.841899
O O10 0.196986 0.408892 0.877602
O O11 0.604250 0.683576 0.695873
O O12 0.643787 0.524367 0.638797
#
# Coordination Sequence:
#
# PCOD9305085 Si02
#       7
#     8   8   8   4   4   8   8
#     4  11  25  46  69 100 141 183 223 281 342 404
#     4  12  25  45  72 103 139 178 230 279 351 393
#     4  11  25  44  70 104 133 179 231 284 334 410
#     4  11  24  42  67 104 138 174 221 286 336 399
#     4  11  24  44  69 100 136 178 235 272 342 405
#     4  11  25  45  69 100 142 175 233 277 342 401
#     4  12  25  45  71 101 135 187 224 282 338 412
#
# _framework density 21.096028
#
# number of rings (size 3 to 8) (size 9 to 14) (size 15 to 20)
#    0.000    0.667    3.333    4.500    4.667    0.667 
#    3.000    0.000    0.000    0.000    0.000    0.000 
#    0.000    0.000    0.000    0.000    0.000    0.000 
#
# Total GULP energy -134195.471875 kJ/mol
# GULP energy per Si atom -5591.477995 kJ/mol
# Density = 2.104801 g / cm^3
# Si number density = 21.096028 Si / 1000 Ang^3
#
#
#
# Elastic Constant Matrix: (Units=GPa)
#
#
# Indices 1 2 3 4 5 6 
#
# 1 82.2909 34.1524 33.6417 0.0000 -3.8929 0.0000
# 2 34.1524 148.3601 22.3560 0.0000 2.7595 0.0000
# 3 33.6417 22.3560 64.4144 0.0000 -2.6153 0.0000
# 4 0.0000 0.0000 0.0000 5.7200 0.0000 14.6127
# 5 -3.8929 2.7595 -2.6153 0.0000 30.5763 0.0000
# 6 0.0000 0.0000 0.0000 14.6127 0.0000 52.5117
#
#
#
# Elastic Compliance Matrix: (Units=1/GPa)
#
#
# Indices 1 2 3 4 5 6 
#
# 1 0.016445 -0.002673 -0.007593 0.000000 0.001686 0.000000
# 2 -0.002673 0.007569 -0.001277 0.000000 -0.001133 0.000000
# 3 -0.007593 -0.001277 0.019968 0.000000 0.000857 0.000000
# 4 0.000000 0.000000 0.000000 0.604709 0.000000 -0.168276
# 5 0.001686 -0.001133 0.000857 0.000000 0.033095 0.000000
# 6 0.000000 0.000000 0.000000 -0.168276 0.000000 0.065870
#
#
# Mechanical properties :
#
#
# Convention : Reuss Voigt Hill
#
# Bulk Modulus (GPa) = 47.85382 52.81841 50.33612
# Shear Modulus (GPa) = 6.42916 31.42262 18.92589
#
# Velocity S-wave (km/s) = 1.74762 3.86360 2.99846
# Velocity P-wave (km/s) = 5.17738 6.70781 5.99166
#
# Compressibility (1/GPa) = 0.02089697
#
# Stress axis : x y z
#
# Youngs Moduli (GPa) = 60.80865 132.11525 50.08041
#
# Poissons Ratio (x) = 0.35313 0.38024
# Poissons Ratio (y) = 0.16253 0.06395
# Poissons Ratio (z) = 0.46170 0.16871
#
# Static dielectric constant tensor:
#      x y z
#    x 1.777030 0.000000 0.015010 
#    y 0.000000 1.748810 0.000000 
#    z 0.015010 0.000000 1.764130 
# 
# From -- ./inp_files/143489.got.cif
#   From: 2010.05.17/outbox.cif.g08.bks.cpg/sg15_72_cif.got.tgz:143489.got - 2010.06.03 18:47:42.
