data_PCOD9305323
_publ_section_title
;
Structure prediction by ZEFSAII (Michael W. Deem and Ramdas Pophale) SiO2 
 PCOD9305323
Probable space group: C 2/C
;
_chemical_formula_sum "Si O2"
_cell_formula_units_Z 40
_cell_length_a 14.236265
_cell_length_b 5.899304
_cell_length_c 26.166089
_cell_angle_alpha 90.000000
_cell_angle_beta 120.383665
_cell_angle_gamma 90.000000
_cell_volume 1895.720298
_symmetry_space_group_name_H-M "C 2/C"
_symmetry_group_IT_number 15
_symmetry_cell_setting 'monoclinic'
loop_
_space_group_symop_operation_xyz
x,y,z
-x,y,1/2-z
-x,-y,-z
x,-y,1/2+z
1/2+x,1/2+y,z
1/2-x,1/2+y,1/2-z
1/2-x,1/2-y,-z
1/2+x,1/2-y,1/2+z
loop_
_atom_site_type_symbol
_atom_site_label
_atom_site_fract_x
_atom_site_fract_y
_atom_site_fract_z
Si Si1 0.675657 0.266536 0.182409
Si Si2 0.786378 0.496144 0.033502
Si Si3 0.119849 0.939295 0.271973
Si Si4 0.771154 0.850471 0.872980
Si Si5 0.030501 0.488505 0.067946
O O1 0.614585 0.285115 0.219462
O O2 0.719555 0.504928 0.175354
O O3 0.782390 0.110860 0.213506
O O4 0.596880 0.185461 0.114942
O O5 0.745655 0.508396 0.080385
O O6 0.916276 0.478188 0.065432
O O7 0.750000 0.750000 0.000000
O O8 0.750000 0.250000 0.000000
O O9 0.167131 0.810067 0.334634
O O10 0.000000 0.034158 0.250000
O O11 0.884199 0.716348 0.906270
O O12 0.000000 0.500000 0.000000
#
# Coordination Sequence:
#
# PCOD9305323 Si02
#       5
#     8   8   8   8   8
#     4  11  24  44  69 104 139 187 246 300 367 440
#     4  12  27  45  70 107 146 191 249 299 371 448
#     4  11  24  45  70 100 143 187 247 304 370 437
#     4  11  25  44  72 100 142 190 240 303 370 439
#     4  11  24  44  71 100 142 187 237 303 370 434
#
# _framework density 21.100158
#
# number of rings (size 3 to 8) (size 9 to 14) (size 15 to 20)
#    0.000    0.800    4.000    2.400    5.600    4.000 
#    0.000    0.000    0.000    0.000    0.000    0.000 
#    0.000    0.000    0.000    0.000    0.000    0.000 
#
# Total GULP energy -111460.566225 kJ/mol
# GULP energy per Si atom -5573.028311 kJ/mol
# Density = 2.105213 g / cm^3
# Si number density = 21.100158 Si / 1000 Ang^3
#
#
#
# Elastic Constant Matrix: (Units=GPa)
#
#
# Indices 1 2 3 4 5 6 
#
# 1 107.6969 -0.2654 24.4900 0.0000 18.1680 0.0000
# 2 -0.2654 47.9677 32.6244 0.0000 5.5202 0.0000
# 3 24.4900 32.6244 106.1027 0.0000 -0.8698 0.0000
# 4 0.0000 0.0000 0.0000 10.0993 0.0000 -20.2775
# 5 18.1680 5.5202 -0.8698 0.0000 42.8306 0.0000
# 6 0.0000 0.0000 0.0000 -20.2775 0.0000 15.6882
#
#
#
# Elastic Compliance Matrix: (Units=1/GPa)
#
#
# Indices 1 2 3 4 5 6 
#
# 1 0.010950 0.003029 -0.003501 0.000000 -0.005106 0.000000
# 2 0.003029 0.027753 -0.009274 0.000000 -0.005050 0.000000
# 3 -0.003501 -0.009274 0.013109 0.000000 0.002946 0.000000
# 4 0.000000 0.000000 0.000000 -0.062073 0.000000 -0.080232
# 5 -0.005106 -0.005050 0.002946 0.000000 0.026225 0.000000
# 6 0.000000 0.000000 0.000000 -0.080232 0.000000 -0.039960
#
#
# Mechanical properties :
#
#
# Convention : Reuss Voigt Hill
#
# Bulk Modulus (GPa) = 30.94005 41.71836 36.32921
# Shear Modulus (GPa) = 797.73601 27.38485 412.56043
#
# Velocity S-wave (km/s) = 19.46514 3.60648 13.99819
# Velocity P-wave (km/s) = 22.80097 6.09563 16.68894
#
# Compressibility (1/GPa) = 0.03232057
#
# Stress axis : x y z
#
# Youngs Moduli (GPa) = 91.32194 36.03237 76.28599
#
# Poissons Ratio (x) = -0.10915 0.26706
# Poissons Ratio (y) = -0.27663 0.70748
# Poissons Ratio (z) = 0.31970 0.33416
#
# Static dielectric constant tensor:
#      x y z
#    x 1.869190 0.000000 -0.292770 
#    y 0.000000 1.872620 0.000000 
#    z -0.292770 0.000000 2.057700 
# 
# From -- ./inp_files/271624.got.cif
#   From: 2010.05.17/outbox.cif.g08.bks.cpg/sg15_136_cif.got.tgz:271624.got - 2010.06.03 18:47:42.
