data_PCOD9305466
_publ_section_title
;
Structure prediction by ZEFSAII (Michael W. Deem and Ramdas Pophale) SiO2 
 PCOD9305466
Probable space group: C 2/C
;
_chemical_formula_sum "Si O2"
_cell_formula_units_Z 48
_cell_length_a 8.501066
_cell_length_b 29.946633
_cell_length_c 16.772293
_cell_angle_alpha 90.000000
_cell_angle_beta 31.186137
_cell_angle_gamma 90.000000
_cell_volume 2211.020036
_symmetry_space_group_name_H-M "C 2/C"
_symmetry_group_IT_number 15
_symmetry_cell_setting 'monoclinic'
loop_
_space_group_symop_operation_xyz
x,y,z
-x,y,1/2-z
-x,-y,-z
x,-y,1/2+z
1/2+x,1/2+y,z
1/2-x,1/2+y,1/2-z
1/2-x,1/2-y,-z
1/2+x,1/2-y,1/2+z
loop_
_atom_site_type_symbol
_atom_site_label
_atom_site_fract_x
_atom_site_fract_y
_atom_site_fract_z
Si Si1 0.653363 0.470486 0.270837
Si Si2 0.476830 0.797448 0.346101
Si Si3 0.321664 0.137318 0.137085
Si Si4 0.298232 0.124750 0.674742
Si Si5 0.074092 0.445403 0.624900
Si Si6 0.792495 0.209065 0.180572
O O1 0.500000 0.475499 0.250000
O O2 0.858368 0.425743 0.175039
O O3 0.404674 0.461034 0.448257
O O4 0.848931 0.514072 0.201570
O O5 0.500000 0.775405 0.250000
O O6 0.687685 0.841324 0.258610
O O7 0.618964 0.760739 0.343272
O O8 0.121379 0.809527 0.510215
O O9 0.501444 0.099423 0.107098
O O10 0.287827 0.181122 0.205294
O O11 0.000000 0.117748 0.250000
O O12 0.471776 0.146559 0.987343
O O13 0.000000 0.123002 0.750000
O O14 0.000000 0.436176 0.750000
O O15 0.500000 0.205262 0.250000
#
# Coordination Sequence:
#
# PCOD9305466 Si02
#       6
#     8   8   8   8   8   8
#     4  11  24  45  69 101 136 186 231 280 348 415
#     4  11  26  44  68 101 136 178 230 285 346 409
#     4  12  24  45  71  98 137 183 231 283 348 417
#     4  11  24  45  70 101 139 181 231 286 342 419
#     4  12  26  43  69 104 141 179 232 289 348 409
#     4  11  26  45  69 101 135 179 228 284 346 413
#
# _framework density 21.709436
#
# number of rings (size 3 to 8) (size 9 to 14) (size 15 to 20)
#    0.000    0.667    5.000    3.000    7.000    2.667 
#    0.000    0.000    0.000    0.000    0.000    0.000 
#    0.000    0.000    0.000    0.000    0.000    0.000 
#
# Total GULP energy -133933.715979 kJ/mol
# GULP energy per Si atom -5580.571499 kJ/mol
# Density = 2.166002 g / cm^3
# Si number density = 21.709436 Si / 1000 Ang^3
#
#
#
# Elastic Constant Matrix: (Units=GPa)
#
#
# Indices 1 2 3 4 5 6 
#
# 1 76.7896 25.2495 18.6928 0.0000 1.1631 0.0000
# 2 25.2495 101.0035 4.1274 0.0000 -7.6808 0.0000
# 3 18.6928 4.1274 88.8949 0.0000 12.7793 0.0000
# 4 0.0000 0.0000 0.0000 41.6685 0.0000 6.1547
# 5 1.1631 -7.6808 12.7793 0.0000 32.2650 0.0000
# 6 0.0000 0.0000 0.0000 6.1547 0.0000 36.9131
#
#
#
# Elastic Compliance Matrix: (Units=1/GPa)
#
#
# Indices 1 2 3 4 5 6 
#
# 1 0.014936 -0.003632 -0.002938 0.000000 -0.000239 0.000000
# 2 -0.003632 0.011029 -0.000153 0.000000 0.002817 0.000000
# 3 -0.002938 -0.000153 0.012580 0.000000 -0.004913 0.000000
# 4 0.000000 0.000000 0.000000 0.024605 0.000000 -0.004103
# 5 -0.000239 0.002817 -0.004913 0.000000 0.033619 0.000000
# 6 0.000000 0.000000 0.000000 -0.004103 0.000000 0.027775
#
#
# Mechanical properties :
#
#
# Convention : Reuss Voigt Hill
#
# Bulk Modulus (GPa) = 39.84157 40.31413 40.07785
# Shear Modulus (GPa) = 34.16344 36.74388 35.45366
#
# Velocity S-wave (km/s) = 3.97125 4.11850 4.04555
# Velocity P-wave (km/s) = 6.27852 6.42077 6.35004
#
# Compressibility (1/GPa) = 0.02509941
#
# Stress axis : x y z
#
# Youngs Moduli (GPa) = 66.95450 90.66959 79.48863
#
# Poissons Ratio (x) = 0.32930 0.23350
# Poissons Ratio (y) = 0.24317 0.01219
# Poissons Ratio (z) = 0.19668 0.01391
#
# Static dielectric constant tensor:
#      x y z
#    x 1.791870 0.000000 0.015500 
#    y 0.000000 1.729830 0.000000 
#    z 0.015500 0.000000 1.804880 
# 
# From -- ./inp_files/194178.got.cif
#   From: 2010.05.17/outbox.cif.g08.bks.cpg/sg15_98_cif.got.tgz:194178.got - 2010.06.03 18:47:42.
