data_PCOD9305936
_publ_section_title
;
Structure prediction by ZEFSAII (Michael W. Deem and Ramdas Pophale) SiO2 
 PCOD9305936
Probable space group: C 2/C
;
_chemical_formula_sum "Si O2"
_cell_formula_units_Z 52
_cell_length_a 7.428990
_cell_length_b 12.279542
_cell_length_c 24.510026
_cell_angle_alpha 90.000000
_cell_angle_beta 106.841347
_cell_angle_gamma 90.000000
_cell_volume 2140.020201
_symmetry_space_group_name_H-M "C 2/C"
_symmetry_group_IT_number 15
_symmetry_cell_setting 'monoclinic'
loop_
_space_group_symop_operation_xyz
x,y,z
-x,y,1/2-z
-x,-y,-z
x,-y,1/2+z
1/2+x,1/2+y,z
1/2-x,1/2+y,1/2-z
1/2-x,1/2-y,-z
1/2+x,1/2-y,1/2+z
loop_
_atom_site_type_symbol
_atom_site_label
_atom_site_fract_x
_atom_site_fract_y
_atom_site_fract_z
Si Si1 0.450882 0.127485 0.000991
Si Si2 0.914662 0.943262 0.082391
Si Si3 0.500000 0.003101 0.750000
Si Si4 0.377312 0.183202 0.172764
Si Si5 0.319007 0.578868 0.700575
Si Si6 0.997151 0.188226 0.419304
Si Si7 0.165136 0.258719 0.617742
O O1 0.227302 0.122760 0.969605
O O2 0.531871 0.213344 0.964002
O O3 0.545267 0.170815 0.063892
O O4 0.500000 0.000000 0.000000
O O5 0.829068 0.953072 0.136833
O O6 0.097930 0.866710 0.105598
O O7 0.945338 0.064247 0.061786
O O8 0.625615 0.058419 0.715129
O O9 0.641697 0.924731 0.794814
O O10 0.336742 0.291390 0.201802
O O11 0.587470 0.196915 0.167868
O O12 0.222829 0.183619 0.112067
O O13 0.500000 0.534554 0.750000
O O14 0.119287 0.221139 0.377004
#
# Coordination Sequence:
#
# PCOD9305936 Si02
#       7
#     8   8   4   8   8   8   8
#     4  12  25  46  71 107 148 188 241 294 345 430
#     4  11  25  47  72 104 146 184 240 298 348 432
#     4  12  26  46  78 100 138 190 224 298 370 404
#     4  11  26  47  72 106 140 180 244 288 352 433
#     4  11  24  49  72 106 141 179 238 294 351 427
#     4  12  25  46  71 105 141 190 235 286 358 416
#     4  11  25  46  72 101 146 190 231 293 353 418
#
# _framework density 24.298836000000001
#
# number of rings (size 3 to 8) (size 9 to 14) (size 15 to 20)
#    0.000    0.615    5.385    2.769    0.000    5.538 
#    4.154    0.000    0.000    0.000    0.000    0.000 
#    0.000    0.000    0.000    0.000    0.000    0.000 
#
# Total GULP energy -145386.126570 kJ/mol
# GULP energy per Si atom -5591.774099 kJ/mol
# Density = 2.424353 g / cm^3
# Si number density = 24.298836 Si / 1000 Ang^3
#
#
#
# Elastic Constant Matrix: (Units=GPa)
#
#
# Indices 1 2 3 4 5 6 
#
# 1 85.2582 19.3437 -1.3357 0.0000 -17.8628 0.0000
# 2 19.3437 133.1022 23.5727 0.0000 -28.7122 0.0000
# 3 -1.3357 23.5727 78.3631 0.0000 -3.9234 0.0000
# 4 0.0000 0.0000 0.0000 34.9034 0.0000 -0.9869
# 5 -17.8628 -28.7122 -3.9234 0.0000 30.7682 0.0000
# 6 0.0000 0.0000 0.0000 -0.9869 0.0000 1.7412
#
#
#
# Elastic Compliance Matrix: (Units=1/GPa)
#
#
# Indices 1 2 3 4 5 6 
#
# 1 0.013406 -0.000477 0.000744 0.000000 0.007433 0.000000
# 2 -0.000477 0.009897 -0.002553 0.000000 0.008633 0.000000
# 3 0.000744 -0.002553 0.013530 0.000000 -0.000225 0.000000
# 4 0.000000 0.000000 0.000000 0.029117 0.000000 0.016503
# 5 0.007433 0.008633 -0.000225 0.000000 0.044844 0.000000
# 6 0.000000 0.000000 0.000000 0.016503 0.000000 0.583674
#
#
# Mechanical properties :
#
#
# Convention : Reuss Voigt Hill
#
# Bulk Modulus (GPa) = 30.99587 42.20943 36.60265
# Shear Modulus (GPa) = 7.04430 30.49208 18.76819
#
# Velocity S-wave (km/s) = 1.70450 3.54627 2.78221
# Velocity P-wave (km/s) = 4.08137 5.84608 5.04154
#
# Compressibility (1/GPa) = 0.03226236
#
# Stress axis : x y z
#
# Youngs Moduli (GPa) = 74.59212 101.04341 73.90718
#
# Poissons Ratio (x) = 0.04816 -0.05499
# Poissons Ratio (y) = 0.03555 0.18868
# Poissons Ratio (z) = -0.05550 0.25796
#
# Static dielectric constant tensor:
#      x y z
#    x 1.949800 0.000000 0.001550 
#    y 0.000000 1.917410 0.000000 
#    z 0.001550 0.000000 2.011850 
# 
# From -- ./inp_files/287743.got.cif
#   From: 2010.05.17/outbox.cif.g08.bks.cpg/sg15_144_cif.got.tgz:287743.got - 2010.06.03 18:47:42.
