data_PCOD9305868
_publ_section_title
;
Structure prediction by ZEFSAII (Michael W. Deem and Ramdas Pophale) SiO2 
 PCOD9305868
Probable space group: C 2/C
;
_chemical_formula_sum "Si O2"
_cell_formula_units_Z 36
_cell_length_a 7.374016
_cell_length_b 22.142584
_cell_length_c 11.078434
_cell_angle_alpha 90.000000
_cell_angle_beta 56.205426
_cell_angle_gamma 90.000000
_cell_volume 1503.249917
_symmetry_space_group_name_H-M "C 2/C"
_symmetry_group_IT_number 15
_symmetry_cell_setting 'monoclinic'
loop_
_space_group_symop_operation_xyz
x,y,z
-x,y,1/2-z
-x,-y,-z
x,-y,1/2+z
1/2+x,1/2+y,z
1/2-x,1/2+y,1/2-z
1/2-x,1/2-y,-z
1/2+x,1/2-y,1/2+z
loop_
_atom_site_type_symbol
_atom_site_label
_atom_site_fract_x
_atom_site_fract_y
_atom_site_fract_z
Si Si1 0.174998 0.293313 0.792440
Si Si2 0.500000 0.387310 0.750000
Si Si3 0.364166 0.825184 0.124260
Si Si4 0.500000 0.597523 0.750000
Si Si5 0.500000 0.933029 0.250000
Si Si6 0.239827 0.508298 0.471036
O O1 0.358095 0.344647 0.716653
O O2 0.293785 0.229043 0.736802
O O3 0.000000 0.297908 0.750000
O O4 0.052233 0.304188 0.964975
O O5 0.659644 0.430524 0.618080
O O6 0.153814 0.848862 0.131178
O O7 0.405887 0.886725 0.185611
O O8 0.600969 0.545940 0.620822
O O9 0.315141 0.976734 0.370270
O O10 0.000000 0.500000 0.500000
#
# Coordination Sequence:
#
# PCOD9305868 Si02
#       6
#     8   4   8   4   4   8
#     4  12  27  49  77 115 160 204 264 314 386 471
#     4  11  25  48  80 112 152 204 256 316 404 443
#     4  12  27  48  73 116 155 201 256 319 388 460
#     4  11  24  48  71 103 154 191 260 302 388 451
#     4  12  25  46  77 107 154 191 260 328 374 468
#     4  11  24  50  71 109 149 201 256 319 384 462
#
# _framework density 23.948115000000001
#
# number of rings (size 3 to 8) (size 9 to 14) (size 15 to 20)
#    0.000    0.444    5.556    1.333    3.111    2.667 
#    8.000    0.000    0.000    0.000    0.000    0.000 
#    0.000    0.000    0.000    0.000    0.000    0.000 
#
# Total GULP energy -100285.462368 kJ/mol
# GULP energy per Si atom -5571.414576 kJ/mol
# Density = 2.389361 g / cm^3
# Si number density = 23.948115 Si / 1000 Ang^3
#
#
#
# Elastic Constant Matrix: (Units=GPa)
#
#
# Indices 1 2 3 4 5 6 
#
# 1 74.2058 17.9632 16.2933 0.0000 -12.1654 0.0000
# 2 17.9632 167.5087 79.3245 0.0000 -23.8235 0.0000
# 3 16.2933 79.3245 165.0826 0.0000 -23.0922 0.0000
# 4 0.0000 0.0000 0.0000 42.0398 0.0000 -21.5979
# 5 -12.1654 -23.8235 -23.0922 0.0000 27.0796 0.0000
# 6 0.0000 0.0000 0.0000 -21.5979 0.0000 26.0730
#
#
#
# Elastic Compliance Matrix: (Units=1/GPa)
#
#
# Indices 1 2 3 4 5 6 
#
# 1 0.014640 -0.000580 -0.000361 0.000000 0.005759 0.000000
# 2 -0.000580 0.008180 -0.003296 0.000000 0.004125 0.000000
# 3 -0.000361 -0.003296 0.008231 0.000000 0.003957 0.000000
# 4 0.000000 0.000000 0.000000 0.041410 0.000000 0.034302
# 5 0.005759 0.004125 0.003957 0.000000 0.046518 0.000000
# 6 0.000000 0.000000 0.000000 0.034302 0.000000 0.066768
#
#
# Mechanical properties :
#
#
# Convention : Reuss Voigt Hill
#
# Bulk Modulus (GPa) = 44.29459 70.43990 57.36724
# Shear Modulus (GPa) = 24.78373 38.58621 31.68497
#
# Velocity S-wave (km/s) = 3.22046 4.01838 3.64135
# Velocity P-wave (km/s) = 5.68900 7.14194 6.45647
#
# Compressibility (1/GPa) = 0.02257612
#
# Stress axis : x y z
#
# Youngs Moduli (GPa) = 68.30700 122.25561 121.49914
#
# Poissons Ratio (x) = 0.07092 0.04381
# Poissons Ratio (y) = 0.03963 0.40048
# Poissons Ratio (z) = 0.02463 0.40298
#
# Static dielectric constant tensor:
#      x y z
#    x -0.988090 0.000000 0.119090 
#    y 0.000000 1.878240 0.000000 
#    z 0.119090 0.000000 1.959150 
# 
# From -- ./inp_files/78958.got.cif
#   From: 2010.05.17/outbox.cif.g08.bks.cpg/sg15_40_cif.got.tgz:78958.got - 2010.06.03 18:47:42.
