data_PCOD9305221
_publ_section_title
;
Structure prediction by ZEFSAII (Michael W. Deem and Ramdas Pophale) SiO2 
 PCOD9305221
Probable space group: C 2/C
;
_chemical_formula_sum "Si O2"
_cell_formula_units_Z 44
_cell_length_a 10.866806
_cell_length_b 19.010085
_cell_length_c 11.266168
_cell_angle_alpha 90.000000
_cell_angle_beta 106.278882
_cell_angle_gamma 90.000000
_cell_volume 2234.046004
_symmetry_space_group_name_H-M "C 2/C"
_symmetry_group_IT_number 15
_symmetry_cell_setting 'monoclinic'
loop_
_space_group_symop_operation_xyz
x,y,z
-x,y,1/2-z
-x,-y,-z
x,-y,1/2+z
1/2+x,1/2+y,z
1/2-x,1/2+y,1/2-z
1/2-x,1/2-y,-z
1/2+x,1/2-y,1/2+z
loop_
_atom_site_type_symbol
_atom_site_label
_atom_site_fract_x
_atom_site_fract_y
_atom_site_fract_z
Si Si1 0.681662 0.958576 0.586971
Si Si2 0.500000 0.653048 0.750000
Si Si3 0.734928 0.219359 0.630576
Si Si4 0.606368 0.446987 0.484283
Si Si5 0.638386 0.356316 0.725688
Si Si6 0.445240 0.089318 0.862111
O O1 0.759895 0.894118 0.661981
O O2 0.563033 0.928081 0.480921
O O3 0.776713 0.007137 0.534711
O O4 0.629675 0.014886 0.669315
O O5 0.373200 0.700539 0.724067
O O6 0.461655 0.602266 0.631458
O O7 0.750000 0.250000 0.500000
O O8 0.669971 0.277219 0.696866
O O9 0.648444 0.148841 0.610105
O O10 0.500000 0.500000 0.500000
O O11 0.644861 0.399391 0.605077
O O12 0.500000 0.361931 0.750000
O O13 0.500000 0.111797 0.750000
#
# Coordination Sequence:
#
# PCOD9305221 Si02
#       6
#     8   4   8   8   8   8
#     4  11  24  43  72 101 136 181 226 294 350 407
#     4  12  26  46  76  94 140 192 224 290 352 414
#     4  12  27  48  66 100 138 185 233 278 351 424
#     4  12  23  44  73 103 137 175 237 289 351 413
#     4  12  25  43  68 103 138 174 235 289 336 421
#     4  11  25  45  68 100 139 178 232 286 351 422
#
# _framework density 19.695208999999998
#
# number of rings (size 3 to 8) (size 9 to 14) (size 15 to 20)
#    0.000    0.364    5.455    2.727    5.091    1.455 
#    0.000    2.727    0.000    0.000    0.000    0.000 
#    0.000    0.000    0.000    0.000    0.000    0.000 
#
# Total GULP energy -122967.238577 kJ/mol
# GULP energy per Si atom -5589.419935 kJ/mol
# Density = 1.965038 g / cm^3
# Si number density = 19.695209 Si / 1000 Ang^3
#
#
#
# Elastic Constant Matrix: (Units=GPa)
#
#
# Indices 1 2 3 4 5 6 
#
# 1 107.3350 35.2953 38.3053 0.0000 14.9013 0.0000
# 2 35.2953 98.0543 29.7761 0.0000 13.7566 0.0000
# 3 38.3053 29.7761 68.1052 0.0000 6.8421 0.0000
# 4 0.0000 0.0000 0.0000 68.3626 0.0000 -1.0520
# 5 14.9013 13.7566 6.8421 0.0000 35.0844 0.0000
# 6 0.0000 0.0000 0.0000 -1.0520 0.0000 53.7251
#
#
#
# Elastic Compliance Matrix: (Units=1/GPa)
#
#
# Indices 1 2 3 4 5 6 
#
# 1 0.012586 -0.002325 -0.005729 0.000000 -0.003317 0.000000
# 2 -0.002325 0.012675 -0.003910 0.000000 -0.003219 0.000000
# 3 -0.005729 -0.003910 0.019601 0.000000 0.000144 0.000000
# 4 0.000000 0.000000 0.000000 0.014632 0.000000 0.000287
# 5 -0.003317 -0.003219 0.000144 0.000000 0.031146 0.000000
# 6 0.000000 0.000000 0.000000 0.000287 0.000000 0.018619
#
#
# Mechanical properties :
#
#
# Convention : Reuss Voigt Hill
#
# Bulk Modulus (GPa) = 47.77357 53.36088 50.56723
# Shear Modulus (GPa) = 35.67223 42.77561 39.22392
#
# Velocity S-wave (km/s) = 4.26045 4.66540 4.46752
# Velocity P-wave (km/s) = 6.96499 7.49489 7.23479
#
# Compressibility (1/GPa) = 0.02093208
#
# Stress axis : x y z
#
# Youngs Moduli (GPa) = 79.45089 78.89838 51.01897
#
# Poissons Ratio (x) = 0.18347 0.29230
# Poissons Ratio (y) = 0.18476 0.19949
# Poissons Ratio (z) = 0.45519 0.30850
#
# Static dielectric constant tensor:
#      x y z
#    x 1.673410 0.000000 -0.011860 
#    y 0.000000 1.687470 0.000000 
#    z -0.011860 0.000000 1.501460 
# 
# From -- ./inp_files/87552.got.cif
#   From: 2010.05.17/outbox.cif.g08.bks.cpg/sg15_44_cif.got.tgz:87552.got - 2010.06.03 18:47:42.
