data_PCOD9305301
_publ_section_title
;
Structure prediction by ZEFSAII (Michael W. Deem and Ramdas Pophale) SiO2 
 PCOD9305301
Probable space group: C 2/C
;
_chemical_formula_sum "Si O2"
_cell_formula_units_Z 60
_cell_length_a 20.736578
_cell_length_b 17.853237
_cell_length_c 11.856056
_cell_angle_alpha 90.000000
_cell_angle_beta 139.573163
_cell_angle_gamma 90.000000
_cell_volume 2846.351720
_symmetry_space_group_name_H-M "C 2/C"
_symmetry_group_IT_number 15
_symmetry_cell_setting 'monoclinic'
loop_
_space_group_symop_operation_xyz
x,y,z
-x,y,1/2-z
-x,-y,-z
x,-y,1/2+z
1/2+x,1/2+y,z
1/2-x,1/2+y,1/2-z
1/2-x,1/2-y,-z
1/2+x,1/2-y,1/2+z
loop_
_atom_site_type_symbol
_atom_site_label
_atom_site_fract_x
_atom_site_fract_y
_atom_site_fract_z
Si Si1 0.510959 0.581661 0.566846
Si Si2 0.483117 0.717154 0.097218
Si Si3 0.809013 0.122873 0.380382
Si Si4 0.156962 0.542006 0.017047
Si Si5 0.759411 0.105268 0.565040
Si Si6 0.500000 0.000000 0.000000
Si Si7 0.751848 0.216825 0.757308
Si Si8 0.880263 0.637939 0.750366
O O1 0.500000 0.500000 0.500000
O O2 0.493600 0.645685 0.449438
O O3 0.422125 0.594573 0.537413
O O4 0.623967 0.589041 0.758555
O O5 0.500000 0.697688 0.250000
O O6 0.546585 0.791093 0.155687
O O7 0.367774 0.734846 0.921126
O O8 0.746575 0.067975 0.217282
O O9 0.753509 0.126599 0.426450
O O10 0.806652 0.205799 0.326481
O O11 0.191679 0.466936 0.998981
O O12 0.061120 0.528263 0.966713
O O13 0.138997 0.605673 0.899508
O O14 0.731542 0.169900 0.616362
O O15 0.576011 0.928849 0.115828
O O16 0.718793 0.167587 0.819906
#
# Coordination Sequence:
#
# PCOD9305301 Si02
#       8
#     8   8   8   8   8   4   8   8
#     4  11  24  44  68 103 140 182 234 285 356 424
#     4  11  25  43  69 106 144 181 230 297 355 418
#     4  12  24  45  73 100 139 187 232 294 355 423
#     4  12  26  43  74 105 139 187 236 298 353 422
#     4  11  25  45  69 103 140 186 237 288 353 428
#     4  12  24  46  66 102 144 180 234 288 350 418
#     4  11  25  46  71 102 142 185 240 288 351 431
#     4  12  25  46  74 106 143 187 239 290 360 422
#
# _framework density 21.079615
#
# number of rings (size 3 to 8) (size 9 to 14) (size 15 to 20)
#    0.000    0.533    4.000    4.400    1.867    2.133 
#    0.000    0.000    0.000    0.000    0.000    0.000 
#    0.000    0.000    0.000    0.000    0.000    0.000 
#
# Total GULP energy -167383.125081 kJ/mol
# GULP energy per Si atom -5579.437503 kJ/mol
# Density = 2.103164 g / cm^3
# Si number density = 21.079615 Si / 1000 Ang^3
#
#
#
# Elastic Constant Matrix: (Units=GPa)
#
#
# Indices 1 2 3 4 5 6 
#
# 1 103.1788 7.6780 0.9202 0.0000 -1.3234 0.0000
# 2 7.6780 54.7100 13.5130 0.0000 -0.1230 0.0000
# 3 0.9202 13.5130 32.7748 0.0000 -3.2766 0.0000
# 4 0.0000 0.0000 0.0000 21.2609 0.0000 11.2746
# 5 -1.3234 -0.1230 -3.2766 0.0000 35.1458 0.0000
# 6 0.0000 0.0000 0.0000 11.2746 0.0000 17.1985
#
#
#
# Elastic Compliance Matrix: (Units=1/GPa)
#
#
# Indices 1 2 3 4 5 6 
#
# 1 0.009803 -0.001466 0.000369 0.000000 0.000398 0.000000
# 2 -0.001466 0.020588 -0.008525 0.000000 -0.000778 0.000000
# 3 0.000369 -0.008525 0.034334 0.000000 0.003185 0.000000
# 4 0.000000 0.000000 0.000000 0.072099 0.000000 -0.047265
# 5 0.000398 -0.000778 0.003185 0.000000 0.028762 0.000000
# 6 0.000000 0.000000 0.000000 -0.047265 0.000000 0.089129
#
#
# Mechanical properties :
#
#
# Convention : Reuss Voigt Hill
#
# Bulk Modulus (GPa) = 21.98725 26.09845 24.04285
# Shear Modulus (GPa) = 17.29392 25.95787 21.62590
#
# Velocity S-wave (km/s) = 2.86739 3.51297 3.20647
# Velocity P-wave (km/s) = 4.62772 5.37237 5.01389
#
# Compressibility (1/GPa) = 0.04548091
#
# Stress axis : x y z
#
# Youngs Moduli (GPa) = 102.01144 48.57255 29.12559
#
# Poissons Ratio (x) = 0.07121 -0.01075
# Poissons Ratio (y) = 0.14955 0.24829
# Poissons Ratio (z) = -0.03764 0.41408
#
# Static dielectric constant tensor:
#      x y z
#    x 1.765810 0.000000 0.013510 
#    y 0.000000 1.734540 0.000000 
#    z 0.013510 0.000000 1.750340 
# 
# From -- ./inp_files/113832.got.cif
#   From: 2010.05.17/outbox.cif.g08.bks.cpg/sg15_57_cif.got.tgz:113832.got - 2010.06.03 18:47:42.
