data_PCOD9305570
_publ_section_title
;
Structure prediction by ZEFSAII (Michael W. Deem and Ramdas Pophale) SiO2 
 PCOD9305570
Probable space group: C 2/C
;
_chemical_formula_sum "Si O2"
_cell_formula_units_Z 48
_cell_length_a 18.881168
_cell_length_b 5.620649
_cell_length_c 22.520970
_cell_angle_alpha 90.000000
_cell_angle_beta 135.245336
_cell_angle_gamma 90.000000
_cell_volume 1682.750839
_symmetry_space_group_name_H-M "C 2/C"
_symmetry_group_IT_number 15
_symmetry_cell_setting 'monoclinic'
loop_
_space_group_symop_operation_xyz
x,y,z
-x,y,1/2-z
-x,-y,-z
x,-y,1/2+z
1/2+x,1/2+y,z
1/2-x,1/2+y,1/2-z
1/2-x,1/2-y,-z
1/2+x,1/2-y,1/2+z
loop_
_atom_site_type_symbol
_atom_site_label
_atom_site_fract_x
_atom_site_fract_y
_atom_site_fract_z
Si Si1 0.014395 0.926640 0.108410
Si Si2 0.219549 0.993282 0.802856
Si Si3 0.152361 0.439350 0.734822
Si Si4 0.259039 0.778537 0.075077
Si Si5 0.037929 0.322656 0.333442
Si Si6 0.365536 0.366530 0.929357
O O1 0.120587 0.870094 0.209699
O O2 0.956815 0.102298 0.118497
O O3 0.065395 0.077489 0.085424
O O4 0.938594 0.754852 0.024477
O O5 0.179543 0.715287 0.770290
O O6 0.228217 0.964748 0.880764
O O7 0.318902 0.958012 0.818972
O O8 0.253967 0.304583 0.831981
O O9 0.032168 0.475990 0.680633
O O10 0.360233 0.937622 0.131971
O O11 0.168667 0.903672 0.054528
O O12 0.250000 0.750000 0.000000
O O13 0.000000 0.207158 0.250000
#
# Coordination Sequence:
#
# PCOD9305570 Si02
#       6
#     8   8   8   8   8   8
#     4  11  24  45  76 109 145 192 248 299 360 442
#     4  12  27  46  81 107 146 197 252 298 368 449
#     4  12  27  46  78 108 144 197 248 300 367 445
#     4  12  27  49  75 111 155 194 244 315 374 428
#     4  12  27  47  71 110 155 186 242 308 374 426
#     4  11  24  46  76 110 143 196 250 294 365 445
#
# _framework density 28.524723000000002
#
# number of rings (size 3 to 8) (size 9 to 14) (size 15 to 20)
#    0.000    0.333    5.000    3.000    4.667    4.667 
#    0.000    0.000    0.000    0.000    0.000    0.000 
#    0.000    0.000    0.000    0.000    0.000    0.000 
#
# Total GULP energy -133642.957779 kJ/mol
# GULP energy per Si atom -5568.456574 kJ/mol
# Density = 2.845980 g / cm^3
# Si number density = 28.524723 Si / 1000 Ang^3
#
#
#
# Elastic Constant Matrix: (Units=GPa)
#
#
# Indices 1 2 3 4 5 6 
#
# 1 191.7084 21.8494 46.5697 0.0000 -7.9506 0.0010
# 2 21.8494 153.4616 40.7645 -0.0005 3.5323 0.0013
# 3 46.5697 40.7645 246.3463 -0.0001 -17.8626 0.0006
# 4 0.0000 -0.0005 -0.0001 42.0449 -0.0001 0.3407
# 5 -7.9506 3.5323 -17.8626 -0.0001 60.9655 -0.0004
# 6 0.0010 0.0013 0.0006 0.3407 -0.0004 46.2049
#
#
#
# Elastic Compliance Matrix: (Units=1/GPa)
#
#
# Indices 1 2 3 4 5 6 
#
# 1 0.005522 -0.000554 -0.000917 0.000000 0.000483 0.000000
# 2 -0.000554 0.006904 -0.001095 0.000000 -0.000793 0.000000
# 3 -0.000917 -0.001095 0.004506 0.000000 0.001264 0.000000
# 4 0.000000 0.000000 0.000000 0.023785 0.000000 -0.000175
# 5 0.000483 -0.000793 0.001264 0.000000 0.016882 0.000000
# 6 0.000000 0.000000 0.000000 -0.000175 0.000000 0.021644
#
#
# Mechanical properties :
#
#
# Convention : Reuss Voigt Hill
#
# Bulk Modulus (GPa) = 84.74872 89.98706 87.36789
# Shear Modulus (GPa) = 56.61899 61.99858 59.30878
#
# Velocity S-wave (km/s) = 4.46007 4.66714 4.56478
# Velocity P-wave (km/s) = 7.50320 7.78836 7.64711
#
# Compressibility (1/GPa) = 0.01179959
#
# Stress axis : x y z
#
# Youngs Moduli (GPa) = 181.08620 144.83644 221.94468
#
# Poissons Ratio (x) = 0.08020 0.20358
# Poissons Ratio (y) = 0.10027 0.24311
# Poissons Ratio (z) = 0.16610 0.15865
#
# Static dielectric constant tensor:
#      x y z
#    x 2.119740 0.000000 0.246740 
#    y 0.000000 2.432970 0.000000 
#    z 0.246740 0.000000 2.835300 
# 
# From -- ./inp_files/248075.got.cif
#   From: 2010.05.17/outbox.cif.g08.bks.cpg/sg15_125_cif.got.tgz:248075.got - 2010.06.03 18:47:42.
