data_PCOD9305514
_publ_section_title
;
Structure prediction by ZEFSAII (Michael W. Deem and Ramdas Pophale) SiO2 
 PCOD9305514
Probable space group: C 2/C
;
_chemical_formula_sum "Si O2"
_cell_formula_units_Z 44
_cell_length_a 7.859890
_cell_length_b 29.918155
_cell_length_c 11.719617
_cell_angle_alpha 90.000000
_cell_angle_beta 45.822385
_cell_angle_gamma 90.000000
_cell_volume 1976.490080
_symmetry_space_group_name_H-M "C 2/C"
_symmetry_group_IT_number 15
_symmetry_cell_setting 'monoclinic'
loop_
_space_group_symop_operation_xyz
x,y,z
-x,y,1/2-z
-x,-y,-z
x,-y,1/2+z
1/2+x,1/2+y,z
1/2-x,1/2+y,1/2-z
1/2-x,1/2-y,-z
1/2+x,1/2-y,1/2+z
loop_
_atom_site_type_symbol
_atom_site_label
_atom_site_fract_x
_atom_site_fract_y
_atom_site_fract_z
Si Si1 0.000000 0.139212 0.250000
Si Si2 0.516091 0.278252 0.592036
Si Si3 0.264737 0.579908 0.181704
Si Si4 0.865066 0.204351 0.694975
Si Si5 0.122466 0.488666 0.318568
Si Si6 0.866374 0.894444 0.192256
O O1 0.920117 0.174579 0.381695
O O2 0.805040 0.110108 0.275213
O O3 0.750000 0.250000 0.500000
O O4 0.310128 0.246213 0.732964
O O5 0.451144 0.289396 0.493124
O O6 0.305795 0.529428 0.209595
O O7 0.000000 0.584175 0.250000
O O8 0.453866 0.593751 0.995926
O O9 0.753470 0.154870 0.729472
O O10 0.000000 0.205949 0.750000
O O11 0.205225 0.437751 0.285198
O O12 0.000000 0.490061 0.250000
O O13 0.000000 0.500000 0.500000
O O14 0.000000 0.890577 0.250000
#
# Coordination Sequence:
#
# PCOD9305514 Si02
#       6
#     4   8   8   8   8   8
#     4  12  26  42  74 102 138 192 234 284 366 406
#     4  12  24  46  66 101 140 179 236 293 349 423
#     4  11  26  47  71 105 146 186 239 295 356 427
#     4  11  25  44  69 102 137 186 233 292 355 417
#     4  11  26  45  71 107 142 189 236 299 364 425
#     4  11  24  45  71 105 140 185 240 293 360 429
#
# _framework density 22.261686000000001
#
# number of rings (size 3 to 8) (size 9 to 14) (size 15 to 20)
#    0.000    0.727    3.636    3.273    3.818    6.545 
#    0.000    0.000    0.000    0.000    0.000    0.000 
#    0.000    0.000    0.000    0.000    0.000    0.000 
#
# Total GULP energy -122524.456540 kJ/mol
# GULP energy per Si atom -5569.293479 kJ/mol
# Density = 2.221102 g / cm^3
# Si number density = 22.261686 Si / 1000 Ang^3
#
#
#
# Elastic Constant Matrix: (Units=GPa)
#
#
# Indices 1 2 3 4 5 6 
#
# 1 81.5780 33.5162 33.1658 0.0000 31.9009 0.0000
# 2 33.5162 157.1540 26.8103 0.0000 14.2244 0.0000
# 3 33.1658 26.8103 113.3442 0.0000 44.1620 0.0000
# 4 0.0000 0.0000 0.0000 114.7639 0.0000 -18.7832
# 5 31.9009 14.2244 44.1620 0.0000 39.0120 0.0000
# 6 0.0000 0.0000 0.0000 -18.7832 0.0000 -146.8992
#
#
#
# Elastic Compliance Matrix: (Units=1/GPa)
#
#
# Indices 1 2 3 4 5 6 
#
# 1 0.019224 -0.002866 0.001378 0.000000 -0.016235 0.000000
# 2 -0.002866 0.007087 -0.001331 0.000000 0.001266 0.000000
# 3 0.001378 -0.001331 0.016074 0.000000 -0.018838 0.000000
# 4 0.000000 0.000000 0.000000 0.008535 0.000000 -0.001091
# 5 -0.016235 0.001266 -0.018838 0.000000 0.059772 0.000000
# 6 0.000000 0.000000 0.000000 -0.001091 0.000000 -0.006668
#
#
# Mechanical properties :
#
#
# Convention : Reuss Voigt Hill
#
# Bulk Modulus (GPa) = 27.21231 59.89565 43.55398
# Shear Modulus (GPa) = 41.01410 18.61427 29.81418
#
# Velocity S-wave (km/s) = 4.29693 2.89478 3.66356
# Velocity P-wave (km/s) = 6.07195 6.17549 6.12394
#
# Compressibility (1/GPa) = 0.03674807
#
# Stress axis : x y z
#
# Youngs Moduli (GPa) = 52.01849 141.10725 62.21295
#
# Poissons Ratio (x) = 0.40435 -0.08575
# Poissons Ratio (y) = 0.14906 0.08281
# Poissons Ratio (z) = -0.07170 0.18783
#
# Static dielectric constant tensor:
#      x y z
#    x 7.521730 0.000000 4.724820 
#    y 0.000000 1.909960 0.000000 
#    z 4.724820 0.000000 5.742460 
# 
# From -- ./inp_files/81086.got.cif
#   From: 2010.05.17/outbox.cif.g08.bks.cpg/sg15_41_cif.got.tgz:81086.got - 2010.06.03 18:47:42.
