data_PCOD9305592
_publ_section_title
;
Structure prediction by ZEFSAII (Michael W. Deem and Ramdas Pophale) SiO2 
 PCOD9305592
Probable space group: C 2/C
;
_chemical_formula_sum "Si O2"
_cell_formula_units_Z 52
_cell_length_a 17.250384
_cell_length_b 19.234515
_cell_length_c 9.014985
_cell_angle_alpha 90.000000
_cell_angle_beta 49.692930
_cell_angle_gamma 90.000000
_cell_volume 2281.052468
_symmetry_space_group_name_H-M "C 2/C"
_symmetry_group_IT_number 15
_symmetry_cell_setting 'monoclinic'
loop_
_space_group_symop_operation_xyz
x,y,z
-x,y,1/2-z
-x,-y,-z
x,-y,1/2+z
1/2+x,1/2+y,z
1/2-x,1/2+y,1/2-z
1/2-x,1/2-y,-z
1/2+x,1/2-y,1/2+z
loop_
_atom_site_type_symbol
_atom_site_label
_atom_site_fract_x
_atom_site_fract_y
_atom_site_fract_z
Si Si1 0.500000 0.742819 0.250000
Si Si2 0.765636 0.566412 0.051378
Si Si3 0.000000 0.838069 0.250000
Si Si4 0.812488 0.157691 0.571374
Si Si5 0.112808 0.479704 0.811809
Si Si6 0.401215 0.545359 0.668877
Si Si7 0.395067 0.221744 0.586271
Si Si8 0.000000 0.385932 0.750000
O O1 0.417602 0.698377 0.440680
O O2 0.565615 0.779544 0.293911
O O3 0.825915 0.557021 0.131158
O O4 0.676476 0.509586 0.166260
O O5 0.719178 0.640308 0.060334
O O6 0.836943 0.546754 0.824375
O O7 0.932138 0.891575 0.238646
O O8 0.930844 0.789658 0.445641
O O9 0.842411 0.084621 0.609967
O O10 0.723744 0.200867 0.762027
O O11 0.094182 0.429494 0.695559
O O12 0.000000 0.500000 0.000000
O O13 0.500000 0.500000 0.500000
O O14 0.457221 0.160774 0.431983
#
# Coordination Sequence:
#
# PCOD9305592 Si02
#       8
#     4   8   4   8   8   8   8   4
#     4  12  26  51  69 101 141 188 248 308 358 428
#     4  12  25  42  72 111 142 193 237 297 375 436
#     4  11  26  51  78 106 147 195 242 308 366 437
#     4  12  25  47  73 106 148 188 248 302 366 442
#     4  12  23  43  67 104 150 189 238 298 361 440
#     4  12  25  48  75 114 147 187 243 308 372 437
#     4  11  27  48  72 106 141 199 246 295 367 430
#     4  11  24  46  67 103 146 189 240 294 362 441
#
# _framework density 22.796496000000001
#
# number of rings (size 3 to 8) (size 9 to 14) (size 15 to 20)
#    0.000    0.308    4.615    4.154    2.154    0.615 
#    2.769    0.000    0.000    0.000    0.000    0.000 
#    0.000    0.000    0.000    0.000    0.000    0.000 
#
# Total GULP energy -145369.356023 kJ/mol
# GULP energy per Si atom -5591.129078 kJ/mol
# Density = 2.274461 g / cm^3
# Si number density = 22.796496 Si / 1000 Ang^3
#
#
#
# Elastic Constant Matrix: (Units=GPa)
#
#
# Indices 1 2 3 4 5 6 
#
# 1 121.7241 35.4785 20.5379 0.0000 5.3348 0.0000
# 2 35.4785 74.1038 21.4430 0.0000 -4.9924 0.0000
# 3 20.5379 21.4430 87.9525 0.0000 -21.2199 0.0000
# 4 0.0000 0.0000 0.0000 39.6634 0.0000 6.7765
# 5 5.3348 -4.9924 -21.2199 0.0000 50.1611 0.0000
# 6 0.0000 0.0000 0.0000 6.7765 0.0000 40.9764
#
#
#
# Elastic Compliance Matrix: (Units=1/GPa)
#
#
# Indices 1 2 3 4 5 6 
#
# 1 0.009888 -0.004369 -0.001785 0.000000 -0.002241 0.000000
# 2 -0.004369 0.016449 -0.002765 0.000000 0.000932 0.000000
# 3 -0.001785 -0.002765 0.013854 0.000000 0.005775 0.000000
# 4 0.000000 0.000000 0.000000 0.025945 0.000000 -0.004291
# 5 -0.002241 0.000932 0.005775 0.000000 0.022710 0.000000
# 6 0.000000 0.000000 0.000000 -0.004291 0.000000 0.025114
#
#
# Mechanical properties :
#
#
# Convention : Reuss Voigt Hill
#
# Bulk Modulus (GPa) = 44.73490 48.74437 46.73963
# Shear Modulus (GPa) = 35.90692 39.91491 37.91092
#
# Velocity S-wave (km/s) = 3.97307 4.18894 4.08243
# Velocity P-wave (km/s) = 6.38069 6.69516 6.53981
#
# Compressibility (1/GPa) = 0.02235391
#
# Stress axis : x y z
#
# Youngs Moduli (GPa) = 101.13310 60.79347 72.18078
#
# Poissons Ratio (x) = 0.26558 0.12882
# Poissons Ratio (y) = 0.44181 0.19961
# Poissons Ratio (z) = 0.18049 0.16812
#
# Static dielectric constant tensor:
#      x y z
#    x 1.924780 0.000000 0.072020 
#    y 0.000000 1.908950 0.000000 
#    z 0.072020 0.000000 1.877560 
# 
# From -- ./inp_files/50608.got.cif
#   From: 2010.05.17/outbox.cif.g08.bks.cpg/sg15_26_cif.got.tgz:50608.got - 2010.06.03 18:47:42.
