data_PCOD9305125
_publ_section_title
;
Structure prediction by ZEFSAII (Michael W. Deem and Ramdas Pophale) SiO2 
 PCOD9305125
Probable space group: C 2/C
;
_chemical_formula_sum "Si O2"
_cell_formula_units_Z 40
_cell_length_a 9.008077
_cell_length_b 16.161344
_cell_length_c 24.656303
_cell_angle_alpha 90.000000
_cell_angle_beta 150.873179
_cell_angle_gamma 90.000000
_cell_volume 1747.183197
_symmetry_space_group_name_H-M "C 2/C"
_symmetry_group_IT_number 15
_symmetry_cell_setting 'monoclinic'
loop_
_space_group_symop_operation_xyz
x,y,z
-x,y,1/2-z
-x,-y,-z
x,-y,1/2+z
1/2+x,1/2+y,z
1/2-x,1/2+y,1/2-z
1/2-x,1/2-y,-z
1/2+x,1/2-y,1/2+z
loop_
_atom_site_type_symbol
_atom_site_label
_atom_site_fract_x
_atom_site_fract_y
_atom_site_fract_z
Si Si1 0.180674 0.915798 0.361900
Si Si2 0.121026 0.068141 0.414439
Si Si3 0.062247 0.766519 0.152338
Si Si4 0.753510 0.162899 0.373642
Si Si5 0.782932 0.249057 0.101246
O O1 0.525525 0.941117 0.456095
O O2 0.000000 0.897372 0.250000
O O3 0.163720 0.836849 0.396690
O O4 0.040917 0.992518 0.350227
O O5 0.133559 0.154555 0.385730
O O6 0.882018 0.079979 0.387179
O O7 0.119256 0.762177 0.106874
O O8 0.384042 0.788447 0.283591
O O9 0.935151 0.677220 0.131657
O O10 0.500000 0.196137 0.250000
O O11 0.068380 0.211495 0.486706
#
# Coordination Sequence:
#
# PCOD9305125 Si02
#       5
#     8   8   8   8   8
#     4  11  25  45  67  95 138 181 212 277 341 400
#     4  11  25  42  68  98 131 175 227 267 341 394
#     4  11  24  42  70  96 134 176 221 280 327 388
#     4  12  23  40  70 102 130 174 225 281 314 399
#     4  11  24  43  69 102 131 175 231 270 333 398
#
# _framework density 22.893991
#
# number of rings (size 3 to 8) (size 9 to 14) (size 15 to 20)
#    0.000    0.800    4.000    3.000    2.800    0.000 
#    7.200    1.000    0.000    0.000    0.000    0.000 
#    0.000    0.000    0.000    0.000    0.000    0.000 
#
# Total GULP energy -111583.379306 kJ/mol
# GULP energy per Si atom -5579.168965 kJ/mol
# Density = 2.284188 g / cm^3
# Si number density = 22.893991 Si / 1000 Ang^3
#
#
#
# Elastic Constant Matrix: (Units=GPa)
#
#
# Indices 1 2 3 4 5 6 
#
# 1 123.3589 15.3983 18.0175 0.0003 14.4524 -0.0002
# 2 15.3983 63.0583 3.9514 0.0009 -11.9057 0.0004
# 3 18.0175 3.9514 116.6379 0.0069 -2.6718 0.0014
# 4 0.0003 0.0009 0.0069 19.2994 0.0011 1.2837
# 5 14.4524 -11.9057 -2.6718 0.0011 27.8676 0.0003
# 6 -0.0002 0.0004 0.0014 1.2837 0.0003 41.5912
#
#
#
# Elastic Compliance Matrix: (Units=1/GPa)
#
#
# Indices 1 2 3 4 5 6 
#
# 1 0.009530 -0.003473 -0.001505 0.000001 -0.006570 0.000000
# 2 -0.003473 0.018536 0.000132 -0.000001 0.009733 0.000000
# 3 -0.001505 0.000132 0.008840 -0.000003 0.001684 0.000000
# 4 0.000001 -0.000001 -0.000003 0.051922 -0.000004 -0.001603
# 5 -0.006570 0.009733 0.001684 -0.000004 0.043611 0.000000
# 6 0.000000 0.000000 0.000000 -0.001603 0.000000 0.024093
#
#
# Mechanical properties :
#
#
# Convention : Reuss Voigt Hill
#
# Bulk Modulus (GPa) = 36.74807 41.97659 39.36233
# Shear Modulus (GPa) = 28.52333 35.46417 31.99375
#
# Velocity S-wave (km/s) = 3.53354 3.94008 3.74234
# Velocity P-wave (km/s) = 5.72138 6.25092 5.99200
#
# Compressibility (1/GPa) = 0.02721232
#
# Stress axis : x y z
#
# Youngs Moduli (GPa) = 104.93703 53.94951 113.12045
#
# Poissons Ratio (x) = 0.18738 0.17023
# Poissons Ratio (y) = 0.36447 -0.01488
# Poissons Ratio (z) = 0.15792 -0.00710
#
# Static dielectric constant tensor:
#      x y z
#    x 1.867480 0.000000 0.047450 
#    y 0.000000 1.835090 0.000000 
#    z 0.047450 0.000000 1.921990 
# 
# From -- ./inp_files/77735.got.cif
#   From: 2010.05.17/outbox.cif.g08.bks.cpg/sg15_39_cif.got.tgz:77735.got - 2010.06.03 18:47:42.
