data_PCOD9305444
_publ_section_title
;
Structure prediction by ZEFSAII (Michael W. Deem and Ramdas Pophale) SiO2 
 PCOD9305444
Probable space group: C 2/C
;
_chemical_formula_sum "Si O2"
_cell_formula_units_Z 48
_cell_length_a 9.095576
_cell_length_b 10.831265
_cell_length_c 22.588672
_cell_angle_alpha 90.000000
_cell_angle_beta 99.903939
_cell_angle_gamma 90.000000
_cell_volume 2192.195624
_symmetry_space_group_name_H-M "C 2/C"
_symmetry_group_IT_number 15
_symmetry_cell_setting 'monoclinic'
loop_
_space_group_symop_operation_xyz
x,y,z
-x,y,1/2-z
-x,-y,-z
x,-y,1/2+z
1/2+x,1/2+y,z
1/2-x,1/2+y,1/2-z
1/2-x,1/2-y,-z
1/2+x,1/2-y,1/2+z
loop_
_atom_site_type_symbol
_atom_site_label
_atom_site_fract_x
_atom_site_fract_y
_atom_site_fract_z
Si Si1 0.246197 0.989341 0.500413
Si Si2 0.546471 0.147837 0.408578
Si Si3 0.315784 0.167321 0.892112
Si Si4 0.976301 0.197397 0.016704
Si Si5 0.172405 0.584445 0.742143
Si Si6 0.141782 0.317914 0.718260
O O1 0.368668 0.972074 0.560220
O O2 0.300486 0.938347 0.441051
O O3 0.111221 0.897260 0.509642
O O4 0.174180 0.121898 0.490263
O O5 0.675957 0.240480 0.393684
O O6 0.477735 0.208552 0.462418
O O7 0.427425 0.137665 0.348690
O O8 0.466764 0.239516 0.919543
O O9 0.313416 0.121451 0.825548
O O10 0.221739 0.440188 0.751407
O O11 0.262337 0.693433 0.781302
O O12 0.000000 0.586028 0.750000
O O13 0.000000 0.288346 0.750000
#
# Coordination Sequence:
#
# PCOD9305444 Si02
#       6
#     8   8   8   8   8   8
#     4   8  15  29  55  93 123 161 200 254 314 382
#     4   9  17  34  62  88 122 163 211 255 313 385
#     4   9  17  35  58  88 126 162 207 260 312 383
#     4   8  15  28  54  95 128 154 200 253 321 377
#     4  11  26  44  63  93 128 167 224 274 317 380
#     4  11  24  45  66  90 125 175 220 269 323 376
#
# _framework density 21.895855999999998
#
# number of rings (size 3 to 8) (size 9 to 14) (size 15 to 20)
#    0.000    2.667    1.667    2.000    0.000    4.667 
#    6.000    3.333    0.000    6.000    0.000    0.000 
#    0.000    0.000    0.000    0.000    0.000    0.000 
#
# Total GULP energy -134101.346695 kJ/mol
# GULP energy per Si atom -5587.556112 kJ/mol
# Density = 2.184602 g / cm^3
# Si number density = 21.895856 Si / 1000 Ang^3
#
#
#
# Elastic Constant Matrix: (Units=GPa)
#
#
# Indices 1 2 3 4 5 6 
#
# 1 59.6799 49.1982 8.8596 0.0000 9.4256 0.0000
# 2 49.1982 99.0558 -7.8119 0.0000 24.2150 0.0000
# 3 8.8596 -7.8119 60.6251 0.0000 16.6737 0.0000
# 4 0.0000 0.0000 0.0000 13.6362 0.0000 10.6459
# 5 9.4256 24.2150 16.6737 0.0000 30.1577 0.0000
# 6 0.0000 0.0000 0.0000 10.6459 0.0000 42.3821
#
#
#
# Elastic Compliance Matrix: (Units=1/GPa)
#
#
# Indices 1 2 3 4 5 6 
#
# 1 0.033089 -0.020140 -0.010654 0.000000 0.011720 0.000000
# 2 -0.020140 0.026368 0.012304 0.000000 -0.021680 0.000000
# 3 -0.010654 0.012304 0.025283 0.000000 -0.020528 0.000000
# 4 0.000000 0.000000 0.000000 0.091224 0.000000 -0.022914
# 5 0.011720 -0.021680 -0.020528 0.000000 0.058254 0.000000
# 6 0.000000 0.000000 0.000000 -0.022914 0.000000 0.029351
#
#
# Mechanical properties :
#
#
# Convention : Reuss Voigt Hill
#
# Bulk Modulus (GPa) = 20.93775 35.53916 28.23845
# Shear Modulus (GPa) = 15.79936 28.50953 22.15444
#
# Velocity S-wave (km/s) = 2.68912 3.61231 3.18435
# Velocity P-wave (km/s) = 4.38463 5.80212 5.14245
#
# Compressibility (1/GPa) = 0.04776063
#
# Stress axis : x y z
#
# Youngs Moduli (GPa) = 30.22144 37.92434 39.55243
#
# Poissons Ratio (x) = 0.76378 0.42139
# Poissons Ratio (y) = 0.60865 -0.48664
# Poissons Ratio (z) = 0.32198 -0.46661
#
# Static dielectric constant tensor:
#      x y z
#    x 1.809480 0.000000 0.025520 
#    y 0.000000 1.874730 0.000000 
#    z 0.025520 0.000000 1.766570 
# 
# From -- ./inp_files/263256.got.cif
#   From: 2010.05.17/outbox.cif.g08.bks.cpg/sg15_132_cif.got.tgz:263256.got - 2010.06.03 18:47:42.
