data_PCOD9305040
_publ_section_title
;
Structure prediction by ZEFSAII (Michael W. Deem and Ramdas Pophale) SiO2 
 PCOD9305040
Probable space group: C 2/C
;
_chemical_formula_sum "Si O2"
_cell_formula_units_Z 52
_cell_length_a 26.937842
_cell_length_b 5.615249
_cell_length_c 17.241212
_cell_angle_alpha 90.000000
_cell_angle_beta 112.488201
_cell_angle_gamma 90.000000
_cell_volume 2409.639051
_symmetry_space_group_name_H-M "C 2/C"
_symmetry_group_IT_number 15
_symmetry_cell_setting 'monoclinic'
loop_
_space_group_symop_operation_xyz
x,y,z
-x,y,1/2-z
-x,-y,-z
x,-y,1/2+z
1/2+x,1/2+y,z
1/2-x,1/2+y,1/2-z
1/2-x,1/2-y,-z
1/2+x,1/2-y,1/2+z
loop_
_atom_site_type_symbol
_atom_site_label
_atom_site_fract_x
_atom_site_fract_y
_atom_site_fract_z
Si Si1 0.000000 0.878761 0.750000
Si Si2 0.394542 0.598401 0.617619
Si Si3 0.966282 0.803879 0.024578
Si Si4 0.351454 0.933113 0.708603
Si Si5 0.233335 0.115072 0.778558
Si Si6 0.214598 0.167232 0.407616
Si Si7 0.957278 0.555060 0.860091
O O1 0.009629 0.726243 0.677581
O O2 0.055415 0.016242 0.799326
O O3 0.416011 0.606437 0.543419
O O4 0.376636 0.850244 0.642238
O O5 0.341575 0.440656 0.595924
O O6 0.006471 0.680419 0.110018
O O7 0.949728 0.631553 0.944776
O O8 0.000000 0.000000 0.000000
O O9 0.327373 0.709901 0.742537
O O10 0.304508 0.115498 0.658523
O O11 0.399277 0.035988 0.787456
O O12 0.261248 0.364704 0.766650
O O13 0.247008 0.022862 0.873812
O O14 0.250000 0.250000 0.500000
#
# Coordination Sequence:
#
# PCOD9305040 Si02
#       7
#     4   8   8   8   8   8   8
#     4  12  20  42  74 100 144 198 244 298 364 452
#     4  11  24  42  72 103 146 195 248 306 371 447
#     4  11  24  44  62 106 147 185 237 304 371 438
#     4  11  24  47  73 106 142 200 252 300 379 453
#     4  11  24  50  77 108 145 191 252 319 376 443
#     4  11  26  50  74 109 150 200 257 315 382 451
#     4  11  24  41  70  99 148 185 244 297 369 454
#
# _framework density 21.579996000000001
#
# number of rings (size 3 to 8) (size 9 to 14) (size 15 to 20)
#    0.000    0.923    4.615    1.846    0.000    2.462 
#   11.077    0.000    0.000    0.000    0.000    0.000 
#    0.000    0.000    0.000    0.000    0.000    0.000 
#
# Total GULP energy -145014.445003 kJ/mol
# GULP energy per Si atom -5577.478654 kJ/mol
# Density = 2.153088 g / cm^3
# Si number density = 21.579996 Si / 1000 Ang^3
#
#
#
# Elastic Constant Matrix: (Units=GPa)
#
#
# Indices 1 2 3 4 5 6 
#
# 1 114.8634 48.4840 46.0075 0.0000 -25.5823 0.0000
# 2 48.4840 90.7716 35.8906 -0.0002 -7.8204 0.0002
# 3 46.0075 35.8906 93.3861 0.0000 7.2908 0.0000
# 4 0.0000 -0.0002 0.0000 28.2976 0.0000 -8.8811
# 5 -25.5823 -7.8204 7.2908 0.0000 43.1260 0.0000
# 6 0.0000 0.0002 0.0000 -8.8811 0.0000 49.8592
#
#
#
# Elastic Compliance Matrix: (Units=1/GPa)
#
#
# Indices 1 2 3 4 5 6 
#
# 1 0.015443 -0.004887 -0.006461 0.000000 0.009367 0.000000
# 2 -0.004887 0.015001 -0.003388 0.000000 0.000394 0.000000
# 3 -0.006461 -0.003388 0.015749 0.000000 -0.007110 0.000000
# 4 0.000000 0.000000 0.000000 0.037431 0.000000 0.006667
# 5 0.009367 0.000394 -0.007110 0.000000 0.030018 0.000000
# 6 0.000000 0.000000 0.000000 0.006667 0.000000 0.021244
#
#
# Mechanical properties :
#
#
# Convention : Reuss Voigt Hill
#
# Bulk Modulus (GPa) = 59.81077 62.19835 61.00456
# Shear Modulus (GPa) = 29.42370 35.49917 32.46143
#
# Velocity S-wave (km/s) = 3.69653 4.06026 3.88266
# Velocity P-wave (km/s) = 6.78197 7.13203 6.95920
#
# Compressibility (1/GPa) = 0.01671940
#
# Stress axis : x y z
#
# Youngs Moduli (GPa) = 64.75465 66.66425 63.49732
#
# Poissons Ratio (x) = 0.32578 0.41027
# Poissons Ratio (y) = 0.31644 0.21515
# Poissons Ratio (z) = 0.41840 0.22588
#
# Static dielectric constant tensor:
#      x y z
#    x 1.784600 0.000000 -0.040970 
#    y 0.000000 1.904440 0.000000 
#    z -0.040970 0.000000 1.764020 
# 
# From -- ./inp_files/180035.got.cif
#   From: 2010.05.17/outbox.cif.g08.bks.cpg/sg15_91_cif.got.tgz:180035.got - 2010.06.03 18:47:42.
