data_PCOD9305687
_publ_section_title
;
Structure prediction by ZEFSAII (Michael W. Deem and Ramdas Pophale) SiO2 
 PCOD9305687
Probable space group: C 2/C
;
_chemical_formula_sum "Si O2"
_cell_formula_units_Z 60
_cell_length_a 11.776695
_cell_length_b 28.121308
_cell_length_c 16.976654
_cell_angle_alpha 90.000000
_cell_angle_beta 150.671865
_cell_angle_gamma 90.000000
_cell_volume 2753.843400
_symmetry_space_group_name_H-M "C 2/C"
_symmetry_group_IT_number 15
_symmetry_cell_setting 'monoclinic'
loop_
_space_group_symop_operation_xyz
x,y,z
-x,y,1/2-z
-x,-y,-z
x,-y,1/2+z
1/2+x,1/2+y,z
1/2-x,1/2+y,1/2-z
1/2-x,1/2-y,-z
1/2+x,1/2-y,1/2+z
loop_
_atom_site_type_symbol
_atom_site_label
_atom_site_fract_x
_atom_site_fract_y
_atom_site_fract_z
Si Si1 0.686309 0.669797 0.692820
Si Si2 0.667531 0.365657 0.012567
Si Si3 0.177038 0.301958 0.928812
Si Si4 0.657508 0.030928 0.917669
Si Si5 0.336398 0.846895 0.846709
Si Si6 0.500000 0.518042 0.750000
Si Si7 0.855199 0.708876 0.508277
Si Si8 0.386659 0.922589 0.394822
O O1 0.738481 0.662296 0.633057
O O2 0.418696 0.676789 0.546489
O O3 0.751923 0.621690 0.776378
O O4 0.864837 0.710708 0.828343
O O5 0.393823 0.358765 0.839631
O O6 0.743617 0.420112 0.059592
O O7 0.785866 0.339726 0.010777
O O8 0.000000 0.299634 0.750000
O O9 0.049538 0.330283 0.921593
O O10 0.250000 0.250000 0.000000
O O11 0.500000 0.008503 0.750000
O O12 0.485243 0.044968 0.884680
O O13 0.875517 0.007865 0.098568
O O14 0.278451 0.803653 0.872931
O O15 0.409285 0.895727 0.934408
O O16 0.288163 0.548577 0.656506
O O17 0.750000 0.750000 0.500000
#
# Coordination Sequence:
#
# PCOD9305687 Si02
#       8
#     8   8   8   8   8   4   8   8
#     4  11  24  46  73  94 146 190 231 302 356 431
#     4  12  22  44  68 105 139 184 230 299 362 426
#     4  12  29  46  63  98 139 191 252 297 352 424
#     4  12  24  47  74 110 146 183 234 306 382 435
#     4  11  25  44  73  97 143 191 239 298 360 429
#     4  12  28  46  76 104 148 190 248 300 364 462
#     4  11  26  40  70 107 141 182 240 293 363 431
#     4  11  24  49  70 105 140 188 236 293 373 441
#
# _framework density 21.78773
#
# number of rings (size 3 to 8) (size 9 to 14) (size 15 to 20)
#    0.000    0.533    5.333    2.800    7.467    1.600 
#    2.400    0.000    0.000    0.000    0.000    0.000 
#    0.000    0.000    0.000    0.000    0.000    0.000 
#
# Total GULP energy -167599.921430 kJ/mol
# GULP energy per Si atom -5586.664048 kJ/mol
# Density = 2.173814 g / cm^3
# Si number density = 21.787730 Si / 1000 Ang^3
#
#
#
# Elastic Constant Matrix: (Units=GPa)
#
#
# Indices 1 2 3 4 5 6 
#
# 1 89.2117 12.3588 6.1038 -0.0002 8.0831 0.0001
# 2 12.3588 42.2333 22.7110 -0.0002 0.7504 -0.0002
# 3 6.1038 22.7110 113.0454 0.0000 5.4569 0.0004
# 4 -0.0002 -0.0002 0.0000 22.8009 -0.0001 7.5092
# 5 8.0831 0.7504 5.4569 -0.0001 43.4435 0.0003
# 6 0.0001 -0.0002 0.0004 7.5092 0.0003 44.6014
#
#
#
# Elastic Compliance Matrix: (Units=1/GPa)
#
#
# Indices 1 2 3 4 5 6 
#
# 1 0.011884 -0.003532 0.000173 0.000000 -0.002172 0.000000
# 2 -0.003532 0.027597 -0.005395 0.000000 0.000858 0.000000
# 3 0.000173 -0.005395 0.009978 0.000000 -0.001192 0.000000
# 4 0.000000 0.000000 0.000000 0.046432 0.000000 -0.007817
# 5 -0.002172 0.000858 -0.001192 0.000000 0.023557 0.000000
# 6 0.000000 0.000000 0.000000 -0.007817 0.000000 0.023737
#
#
# Mechanical properties :
#
#
# Convention : Reuss Voigt Hill
#
# Bulk Modulus (GPa) = 31.29815 36.31531 33.80673
# Shear Modulus (GPa) = 29.18097 35.72361 32.45229
#
# Velocity S-wave (km/s) = 3.66366 4.05362 3.86356
# Velocity P-wave (km/s) = 5.68267 6.21394 5.95423
#
# Compressibility (1/GPa) = 0.03195077
#
# Stress axis : x y z
#
# Youngs Moduli (GPa) = 84.15012 36.23519 100.21935
#
# Poissons Ratio (x) = 0.12798 -0.01731
# Poissons Ratio (y) = 0.29720 0.54069
# Poissons Ratio (z) = -0.01454 0.19549
#
# Static dielectric constant tensor:
#      x y z
#    x 1.834670 0.000000 0.010910 
#    y 0.000000 1.787340 0.000000 
#    z 0.010910 0.000000 1.942530 
# 
# From -- ./inp_files/201288.got.cif
#   From: 2010.05.17/outbox.cif.g08.bks.cpg/sg15_101_cif.got.tgz:201288.got - 2010.06.03 18:47:42.
