data_PCOD9305129
_publ_section_title
;
Structure prediction by ZEFSAII (Michael W. Deem and Ramdas Pophale) SiO2 
 PCOD9305129
Probable space group: C 2/C
;
_chemical_formula_sum "Si O2"
_cell_formula_units_Z 44
_cell_length_a 13.931149
_cell_length_b 25.723211
_cell_length_c 8.026154
_cell_angle_alpha 90.000000
_cell_angle_beta 45.813658
_cell_angle_gamma 90.000000
_cell_volume 2062.458709
_symmetry_space_group_name_H-M "C 2/C"
_symmetry_group_IT_number 15
_symmetry_cell_setting 'monoclinic'
loop_
_space_group_symop_operation_xyz
x,y,z
-x,y,1/2-z
-x,-y,-z
x,-y,1/2+z
1/2+x,1/2+y,z
1/2-x,1/2+y,1/2-z
1/2-x,1/2-y,-z
1/2+x,1/2-y,1/2+z
loop_
_atom_site_type_symbol
_atom_site_label
_atom_site_fract_x
_atom_site_fract_y
_atom_site_fract_z
Si Si1 0.460147 0.287157 0.477440
Si Si2 0.737575 0.062426 0.587902
Si Si3 0.671401 0.774905 0.936131
Si Si4 0.500000 0.127851 0.750000
Si Si5 0.589789 0.595943 0.428550
Si Si6 0.177434 0.949072 0.142197
O O1 0.500000 0.267043 0.250000
O O2 0.551320 0.259303 0.505732
O O3 0.300681 0.280454 0.666316
O O4 0.481979 0.348725 0.472496
O O5 0.594265 0.088784 0.736279
O O6 0.841986 0.090562 0.333954
O O7 0.758839 0.066219 0.759308
O O8 0.761084 0.003197 0.497579
O O9 0.750000 0.750000 0.000000
O O10 0.605254 0.831204 0.043843
O O11 0.478571 0.552403 0.607618
O O12 0.688074 0.588803 0.468627
#
# Coordination Sequence:
#
# PCOD9305129 Si02
#       6
#     8   8   8   4   8   8
#     4  12  25  47  76 107 151 192 250 314 375 440
#     4  12  25  44  71 100 148 194 239 304 364 440
#     4  12  26  48  75 107 147 196 251 307 376 448
#     4  12  28  46  70 110 142 198 254 292 388 450
#     4  11  24  42  71 111 140 183 251 302 369 441
#     4  11  24  42  71 104 143 186 244 299 373 430
#
# _framework density 21.333760000000002
#
# number of rings (size 3 to 8) (size 9 to 14) (size 15 to 20)
#    0.000    0.364    7.273    1.636    5.091    2.182 
#    3.273    0.000    0.000    0.000    0.000    0.000 
#    0.000    0.000    0.000    0.000    0.000    0.000 
#
# Total GULP energy -122561.380103 kJ/mol
# GULP energy per Si atom -5570.971823 kJ/mol
# Density = 2.128520 g / cm^3
# Si number density = 21.333760 Si / 1000 Ang^3
#
#
#
# Elastic Constant Matrix: (Units=GPa)
#
#
# Indices 1 2 3 4 5 6 
#
# 1 178.0592 66.3034 37.9541 0.0000 1.4114 0.0000
# 2 66.3034 98.3625 6.2763 0.0000 -3.3968 0.0000
# 3 37.9541 6.2763 71.8257 0.0000 -14.3952 0.0000
# 4 0.0000 0.0000 0.0000 24.0311 0.0000 -0.1894
# 5 1.4114 -3.3968 -14.3952 0.0000 37.4355 0.0000
# 6 0.0000 0.0000 0.0000 -0.1894 0.0000 44.4911
#
#
#
# Elastic Compliance Matrix: (Units=1/GPa)
#
#
# Indices 1 2 3 4 5 6 
#
# 1 0.008748 -0.005691 -0.004654 0.000000 -0.002636 0.000000
# 2 -0.005691 0.013939 0.002260 0.000000 0.002348 0.000000
# 3 -0.004654 0.002260 0.017618 0.000000 0.007155 0.000000
# 4 0.000000 0.000000 0.000000 0.041614 0.000000 0.000177
# 5 -0.002636 0.002348 0.007155 0.000000 0.029776 0.000000
# 6 0.000000 0.000000 0.000000 0.000177 0.000000 0.022477
#
#
# Mechanical properties :
#
#
# Convention : Reuss Voigt Hill
#
# Bulk Modulus (GPa) = 41.43140 63.25724 52.34432
# Shear Modulus (GPa) = 31.56800 37.03912 34.30356
#
# Velocity S-wave (km/s) = 3.85089 4.17126 4.01427
# Velocity P-wave (km/s) = 6.26380 7.27426 6.78786
#
# Compressibility (1/GPa) = 0.02413628
#
# Stress axis : x y z
#
# Youngs Moduli (GPa) = 114.31148 71.73892 56.75942
#
# Poissons Ratio (x) = 0.40826 0.26413
# Poissons Ratio (y) = 0.65053 -0.12826
# Poissons Ratio (z) = 0.53196 -0.16211
#
# Static dielectric constant tensor:
#      x y z
#    x 1.863460 0.000000 -0.016920 
#    y 0.000000 1.825490 0.000000 
#    z -0.016920 0.000000 1.841440 
# 
# From -- ./inp_files/33980.got.cif
#   From: 2010.05.17/outbox.cif.g08.bks.cpg/sg15_17_cif.got.tgz:33980.got - 2010.06.03 18:47:42.
