data_PCOD9305637
_publ_section_title
;
Structure prediction by ZEFSAII (Michael W. Deem and Ramdas Pophale) SiO2 
 PCOD9305637
Probable space group: C 2/C
;
_chemical_formula_sum "Si O2"
_cell_formula_units_Z 44
_cell_length_a 17.790210
_cell_length_b 11.924243
_cell_length_c 12.074607
_cell_angle_alpha 90.000000
_cell_angle_beta 123.367710
_cell_angle_gamma 90.000000
_cell_volume 2139.210509
_symmetry_space_group_name_H-M "C 2/C"
_symmetry_group_IT_number 15
_symmetry_cell_setting 'monoclinic'
loop_
_space_group_symop_operation_xyz
x,y,z
-x,y,1/2-z
-x,-y,-z
x,-y,1/2+z
1/2+x,1/2+y,z
1/2-x,1/2+y,1/2-z
1/2-x,1/2-y,-z
1/2+x,1/2-y,1/2+z
loop_
_atom_site_type_symbol
_atom_site_label
_atom_site_fract_x
_atom_site_fract_y
_atom_site_fract_z
Si Si1 0.042843 0.703361 0.633149
Si Si2 0.500000 0.992850 0.250000
Si Si3 0.836837 0.761130 0.420864
Si Si4 0.376337 0.177840 0.042058
Si Si5 0.831410 0.877318 0.644453
Si Si6 0.668838 0.363502 0.328878
O O1 0.090959 0.705418 0.554281
O O2 0.088696 0.799633 0.743758
O O3 0.052969 0.587527 0.708087
O O4 0.936651 0.716549 0.526416
O O5 0.432294 0.072848 0.130792
O O6 0.817354 0.850254 0.503109
O O7 0.760432 0.665339 0.370374
O O8 0.836181 0.816020 0.299547
O O9 0.386235 0.282762 0.133324
O O10 0.272011 0.145578 0.951942
O O11 0.854807 0.006004 0.684244
#
# Coordination Sequence:
#
# PCOD9305637 Si02
#       6
#     8   4   8   8   8   8
#     4  12  24  48  71 105 137 186 239 289 346 416
#     4  12  24  46  74 102 138 182 244 290 344 420
#     4  11  24  46  71 102 138 188 236 280 356 415
#     4  11  26  45  68 108 138 181 238 288 358 410
#     4  11  25  45  71 104 137 185 238 285 351 417
#     4  11  26  44  71 101 147 185 225 296 353 414
#
# _framework density 20.568335000000001
#
# number of rings (size 3 to 8) (size 9 to 14) (size 15 to 20)
#    0.000    0.727    3.636    2.727    5.091    2.182 
#    6.545    0.000    0.000    0.000    0.000    0.000 
#    0.000    0.000    0.000    0.000    0.000    0.000 
#
# Total GULP energy -123112.426180 kJ/mol
# GULP energy per Si atom -5596.019372 kJ/mol
# Density = 2.052152 g / cm^3
# Si number density = 20.568335 Si / 1000 Ang^3
#
#
#
# Elastic Constant Matrix: (Units=GPa)
#
#
# Indices 1 2 3 4 5 6 
#
# 1 77.8797 43.0913 20.8126 0.0000 -18.9415 0.0000
# 2 43.0913 167.9512 64.7254 0.0000 -26.5953 0.0000
# 3 20.8126 64.7254 111.7371 0.0000 -23.5921 0.0000
# 4 0.0000 0.0000 0.0000 12.1605 0.0000 8.5063
# 5 -18.9415 -26.5953 -23.5921 0.0000 60.4206 0.0000
# 6 0.0000 0.0000 0.0000 8.5063 0.0000 26.9820
#
#
#
# Elastic Compliance Matrix: (Units=1/GPa)
#
#
# Indices 1 2 3 4 5 6 
#
# 1 0.015579 -0.003379 -0.000248 0.000000 0.003300 0.000000
# 2 -0.003379 0.008580 -0.004105 0.000000 0.001114 0.000000
# 3 -0.000248 -0.004105 0.011962 0.000000 0.002786 0.000000
# 4 0.000000 0.000000 0.000000 0.105498 0.000000 -0.033259
# 5 0.003300 0.001114 0.002786 0.000000 0.019163 0.000000
# 6 0.000000 0.000000 0.000000 -0.033259 0.000000 0.047547
#
#
# Mechanical properties :
#
#
# Convention : Reuss Voigt Hill
#
# Bulk Modulus (GPa) = 48.41115 68.31407 58.36261
# Shear Modulus (GPa) = 21.67519 35.17519 28.42519
#
# Velocity S-wave (km/s) = 3.24977 4.13990 3.72154
# Velocity P-wave (km/s) = 6.13752 7.49246 6.84858
#
# Compressibility (1/GPa) = 0.02065640
#
# Stress axis : x y z
#
# Youngs Moduli (GPa) = 64.19008 116.55563 83.59827
#
# Poissons Ratio (x) = 0.39385 0.02070
# Poissons Ratio (y) = 0.21690 0.34319
# Poissons Ratio (z) = 0.01590 0.47849
#
# Static dielectric constant tensor:
#      x y z
#    x 1.739230 0.000000 0.002180 
#    y 0.000000 1.695470 0.000000 
#    z 0.002180 0.000000 1.716990 
# 
# From -- ./inp_files/104369.got.cif
#   From: 2010.05.17/outbox.cif.g08.bks.cpg/sg15_53_cif.got.tgz:104369.got - 2010.06.03 18:47:42.
