data_PCOD9305640
_publ_section_title
;
Structure prediction by ZEFSAII (Michael W. Deem and Ramdas Pophale) SiO2 
 PCOD9305640
Probable space group: C 2/C
;
_chemical_formula_sum "Si O2"
_cell_formula_units_Z 44
_cell_length_a 33.853887
_cell_length_b 5.172363
_cell_length_c 10.895800
_cell_angle_alpha 90.000000
_cell_angle_beta 71.775549
_cell_angle_gamma 90.000000
_cell_volume 1812.201597
_symmetry_space_group_name_H-M "C 2/C"
_symmetry_group_IT_number 15
_symmetry_cell_setting 'monoclinic'
loop_
_space_group_symop_operation_xyz
x,y,z
-x,y,1/2-z
-x,-y,-z
x,-y,1/2+z
1/2+x,1/2+y,z
1/2-x,1/2+y,1/2-z
1/2-x,1/2-y,-z
1/2+x,1/2-y,1/2+z
loop_
_atom_site_type_symbol
_atom_site_label
_atom_site_fract_x
_atom_site_fract_y
_atom_site_fract_z
Si Si1 0.061328 0.119767 0.518994
Si Si2 0.000000 0.605160 0.250000
Si Si3 0.148988 0.671069 0.978861
Si Si4 0.336939 0.321513 0.901182
Si Si5 0.573142 0.274619 0.743085
Si Si6 0.724314 0.332026 0.740204
O O1 0.100499 0.314713 0.493179
O O2 0.061092 0.056314 0.374903
O O3 0.020070 0.241316 0.616827
O O4 0.070838 0.901165 0.610138
O O5 0.038188 0.443581 0.269539
O O6 0.180964 0.802311 0.854785
O O7 0.163107 0.377496 0.985382
O O8 0.154232 0.874245 0.086965
O O9 0.378055 0.209806 0.791795
O O10 0.292516 0.299822 0.880703
O O11 0.745593 0.603906 0.746133
#
# Coordination Sequence:
#
# PCOD9305640 Si02
#       6
#     8   4   8   8   8   8
#     4  11  25  46  72 106 147 197 248 309 374 449
#     4  12  24  44  72 112 138 196 250 314 364 452
#     4  11  24  46  71 103 145 195 238 304 374 441
#     4  11  24  46  71 103 145 195 238 304 374 441
#     4  11  25  46  72 106 147 197 248 309 374 449
#     4  12  26  44  72 109 141 185 249 308 362 448
#
# _framework density 24.279862000000001
#
# number of rings (size 3 to 8) (size 9 to 14) (size 15 to 20)
#    0.000    0.727    3.636    3.273    0.000    8.727 
#    3.273    0.000    0.000    0.000    0.000    0.000 
#    0.000    0.000    0.000    0.000    0.000    0.000 
#
# Total GULP energy -122845.481717 kJ/mol
# GULP energy per Si atom -5583.885533 kJ/mol
# Density = 2.422460 g / cm^3
# Si number density = 24.279862 Si / 1000 Ang^3
#
#
#
# Elastic Constant Matrix: (Units=GPa)
#
#
# Indices 1 2 3 4 5 6 
#
# 1 151.5463 44.5886 62.8366 0.0000 -1.8311 0.0000
# 2 44.5886 109.7733 68.6772 0.0000 9.4252 0.0000
# 3 62.8366 68.6772 250.6810 0.0000 -5.8354 0.0000
# 4 0.0000 0.0000 0.0000 33.7748 0.0000 -36.5165
# 5 -1.8311 9.4252 -5.8354 0.0000 34.1426 0.0000
# 6 0.0000 0.0000 0.0000 -36.5165 0.0000 86.3418
#
#
#
# Elastic Compliance Matrix: (Units=1/GPa)
#
#
# Indices 1 2 3 4 5 6 
#
# 1 0.007865 -0.002475 -0.001273 0.000000 0.000887 0.000000
# 2 -0.002475 0.012222 -0.002821 0.000000 -0.003989 0.000000
# 3 -0.001273 -0.002821 0.005118 0.000000 0.001585 0.000000
# 4 0.000000 0.000000 0.000000 0.054552 0.000000 0.023072
# 5 0.000887 -0.003989 0.001585 0.000000 0.030709 0.000000
# 6 0.000000 0.000000 0.000000 0.023072 0.000000 0.021340
#
#
# Mechanical properties :
#
#
# Convention : Reuss Voigt Hill
#
# Bulk Modulus (GPa) = 82.86104 96.02286 89.44195
# Shear Modulus (GPa) = 33.56474 53.24507 43.40491
#
# Velocity S-wave (km/s) = 3.72211 4.68800 4.23270
# Velocity P-wave (km/s) = 7.25767 8.30285 7.79779
#
# Compressibility (1/GPa) = 0.01206840
#
# Stress axis : x y z
#
# Youngs Moduli (GPa) = 127.14152 81.81833 195.39042
#
# Poissons Ratio (x) = 0.20247 0.24872
# Poissons Ratio (y) = 0.31462 0.55119
# Poissons Ratio (z) = 0.16184 0.23081
#
# Static dielectric constant tensor:
#      x y z
#    x 1.945390 0.000000 0.045780 
#    y 0.000000 1.931730 0.000000 
#    z 0.045780 0.000000 2.079920 
# 
# From -- ./inp_files/124976.got.cif
#   From: 2010.05.17/outbox.cif.g08.bks.cpg/sg15_63_cif.got.tgz:124976.got - 2010.06.03 18:47:42.
