data_PCOD9305083
_publ_section_title
;
Structure prediction by ZEFSAII (Michael W. Deem and Ramdas Pophale) SiO2 
 PCOD9305083
Probable space group: C 2/C
;
_chemical_formula_sum "Si O2"
_cell_formula_units_Z 56
_cell_length_a 10.243301
_cell_length_b 28.207118
_cell_length_c 14.130264
_cell_angle_alpha 90.000000
_cell_angle_beta 33.585789
_cell_angle_gamma 90.000000
_cell_volume 2258.495748
_symmetry_space_group_name_H-M "C 2/C"
_symmetry_group_IT_number 15
_symmetry_cell_setting 'monoclinic'
loop_
_space_group_symop_operation_xyz
x,y,z
-x,y,1/2-z
-x,-y,-z
x,-y,1/2+z
1/2+x,1/2+y,z
1/2-x,1/2+y,1/2-z
1/2-x,1/2-y,-z
1/2+x,1/2-y,1/2+z
loop_
_atom_site_type_symbol
_atom_site_label
_atom_site_fract_x
_atom_site_fract_y
_atom_site_fract_z
Si Si1 0.784743 0.983329 0.691557
Si Si2 0.930824 0.862172 0.393306
Si Si3 0.500000 0.160686 0.750000
Si Si4 0.814188 0.101782 0.282586
Si Si5 0.505615 0.300711 0.629404
Si Si6 0.226809 0.221478 0.413756
Si Si7 0.366293 0.916162 0.172880
Si Si8 0.500000 0.905529 0.750000
O O1 0.887648 0.952056 0.713565
O O2 0.656852 0.940187 0.717474
O O3 0.619130 0.028383 0.810239
O O4 0.000000 0.000000 0.500000
O O5 0.961901 0.819076 0.445647
O O6 0.669838 0.879048 0.574732
O O7 0.000000 0.842340 0.250000
O O8 0.099500 0.907156 0.302403
O O9 0.720345 0.189359 0.568355
O O10 0.595208 0.122712 0.769471
O O11 0.553064 0.097214 0.480670
O O12 0.000000 0.114385 0.250000
O O13 0.856223 0.150008 0.197953
O O14 0.500000 0.289848 0.750000
O O15 0.372196 0.265092 0.633133
O O16 0.500000 0.205530 0.250000
O O17 0.250000 0.250000 0.500000
#
# Coordination Sequence:
#
# PCOD9305083 Si02
#       8
#     8   8   4   8   8   8   8   4
#     4  12  25  40  60  96 151 204 264 329 387 445
#     4  12  26  45  76 106 148 205 258 318 401 483
#     4  12  21  44  76 112 146 196 268 316 398 469
#     4  11  24  42  67 102 147 204 265 327 384 461
#     4  11  24  49  84 116 153 206 265 327 396 491
#     4  12  28  53  83 120 162 200 254 332 416 495
#     4  12  24  40  67 107 149 200 266 326 386 466
#     4  12  25  46  66 102 154 208 268 324 388 473
#
# _framework density 24.795266000000002
#
# number of rings (size 3 to 8) (size 9 to 14) (size 15 to 20)
#    0.000    0.286    6.429    3.857    4.000    0.571 
#    2.571    0.714    0.000    0.000    0.000    0.000 
#    0.000    0.000    0.000    0.000    0.000    0.000 
#
# Total GULP energy -155901.676453 kJ/mol
# GULP energy per Si atom -5567.917016 kJ/mol
# Density = 2.473883 g / cm^3
# Si number density = 24.795266 Si / 1000 Ang^3
#
#
#
# Elastic Constant Matrix: (Units=GPa)
#
#
# Indices 1 2 3 4 5 6 
#
# 1 108.0901 19.7015 36.5869 0.0000 26.8520 0.0000
# 2 19.7015 74.8092 55.2268 0.0000 6.4125 0.0000
# 3 36.5869 55.2268 187.9763 0.0000 9.8218 0.0000
# 4 0.0000 0.0000 0.0000 28.2287 0.0000 -8.3069
# 5 26.8520 6.4125 9.8218 0.0000 40.0172 0.0000
# 6 0.0000 0.0000 0.0000 -8.3069 0.0000 32.4572
#
#
#
# Elastic Compliance Matrix: (Units=1/GPa)
#
#
# Indices 1 2 3 4 5 6 
#
# 1 0.011842 -0.001367 -0.001519 0.000000 -0.007354 0.000000
# 2 -0.001367 0.017320 -0.004787 0.000000 -0.000683 0.000000
# 3 -0.001519 -0.004787 0.007018 0.000000 0.000064 0.000000
# 4 0.000000 0.000000 0.000000 0.038310 0.000000 0.009805
# 5 -0.007354 -0.000683 0.000064 0.000000 0.030018 0.000000
# 6 0.000000 0.000000 0.000000 0.009805 0.000000 0.033319
#
#
# Mechanical properties :
#
#
# Convention : Reuss Voigt Hill
#
# Bulk Modulus (GPa) = 47.99677 65.98954 56.99316
# Shear Modulus (GPa) = 31.22714 37.43131 34.32922
#
# Velocity S-wave (km/s) = 3.55265 3.88959 3.72493
# Velocity P-wave (km/s) = 6.01894 6.84423 6.44481
#
# Compressibility (1/GPa) = 0.02083474
#
# Stress axis : x y z
#
# Youngs Moduli (GPa) = 84.44681 57.73809 142.48151
#
# Poissons Ratio (x) = 0.07892 0.21643
# Poissons Ratio (y) = 0.11543 0.68202
# Poissons Ratio (z) = 0.12827 0.27637
#
# Static dielectric constant tensor:
#      x y z
#    x 1.986320 0.000000 0.055910 
#    y 0.000000 2.085590 0.000000 
#    z 0.055910 0.000000 1.916210 
# 
# From -- ./inp_files/149297.got.cif
#   From: 2010.05.17/outbox.cif.g08.bks.cpg/sg15_75_cif.got.tgz:149297.got - 2010.06.03 18:47:42.
