data_PCOD9305282
_publ_section_title
;
Structure prediction by ZEFSAII (Michael W. Deem and Ramdas Pophale) SiO2 
 PCOD9305282
Probable space group: C 2/C
;
_chemical_formula_sum "Si O2"
_cell_formula_units_Z 64
_cell_length_a 16.879116
_cell_length_b 15.242942
_cell_length_c 17.078666
_cell_angle_alpha 90.000000
_cell_angle_beta 139.736687
_cell_angle_gamma 90.000000
_cell_volume 2839.928932
_symmetry_space_group_name_H-M "C 2/C"
_symmetry_group_IT_number 15
_symmetry_cell_setting 'monoclinic'
loop_
_space_group_symop_operation_xyz
x,y,z
-x,y,1/2-z
-x,-y,-z
x,-y,1/2+z
1/2+x,1/2+y,z
1/2-x,1/2+y,1/2-z
1/2-x,1/2-y,-z
1/2+x,1/2-y,1/2+z
loop_
_atom_site_type_symbol
_atom_site_label
_atom_site_fract_x
_atom_site_fract_y
_atom_site_fract_z
Si Si1 0.446681 0.700337 0.900401
Si Si2 0.448813 0.565344 0.623536
Si Si3 0.635841 0.098693 0.156594
Si Si4 0.208548 0.654456 0.782653
Si Si5 0.126585 0.806573 0.822871
Si Si6 0.077992 0.088986 0.133611
Si Si7 0.740755 0.062158 0.960852
Si Si8 0.472455 0.057414 0.587001
O O1 0.529217 0.662447 0.892914
O O2 0.420860 0.803938 0.880343
O O3 0.308631 0.660640 0.791297
O O4 0.504356 0.657785 0.023382
O O5 0.500000 0.556793 0.750000
O O6 0.512773 0.504167 0.603144
O O7 0.312482 0.527656 0.527868
O O8 0.779733 0.089852 0.286319
O O9 0.549473 0.031510 0.137782
O O10 0.622216 0.066709 0.056136
O O11 0.212314 0.741893 0.838570
O O12 0.071725 0.634859 0.652399
O O13 0.241298 0.580682 0.869840
O O14 0.082475 0.875502 0.725540
O O15 0.190750 0.858092 0.941539
O O16 0.000000 0.758284 0.750000
O O17 0.605799 0.061517 0.893976
#
# Coordination Sequence:
#
# PCOD9305282 Si02
#       8
#     8   8   8   8   8   8   8   8
#     4  12  26  43  70 102 129 172 231 279 324 394
#     4  12  24  44  69  96 133 179 221 274 335 394
#     4  11  25  45  68  97 132 181 224 279 331 392
#     4  12  24  39  65 102 137 174 218 279 338 405
#     4  12  20  37  64 101 140 171 211 276 341 404
#     4  12  21  44  69  97 133 170 225 274 332 392
#     4  12  22  40  60  98 138 179 219 270 338 401
#     4  11  24  44  66  94 139 179 223 268 342 402
#
# _framework density 22.535775000000001
#
# number of rings (size 3 to 8) (size 9 to 14) (size 15 to 20)
#    0.000    0.250    6.250    3.375    1.750    1.000 
#    0.000    1.875    0.000    0.000    0.000    0.000 
#    0.000    0.000    0.000    0.000    0.000    0.000 
#
# Total GULP energy -178857.510802 kJ/mol
# GULP energy per Si atom -5589.297213 kJ/mol
# Density = 2.248448 g / cm^3
# Si number density = 22.535775 Si / 1000 Ang^3
#
#
#
# Elastic Constant Matrix: (Units=GPa)
#
#
# Indices 1 2 3 4 5 6 
#
# 1 55.4813 32.0519 22.9655 0.0000 20.7310 0.0000
# 2 32.0519 99.7068 14.3759 0.0000 12.1343 0.0000
# 3 22.9655 14.3759 61.2144 0.0000 18.0395 0.0000
# 4 0.0000 0.0000 0.0000 14.6540 0.0000 2.8941
# 5 20.7310 12.1343 18.0395 0.0000 38.5818 0.0000
# 6 0.0000 0.0000 0.0000 2.8941 0.0000 37.3306
#
#
#
# Elastic Compliance Matrix: (Units=1/GPa)
#
#
# Indices 1 2 3 4 5 6 
#
# 1 0.028381 -0.007014 -0.005980 0.000000 -0.010248 0.000000
# 2 -0.007014 0.012320 -0.000268 0.000000 0.000019 0.000000
# 3 -0.005980 -0.000268 0.020495 0.000000 -0.006285 0.000000
# 4 0.000000 0.000000 0.000000 0.069302 0.000000 -0.005373
# 5 -0.010248 0.000019 -0.006285 0.000000 0.034358 0.000000
# 6 0.000000 0.000000 0.000000 -0.005373 0.000000 0.027204
#
#
# Mechanical properties :
#
#
# Convention : Reuss Voigt Hill
#
# Bulk Modulus (GPa) = 28.84178 39.46544 34.15361
# Shear Modulus (GPa) = 21.72585 27.91388 24.81986
#
# Velocity S-wave (km/s) = 3.10830 3.52326 3.32227
# Velocity P-wave (km/s) = 5.07031 5.83965 5.46853
#
# Compressibility (1/GPa) = 0.03467193
#
# Stress axis : x y z
#
# Youngs Moduli (GPa) = 35.23535 81.16643 48.79319
#
# Poissons Ratio (x) = 0.56929 0.29180
# Poissons Ratio (y) = 0.24714 0.01306
# Poissons Ratio (z) = 0.21072 0.02172
#
# Static dielectric constant tensor:
#      x y z
#    x 1.830530 0.000000 0.035660 
#    y 0.000000 1.887720 0.000000 
#    z 0.035660 0.000000 1.906780 
# 
# From -- ./inp_files/211416.got.cif
#   From: 2010.05.17/outbox.cif.g08.bks.cpg/sg15_106_cif.got.tgz:211416.got - 2010.06.03 18:47:42.
