data_PCOD9305987
_publ_section_title
;
Structure prediction by ZEFSAII (Michael W. Deem and Ramdas Pophale) SiO2 
 PCOD9305987
Probable space group: C 2/C
;
_chemical_formula_sum "Si O2"
_cell_formula_units_Z 36
_cell_length_a 11.315273
_cell_length_b 9.058433
_cell_length_c 13.396406
_cell_angle_alpha 90.000000
_cell_angle_beta 96.556833
_cell_angle_gamma 90.000000
_cell_volume 1364.132000
_symmetry_space_group_name_H-M "C 2/C"
_symmetry_group_IT_number 15
_symmetry_cell_setting 'monoclinic'
loop_
_space_group_symop_operation_xyz
x,y,z
-x,y,1/2-z
-x,-y,-z
x,-y,1/2+z
1/2+x,1/2+y,z
1/2-x,1/2+y,1/2-z
1/2-x,1/2-y,-z
1/2+x,1/2-y,1/2+z
loop_
_atom_site_type_symbol
_atom_site_label
_atom_site_fract_x
_atom_site_fract_y
_atom_site_fract_z
Si Si1 0.605124 0.329429 0.434992
Si Si2 0.329557 0.367503 0.448435
Si Si3 0.788800 0.032637 0.731509
Si Si4 0.423858 0.093067 0.916432
Si Si5 0.000000 0.796750 0.750000
O O1 0.641522 0.490385 0.480540
O O2 0.643686 0.204813 0.516432
O O3 0.651296 0.333300 0.326225
O O4 0.461093 0.318117 0.425353
O O5 0.250000 0.250000 0.500000
O O6 0.264421 0.420438 0.341832
O O7 0.332581 0.998037 0.339435
O O8 0.884257 0.900990 0.741705
O O9 0.496500 0.195648 0.847347
O O10 0.500000 0.000000 0.000000
#
# Coordination Sequence:
#
# PCOD9305987 Si02
#       5
#     8   8   8   8   4
#     4  11  24  51  77 121 176 214 291 356 439 520
#     4  11  25  44  88 126 163 230 285 357 435 526
#     4  12  26  51  87 120 172 235 288 357 444 540
#     4  12  31  51  82 130 172 229 298 371 442 533
#     4  12  26  60  86 120 174 230 292 362 452 532
#
# _framework density 26.390407
#
# number of rings (size 3 to 8) (size 9 to 14) (size 15 to 20)
#    0.000    0.444    4.444    2.000    9.333    0.889 
#    8.000    0.000    0.000    0.000    0.000    0.000 
#    0.000    0.000    0.000    0.000    0.000    0.000 
#
# Total GULP energy -101071.929707 kJ/mol
# GULP energy per Si atom -5615.107206 kJ/mol
# Density = 2.633034 g / cm^3
# Si number density = 26.390407 Si / 1000 Ang^3
#
#
#
# Elastic Constant Matrix: (Units=GPa)
#
#
# Indices 1 2 3 4 5 6 
#
# 1 165.2746 78.6765 81.1278 0.0000 23.2607 0.0000
# 2 78.6765 137.3307 77.6616 0.0000 8.2708 0.0000
# 3 81.1278 77.6616 199.9703 0.0000 18.7643 0.0000
# 4 0.0000 0.0000 0.0000 53.6911 0.0000 -0.5134
# 5 23.2607 8.2708 18.7643 0.0000 53.9226 0.0000
# 6 0.0000 0.0000 0.0000 -0.5134 0.0000 57.6306
#
#
#
# Elastic Compliance Matrix: (Units=1/GPa)
#
#
# Indices 1 2 3 4 5 6 
#
# 1 0.009332 -0.004082 -0.001945 0.000000 -0.002722 0.000000
# 2 -0.004082 0.011118 -0.002757 0.000000 0.001015 0.000000
# 3 -0.001945 -0.002757 0.006970 0.000000 -0.001163 0.000000
# 4 0.000000 0.000000 0.000000 0.018627 0.000000 0.000166
# 5 -0.002722 0.001015 -0.001163 0.000000 0.019969 0.000000
# 6 0.000000 0.000000 0.000000 0.000166 0.000000 0.017353
#
#
# Mechanical properties :
#
#
# Convention : Reuss Voigt Hill
#
# Bulk Modulus (GPa) = 101.51021 108.61191 105.06106
# Shear Modulus (GPa) = 47.97494 50.72285 49.34889
#
# Velocity S-wave (km/s) = 4.26830 4.38884 4.32899
# Velocity P-wave (km/s) = 7.92714 8.18094 8.05504
#
# Compressibility (1/GPa) = 0.00985123
#
# Stress axis : x y z
#
# Youngs Moduli (GPa) = 107.16126 89.94066 143.47687
#
# Poissons Ratio (x) = 0.36716 0.27906
# Poissons Ratio (y) = 0.43746 0.39558
# Poissons Ratio (z) = 0.20843 0.24798
#
# Static dielectric constant tensor:
#      x y z
#    x 2.177860 0.000000 0.030540 
#    y 0.000000 2.077960 0.000000 
#    z 0.030540 0.000000 2.007900 
# 
# From -- ./inp_files/102703.got.cif
#   From: 2010.05.17/outbox.cif.g08.bks.cpg/sg15_52_cif.got.tgz:102703.got - 2010.06.03 18:47:42.
