data_PCOD9305727
_publ_section_title
;
Structure prediction by ZEFSAII (Michael W. Deem and Ramdas Pophale) SiO2 
 PCOD9305727
Probable space group: C 2/C
;
_chemical_formula_sum "Si O2"
_cell_formula_units_Z 36
_cell_length_a 13.368215
_cell_length_b 4.998768
_cell_length_c 23.536944
_cell_angle_alpha 90.000000
_cell_angle_beta 104.882839
_cell_angle_gamma 90.000000
_cell_volume 1520.082777
_symmetry_space_group_name_H-M "C 2/C"
_symmetry_group_IT_number 15
_symmetry_cell_setting 'monoclinic'
loop_
_space_group_symop_operation_xyz
x,y,z
-x,y,1/2-z
-x,-y,-z
x,-y,1/2+z
1/2+x,1/2+y,z
1/2-x,1/2+y,1/2-z
1/2-x,1/2-y,-z
1/2+x,1/2-y,1/2+z
loop_
_atom_site_type_symbol
_atom_site_label
_atom_site_fract_x
_atom_site_fract_y
_atom_site_fract_z
Si Si1 0.485004 0.250335 0.457465
Si Si2 0.720483 0.695946 0.645976
Si Si3 0.000000 0.958991 0.250000
Si Si4 0.864677 0.690660 0.806766
Si Si5 0.427378 0.056899 0.138009
O O1 0.500000 0.500000 0.500000
O O2 0.370579 0.254413 0.412652
O O3 0.568842 0.231360 0.418535
O O4 0.500000 0.000000 0.500000
O O5 0.697710 0.914355 0.692806
O O6 0.830724 0.638477 0.633493
O O7 0.699925 0.411184 0.671064
O O8 0.909915 0.162582 0.257463
O O9 0.027006 0.366848 0.146229
O O10 0.043691 0.241539 0.805264
#
# Coordination Sequence:
#
# PCOD9305727 Si02
#       5
#     8   8   4   8   8
#     4  11  24  46  77 109 152 192 251 321 374 450
#     4  11  26  47  76 107 148 199 249 307 387 456
#     4  12  24  52  76 106 156 204 248 332 380 456
#     4  11  24  48  68 109 149 188 247 311 370 453
#     4  11  27  50  76 108 154 197 255 310 387 458
#
# _framework density 23.682922000000001
#
# number of rings (size 3 to 8) (size 9 to 14) (size 15 to 20)
#    0.000    0.889    4.444    3.333    3.111    1.778 
#    8.000    0.000    0.000    0.000    0.000    0.000 
#    0.000    0.000    0.000    0.000    0.000    0.000 
#
# Total GULP energy -100582.767896 kJ/mol
# GULP energy per Si atom -5587.931550 kJ/mol
# Density = 2.362902 g / cm^3
# Si number density = 23.682922 Si / 1000 Ang^3
#
#
#
# Elastic Constant Matrix: (Units=GPa)
#
#
# Indices 1 2 3 4 5 6 
#
# 1 150.8562 12.6144 23.8742 0.0000 -9.0685 0.0000
# 2 12.6144 124.1250 25.7735 0.0000 5.0356 0.0000
# 3 23.8742 25.7735 138.0062 0.0000 12.8781 0.0000
# 4 0.0000 0.0000 0.0000 17.7371 0.0000 -20.6904
# 5 -9.0685 5.0356 12.8781 0.0000 33.5689 0.0000
# 6 0.0000 0.0000 0.0000 -20.6904 0.0000 28.2105
#
#
#
# Elastic Compliance Matrix: (Units=1/GPa)
#
#
# Indices 1 2 3 4 5 6 
#
# 1 0.007038 -0.000536 -0.001351 0.000000 0.002500 0.000000
# 2 -0.000536 0.008437 -0.001402 0.000000 -0.000873 0.000000
# 3 -0.001351 -0.001402 0.008044 0.000000 -0.003240 0.000000
# 4 0.000000 0.000000 0.000000 0.390289 0.000000 0.286250
# 5 0.002500 -0.000873 -0.003240 0.000000 0.031839 0.000000
# 6 0.000000 0.000000 0.000000 0.286250 0.000000 0.245392
#
#
# Mechanical properties :
#
#
# Convention : Reuss Voigt Hill
#
# Bulk Modulus (GPa) = 59.02419 59.72352 59.37386
# Shear Modulus (GPa) = 7.10972 39.28499 23.19735
#
# Velocity S-wave (km/s) = 1.73452 4.07724 3.13309
# Velocity P-wave (km/s) = 5.38407 6.88752 6.18167
#
# Compressibility (1/GPa) = 0.01694221
#
# Stress axis : x y z
#
# Youngs Moduli (GPa) = 142.09235 118.52117 124.31893
#
# Poissons Ratio (x) = 0.06355 0.16791
# Poissons Ratio (y) = 0.07619 0.17423
# Poissons Ratio (z) = 0.19191 0.16611
#
# Static dielectric constant tensor:
#      x y z
#    x 1.873590 0.000000 0.022000 
#    y 0.000000 1.913410 0.000000 
#    z 0.022000 0.000000 1.940390 
# 
# From -- ./inp_files/267039.got.cif
#   From: 2010.05.17/outbox.cif.g08.bks.cpg/sg15_134_cif.got.tgz:267039.got - 2010.06.03 18:47:42.
