data_PCOD9305389
_publ_section_title
;
Structure prediction by ZEFSAII (Michael W. Deem and Ramdas Pophale) SiO2 
 PCOD9305389
Probable space group: C 2/C
;
_chemical_formula_sum "Si O2"
_cell_formula_units_Z 56
_cell_length_a 11.229194
_cell_length_b 18.609871
_cell_length_c 14.806407
_cell_angle_alpha 90.000000
_cell_angle_beta 57.614492
_cell_angle_gamma 90.000000
_cell_volume 2612.898118
_symmetry_space_group_name_H-M "C 2/C"
_symmetry_group_IT_number 15
_symmetry_cell_setting 'monoclinic'
loop_
_space_group_symop_operation_xyz
x,y,z
-x,y,1/2-z
-x,-y,-z
x,-y,1/2+z
1/2+x,1/2+y,z
1/2-x,1/2+y,1/2-z
1/2-x,1/2-y,-z
1/2+x,1/2-y,1/2+z
loop_
_atom_site_type_symbol
_atom_site_label
_atom_site_fract_x
_atom_site_fract_y
_atom_site_fract_z
Si Si1 0.046054 0.187140 0.007936
Si Si2 0.000000 0.044781 0.750000
Si Si3 0.614820 0.528160 0.027982
Si Si4 0.059773 0.485304 0.076910
Si Si5 0.671140 0.674680 0.759185
Si Si6 0.000000 0.585842 0.250000
Si Si7 0.998281 0.322131 0.356255
Si Si8 0.779720 0.704380 0.396397
O O1 0.111972 0.114302 0.019993
O O2 0.069743 0.258409 0.057668
O O3 0.876143 0.179346 0.070972
O O4 0.107887 0.193975 0.882101
O O5 0.110704 0.099569 0.749664
O O6 0.059239 0.996298 0.647136
O O7 0.500000 0.500000 0.000000
O O8 0.775636 0.497789 0.963981
O O9 0.960312 0.530941 0.185277
O O10 0.058391 0.400663 0.098541
O O11 0.000000 0.500000 0.000000
O O12 0.837887 0.670107 0.689371
O O13 0.648887 0.738582 0.698881
O O14 0.884649 0.637064 0.345167
O O15 0.000000 0.304295 0.250000
O O16 0.750000 0.750000 0.500000
#
# Coordination Sequence:
#
# PCOD9305389 Si02
#       8
#     8   4   8   8   8   4   8   8
#     4  11  25  45  72 103 146 192 250 307 380 457
#     4  12  25  44  73 102 144 190 246 310 379 436
#     4  12  27  47  74 108 146 194 252 313 374 452
#     4  12  29  48  75 107 150 199 251 312 378 456
#     4  11  24  44  73 100 138 190 239 306 370 446
#     4  12  27  46  75 108 152 196 252 312 377 452
#     4  11  26  47  69 104 145 195 245 305 381 459
#     4  11  25  43  74 107 143 185 249 307 374 446
#
# _framework density 21.43214
#
# number of rings (size 3 to 8) (size 9 to 14) (size 15 to 20)
#    0.000    0.571    2.143    4.714    9.000    5.714 
#    0.000    0.000    0.000    0.000    0.000    0.000 
#    0.000    0.000    0.000    0.000    0.000    0.000 
#
# Total GULP energy -156339.101946 kJ/mol
# GULP energy per Si atom -5583.539355 kJ/mol
# Density = 2.138336 g / cm^3
# Si number density = 21.432140 Si / 1000 Ang^3
#
#
#
# Elastic Constant Matrix: (Units=GPa)
#
#
# Indices 1 2 3 4 5 6 
#
# 1 92.6970 27.3383 37.9527 0.0000 -8.7035 0.0000
# 2 27.3383 159.1309 102.8818 0.0000 15.4867 0.0000
# 3 37.9527 102.8818 168.1044 0.0000 26.4929 0.0000
# 4 0.0000 0.0000 0.0000 -230.5339 0.0000 133.8059
# 5 -8.7035 15.4867 26.4929 0.0000 42.6347 0.0000
# 6 0.0000 0.0000 0.0000 133.8059 0.0000 -21.4667
#
#
#
# Elastic Compliance Matrix: (Units=1/GPa)
#
#
# Indices 1 2 3 4 5 6 
#
# 1 0.012760 -0.000509 -0.003336 0.000000 0.004863 0.000000
# 2 -0.000509 0.010420 -0.006263 0.000000 0.000003 0.000000
# 3 -0.003336 -0.006263 0.011400 0.000000 -0.005490 0.000000
# 4 0.000000 0.000000 0.000000 0.001657 0.000000 0.010328
# 5 0.004863 0.000003 -0.005490 0.000000 0.027858 0.000000
# 6 0.000000 0.000000 0.000000 0.010328 0.000000 0.017795
#
#
# Mechanical properties :
#
#
# Convention : Reuss Voigt Hill
#
# Bulk Modulus (GPa) = 69.61095 84.03089 76.82092
# Shear Modulus (GPa) = 46.77525 -25.08922 10.84301
#
# Velocity S-wave (km/s) = 4.67677 -3.42517 2.25171
# Velocity P-wave (km/s) = 7.85577 4.86319 6.53314
#
# Compressibility (1/GPa) = 0.01436556
#
# Stress axis : x y z
#
# Youngs Moduli (GPa) = 78.36867 95.96519 87.71879
#
# Poissons Ratio (x) = 0.04882 0.29262
# Poissons Ratio (y) = 0.03986 0.54939
# Poissons Ratio (z) = 0.26143 0.60103
#
# Static dielectric constant tensor:
#      x y z
#    x 1.947530 0.000000 -0.036090 
#    y 0.000000 1.778590 0.000000 
#    z -0.036090 0.000000 1.735490 
# 
# From -- ./inp_files/146009.got.cif
#   From: 2010.05.17/outbox.cif.g08.bks.cpg/sg15_74_cif.got.tgz:146009.got - 2010.06.03 18:47:42.
