data_PCOD9305955
_publ_section_title
;
Structure prediction by ZEFSAII (Michael W. Deem and Ramdas Pophale) SiO2 
 PCOD9305955
Probable space group: C 2/C
;
_chemical_formula_sum "Si O2"
_cell_formula_units_Z 48
_cell_length_a 12.800765
_cell_length_b 11.305116
_cell_length_c 18.203219
_cell_angle_alpha 90.000000
_cell_angle_beta 49.018106
_cell_angle_gamma 90.000000
_cell_volume 1988.649606
_symmetry_space_group_name_H-M "C 2/C"
_symmetry_group_IT_number 15
_symmetry_cell_setting 'monoclinic'
loop_
_space_group_symop_operation_xyz
x,y,z
-x,y,1/2-z
-x,-y,-z
x,-y,1/2+z
1/2+x,1/2+y,z
1/2-x,1/2+y,1/2-z
1/2-x,1/2-y,-z
1/2+x,1/2-y,1/2+z
loop_
_atom_site_type_symbol
_atom_site_label
_atom_site_fract_x
_atom_site_fract_y
_atom_site_fract_z
Si Si1 0.213501 0.664465 0.450094
Si Si2 0.500000 0.792764 0.750000
Si Si3 0.318245 0.594371 0.751823
Si Si4 0.500000 0.589934 0.250000
Si Si5 0.155625 0.583352 0.053003
Si Si6 0.853948 0.960860 0.595594
Si Si7 0.593246 0.204132 0.938241
O O1 0.250000 0.750000 0.500000
O O2 0.360453 0.654965 0.340531
O O3 0.162671 0.537688 0.504236
O O4 0.072612 0.704789 0.474842
O O5 0.388396 0.706090 0.761932
O O6 0.462002 0.876739 0.835816
O O7 0.433104 0.495322 0.719361
O O8 0.297282 0.561637 0.676107
O O9 0.164200 0.599851 0.857485
O O10 0.273881 0.561045 0.057406
O O11 0.158882 0.683600 0.988541
O O12 0.869671 0.827318 0.619053
O O13 0.000000 0.000000 0.500000
#
# Coordination Sequence:
#
# PCOD9305955 Si02
#       7
#     8   4   8   4   8   8   8
#     4  12  28  50  75 115 161 212 258 333 414 482
#     4  11  26  45  78 116 162 207 274 333 392 482
#     4  11  25  47  77 117 153 212 260 330 410 467
#     4  11  24  49  78 100 156 209 262 323 400 474
#     4  12  26  48  76 118 156 206 274 329 393 490
#     4  12  26  47  77 115 163 206 268 338 408 478
#     4  12  26  49  82 115 158 214 269 334 403 485
#
# _framework density 24.136982
#
# number of rings (size 3 to 8) (size 9 to 14) (size 15 to 20)
#    0.000    0.333    3.333    5.000    4.667    0.667 
#   12.000    0.000    0.000    0.000    0.000    0.000 
#    0.000    0.000    0.000    0.000    0.000    0.000 
#
# Total GULP energy -133726.299678 kJ/mol
# GULP energy per Si atom -5571.929153 kJ/mol
# Density = 2.408205 g / cm^3
# Si number density = 24.136982 Si / 1000 Ang^3
#
#
#
# Elastic Constant Matrix: (Units=GPa)
#
#
# Indices 1 2 3 4 5 6 
#
# 1 126.9491 30.2880 47.9062 0.0000 -19.5238 0.0000
# 2 30.2880 86.0414 46.9688 0.0000 5.5517 0.0000
# 3 47.9062 46.9688 170.1098 0.0000 -2.2275 0.0000
# 4 0.0000 0.0000 0.0000 10.1219 0.0000 -18.0094
# 5 -19.5238 5.5517 -2.2275 0.0000 46.4504 0.0000
# 6 0.0000 0.0000 0.0000 -18.0094 0.0000 3.7309
#
#
#
# Elastic Compliance Matrix: (Units=1/GPa)
#
#
# Indices 1 2 3 4 5 6 
#
# 1 0.009954 -0.002696 -0.002001 0.000000 0.004410 0.000000
# 2 -0.002696 0.014570 -0.003303 0.000000 -0.003033 0.000000
# 3 -0.002001 -0.003303 0.007353 0.000000 -0.000094 0.000000
# 4 0.000000 0.000000 0.000000 -0.013019 0.000000 -0.062844
# 5 0.004410 -0.003033 -0.000094 0.000000 0.023740 0.000000
# 6 0.000000 0.000000 0.000000 -0.062844 0.000000 -0.035320
#
#
# Mechanical properties :
#
#
# Convention : Reuss Voigt Hill
#
# Bulk Modulus (GPa) = 62.98823 70.38070 66.68446
# Shear Modulus (GPa) = 175.00089 29.25644 102.12867
#
# Velocity S-wave (km/s) = 8.52412 3.48530 6.51183
# Velocity P-wave (km/s) = 11.09205 6.73933 9.17748
#
# Compressibility (1/GPa) = 0.01587598
#
# Stress axis : x y z
#
# Youngs Moduli (GPa) = 100.46459 68.63222 135.99958
#
# Poissons Ratio (x) = 0.18504 0.27214
# Poissons Ratio (y) = 0.27086 0.44927
# Poissons Ratio (z) = 0.20103 0.22672
#
# Static dielectric constant tensor:
#      x y z
#    x 2.022460 0.000000 0.107310 
#    y 0.000000 2.039310 0.000000 
#    z 0.107310 0.000000 2.029590 
# 
# From -- ./inp_files/243943.got.cif
#   From: 2010.05.17/outbox.cif.g08.bks.cpg/sg15_122_cif.got.tgz:243943.got - 2010.06.03 18:47:42.
