data_PCOD9305553
_publ_section_title
;
Structure prediction by ZEFSAII (Michael W. Deem and Ramdas Pophale) SiO2 
 PCOD9305553
Probable space group: C 2/C
;
_chemical_formula_sum "Si O2"
_cell_formula_units_Z 40
_cell_length_a 12.203500
_cell_length_b 13.373475
_cell_length_c 9.972038
_cell_angle_alpha 90.000000
_cell_angle_beta 75.357240
_cell_angle_gamma 90.000000
_cell_volume 1574.609627
_symmetry_space_group_name_H-M "C 2/C"
_symmetry_group_IT_number 15
_symmetry_cell_setting 'monoclinic'
loop_
_space_group_symop_operation_xyz
x,y,z
-x,y,1/2-z
-x,-y,-z
x,-y,1/2+z
1/2+x,1/2+y,z
1/2-x,1/2+y,1/2-z
1/2-x,1/2-y,-z
1/2+x,1/2-y,1/2+z
loop_
_atom_site_type_symbol
_atom_site_label
_atom_site_fract_x
_atom_site_fract_y
_atom_site_fract_z
Si Si1 0.500000 0.072751 0.750000
Si Si2 0.178363 0.722706 0.651352
Si Si3 0.798771 0.445603 0.737381
Si Si4 0.135511 0.221236 0.694834
Si Si5 0.000000 0.891002 0.750000
Si Si6 0.843302 0.022035 0.964142
O O1 0.581643 0.144758 0.640712
O O2 0.415137 0.006298 0.693843
O O3 0.250000 0.750000 0.500000
O O4 0.270118 0.682933 0.728154
O O5 0.105452 0.814461 0.737827
O O6 0.836583 0.338840 0.789994
O O7 0.744028 0.466587 0.609797
O O8 0.707485 0.486420 0.873081
O O9 0.153090 0.141076 0.569565
O O10 0.000000 0.214363 0.750000
O O11 0.958363 0.963133 0.883774
#
# Coordination Sequence:
#
# PCOD9305553 Si02
#       6
#     4   8   8   8   4   8
#     4  11  24  45  74 106 144 201 242 301 356 456
#     4  11  25  47  73 111 145 197 248 295 365 451
#     4  12  27  48  72 109 149 193 244 301 368 437
#     4  12  26  47  70 110 150 187 238 315 366 420
#     4  11  24  45  74 106 144 201 242 301 356 456
#     4  12  27  48  72 109 149 193 244 301 368 437
#
# _framework density 25.403120999999999
#
# number of rings (size 3 to 8) (size 9 to 14) (size 15 to 20)
#    0.000    0.400    6.000    1.800    0.000    4.800 
#    0.000    0.000    0.000    0.000    0.000    0.000 
#    0.000    0.000    0.000    0.000    0.000    0.000 
#
# Total GULP energy -111568.410258 kJ/mol
# GULP energy per Si atom -5578.420513 kJ/mol
# Density = 2.534530 g / cm^3
# Si number density = 25.403121 Si / 1000 Ang^3
#
#
#
# Elastic Constant Matrix: (Units=GPa)
#
#
# Indices 1 2 3 4 5 6 
#
# 1 158.8104 37.0176 34.4247 0.0000 -34.0577 0.0000
# 2 37.0176 166.9688 30.6351 0.0000 -21.1123 0.0000
# 3 34.4247 30.6351 93.8442 0.0000 -16.0620 0.0000
# 4 0.0000 0.0000 0.0000 10.6846 0.0000 -23.8668
# 5 -34.0577 -21.1123 -16.0620 0.0000 27.5498 0.0000
# 6 0.0000 0.0000 0.0000 -23.8668 0.0000 34.6269
#
#
#
# Elastic Compliance Matrix: (Units=1/GPa)
#
#
# Indices 1 2 3 4 5 6 
#
# 1 0.008788 -0.000464 -0.001415 0.000000 0.009684 0.000000
# 2 -0.000464 0.006836 -0.001403 0.000000 0.003847 0.000000
# 3 -0.001415 -0.001403 0.012385 0.000000 0.004397 0.000000
# 4 0.000000 0.000000 0.000000 -0.173436 0.000000 -0.119542
# 5 0.009684 0.003847 0.004397 0.000000 0.053780 0.000000
# 6 0.000000 0.000000 0.000000 -0.119542 0.000000 -0.053516
#
#
# Mechanical properties :
#
#
# Convention : Reuss Voigt Hill
#
# Bulk Modulus (GPa) = 46.62940 69.30870 57.96905
# Shear Modulus (GPa) = -38.03757 35.74198 -1.14780
#
# Velocity S-wave (km/s) = -3.87377 3.75506 -0.67291
# Velocity P-wave (km/s) = 1.26984 6.79289 4.71863
#
# Compressibility (1/GPa) = 0.02144570
#
# Stress axis : x y z
#
# Youngs Moduli (GPa) = 113.78538 146.28716 80.73991
#
# Poissons Ratio (x) = 0.06793 0.11423
# Poissons Ratio (y) = 0.05284 0.11326
# Poissons Ratio (z) = 0.16099 0.20522
#
# Static dielectric constant tensor:
#      x y z
#    x 2.072510 0.000000 0.074620 
#    y 0.000000 2.294190 0.000000 
#    z 0.074620 0.000000 1.991050 
# 
# From -- ./inp_files/86021.got.cif
#   From: 2010.05.17/outbox.cif.g08.bks.cpg/sg15_44_cif.got.tgz:86021.got - 2010.06.03 18:47:42.
