data_PCOD9305800
_publ_section_title
;
Structure prediction by ZEFSAII (Michael W. Deem and Ramdas Pophale) SiO2 
 PCOD9305800
Probable space group: C 2/C
;
_chemical_formula_sum "Si O2"
_cell_formula_units_Z 40
_cell_length_a 23.419336
_cell_length_b 5.197449
_cell_length_c 20.390956
_cell_angle_alpha 90.000000
_cell_angle_beta 141.297523
_cell_angle_gamma 90.000000
_cell_volume 1551.938244
_symmetry_space_group_name_H-M "C 2/C"
_symmetry_group_IT_number 15
_symmetry_cell_setting 'monoclinic'
loop_
_space_group_symop_operation_xyz
x,y,z
-x,y,1/2-z
-x,-y,-z
x,-y,1/2+z
1/2+x,1/2+y,z
1/2-x,1/2+y,1/2-z
1/2-x,1/2-y,-z
1/2+x,1/2-y,1/2+z
loop_
_atom_site_type_symbol
_atom_site_label
_atom_site_fract_x
_atom_site_fract_y
_atom_site_fract_z
Si Si1 0.471869 0.996706 0.295573
Si Si2 0.840021 0.152524 0.747571
Si Si3 0.790172 0.191190 0.105602
Si Si4 0.110141 0.742775 0.020184
Si Si5 0.143931 0.229285 0.126120
O O1 0.500000 0.117388 0.250000
O O2 0.428772 0.184078 0.311574
O O3 0.389184 0.811685 0.201017
O O4 0.551361 0.843989 0.404904
O O5 0.753313 0.267168 0.708528
O O6 0.802110 0.101569 0.639853
O O7 0.864491 0.889607 0.808663
O O8 0.750000 0.250000 0.000000
O O9 0.713618 0.280087 0.088116
O O10 0.109575 0.510464 0.073033
O O11 0.090970 0.015867 0.035652
#
# Coordination Sequence:
#
# PCOD9305800 Si02
#       5
#     8   8   8   8   8
#     4  12  27  46  74 117 157 203 262 318 384 473
#     4  11  26  46  81 111 152 209 258 319 388 463
#     4  11  24  47  73 107 156 209 257 314 388 453
#     4  11  26  47  77 114 155 200 258 319 388 456
#     4  11  25  48  77 112 152 201 259 317 387 459
#
# _framework density 25.774222000000002
#
# number of rings (size 3 to 8) (size 9 to 14) (size 15 to 20)
#    0.000    0.800    4.000    2.400    5.600    4.800 
#    0.000    0.000    0.000    0.000    0.000    0.000 
#    0.000    0.000    0.000    0.000    0.000    0.000 
#
# Total GULP energy -111865.917736 kJ/mol
# GULP energy per Si atom -5593.295887 kJ/mol
# Density = 2.571556 g / cm^3
# Si number density = 25.774222 Si / 1000 Ang^3
#
#
#
# Elastic Constant Matrix: (Units=GPa)
#
#
# Indices 1 2 3 4 5 6 
#
# 1 109.7812 25.1276 13.1056 0.0005 -4.9475 0.0003
# 2 25.1276 101.2842 20.0561 0.0007 -17.9477 -0.0012
# 3 13.1056 20.0561 146.2873 0.0000 -17.1849 -0.0001
# 4 0.0005 0.0007 0.0000 33.9644 0.0003 -6.0029
# 5 -4.9475 -17.9477 -17.1849 0.0003 47.6471 0.0002
# 6 0.0003 -0.0012 -0.0001 -6.0029 0.0002 38.6688
#
#
#
# Elastic Compliance Matrix: (Units=1/GPa)
#
#
# Indices 1 2 3 4 5 6 
#
# 1 0.009701 -0.002307 -0.000560 0.000000 -0.000064 0.000000
# 2 -0.002307 0.011278 -0.000907 0.000000 0.003681 0.000000
# 3 -0.000560 -0.000907 0.007272 0.000000 0.002223 0.000000
# 4 0.000000 0.000000 0.000000 0.030273 0.000000 0.004700
# 5 -0.000064 0.003681 0.002223 0.000000 0.023169 0.000000
# 6 0.000000 0.000000 0.000000 0.004700 0.000000 0.026590
#
#
# Mechanical properties :
#
#
# Convention : Reuss Voigt Hill
#
# Bulk Modulus (GPa) = 48.30602 52.65902 50.48252
# Shear Modulus (GPa) = 40.73909 43.99361 42.36635
#
# Velocity S-wave (km/s) = 3.98001 4.13593 4.05872
# Velocity P-wave (km/s) = 6.31690 6.57899 6.44928
#
# Compressibility (1/GPa) = 0.02070135
#
# Stress axis : x y z
#
# Youngs Moduli (GPa) = 103.08102 88.67201 137.52260
#
# Poissons Ratio (x) = 0.20458 0.07705
# Poissons Ratio (y) = 0.23782 0.12473
# Poissons Ratio (z) = 0.05776 0.08043
#
# Static dielectric constant tensor:
#      x y z
#    x 2.074520 0.000000 -0.016140 
#    y 0.000000 2.114960 0.000000 
#    z -0.016140 0.000000 2.041870 
# 
# From -- ./inp_files/254510.got.cif
#   From: 2010.05.17/outbox.cif.g08.bks.cpg/sg15_128_cif.got.tgz:254510.got - 2010.06.03 18:47:42.
