data_PCOD9305155
_publ_section_title
;
Structure prediction by ZEFSAII (Michael W. Deem and Ramdas Pophale) SiO2 
 PCOD9305155
Probable space group: C 2/C
;
_chemical_formula_sum "Si O2"
_cell_formula_units_Z 48
_cell_length_a 10.137406
_cell_length_b 9.163206
_cell_length_c 26.178109
_cell_angle_alpha 90.000000
_cell_angle_beta 90.896127
_cell_angle_gamma 90.000000
_cell_volume 2431.416956
_symmetry_space_group_name_H-M "C 2/C"
_symmetry_group_IT_number 15
_symmetry_cell_setting 'monoclinic'
loop_
_space_group_symop_operation_xyz
x,y,z
-x,y,1/2-z
-x,-y,-z
x,-y,1/2+z
1/2+x,1/2+y,z
1/2-x,1/2+y,1/2-z
1/2-x,1/2-y,-z
1/2+x,1/2-y,1/2+z
loop_
_atom_site_type_symbol
_atom_site_label
_atom_site_fract_x
_atom_site_fract_y
_atom_site_fract_z
Si Si1 0.397136 0.912680 0.964705
Si Si2 0.275185 0.518835 0.314203
Si Si3 0.895370 0.890076 0.521690
Si Si4 0.241455 0.321513 0.709241
Si Si5 0.012286 0.173416 0.363896
Si Si6 0.520020 0.988390 0.648581
O O1 0.247325 0.964693 0.972745
O O2 0.438792 0.928351 0.906435
O O3 0.391139 0.745881 0.983113
O O4 0.500000 0.000000 0.000000
O O5 0.279769 0.626097 0.265737
O O6 0.283870 0.351515 0.295362
O O7 0.395812 0.560184 0.351647
O O8 0.133882 0.537479 0.340603
O O9 0.939650 0.833785 0.577581
O O10 0.000000 0.000000 0.500000
O O11 0.362645 0.355796 0.671827
O O12 0.113101 0.410695 0.690390
O O13 0.961948 0.336850 0.351674
#
# Coordination Sequence:
#
# PCOD9305155 Si02
#       6
#     8   8   8   8   8   8
#     4  11  24  45  66  93 134 170 209 270 318 379
#     4  11  26  41  70  94 130 167 219 262 326 383
#     4  11  26  41  67  97 131 168 219 263 321 383
#     4  11  24  46  64  95 129 171 210 271 318 380
#     4  11  24  43  64  97 131 169 209 270 319 378
#     4  11  24  43  67  94 130 170 216 261 326 382
#
# _framework density 19.741575000000001
#
# number of rings (size 3 to 8) (size 9 to 14) (size 15 to 20)
#    0.000    1.000    3.333    2.000    4.667    8.667 
#    0.000    0.000    0.000    0.000    0.000    0.000 
#    0.000    0.000    0.000    0.000    0.000    0.000 
#
# Total GULP energy -134251.604835 kJ/mol
# GULP energy per Si atom -5593.816868 kJ/mol
# Density = 1.969664 g / cm^3
# Si number density = 19.741575 Si / 1000 Ang^3
#
#
#
# Elastic Constant Matrix: (Units=GPa)
#
#
# Indices 1 2 3 4 5 6 
#
# 1 110.3296 54.9891 11.7952 0.0000 -2.2581 0.0000
# 2 54.9891 57.9845 3.1368 0.0000 -14.2411 0.0000
# 3 11.7952 3.1368 45.3276 0.0000 -11.1435 0.0000
# 4 0.0000 0.0000 0.0000 33.5537 0.0000 4.5332
# 5 -2.2581 -14.2411 -11.1435 0.0000 37.1263 0.0000
# 6 0.0000 0.0000 0.0000 4.5332 0.0000 31.0221
#
#
#
# Elastic Compliance Matrix: (Units=1/GPa)
#
#
# Indices 1 2 3 4 5 6 
#
# 1 0.019677 -0.020402 -0.005764 0.000000 -0.008359 0.000000
# 2 -0.020402 0.040204 0.006492 0.000000 0.016129 0.000000
# 3 -0.005764 0.006492 0.025521 0.000000 0.009800 0.000000
# 4 0.000000 0.000000 0.000000 0.030403 0.000000 -0.004443
# 5 -0.008359 0.016129 0.009800 0.000000 0.035555 0.000000
# 6 0.000000 0.000000 0.000000 -0.004443 0.000000 0.032884
#
#
# Mechanical properties :
#
#
# Convention : Reuss Voigt Hill
#
# Bulk Modulus (GPa) = 21.71271 39.27602 30.49437
# Shear Modulus (GPa) = 20.92534 29.92181 25.42357
#
# Velocity S-wave (km/s) = 3.25924 3.89739 3.59251
# Velocity P-wave (km/s) = 5.01855 6.33965 5.71739
#
# Compressibility (1/GPa) = 0.04605596
#
# Stress axis : x y z
#
# Youngs Moduli (GPa) = 50.81978 24.87297 39.18279
#
# Poissons Ratio (x) = 0.50746 0.22583
# Poissons Ratio (y) = 1.03683 -0.25438
# Poissons Ratio (z) = 0.29290 -0.16148
#
# Static dielectric constant tensor:
#      x y z
#    x 1.681710 0.000000 0.011240 
#    y 0.000000 1.664830 0.000000 
#    z 0.011240 0.000000 1.666290 
# 
# From -- ./inp_files/306657.got.cif
#   From: 2010.05.17/outbox.cif.g08.bks.cpg/sg15_154_cif.got.tgz:306657.got - 2010.06.03 18:47:42.
