data_PCOD9305165
_publ_section_title
;
Structure prediction by ZEFSAII (Michael W. Deem and Ramdas Pophale) SiO2 
 PCOD9305165
Probable space group: C 2/C
;
_chemical_formula_sum "Si O2"
_cell_formula_units_Z 48
_cell_length_a 4.843225
_cell_length_b 13.740034
_cell_length_c 30.131712
_cell_angle_alpha 90.000000
_cell_angle_beta 86.126620
_cell_angle_gamma 90.000000
_cell_volume 2000.566988
_symmetry_space_group_name_H-M "C 2/C"
_symmetry_group_IT_number 15
_symmetry_cell_setting 'monoclinic'
loop_
_space_group_symop_operation_xyz
x,y,z
-x,y,1/2-z
-x,-y,-z
x,-y,1/2+z
1/2+x,1/2+y,z
1/2-x,1/2+y,1/2-z
1/2-x,1/2-y,-z
1/2+x,1/2-y,1/2+z
loop_
_atom_site_type_symbol
_atom_site_label
_atom_site_fract_x
_atom_site_fract_y
_atom_site_fract_z
Si Si1 0.607204 0.395176 0.199324
Si Si2 0.801833 0.335101 0.435369
Si Si3 0.889365 0.038099 0.088734
Si Si4 0.105318 0.711313 0.660782
Si Si5 0.935196 0.333185 0.976963
Si Si6 0.355054 0.078337 0.145903
O O1 0.500000 0.409158 0.250000
O O2 0.345592 0.362823 0.172905
O O3 0.752604 0.492056 0.178864
O O4 0.837650 0.310219 0.193178
O O5 0.614983 0.424394 0.421911
O O6 0.982519 0.310777 0.389578
O O7 0.649281 0.233742 0.447160
O O8 0.927612 0.374864 0.480007
O O9 0.762272 0.097746 0.049166
O O10 0.679135 0.068183 0.131127
O O11 0.197094 0.060484 0.100946
O O12 0.245117 0.817152 0.662852
O O13 0.750000 0.250000 0.000000
#
# Coordination Sequence:
#
# PCOD9305165 Si02
#       6
#     8   8   8   8   8   8
#     4  12  27  48  75 108 137 177 234 294 361 427
#     4  11  24  43  66 101 141 187 236 289 342 408
#     4  12  25  43  71 101 139 194 237 281 353 407
#     4  12  25  47  77 103 143 189 230 288 359 427
#     4  11  26  41  65 103 143 191 241 296 332 416
#     4  12  25  46  74 104 139 186 232 289 349 429
#
# _framework density 23.993199000000001
#
# number of rings (size 3 to 8) (size 9 to 14) (size 15 to 20)
#    0.000    0.333    5.000    3.000    7.000    2.000 
#    0.000    0.000    0.000    0.000    0.000    0.000 
#    0.000    0.000    0.000    0.000    0.000    0.000 
#
# Total GULP energy -134338.492829 kJ/mol
# GULP energy per Si atom -5597.437201 kJ/mol
# Density = 2.393859 g / cm^3
# Si number density = 23.993199 Si / 1000 Ang^3
#
#
#
# Elastic Constant Matrix: (Units=GPa)
#
#
# Indices 1 2 3 4 5 6 
#
# 1 59.5506 -9.8705 -2.8187 0.0000 -5.0998 0.0000
# 2 -9.8705 89.0497 30.3002 0.0000 2.8795 0.0000
# 3 -2.8187 30.3002 90.1488 0.0000 -8.2665 0.0000
# 4 0.0000 0.0000 0.0000 31.4427 0.0000 -7.0070
# 5 -5.0998 2.8795 -8.2665 0.0000 29.7801 0.0000
# 6 0.0000 0.0000 0.0000 -7.0070 0.0000 19.2287
#
#
#
# Elastic Compliance Matrix: (Units=1/GPa)
#
#
# Indices 1 2 3 4 5 6 
#
# 1 0.017339 0.001757 0.000214 0.000000 0.002859 0.000000
# 2 0.001757 0.013038 -0.004531 0.000000 -0.002217 0.000000
# 3 0.000214 -0.004531 0.012997 0.000000 0.004082 0.000000
# 4 0.000000 0.000000 0.000000 0.034615 0.000000 0.012614
# 5 0.002859 -0.002217 0.004082 0.000000 0.035417 0.000000
# 6 0.000000 0.000000 0.000000 0.012614 0.000000 0.056602
#
#
# Mechanical properties :
#
#
# Convention : Reuss Voigt Hill
#
# Bulk Modulus (GPa) = 26.14198 30.44125 28.29162
# Shear Modulus (GPa) = 26.61311 30.83284 28.72298
#
# Velocity S-wave (km/s) = 3.33407 3.58867 3.46371
# Velocity P-wave (km/s) = 5.07352 5.46685 5.27385
#
# Compressibility (1/GPa) = 0.03825264
#
# Stress axis : x y z
#
# Youngs Moduli (GPa) = 57.67500 76.70087 76.94335
#
# Poissons Ratio (x) = -0.13474 -0.01645
# Poissons Ratio (y) = -0.10131 0.34859
# Poissons Ratio (z) = -0.01233 0.34750
#
# Static dielectric constant tensor:
#      x y z
#    x 1.617570 0.000000 -0.434100 
#    y 0.000000 1.512850 0.000000 
#    z -0.434100 0.000000 1.353580 
# 
# From -- ./inp_files/285562.got.cif
#   From: 2010.05.17/outbox.cif.g08.bks.cpg/sg15_143_cif.got.tgz:285562.got - 2010.06.03 18:47:42.
