data_PCOD9305283
_publ_section_title
;
Structure prediction by ZEFSAII (Michael W. Deem and Ramdas Pophale) SiO2 
 PCOD9305283
Probable space group: C 2/C
;
_chemical_formula_sum "Si O2"
_cell_formula_units_Z 40
_cell_length_a 21.849074
_cell_length_b 9.210867
_cell_length_c 9.506527
_cell_angle_alpha 90.000000
_cell_angle_beta 80.743501
_cell_angle_gamma 90.000000
_cell_volume 1888.265078
_symmetry_space_group_name_H-M "C 2/C"
_symmetry_group_IT_number 15
_symmetry_cell_setting 'monoclinic'
loop_
_space_group_symop_operation_xyz
x,y,z
-x,y,1/2-z
-x,-y,-z
x,-y,1/2+z
1/2+x,1/2+y,z
1/2-x,1/2+y,1/2-z
1/2-x,1/2-y,-z
1/2+x,1/2-y,1/2+z
loop_
_atom_site_type_symbol
_atom_site_label
_atom_site_fract_x
_atom_site_fract_y
_atom_site_fract_z
Si Si1 0.541982 0.582270 0.372269
Si Si2 0.866985 0.595311 0.995390
Si Si3 0.061814 0.409440 0.316713
Si Si4 0.334454 0.412219 0.122044
Si Si5 0.757316 0.907681 0.429347
O O1 0.500000 0.581254 0.250000
O O2 0.500000 0.500000 0.500000
O O3 0.555667 0.752230 0.393035
O O4 0.606179 0.495837 0.337498
O O5 0.920647 0.527055 0.073344
O O6 0.853648 0.756370 0.054982
O O7 0.806964 0.494892 0.040189
O O8 0.885994 0.598267 0.824802
O O9 0.000000 0.441024 0.250000
O O10 0.283202 0.395691 0.262278
O O11 0.306397 0.504987 0.005510
O O12 0.750000 0.750000 0.500000
#
# Coordination Sequence:
#
# PCOD9305283 Si02
#       5
#     8   8   8   8   8
#     4  11  24  44  67  95 129 169 214 264 322 389
#     4  12  25  43  67  98 132 171 218 272 325 384
#     4  11  24  44  66  96 131 170 215 268 326 390
#     4  12  24  42  66  95 129 170 217 270 322 384
#     4  12  25  43  65  94 130 174 218 266 325 387
#
# _framework density 21.183465999999999
#
# number of rings (size 3 to 8) (size 9 to 14) (size 15 to 20)
#    0.000    0.400    0.000   10.800    0.000    2.400 
#    0.000    0.000    0.000    0.000    0.000    0.000 
#    0.000    0.000    0.000    0.000    0.000    0.000 
#
# Total GULP energy -112045.669346 kJ/mol
# GULP energy per Si atom -5602.283467 kJ/mol
# Density = 2.113525 g / cm^3
# Si number density = 21.183466 Si / 1000 Ang^3
#
#
#
# Elastic Constant Matrix: (Units=GPa)
#
#
# Indices 1 2 3 4 5 6 
#
# 1 79.3327 34.5219 -20.9780 0.0000 -0.6481 0.0000
# 2 34.5219 168.8765 31.9330 0.0000 15.8619 0.0000
# 3 -20.9780 31.9330 91.4168 0.0000 -18.5864 0.0000
# 4 0.0000 0.0000 0.0000 38.1850 0.0000 3.1590
# 5 -0.6481 15.8619 -18.5864 0.0000 34.8073 0.0000
# 6 0.0000 0.0000 0.0000 3.1590 0.0000 48.7502
#
#
#
# Elastic Compliance Matrix: (Units=1/GPa)
#
#
# Indices 1 2 3 4 5 6 
#
# 1 0.016894 -0.005415 0.007105 0.000000 0.006576 0.000000
# 2 -0.005415 0.008797 -0.005778 0.000000 -0.007195 0.000000
# 3 0.007105 -0.005778 0.016995 0.000000 0.011841 0.000000
# 4 0.000000 0.000000 0.000000 0.026329 0.000000 -0.001706
# 5 0.006576 -0.007195 0.011841 0.000000 0.038454 0.000000
# 6 0.000000 0.000000 0.000000 -0.001706 0.000000 0.020623
#
#
# Mechanical properties :
#
#
# Convention : Reuss Voigt Hill
#
# Bulk Modulus (GPa) = 28.97671 47.84217 38.40944
# Shear Modulus (GPa) = 33.83616 43.95845 38.89731
#
# Velocity S-wave (km/s) = 4.00095 4.56030 4.28975
# Velocity P-wave (km/s) = 5.92048 7.09663 6.53507
#
# Compressibility (1/GPa) = 0.03451047
#
# Stress axis : x y z
#
# Youngs Moduli (GPa) = 59.19290 113.67821 58.84031
#
# Poissons Ratio (x) = 0.61553 -0.41807
# Poissons Ratio (y) = 0.32051 0.33999
# Poissons Ratio (z) = -0.42058 0.65686
#
# Static dielectric constant tensor:
#      x y z
#    x 1.778490 0.000000 -0.031350 
#    y 0.000000 1.729740 0.000000 
#    z -0.031350 0.000000 1.752780 
# 
# From -- ./inp_files/59935.got.cif
#   From: 2010.05.17/outbox.cif.g08.bks.cpg/sg15_30_cif.got.tgz:59935.got - 2010.06.03 18:47:42.
