data_PCOD9305030
_publ_section_title
;
Structure prediction by ZEFSAII (Michael W. Deem and Ramdas Pophale) SiO2 
 PCOD9305030
Probable space group: C 2/C
;
_chemical_formula_sum "Si O2"
_cell_formula_units_Z 36
_cell_length_a 9.125908
_cell_length_b 26.228138
_cell_length_c 15.985630
_cell_angle_alpha 90.000000
_cell_angle_beta 26.833119
_cell_angle_gamma 90.000000
_cell_volume 1727.143884
_symmetry_space_group_name_H-M "C 2/C"
_symmetry_group_IT_number 15
_symmetry_cell_setting 'monoclinic'
loop_
_space_group_symop_operation_xyz
x,y,z
-x,y,1/2-z
-x,-y,-z
x,-y,1/2+z
1/2+x,1/2+y,z
1/2-x,1/2+y,1/2-z
1/2-x,1/2-y,-z
1/2+x,1/2-y,1/2+z
loop_
_atom_site_type_symbol
_atom_site_label
_atom_site_fract_x
_atom_site_fract_y
_atom_site_fract_z
Si Si1 0.878936 0.056972 0.076471
Si Si2 0.196046 0.147358 0.810049
Si Si3 0.944262 0.129195 0.376224
Si Si4 0.500000 0.697024 0.750000
Si Si5 0.528661 0.723216 0.041722
O O1 0.500000 0.060418 0.250000
O O2 0.946692 0.077260 0.135404
O O3 0.071859 0.097085 0.920005
O O4 0.000000 0.000000 0.000000
O O5 0.563871 0.138445 0.591626
O O6 0.971386 0.161923 0.846168
O O7 0.177712 0.194050 0.885393
O O8 0.131343 0.176238 0.325718
O O9 0.000000 0.130225 0.250000
O O10 0.795325 0.734247 0.622753
O O11 0.750000 0.750000 0.000000
#
# Coordination Sequence:
#
# PCOD9305030 Si02
#       5
#     8   8   8   4   8
#     4  11  25  49  78 101 138 179 228 290 365 419
#     4  11  26  47  66 103 145 184 237 294 343 424
#     4  11  26  44  71 103 141 184 241 286 347 416
#     4  12  26  38  70 102 146 186 240 276 356 402
#     4  11  24  41  68  95 144 194 234 282 348 405
#
# _framework density 20.84366
#
# number of rings (size 3 to 8) (size 9 to 14) (size 15 to 20)
#    0.000    0.889    2.222    4.667   12.444    0.000 
#    2.000    2.222    0.000    0.000    0.000    0.000 
#    0.000    0.000    0.000    0.000    0.000    0.000 
#
# Total GULP energy -100670.814511 kJ/mol
# GULP energy per Si atom -5592.823028 kJ/mol
# Density = 2.079622 g / cm^3
# Si number density = 20.843660 Si / 1000 Ang^3
#
#
#
# Elastic Constant Matrix: (Units=GPa)
#
#
# Indices 1 2 3 4 5 6 
#
# 1 162.5267 37.8991 49.2261 0.0001 22.5406 -0.0001
# 2 37.8991 115.2022 31.5159 0.0000 9.8058 0.0000
# 3 49.2261 31.5159 114.6958 0.0001 12.0712 0.0000
# 4 0.0001 0.0000 0.0001 20.8072 -0.0001 -3.0156
# 5 22.5406 9.8058 12.0712 -0.0001 45.3957 0.0000
# 6 -0.0001 0.0000 0.0000 -3.0156 0.0000 34.9313
#
#
#
# Elastic Compliance Matrix: (Units=1/GPa)
#
#
# Indices 1 2 3 4 5 6 
#
# 1 0.007689 -0.001589 -0.002570 0.000000 -0.002791 0.000000
# 2 -0.001589 0.009799 -0.001925 0.000000 -0.000816 0.000000
# 3 -0.002570 -0.001925 0.010465 0.000000 -0.001091 0.000000
# 4 0.000000 0.000000 0.000000 0.048669 0.000000 0.004202
# 5 -0.002791 -0.000816 -0.001091 0.000000 0.023881 0.000000
# 6 0.000000 0.000000 0.000000 0.004202 0.000000 0.028990
#
#
# Mechanical properties :
#
#
# Convention : Reuss Voigt Hill
#
# Bulk Modulus (GPa) = 63.34460 69.96742 66.65601
# Shear Modulus (GPa) = 34.03165 38.47910 36.25538
#
# Velocity S-wave (km/s) = 4.04506 4.30127 4.17513
# Velocity P-wave (km/s) = 7.23001 7.63600 7.43577
#
# Compressibility (1/GPa) = 0.01578667
#
# Stress axis : x y z
#
# Youngs Moduli (GPa) = 130.06064 102.05003 95.55422
#
# Poissons Ratio (x) = 0.16215 0.24553
# Poissons Ratio (y) = 0.20665 0.18392
# Poissons Ratio (z) = 0.33420 0.19642
#
# Static dielectric constant tensor:
#      x y z
#    x 1.768030 0.000000 -0.011850 
#    y 0.000000 1.738600 0.000000 
#    z -0.011850 0.000000 1.815900 
# 
# From -- ./inp_files/138869.got.cif
#   From: 2010.05.17/outbox.cif.g08.bks.cpg/sg15_70_cif.got.tgz:138869.got - 2010.06.03 18:47:42.
