data_PCOD9305873
_publ_section_title
;
Structure prediction by ZEFSAII (Michael W. Deem and Ramdas Pophale) SiO2 
 PCOD9305873
Probable space group: C 2/C
;
_chemical_formula_sum "Si O2"
_cell_formula_units_Z 40
_cell_length_a 24.882700
_cell_length_b 5.125188
_cell_length_c 12.258256
_cell_angle_alpha 90.000000
_cell_angle_beta 86.943871
_cell_angle_gamma 90.000000
_cell_volume 1561.053874
_symmetry_space_group_name_H-M "C 2/C"
_symmetry_group_IT_number 15
_symmetry_cell_setting 'monoclinic'
loop_
_space_group_symop_operation_xyz
x,y,z
-x,y,1/2-z
-x,-y,-z
x,-y,1/2+z
1/2+x,1/2+y,z
1/2-x,1/2+y,1/2-z
1/2-x,1/2-y,-z
1/2+x,1/2-y,1/2+z
loop_
_atom_site_type_symbol
_atom_site_label
_atom_site_fract_x
_atom_site_fract_y
_atom_site_fract_z
Si Si1 0.577743 0.001405 0.704845
Si Si2 0.731545 0.950211 0.412244
Si Si3 0.374201 0.724038 0.618248
Si Si4 0.948709 0.990944 0.927790
Si Si5 0.317399 0.699265 0.281921
O O1 0.578412 0.898297 0.829902
O O2 0.560454 0.762165 0.632123
O O3 0.548565 0.259198 0.662520
O O4 0.640550 0.078870 0.690313
O O5 0.750000 0.750000 0.500000
O O6 0.726343 0.789843 0.300574
O O7 0.674109 0.093245 0.418329
O O8 0.782474 0.133769 0.390186
O O9 0.399098 0.569481 0.514450
O O10 0.351266 0.526303 0.714236
O O11 0.000000 0.000000 0.000000
#
# Coordination Sequence:
#
# PCOD9305873 Si02
#       5
#     8   8   8   8   8
#     4  11  27  52  79 111 162 198 258 332 393 468
#     4  11  26  44  78 116 158 217 260 316 383 468
#     4  11  27  49  77 114 160 208 259 323 392 466
#     4  12  29  53  81 118 149 203 271 329 402 471
#     4  11  24  48  71 113 161 201 265 308 389 470
#
# _framework density 25.623718
#
# number of rings (size 3 to 8) (size 9 to 14) (size 15 to 20)
#    0.000    0.800    4.000    0.600   11.200    1.600 
#    3.600    1.000    0.000    0.000    0.000    0.000 
#    0.000    0.000    0.000    0.000    0.000    0.000 
#
# Total GULP energy -112070.877364 kJ/mol
# GULP energy per Si atom -5603.543868 kJ/mol
# Density = 2.556540 g / cm^3
# Si number density = 25.623718 Si / 1000 Ang^3
#
#
#
# Elastic Constant Matrix: (Units=GPa)
#
#
# Indices 1 2 3 4 5 6 
#
# 1 114.3492 54.3919 58.4130 0.0000 22.3051 0.0000
# 2 54.3919 159.3161 49.5082 0.0000 30.6618 0.0000
# 3 58.4130 49.5082 92.9391 0.0000 34.6805 0.0000
# 4 0.0000 0.0000 0.0000 35.8542 0.0000 26.9551
# 5 22.3051 30.6618 34.6805 0.0000 54.0630 0.0000
# 6 0.0000 0.0000 0.0000 26.9551 0.0000 29.9370
#
#
#
# Elastic Compliance Matrix: (Units=1/GPa)
#
#
# Indices 1 2 3 4 5 6 
#
# 1 0.013606 -0.002433 -0.007462 0.000000 0.000553 0.000000
# 2 -0.002433 0.008167 -0.001929 0.000000 -0.002390 0.000000
# 3 -0.007462 -0.001929 0.019616 0.000000 -0.008410 0.000000
# 4 0.000000 0.000000 0.000000 0.086327 0.000000 -0.077728
# 5 0.000553 -0.002390 -0.008410 0.000000 0.025020 0.000000
# 6 0.000000 0.000000 0.000000 -0.077728 0.000000 0.103390
#
#
# Mechanical properties :
#
#
# Convention : Reuss Voigt Hill
#
# Bulk Modulus (GPa) = 56.36827 76.80340 66.58583
# Shear Modulus (GPa) = 17.50163 37.59025 27.54594
#
# Velocity S-wave (km/s) = 2.61631 3.83431 3.28230
# Velocity P-wave (km/s) = 5.58328 7.04565 6.35666
#
# Compressibility (1/GPa) = 0.01774048
#
# Stress axis : x y z
#
# Youngs Moduli (GPa) = 73.49507 122.44253 50.97930
#
# Poissons Ratio (x) = 0.29789 0.38041
# Poissons Ratio (y) = 0.17880 0.09836
# Poissons Ratio (z) = 0.54842 0.23625
#
# Static dielectric constant tensor:
#      x y z
#    x 1.995240 0.000000 -0.037070 
#    y 0.000000 2.128530 0.000000 
#    z -0.037070 0.000000 2.016540 
# 
# From -- ./inp_files/120801.got.cif
#   From: 2010.05.17/outbox.cif.g08.bks.cpg/sg15_61_cif.got.tgz:120801.got - 2010.06.03 18:47:42.
