data_PCOD9305371
_publ_section_title
;
Structure prediction by ZEFSAII (Michael W. Deem and Ramdas Pophale) SiO2 
 PCOD9305371
Probable space group: C 2/C
;
_chemical_formula_sum "Si O2"
_cell_formula_units_Z 56
_cell_length_a 26.163555
_cell_length_b 8.896067
_cell_length_c 17.335588
_cell_angle_alpha 90.000000
_cell_angle_beta 139.869976
_cell_angle_gamma 90.000000
_cell_volume 2600.594989
_symmetry_space_group_name_H-M "C 2/C"
_symmetry_group_IT_number 15
_symmetry_cell_setting 'monoclinic'
loop_
_space_group_symop_operation_xyz
x,y,z
-x,y,1/2-z
-x,-y,-z
x,-y,1/2+z
1/2+x,1/2+y,z
1/2-x,1/2+y,1/2-z
1/2-x,1/2-y,-z
1/2+x,1/2-y,1/2+z
loop_
_atom_site_type_symbol
_atom_site_label
_atom_site_fract_x
_atom_site_fract_y
_atom_site_fract_z
Si Si1 0.289353 0.265966 0.268811
Si Si2 0.813815 0.099582 0.246526
Si Si3 0.059374 0.600828 0.119668
Si Si4 0.752494 0.925259 0.518075
Si Si5 0.090658 0.425729 0.828088
Si Si6 0.160704 0.856633 0.498063
Si Si7 0.545401 0.618497 0.998554
O O1 0.256637 0.210627 0.312738
O O2 0.306573 0.442523 0.284475
O O3 0.365746 0.164564 0.340099
O O4 0.221723 0.230031 0.126272
O O5 0.813537 0.053023 0.158611
O O6 0.890665 0.182267 0.366941
O O7 0.090063 0.537532 0.236090
O O8 0.000000 0.500000 0.000000
O O9 0.011855 0.748840 0.091317
O O10 0.750000 0.750000 0.500000
O O11 0.664781 0.976088 0.443585
O O12 0.786188 0.025524 0.487534
O O13 0.000000 0.452732 0.750000
O O14 0.118336 0.259821 0.889857
O O15 0.093524 0.926817 0.477067
O O16 0.500000 0.500000 0.000000
#
# Coordination Sequence:
#
# PCOD9305371 Si02
#       7
#     8   8   8   8   8   8   8
#     4  11  24  44  72 100 140 191 239 287 353 435
#     4  11  26  43  71 100 142 183 239 283 357 425
#     4  12  27  43  70 104 144 183 234 297 363 423
#     4  12  28  45  72 108 145 185 243 302 360 424
#     4  12  25  48  75 103 142 188 248 293 362 433
#     4  11  24  47  75 100 138 197 248 286 353 441
#     4  11  25  45  68 103 140 183 234 294 353 422
#
# _framework density 21.533534
#
# number of rings (size 3 to 8) (size 9 to 14) (size 15 to 20)
#    0.000    0.571    5.714    1.286   12.000    0.000 
#    0.000    0.714    0.000    0.000    0.000    0.000 
#    0.000    0.000    0.000    0.000    0.000    0.000 
#
# Total GULP energy -156284.761388 kJ/mol
# GULP energy per Si atom -5581.598621 kJ/mol
# Density = 2.148452 g / cm^3
# Si number density = 21.533534 Si / 1000 Ang^3
#
#
#
# Elastic Constant Matrix: (Units=GPa)
#
#
# Indices 1 2 3 4 5 6 
#
# 1 74.0478 14.9901 13.8186 0.0000 17.4812 0.0000
# 2 14.9901 61.5220 -4.4650 0.0000 -0.7104 0.0000
# 3 13.8186 -4.4650 72.1722 0.0000 -4.0284 0.0000
# 4 0.0000 0.0000 0.0000 34.1664 0.0000 -4.6905
# 5 17.4812 -0.7104 -4.0284 0.0000 43.2193 0.0000
# 6 0.0000 0.0000 0.0000 -4.6905 0.0000 32.1024
#
#
#
# Elastic Compliance Matrix: (Units=1/GPa)
#
#
# Indices 1 2 3 4 5 6 
#
# 1 0.016852 -0.004474 -0.003908 0.000000 -0.007254 0.000000
# 2 -0.004474 0.017521 0.002068 0.000000 0.002290 0.000000
# 3 -0.003908 0.002068 0.014900 0.000000 0.003004 0.000000
# 4 0.000000 0.000000 0.000000 0.029868 0.000000 0.004364
# 5 -0.007254 0.002290 0.003004 0.000000 0.026390 0.000000
# 6 0.000000 0.000000 0.000000 0.004364 0.000000 0.031788
#
#
# Mechanical properties :
#
#
# Convention : Reuss Voigt Hill
#
# Bulk Modulus (GPa) = 27.28827 28.49215 27.89021
# Shear Modulus (GPa) = 30.83365 34.12416 32.47891
#
# Velocity S-wave (km/s) = 3.78814 3.98515 3.88789
# Velocity P-wave (km/s) = 5.64210 5.86817 5.75625
#
# Compressibility (1/GPa) = 0.03664578
#
# Stress axis : x y z
#
# Youngs Moduli (GPa) = 59.33891 57.07470 67.11558
#
# Poissons Ratio (x) = 0.25533 0.26231
# Poissons Ratio (y) = 0.26546 -0.13882
# Poissons Ratio (z) = 0.23192 -0.11805
#
# Static dielectric constant tensor:
#      x y z
#    x 1.945270 0.000000 -0.032800 
#    y 0.000000 1.722570 0.000000 
#    z -0.032800 0.000000 1.820620 
# 
# From -- ./inp_files/218494.got.cif
#   From: 2010.05.17/outbox.cif.g08.bks.cpg/sg15_110_cif.got.tgz:218494.got - 2010.06.03 18:47:42.
