data_PCOD9305839
_publ_section_title
;
Structure prediction by ZEFSAII (Michael W. Deem and Ramdas Pophale) SiO2 
 PCOD9305839
Probable space group: C 2/C
;
_chemical_formula_sum "Si O2"
_cell_formula_units_Z 44
_cell_length_a 14.507262
_cell_length_b 11.526816
_cell_length_c 10.397155
_cell_angle_alpha 90.000000
_cell_angle_beta 90.910852
_cell_angle_gamma 90.000000
_cell_volume 1738.418970
_symmetry_space_group_name_H-M "C 2/C"
_symmetry_group_IT_number 15
_symmetry_cell_setting 'monoclinic'
loop_
_space_group_symop_operation_xyz
x,y,z
-x,y,1/2-z
-x,-y,-z
x,-y,1/2+z
1/2+x,1/2+y,z
1/2-x,1/2+y,1/2-z
1/2-x,1/2-y,-z
1/2+x,1/2-y,1/2+z
loop_
_atom_site_type_symbol
_atom_site_label
_atom_site_fract_x
_atom_site_fract_y
_atom_site_fract_z
Si Si1 0.649133 0.455199 0.390722
Si Si2 0.106983 0.439862 0.228679
Si Si3 0.225514 0.104819 0.621915
Si Si4 0.000000 0.910967 0.750000
Si Si5 0.912806 0.253156 0.451664
Si Si6 0.425809 0.798714 0.855395
O O1 0.697385 0.535533 0.495960
O O2 0.695432 0.459150 0.252789
O O3 0.548924 0.509062 0.357193
O O4 0.640653 0.326230 0.447659
O O5 0.165693 0.395797 0.351456
O O6 0.137601 0.365595 0.105008
O O7 0.106657 0.575976 0.196122
O O8 0.000000 0.412572 0.250000
O O9 0.164529 0.221072 0.624586
O O10 0.932216 0.829153 0.829629
O O11 0.008089 0.294711 0.518972
O O12 0.500000 0.753721 0.750000
#
# Coordination Sequence:
#
# PCOD9305839 Si02
#       6
#     8   8   8   4   8   8
#     4  12  25  43  77 119 152 194 252 324 378 453
#     4  11  29  51  74 108 160 207 250 315 387 457
#     4  12  27  47  78 115 152 201 260 314 376 460
#     4  12  22  42  72 116 154 196 242 318 390 446
#     4  12  23  45  76 107 153 199 254 311 390 449
#     4  11  24  47  77 110 150 201 252 311 384 455
#
# _framework density 25.310354
#
# number of rings (size 3 to 8) (size 9 to 14) (size 15 to 20)
#    0.000    0.364    6.364    2.182    2.545    5.091 
#    0.000    2.727    0.000    0.000    0.000    0.000 
#    0.000    0.000    0.000    0.000    0.000    0.000 
#
# Total GULP energy -123287.634595 kJ/mol
# GULP energy per Si atom -5603.983391 kJ/mol
# Density = 2.525275 g / cm^3
# Si number density = 25.310354 Si / 1000 Ang^3
#
#
#
# Elastic Constant Matrix: (Units=GPa)
#
#
# Indices 1 2 3 4 5 6 
#
# 1 103.3316 35.5448 29.0418 0.0000 35.6506 0.0000
# 2 35.5448 79.6938 32.6057 0.0000 27.2378 0.0000
# 3 29.0418 32.6057 138.4523 0.0000 31.6238 0.0000
# 4 0.0000 0.0000 0.0000 32.7761 0.0000 8.3707
# 5 35.6506 27.2378 31.6238 0.0000 67.0344 0.0000
# 6 0.0000 0.0000 0.0000 8.3707 0.0000 26.1989
#
#
#
# Elastic Compliance Matrix: (Units=1/GPa)
#
#
# Indices 1 2 3 4 5 6 
#
# 1 0.012889 -0.003761 -0.000674 0.000000 -0.005008 0.000000
# 2 -0.003761 0.016372 -0.002246 0.000000 -0.003593 0.000000
# 3 -0.000674 -0.002246 0.008521 0.000000 -0.002749 0.000000
# 4 0.000000 0.000000 0.000000 0.033221 0.000000 -0.010614
# 5 -0.005008 -0.003593 -0.002749 0.000000 0.020338 0.000000
# 6 0.000000 0.000000 0.000000 -0.010614 0.000000 0.041561
#
#
# Mechanical properties :
#
#
# Convention : Reuss Voigt Hill
#
# Bulk Modulus (GPa) = 40.95049 57.31802 49.13425
# Shear Modulus (GPa) = 32.38264 40.15424 36.26844
#
# Velocity S-wave (km/s) = 3.58078 3.98738 3.78954
# Velocity P-wave (km/s) = 5.77152 6.62527 6.21308
#
# Compressibility (1/GPa) = 0.02441973
#
# Stress axis : x y z
#
# Youngs Moduli (GPa) = 77.58733 61.07821 117.35903
#
# Poissons Ratio (x) = 0.22972 0.07908
# Poissons Ratio (y) = 0.29181 0.26361
# Poissons Ratio (z) = 0.05228 0.13719
#
# Static dielectric constant tensor:
#      x y z
#    x 2.194970 0.000000 -0.050680 
#    y 0.000000 1.973190 0.000000 
#    z -0.050680 0.000000 1.998530 
# 
# From -- ./inp_files/95049.got.cif
#   From: 2010.05.17/outbox.cif.g08.bks.cpg/sg15_48_cif.got.tgz:95049.got - 2010.06.03 18:47:42.
