data_PCOD9305698
_publ_section_title
;
Structure prediction by ZEFSAII (Michael W. Deem and Ramdas Pophale) SiO2 
 PCOD9305698
Probable space group: C 2/C
;
_chemical_formula_sum "Si O2"
_cell_formula_units_Z 32
_cell_length_a 10.229041
_cell_length_b 25.634848
_cell_length_c 5.291971
_cell_angle_alpha 90.000000
_cell_angle_beta 70.906303
_cell_angle_gamma 90.000000
_cell_volume 1311.317907
_symmetry_space_group_name_H-M "C 2/C"
_symmetry_group_IT_number 15
_symmetry_cell_setting 'monoclinic'
loop_
_space_group_symop_operation_xyz
x,y,z
-x,y,1/2-z
-x,-y,-z
x,-y,1/2+z
1/2+x,1/2+y,z
1/2-x,1/2+y,1/2-z
1/2-x,1/2-y,-z
1/2+x,1/2-y,1/2+z
loop_
_atom_site_type_symbol
_atom_site_label
_atom_site_fract_x
_atom_site_fract_y
_atom_site_fract_z
Si Si1 0.850669 0.870460 0.785106
Si Si2 0.175956 0.033021 0.507303
Si Si3 0.137991 0.404784 0.318741
Si Si4 0.654177 0.201391 0.118200
O O1 0.883067 0.910460 0.535072
O O2 0.735824 0.827874 0.789981
O O3 0.000000 0.846916 0.750000
O O4 0.771780 0.903703 0.049759
O O5 0.332350 0.052971 0.479303
O O6 0.142611 0.998301 0.283118
O O7 0.133749 0.346644 0.436070
O O8 0.000000 0.415641 0.250000
O O9 0.500000 0.221820 0.250000
O O10 0.750000 0.250000 0.000000
#
# Coordination Sequence:
#
# PCOD9305698 Si02
#       4
#     8   8   8   8
#     4  11  26  47  72 106 150 198 246 308 370 442
#     4  11  24  46  74 111 149 199 253 308 368 440
#     4  11  24  47  72 102 153 196 244 309 372 442
#     4  11  26  45  73 110 148 193 247 307 374 446
#
# _framework density 24.402930999999999
#
# number of rings (size 3 to 8) (size 9 to 14) (size 15 to 20)
#    0.000    1.000    5.000    0.000    3.500    7.000 
#    0.000    0.000    0.000    0.000    0.000    0.000 
#    0.000    0.000    0.000    0.000    0.000    0.000 
#
# Total GULP energy -89279.059804 kJ/mol
# GULP energy per Si atom -5579.941238 kJ/mol
# Density = 2.434739 g / cm^3
# Si number density = 24.402931 Si / 1000 Ang^3
#
#
#
# Elastic Constant Matrix: (Units=GPa)
#
#
# Indices 1 2 3 4 5 6 
#
# 1 197.0472 32.7182 43.8664 0.0000 -13.3497 0.0000
# 2 32.7182 77.2209 18.0784 0.0000 -0.2559 0.0000
# 3 43.8664 18.0784 90.9926 0.0000 0.3275 0.0000
# 4 0.0000 0.0000 0.0000 14.6966 0.0000 1.5811
# 5 -13.3497 -0.2559 0.3275 0.0000 44.9617 0.0000
# 6 0.0000 0.0000 0.0000 1.5811 0.0000 -21.7679
#
#
#
# Elastic Compliance Matrix: (Units=1/GPa)
#
#
# Indices 1 2 3 4 5 6 
#
# 1 0.006095 -0.001979 -0.002552 0.000000 0.001817 0.000000
# 2 -0.001979 0.014225 -0.001870 0.000000 -0.000493 0.000000
# 3 -0.002552 -0.001870 0.012595 0.000000 -0.000860 0.000000
# 4 0.000000 0.000000 0.000000 0.067515 0.000000 0.004904
# 5 0.001817 -0.000493 -0.000860 0.000000 0.022784 0.000000
# 6 0.000000 0.000000 0.000000 0.004904 0.000000 -0.045583
#
#
# Mechanical properties :
#
#
# Convention : Reuss Voigt Hill
#
# Bulk Modulus (GPa) = 49.72081 61.62072 55.67077
# Shear Modulus (GPa) = 51.47429 25.61793 38.54611
#
# Velocity S-wave (km/s) = 4.59775 3.24356 3.97869
# Velocity P-wave (km/s) = 6.97172 6.27166 6.63094
#
# Compressibility (1/GPa) = 0.02011230
#
# Stress axis : x y z
#
# Youngs Moduli (GPa) = 164.07934 70.30100 79.39877
#
# Poissons Ratio (x) = 0.13912 0.20259
# Poissons Ratio (y) = 0.32470 0.14850
# Poissons Ratio (z) = 0.41865 0.13149
#
# Static dielectric constant tensor:
#      x y z
#    x 1.937410 0.000000 0.026530 
#    y 0.000000 1.963010 0.000000 
#    z 0.026530 0.000000 2.096200 
# 
# From -- ./inp_files/4219.got.cif
#   From: 2010.05.17/outbox.cif.g08.bks.cpg/sg15_3_cif.got.tgz:4219.got - 2010.06.03 18:47:42.
