data_PCOD9305978
_publ_section_title
;
Structure prediction by ZEFSAII (Michael W. Deem and Ramdas Pophale) SiO2 
 PCOD9305978
Probable space group: C 2/C
;
_chemical_formula_sum "Si O2"
_cell_formula_units_Z 52
_cell_length_a 9.840413
_cell_length_b 12.148782
_cell_length_c 21.446543
_cell_angle_alpha 90.000000
_cell_angle_beta 61.110661
_cell_angle_gamma 90.000000
_cell_volume 2244.845805
_symmetry_space_group_name_H-M "C 2/C"
_symmetry_group_IT_number 15
_symmetry_cell_setting 'monoclinic'
loop_
_space_group_symop_operation_xyz
x,y,z
-x,y,1/2-z
-x,-y,-z
x,-y,1/2+z
1/2+x,1/2+y,z
1/2-x,1/2+y,1/2-z
1/2-x,1/2-y,-z
1/2+x,1/2-y,1/2+z
loop_
_atom_site_type_symbol
_atom_site_label
_atom_site_fract_x
_atom_site_fract_y
_atom_site_fract_z
Si Si1 0.344698 0.903606 0.222064
Si Si2 0.100234 0.361065 0.783675
Si Si3 0.000000 0.500000 0.000000
Si Si4 0.924376 0.241409 0.487390
Si Si5 0.548940 0.328275 0.832576
Si Si6 0.912534 0.838040 0.127152
Si Si7 0.328279 0.521883 0.860770
O O1 0.451442 0.797796 0.189371
O O2 0.241358 0.888968 0.306845
O O3 0.446273 0.013392 0.195233
O O4 0.221998 0.918047 0.192122
O O5 0.278487 0.366134 0.723104
O O6 0.000000 0.312594 0.750000
O O7 0.081893 0.286182 0.847497
O O8 0.173168 0.494160 0.932152
O O9 0.990902 0.636125 0.984119
O O10 0.750000 0.250000 0.500000
O O11 0.022134 0.178077 0.412567
O O12 0.918195 0.171562 0.552215
O O13 0.421513 0.407615 0.830800
O O14 0.057434 0.903422 0.123597
#
# Coordination Sequence:
#
# PCOD9305978 Si02
#       7
#     8   8   4   8   8   8   8
#     4  11  24  50  77 112 150 199 259 317 389 461
#     4  11  25  48  72 112 147 194 259 320 388 464
#     4  12  26  48  78 110 146 208 246 326 384 460
#     4  12  27  51  72 112 153 203 262 315 390 467
#     4  11  25  47  78 107 151 202 251 320 386 465
#     4  11  26  47  79 106 149 207 251 318 388 467
#     4  12  24  50  77 110 153 198 255 317 392 463
#
# _framework density 23.164173999999999
#
# number of rings (size 3 to 8) (size 9 to 14) (size 15 to 20)
#    0.000    0.615    4.615    3.231    0.000    2.462 
#    8.308    0.000    0.000    0.000    0.000    0.000 
#    0.000    0.000    0.000    0.000    0.000    0.000 
#
# Total GULP energy -145153.736363 kJ/mol
# GULP energy per Si atom -5582.836014 kJ/mol
# Density = 2.311145 g / cm^3
# Si number density = 23.164174 Si / 1000 Ang^3
#
#
#
# Elastic Constant Matrix: (Units=GPa)
#
#
# Indices 1 2 3 4 5 6 
#
# 1 108.7802 29.3174 56.5343 0.0000 5.2655 0.0000
# 2 29.3174 137.9518 28.1602 0.0000 -4.2773 0.0000
# 3 56.5343 28.1602 153.8794 0.0000 1.3594 0.0000
# 4 0.0000 0.0000 0.0000 46.8578 0.0000 53.5811
# 5 5.2655 -4.2773 1.3594 0.0000 46.7594 0.0000
# 6 0.0000 0.0000 0.0000 53.5811 0.0000 227.6708
#
#
#
# Elastic Compliance Matrix: (Units=1/GPa)
#
#
# Indices 1 2 3 4 5 6 
#
# 1 0.011810 -0.001734 -0.004010 0.000000 -0.001372 0.000000
# 2 -0.001734 0.007810 -0.000800 0.000000 0.000933 0.000000
# 3 -0.004010 -0.000800 0.008117 0.000000 0.000142 0.000000
# 4 0.000000 0.000000 0.000000 0.029199 0.000000 -0.006872
# 5 -0.001372 0.000933 0.000142 0.000000 0.021622 0.000000
# 6 0.000000 0.000000 0.000000 -0.006872 0.000000 0.006010
#
#
# Mechanical properties :
#
#
# Convention : Reuss Voigt Hill
#
# Bulk Modulus (GPa) = 68.26369 69.84836 69.05602
# Shear Modulus (GPa) = 48.76221 83.36423 66.06322
#
# Velocity S-wave (km/s) = 4.59308 6.00554 5.34616
# Velocity P-wave (km/s) = 7.59355 8.84917 8.24530
#
# Compressibility (1/GPa) = 0.01464908
#
# Stress axis : x y z
#
# Youngs Moduli (GPa) = 84.67081 128.04556 123.19936
#
# Poissons Ratio (x) = 0.22203 0.49398
# Poissons Ratio (y) = 0.14682 0.09861
# Poissons Ratio (z) = 0.33950 0.10249
#
# Static dielectric constant tensor:
#      x y z
#    x 1.838970 0.000000 0.009230 
#    y 0.000000 1.940080 0.000000 
#    z 0.009230 0.000000 1.798840 
# 
# From -- ./inp_files/264159.got.cif
#   From: 2010.05.17/outbox.cif.g08.bks.cpg/sg15_133_cif.got.tgz:264159.got - 2010.06.03 18:47:42.
