data_PCOD9305676
_publ_section_title
;
Structure prediction by ZEFSAII (Michael W. Deem and Ramdas Pophale) SiO2 
 PCOD9305676
Probable space group: C 2/C
;
_chemical_formula_sum "Si O2"
_cell_formula_units_Z 48
_cell_length_a 17.868973
_cell_length_b 7.919269
_cell_length_c 24.248980
_cell_angle_alpha 90.000000
_cell_angle_beta 146.489810
_cell_angle_gamma 90.000000
_cell_volume 1894.455171
_symmetry_space_group_name_H-M "C 2/C"
_symmetry_group_IT_number 15
_symmetry_cell_setting 'monoclinic'
loop_
_space_group_symop_operation_xyz
x,y,z
-x,y,1/2-z
-x,-y,-z
x,-y,1/2+z
1/2+x,1/2+y,z
1/2-x,1/2+y,1/2-z
1/2-x,1/2-y,-z
1/2+x,1/2-y,1/2+z
loop_
_atom_site_type_symbol
_atom_site_label
_atom_site_fract_x
_atom_site_fract_y
_atom_site_fract_z
Si Si1 0.154388 0.792068 0.827700
Si Si2 0.589265 0.908763 0.450565
Si Si3 0.343984 0.547363 0.768439
Si Si4 0.132660 0.442689 0.857529
Si Si5 0.121199 0.824276 0.615816
Si Si6 0.585092 0.284554 0.470784
O O1 0.173085 0.888859 0.782145
O O2 0.175982 0.590704 0.841783
O O3 0.000000 0.824179 0.750000
O O4 0.260428 0.865798 0.936566
O O5 0.593810 0.952047 0.388632
O O6 0.547578 0.088267 0.450650
O O7 0.492943 0.761596 0.414720
O O8 0.241354 0.688333 0.684969
O O9 0.316276 0.481187 0.813028
O O10 0.493675 0.625734 0.868441
O O11 0.000000 0.357833 0.750000
O O12 0.257219 0.319804 0.944601
O O13 0.064970 0.852547 0.520221
#
# Coordination Sequence:
#
# PCOD9305676 Si02
#       6
#     8   8   8   8   8   8
#     4  11  24  46  73 104 138 192 242 296 359 434
#     4  12  25  47  73 105 149 185 247 301 369 436
#     4  12  27  45  75 103 150 189 249 292 371 434
#     4  11  26  45  75 103 146 189 245 297 366 437
#     4  12  27  46  74 108 147 197 240 306 363 444
#     4  12  27  47  71 113 147 190 239 310 369 434
#
# _framework density 25.337101000000001
#
# number of rings (size 3 to 8) (size 9 to 14) (size 15 to 20)
#    0.000    0.333    1.667    7.000    9.333    0.667 
#    0.000    0.000    0.000    0.000    0.000    0.000 
#    0.000    0.000    0.000    0.000    0.000    0.000 
#
# Total GULP energy -134533.242153 kJ/mol
# GULP energy per Si atom -5605.551756 kJ/mol
# Density = 2.527943 g / cm^3
# Si number density = 25.337101 Si / 1000 Ang^3
#
#
#
# Elastic Constant Matrix: (Units=GPa)
#
#
# Indices 1 2 3 4 5 6 
#
# 1 75.1615 -14.3823 35.7153 0.0000 -7.0845 0.0000
# 2 -14.3823 30.6715 12.0881 0.0000 3.1478 0.0000
# 3 35.7153 12.0881 147.9168 0.0000 -7.8209 0.0000
# 4 0.0000 0.0000 0.0000 38.9094 0.0000 3.3084
# 5 -7.0845 3.1478 -7.8209 0.0000 33.0370 0.0000
# 6 0.0000 0.0000 0.0000 3.3084 0.0000 42.3066
#
#
#
# Elastic Compliance Matrix: (Units=1/GPa)
#
#
# Indices 1 2 3 4 5 6 
#
# 1 0.017801 0.010164 -0.005041 0.000000 0.001655 0.000000
# 2 0.010164 0.039999 -0.005883 0.000000 -0.003024 0.000000
# 3 -0.005041 -0.005883 0.008538 0.000000 0.001501 0.000000
# 4 0.000000 0.000000 0.000000 0.025873 0.000000 -0.002023
# 5 0.001655 -0.003024 0.001501 0.000000 0.031267 0.000000
# 6 0.000000 0.000000 0.000000 -0.002023 0.000000 0.023795
#
#
# Mechanical properties :
#
#
# Convention : Reuss Voigt Hill
#
# Bulk Modulus (GPa) = 15.42784 35.62131 25.52458
# Shear Modulus (GPa) = 29.34288 37.53919 33.44104
#
# Velocity S-wave (km/s) = 3.40678 3.85332 3.63691
# Velocity P-wave (km/s) = 4.64512 5.82124 5.26612
#
# Compressibility (1/GPa) = 0.06481788
#
# Stress axis : x y z
#
# Youngs Moduli (GPa) = 56.17601 25.00082 117.12460
#
# Poissons Ratio (x) = -0.25411 0.59046
# Poissons Ratio (y) = -0.57099 0.68903
# Poissons Ratio (z) = 0.28320 0.14708
#
# Static dielectric constant tensor:
#      x y z
#    x 2.037430 0.000000 -0.001740 
#    y 0.000000 1.975080 0.000000 
#    z -0.001740 0.000000 1.954180 
# 
# From -- ./inp_files/300565.got.cif
#   From: 2010.05.17/outbox.cif.g08.bks.cpg/sg15_151_cif.got.tgz:300565.got - 2010.06.03 18:47:42.
