data_PCOD9305691
_publ_section_title
;
Structure prediction by ZEFSAII (Michael W. Deem and Ramdas Pophale) SiO2 
 PCOD9305691
Probable space group: C 2/C
;
_chemical_formula_sum "Si O2"
_cell_formula_units_Z 44
_cell_length_a 12.045119
_cell_length_b 14.219788
_cell_length_c 11.327449
_cell_angle_alpha 90.000000
_cell_angle_beta 98.038609
_cell_angle_gamma 90.000000
_cell_volume 1921.090735
_symmetry_space_group_name_H-M "C 2/C"
_symmetry_group_IT_number 15
_symmetry_cell_setting 'monoclinic'
loop_
_space_group_symop_operation_xyz
x,y,z
-x,y,1/2-z
-x,-y,-z
x,-y,1/2+z
1/2+x,1/2+y,z
1/2-x,1/2+y,1/2-z
1/2-x,1/2-y,-z
1/2+x,1/2-y,1/2+z
loop_
_atom_site_type_symbol
_atom_site_label
_atom_site_fract_x
_atom_site_fract_y
_atom_site_fract_z
Si Si1 0.796603 0.179315 0.902809
Si Si2 0.500000 0.458636 0.750000
Si Si3 0.098721 0.467714 0.361474
Si Si4 0.547744 0.667680 0.031296
Si Si5 0.415086 0.884968 0.476624
Si Si6 0.690925 0.608803 0.833179
O O1 0.715191 0.088385 0.878227
O O2 0.806187 0.195342 0.761152
O O3 0.750000 0.250000 0.000000
O O4 0.923796 0.159423 0.957088
O O5 0.464692 0.392335 0.852867
O O6 0.606853 0.526315 0.782824
O O7 0.112310 0.577140 0.396645
O O8 0.000000 0.454388 0.250000
O O9 0.039026 0.420316 0.465996
O O10 0.578358 0.776081 0.053043
O O11 0.639948 0.635832 0.951778
O O12 0.316408 0.925472 0.379347
#
# Coordination Sequence:
#
# PCOD9305691 Si02
#       6
#     8   4   8   8   8   8
#     4  12  25  46  79 106 153 198 253 313 378 456
#     4  12  28  46  84 104 152 206 254 324 390 458
#     4  11  24  46  74 103 150 201 248 308 384 462
#     4  12  27  49  74 111 149 196 262 314 390 451
#     4  11  26  46  70 110 149 191 252 312 382 457
#     4  12  26  49  73 112 152 194 255 320 381 462
#
# _framework density 22.903655000000001
#
# number of rings (size 3 to 8) (size 9 to 14) (size 15 to 20)
#    0.000    0.364    5.455    2.182    6.364    1.455 
#    0.000    0.000    0.000    0.000    0.000    0.000 
#    0.000    0.000    0.000    0.000    0.000    0.000 
#
# Total GULP energy -122553.017978 kJ/mol
# GULP energy per Si atom -5570.591726 kJ/mol
# Density = 2.285152 g / cm^3
# Si number density = 22.903655 Si / 1000 Ang^3
#
#
#
# Elastic Constant Matrix: (Units=GPa)
#
#
# Indices 1 2 3 4 5 6 
#
# 1 130.2337 22.2032 16.3462 0.0000 5.1988 0.0000
# 2 22.2032 84.4516 25.5261 0.0000 1.0753 0.0000
# 3 16.3462 25.5261 82.8323 0.0000 -16.2797 0.0000
# 4 0.0000 0.0000 0.0000 29.0892 0.0000 -3.1838
# 5 5.1988 1.0753 -16.2797 0.0000 48.9731 0.0000
# 6 0.0000 0.0000 0.0000 -3.1838 0.0000 14.1009
#
#
#
# Elastic Compliance Matrix: (Units=1/GPa)
#
#
# Indices 1 2 3 4 5 6 
#
# 1 0.008192 -0.001735 -0.001333 0.000000 -0.001275 0.000000
# 2 -0.001735 0.013564 -0.004130 0.000000 -0.001487 0.000000
# 3 -0.001333 -0.004130 0.014608 0.000000 0.005088 0.000000
# 4 0.000000 0.000000 0.000000 0.035248 0.000000 0.007959
# 5 -0.001275 -0.001487 0.005088 0.000000 0.022279 0.000000
# 6 0.000000 0.000000 0.000000 0.007959 0.000000 0.072714
#
#
# Mechanical properties :
#
#
# Convention : Reuss Voigt Hill
#
# Bulk Modulus (GPa) = 45.51566 47.29653 46.40609
# Shear Modulus (GPa) = 26.54992 33.99545 30.27268
#
# Velocity S-wave (km/s) = 3.40840 3.85682 3.63952
# Velocity P-wave (km/s) = 5.95024 6.36619 6.16173
#
# Compressibility (1/GPa) = 0.02197046
#
# Stress axis : x y z
#
# Youngs Moduli (GPa) = 122.06419 73.72216 68.45432
#
# Poissons Ratio (x) = 0.12790 0.09122
# Poissons Ratio (y) = 0.21176 0.28271
# Poissons Ratio (z) = 0.16266 0.30447
#
# Static dielectric constant tensor:
#      x y z
#    x 1.908410 0.000000 -0.299840 
#    y 0.000000 2.012430 0.000000 
#    z -0.299840 0.000000 2.551790 
# 
# From -- ./inp_files/86194.got.cif
#   From: 2010.05.17/outbox.cif.g08.bks.cpg/sg15_44_cif.got.tgz:86194.got - 2010.06.03 18:47:42.
