data_PCOD9305379
_publ_section_title
;
Structure prediction by ZEFSAII (Michael W. Deem and Ramdas Pophale) SiO2 
 PCOD9305379
Probable space group: C 2/C
;
_chemical_formula_sum "Si O2"
_cell_formula_units_Z 36
_cell_length_a 7.437990
_cell_length_b 10.272275
_cell_length_c 21.607481
_cell_angle_alpha 90.000000
_cell_angle_beta 89.043573
_cell_angle_gamma 90.000000
_cell_volume 1650.691278
_symmetry_space_group_name_H-M "C 2/C"
_symmetry_group_IT_number 15
_symmetry_cell_setting 'monoclinic'
loop_
_space_group_symop_operation_xyz
x,y,z
-x,y,1/2-z
-x,-y,-z
x,-y,1/2+z
1/2+x,1/2+y,z
1/2-x,1/2+y,1/2-z
1/2-x,1/2-y,-z
1/2+x,1/2-y,1/2+z
loop_
_atom_site_type_symbol
_atom_site_label
_atom_site_fract_x
_atom_site_fract_y
_atom_site_fract_z
Si Si1 0.301288 0.004266 0.847653
Si Si2 0.500000 0.485523 0.750000
Si Si3 0.291569 0.753031 0.428906
Si Si4 0.707459 0.016093 0.352534
Si Si5 0.215537 0.748209 0.925164
O O1 0.510551 0.017945 0.826310
O O2 0.287404 0.863358 0.880393
O O3 0.157983 0.037405 0.794726
O O4 0.253999 0.107467 0.900591
O O5 0.640672 0.435305 0.696715
O O6 0.250000 0.750000 0.500000
O O7 0.184295 0.637602 0.397725
O O8 0.502724 0.733518 0.419841
O O9 0.766405 0.890032 0.392689
O O10 0.250000 0.750000 0.000000
#
# Coordination Sequence:
#
# PCOD9305379 Si02
#       5
#     8   4   8   8   8
#     4  11  26  46  68 105 137 181 232 283 339 410
#     4  12  26  48  70  96 144 192 226 268 348 418
#     4  11  24  44  72 106 138 178 234 287 349 406
#     4  11  26  46  68 105 137 181 232 283 339 410
#     4  11  24  44  72 106 138 178 234 287 349 406
#
# _framework density 21.809045000000001
#
# number of rings (size 3 to 8) (size 9 to 14) (size 15 to 20)
#    0.000    0.889    2.222    3.333    6.222    7.111 
#    0.000    0.000    0.000    0.000    0.000    0.000 
#    0.000    0.000    0.000    0.000    0.000    0.000 
#
# Total GULP energy -100228.077638 kJ/mol
# GULP energy per Si atom -5568.226535 kJ/mol
# Density = 2.175941 g / cm^3
# Si number density = 21.809045 Si / 1000 Ang^3
#
#
#
# Elastic Constant Matrix: (Units=GPa)
#
#
# Indices 1 2 3 4 5 6 
#
# 1 109.9478 -0.9270 25.5015 0.0000 5.0636 0.0000
# 2 -0.9270 26.7564 -59.9677 0.0000 -62.2829 0.0000
# 3 25.5015 -59.9677 44.1184 0.0000 -56.8146 0.0000
# 4 0.0000 0.0000 0.0000 43.3198 0.0000 16.7629
# 5 5.0636 -62.2829 -56.8146 0.0000 0.1545 0.0000
# 6 0.0000 0.0000 0.0000 16.7629 0.0000 24.7579
#
#
#
# Elastic Compliance Matrix: (Units=1/GPa)
#
#
# Indices 1 2 3 4 5 6 
#
# 1 0.009275 0.001694 -0.001026 0.000000 0.001578 0.000000
# 2 0.001694 0.005030 -0.005387 0.000000 -0.008733 0.000000
# 3 -0.001026 -0.005387 0.005793 0.000000 -0.007877 0.000000
# 4 0.000000 0.000000 0.000000 0.031279 0.000000 -0.021178
# 5 0.001578 -0.008733 -0.007877 0.000000 0.003809 0.000000
# 6 0.000000 0.000000 0.000000 -0.021178 0.000000 0.054730
#
#
# Mechanical properties :
#
#
# Convention : Reuss Voigt Hill
#
# Bulk Modulus (GPa) = 93.81481 12.22624 53.02053
# Shear Modulus (GPa) = 40.68043 28.06084 34.37063
#
# Velocity S-wave (km/s) = 4.32360 3.59090 3.97417
# Velocity P-wave (km/s) = 8.24830 4.77608 6.73964
#
# Compressibility (1/GPa) = 0.01065930
#
# Stress axis : x y z
#
# Youngs Moduli (GPa) = 107.81810 198.78776 172.62030
#
# Poissons Ratio (x) = -0.33678 0.17716
# Poissons Ratio (y) = -0.18266 0.92998
# Poissons Ratio (z) = 0.11065 1.07095
#
# Static dielectric constant tensor:
#      x y z
#    x 1.862310 0.000000 -0.017620 
#    y 0.000000 1.793180 0.000000 
#    z -0.017620 0.000000 1.819070 
# 
# From -- ./inp_files/229335.got.cif
#   From: 2010.05.17/outbox.cif.g08.bks.cpg/sg15_115_cif.got.tgz:229335.got - 2010.06.03 18:47:42.
