data_PCOD9305892
_publ_section_title
;
Structure prediction by ZEFSAII (Michael W. Deem and Ramdas Pophale) SiO2 
 PCOD9305892
Probable space group: C 2/C
;
_chemical_formula_sum "Si O2"
_cell_formula_units_Z 44
_cell_length_a 11.375605
_cell_length_b 21.141897
_cell_length_c 9.575080
_cell_angle_alpha 90.000000
_cell_angle_beta 68.983746
_cell_angle_gamma 90.000000
_cell_volume 2149.637807
_symmetry_space_group_name_H-M "C 2/C"
_symmetry_group_IT_number 15
_symmetry_cell_setting 'monoclinic'
loop_
_space_group_symop_operation_xyz
x,y,z
-x,y,1/2-z
-x,-y,-z
x,-y,1/2+z
1/2+x,1/2+y,z
1/2-x,1/2+y,1/2-z
1/2-x,1/2-y,-z
1/2+x,1/2-y,1/2+z
loop_
_atom_site_type_symbol
_atom_site_label
_atom_site_fract_x
_atom_site_fract_y
_atom_site_fract_z
Si Si1 0.000000 0.017958 0.750000
Si Si2 0.810587 0.336034 0.082443
Si Si3 0.521120 0.935600 0.906418
Si Si4 0.098073 0.124483 0.888738
Si Si5 0.308544 0.405082 0.845912
Si Si6 0.372508 0.303389 0.588302
O O1 0.986680 0.064698 0.623411
O O2 0.880734 0.971584 0.795800
O O3 0.702058 0.364138 0.226979
O O4 0.859994 0.270385 0.126945
O O5 0.743643 0.320248 0.963836
O O6 0.922163 0.384494 0.006132
O O7 0.500000 0.944901 0.750000
O O8 0.662927 0.912629 0.872216
O O9 0.500000 0.000000 0.000000
O O10 0.167135 0.112754 0.004571
O O11 0.001363 0.182111 0.950557
O O12 0.366497 0.351304 0.720671
#
# Coordination Sequence:
#
# PCOD9305892 Si02
#       6
#     4   8   8   8   8   8
#     4  12  24  44  78 102 142 186 242 300 360 420
#     4  11  26  47  77 101 147 193 239 291 368 434
#     4  12  29  49  73 105 152 192 239 295 370 442
#     4  12  25  46  74 108 138 188 247 302 357 426
#     4  12  27  44  74 107 144 186 245 302 361 425
#     4  11  24  48  73 107 139 195 242 297 359 425
#
# _framework density 20.468565000000002
#
# number of rings (size 3 to 8) (size 9 to 14) (size 15 to 20)
#    0.000    0.364    5.455    1.636    7.636    0.727 
#    3.273    0.000    0.000    0.000    0.000    0.000 
#    0.000    0.000    0.000    0.000    0.000    0.000 
#
# Total GULP energy -123125.854721 kJ/mol
# GULP energy per Si atom -5596.629760 kJ/mol
# Density = 2.042198 g / cm^3
# Si number density = 20.468565 Si / 1000 Ang^3
#
#
#
# Elastic Constant Matrix: (Units=GPa)
#
#
# Indices 1 2 3 4 5 6 
#
# 1 139.5226 51.2755 44.7638 0.0000 -7.3988 0.0000
# 2 51.2755 135.0177 60.5099 0.0000 -5.9365 0.0000
# 3 44.7638 60.5099 101.5657 0.0000 2.7138 0.0000
# 4 0.0000 0.0000 0.0000 9.3759 0.0000 -5.8274
# 5 -7.3988 -5.9365 2.7138 0.0000 46.4781 0.0000
# 6 0.0000 0.0000 0.0000 -5.8274 0.0000 18.3783
#
#
#
# Elastic Compliance Matrix: (Units=1/GPa)
#
#
# Indices 1 2 3 4 5 6 
#
# 1 0.008874 -0.002107 -0.002690 0.000000 0.001301 0.000000
# 2 -0.002107 0.010732 -0.005501 0.000000 0.001357 0.000000
# 3 -0.002690 -0.005501 0.014362 0.000000 -0.001970 0.000000
# 4 0.000000 0.000000 0.000000 0.132834 0.000000 0.042119
# 5 0.001301 0.001357 -0.001970 0.000000 0.022011 0.000000
# 6 0.000000 0.000000 0.000000 0.042119 0.000000 0.067767
#
#
# Mechanical properties :
#
#
# Convention : Reuss Voigt Hill
#
# Bulk Modulus (GPa) = 74.79553 76.57826 75.68689
# Shear Modulus (GPa) = 17.75359 29.48361 23.61860
#
# Velocity S-wave (km/s) = 2.94829 3.79942 3.40059
# Velocity P-wave (km/s) = 6.94341 7.53268 7.24404
#
# Compressibility (1/GPa) = 0.01336978
#
# Stress axis : x y z
#
# Youngs Moduli (GPa) = 112.69112 93.18171 69.62951
#
# Poissons Ratio (x) = 0.19634 0.18733
# Poissons Ratio (y) = 0.23745 0.38305
# Poissons Ratio (z) = 0.30319 0.51261
#
# Static dielectric constant tensor:
#      x y z
#    x 1.719360 0.000000 -0.021240 
#    y 0.000000 1.708060 0.000000 
#    z -0.021240 0.000000 1.764020 
# 
# From -- ./inp_files/30704.got.cif
#   From: 2010.05.17/outbox.cif.g08.bks.cpg/sg15_16_cif.got.tgz:30704.got - 2010.06.03 18:47:42.
