data_PCOD9305787
_publ_section_title
;
Structure prediction by ZEFSAII (Michael W. Deem and Ramdas Pophale) SiO2 
 PCOD9305787
Probable space group: C 2/C
;
_chemical_formula_sum "Si O2"
_cell_formula_units_Z 28
_cell_length_a 13.856815
_cell_length_b 9.375958
_cell_length_c 10.800186
_cell_angle_alpha 90.000000
_cell_angle_beta 124.449814
_cell_angle_gamma 90.000000
_cell_volume 1157.084886
_symmetry_space_group_name_H-M "C 2/C"
_symmetry_group_IT_number 15
_symmetry_cell_setting 'monoclinic'
loop_
_space_group_symop_operation_xyz
x,y,z
-x,y,1/2-z
-x,-y,-z
x,-y,1/2+z
1/2+x,1/2+y,z
1/2-x,1/2+y,1/2-z
1/2-x,1/2-y,-z
1/2+x,1/2-y,1/2+z
loop_
_atom_site_type_symbol
_atom_site_label
_atom_site_fract_x
_atom_site_fract_y
_atom_site_fract_z
Si Si1 0.605833 0.481989 0.726550
Si Si2 0.000734 0.756423 0.487448
Si Si3 0.500000 0.927627 0.750000
Si Si4 0.180947 0.603999 0.974116
O O1 0.500000 0.473775 0.750000
O O2 0.598242 0.338459 0.638373
O O3 0.582536 0.614777 0.620400
O O4 0.725517 0.492748 0.887593
O O5 0.926671 0.650448 0.517925
O O6 0.034854 0.671747 0.389966
O O7 0.383611 0.023594 0.684828
O O8 0.250000 0.750000 0.000000
#
# Coordination Sequence:
#
# PCOD9305787 Si02
#       4
#     8   8   4   8
#     4  11  24  47  72 104 143 186 232 299 355 422
#     4  11  26  46  70 106 143 184 241 288 361 424
#     4  12  28  46  74 106 142 190 242 290 352 434
#     4  12  26  44  71 102 144 186 236 297 353 412
#
# _framework density 24.198744999999999
#
# number of rings (size 3 to 8) (size 9 to 14) (size 15 to 20)
#    0.000    0.571    4.286    2.571    8.000    1.143 
#    0.000    0.000    0.000    0.000    0.000    0.000 
#    0.000    0.000    0.000    0.000    0.000    0.000 
#
# Total GULP energy -78380.692475 kJ/mol
# GULP energy per Si atom -5598.620891 kJ/mol
# Density = 2.414367 g / cm^3
# Si number density = 24.198745 Si / 1000 Ang^3
#
#
#
# Elastic Constant Matrix: (Units=GPa)
#
#
# Indices 1 2 3 4 5 6 
#
# 1 35.1975 9.6998 26.8221 0.0000 5.0702 0.0000
# 2 9.6998 82.1005 34.5289 0.0000 12.3420 0.0000
# 3 26.8221 34.5289 146.0796 0.0000 39.3528 0.0000
# 4 0.0000 0.0000 0.0000 49.4168 0.0000 -13.7201
# 5 5.0702 12.3420 39.3528 0.0000 47.0892 0.0000
# 6 0.0000 0.0000 0.0000 -13.7201 0.0000 16.5150
#
#
#
# Elastic Compliance Matrix: (Units=1/GPa)
#
#
# Indices 1 2 3 4 5 6 
#
# 1 0.033361 -0.001602 -0.006314 0.000000 0.002104 0.000000
# 2 -0.001602 0.013648 -0.002600 0.000000 -0.001232 0.000000
# 3 -0.006314 -0.002600 0.010650 0.000000 -0.007539 0.000000
# 4 0.000000 0.000000 0.000000 0.026303 0.000000 0.021851
# 5 0.002104 -0.001232 -0.007539 0.000000 0.027633 0.000000
# 6 0.000000 0.000000 0.000000 0.021851 0.000000 0.078704
#
#
# Mechanical properties :
#
#
# Convention : Reuss Voigt Hill
#
# Bulk Modulus (GPa) = 27.30192 45.05327 36.17759
# Shear Modulus (GPa) = 22.36723 35.42598 28.89660
#
# Velocity S-wave (km/s) = 3.04355 3.83032 3.45938
# Velocity P-wave (km/s) = 4.86393 6.18225 5.56229
#
# Compressibility (1/GPa) = 0.03662747
#
# Stress axis : x y z
#
# Youngs Moduli (GPa) = 29.97522 73.27004 93.89264
#
# Poissons Ratio (x) = 0.11741 0.59280
# Poissons Ratio (y) = 0.04803 0.24412
# Poissons Ratio (z) = 0.18925 0.19050
#
# Static dielectric constant tensor:
#      x y z
#    x 1.912190 0.000000 -0.026390 
#    y 0.000000 1.968440 0.000000 
#    z -0.026390 0.000000 1.937820 
# 
# From -- ./inp_files/93146.got.cif
#   From: 2010.05.17/outbox.cif.g08.bks.cpg/sg15_47_cif.got.tgz:93146.got - 2010.06.03 18:47:42.
