data_PCOD9305928
_publ_section_title
;
Structure prediction by ZEFSAII (Michael W. Deem and Ramdas Pophale) SiO2 
 PCOD9305928
Probable space group: C 2/C
;
_chemical_formula_sum "Si O2"
_cell_formula_units_Z 32
_cell_length_a 21.141280
_cell_length_b 5.546747
_cell_length_c 23.222502
_cell_angle_alpha 90.000000
_cell_angle_beta 155.423328
_cell_angle_gamma 90.000000
_cell_volume 1132.605310
_symmetry_space_group_name_H-M "C 2/C"
_symmetry_group_IT_number 15
_symmetry_cell_setting 'monoclinic'
loop_
_space_group_symop_operation_xyz
x,y,z
-x,y,1/2-z
-x,-y,-z
x,-y,1/2+z
1/2+x,1/2+y,z
1/2-x,1/2+y,1/2-z
1/2-x,1/2-y,-z
1/2+x,1/2-y,1/2+z
loop_
_atom_site_type_symbol
_atom_site_label
_atom_site_fract_x
_atom_site_fract_y
_atom_site_fract_z
Si Si1 0.325206 0.055973 0.020191
Si Si2 0.371448 0.792284 0.900470
Si Si3 0.399293 0.710743 0.238214
Si Si4 0.494348 0.614373 0.589425
O O1 0.205716 0.845613 0.903084
O O2 0.014477 0.567768 0.829659
O O3 0.250000 0.250000 0.000000
O O4 0.363740 0.185081 0.990745
O O5 0.558881 0.404859 0.997354
O O6 0.205715 0.789482 0.791657
O O7 0.139319 0.218500 0.675809
O O8 0.500000 0.000000 0.000000
O O9 0.491579 0.474459 0.333391
#
# Coordination Sequence:
#
# PCOD9305928 Si02
#       4
#     8   8   8   8
#     4  12  31  59  86 126 175 241 306 372 449 547
#     4  11  24  48  80 132 175 222 285 360 443 543
#     4  12  27  53  86 127 175 231 300 371 455 529
#     4  11  26  45  84 125 177 221 285 354 455 522
#
# _framework density 28.253443999999998
#
# number of rings (size 3 to 8) (size 9 to 14) (size 15 to 20)
#    0.000    0.500    5.000    0.000   10.500    2.000 
#    4.500    1.250    0.000    0.000    0.000    0.000 
#    0.000    0.000    0.000    0.000    0.000    0.000 
#
# Total GULP energy -89417.545598 kJ/mol
# GULP energy per Si atom -5588.596600 kJ/mol
# Density = 2.818914 g / cm^3
# Si number density = 28.253444 Si / 1000 Ang^3
#
#
#
# Elastic Constant Matrix: (Units=GPa)
#
#
# Indices 1 2 3 4 5 6 
#
# 1 203.2112 71.3696 81.4441 -0.0002 49.8042 -0.0001
# 2 71.3696 134.3445 83.5659 0.0033 27.1967 0.0016
# 3 81.4441 83.5659 144.0428 0.0001 18.2772 -0.0002
# 4 -0.0002 0.0033 0.0001 45.5127 0.0003 9.0257
# 5 49.8042 27.1967 18.2772 0.0003 66.3319 0.0001
# 6 -0.0001 0.0016 -0.0002 9.0257 0.0001 70.3036
#
#
#
# Elastic Compliance Matrix: (Units=1/GPa)
#
#
# Indices 1 2 3 4 5 6 
#
# 1 0.007665 -0.001305 -0.003020 0.000000 -0.004388 0.000000
# 2 -0.001305 0.012483 -0.006195 -0.000001 -0.002431 0.000000
# 3 -0.003020 -0.006195 0.012056 0.000000 0.001486 0.000000
# 4 0.000000 -0.000001 0.000000 0.022546 0.000000 -0.002894
# 5 -0.004388 -0.002431 0.001486 0.000000 0.018958 0.000000
# 6 0.000000 0.000000 0.000000 -0.002894 0.000000 0.014596
#
#
# Mechanical properties :
#
#
# Convention : Reuss Voigt Hill
#
# Bulk Modulus (GPa) = 89.58695 106.03975 97.81335
# Shear Modulus (GPa) = 44.22242 52.77757 48.50000
#
# Velocity S-wave (km/s) = 3.96056 4.32673 4.14769
# Velocity P-wave (km/s) = 7.25892 7.91037 7.59163
#
# Compressibility (1/GPa) = 0.01116234
#
# Stress axis : x y z
#
# Youngs Moduli (GPa) = 130.45936 80.11050 82.94879
#
# Poissons Ratio (x) = 0.10456 0.25051
# Poissons Ratio (y) = 0.17028 0.51390
# Poissons Ratio (z) = 0.39399 0.49631
#
# Static dielectric constant tensor:
#      x y z
#    x 2.207340 0.000000 0.038960 
#    y 0.000000 2.672630 0.000000 
#    z 0.038960 0.000000 2.549750 
# 
# From -- ./inp_files/110258.got.cif
#   From: 2010.05.17/outbox.cif.g08.bks.cpg/sg15_56_cif.got.tgz:110258.got - 2010.06.03 18:47:42.
