data_PCOD9305581
_publ_section_title
;
Structure prediction by ZEFSAII (Michael W. Deem and Ramdas Pophale) SiO2 
 PCOD9305581
Probable space group: C 2/C
;
_chemical_formula_sum "Si O2"
_cell_formula_units_Z 60
_cell_length_a 18.742402
_cell_length_b 5.824660
_cell_length_c 23.934803
_cell_angle_alpha 90.000000
_cell_angle_beta 71.257173
_cell_angle_gamma 90.000000
_cell_volume 2474.355367
_symmetry_space_group_name_H-M "C 2/C"
_symmetry_group_IT_number 15
_symmetry_cell_setting 'monoclinic'
loop_
_space_group_symop_operation_xyz
x,y,z
-x,y,1/2-z
-x,-y,-z
x,-y,1/2+z
1/2+x,1/2+y,z
1/2-x,1/2+y,1/2-z
1/2-x,1/2-y,-z
1/2+x,1/2-y,1/2+z
loop_
_atom_site_type_symbol
_atom_site_label
_atom_site_fract_x
_atom_site_fract_y
_atom_site_fract_z
Si Si1 0.500000 0.785873 0.250000
Si Si2 0.780355 0.971819 0.159304
Si Si3 0.820276 0.206254 0.942059
Si Si4 0.919605 0.081667 0.709054
Si Si5 0.115651 0.984611 0.968196
Si Si6 0.449078 0.950364 0.852740
Si Si7 0.703198 0.470411 0.169447
Si Si8 0.016462 0.314053 0.041975
O O1 0.532753 0.646238 0.292970
O O2 0.562733 0.934433 0.204301
O O3 0.853025 0.936253 0.181091
O O4 0.734993 0.726677 0.177651
O O5 0.811420 0.995240 0.088170
O O6 0.748591 0.234639 0.176542
O O7 0.865356 0.387340 0.893670
O O8 0.801067 0.027386 0.897356
O O9 0.750000 0.250000 0.000000
O O10 0.880972 0.154158 0.975020
O O11 0.876560 0.081228 0.780194
O O12 0.983199 0.267874 0.676783
O O13 0.047613 0.882107 0.948290
O O14 0.096269 0.227557 0.999279
O O15 0.479591 0.093476 0.897368
O O16 0.000000 0.500000 0.000000
#
# Coordination Sequence:
#
# PCOD9305581 Si02
#       8
#     4   8   8   8   8   8   8   8
#     4  12  28  48  80 114 154 202 270 334 404 464
#     4  12  29  51  83 116 161 212 267 326 404 471
#     4  12  27  49  73 114 160 204 265 324 404 475
#     4  12  29  52  79 115 154 206 275 330 394 481
#     4  11  26  45  74 119 156 209 260 330 400 485
#     4  12  28  48  81 112 155 212 265 337 401 480
#     4  12  30  52  79 116 162 216 264 330 398 475
#     4  11  24  45  78 112 156 201 267 325 398 477
#
# _framework density 24.248742
#
# number of rings (size 3 to 8) (size 9 to 14) (size 15 to 20)
#    0.000    0.267    2.667    4.400   16.800    0.533 
#    0.000    0.000    0.000    0.000    0.000    0.000 
#    0.000    0.000    0.000    0.000    0.000    0.000 
#
# Total GULP energy -167184.517354 kJ/mol
# GULP energy per Si atom -5572.817245 kJ/mol
# Density = 2.419355 g / cm^3
# Si number density = 24.248742 Si / 1000 Ang^3
#
#
#
# Elastic Constant Matrix: (Units=GPa)
#
#
# Indices 1 2 3 4 5 6 
#
# 1 78.0068 20.6401 8.4776 -0.0036 3.9170 -0.0034
# 2 20.6401 99.4129 34.8297 -0.0110 -9.2100 0.0052
# 3 8.4776 34.8297 138.9793 -0.0035 -12.6039 0.0036
# 4 -0.0036 -0.0110 -0.0035 46.5899 0.0001 -0.2961
# 5 3.9170 -9.2100 -12.6039 0.0001 45.9395 -0.0019
# 6 -0.0034 0.0052 0.0036 -0.2961 -0.0019 10.5597
#
#
#
# Elastic Compliance Matrix: (Units=1/GPa)
#
#
# Indices 1 2 3 4 5 6 
#
# 1 0.013714 -0.002922 -0.000270 0.000000 -0.001829 0.000006
# 2 -0.002922 0.011750 -0.002595 0.000002 0.001893 -0.000005
# 3 -0.000270 -0.002595 0.008016 0.000000 0.001702 -0.000001
# 4 0.000000 0.000002 0.000000 0.021468 0.000000 0.000602
# 5 -0.001829 0.001893 0.001702 0.000000 0.022770 0.000002
# 6 0.000006 -0.000005 -0.000001 0.000602 0.000002 0.094717
#
#
# Mechanical properties :
#
#
# Convention : Reuss Voigt Hill
#
# Bulk Modulus (GPa) = 45.64875 49.36598 47.50737
# Shear Modulus (GPa) = 26.13540 37.44792 31.79166
#
# Velocity S-wave (km/s) = 3.28655 3.93405 3.62479
# Velocity P-wave (km/s) = 5.76784 6.40609 6.09533
#
# Compressibility (1/GPa) = 0.02190640
#
# Stress axis : x y z
#
# Youngs Moduli (GPa) = 72.91947 85.10489 124.74340
#
# Poissons Ratio (x) = 0.24868 0.03370
# Poissons Ratio (y) = 0.21308 0.32369
# Poissons Ratio (z) = 0.01970 0.22083
#
# Static dielectric constant tensor:
#      x y z
#    x 1.997760 0.000000 -0.022360 
#    y 0.000000 2.037680 0.000000 
#    z -0.022360 0.000000 1.885560 
# 
# From -- ./inp_files/300113.got.cif
#   From: 2010.05.17/outbox.cif.g08.bks.cpg/sg15_151_cif.got.tgz:300113.got - 2010.06.03 18:47:42.
