data_PCOD9305055
_publ_section_title
;
Structure prediction by ZEFSAII (Michael W. Deem and Ramdas Pophale) SiO2 
 PCOD9305055
Probable space group: C 2/C
;
_chemical_formula_sum "Si O2"
_cell_formula_units_Z 56
_cell_length_a 17.322370
_cell_length_b 9.354578
_cell_length_c 23.895832
_cell_angle_alpha 90.000000
_cell_angle_beta 42.923150
_cell_angle_gamma 90.000000
_cell_volume 2637.008251
_symmetry_space_group_name_H-M "C 2/C"
_symmetry_group_IT_number 15
_symmetry_cell_setting 'monoclinic'
loop_
_space_group_symop_operation_xyz
x,y,z
-x,y,1/2-z
-x,-y,-z
x,-y,1/2+z
1/2+x,1/2+y,z
1/2-x,1/2+y,1/2-z
1/2-x,1/2-y,-z
1/2+x,1/2-y,1/2+z
loop_
_atom_site_type_symbol
_atom_site_label
_atom_site_fract_x
_atom_site_fract_y
_atom_site_fract_z
Si Si1 0.630350 0.978150 0.366585
Si Si2 0.968392 0.774444 0.206740
Si Si3 0.659954 0.592776 0.947155
Si Si4 0.763464 0.288292 0.759619
Si Si5 0.928108 0.012377 0.624886
Si Si6 0.191440 0.391035 0.558221
Si Si7 0.137413 0.581699 0.483823
O O1 0.710438 0.870384 0.289590
O O2 0.499894 0.926690 0.435529
O O3 0.651922 0.135235 0.329506
O O4 0.663490 0.990463 0.414079
O O5 0.842552 0.707020 0.272875
O O6 0.959194 0.887002 0.160656
O O7 0.000000 0.839213 0.250000
O O8 0.065446 0.659408 0.141826
O O9 0.636697 0.584406 0.893228
O O10 0.746852 0.474122 0.924047
O O11 0.681528 0.757342 0.952014
O O12 0.543112 0.549275 0.038892
O O13 0.652113 0.383264 0.815368
O O14 0.250000 0.250000 0.500000
O O15 0.189062 0.506380 0.509920
#
# Coordination Sequence:
#
# PCOD9305055 Si02
#       7
#     8   8   8   8   8   8   8
#     4  11  25  41  73 105 140 183 246 294 356 431
#     4  12  26  44  67 105 144 186 236 299 366 431
#     4  11  24  44  71 103 139 183 238 295 355 426
#     4  12  23  44  69 100 142 188 236 293 355 434
#     4  11  24  41  73 102 137 184 238 290 355 431
#     4  12  26  43  70 103 142 186 239 298 360 428
#     4  11  25  44  68 106 140 188 238 303 349 426
#
# _framework density 21.236187999999999
#
# number of rings (size 3 to 8) (size 9 to 14) (size 15 to 20)
#    0.000    0.571    5.714    2.143    6.000    0.000 
#    0.000    0.000    0.000    0.857    0.000    0.000 
#    0.000    0.000    0.000    0.000    0.000    0.000 
#
# Total GULP energy -156271.862158 kJ/mol
# GULP energy per Si atom -5581.137934 kJ/mol
# Density = 2.118785 g / cm^3
# Si number density = 21.236188 Si / 1000 Ang^3
#
#
#
# Elastic Constant Matrix: (Units=GPa)
#
#
# Indices 1 2 3 4 5 6 
#
# 1 107.6276 32.2727 10.4018 0.0000 17.8736 0.0000
# 2 32.2727 123.3635 20.7724 0.0000 8.8218 0.0000
# 3 10.4018 20.7724 50.0082 0.0000 6.1695 0.0000
# 4 0.0000 0.0000 0.0000 28.5014 0.0000 -0.4935
# 5 17.8736 8.8218 6.1695 0.0000 39.4359 0.0000
# 6 0.0000 0.0000 0.0000 -0.4935 0.0000 37.4533
#
#
#
# Elastic Compliance Matrix: (Units=1/GPa)
#
#
# Indices 1 2 3 4 5 6 
#
# 1 0.010784 -0.002396 -0.000725 0.000000 -0.004238 0.000000
# 2 -0.002396 0.009326 -0.003316 0.000000 -0.000481 0.000000
# 3 -0.000725 -0.003316 0.021814 0.000000 -0.002342 0.000000
# 4 0.000000 0.000000 0.000000 0.035094 0.000000 0.000462
# 5 -0.004238 -0.000481 -0.002342 0.000000 0.027753 0.000000
# 6 0.000000 0.000000 0.000000 0.000462 0.000000 0.026706
#
#
# Mechanical properties :
#
#
# Convention : Reuss Voigt Hill
#
# Bulk Modulus (GPa) = 34.42396 45.32146 39.87271
# Shear Modulus (GPa) = 32.46067 35.58162 34.02115
#
# Velocity S-wave (km/s) = 3.91391 4.09775 4.00689
# Velocity P-wave (km/s) = 6.05559 6.61640 6.34220
#
# Compressibility (1/GPa) = 0.02904953
#
# Stress axis : x y z
#
# Youngs Moduli (GPa) = 92.73331 107.23058 45.84242
#
# Poissons Ratio (x) = 0.25692 0.03323
# Poissons Ratio (y) = 0.22218 0.15201
# Poissons Ratio (z) = 0.06723 0.35557
#
# Static dielectric constant tensor:
#      x y z
#    x 1.762120 0.000000 -0.000460 
#    y 0.000000 1.782290 0.000000 
#    z -0.000460 0.000000 1.804330 
# 
# From -- ./inp_files/298501.got.cif
#   From: 2010.05.17/outbox.cif.g08.bks.cpg/sg15_150_cif.got.tgz:298501.got - 2010.06.03 18:47:42.
