data_PCOD9305817
_publ_section_title
;
Structure prediction by ZEFSAII (Michael W. Deem and Ramdas Pophale) SiO2 
 PCOD9305817
Probable space group: C 2/C
;
_chemical_formula_sum "Si O2"
_cell_formula_units_Z 44
_cell_length_a 16.403870
_cell_length_b 8.073618
_cell_length_c 15.342237
_cell_angle_alpha 90.000000
_cell_angle_beta 67.692214
_cell_angle_gamma 90.000000
_cell_volume 1879.832613
_symmetry_space_group_name_H-M "C 2/C"
_symmetry_group_IT_number 15
_symmetry_cell_setting 'monoclinic'
loop_
_space_group_symop_operation_xyz
x,y,z
-x,y,1/2-z
-x,-y,-z
x,-y,1/2+z
1/2+x,1/2+y,z
1/2-x,1/2+y,1/2-z
1/2-x,1/2-y,-z
1/2+x,1/2-y,1/2+z
loop_
_atom_site_type_symbol
_atom_site_label
_atom_site_fract_x
_atom_site_fract_y
_atom_site_fract_z
Si Si1 0.000000 0.984403 0.750000
Si Si2 0.984845 0.276727 0.403836
Si Si3 0.648442 0.003335 0.121785
Si Si4 0.832626 0.103880 0.576393
Si Si5 0.835581 0.193113 0.777263
Si Si6 0.153675 0.292545 0.443268
O O1 0.984894 0.871309 0.671520
O O2 0.086834 0.095428 0.705042
O O3 0.941988 0.413115 0.359567
O O4 0.904801 0.208028 0.495272
O O5 0.064230 0.341404 0.430530
O O6 0.650992 0.113106 0.207442
O O7 0.730190 0.876156 0.091540
O O8 0.660805 0.128657 0.035609
O O9 0.840531 0.149476 0.674331
O O10 0.848670 0.907791 0.553910
O O11 0.739374 0.152488 0.854307
#
# Coordination Sequence:
#
# PCOD9305817 Si02
#       6
#     4   8   8   8   8   8
#     4  12  26  48  72  96 146 192 244 284 360 430
#     4  12  26  45  73 108 143 188 237 294 354 425
#     4  11  26  45  73 106 149 182 237 298 350 420
#     4  11  24  47  75 104 143 193 234 285 360 430
#     4  11  26  46  72 103 143 192 237 289 351 426
#     4  11  24  49  71 108 144 188 237 289 356 426
#
# _framework density 23.406338999999999
#
# number of rings (size 3 to 8) (size 9 to 14) (size 15 to 20)
#    0.000    0.727    1.818    6.000    5.091    3.636 
#    3.273    0.000    0.000    0.000    0.000    0.000 
#    0.000    0.000    0.000    0.000    0.000    0.000 
#
# Total GULP energy -123313.063922 kJ/mol
# GULP energy per Si atom -5605.139269 kJ/mol
# Density = 2.335306 g / cm^3
# Si number density = 23.406339 Si / 1000 Ang^3
#
#
#
# Elastic Constant Matrix: (Units=GPa)
#
#
# Indices 1 2 3 4 5 6 
#
# 1 161.5128 31.7575 27.5537 0.0000 10.1689 0.0000
# 2 31.7575 50.5818 37.7496 0.0000 -8.8973 0.0000
# 3 27.5537 37.7496 109.2405 0.0000 2.8424 0.0000
# 4 0.0000 0.0000 0.0000 27.3048 0.0000 7.7704
# 5 10.1689 -8.8973 2.8424 0.0000 26.3657 0.0000
# 6 0.0000 0.0000 0.0000 7.7704 0.0000 28.9308
#
#
#
# Elastic Compliance Matrix: (Units=1/GPa)
#
#
# Indices 1 2 3 4 5 6 
#
# 1 0.007604 -0.005797 0.000213 0.000000 -0.004912 0.000000
# 2 -0.005797 0.033984 -0.010668 0.000000 0.014854 0.000000
# 3 0.000213 -0.010668 0.012919 0.000000 -0.005075 0.000000
# 4 0.000000 0.000000 0.000000 0.039655 0.000000 -0.010651
# 5 -0.004912 0.014854 -0.005075 0.000000 0.045382 0.000000
# 6 0.000000 0.000000 0.000000 -0.010651 0.000000 0.037426
#
#
# Mechanical properties :
#
#
# Convention : Reuss Voigt Hill
#
# Bulk Modulus (GPa) = 45.44843 57.27295 51.36069
# Shear Modulus (GPa) = 23.06174 31.47187 27.26680
#
# Velocity S-wave (km/s) = 3.14232 3.67084 3.41681
# Velocity P-wave (km/s) = 5.71182 6.51835 6.12837
#
# Compressibility (1/GPa) = 0.02200296
#
# Stress axis : x y z
#
# Youngs Moduli (GPa) = 131.50449 29.42531 77.40618
#
# Poissons Ratio (x) = 0.17059 -0.01650
# Poissons Ratio (y) = 0.76239 0.82577
# Poissons Ratio (z) = -0.02803 0.31391
#
# Static dielectric constant tensor:
#      x y z
#    x 1.868620 0.000000 -0.013340 
#    y 0.000000 1.893680 0.000000 
#    z -0.013340 0.000000 1.836320 
# 
# From -- ./inp_files/159188.got.cif
#   From: 2010.05.17/outbox.cif.g08.bks.cpg/sg15_80_cif.got.tgz:159188.got - 2010.06.03 18:47:42.
