data_PCOD9305103
_publ_section_title
;
Structure prediction by ZEFSAII (Michael W. Deem and Ramdas Pophale) SiO2 
 PCOD9305103
Probable space group: C 2/C
;
_chemical_formula_sum "Si O2"
_cell_formula_units_Z 52
_cell_length_a 27.994031
_cell_length_b 8.498169
_cell_length_c 12.301213
_cell_angle_alpha 90.000000
_cell_angle_beta 129.294586
_cell_angle_gamma 90.000000
_cell_volume 2264.767474
_symmetry_space_group_name_H-M "C 2/C"
_symmetry_group_IT_number 15
_symmetry_cell_setting 'monoclinic'
loop_
_space_group_symop_operation_xyz
x,y,z
-x,y,1/2-z
-x,-y,-z
x,-y,1/2+z
1/2+x,1/2+y,z
1/2-x,1/2+y,1/2-z
1/2-x,1/2-y,-z
1/2+x,1/2-y,1/2+z
loop_
_atom_site_type_symbol
_atom_site_label
_atom_site_fract_x
_atom_site_fract_y
_atom_site_fract_z
Si Si1 0.697892 0.535596 0.626654
Si Si2 0.000000 0.372082 0.750000
Si Si3 0.419657 0.293352 0.318415
Si Si4 0.791480 0.385357 0.608105
Si Si5 0.428175 0.438069 0.678848
Si Si6 0.717959 0.100857 0.102505
Si Si7 0.416240 0.864770 0.039555
O O1 0.750275 0.427714 0.650990
O O2 0.628756 0.502963 0.483031
O O3 0.717507 0.711568 0.620672
O O4 0.717553 0.490583 0.777248
O O5 0.037547 0.273011 0.716027
O O6 0.041285 0.487450 0.881654
O O7 0.356771 0.196003 0.216933
O O8 0.415990 0.476743 0.277121
O O9 0.436390 0.246653 0.466731
O O10 0.750000 0.250000 0.500000
O O11 0.795509 0.538953 0.538457
O O12 0.500000 0.467098 0.750000
O O13 0.419977 0.250266 0.650390
O O14 0.652549 0.064070 0.068277
#
# Coordination Sequence:
#
# PCOD9305103 Si02
#       7
#     8   4   8   8   8   8   8
#     4  11  24  42  69 101 137 186 226 293 350 418
#     4  12  24  48  70 102 142 184 234 292 344 430
#     4  12  25  45  72 103 136 191 233 287 355 413
#     4  12  23  42  67  98 141 175 234 291 346 415
#     4  11  25  46  69 104 143 181 233 291 348 425
#     4  11  24  42  69 103 138 183 236 289 353 415
#     4  11  25  47  70 102 143 187 234 288 352 419
#
# _framework density 22.960412999999999
#
# number of rings (size 3 to 8) (size 9 to 14) (size 15 to 20)
#    0.000    0.615    6.154    1.846    2.154    0.615 
#    0.000    0.000    0.000    0.000    0.000    0.000 
#    0.000    0.000    0.000    0.000    0.000    0.000 
#
# Total GULP energy -144800.996282 kJ/mol
# GULP energy per Si atom -5569.269088 kJ/mol
# Density = 2.290815 g / cm^3
# Si number density = 22.960413 Si / 1000 Ang^3
#
#
#
# Elastic Constant Matrix: (Units=GPa)
#
#
# Indices 1 2 3 4 5 6 
#
# 1 106.6062 6.8333 29.2953 0.0000 17.8446 0.0000
# 2 6.8333 65.0169 29.1461 0.0000 9.0204 0.0000
# 3 29.2953 29.1461 57.4582 0.0000 16.4243 0.0000
# 4 0.0000 0.0000 0.0000 35.6533 0.0000 -7.8402
# 5 17.8446 9.0204 16.4243 0.0000 43.6467 0.0000
# 6 0.0000 0.0000 0.0000 -7.8402 0.0000 34.5720
#
#
#
# Elastic Compliance Matrix: (Units=1/GPa)
#
#
# Indices 1 2 3 4 5 6 
#
# 1 0.011360 0.001854 -0.005933 0.000000 -0.002795 0.000000
# 2 0.001854 0.020215 -0.010968 0.000000 -0.000808 0.000000
# 3 -0.005933 -0.010968 0.027623 0.000000 -0.005702 0.000000
# 4 0.000000 0.000000 0.000000 0.029520 0.000000 0.006695
# 5 -0.002795 -0.000808 -0.005702 0.000000 0.026367 0.000000
# 6 0.000000 0.000000 0.000000 0.006695 0.000000 0.030443
#
#
# Mechanical properties :
#
#
# Convention : Reuss Voigt Hill
#
# Bulk Modulus (GPa) = 34.36231 39.95897 37.16064
# Shear Modulus (GPa) = 26.97993 33.69484 30.33739
#
# Velocity S-wave (km/s) = 3.43164 3.83498 3.63890
# Velocity P-wave (km/s) = 5.54075 6.08692 5.82024
#
# Compressibility (1/GPa) = 0.02910166
#
# Stress axis : x y z
#
# Youngs Moduli (GPa) = 88.03005 49.46872 36.20229
#
# Poissons Ratio (x) = -0.09169 0.21480
# Poissons Ratio (y) = -0.16317 0.39707
# Poissons Ratio (z) = 0.52230 0.54258
#
# Static dielectric constant tensor:
#      x y z
#    x 1.673480 0.000000 0.220230 
#    y 0.000000 1.837160 0.000000 
#    z 0.220230 0.000000 1.704430 
# 
# From -- ./inp_files/122079.got.cif
#   From: 2010.05.17/outbox.cif.g08.bks.cpg/sg15_62_cif.got.tgz:122079.got - 2010.06.03 18:47:42.
