data_PCOD9305450
_publ_section_title
;
Structure prediction by ZEFSAII (Michael W. Deem and Ramdas Pophale) SiO2 
 PCOD9305450
Probable space group: C 2/C
;
_chemical_formula_sum "Si O2"
_cell_formula_units_Z 48
_cell_length_a 5.551518
_cell_length_b 29.093257
_cell_length_c 14.657766
_cell_angle_alpha 90.000000
_cell_angle_beta 61.204805
_cell_angle_gamma 90.000000
_cell_volume 2074.665204
_symmetry_space_group_name_H-M "C 2/C"
_symmetry_group_IT_number 15
_symmetry_cell_setting 'monoclinic'
loop_
_space_group_symop_operation_xyz
x,y,z
-x,y,1/2-z
-x,-y,-z
x,-y,1/2+z
1/2+x,1/2+y,z
1/2-x,1/2+y,1/2-z
1/2-x,1/2-y,-z
1/2+x,1/2-y,1/2+z
loop_
_atom_site_type_symbol
_atom_site_label
_atom_site_fract_x
_atom_site_fract_y
_atom_site_fract_z
Si Si1 0.500000 0.404669 0.750000
Si Si2 0.000000 0.748589 0.750000
Si Si3 0.760642 0.958878 0.154830
Si Si4 0.500000 0.386113 0.250000
Si Si5 0.547202 0.695654 0.618528
Si Si6 0.500000 0.849613 0.750000
Si Si7 0.118026 0.784927 0.914304
Si Si8 0.238264 0.966496 0.548346
O O1 0.734817 0.377527 0.763914
O O2 0.682290 0.433129 0.643148
O O3 0.728515 0.717491 0.787406
O O4 0.034837 0.779654 0.653803
O O5 0.500000 0.982442 0.250000
O O6 0.826916 0.919272 0.215941
O O7 0.738226 0.941527 0.054559
O O8 0.988745 0.997730 0.103350
O O9 0.367959 0.350949 0.347060
O O10 0.788043 0.733170 0.579520
O O11 0.469722 0.691905 0.526189
O O12 0.387653 0.815479 0.848090
O O13 0.500000 0.000000 0.500000
#
# Coordination Sequence:
#
# PCOD9305450 Si02
#       8
#     4   4   8   4   8   4   8   8
#     4  12  30  46  80 115 152 199 258 320 391 465
#     4  12  19  46  66 100 132 208 256 314 372 465
#     4  11  26  45  77 105 147 194 244 313 391 470
#     4  12  24  44  64 111 142 186 247 320 374 446
#     4  11  25  42  71  96 145 192 255 308 380 453
#     4  12  27  48  72 112 156 191 255 324 375 466
#     4  11  24  45  67  99 144 203 247 308 388 440
#     4  11  26  51  78 107 147 198 247 312 396 483
#
# _framework density 23.136261000000001
#
# number of rings (size 3 to 8) (size 9 to 14) (size 15 to 20)
#    0.000    0.667    3.333    3.500    9.333    1.333 
#    0.000    0.000    0.000    0.000    0.000    0.000 
#    0.000    0.000    0.000    0.000    0.000    0.000 
#
# Total GULP energy -134006.014322 kJ/mol
# GULP energy per Si atom -5583.583930 kJ/mol
# Density = 2.308360 g / cm^3
# Si number density = 23.136261 Si / 1000 Ang^3
#
#
#
# Elastic Constant Matrix: (Units=GPa)
#
#
# Indices 1 2 3 4 5 6 
#
# 1 92.5332 38.7312 42.3527 0.0000 7.4870 0.0000
# 2 38.7312 77.6011 39.2777 0.0000 6.3209 0.0000
# 3 42.3527 39.2777 165.0343 0.0000 14.3913 0.0000
# 4 0.0000 0.0000 0.0000 296.6382 0.0000 45.5114
# 5 7.4870 6.3209 14.3913 0.0000 49.9134 0.0000
# 6 0.0000 0.0000 0.0000 45.5114 0.0000 28.5028
#
#
#
# Elastic Compliance Matrix: (Units=1/GPa)
#
#
# Indices 1 2 3 4 5 6 
#
# 1 0.014388 -0.006008 -0.002196 0.000000 -0.000764 0.000000
# 2 -0.006008 0.017197 -0.002503 0.000000 -0.000555 0.000000
# 3 -0.002196 -0.002503 0.007347 0.000000 -0.001472 0.000000
# 4 0.000000 0.000000 0.000000 0.004465 0.000000 -0.007129
# 5 -0.000764 -0.000555 -0.001472 0.000000 0.020644 0.000000
# 6 0.000000 0.000000 0.000000 -0.007129 0.000000 0.046468
#
#
# Mechanical properties :
#
#
# Convention : Reuss Voigt Hill
#
# Bulk Modulus (GPa) = 57.07917 63.98797 60.53357
# Shear Modulus (GPa) = 36.29465 89.33137 62.81301
#
# Velocity S-wave (km/s) = 3.96502 6.22051 5.21614
# Velocity P-wave (km/s) = 6.75916 8.90562 7.90558
#
# Compressibility (1/GPa) = 0.01751953
#
# Stress axis : x y z
#
# Youngs Moduli (GPa) = 69.50003 58.15053 136.11175
#
# Poissons Ratio (x) = 0.34934 0.29891
# Poissons Ratio (y) = 0.41753 0.34064
# Poissons Ratio (z) = 0.15263 0.14553
#
# Static dielectric constant tensor:
#      x y z
#    x 2.021960 0.000000 0.157280 
#    y 0.000000 1.869690 0.000000 
#    z 0.157280 0.000000 2.087680 
# 
# From -- ./inp_files/130671.got.cif
#   From: 2010.05.17/outbox.cif.g08.bks.cpg/sg15_66_cif.got.tgz:130671.got - 2010.06.03 18:47:42.
