data_PCOD9305573
_publ_section_title
;
Structure prediction by ZEFSAII (Michael W. Deem and Ramdas Pophale) SiO2 
 PCOD9305573
Probable space group: C 2/C
;
_chemical_formula_sum "Si O2"
_cell_formula_units_Z 32
_cell_length_a 13.857430
_cell_length_b 5.216436
_cell_length_c 18.938478
_cell_angle_alpha 90.000000
_cell_angle_beta 110.352779
_cell_angle_gamma 90.000000
_cell_volume 1283.526582
_symmetry_space_group_name_H-M "C 2/C"
_symmetry_group_IT_number 15
_symmetry_cell_setting 'monoclinic'
loop_
_space_group_symop_operation_xyz
x,y,z
-x,y,1/2-z
-x,-y,-z
x,-y,1/2+z
1/2+x,1/2+y,z
1/2-x,1/2+y,1/2-z
1/2-x,1/2-y,-z
1/2+x,1/2-y,1/2+z
loop_
_atom_site_type_symbol
_atom_site_label
_atom_site_fract_x
_atom_site_fract_y
_atom_site_fract_z
Si Si1 0.696613 0.946257 0.165450
Si Si2 0.745785 0.551367 0.062635
Si Si3 0.434952 0.750690 0.964145
Si Si4 0.120033 0.289158 0.297183
O O1 0.614212 0.166090 0.123313
O O2 0.813448 0.031068 0.178007
O O3 0.685417 0.701554 0.111384
O O4 0.675341 0.899864 0.241488
O O5 0.671988 0.313253 0.024044
O O6 0.850930 0.456348 0.126491
O O7 0.750000 0.750000 0.000000
O O8 0.500000 0.500000 0.000000
O O9 0.500000 0.000000 0.000000
O O10 0.000000 0.260462 0.250000
#
# Coordination Sequence:
#
# PCOD9305573 Si02
#       4
#     8   8   8   8
#     4  11  24  48  74 111 162 204 273 335 398 499
#     4  11  26  48  77 116 162 207 281 343 403 496
#     4  11  24  45  76 112 153 205 259 327 412 473
#     4  11  26  46  76 111 160 219 266 336 416 487
#
# _framework density 24.931308999999999
#
# number of rings (size 3 to 8) (size 9 to 14) (size 15 to 20)
#    0.000    1.000    5.000    0.000    3.500    7.000 
#    0.000    0.000    0.000    0.000    0.000    0.000 
#    0.000    0.000    0.000    0.000    0.000    0.000 
#
# Total GULP energy -89335.701371 kJ/mol
# GULP energy per Si atom -5583.481336 kJ/mol
# Density = 2.487456 g / cm^3
# Si number density = 24.931309 Si / 1000 Ang^3
#
#
#
# Elastic Constant Matrix: (Units=GPa)
#
#
# Indices 1 2 3 4 5 6 
#
# 1 126.0028 45.1473 64.0388 0.0000 53.0865 0.0000
# 2 45.1473 132.2430 48.8785 0.0000 24.4272 0.0000
# 3 64.0388 48.8785 141.4850 0.0000 17.6766 0.0000
# 4 0.0000 0.0000 0.0000 37.8533 0.0000 7.3536
# 5 53.0865 24.4272 17.6766 0.0000 61.8288 0.0000
# 6 0.0000 0.0000 0.0000 7.3536 0.0000 46.0208
#
#
#
# Elastic Compliance Matrix: (Units=1/GPa)
#
#
# Indices 1 2 3 4 5 6 
#
# 1 0.016088 -0.001344 -0.005349 0.000000 -0.011753 0.000000
# 2 -0.001344 0.009226 -0.002352 0.000000 -0.001818 0.000000
# 3 -0.005349 -0.002352 0.009967 0.000000 0.002672 0.000000
# 4 0.000000 0.000000 0.000000 0.027264 0.000000 -0.004356
# 5 -0.011753 -0.001818 0.002672 0.000000 0.026219 0.000000
# 6 0.000000 0.000000 0.000000 -0.004356 0.000000 0.022425
#
#
# Mechanical properties :
#
#
# Convention : Reuss Voigt Hill
#
# Bulk Modulus (GPa) = 58.16795 79.54002 68.85398
# Shear Modulus (GPa) = 37.03399 45.25164 41.14282
#
# Velocity S-wave (km/s) = 3.85832 4.26497 4.06673
# Velocity P-wave (km/s) = 6.57501 7.49841 7.05184
#
# Compressibility (1/GPa) = 0.01719160
#
# Stress axis : x y z
#
# Youngs Moduli (GPa) = 62.15697 108.39114 100.32611
#
# Poissons Ratio (x) = 0.14573 0.53665
# Poissons Ratio (y) = 0.08357 0.23592
# Poissons Ratio (z) = 0.33248 0.25489
#
# Static dielectric constant tensor:
#      x y z
#    x 1.829660 0.000000 0.258790 
#    y 0.000000 2.116630 0.000000 
#    z 0.258790 0.000000 1.709080 
# 
# From -- ./inp_files/201887.got.cif
#   From: 2010.05.17/outbox.cif.g08.bks.cpg/sg15_101_cif.got.tgz:201887.got - 2010.06.03 18:47:42.
