data_PCOD9305350
_publ_section_title
;
Structure prediction by ZEFSAII (Michael W. Deem and Ramdas Pophale) SiO2 
 PCOD9305350
Probable space group: C 2/C
;
_chemical_formula_sum "Si O2"
_cell_formula_units_Z 40
_cell_length_a 8.933823
_cell_length_b 23.111368
_cell_length_c 16.989729
_cell_angle_alpha 90.000000
_cell_angle_beta 32.296705
_cell_angle_gamma 90.000000
_cell_volume 1874.293769
_symmetry_space_group_name_H-M "C 2/C"
_symmetry_group_IT_number 15
_symmetry_cell_setting 'monoclinic'
loop_
_space_group_symop_operation_xyz
x,y,z
-x,y,1/2-z
-x,-y,-z
x,-y,1/2+z
1/2+x,1/2+y,z
1/2-x,1/2+y,1/2-z
1/2-x,1/2-y,-z
1/2+x,1/2-y,1/2+z
loop_
_atom_site_type_symbol
_atom_site_label
_atom_site_fract_x
_atom_site_fract_y
_atom_site_fract_z
Si Si1 0.616795 0.889031 0.353156
Si Si2 0.756047 0.088528 0.968866
Si Si3 0.446529 0.203888 0.366408
Si Si4 0.528459 0.234802 0.828574
Si Si5 0.715531 0.020671 0.583963
O O1 0.621126 0.897314 0.444618
O O2 0.645374 0.821688 0.320170
O O3 0.345862 0.918145 0.432270
O O4 0.908110 0.916169 0.191941
O O5 0.682155 0.140982 0.060443
O O6 0.647204 0.028385 0.050619
O O7 0.500000 0.214968 0.250000
O O8 0.754157 0.212487 0.265764
O O9 0.250000 0.250000 0.500000
O O10 0.500000 0.218836 0.750000
O O11 0.250000 0.250000 0.000000
O O12 0.500000 0.019966 0.750000
O O13 0.000000 0.000000 0.500000
#
# Coordination Sequence:
#
# PCOD9305350 Si02
#       5
#     8   8   8   8   8
#     4  11  24  45  70  99 141 184 228 291 359 408
#     4  11  24  44  71 100 138 182 234 291 348 422
#     4  12  24  44  72 103 137 184 236 282 348 419
#     4  12  26  43  68 102 142 181 229 288 346 414
#     4  12  25  45  70 101 137 181 236 287 350 420
#
# _framework density 21.341373000000001
#
# number of rings (size 3 to 8) (size 9 to 14) (size 15 to 20)
#    0.000    0.400    4.000    5.400    0.000    1.600 
#    0.000    2.000    0.000    0.000    0.000    0.000 
#    0.000    0.000    0.000    0.000    0.000    0.000 
#
# Total GULP energy -111746.157715 kJ/mol
# GULP energy per Si atom -5587.307886 kJ/mol
# Density = 2.129280 g / cm^3
# Si number density = 21.341373 Si / 1000 Ang^3
#
#
#
# Elastic Constant Matrix: (Units=GPa)
#
#
# Indices 1 2 3 4 5 6 
#
# 1 107.7506 -0.0757 34.3771 -0.0044 16.2846 -0.0034
# 2 -0.0757 54.2381 0.6651 -0.0022 14.1025 -0.0015
# 3 34.3771 0.6651 76.2459 -0.0226 18.0526 -0.0110
# 4 -0.0044 -0.0022 -0.0226 27.4267 -0.0011 -9.0356
# 5 16.2846 14.1025 18.0526 -0.0011 46.8179 -0.0016
# 6 -0.0034 -0.0015 -0.0110 -9.0356 -0.0016 26.4809
#
#
#
# Elastic Compliance Matrix: (Units=1/GPa)
#
#
# Indices 1 2 3 4 5 6 
#
# 1 0.011049 0.000678 -0.004434 -0.000002 -0.002337 -0.000001
# 2 0.000678 0.020178 0.001115 0.000003 -0.006744 0.000002
# 3 -0.004434 0.001115 0.016308 0.000016 -0.005082 0.000012
# 4 -0.000002 0.000003 0.000016 0.041079 -0.000005 0.014017
# 5 -0.002337 -0.006744 -0.005082 -0.000005 0.026163 -0.000003
# 6 -0.000001 0.000002 0.000012 0.014017 -0.000003 0.042546
#
#
# Mechanical properties :
#
#
# Convention : Reuss Voigt Hill
#
# Bulk Modulus (GPa) = 23.66730 34.24085 28.95407
# Shear Modulus (GPa) = 28.29817 33.69630 30.99724
#
# Velocity S-wave (km/s) = 3.64535 3.97787 3.81523
# Velocity P-wave (km/s) = 5.36955 6.09731 5.74496
#
# Compressibility (1/GPa) = 0.04225240
#
# Stress axis : x y z
#
# Youngs Moduli (GPa) = 90.50478 49.55908 61.31877
#
# Poissons Ratio (x) = -0.03358 0.27190
# Poissons Ratio (y) = -0.06132 -0.06838
# Poissons Ratio (z) = 0.40132 -0.05527
#
# Static dielectric constant tensor:
#      x y z
#    x 1.867060 0.000000 -0.024800 
#    y 0.000000 1.683770 0.000010 
#    z -0.024800 0.000010 1.776950 
# 
# From -- ./inp_files/193424.got.cif
#   From: 2010.05.17/outbox.cif.g08.bks.cpg/sg15_97_cif.got.tgz:193424.got - 2010.06.03 18:47:42.
