data_PCOD9305421
_publ_section_title
;
Structure prediction by ZEFSAII (Michael W. Deem and Ramdas Pophale) SiO2 
 PCOD9305421
Probable space group: C 2/C
;
_chemical_formula_sum "Si O2"
_cell_formula_units_Z 36
_cell_length_a 8.632600
_cell_length_b 15.023906
_cell_length_c 18.398100
_cell_angle_alpha 90.000000
_cell_angle_beta 135.773627
_cell_angle_gamma 90.000000
_cell_volume 1664.326628
_symmetry_space_group_name_H-M "C 2/C"
_symmetry_group_IT_number 15
_symmetry_cell_setting 'monoclinic'
loop_
_space_group_symop_operation_xyz
x,y,z
-x,y,1/2-z
-x,-y,-z
x,-y,1/2+z
1/2+x,1/2+y,z
1/2-x,1/2+y,1/2-z
1/2-x,1/2-y,-z
1/2+x,1/2-y,1/2+z
loop_
_atom_site_type_symbol
_atom_site_label
_atom_site_fract_x
_atom_site_fract_y
_atom_site_fract_z
Si Si1 0.833308 0.515732 0.590693
Si Si2 0.251969 0.847701 0.466394
Si Si3 0.000000 0.109064 0.250000
Si Si4 0.686273 0.834519 0.525898
Si Si5 0.825790 0.037874 0.802558
O O1 0.838325 0.418838 0.555503
O O2 0.744593 0.580474 0.498409
O O3 0.698217 0.515184 0.620086
O O4 0.074809 0.555777 0.692102
O O5 0.250000 0.750000 0.500000
O O6 0.429015 0.844920 0.460706
O O7 0.011953 0.885077 0.360403
O O8 0.180752 0.166253 0.353649
O O9 0.105920 0.044058 0.225699
O O10 0.750000 0.750000 0.500000
#
# Coordination Sequence:
#
# PCOD9305421 Si02
#       5
#     8   8   4   8   8
#     4  11  24  48  73 105 150 198 247 312 380 452
#     4  12  25  44  74 112 146 197 254 310 375 456
#     4  12  24  46  74 102 146 196 248 306 380 450
#     4  12  27  46  74 108 151 196 251 314 380 453
#     4  11  24  44  75 105 145 199 247 306 378 453
#
# _framework density 21.630369000000002
#
# number of rings (size 3 to 8) (size 9 to 14) (size 15 to 20)
#    0.000    0.444    4.444    4.000    3.111    3.556 
#    0.000    2.222    0.000    0.000    0.000    0.000 
#    0.000    0.000    0.000    0.000    0.000    0.000 
#
# Total GULP energy -100651.933849 kJ/mol
# GULP energy per Si atom -5591.774103 kJ/mol
# Density = 2.158114 g / cm^3
# Si number density = 21.630369 Si / 1000 Ang^3
#
#
#
# Elastic Constant Matrix: (Units=GPa)
#
#
# Indices 1 2 3 4 5 6 
#
# 1 182.2780 63.5592 51.5021 0.0000 -9.0963 0.0000
# 2 63.5592 150.6362 52.8848 0.0000 -10.1235 0.0000
# 3 51.5021 52.8848 143.5828 0.0001 4.0686 0.0000
# 4 0.0000 0.0000 0.0001 37.6089 0.0000 -14.5125
# 5 -9.0963 -10.1235 4.0686 0.0000 46.4692 0.0000
# 6 0.0000 0.0000 0.0000 -14.5125 0.0000 40.9141
#
#
#
# Elastic Compliance Matrix: (Units=1/GPa)
#
#
# Indices 1 2 3 4 5 6 
#
# 1 0.006771 -0.002215 -0.001641 0.000000 0.000987 0.000000
# 2 -0.002215 0.008522 -0.002391 0.000000 0.001632 0.000000
# 3 -0.001641 -0.002391 0.008479 0.000000 -0.001584 0.000000
# 4 0.000000 0.000000 0.000000 0.030806 0.000000 0.010927
# 5 0.000987 0.001632 -0.001584 0.000000 0.022207 0.000000
# 6 0.000000 0.000000 0.000000 0.010927 0.000000 0.028317
#
#
# Mechanical properties :
#
#
# Convention : Reuss Voigt Hill
#
# Bulk Modulus (GPa) = 88.65921 90.26546 89.46233
# Shear Modulus (GPa) = 41.20146 45.56851 43.38498
#
# Velocity S-wave (km/s) = 4.36913 4.59485 4.48341
# Velocity P-wave (km/s) = 8.15657 8.36491 8.26140
#
# Compressibility (1/GPa) = 0.01127914
#
# Stress axis : x y z
#
# Youngs Moduli (GPa) = 147.68295 117.34384 117.94239
#
# Poissons Ratio (x) = 0.25987 0.19355
# Poissons Ratio (y) = 0.32706 0.28197
# Poissons Ratio (z) = 0.24236 0.28054
#
# Static dielectric constant tensor:
#      x y z
#    x 1.799600 0.000000 0.055720 
#    y 0.000000 1.596780 0.000000 
#    z 0.055720 0.000000 1.835270 
# 
# From -- ./inp_files/132726.got.cif
#   From: 2010.05.17/outbox.cif.g08.bks.cpg/sg15_67_cif.got.tgz:132726.got - 2010.06.03 18:47:42.
