data_PCOD9305511
_publ_section_title
;
Structure prediction by ZEFSAII (Michael W. Deem and Ramdas Pophale) SiO2 
 PCOD9305511
Probable space group: C 2/C
;
_chemical_formula_sum "Si O2"
_cell_formula_units_Z 56
_cell_length_a 19.035817
_cell_length_b 12.329963
_cell_length_c 12.886302
_cell_angle_alpha 90.000000
_cell_angle_beta 58.849449
_cell_angle_gamma 90.000000
_cell_volume 2588.448186
_symmetry_space_group_name_H-M "C 2/C"
_symmetry_group_IT_number 15
_symmetry_cell_setting 'monoclinic'
loop_
_space_group_symop_operation_xyz
x,y,z
-x,y,1/2-z
-x,-y,-z
x,-y,1/2+z
1/2+x,1/2+y,z
1/2-x,1/2+y,1/2-z
1/2-x,1/2-y,-z
1/2+x,1/2-y,1/2+z
loop_
_atom_site_type_symbol
_atom_site_label
_atom_site_fract_x
_atom_site_fract_y
_atom_site_fract_z
Si Si1 0.586188 0.963638 0.305358
Si Si2 0.808569 0.150622 0.929123
Si Si3 0.714835 0.012808 0.360014
Si Si4 0.631145 0.447172 0.903448
Si Si5 0.910545 0.637134 0.917801
Si Si6 0.530167 0.662748 0.028025
Si Si7 0.564813 0.215757 0.293074
O O1 0.609947 0.901399 0.182136
O O2 0.490396 0.933529 0.392585
O O3 0.646816 0.938621 0.353513
O O4 0.595805 0.092718 0.281118
O O5 0.868802 0.197216 0.795472
O O6 0.756915 0.053075 0.920184
O O7 0.750000 0.250000 0.000000
O O8 0.853904 0.112295 0.998538
O O9 0.784707 0.045004 0.224639
O O10 0.664653 0.111647 0.448916
O O11 0.592486 0.564582 0.958703
O O12 0.560652 0.385681 0.891981
O O13 0.938312 0.761053 0.904261
O O14 0.529327 0.741068 0.928020
O O15 0.500000 0.211762 0.250000
#
# Coordination Sequence:
#
# PCOD9305511 Si02
#       7
#     8   8   8   8   8   8   8
#     4  11  25  45  71 106 138 178 232 290 350 416
#     4  12  27  42  71 106 136 186 232 287 347 411
#     4  12  24  44  71 102 144 176 229 297 341 415
#     4  11  26  47  68 103 142 181 238 279 347 428
#     4  11  24  45  71 104 135 181 233 288 349 410
#     4  11  25  47  70  99 141 191 228 283 350 412
#     4  12  21  44  73  98 134 180 238 282 338 412
#
# _framework density 21.634584
#
# number of rings (size 3 to 8) (size 9 to 14) (size 15 to 20)
#    0.000    0.571    5.714    3.000    2.000    0.000 
#    5.143    1.429    0.000    0.000    0.000    0.000 
#    0.000    0.000    0.000    0.000    0.000    0.000 
#
# Total GULP energy -156683.778782 kJ/mol
# GULP energy per Si atom -5595.849242 kJ/mol
# Density = 2.158534 g / cm^3
# Si number density = 21.634584 Si / 1000 Ang^3
#
#
#
# Elastic Constant Matrix: (Units=GPa)
#
#
# Indices 1 2 3 4 5 6 
#
# 1 66.9465 27.5438 8.7768 0.0000 -11.2536 0.0000
# 2 27.5438 104.8960 15.8528 0.0000 2.4418 0.0000
# 3 8.7768 15.8528 72.2215 0.0000 -18.2827 0.0000
# 4 0.0000 0.0000 0.0000 12.3548 0.0000 9.4384
# 5 -11.2536 2.4418 -18.2827 0.0000 27.4959 0.0000
# 6 0.0000 0.0000 0.0000 9.4384 0.0000 37.3697
#
#
#
# Elastic Compliance Matrix: (Units=1/GPa)
#
#
# Indices 1 2 3 4 5 6 
#
# 1 0.018400 -0.005204 0.001118 0.000000 0.008736 0.000000
# 2 -0.005204 0.011512 -0.003238 0.000000 -0.005305 0.000000
# 3 0.001118 -0.003238 0.017567 0.000000 0.012425 0.000000
# 4 0.000000 0.000000 0.000000 0.100292 0.000000 -0.025330
# 5 0.008736 -0.005305 0.012425 0.000000 0.048678 0.000000
# 6 0.000000 0.000000 0.000000 -0.025330 0.000000 0.033157
#
#
# Mechanical properties :
#
#
# Convention : Reuss Voigt Hill
#
# Bulk Modulus (GPa) = 30.45812 38.71230 34.58521
# Shear Modulus (GPa) = 19.59266 28.23679 23.91473
#
# Velocity S-wave (km/s) = 3.01261 3.61663 3.32835
# Velocity P-wave (km/s) = 5.11958 5.94749 5.54900
#
# Compressibility (1/GPa) = 0.03283197
#
# Stress axis : x y z
#
# Youngs Moduli (GPa) = 54.34679 86.86226 56.92626
#
# Poissons Ratio (x) = 0.45202 -0.06363
# Poissons Ratio (y) = 0.28281 0.18430
# Poissons Ratio (z) = -0.06074 0.28122
#
# Static dielectric constant tensor:
#      x y z
#    x 1.765000 0.000000 0.025220 
#    y 0.000000 1.769320 0.000000 
#    z 0.025220 0.000000 1.713640 
# 
# From -- ./inp_files/161261.got.cif
#   From: 2010.05.17/outbox.cif.g08.bks.cpg/sg15_81_cif.got.tgz:161261.got - 2010.06.03 18:47:42.
