data_PCOD9305946
_publ_section_title
;
Structure prediction by ZEFSAII (Michael W. Deem and Ramdas Pophale) SiO2 
 PCOD9305946
Probable space group: C 2/C
;
_chemical_formula_sum "Si O2"
_cell_formula_units_Z 40
_cell_length_a 21.731318
_cell_length_b 8.796560
_cell_length_c 14.657719
_cell_angle_alpha 90.000000
_cell_angle_beta 142.698150
_cell_angle_gamma 90.000000
_cell_volume 1698.040506
_symmetry_space_group_name_H-M "C 2/C"
_symmetry_group_IT_number 15
_symmetry_cell_setting 'monoclinic'
loop_
_space_group_symop_operation_xyz
x,y,z
-x,y,1/2-z
-x,-y,-z
x,-y,1/2+z
1/2+x,1/2+y,z
1/2-x,1/2+y,1/2-z
1/2-x,1/2-y,-z
1/2+x,1/2-y,1/2+z
loop_
_atom_site_type_symbol
_atom_site_label
_atom_site_fract_x
_atom_site_fract_y
_atom_site_fract_z
Si Si1 0.404296 0.927819 0.334242
Si Si2 0.957782 0.225408 0.105442
Si Si3 0.268906 0.732937 0.766549
Si Si4 0.886430 0.739025 0.225383
Si Si5 0.395841 0.624817 0.542207
O O1 0.449810 0.769812 0.351041
O O2 0.306341 0.888544 0.277475
O O3 0.500000 0.000000 0.500000
O O4 0.375474 0.056915 0.225512
O O5 0.000000 0.289608 0.250000
O O6 0.933636 0.047916 0.089777
O O7 0.852831 0.287376 0.938754
O O8 0.333237 0.688129 0.751812
O O9 0.188766 0.852687 0.632897
O O10 0.006451 0.774943 0.367902
O O11 0.644941 0.687200 0.908367
#
# Coordination Sequence:
#
# PCOD9305946 Si02
#       5
#     8   8   8   8   8
#     4  12  26  49  74 116 157 201 259 328 384 460
#     4  12  28  49  76 115 152 201 265 322 385 456
#     4  12  25  45  81 107 155 205 260 310 397 464
#     4  11  24  49  75 107 154 209 251 321 391 457
#     4  11  25  50  74 110 154 204 256 322 386 465
#
# _framework density 23.556564000000002
#
# number of rings (size 3 to 8) (size 9 to 14) (size 15 to 20)
#    0.000    0.400    6.000    1.800    2.800    5.600 
#    0.000    0.000    0.000    0.000    0.000    0.000 
#    0.000    0.000    0.000    0.000    0.000    0.000 
#
# Total GULP energy -111720.025162 kJ/mol
# GULP energy per Si atom -5586.001258 kJ/mol
# Density = 2.350295 g / cm^3
# Si number density = 23.556564 Si / 1000 Ang^3
#
#
#
# Elastic Constant Matrix: (Units=GPa)
#
#
# Indices 1 2 3 4 5 6 
#
# 1 153.1087 60.8568 70.2489 0.0000 17.5072 0.0000
# 2 60.8568 96.4485 49.1215 0.0000 0.4137 0.0000
# 3 70.2489 49.1215 170.8140 0.0000 -11.7130 0.0000
# 4 0.0000 0.0000 0.0000 41.1906 0.0000 14.1639
# 5 17.5072 0.4137 -11.7130 0.0000 48.5827 0.0000
# 6 0.0000 0.0000 0.0000 14.1639 0.0000 36.9685
#
#
#
# Elastic Compliance Matrix: (Units=1/GPa)
#
#
# Indices 1 2 3 4 5 6 
#
# 1 0.010488 -0.004972 -0.003192 0.000000 -0.004507 0.000000
# 2 -0.004972 0.014549 -0.002059 0.000000 0.001172 0.000000
# 3 -0.003192 -0.002059 0.007971 0.000000 0.003090 0.000000
# 4 0.000000 0.000000 0.000000 0.027961 0.000000 -0.010713
# 5 -0.004507 0.001172 0.003090 0.000000 0.022942 0.000000
# 6 0.000000 0.000000 0.000000 -0.010713 0.000000 0.031155
#
#
# Mechanical properties :
#
#
# Convention : Reuss Voigt Hill
#
# Bulk Modulus (GPa) = 79.60963 86.75842 83.18402
# Shear Modulus (GPa) = 35.79110 41.35797 38.57454
#
# Velocity S-wave (km/s) = 3.90214 4.19464 4.05103
# Velocity P-wave (km/s) = 7.36007 7.76980 7.56771
#
# Compressibility (1/GPa) = 0.01256129
#
# Stress axis : x y z
#
# Youngs Moduli (GPa) = 95.35025 68.73271 125.45382
#
# Poissons Ratio (x) = 0.34176 0.40048
# Poissons Ratio (y) = 0.47411 0.25827
# Poissons Ratio (z) = 0.30438 0.14150
#
# Static dielectric constant tensor:
#      x y z
#    x 1.931360 0.000000 -0.043520 
#    y 0.000000 1.901910 0.000000 
#    z -0.043520 0.000000 1.919740 
# 
# From -- ./inp_files/215130.got.cif
#   From: 2010.05.17/outbox.cif.g08.bks.cpg/sg15_108_cif.got.tgz:215130.got - 2010.06.03 18:47:42.
