data_PCOD9305758
_publ_section_title
;
Structure prediction by ZEFSAII (Michael W. Deem and Ramdas Pophale) SiO2 
 PCOD9305758
Probable space group: C 2/C
;
_chemical_formula_sum "Si O2"
_cell_formula_units_Z 56
_cell_length_a 25.467197
_cell_length_b 21.208835
_cell_length_c 15.374300
_cell_angle_alpha 90.000000
_cell_angle_beta 19.226877
_cell_angle_gamma 90.000000
_cell_volume 2734.624605
_symmetry_space_group_name_H-M "C 2/C"
_symmetry_group_IT_number 15
_symmetry_cell_setting 'monoclinic'
loop_
_space_group_symop_operation_xyz
x,y,z
-x,y,1/2-z
-x,-y,-z
x,-y,1/2+z
1/2+x,1/2+y,z
1/2-x,1/2+y,1/2-z
1/2-x,1/2-y,-z
1/2+x,1/2-y,1/2+z
loop_
_atom_site_type_symbol
_atom_site_label
_atom_site_fract_x
_atom_site_fract_y
_atom_site_fract_z
Si Si1 0.901064 0.022735 0.070642
Si Si2 0.297203 0.408037 0.424010
Si Si3 0.611511 0.031627 0.755060
Si Si4 0.692097 0.312737 0.943632
Si Si5 0.123400 0.615236 0.492110
Si Si6 0.688090 0.165968 0.933818
Si Si7 0.330372 0.404969 0.052671
O O1 0.749180 0.064773 0.334654
O O2 0.856510 0.966637 0.074114
O O3 0.026551 0.068696 0.826840
O O4 0.000000 0.000000 0.000000
O O5 0.194264 0.471564 0.581512
O O6 0.242660 0.356578 0.580102
O O7 0.288646 0.375940 0.343793
O O8 0.735102 0.073351 0.616299
O O9 0.497733 0.073139 0.874319
O O10 0.500000 0.000000 0.000000
O O11 0.771769 0.339618 0.731879
O O12 0.728742 0.238569 0.889698
O O13 0.500000 0.316103 0.250000
O O14 0.000000 0.648936 0.750000
O O15 0.734978 0.143854 0.763360
O O16 0.500000 0.155998 0.250000
O O17 0.500000 0.382142 0.750000
#
# Coordination Sequence:
#
# PCOD9305758 Si02
#       7
#     8   8   8   8   8   8   8
#     4  12  23  40  67  98 136 176 214 270 348 408
#     4  12  22  42  70  99 131 173 227 276 337 400
#     4  12  23  38  68 103 138 169 215 285 347 394
#     4  11  24  47  69  92 132 187 228 270 328 402
#     4  12  27  42  67 102 137 171 224 282 341 398
#     4  11  27  44  68  97 133 181 233 276 320 399
#     4  12  25  42  66 100 141 179 216 272 345 408
#
# _framework density 20.478131999999999
#
# number of rings (size 3 to 8) (size 9 to 14) (size 15 to 20)
#    0.000    0.286    7.143    2.143    0.000    0.571 
#    0.000    0.000    0.000    2.571    0.000    0.000 
#    0.000    0.000    0.000    0.000    0.000    0.000 
#
# Total GULP energy -156448.245001 kJ/mol
# GULP energy per Si atom -5587.437321 kJ/mol
# Density = 2.043152 g / cm^3
# Si number density = 20.478132 Si / 1000 Ang^3
#
#
#
# Elastic Constant Matrix: (Units=GPa)
#
#
# Indices 1 2 3 4 5 6 
#
# 1 49.6772 40.6018 11.0543 0.0065 -11.0225 -0.0012
# 2 40.6018 105.3212 45.6304 0.0192 10.4247 -0.0052
# 3 11.0543 45.6304 125.5273 0.0110 12.4522 -0.0085
# 4 0.0065 0.0192 0.0110 27.9912 -0.0076 4.7452
# 5 -11.0225 10.4247 12.4522 -0.0076 37.1863 0.0003
# 6 -0.0012 -0.0052 -0.0085 4.7452 0.0003 17.9064
#
#
#
# Elastic Compliance Matrix: (Units=1/GPa)
#
#
# Indices 1 2 3 4 5 6 
#
# 1 0.036144 -0.015885 0.001124 0.000007 0.014790 -0.000004
# 2 -0.015885 0.018375 -0.004450 -0.000010 -0.008369 0.000005
# 3 0.001124 -0.004450 0.009649 -0.000002 -0.001650 0.000004
# 4 0.000007 -0.000010 -0.000002 0.037406 0.000013 -0.009913
# 5 0.014790 -0.008369 -0.001650 0.000013 0.034175 -0.000006
# 6 -0.000004 0.000005 0.000004 -0.009913 -0.000006 0.058473
#
#
# Mechanical properties :
#
#
# Convention : Reuss Voigt Hill
#
# Bulk Modulus (GPa) = 38.84086 52.78875 45.81481
# Shear Modulus (GPa) = 20.72745 28.83271 24.78008
#
# Velocity S-wave (km/s) = 3.18492 3.75637 3.48239
# Velocity P-wave (km/s) = 5.70378 6.68190 6.21212
#
# Compressibility (1/GPa) = 0.02574608
#
# Stress axis : x y z
#
# Youngs Moduli (GPa) = 27.66675 54.42180 103.63916
#
# Poissons Ratio (x) = 0.86448 -0.11650
# Poissons Ratio (y) = 0.43948 0.46123
# Poissons Ratio (z) = -0.03110 0.24220
#
# Static dielectric constant tensor:
#      x y z
#    x 1.706280 0.000000 0.024380 
#    y 0.000000 1.782100 0.000030 
#    z 0.024380 0.000030 1.808910 
# 
# From -- ./inp_files/174717.got.cif
#   From: 2010.05.17/outbox.cif.g08.bks.cpg/sg15_88_cif.got.tgz:174717.got - 2010.06.03 18:47:42.
