data_PCOD9305360
_publ_section_title
;
Structure prediction by ZEFSAII (Michael W. Deem and Ramdas Pophale) SiO2 
 PCOD9305360
Probable space group: C 2/C
;
_chemical_formula_sum "Si O2"
_cell_formula_units_Z 60
_cell_length_a 22.072253
_cell_length_b 9.208561
_cell_length_c 26.764721
_cell_angle_alpha 90.000000
_cell_angle_beta 154.796340
_cell_angle_gamma 90.000000
_cell_volume 2316.565803
_symmetry_space_group_name_H-M "C 2/C"
_symmetry_group_IT_number 15
_symmetry_cell_setting 'monoclinic'
loop_
_space_group_symop_operation_xyz
x,y,z
-x,y,1/2-z
-x,-y,-z
x,-y,1/2+z
1/2+x,1/2+y,z
1/2-x,1/2+y,1/2-z
1/2-x,1/2-y,-z
1/2+x,1/2-y,1/2+z
loop_
_atom_site_type_symbol
_atom_site_label
_atom_site_fract_x
_atom_site_fract_y
_atom_site_fract_z
Si Si1 0.906214 0.667642 0.783034
Si Si2 0.714604 0.639318 0.917970
Si Si3 0.529633 0.619624 0.439577
Si Si4 0.500000 0.178894 0.750000
Si Si5 0.237042 0.458606 0.942200
Si Si6 0.302761 0.549792 0.702763
Si Si7 0.553166 0.159334 0.160607
Si Si8 0.890888 0.304030 0.912954
O O1 0.905393 0.496166 0.786746
O O2 0.759974 0.719272 0.698791
O O3 0.037090 0.735212 0.911357
O O4 0.919883 0.739176 0.738453
O O5 0.663385 0.805208 0.875783
O O6 0.673078 0.548057 0.838856
O O7 0.675397 0.564069 0.940993
O O8 0.885392 0.669015 0.047863
O O9 0.665304 0.519302 0.529599
O O10 0.404521 0.527530 0.319980
O O11 0.515070 0.693079 0.483053
O O12 0.618789 0.078056 0.864102
O O13 0.336296 0.718398 0.738622
O O14 0.154179 0.463685 0.599752
O O15 0.557777 0.173812 0.104373
#
# Coordination Sequence:
#
# PCOD9305360 Si02
#       8
#     8   8   8   4   8   8   8   8
#     4  11  25  43  72 109 143 195 245 306 379 441
#     4  11  25  42  71 106 142 188 243 294 371 438
#     4  11  25  47  68 106 149 191 243 298 377 437
#     4  12  22  42  72 100 144 186 236 304 362 444
#     4  11  24  44  71 105 144 189 235 305 365 446
#     4  11  26  45  71 106 139 193 245 298 363 444
#     4  12  24  47  72 105 144 196 246 311 363 441
#     4  11  26  45  72 103 149 191 250 305 368 441
#
# _framework density 25.900409
#
# number of rings (size 3 to 8) (size 9 to 14) (size 15 to 20)
#    0.000    0.800    4.000    2.400    0.000    8.000 
#    0.000    0.000    0.000    0.000    0.000    0.000 
#    0.000    0.000    0.000    0.000    0.000    0.000 
#
# Total GULP energy -167592.401989 kJ/mol
# GULP energy per Si atom -5586.413400 kJ/mol
# Density = 2.584146 g / cm^3
# Si number density = 25.900409 Si / 1000 Ang^3
#
#
#
# Elastic Constant Matrix: (Units=GPa)
#
#
# Indices 1 2 3 4 5 6 
#
# 1 116.0024 15.1275 29.6097 -0.0003 -28.9255 0.0001
# 2 15.1275 129.7228 31.2533 -0.0006 -6.6986 0.0000
# 3 29.6097 31.2533 80.1878 -0.0009 -7.9532 0.0001
# 4 -0.0003 -0.0006 -0.0009 51.6653 -0.0003 -9.5675
# 5 -28.9255 -6.6986 -7.9532 -0.0003 49.5818 0.0002
# 6 0.0001 0.0000 0.0001 -9.5675 0.0002 15.6202
#
#
#
# Elastic Compliance Matrix: (Units=1/GPa)
#
#
# Indices 1 2 3 4 5 6 
#
# 1 0.010965 -0.000156 -0.003410 0.000000 0.005829 0.000000
# 2 -0.000156 0.008529 -0.003212 0.000000 0.000546 0.000000
# 3 -0.003410 -0.003212 0.014980 0.000000 -0.000020 0.000000
# 4 0.000000 0.000000 0.000000 0.021832 0.000000 0.013372
# 5 0.005829 0.000546 -0.000020 0.000000 0.023640 0.000000
# 6 0.000000 0.000000 0.000000 0.013372 0.000000 0.072210
#
#
# Mechanical properties :
#
#
# Convention : Reuss Voigt Hill
#
# Bulk Modulus (GPa) = 47.80843 53.09934 50.45388
# Shear Modulus (GPa) = 28.95462 40.03497 34.49480
#
# Velocity S-wave (km/s) = 3.34716 3.93584 3.65338
# Velocity P-wave (km/s) = 5.78244 6.41875 6.10888
#
# Compressibility (1/GPa) = 0.02091682
#
# Stress axis : x y z
#
# Youngs Moduli (GPa) = 91.20254 117.24579 66.75648
#
# Poissons Ratio (x) = 0.01831 0.22762
# Poissons Ratio (y) = 0.01424 0.21445
# Poissons Ratio (z) = 0.31098 0.37664
#
# Static dielectric constant tensor:
#      x y z
#    x 2.023430 0.000000 0.003100 
#    y 0.000000 2.094370 0.000000 
#    z 0.003100 0.000000 2.124970 
# 
# From -- ./inp_files/302088.got.cif
#   From: 2010.05.17/outbox.cif.g08.bks.cpg/sg15_152_cif.got.tgz:302088.got - 2010.06.03 18:47:42.
