data_PCOD9305483
_publ_section_title
;
Structure prediction by ZEFSAII (Michael W. Deem and Ramdas Pophale) SiO2 
 PCOD9305483
Probable space group: C 2/C
;
_chemical_formula_sum "Si O2"
_cell_formula_units_Z 56
_cell_length_a 16.951409
_cell_length_b 17.380535
_cell_length_c 9.958677
_cell_angle_alpha 90.000000
_cell_angle_beta 70.366948
_cell_angle_gamma 90.000000
_cell_volume 2763.495034
_symmetry_space_group_name_H-M "C 2/C"
_symmetry_group_IT_number 15
_symmetry_cell_setting 'monoclinic'
loop_
_space_group_symop_operation_xyz
x,y,z
-x,y,1/2-z
-x,-y,-z
x,-y,1/2+z
1/2+x,1/2+y,z
1/2-x,1/2+y,1/2-z
1/2-x,1/2-y,-z
1/2+x,1/2-y,1/2+z
loop_
_atom_site_type_symbol
_atom_site_label
_atom_site_fract_x
_atom_site_fract_y
_atom_site_fract_z
Si Si1 0.157277 0.659548 0.893196
Si Si2 0.107580 0.821834 0.037291
Si Si3 0.828679 0.347240 0.605871
Si Si4 0.008539 0.427584 0.090743
Si Si5 0.258243 0.928341 0.908827
Si Si6 0.088177 0.815522 0.369734
Si Si7 0.732219 0.609937 0.917831
O O1 0.212683 0.651809 0.728229
O O2 0.064364 0.631628 0.908533
O O3 0.152820 0.744850 0.957024
O O4 0.196885 0.603644 0.982952
O O5 0.103581 0.822931 0.201453
O O6 0.010938 0.818584 0.046941
O O7 0.164501 0.893270 0.960260
O O8 0.901535 0.391054 0.484684
O O9 0.806736 0.392901 0.753826
O O10 0.867379 0.264378 0.615193
O O11 0.750124 0.350263 0.550329
O O12 0.000000 0.450424 0.250000
O O13 0.000000 0.500000 0.000000
O O14 0.256603 0.020273 0.908301
O O15 0.137273 0.880342 0.423714
#
# Coordination Sequence:
#
# PCOD9305483 Si02
#       7
#     8   8   8   8   8   8   8
#     4  12  23  44  69  96 139 176 225 271 334 412
#     4  11  24  45  72  98 131 184 227 277 331 412
#     4  12  25  43  65 102 138 175 224 276 341 402
#     4  12  26  41  65 101 143 181 219 281 343 405
#     4  12  25  44  71  99 134 180 229 273 344 397
#     4  11  24  45  70 100 134 177 231 275 338 405
#     4  12  25  43  68 102 135 175 220 287 335 398
#
# _framework density 20.264195000000001
#
# number of rings (size 3 to 8) (size 9 to 14) (size 15 to 20)
#    0.000    0.286    5.714    4.286    2.000    0.571 
#    0.000    2.143    0.000    0.000    0.000    0.000 
#    0.000    0.000    0.000    0.000    0.000    0.000 
#
# Total GULP energy -156716.115363 kJ/mol
# GULP energy per Si atom -5597.004120 kJ/mol
# Density = 2.021807 g / cm^3
# Si number density = 20.264195 Si / 1000 Ang^3
#
#
#
# Elastic Constant Matrix: (Units=GPa)
#
#
# Indices 1 2 3 4 5 6 
#
# 1 109.9140 36.7635 19.6240 0.0000 8.7873 0.0000
# 2 36.7635 47.3575 7.4151 0.0000 -7.8081 0.0000
# 3 19.6240 7.4151 85.1580 0.0000 4.6612 0.0000
# 4 0.0000 0.0000 0.0000 14.6433 0.0000 6.0936
# 5 8.7873 -7.8081 4.6612 0.0000 37.3280 0.0000
# 6 0.0000 0.0000 0.0000 6.0936 0.0000 25.9466
#
#
#
# Elastic Compliance Matrix: (Units=1/GPa)
#
#
# Indices 1 2 3 4 5 6 
#
# 1 0.013572 -0.011115 -0.001870 0.000000 -0.005286 0.000000
# 2 -0.011115 0.031378 -0.000678 0.000000 0.009265 0.000000
# 3 -0.001870 -0.000678 0.012301 0.000000 -0.001238 0.000000
# 4 0.000000 0.000000 0.000000 0.075687 0.000000 -0.017775
# 5 -0.005286 0.009265 -0.001238 0.000000 0.030126 0.000000
# 6 0.000000 0.000000 0.000000 -0.017775 0.000000 0.042715
#
#
# Mechanical properties :
#
#
# Convention : Reuss Voigt Hill
#
# Bulk Modulus (GPa) = 33.41754 41.11497 37.26626
# Shear Modulus (GPa) = 20.56922 27.49205 24.03064
#
# Velocity S-wave (km/s) = 3.18945 3.68731 3.44738
# Velocity P-wave (km/s) = 5.48545 6.20176 5.85457
#
# Compressibility (1/GPa) = 0.02992440
#
# Stress axis : x y z
#
# Youngs Moduli (GPa) = 73.67983 31.86940 81.29628
#
# Poissons Ratio (x) = 0.35422 0.15206
# Poissons Ratio (y) = 0.81894 0.05512
# Poissons Ratio (z) = 0.13781 0.02161
#
# Static dielectric constant tensor:
#      x y z
#    x 1.766730 0.000000 0.006290 
#    y 0.000000 1.707680 0.000000 
#    z 0.006290 0.000000 1.682170 
# 
# From -- ./inp_files/48989.got.cif
#   From: 2010.05.17/outbox.cif.g08.bks.cpg/sg15_25_cif.got.tgz:48989.got - 2010.06.03 18:47:42.
