data_PCOD9305061
_publ_section_title
;
Structure prediction by ZEFSAII (Michael W. Deem and Ramdas Pophale) SiO2 
 PCOD9305061
Probable space group: C 2/C
;
_chemical_formula_sum "Si O2"
_cell_formula_units_Z 44
_cell_length_a 15.816605
_cell_length_b 17.403060
_cell_length_c 8.407398
_cell_angle_alpha 90.000000
_cell_angle_beta 76.231609
_cell_angle_gamma 90.000000
_cell_volume 2247.701095
_symmetry_space_group_name_H-M "C 2/C"
_symmetry_group_IT_number 15
_symmetry_cell_setting 'monoclinic'
loop_
_space_group_symop_operation_xyz
x,y,z
-x,y,1/2-z
-x,-y,-z
x,-y,1/2+z
1/2+x,1/2+y,z
1/2-x,1/2+y,1/2-z
1/2-x,1/2-y,-z
1/2+x,1/2-y,1/2+z
loop_
_atom_site_type_symbol
_atom_site_label
_atom_site_fract_x
_atom_site_fract_y
_atom_site_fract_z
Si Si1 0.909339 0.678904 0.694736
Si Si2 0.213458 0.436271 0.116316
Si Si3 0.334814 0.481253 0.789704
Si Si4 0.500000 0.591287 0.750000
Si Si5 0.561464 0.946708 0.579593
Si Si6 0.056372 0.852228 0.888423
O O1 0.832976 0.645229 0.839382
O O2 0.909166 0.624002 0.541390
O O3 0.904890 0.767151 0.645800
O O4 0.000000 0.668692 0.750000
O O5 0.258481 0.466361 0.255199
O O6 0.139331 0.498897 0.105750
O O7 0.291896 0.437278 0.956045
O O8 0.416231 0.535987 0.786575
O O9 0.369389 0.417129 0.652267
O O10 0.505442 0.637207 0.579078
O O11 0.500000 0.919316 0.750000
O O12 0.500000 0.000000 0.500000
O O13 0.000000 0.864283 0.750000
#
# Coordination Sequence:
#
# PCOD9305061 Si02
#       6
#     8   8   8   4   8   8
#     4  11  24  42  64 100 137 173 220 275 348 407
#     4  12  22  38  67 101 128 172 226 277 329 402
#     4  12  23  42  70  95 130 176 233 281 325 410
#     4  12  24  48  70  98 130 192 236 268 348 404
#     4  12  20  38  64  92 131 175 217 265 329 414
#     4  11  25  45  68 100 137 177 228 285 342 401
#
# _framework density 19.575555999999999
#
# number of rings (size 3 to 8) (size 9 to 14) (size 15 to 20)
#    0.000    0.364    8.182    1.636    1.273    0.727 
#    0.000    3.636    0.000    0.000    0.000    0.000 
#    0.000    0.000    0.000    0.000    0.000    0.000 
#
# Total GULP energy -122843.398238 kJ/mol
# GULP energy per Si atom -5583.790829 kJ/mol
# Density = 1.953100 g / cm^3
# Si number density = 19.575556 Si / 1000 Ang^3
#
#
#
# Elastic Constant Matrix: (Units=GPa)
#
#
# Indices 1 2 3 4 5 6 
#
# 1 103.6660 40.4649 18.0018 0.0000 -0.5621 0.0000
# 2 40.4649 119.5066 37.1579 0.0000 -5.2847 0.0000
# 3 18.0018 37.1579 134.7239 0.0000 -15.8624 0.0000
# 4 0.0000 0.0000 0.0000 27.4793 0.0000 -0.9494
# 5 -0.5621 -5.2847 -15.8624 0.0000 26.4278 0.0000
# 6 0.0000 0.0000 0.0000 -0.9494 0.0000 16.1169
#
#
#
# Elastic Compliance Matrix: (Units=1/GPa)
#
#
# Indices 1 2 3 4 5 6 
#
# 1 0.011162 -0.003634 -0.000588 0.000000 -0.000842 0.000000
# 2 -0.003634 0.010338 -0.002294 0.000000 0.000613 0.000000
# 3 -0.000588 -0.002294 0.008693 0.000000 0.004746 0.000000
# 4 0.000000 0.000000 0.000000 0.036465 0.000000 0.002148
# 5 -0.000842 0.000613 0.004746 0.000000 0.040793 0.000000
# 6 0.000000 0.000000 0.000000 0.002148 0.000000 0.062173
#
#
# Mechanical properties :
#
#
# Convention : Reuss Voigt Hill
#
# Bulk Modulus (GPa) = 58.26974 61.01617 59.64295
# Shear Modulus (GPa) = 26.54249 31.48958 29.01603
#
# Velocity S-wave (km/s) = 3.68625 4.01511 3.85419
# Velocity P-wave (km/s) = 6.92453 7.26168 7.09511
#
# Compressibility (1/GPa) = 0.01716157
#
# Stress axis : x y z
#
# Youngs Moduli (GPa) = 89.58623 96.72629 115.03961
#
# Poissons Ratio (x) = 0.35149 0.06770
# Poissons Ratio (y) = 0.32555 0.26386
# Poissons Ratio (z) = 0.05272 0.22186
#
# Static dielectric constant tensor:
#      x y z
#    x 1.680140 0.000000 0.001430 
#    y 0.000000 1.653970 0.000000 
#    z 0.001430 0.000000 1.799740 
# 
# From -- ./inp_files/39045.got.cif
#   From: 2010.05.17/outbox.cif.g08.bks.cpg/sg15_20_cif.got.tgz:39045.got - 2010.06.03 18:47:42.
