data_PCOD9305512
_publ_section_title
;
Structure prediction by ZEFSAII (Michael W. Deem and Ramdas Pophale) SiO2 
 PCOD9305512
Probable space group: C 2/C
;
_chemical_formula_sum "Si O2"
_cell_formula_units_Z 44
_cell_length_a 13.676951
_cell_length_b 12.105192
_cell_length_c 10.199469
_cell_angle_alpha 90.000000
_cell_angle_beta 103.497256
_cell_angle_gamma 90.000000
_cell_volume 1642.007151
_symmetry_space_group_name_H-M "C 2/C"
_symmetry_group_IT_number 15
_symmetry_cell_setting 'monoclinic'
loop_
_space_group_symop_operation_xyz
x,y,z
-x,y,1/2-z
-x,-y,-z
x,-y,1/2+z
1/2+x,1/2+y,z
1/2-x,1/2+y,1/2-z
1/2-x,1/2-y,-z
1/2+x,1/2-y,1/2+z
loop_
_atom_site_type_symbol
_atom_site_label
_atom_site_fract_x
_atom_site_fract_y
_atom_site_fract_z
Si Si1 0.236245 0.558068 0.542351
Si Si2 0.349741 0.635842 0.120220
Si Si3 0.440924 0.953672 0.858520
Si Si4 0.734919 0.725891 0.161510
Si Si5 0.000000 0.037851 0.750000
Si Si6 0.007613 0.779241 0.472856
O O1 0.292131 0.449383 0.508768
O O2 0.165546 0.505159 0.633121
O O3 0.209896 0.626240 0.399949
O O4 0.286638 0.659706 0.638056
O O5 0.277789 0.707013 0.189331
O O6 0.406638 0.546729 0.230463
O O7 0.431894 0.704404 0.069767
O O8 0.500000 0.995814 0.750000
O O9 0.461116 0.822625 0.876494
O O10 0.500000 0.000000 0.000000
O O11 0.619638 0.737423 0.068828
O O12 0.993153 0.112660 0.618703
#
# Coordination Sequence:
#
# PCOD9305512 Si02
#       6
#     8   8   8   8   4   8
#     4  11  27  44  71 104 141 187 240 303 360 424
#     4  12  25  41  74 106 142 187 243 295 363 432
#     4  12  29  49  77 106 147 193 246 303 371 434
#     4  11  24  45  71 104 142 190 241 297 357 442
#     4  12  22  42  68 104 146 180 236 290 360 420
#     4  12  24  45  73 106 140 195 236 294 364 438
#
# _framework density 26.796472999999999
#
# number of rings (size 3 to 8) (size 9 to 14) (size 15 to 20)
#    0.000    0.364    6.364    1.636    5.091    2.182 
#    0.000    0.000    0.000    0.000    0.000    0.000 
#    0.000    0.000    0.000    0.000    0.000    0.000 
#
# Total GULP energy -123012.182497 kJ/mol
# GULP energy per Si atom -5591.462841 kJ/mol
# Density = 2.673548 g / cm^3
# Si number density = 26.796473 Si / 1000 Ang^3
#
#
#
# Elastic Constant Matrix: (Units=GPa)
#
#
# Indices 1 2 3 4 5 6 
#
# 1 117.6245 27.2671 29.3876 0.0000 -40.1368 0.0000
# 2 27.2671 94.1505 21.9196 0.0000 -19.0407 0.0000
# 3 29.3876 21.9196 86.9948 0.0000 -40.5066 0.0000
# 4 0.0000 0.0000 0.0000 49.1751 0.0000 -6.3907
# 5 -40.1368 -19.0407 -40.5066 0.0000 49.3807 0.0000
# 6 0.0000 0.0000 0.0000 -6.3907 0.0000 45.6886
#
#
#
# Elastic Compliance Matrix: (Units=1/GPa)
#
#
# Indices 1 2 3 4 5 6 
#
# 1 0.012043 -0.001708 0.000992 0.000000 0.009944 0.000000
# 2 -0.001708 0.011861 -0.001502 0.000000 0.001953 0.000000
# 3 0.000992 -0.001502 0.018840 0.000000 0.015681 0.000000
# 4 0.000000 0.000000 0.000000 0.020712 0.000000 0.002897
# 5 0.009944 0.001953 0.015681 0.000000 0.041950 0.000000
# 6 0.000000 0.000000 0.000000 0.002897 0.000000 0.022293
#
#
# Mechanical properties :
#
#
# Convention : Reuss Voigt Hill
#
# Bulk Modulus (GPa) = 26.10443 50.65760 38.38102
# Shear Modulus (GPa) = 34.50611 43.52858 39.01734
#
# Velocity S-wave (km/s) = 3.59236 4.03478 3.81998
# Velocity P-wave (km/s) = 5.19323 6.37585 5.81469
#
# Compressibility (1/GPa) = 0.03830768
#
# Stress axis : x y z
#
# Youngs Moduli (GPa) = 83.03777 84.31294 53.07894
#
# Poissons Ratio (x) = 0.14398 -0.05266
# Poissons Ratio (y) = 0.14180 0.07973
# Poissons Ratio (z) = -0.08239 0.12665
#
# Static dielectric constant tensor:
#      x y z
#    x 0.035970 0.000000 0.059580 
#    y 0.000000 5.444130 0.000000 
#    z 0.059580 0.000000 2.097360 
# 
# From -- ./inp_files/95056.got.cif
#   From: 2010.05.17/outbox.cif.g08.bks.cpg/sg15_48_cif.got.tgz:95056.got - 2010.06.03 18:47:42.
