data_PCOD9305054
_publ_section_title
;
Structure prediction by ZEFSAII (Michael W. Deem and Ramdas Pophale) SiO2 
 PCOD9305054
Probable space group: C 2/C
;
_chemical_formula_sum "Si O2"
_cell_formula_units_Z 48
_cell_length_a 31.281969
_cell_length_b 13.585421
_cell_length_c 7.712825
_cell_angle_alpha 90.000000
_cell_angle_beta 142.953339
_cell_angle_gamma 90.000000
_cell_volume 1974.752365
_symmetry_space_group_name_H-M "C 2/C"
_symmetry_group_IT_number 15
_symmetry_cell_setting 'monoclinic'
loop_
_space_group_symop_operation_xyz
x,y,z
-x,y,1/2-z
-x,-y,-z
x,-y,1/2+z
1/2+x,1/2+y,z
1/2-x,1/2+y,1/2-z
1/2-x,1/2-y,-z
1/2+x,1/2-y,1/2+z
loop_
_atom_site_type_symbol
_atom_site_label
_atom_site_fract_x
_atom_site_fract_y
_atom_site_fract_z
Si Si1 0.263378 0.704222 0.854274
Si Si2 0.753635 0.521824 0.894603
Si Si3 0.324511 0.360997 0.066603
Si Si4 0.941258 0.734282 0.318061
Si Si5 0.918438 0.519732 0.409953
Si Si6 0.910848 0.298752 0.309322
O O1 0.249957 0.589052 0.793000
O O2 0.208206 0.752576 0.544446
O O3 0.250000 0.750000 0.000000
O O4 0.338748 0.744185 0.037066
O O5 0.716072 0.421431 0.715767
O O6 0.700092 0.581189 0.845155
O O7 0.836500 0.517128 0.220192
O O8 0.404133 0.331280 0.275065
O O9 0.922610 0.627580 0.338209
O O10 0.025626 0.744700 0.596425
O O11 0.922533 0.720327 0.052985
O O12 0.912727 0.416383 0.284913
O O13 0.000000 0.507504 0.750000
#
# Coordination Sequence:
#
# PCOD9305054 Si02
#       6
#     8   8   8   8   8   8
#     4  12  23  45  73 103 142 188 239 298 363 433
#     4  12  28  44  74 109 142 193 249 301 359 436
#     4  12  26  46  71 103 147 189 247 299 356 436
#     4  11  25  45  65 104 147 187 243 289 372 437
#     4  12  25  39  69 109 147 179 230 302 376 434
#     4  11  24  41  73 101 142 192 231 303 369 431
#
# _framework density 24.306847000000001
#
# number of rings (size 3 to 8) (size 9 to 14) (size 15 to 20)
#    0.000    0.333    6.667    2.000    4.667    0.000 
#    0.000    0.833    0.000    0.000    0.000    0.000 
#    0.000    0.000    0.000    0.000    0.000    0.000 
#
# Total GULP energy -134005.566996 kJ/mol
# GULP energy per Si atom -5583.565292 kJ/mol
# Density = 2.425152 g / cm^3
# Si number density = 24.306847 Si / 1000 Ang^3
#
#
#
# Elastic Constant Matrix: (Units=GPa)
#
#
# Indices 1 2 3 4 5 6 
#
# 1 136.8200 48.6548 58.4159 0.0000 41.0398 0.0000
# 2 48.6548 121.9588 51.7900 0.0000 24.7970 0.0000
# 3 58.4159 51.7900 120.9163 0.0000 42.3925 0.0000
# 4 0.0000 0.0000 0.0000 46.9602 0.0000 12.1909
# 5 41.0398 24.7970 42.3925 0.0000 57.0021 0.0000
# 6 0.0000 0.0000 0.0000 12.1909 0.0000 43.3305
#
#
#
# Elastic Compliance Matrix: (Units=1/GPa)
#
#
# Indices 1 2 3 4 5 6 
#
# 1 0.010598 -0.002189 -0.002491 0.000000 -0.004826 0.000000
# 2 -0.002189 0.010581 -0.003264 0.000000 -0.000599 0.000000
# 3 -0.002491 -0.003264 0.013182 0.000000 -0.006590 0.000000
# 4 0.000000 0.000000 0.000000 0.022973 0.000000 -0.006463
# 5 -0.004826 -0.000599 -0.006590 0.000000 0.026180 0.000000
# 6 0.000000 0.000000 0.000000 -0.006463 0.000000 0.024897
#
#
# Mechanical properties :
#
#
# Convention : Reuss Voigt Hill
#
# Bulk Modulus (GPa) = 54.13287 77.49075 65.81181
# Shear Modulus (GPa) = 38.32713 44.18086 41.25400
#
# Velocity S-wave (km/s) = 3.97521 4.26799 4.12420
# Velocity P-wave (km/s) = 6.58701 7.49914 7.05782
#
# Compressibility (1/GPa) = 0.01847307
#
# Stress axis : x y z
#
# Youngs Moduli (GPa) = 94.35479 94.51023 75.86085
#
# Poissons Ratio (x) = 0.20691 0.18893
# Poissons Ratio (y) = 0.20657 0.24763
# Poissons Ratio (z) = 0.23499 0.30850
#
# Static dielectric constant tensor:
#      x y z
#    x 2.109900 0.000000 -0.048110 
#    y 0.000000 1.909240 0.000000 
#    z -0.048110 0.000000 2.059520 
# 
# From -- ./inp_files/70005.got.cif
#   From: 2010.05.17/outbox.cif.g08.bks.cpg/sg15_36_cif.got.tgz:70005.got - 2010.06.03 18:47:42.
