data_PCOD9305786
_publ_section_title
;
Structure prediction by ZEFSAII (Michael W. Deem and Ramdas Pophale) SiO2 
 PCOD9305786
Probable space group: C 2/C
;
_chemical_formula_sum "Si O2"
_cell_formula_units_Z 48
_cell_length_a 18.210972
_cell_length_b 8.892226
_cell_length_c 29.615002
_cell_angle_alpha 90.000000
_cell_angle_beta 25.819322
_cell_angle_gamma 90.000000
_cell_volume 2088.709963
_symmetry_space_group_name_H-M "C 2/C"
_symmetry_group_IT_number 15
_symmetry_cell_setting 'monoclinic'
loop_
_space_group_symop_operation_xyz
x,y,z
-x,y,1/2-z
-x,-y,-z
x,-y,1/2+z
1/2+x,1/2+y,z
1/2-x,1/2+y,1/2-z
1/2-x,1/2-y,-z
1/2+x,1/2-y,1/2+z
loop_
_atom_site_type_symbol
_atom_site_label
_atom_site_fract_x
_atom_site_fract_y
_atom_site_fract_z
Si Si1 0.114235 0.906476 0.227939
Si Si2 0.948313 0.627592 0.493318
Si Si3 0.005213 0.111850 0.362103
Si Si4 0.965134 0.414838 0.716509
Si Si5 0.400223 0.445207 0.099221
Si Si6 0.874445 0.426693 0.449025
O O1 0.031426 0.761856 0.297757
O O2 0.000000 0.964718 0.250000
O O3 0.271694 0.828783 0.114980
O O4 0.131864 0.037798 0.255202
O O5 0.919468 0.546731 0.461929
O O6 0.000000 0.500000 0.500000
O O7 0.072328 0.766454 0.418006
O O8 0.002602 0.284943 0.380323
O O9 0.823129 0.110095 0.437779
O O10 0.023035 0.012243 0.397151
O O11 0.789429 0.493127 0.800130
O O12 0.000000 0.428413 0.750000
O O13 0.105877 0.501127 0.610812
O O14 0.500000 0.500000 0.000000
#
# Coordination Sequence:
#
# PCOD9305786 Si02
#       6
#     8   8   8   8   8   8
#     4  11  24  47  72 104 138 188 234 290 356 422
#     4  12  27  45  72 103 146 185 238 292 354 424
#     4  11  26  45  73 102 145 184 238 288 349 423
#     4  11  26  45  73 103 140 183 238 291 358 418
#     4  12  25  46  73 103 139 185 237 295 351 421
#     4  11  26  46  68 107 142 190 232 289 352 417
#
# _framework density 22.980692000000001
#
# number of rings (size 3 to 8) (size 9 to 14) (size 15 to 20)
#    0.000    0.667    3.333    3.000    7.000    3.333 
#    0.000    0.000    0.000    0.000    0.000    0.000 
#    0.000    0.000    0.000    0.000    0.000    0.000 
#
# Total GULP energy -134121.963775 kJ/mol
# GULP energy per Si atom -5588.415157 kJ/mol
# Density = 2.292839 g / cm^3
# Si number density = 22.980692 Si / 1000 Ang^3
#
#
#
# Elastic Constant Matrix: (Units=GPa)
#
#
# Indices 1 2 3 4 5 6 
#
# 1 95.0112 43.4807 11.1971 0.0005 9.4867 0.0008
# 2 43.4807 139.1167 27.4924 0.0000 13.7123 0.0019
# 3 11.1971 27.4924 53.6557 -0.0036 11.6834 -0.0010
# 4 0.0005 0.0000 -0.0036 29.9890 -0.0002 6.8335
# 5 9.4867 13.7123 11.6834 -0.0002 34.5568 -0.0003
# 6 0.0008 0.0019 -0.0010 6.8335 -0.0003 39.5317
#
#
#
# Elastic Compliance Matrix: (Units=1/GPa)
#
#
# Indices 1 2 3 4 5 6 
#
# 1 0.012411 -0.003632 -0.000325 0.000000 -0.001856 0.000000
# 2 -0.003632 0.009182 -0.003638 0.000000 -0.001416 0.000000
# 3 -0.000325 -0.003638 0.021844 0.000003 -0.005852 0.000000
# 4 0.000000 0.000000 0.000003 0.034713 0.000000 -0.006000
# 5 -0.001856 -0.001416 -0.005852 0.000000 0.031988 0.000000
# 6 0.000000 0.000000 0.000000 -0.006000 0.000000 0.026333
#
#
# Mechanical properties :
#
#
# Convention : Reuss Voigt Hill
#
# Bulk Modulus (GPa) = 35.40294 50.23601 42.81948
# Shear Modulus (GPa) = 31.04120 34.52308 32.78214
#
# Velocity S-wave (km/s) = 3.67924 3.88011 3.78101
# Velocity P-wave (km/s) = 5.78689 6.47929 6.14285
#
# Compressibility (1/GPa) = 0.02824624
#
# Stress axis : x y z
#
# Youngs Moduli (GPa) = 80.57541 108.90941 45.77973
#
# Poissons Ratio (x) = 0.39554 0.01487
# Poissons Ratio (y) = 0.29263 0.16656
# Poissons Ratio (z) = 0.02618 0.39626
#
# Static dielectric constant tensor:
#      x y z
#    x 1.919310 0.000000 0.135070 
#    y 0.000000 1.900420 0.000000 
#    z 0.135070 0.000000 2.424320 
# 
# From -- ./inp_files/315631.got.cif
#   From: 2010.05.17/outbox.cif.g08.bks.cpg/sg15_158_cif.got.tgz:315631.got - 2010.06.03 18:47:42.
