data_PCOD9305120
_publ_section_title
;
Structure prediction by ZEFSAII (Michael W. Deem and Ramdas Pophale) SiO2 
 PCOD9305120
Probable space group: C 2/C
;
_chemical_formula_sum "Si O2"
_cell_formula_units_Z 52
_cell_length_a 18.492730
_cell_length_b 22.505314
_cell_length_c 4.933887
_cell_angle_alpha 90.000000
_cell_angle_beta 82.703723
_cell_angle_gamma 90.000000
_cell_volume 2036.781189
_symmetry_space_group_name_H-M "C 2/C"
_symmetry_group_IT_number 15
_symmetry_cell_setting 'monoclinic'
loop_
_space_group_symop_operation_xyz
x,y,z
-x,y,1/2-z
-x,-y,-z
x,-y,1/2+z
1/2+x,1/2+y,z
1/2-x,1/2+y,1/2-z
1/2-x,1/2-y,-z
1/2+x,1/2-y,1/2+z
loop_
_atom_site_type_symbol
_atom_site_label
_atom_site_fract_x
_atom_site_fract_y
_atom_site_fract_z
Si Si1 0.643678 0.034906 0.391425
Si Si2 0.262939 0.810625 0.332532
Si Si3 0.500000 0.364377 0.750000
Si Si4 0.764532 0.118794 0.169233
Si Si5 0.601599 0.539473 0.488317
Si Si6 0.929483 0.685710 0.599596
Si Si7 0.500000 0.717354 0.750000
Si Si8 0.000000 0.420024 0.750000
O O1 0.685229 0.090694 0.249242
O O2 0.557877 0.044580 0.400111
O O3 0.663602 0.020471 0.688518
O O4 0.250000 0.750000 0.500000
O O5 0.219430 0.857498 0.539422
O O6 0.263288 0.673032 0.957644
O O7 0.351108 0.817655 0.276021
O O8 0.444518 0.406976 0.616571
O O9 0.526547 0.322304 0.490970
O O10 0.816975 0.065233 0.062932
O O11 0.587915 0.516790 0.797764
O O12 0.000000 0.699038 0.750000
O O13 0.934636 0.739268 0.379710
O O14 0.951455 0.623408 0.457233
#
# Coordination Sequence:
#
# PCOD9305120 Si02
#       8
#     8   8   4   8   8   8   4   4
#     4  12  25  43  68 102 143 190 246 297 351 424
#     4  12  28  48  75 109 150 193 247 303 367 447
#     4  12  26  47  78 112 148 179 248 312 378 442
#     4  12  26  49  72 106 149 196 240 303 368 439
#     4  12  26  49  77 108 146 194 245 305 376 443
#     4  11  25  46  76 104 153 195 247 301 375 438
#     4  11  26  45  74 114 144 193 238 305 376 446
#     4  11  24  42  70 104 146 190 246 297 366 410
#
# _framework density 25.530477000000001
#
# number of rings (size 3 to 8) (size 9 to 14) (size 15 to 20)
#    0.000    0.308    2.308    6.000    6.462    1.231 
#    0.000    0.000    0.000    0.000    0.000    0.000 
#    0.000    0.000    0.000    0.000    0.000    0.000 
#
# Total GULP energy -145603.240224 kJ/mol
# GULP energy per Si atom -5600.124624 kJ/mol
# Density = 2.547237 g / cm^3
# Si number density = 25.530477 Si / 1000 Ang^3
#
#
#
# Elastic Constant Matrix: (Units=GPa)
#
#
# Indices 1 2 3 4 5 6 
#
# 1 59.0873 -8.7776 17.9812 0.0000 -1.5619 0.0000
# 2 -8.7776 54.3457 46.2830 0.0000 -6.0844 0.0000
# 3 17.9812 46.2830 134.7827 0.0000 -0.8143 0.0000
# 4 0.0000 0.0000 0.0000 37.3062 0.0000 4.3928
# 5 -1.5619 -6.0844 -0.8143 0.0000 30.0024 0.0000
# 6 0.0000 0.0000 0.0000 4.3928 0.0000 12.4274
#
#
#
# Elastic Compliance Matrix: (Units=1/GPa)
#
#
# Indices 1 2 3 4 5 6 
#
# 1 0.019841 0.008097 -0.005412 0.000000 0.002528 0.000000
# 2 0.008097 0.030093 -0.011376 0.000000 0.006215 0.000000
# 3 -0.005412 -0.011376 0.012034 0.000000 -0.002262 0.000000
# 4 0.000000 0.000000 0.000000 0.027969 0.000000 -0.009886
# 5 0.002528 0.006215 -0.002262 0.000000 0.034661 0.000000
# 6 0.000000 0.000000 0.000000 -0.009886 0.000000 0.083962
#
#
# Mechanical properties :
#
#
# Convention : Reuss Voigt Hill
#
# Bulk Modulus (GPa) = 22.42932 39.90989 31.16960
# Shear Modulus (GPa) = 20.76375 28.79582 24.77978
#
# Velocity S-wave (km/s) = 2.85492 3.36207 3.11882
# Velocity P-wave (km/s) = 4.43529 5.54414 5.02042
#
# Compressibility (1/GPa) = 0.04458450
#
# Stress axis : x y z
#
# Youngs Moduli (GPa) = 50.40161 33.23070 83.09705
#
# Poissons Ratio (x) = -0.26906 0.44971
# Poissons Ratio (y) = -0.40808 0.94532
# Poissons Ratio (z) = 0.27277 0.37804
#
# Static dielectric constant tensor:
#      x y z
#    x 2.033440 0.000000 0.038020 
#    y 0.000000 2.011640 0.000000 
#    z 0.038020 0.000000 2.009750 
# 
# From -- ./inp_files/13347.got.cif
#   From: 2010.05.17/outbox.cif.g08.bks.cpg/sg15_7_cif.got.tgz:13347.got - 2010.06.03 18:47:42.
