data_PCOD9305363
_publ_section_title
;
Structure prediction by ZEFSAII (Michael W. Deem and Ramdas Pophale) SiO2 
 PCOD9305363
Probable space group: C 2/C
;
_chemical_formula_sum "Si O2"
_cell_formula_units_Z 40
_cell_length_a 31.214737
_cell_length_b 4.681414
_cell_length_c 10.383481
_cell_angle_alpha 90.000000
_cell_angle_beta 83.718677
_cell_angle_gamma 90.000000
_cell_volume 1508.219783
_symmetry_space_group_name_H-M "C 2/C"
_symmetry_group_IT_number 15
_symmetry_cell_setting 'monoclinic'
loop_
_space_group_symop_operation_xyz
x,y,z
-x,y,1/2-z
-x,-y,-z
x,-y,1/2+z
1/2+x,1/2+y,z
1/2-x,1/2+y,1/2-z
1/2-x,1/2-y,-z
1/2+x,1/2-y,1/2+z
loop_
_atom_site_type_symbol
_atom_site_label
_atom_site_fract_x
_atom_site_fract_y
_atom_site_fract_z
Si Si1 0.852390 0.548494 0.376130
Si Si2 0.922221 0.266831 0.178411
Si Si3 0.500000 0.594288 0.750000
Si Si4 0.500000 0.000000 0.500000
Si Si5 0.350359 0.452176 0.045432
Si Si6 0.778898 0.749836 0.736167
O O1 0.893654 0.463309 0.279719
O O2 0.852570 0.880896 0.408625
O O3 0.810491 0.429585 0.317752
O O4 0.852121 0.380223 0.512416
O O5 0.890589 0.048535 0.117159
O O6 0.950404 0.427463 0.062674
O O7 0.958460 0.108070 0.251377
O O8 0.503999 0.777418 0.620620
O O9 0.307563 0.569464 0.127024
O O10 0.749044 0.499458 0.686729
#
# Coordination Sequence:
#
# PCOD9305363 Si02
#       6
#     8   8   4   4   8   8
#     4  11  26  46  71 107 149 199 251 318 392 471
#     4  11  28  46  72 107 153 199 265 325 403 465
#     4  12  28  50  74 116 148 210 264 344 390 486
#     4  12  28  48  80 108 154 206 272 334 402 472
#     4  11  26  45  74 105 151 200 250 318 396 469
#     4  11  24  44  71 108 146 189 253 315 384 473
#
# _framework density 26.521332000000001
#
# number of rings (size 3 to 8) (size 9 to 14) (size 15 to 20)
#    0.000    0.800    0.000    4.800   11.200    8.000 
#    0.000    0.000    0.000    0.000    0.000    0.000 
#    0.000    0.000    0.000    0.000    0.000    0.000 
#
# Total GULP energy -111855.810494 kJ/mol
# GULP energy per Si atom -5592.790525 kJ/mol
# Density = 2.646097 g / cm^3
# Si number density = 26.521332 Si / 1000 Ang^3
#
#
#
# Elastic Constant Matrix: (Units=GPa)
#
#
# Indices 1 2 3 4 5 6 
#
# 1 139.5150 44.8752 38.8666 0.0000 -18.6433 0.0000
# 2 44.8752 102.3217 22.4708 0.0000 -2.2992 0.0000
# 3 38.8666 22.4708 64.4252 0.0000 -12.5105 0.0000
# 4 0.0000 0.0000 0.0000 40.4002 0.0000 24.0189
# 5 -18.6433 -2.2992 -12.5105 0.0000 34.2882 0.0000
# 6 0.0000 0.0000 0.0000 24.0189 0.0000 10.6258
#
#
#
# Elastic Compliance Matrix: (Units=1/GPa)
#
#
# Indices 1 2 3 4 5 6 
#
# 1 0.009869 -0.003351 -0.004075 0.000000 0.003654 0.000000
# 2 -0.003351 0.011737 -0.002446 0.000000 -0.001928 0.000000
# 3 -0.004075 -0.002446 0.019773 0.000000 0.004834 0.000000
# 4 0.000000 0.000000 0.000000 -0.071980 0.000000 0.162705
# 5 0.003654 -0.001928 0.004834 0.000000 0.032786 0.000000
# 6 0.000000 0.000000 0.000000 0.162705 0.000000 -0.273673
#
#
# Mechanical properties :
#
#
# Convention : Reuss Voigt Hill
#
# Bulk Modulus (GPa) = 46.22632 57.63190 51.92911
# Shear Modulus (GPa) = -20.44729 30.39945 4.97608
#
# Velocity S-wave (km/s) = -2.77966 3.38927 1.37125
# Velocity P-wave (km/s) = 2.67689 6.09046 4.70423
#
# Compressibility (1/GPa) = 0.02163270
#
# Stress axis : x y z
#
# Youngs Moduli (GPa) = 101.32394 85.20238 50.57527
#
# Poissons Ratio (x) = 0.28554 0.20612
# Poissons Ratio (y) = 0.33956 0.12372
# Poissons Ratio (z) = 0.41294 0.20842
#
# Static dielectric constant tensor:
#      x y z
#    x 2.044620 0.000000 0.032800 
#    y 0.000000 1.983490 0.000000 
#    z 0.032800 0.000000 2.069420 
# 
# From -- ./inp_files/120794.got.cif
#   From: 2010.05.17/outbox.cif.g08.bks.cpg/sg15_61_cif.got.tgz:120794.got - 2010.06.03 18:47:42.
