data_PCOD9305682
_publ_section_title
;
Structure prediction by ZEFSAII (Michael W. Deem and Ramdas Pophale) SiO2 
 PCOD9305682
Probable space group: C 2/C
;
_chemical_formula_sum "Si O2"
_cell_formula_units_Z 56
_cell_length_a 9.403206
_cell_length_b 14.414256
_cell_length_c 21.918977
_cell_angle_alpha 90.000000
_cell_angle_beta 117.573223
_cell_angle_gamma 90.000000
_cell_volume 2633.467784
_symmetry_space_group_name_H-M "C 2/C"
_symmetry_group_IT_number 15
_symmetry_cell_setting 'monoclinic'
loop_
_space_group_symop_operation_xyz
x,y,z
-x,y,1/2-z
-x,-y,-z
x,-y,1/2+z
1/2+x,1/2+y,z
1/2-x,1/2+y,1/2-z
1/2-x,1/2-y,-z
1/2+x,1/2-y,1/2+z
loop_
_atom_site_type_symbol
_atom_site_label
_atom_site_fract_x
_atom_site_fract_y
_atom_site_fract_z
Si Si1 0.562836 0.780292 0.892589
Si Si2 0.000000 0.850735 0.750000
Si Si3 0.262637 0.817791 0.162403
Si Si4 0.000000 0.365945 0.750000
Si Si5 0.842427 0.352741 0.467585
Si Si6 0.833076 0.654591 0.538641
Si Si7 0.307080 0.510601 0.299121
Si Si8 0.085823 0.996311 0.951428
O O1 0.421032 0.712299 0.885773
O O2 0.509830 0.807925 0.814359
O O3 0.744050 0.740522 0.930449
O O4 0.573137 0.854666 0.949050
O O5 0.869979 0.774182 0.698058
O O6 0.887280 0.926598 0.762004
O O7 0.326752 0.855521 0.110538
O O8 0.248010 0.901016 0.210099
O O9 0.151212 0.431995 0.783721
O O10 0.694541 0.422120 0.445108
O O11 0.985842 0.361056 0.448332
O O12 0.750000 0.750000 0.500000
O O13 0.716928 0.582502 0.483698
O O14 0.441012 0.519018 0.377178
O O15 0.000000 0.000000 0.000000
#
# Coordination Sequence:
#
# PCOD9305682 Si02
#       8
#     8   4   8   4   8   8   8   8
#     4  11  24  46  73 108 149 198 254 316 392 471
#     4  12  29  53  78 108 162 204 261 325 392 474
#     4  12  25  52  73 110 152 201 262 320 392 468
#     4  12  27  45  76 106 150 198 257 319 392 458
#     4  11  25  45  75 111 150 196 257 317 394 468
#     4  12  25  43  77 109 146 195 251 322 386 458
#     4  12  27  50  77 112 151 205 259 322 387 482
#     4  12  24  47  73 107 152 189 249 322 383 462
#
# _framework density 21.264735999999999
#
# number of rings (size 3 to 8) (size 9 to 14) (size 15 to 20)
#    0.000    0.286    5.714    2.571    6.000    0.571 
#    5.143    0.000    0.000    0.000    0.000    0.000 
#    0.000    0.000    0.000    0.000    0.000    0.000 
#
# Total GULP energy -155948.837635 kJ/mol
# GULP energy per Si atom -5569.601344 kJ/mol
# Density = 2.121634 g / cm^3
# Si number density = 21.264736 Si / 1000 Ang^3
#
#
#
# Elastic Constant Matrix: (Units=GPa)
#
#
# Indices 1 2 3 4 5 6 
#
# 1 180.0637 48.5160 29.9897 0.0000 14.3317 0.0000
# 2 48.5160 55.9012 24.1184 0.0000 -1.8994 0.0000
# 3 29.9897 24.1184 76.4953 0.0000 1.2423 0.0000
# 4 0.0000 0.0000 0.0000 22.2506 0.0000 -15.9541
# 5 14.3317 -1.8994 1.2423 0.0000 24.4780 0.0000
# 6 0.0000 0.0000 0.0000 -15.9541 0.0000 -1.3249
#
#
#
# Elastic Compliance Matrix: (Units=1/GPa)
#
#
# Indices 1 2 3 4 5 6 
#
# 1 0.007899 -0.006630 -0.000924 0.000000 -0.005093 0.000000
# 2 -0.006630 0.026363 -0.005814 0.000000 0.006223 0.000000
# 3 -0.000924 -0.005814 0.015279 0.000000 -0.000686 0.000000
# 4 0.000000 0.000000 0.000000 0.004665 0.000000 -0.056174
# 5 -0.005093 0.006223 -0.000686 0.000000 0.044352 0.000000
# 6 0.000000 0.000000 0.000000 -0.056174 0.000000 -0.078344
#
#
# Mechanical properties :
#
#
# Convention : Reuss Voigt Hill
#
# Bulk Modulus (GPa) = 43.84855 57.52318 50.68587
# Shear Modulus (GPa) = 91.65737 23.06982 57.36360
#
# Velocity S-wave (km/s) = 6.57241 3.29733 5.19947
# Velocity P-wave (km/s) = 8.84650 6.45029 7.74166
#
# Compressibility (1/GPa) = 0.02280577
#
# Stress axis : x y z
#
# Youngs Moduli (GPa) = 126.59570 37.93244 65.44935
#
# Poissons Ratio (x) = 0.25150 0.06046
# Poissons Ratio (y) = 0.83934 0.38050
# Poissons Ratio (z) = 0.11694 0.22053
#
# Static dielectric constant tensor:
#      x y z
#    x 2.374160 0.000000 -0.295670 
#    y 0.000000 2.324280 0.000000 
#    z -0.295670 0.000000 1.851840 
# 
# From -- ./inp_files/264857.got.cif
#   From: 2010.05.17/outbox.cif.g08.bks.cpg/sg15_133_cif.got.tgz:264857.got - 2010.06.03 18:47:42.
