data_PCOD9305735
_publ_section_title
;
Structure prediction by ZEFSAII (Michael W. Deem and Ramdas Pophale) SiO2 
 PCOD9305735
Probable space group: C 2/C
;
_chemical_formula_sum "Si O2"
_cell_formula_units_Z 48
_cell_length_a 19.704746
_cell_length_b 6.260437
_cell_length_c 22.237377
_cell_angle_alpha 90.000000
_cell_angle_beta 130.576621
_cell_angle_gamma 90.000000
_cell_volume 2083.568880
_symmetry_space_group_name_H-M "C 2/C"
_symmetry_group_IT_number 15
_symmetry_cell_setting 'monoclinic'
loop_
_space_group_symop_operation_xyz
x,y,z
-x,y,1/2-z
-x,-y,-z
x,-y,1/2+z
1/2+x,1/2+y,z
1/2-x,1/2+y,1/2-z
1/2-x,1/2-y,-z
1/2+x,1/2-y,1/2+z
loop_
_atom_site_type_symbol
_atom_site_label
_atom_site_fract_x
_atom_site_fract_y
_atom_site_fract_z
Si Si1 0.037155 0.418281 0.874943
Si Si2 0.794386 0.365170 0.969978
Si Si3 0.350425 0.321744 0.162866
Si Si4 0.918886 0.204806 0.284474
Si Si5 0.245798 0.935764 0.164975
Si Si6 0.453545 0.439986 0.409974
O O1 0.088426 0.279729 0.853930
O O2 0.974455 0.582229 0.802096
O O3 0.983691 0.277520 0.893823
O O4 0.111287 0.543755 0.955826
O O5 0.731965 0.560979 0.916012
O O6 0.788126 0.194604 0.913005
O O7 0.750000 0.250000 0.000000
O O8 0.403796 0.507824 0.229880
O O9 0.301089 0.145471 0.176400
O O10 0.819014 0.289308 0.239977
O O11 0.973955 0.117460 0.372356
O O12 0.153599 0.957963 0.146784
O O13 0.500000 0.500000 0.500000
#
# Coordination Sequence:
#
# PCOD9305735 Si02
#       6
#     8   8   8   8   8   8
#     4  12  27  48  79 115 154 196 265 319 380 462
#     4  11  24  46  78 111 148 196 254 318 384 451
#     4  11  26  49  79 110 154 201 253 319 389 459
#     4  11  29  47  76 110 154 200 258 313 381 458
#     4  11  26  48  75 109 153 204 253 314 391 456
#     4  12  29  48  77 111 155 202 258 317 385 457
#
# _framework density 23.037396999999999
#
# number of rings (size 3 to 8) (size 9 to 14) (size 15 to 20)
#    0.000    0.667    1.667    3.500    9.333    8.000 
#    0.000    0.000    0.000    0.000    0.000    0.000 
#    0.000    0.000    0.000    0.000    0.000    0.000 
#
# Total GULP energy -134192.217424 kJ/mol
# GULP energy per Si atom -5591.342393 kJ/mol
# Density = 2.298496 g / cm^3
# Si number density = 23.037397 Si / 1000 Ang^3
#
#
#
# Elastic Constant Matrix: (Units=GPa)
#
#
# Indices 1 2 3 4 5 6 
#
# 1 106.5097 83.3668 51.2111 0.0000 15.8954 0.0001
# 2 83.3668 155.0830 78.4590 -0.0001 12.9632 0.0007
# 3 51.2111 78.4590 158.5099 0.0000 16.3425 0.0000
# 4 0.0000 -0.0001 0.0000 34.7362 -0.0001 2.8478
# 5 15.8954 12.9632 16.3425 -0.0001 28.8836 0.0000
# 6 0.0001 0.0007 0.0000 2.8478 0.0000 36.8691
#
#
#
# Elastic Compliance Matrix: (Units=1/GPa)
#
#
# Indices 1 2 3 4 5 6 
#
# 1 0.017086 -0.008310 -0.000873 0.000000 -0.005179 0.000000
# 2 -0.008310 0.012709 -0.003706 0.000000 0.000966 0.000000
# 3 -0.000873 -0.003706 0.008712 0.000000 -0.002786 0.000000
# 4 0.000000 0.000000 0.000000 0.028972 0.000000 -0.002238
# 5 -0.005179 0.000966 -0.002786 0.000000 0.038615 0.000000
# 6 0.000000 0.000000 0.000000 -0.002238 0.000000 0.027296
#
#
# Mechanical properties :
#
#
# Convention : Reuss Voigt Hill
#
# Bulk Modulus (GPa) = 78.55254 94.01960 86.28607
# Shear Modulus (GPa) = 30.59771 33.90217 32.24994
#
# Velocity S-wave (km/s) = 3.64837 3.84032 3.74558
# Velocity P-wave (km/s) = 7.20551 7.78232 7.49946
#
# Compressibility (1/GPa) = 0.01273033
#
# Stress axis : x y z
#
# Youngs Moduli (GPa) = 58.52737 78.68136 114.78237
#
# Poissons Ratio (x) = 0.65387 0.10017
# Poissons Ratio (y) = 0.48638 0.42534
# Poissons Ratio (z) = 0.05108 0.29156
#
# Static dielectric constant tensor:
#      x y z
#    x 2.777210 0.000010 -0.186340 
#    y 0.000010 1.556140 0.000000 
#    z -0.186340 0.000000 1.857330 
# 
# From -- ./inp_files/279033.got.cif
#   From: 2010.05.17/outbox.cif.g08.bks.cpg/sg15_140_cif.got.tgz:279033.got - 2010.06.03 18:47:42.
