data_PCOD9305041
_publ_section_title
;
Structure prediction by ZEFSAII (Michael W. Deem and Ramdas Pophale) SiO2 
 PCOD9305041
Probable space group: C 2/C
;
_chemical_formula_sum "Si O2"
_cell_formula_units_Z 40
_cell_length_a 10.218983
_cell_length_b 19.296821
_cell_length_c 13.372396
_cell_angle_alpha 90.000000
_cell_angle_beta 39.569371
_cell_angle_gamma 90.000000
_cell_volume 1679.771806
_symmetry_space_group_name_H-M "C 2/C"
_symmetry_group_IT_number 15
_symmetry_cell_setting 'monoclinic'
loop_
_space_group_symop_operation_xyz
x,y,z
-x,y,1/2-z
-x,-y,-z
x,-y,1/2+z
1/2+x,1/2+y,z
1/2-x,1/2+y,1/2-z
1/2-x,1/2-y,-z
1/2+x,1/2-y,1/2+z
loop_
_atom_site_type_symbol
_atom_site_label
_atom_site_fract_x
_atom_site_fract_y
_atom_site_fract_z
Si Si1 0.176434 0.319903 0.405750
Si Si2 0.768235 0.824697 0.933301
Si Si3 0.226838 0.532764 0.582221
Si Si4 0.531879 0.573752 0.879384
Si Si5 0.275810 0.826607 0.885990
O O1 0.318166 0.378237 0.273221
O O2 0.254582 0.242390 0.332487
O O3 0.236415 0.318571 0.486785
O O4 0.935316 0.327593 0.520169
O O5 0.000000 0.828478 0.750000
O O6 0.750000 0.750000 0.000000
O O7 0.736696 0.891688 0.024214
O O8 0.326339 0.529863 0.633159
O O9 0.354921 0.476953 0.440914
O O10 0.000000 0.515357 0.750000
O O11 0.410837 0.624295 0.026885
O O12 0.500000 0.857817 0.750000
#
# Coordination Sequence:
#
# PCOD9305041 Si02
#       5
#     8   8   8   8   8
#     4  11  24  44  70 103 144 189 242 303 360 437
#     4  12  28  45  73 107 147 192 248 305 373 441
#     4  11  24  49  74 106 147 194 242 305 378 443
#     4  11  24  45  75 103 149 192 243 302 367 451
#     4  11  24  41  71 103 141 189 244 296 367 426
#
# _framework density 23.812760000000001
#
# number of rings (size 3 to 8) (size 9 to 14) (size 15 to 20)
#    0.000    0.800    2.000    5.400    8.400    1.600 
#    0.000    2.000    0.000    0.000    0.000    0.000 
#    0.000    0.000    0.000    0.000    0.000    0.000 
#
# Total GULP energy -111510.434854 kJ/mol
# GULP energy per Si atom -5575.521743 kJ/mol
# Density = 2.375856 g / cm^3
# Si number density = 23.812760 Si / 1000 Ang^3
#
#
#
# Elastic Constant Matrix: (Units=GPa)
#
#
# Indices 1 2 3 4 5 6 
#
# 1 68.4471 31.9009 43.8150 0.0000 -37.8047 -0.0001
# 2 31.9009 172.4186 75.0811 0.0000 -0.7117 -0.0001
# 3 43.8150 75.0811 187.1521 0.0002 -41.6876 0.0001
# 4 0.0000 0.0000 0.0002 40.5044 0.0002 2.9090
# 5 -37.8047 -0.7117 -41.6876 0.0002 45.0573 0.0001
# 6 -0.0001 -0.0001 0.0001 2.9090 0.0001 12.1154
#
#
#
# Elastic Compliance Matrix: (Units=1/GPa)
#
#
# Indices 1 2 3 4 5 6 
#
# 1 0.032409 -0.006446 0.001301 0.000000 0.028294 0.000000
# 2 -0.006446 0.008682 -0.003965 0.000000 -0.008940 0.000000
# 3 0.001301 -0.003965 0.008639 0.000000 0.009022 0.000000
# 4 0.000000 0.000000 0.000000 0.025122 0.000000 -0.006032
# 5 0.028294 -0.008940 0.009022 0.000000 0.054140 0.000000
# 6 0.000000 0.000000 0.000000 -0.006032 0.000000 0.083988
#
#
# Mechanical properties :
#
#
# Convention : Reuss Voigt Hill
#
# Bulk Modulus (GPa) = 31.73674 81.06796 56.40235
# Shear Modulus (GPa) = 20.68649 38.01678 29.35164
#
# Velocity S-wave (km/s) = 2.95059 3.99994 3.51465
# Velocity P-wave (km/s) = 4.99645 7.44651 6.34094
#
# Compressibility (1/GPa) = 0.03150923
#
# Stress axis : x y z
#
# Youngs Moduli (GPa) = 30.85609 115.17597 115.75236
#
# Poissons Ratio (x) = 0.74242 -0.15060
# Poissons Ratio (y) = 0.19890 0.45901
# Poissons Ratio (z) = -0.04015 0.45673
#
# Static dielectric constant tensor:
#      x y z
#    x 1.992810 0.000000 0.019250 
#    y 0.000000 2.066110 0.000000 
#    z 0.019250 0.000000 1.996310 
# 
# From -- ./inp_files/199691.got.cif
#   From: 2010.05.17/outbox.cif.g08.bks.cpg/sg15_100_cif.got.tgz:199691.got - 2010.06.03 18:47:42.
