data_PCOD9305202
_publ_section_title
;
Structure prediction by ZEFSAII (Michael W. Deem and Ramdas Pophale) SiO2 
 PCOD9305202
Probable space group: C 2/C
;
_chemical_formula_sum "Si O2"
_cell_formula_units_Z 28
_cell_length_a 24.167774
_cell_length_b 7.401364
_cell_length_c 24.384670
_cell_angle_alpha 90.000000
_cell_angle_beta 16.832332
_cell_angle_gamma 90.000000
_cell_volume 1263.053690
_symmetry_space_group_name_H-M "C 2/C"
_symmetry_group_IT_number 15
_symmetry_cell_setting 'monoclinic'
loop_
_space_group_symop_operation_xyz
x,y,z
-x,y,1/2-z
-x,-y,-z
x,-y,1/2+z
1/2+x,1/2+y,z
1/2-x,1/2+y,1/2-z
1/2-x,1/2-y,-z
1/2+x,1/2-y,1/2+z
loop_
_atom_site_type_symbol
_atom_site_label
_atom_site_fract_x
_atom_site_fract_y
_atom_site_fract_z
Si Si1 0.000000 0.606589 0.250000
Si Si2 0.483580 0.475001 0.590041
Si Si3 0.599802 0.465954 0.100886
Si Si4 0.680282 0.104109 0.803812
O O1 0.077055 0.747007 0.130490
O O2 0.824457 0.497263 0.392174
O O3 0.505217 0.478529 0.634265
O O4 0.396275 0.286487 0.651081
O O5 0.336419 0.620513 0.704702
O O6 0.691306 0.491343 0.365008
O O7 0.500000 0.541903 0.250000
O O8 0.500000 0.000000 0.000000
#
# Coordination Sequence:
#
# PCOD9305202 Si02
#       4
#     4   8   8   8
#     4   8  18  40  60  98 132 178 214 256 340 400
#     4  11  24  43  69  99 133 178 225 276 333 403
#     4   9  19  39  66  97 129 175 220 268 332 398
#     4  11  24  45  64  97 134 177 223 273 335 389
#
# _framework density 22.168496999999999
#
# number of rings (size 3 to 8) (size 9 to 14) (size 15 to 20)
#    0.857    1.143    2.857    0.000    0.000    6.857 
#    0.000    1.429    0.000    0.000    0.000    0.000 
#    0.000    0.000    0.000    0.000    0.000    0.000 
#
# Total GULP energy -78117.795029 kJ/mol
# GULP energy per Si atom -5579.842502 kJ/mol
# Density = 2.211804 g / cm^3
# Si number density = 22.168497 Si / 1000 Ang^3
#
#
#
# Elastic Constant Matrix: (Units=GPa)
#
#
# Indices 1 2 3 4 5 6 
#
# 1 236.3546 52.9089 75.4395 0.0003 -18.6116 -0.0005
# 2 52.9089 83.0013 35.5796 -0.0342 -13.2111 0.0014
# 3 75.4395 35.5796 147.5760 -0.0473 -5.3542 -0.0034
# 4 0.0003 -0.0342 -0.0473 18.1378 -0.0026 -4.8627
# 5 -18.6116 -13.2111 -5.3542 -0.0026 28.4187 0.0024
# 6 -0.0005 0.0014 -0.0034 -4.8627 0.0024 8.8801
#
#
#
# Elastic Compliance Matrix: (Units=1/GPa)
#
#
# Indices 1 2 3 4 5 6 
#
# 1 0.005632 -0.002274 -0.002251 -0.000012 0.002207 -0.000007
# 2 -0.002274 0.015330 -0.002345 0.000026 0.005195 0.000010
# 3 -0.002251 -0.002345 0.008457 0.000022 -0.000971 0.000016
# 4 -0.000012 0.000026 0.000022 0.064620 0.000011 0.035386
# 5 0.002207 0.005195 -0.000971 0.000011 0.038866 -0.000005
# 6 -0.000007 0.000010 0.000016 0.035386 -0.000005 0.131989
#
#
# Mechanical properties :
#
#
# Convention : Reuss Voigt Hill
#
# Bulk Modulus (GPa) = 63.77854 88.30976 76.04415
# Shear Modulus (GPa) = 17.61430 31.28758 24.45094
#
# Velocity S-wave (km/s) = 2.82186 3.76087 3.32469
# Velocity P-wave (km/s) = 6.28089 7.66688 7.00823
#
# Compressibility (1/GPa) = 0.01567925
#
# Stress axis : x y z
#
# Youngs Moduli (GPa) = 177.55015 65.23289 118.24693
#
# Poissons Ratio (x) = 0.14834 0.26615
# Poissons Ratio (y) = 0.40376 0.27728
# Poissons Ratio (z) = 0.39963 0.15297
#
# Static dielectric constant tensor:
#      x y z
#    x 1.773220 0.000000 0.015190 
#    y 0.000000 1.925830 0.000010 
#    z 0.015190 0.000010 1.850310 
# 
# From -- ./inp_files/279474.got.cif
#   From: 2010.05.17/outbox.cif.g08.bks.cpg/sg15_140_cif.got.tgz:279474.got - 2010.06.03 18:47:42.
