data_PCOD9305117
_publ_section_title
;
Structure prediction by ZEFSAII (Michael W. Deem and Ramdas Pophale) SiO2 
 PCOD9305117
Probable space group: C 2/C
;
_chemical_formula_sum "Si O2"
_cell_formula_units_Z 36
_cell_length_a 15.735525
_cell_length_b 23.291014
_cell_length_c 7.919478
_cell_angle_alpha 90.000000
_cell_angle_beta 145.895093
_cell_angle_gamma 90.000000
_cell_volume 1627.437888
_symmetry_space_group_name_H-M "C 2/C"
_symmetry_group_IT_number 15
_symmetry_cell_setting 'monoclinic'
loop_
_space_group_symop_operation_xyz
x,y,z
-x,y,1/2-z
-x,-y,-z
x,-y,1/2+z
1/2+x,1/2+y,z
1/2-x,1/2+y,1/2-z
1/2-x,1/2-y,-z
1/2+x,1/2-y,1/2+z
loop_
_atom_site_type_symbol
_atom_site_label
_atom_site_fract_x
_atom_site_fract_y
_atom_site_fract_z
Si Si1 0.722994 0.850756 0.713860
Si Si2 0.325294 0.929377 0.416887
Si Si3 0.500000 0.276688 0.250000
Si Si4 0.907283 0.677340 0.849894
Si Si5 0.823854 0.034044 0.487046
O O1 0.688176 0.819343 0.479289
O O2 0.565510 0.852051 0.555265
O O3 0.775619 0.916137 0.776160
O O4 0.853279 0.816881 0.028451
O O5 0.322568 0.865142 0.338897
O O6 0.217502 0.939152 0.400009
O O7 0.500000 0.941270 0.750000
O O8 0.271081 0.976517 0.194000
O O9 0.541848 0.235317 0.474720
O O10 0.000000 0.022148 0.750000
#
# Coordination Sequence:
#
# PCOD9305117 Si02
#       5
#     8   8   4   8   8
#     4  11  24  42  70 100 139 180 226 283 338 407
#     4  12  24  43  71 100 136 181 230 281 333 414
#     4  12  22  46  68  98 142 176 228 284 342 400
#     4  11  24  43  69 103 132 181 234 275 338 406
#     4  12  25  44  67 103 144 177 223 285 349 399
#
# _framework density 22.120660999999998
#
# number of rings (size 3 to 8) (size 9 to 14) (size 15 to 20)
#    0.000    0.444    4.444    4.000    3.111    0.000 
#    0.000    0.000    4.889    0.000    0.000    0.000 
#    0.000    0.000    0.000    0.000    0.000    0.000 
#
# Total GULP energy -100710.009409 kJ/mol
# GULP energy per Si atom -5595.000523 kJ/mol
# Density = 2.207031 g / cm^3
# Si number density = 22.120661 Si / 1000 Ang^3
#
#
#
# Elastic Constant Matrix: (Units=GPa)
#
#
# Indices 1 2 3 4 5 6 
#
# 1 91.7056 6.6773 27.8761 0.0000 -7.1459 0.0000
# 2 6.6773 80.4982 44.8965 0.0000 -1.4423 0.0000
# 3 27.8761 44.8965 85.2228 0.0000 3.5146 0.0000
# 4 0.0000 0.0000 0.0000 87.0945 0.0000 -24.2250
# 5 -7.1459 -1.4423 3.5146 0.0000 32.3657 0.0000
# 6 0.0000 0.0000 0.0000 -24.2250 0.0000 31.9486
#
#
#
# Elastic Compliance Matrix: (Units=1/GPa)
#
#
# Indices 1 2 3 4 5 6 
#
# 1 0.012648 0.001982 -0.005324 0.000000 0.003459 0.000000
# 2 0.001982 0.018007 -0.010232 0.000000 0.002351 0.000000
# 3 -0.005324 -0.010232 0.019018 0.000000 -0.003697 0.000000
# 4 0.000000 0.000000 0.000000 0.014551 0.000000 0.011033
# 5 0.003459 0.002351 -0.003697 0.000000 0.032167 0.000000
# 6 0.000000 0.000000 0.000000 0.011033 0.000000 0.039666
#
#
# Mechanical properties :
#
#
# Convention : Reuss Voigt Hill
#
# Bulk Modulus (GPa) = 44.39301 46.25849 45.32575
# Shear Modulus (GPa) = 29.28914 42.14686 35.71800
#
# Velocity S-wave (km/s) = 3.64271 4.36973 4.02268
# Velocity P-wave (km/s) = 6.14855 6.81298 6.48927
#
# Compressibility (1/GPa) = 0.02252607
#
# Stress axis : x y z
#
# Youngs Moduli (GPa) = 79.06370 55.53444 52.58171
#
# Poissons Ratio (x) = -0.11008 0.27995
# Poissons Ratio (y) = -0.15672 0.53799
# Poissons Ratio (z) = 0.42094 0.56821
#
# Static dielectric constant tensor:
#      x y z
#    x 1.819570 0.000000 -0.057790 
#    y 0.000000 1.827260 0.000000 
#    z -0.057790 0.000000 1.812030 
# 
# From -- ./inp_files/23328.got.cif
#   From: 2010.05.17/outbox.cif.g08.bks.cpg/sg15_12_cif.got.tgz:23328.got - 2010.06.03 18:47:42.
