data_PCOD9305695
_publ_section_title
;
Structure prediction by ZEFSAII (Michael W. Deem and Ramdas Pophale) SiO2 
 PCOD9305695
Probable space group: C 2/C
;
_chemical_formula_sum "Si O2"
_cell_formula_units_Z 24
_cell_length_a 6.252201
_cell_length_b 14.760031
_cell_length_c 14.211335
_cell_angle_alpha 90.000000
_cell_angle_beta 52.503165
_cell_angle_gamma 90.000000
_cell_volume 1040.495342
_symmetry_space_group_name_H-M "C 2/C"
_symmetry_group_IT_number 15
_symmetry_cell_setting 'monoclinic'
loop_
_space_group_symop_operation_xyz
x,y,z
-x,y,1/2-z
-x,-y,-z
x,-y,1/2+z
1/2+x,1/2+y,z
1/2-x,1/2+y,1/2-z
1/2-x,1/2-y,-z
1/2+x,1/2-y,1/2+z
loop_
_atom_site_type_symbol
_atom_site_label
_atom_site_fract_x
_atom_site_fract_y
_atom_site_fract_z
Si Si1 0.500000 0.456249 0.250000
Si Si2 0.189248 0.889780 0.836214
Si Si3 0.418151 0.659307 0.933578
Si Si4 0.500000 0.758311 0.250000
O O1 0.344718 0.522082 0.219665
O O2 0.678158 0.393252 0.133871
O O3 0.500000 0.861157 0.750000
O O4 0.019922 0.809211 0.833833
O O5 0.108326 0.900103 0.965717
O O6 0.728275 0.684705 0.831436
O O7 0.250000 0.750000 0.000000
#
# Coordination Sequence:
#
# PCOD9305695 Si02
#       4
#     4   8   8   4
#     4  11  28  44  70 109 142 186 230 293 358 416
#     4  11  24  47  70 106 146 184 231 289 356 417
#     4  12  24  48  75 102 142 186 240 289 344 419
#     4  11  24  46  74 107 136 186 242 287 344 412
#
# _framework density 23.065937000000002
#
# number of rings (size 3 to 8) (size 9 to 14) (size 15 to 20)
#    0.000    0.667    3.333    4.000    2.333    1.333 
#    0.000    0.000    0.000    0.000    0.000    0.000 
#    0.000    0.000    0.000    0.000    0.000    0.000 
#
# Total GULP energy -67181.741892 kJ/mol
# GULP energy per Si atom -5598.478491 kJ/mol
# Density = 2.301344 g / cm^3
# Si number density = 23.065937 Si / 1000 Ang^3
#
#
#
# Elastic Constant Matrix: (Units=GPa)
#
#
# Indices 1 2 3 4 5 6 
#
# 1 66.2390 38.4503 48.8589 0.0000 16.5791 0.0000
# 2 38.4503 104.0366 54.6436 0.0000 20.6038 0.0000
# 3 48.8589 54.6436 167.9246 0.0000 41.4828 0.0000
# 4 0.0000 0.0000 0.0000 42.8400 0.0000 16.1335
# 5 16.5791 20.6038 41.4828 0.0000 58.7681 0.0000
# 6 0.0000 0.0000 0.0000 16.1335 0.0000 12.6209
#
#
#
# Elastic Compliance Matrix: (Units=1/GPa)
#
#
# Indices 1 2 3 4 5 6 
#
# 1 0.021748 -0.005587 -0.004213 0.000000 -0.001203 0.000000
# 2 -0.005587 0.013170 -0.002312 0.000000 -0.001409 0.000000
# 3 -0.004213 -0.002312 0.009010 0.000000 -0.004361 0.000000
# 4 0.000000 0.000000 0.000000 0.045012 0.000000 -0.057540
# 5 -0.001203 -0.001409 -0.004361 0.000000 0.020928 0.000000
# 6 0.000000 0.000000 0.000000 -0.057540 0.000000 0.152788
#
#
# Mechanical properties :
#
#
# Convention : Reuss Voigt Hill
#
# Bulk Modulus (GPa) = 50.74596 69.12287 59.93441
# Shear Modulus (GPa) = 17.03873 35.92895 26.48384
#
# Velocity S-wave (km/s) = 2.72085 3.95101 3.39216
# Velocity P-wave (km/s) = 5.64967 7.13067 6.43294
#
# Compressibility (1/GPa) = 0.01970600
#
# Stress axis : x y z
#
# Youngs Moduli (GPa) = 45.98043 75.92839 110.98246
#
# Poissons Ratio (x) = 0.42421 0.46752
# Poissons Ratio (y) = 0.25689 0.25659
# Poissons Ratio (z) = 0.19370 0.17554
#
# Static dielectric constant tensor:
#      x y z
#    x 1.825350 0.000000 0.037680 
#    y 0.000000 1.921120 0.000000 
#    z 0.037680 0.000000 1.815930 
# 
# From -- ./inp_files/71265.got.cif
#   From: 2010.05.17/outbox.cif.g08.bks.cpg/sg15_36_cif.got.tgz:71265.got - 2010.06.03 18:47:42.
