data_PCOD9305493
_publ_section_title
;
Structure prediction by ZEFSAII (Michael W. Deem and Ramdas Pophale) SiO2 
 PCOD9305493
Probable space group: C 2/C
;
_chemical_formula_sum "Si O2"
_cell_formula_units_Z 48
_cell_length_a 14.635569
_cell_length_b 13.454008
_cell_length_c 13.210731
_cell_angle_alpha 90.000000
_cell_angle_beta 61.154261
_cell_angle_gamma 90.000000
_cell_volume 2278.523369
_symmetry_space_group_name_H-M "C 2/C"
_symmetry_group_IT_number 15
_symmetry_cell_setting 'monoclinic'
loop_
_space_group_symop_operation_xyz
x,y,z
-x,y,1/2-z
-x,-y,-z
x,-y,1/2+z
1/2+x,1/2+y,z
1/2-x,1/2+y,1/2-z
1/2-x,1/2-y,-z
1/2+x,1/2-y,1/2+z
loop_
_atom_site_type_symbol
_atom_site_label
_atom_site_fract_x
_atom_site_fract_y
_atom_site_fract_z
Si Si1 0.639431 0.796680 0.801384
Si Si2 0.660355 0.820437 0.255884
Si Si3 0.073404 0.997752 0.058115
Si Si4 0.942988 0.598836 0.490171
Si Si5 0.687895 0.974262 0.633758
Si Si6 0.500000 0.333104 0.250000
Si Si7 0.000000 0.835021 0.750000
O O1 0.725836 0.730153 0.809450
O O2 0.536556 0.823780 0.919754
O O3 0.683594 0.898964 0.731296
O O4 0.596570 0.733734 0.730485
O O5 0.633768 0.857158 0.383800
O O6 0.580485 0.736093 0.264185
O O7 0.650740 0.917353 0.190315
O O8 0.055727 0.093442 0.138760
O O9 0.035083 0.903027 0.140969
O O10 0.193642 0.985649 0.965378
O O11 0.000000 0.000000 0.000000
O O12 0.883344 0.569034 0.418751
O O13 0.000000 0.500000 0.500000
#
# Coordination Sequence:
#
# PCOD9305493 Si02
#       7
#     8   8   8   8   8   4   4
#     4  12  26  45  74 107 142 191 245 293 360 434
#     4  12  28  46  74 107 145 190 246 295 366 428
#     4  11  26  46  71 102 148 187 237 303 364 422
#     4  12  26  47  75 103 150 190 236 304 362 426
#     4  12  26  47  72 107 144 189 242 300 356 435
#     4  11  24  45  70 104 140 185 242 291 354 436
#     4  11  28  47  70 108 144 187 246 299 360 438
#
# _framework density 21.066275000000001
#
# number of rings (size 3 to 8) (size 9 to 14) (size 15 to 20)
#    0.000    0.333    3.333    4.000    9.333    4.667 
#    0.000    0.000    0.000    0.000    0.000    0.000 
#    0.000    0.000    0.000    0.000    0.000    0.000 
#
# Total GULP energy -134376.764287 kJ/mol
# GULP energy per Si atom -5599.031845 kJ/mol
# Density = 2.101833 g / cm^3
# Si number density = 21.066275 Si / 1000 Ang^3
#
#
#
# Elastic Constant Matrix: (Units=GPa)
#
#
# Indices 1 2 3 4 5 6 
#
# 1 82.6208 23.3889 17.5801 0.0000 -11.8962 0.0000
# 2 23.3889 118.1623 27.4703 0.0000 -6.7220 0.0000
# 3 17.5801 27.4703 99.6187 0.0000 -17.0555 0.0000
# 4 0.0000 0.0000 0.0000 2.0355 0.0000 18.0180
# 5 -11.8962 -6.7220 -17.0555 0.0000 33.1720 0.0000
# 6 0.0000 0.0000 0.0000 18.0180 0.0000 -18.6135
#
#
#
# Elastic Compliance Matrix: (Units=1/GPa)
#
#
# Indices 1 2 3 4 5 6 
#
# 1 0.013515 -0.002196 -0.001125 0.000000 0.003823 0.000000
# 2 -0.002196 0.009411 -0.002210 0.000000 -0.000017 0.000000
# 3 -0.001125 -0.002210 0.011733 0.000000 0.005181 0.000000
# 4 0.000000 0.000000 0.000000 0.051343 0.000000 0.049700
# 5 0.003823 -0.000017 0.005181 0.000000 0.034178 0.000000
# 6 0.000000 0.000000 0.000000 0.049700 0.000000 -0.005615
#
#
# Mechanical properties :
#
#
# Convention : Reuss Voigt Hill
#
# Bulk Modulus (GPa) = 42.37957 48.58671 45.48314
# Shear Modulus (GPa) = 37.45516 18.78296 28.11906
#
# Velocity S-wave (km/s) = 4.22117 2.98923 3.65744
# Velocity P-wave (km/s) = 6.62711 5.91843 6.28277
#
# Compressibility (1/GPa) = 0.02359627
#
# Stress axis : x y z
#
# Youngs Moduli (GPa) = 73.99154 106.26403 85.22671
#
# Poissons Ratio (x) = 0.23337 0.09587
# Poissons Ratio (y) = 0.16250 0.18838
# Poissons Ratio (z) = 0.08323 0.23488
#
# Static dielectric constant tensor:
#      x y z
#    x 1.743440 0.000000 -0.033840 
#    y 0.000000 1.755620 0.000000 
#    z -0.033840 0.000000 1.812950 
# 
# From -- ./inp_files/152520.got.cif
#   From: 2010.05.17/outbox.cif.g08.bks.cpg/sg15_77_cif.got.tgz:152520.got - 2010.06.03 18:47:42.
