data_PCOD9305789
_publ_section_title
;
Structure prediction by ZEFSAII (Michael W. Deem and Ramdas Pophale) SiO2 
 PCOD9305789
Probable space group: C 2/C
;
_chemical_formula_sum "Si O2"
_cell_formula_units_Z 48
_cell_length_a 5.209679
_cell_length_b 27.937972
_cell_length_c 15.572976
_cell_angle_alpha 90.000000
_cell_angle_beta 57.453721
_cell_angle_gamma 90.000000
_cell_volume 1910.658066
_symmetry_space_group_name_H-M "C 2/C"
_symmetry_group_IT_number 15
_symmetry_cell_setting 'monoclinic'
loop_
_space_group_symop_operation_xyz
x,y,z
-x,y,1/2-z
-x,-y,-z
x,-y,1/2+z
1/2+x,1/2+y,z
1/2-x,1/2+y,1/2-z
1/2-x,1/2-y,-z
1/2+x,1/2-y,1/2+z
loop_
_atom_site_type_symbol
_atom_site_label
_atom_site_fract_x
_atom_site_fract_y
_atom_site_fract_z
Si Si1 0.155510 0.445214 0.628592
Si Si2 0.585497 0.124348 0.454576
Si Si3 0.500000 0.352831 0.250000
Si Si4 0.000000 0.845028 0.750000
Si Si5 0.000000 0.285112 0.750000
Si Si6 0.203968 0.283574 0.426389
Si Si7 0.000000 0.414947 0.250000
Si Si8 0.320088 0.961790 0.446700
O O1 0.500976 0.462879 0.554948
O O2 0.004424 0.487783 0.596372
O O3 0.000000 0.444132 0.750000
O O4 0.128876 0.394409 0.584507
O O5 0.912750 0.124087 0.348612
O O6 0.548851 0.177122 0.502392
O O7 0.528564 0.083539 0.534169
O O8 0.453190 0.320185 0.343532
O O9 0.782805 0.383733 0.229318
O O10 0.301803 0.814848 0.717680
O O11 0.729423 0.254372 0.844109
O O12 0.250000 0.250000 0.500000
O O13 0.792593 0.445697 0.351764
#
# Coordination Sequence:
#
# PCOD9305789 Si02
#       8
#     8   8   4   4   4   8   4   8
#     4  11  25  47  73 110 154 199 254 316 388 464
#     4  12  25  46  74 108 145 205 246 318 376 466
#     4  11  26  46  75 111 146 197 253 310 382 455
#     4  12  28  47  79 105 152 193 253 309 380 452
#     4  11  28  50  69 115 140 199 251 312 376 447
#     4  11  24  47  72 104 149 195 250 315 375 450
#     4  12  24  49  77 113 148 199 253 313 378 456
#     4  11  25  45  74 112 152 198 257 313 388 463
#
# _framework density 25.122235
#
# number of rings (size 3 to 8) (size 9 to 14) (size 15 to 20)
#    0.000    0.667    4.167    2.500    3.500    4.667 
#    3.000    0.000    0.000    0.000    0.000    0.000 
#    0.000    0.000    0.000    0.000    0.000    0.000 
#
# Total GULP energy -133701.785699 kJ/mol
# GULP energy per Si atom -5570.907737 kJ/mol
# Density = 2.506506 g / cm^3
# Si number density = 25.122235 Si / 1000 Ang^3
#
#
#
# Elastic Constant Matrix: (Units=GPa)
#
#
# Indices 1 2 3 4 5 6 
#
# 1 78.1627 30.8081 25.2824 0.0000 2.8441 0.0000
# 2 30.8081 121.6278 52.0177 0.0000 8.7372 0.0000
# 3 25.2824 52.0177 201.8455 0.0000 0.6101 0.0000
# 4 0.0000 0.0000 0.0000 70.7716 0.0000 -6.1676
# 5 2.8441 8.7372 0.6101 0.0000 25.0981 0.0000
# 6 0.0000 0.0000 0.0000 -6.1676 0.0000 10.2526
#
#
#
# Elastic Compliance Matrix: (Units=1/GPa)
#
#
# Indices 1 2 3 4 5 6 
#
# 1 0.014386 -0.003190 -0.000978 0.000000 -0.000496 0.000000
# 2 -0.003190 0.010205 -0.002221 0.000000 -0.003137 0.000000
# 3 -0.000978 -0.002221 0.005647 0.000000 0.000747 0.000000
# 4 0.000000 0.000000 0.000000 0.014912 0.000000 0.008970
# 5 -0.000496 -0.003137 0.000747 0.000000 0.040974 0.000000
# 6 0.000000 0.000000 0.000000 0.008970 0.000000 0.102933
#
#
# Mechanical properties :
#
#
# Convention : Reuss Voigt Hill
#
# Bulk Modulus (GPa) = 57.27575 68.65027 62.96301
# Shear Modulus (GPa) = 24.07855 40.79298 32.43576
#
# Velocity S-wave (km/s) = 3.09925 4.03399 3.59711
# Velocity P-wave (km/s) = 5.97122 7.00594 6.50917
#
# Compressibility (1/GPa) = 0.01745940
#
# Stress axis : x y z
#
# Youngs Moduli (GPa) = 69.51400 97.99150 177.08770
#
# Poissons Ratio (x) = 0.31257 0.17325
# Poissons Ratio (y) = 0.22174 0.39329
# Poissons Ratio (z) = 0.06801 0.21763
#
# Static dielectric constant tensor:
#      x y z
#    x 2.122850 0.000000 0.033630 
#    y 0.000000 2.149700 0.000000 
#    z 0.033630 0.000000 2.047310 
# 
# From -- ./inp_files/130663.got.cif
#   From: 2010.05.17/outbox.cif.g08.bks.cpg/sg15_66_cif.got.tgz:130663.got - 2010.06.03 18:47:42.
