data_PCOD9305123
_publ_section_title
;
Structure prediction by ZEFSAII (Michael W. Deem and Ramdas Pophale) SiO2 
 PCOD9305123
Probable space group: C 2/C
;
_chemical_formula_sum "Si O2"
_cell_formula_units_Z 32
_cell_length_a 25.407572
_cell_length_b 4.667370
_cell_length_c 9.943873
_cell_angle_alpha 90.000000
_cell_angle_beta 76.432033
_cell_angle_gamma 90.000000
_cell_volume 1146.300476
_symmetry_space_group_name_H-M "C 2/C"
_symmetry_group_IT_number 15
_symmetry_cell_setting 'monoclinic'
loop_
_space_group_symop_operation_xyz
x,y,z
-x,y,1/2-z
-x,-y,-z
x,-y,1/2+z
1/2+x,1/2+y,z
1/2-x,1/2+y,1/2-z
1/2-x,1/2-y,-z
1/2+x,1/2-y,1/2+z
loop_
_atom_site_type_symbol
_atom_site_label
_atom_site_fract_x
_atom_site_fract_y
_atom_site_fract_z
Si Si1 0.967612 0.814759 0.631613
Si Si2 0.383612 0.052559 0.031988
Si Si3 0.214504 0.267278 0.250749
Si Si4 0.871191 0.944852 0.361889
O O1 0.938131 0.557915 0.569143
O O2 0.918693 0.990389 0.729735
O O3 0.000000 0.726352 0.750000
O O4 0.000000 0.000000 0.500000
O O5 0.331673 0.944968 0.144591
O O6 0.375552 0.885553 0.895699
O O7 0.382687 0.381319 0.991675
O O8 0.255048 0.520102 0.181273
O O9 0.184669 0.072595 0.158380
#
# Coordination Sequence:
#
# PCOD9305123 Si02
#       4
#     8   8   8   8
#     4  11  24  50  76 111 147 201 247 313 371 446
#     4  11  25  46  71 107 148 194 251 307 368 448
#     4  11  24  42  70 108 146 196 245 303 374 440
#     4  11  25  46  72 106 149 194 249 309 367 449
#
# _framework density 27.915893000000001
#
# number of rings (size 3 to 8) (size 9 to 14) (size 15 to 20)
#    0.000    1.000    2.500    3.000    0.000   13.000 
#    4.500    0.000    0.000    0.000    0.000    0.000 
#    0.000    0.000    0.000    0.000    0.000    0.000 
#
# Total GULP energy -89782.301735 kJ/mol
# GULP energy per Si atom -5611.393858 kJ/mol
# Density = 2.785236 g / cm^3
# Si number density = 27.915893 Si / 1000 Ang^3
#
#
#
# Elastic Constant Matrix: (Units=GPa)
#
#
# Indices 1 2 3 4 5 6 
#
# 1 158.7341 41.0859 65.4221 0.0000 8.2315 0.0000
# 2 41.0859 117.2827 22.0680 0.0000 -2.3081 0.0000
# 3 65.4221 22.0680 128.9170 0.0000 5.3259 0.0000
# 4 0.0000 0.0000 0.0000 57.1151 0.0000 6.7970
# 5 8.2315 -2.3081 5.3259 0.0000 40.1894 0.0000
# 6 0.0000 0.0000 0.0000 6.7970 0.0000 43.6617
#
#
#
# Elastic Compliance Matrix: (Units=1/GPa)
#
#
# Indices 1 2 3 4 5 6 
#
# 1 0.008573 -0.002296 -0.003901 0.000000 -0.001371 0.000000
# 2 -0.002296 0.009445 -0.000496 0.000000 0.001079 0.000000
# 3 -0.003901 -0.000496 0.009844 0.000000 -0.000534 0.000000
# 4 0.000000 0.000000 0.000000 0.017839 0.000000 -0.002777
# 5 -0.001371 0.001079 -0.000534 0.000000 0.025296 0.000000
# 6 0.000000 0.000000 0.000000 -0.002777 0.000000 0.023336
#
#
# Mechanical properties :
#
#
# Convention : Reuss Voigt Hill
#
# Bulk Modulus (GPa) = 69.08268 73.56508 71.32388
# Shear Modulus (GPa) = 44.42711 46.61711 45.52211
#
# Velocity S-wave (km/s) = 3.99364 4.09089 4.04256
# Velocity P-wave (km/s) = 6.78719 6.98022 6.88438
#
# Compressibility (1/GPa) = 0.01447541
#
# Stress axis : x y z
#
# Youngs Moduli (GPa) = 116.64505 105.87173 101.58974
#
# Poissons Ratio (x) = 0.24311 0.39629
# Poissons Ratio (y) = 0.26784 0.05040
# Poissons Ratio (z) = 0.45502 0.05253
#
# Static dielectric constant tensor:
#      x y z
#    x 2.242730 0.000000 0.026720 
#    y 0.000000 2.071740 0.000000 
#    z 0.026720 0.000000 2.173770 
# 
# From -- ./inp_files/115335.got.cif
#   From: 2010.05.17/outbox.cif.g08.bks.cpg/sg15_58_cif.got.tgz:115335.got - 2010.06.03 18:47:42.
