data_PCOD9305414
_publ_section_title
;
Structure prediction by ZEFSAII (Michael W. Deem and Ramdas Pophale) SiO2 
 PCOD9305414
Probable space group: C 2/C
;
_chemical_formula_sum "Si O2"
_cell_formula_units_Z 36
_cell_length_a 18.701584
_cell_length_b 5.379324
_cell_length_c 24.709259
_cell_angle_alpha 90.000000
_cell_angle_beta 143.582051
_cell_angle_gamma 90.000000
_cell_volume 1475.746140
_symmetry_space_group_name_H-M "C 2/C"
_symmetry_group_IT_number 15
_symmetry_cell_setting 'monoclinic'
loop_
_space_group_symop_operation_xyz
x,y,z
-x,y,1/2-z
-x,-y,-z
x,-y,1/2+z
1/2+x,1/2+y,z
1/2-x,1/2+y,1/2-z
1/2-x,1/2-y,-z
1/2+x,1/2-y,1/2+z
loop_
_atom_site_type_symbol
_atom_site_label
_atom_site_fract_x
_atom_site_fract_y
_atom_site_fract_z
Si Si1 0.269055 0.001284 0.046342
Si Si2 0.111048 0.166807 0.637403
Si Si3 0.500000 0.125840 0.750000
Si Si4 0.671661 0.548125 0.280912
Si Si5 0.372701 0.711347 0.447257
O O1 0.401467 0.014533 0.153925
O O2 0.173265 0.007305 0.037431
O O3 0.250000 0.750000 0.000000
O O4 0.250000 0.250000 0.000000
O O5 0.238399 0.286802 0.700630
O O6 0.996204 0.319408 0.546263
O O7 0.104386 0.124841 0.696918
O O8 0.105625 0.917150 0.597557
O O9 0.420994 0.293589 0.741820
O O10 0.762494 0.398485 0.374361
#
# Coordination Sequence:
#
# PCOD9305414 Si02
#       5
#     8   8   4   8   8
#     4  12  28  50  76 114 161 209 265 325 405 473
#     4  11  24  44  74 108 149 203 263 319 399 466
#     4  12  28  50  80 114 162 204 266 334 406 482
#     4  12  24  49  76 116 154 207 266 329 400 481
#     4  11  25  45  73 105 153 201 264 329 386 475
#
# _framework density 24.394441
#
# number of rings (size 3 to 8) (size 9 to 14) (size 15 to 20)
#    0.000    0.444    4.444    3.333    0.000    7.111 
#    0.000    0.000    0.000    0.000    0.000    0.000 
#    0.000    0.000    0.000    0.000    0.000    0.000 
#
# Total GULP energy -100905.834024 kJ/mol
# GULP energy per Si atom -5605.879668 kJ/mol
# Density = 2.433892 g / cm^3
# Si number density = 24.394441 Si / 1000 Ang^3
#
#
#
# Elastic Constant Matrix: (Units=GPa)
#
#
# Indices 1 2 3 4 5 6 
#
# 1 120.1234 39.9432 61.3854 0.0000 -1.5391 -0.0006
# 2 39.9432 87.8410 47.8554 -0.0015 -9.5413 0.0077
# 3 61.3854 47.8554 197.6966 0.0005 -0.7104 -0.0004
# 4 0.0000 -0.0015 0.0005 54.3536 0.0000 -1.1346
# 5 -1.5391 -9.5413 -0.7104 0.0000 34.2146 -0.0004
# 6 -0.0006 0.0077 -0.0004 -1.1346 -0.0004 17.3290
#
#
#
# Elastic Compliance Matrix: (Units=1/GPa)
#
#
# Indices 1 2 3 4 5 6 
#
# 1 0.010785 -0.003618 -0.002475 0.000000 -0.000575 0.000002
# 2 -0.003618 0.014784 -0.002441 0.000000 0.003909 -0.000007
# 3 -0.002475 -0.002441 0.006415 0.000000 -0.000659 0.000001
# 4 0.000000 0.000000 0.000000 0.018423 0.000000 0.001206
# 5 -0.000575 0.003909 -0.000659 0.000000 0.030278 -0.000001
# 6 0.000002 -0.000007 0.000001 0.001206 -0.000001 0.057786
#
#
# Mechanical properties :
#
#
# Convention : Reuss Voigt Hill
#
# Bulk Modulus (GPa) = 67.04400 78.22545 72.63472
# Shear Modulus (GPa) = 31.15016 38.27792 34.71404
#
# Velocity S-wave (km/s) = 3.57730 3.96552 3.77640
# Velocity P-wave (km/s) = 6.67875 7.28722 6.98961
#
# Compressibility (1/GPa) = 0.01491558
#
# Stress axis : x y z
#
# Youngs Moduli (GPa) = 92.71788 67.64005 155.87687
#
# Poissons Ratio (x) = 0.24475 0.38581
# Poissons Ratio (y) = 0.33549 0.38052
# Poissons Ratio (z) = 0.22948 0.16512
#
# Static dielectric constant tensor:
#      x y z
#    x 1.873220 0.000000 -0.010870 
#    y 0.000000 1.983270 0.000000 
#    z -0.010870 0.000000 1.954360 
# 
# From -- ./inp_files/165043.got.cif
#   From: 2010.05.17/outbox.cif.g08.bks.cpg/sg15_83_cif.got.tgz:165043.got - 2010.06.03 18:47:42.
