data_PCOD9305629
_publ_section_title
;
Structure prediction by ZEFSAII (Michael W. Deem and Ramdas Pophale) SiO2 
 PCOD9305629
Probable space group: C 2/C
;
_chemical_formula_sum "Si O2"
_cell_formula_units_Z 64
_cell_length_a 18.015796
_cell_length_b 21.867852
_cell_length_c 21.257608
_cell_angle_alpha 90.000000
_cell_angle_beta 159.366443
_cell_angle_gamma 90.000000
_cell_volume 2951.191075
_symmetry_space_group_name_H-M "C 2/C"
_symmetry_group_IT_number 15
_symmetry_cell_setting 'monoclinic'
loop_
_space_group_symop_operation_xyz
x,y,z
-x,y,1/2-z
-x,-y,-z
x,-y,1/2+z
1/2+x,1/2+y,z
1/2-x,1/2+y,1/2-z
1/2-x,1/2-y,-z
1/2+x,1/2-y,1/2+z
loop_
_atom_site_type_symbol
_atom_site_label
_atom_site_fract_x
_atom_site_fract_y
_atom_site_fract_z
Si Si1 0.759551 0.687246 0.545147
Si Si2 0.771159 0.081209 0.072759
Si Si3 0.594289 0.415656 0.585771
Si Si4 0.617828 0.703991 0.571800
Si Si5 0.490156 0.841049 0.033573
Si Si6 0.939784 0.009800 0.846207
Si Si7 0.579528 0.069426 0.491570
Si Si8 0.322255 0.961287 0.559838
O O1 0.750000 0.750000 0.500000
O O2 0.681561 0.634324 0.439288
O O3 0.643093 0.694736 0.517688
O O4 0.000000 0.672802 0.750000
O O5 0.000000 0.048732 0.250000
O O6 0.670059 0.116454 0.052442
O O7 0.621640 0.028507 0.925406
O O8 0.569577 0.342948 0.559153
O O9 0.513324 0.442733 0.588316
O O10 0.462007 0.447025 0.425160
O O11 0.835376 0.438891 0.778272
O O12 0.599433 0.776834 0.563937
O O13 0.822137 0.678610 0.770380
O O14 0.573316 0.878528 0.039677
O O15 0.714823 0.015980 0.633137
O O16 0.114700 0.032737 0.936901
O O17 0.691176 0.080382 0.512990
O O18 0.500000 0.941698 0.750000
#
# Coordination Sequence:
#
# PCOD9305629 Si02
#       8
#     8   8   8   8   8   8   8   8
#     4  12  22  38  60  90 133 187 229 273 328 406
#     4  12  27  40  62 101 140 186 237 278 341 422
#     4  11  25  42  74 102 144 179 236 289 343 429
#     4  12  24  46  63 102 138 186 239 284 352 409
#     4  12  28  42  70  97 139 190 235 296 343 420
#     4  11  24  46  70 108 137 184 228 291 359 412
#     4  12  26  46  70 103 137 185 236 288 355 417
#     4  12  27  46  71 102 140 182 231 293 360 422
#
# _framework density 21.686159
#
# number of rings (size 3 to 8) (size 9 to 14) (size 15 to 20)
#    0.000    0.250    5.000    3.750   10.500    0.000 
#    0.000    0.000    0.000    0.750    3.250    0.000 
#    0.000    0.000    0.000    0.000    0.000    0.000 
#
# Total GULP energy -178811.197427 kJ/mol
# GULP energy per Si atom -5587.849920 kJ/mol
# Density = 2.163680 g / cm^3
# Si number density = 21.686159 Si / 1000 Ang^3
#
#
#
# Elastic Constant Matrix: (Units=GPa)
#
#
# Indices 1 2 3 4 5 6 
#
# 1 141.6934 43.1989 29.2004 -0.0181 -12.6213 -0.0088
# 2 43.1989 91.4180 10.5042 -0.0423 -6.6925 -0.0777
# 3 29.2004 10.5042 111.3348 -0.1109 -11.7062 -0.1169
# 4 -0.0181 -0.0423 -0.1109 39.5641 -0.0007 -14.6458
# 5 -12.6213 -6.6925 -11.7062 -0.0007 40.9674 -0.0261
# 6 -0.0088 -0.0777 -0.1169 -14.6458 -0.0261 39.4740
#
#
#
# Elastic Compliance Matrix: (Units=1/GPa)
#
#
# Indices 1 2 3 4 5 6 
#
# 1 0.008720 -0.003803 -0.001764 -0.000010 0.001561 -0.000013
# 2 -0.003803 0.012815 -0.000118 0.000024 0.000888 0.000034
# 3 -0.001764 -0.000118 0.009688 0.000043 0.002205 0.000046
# 4 -0.000010 0.000024 0.000043 0.029300 0.000021 0.010871
# 5 0.001561 0.000888 0.002205 0.000021 0.025666 0.000033
# 6 -0.000013 0.000034 0.000046 0.010871 0.000033 0.029367
#
#
# Mechanical properties :
#
#
# Convention : Reuss Voigt Hill
#
# Bulk Modulus (GPa) = 50.37537 56.69480 53.53509
# Shear Modulus (GPa) = 37.44123 41.43726 39.43925
#
# Velocity S-wave (km/s) = 4.15963 4.37598 4.26917
# Velocity P-wave (km/s) = 6.80806 7.19252 7.00293
#
# Compressibility (1/GPa) = 0.01985097
#
# Stress axis : x y z
#
# Youngs Moduli (GPa) = 114.68359 78.03555 103.22366
#
# Poissons Ratio (x) = 0.29681 0.18209
# Poissons Ratio (y) = 0.43619 0.01219
# Poissons Ratio (z) = 0.20230 0.00921
#
# Static dielectric constant tensor:
#      x y z
#    x 1.790400 -0.000040 0.039420 
#    y -0.000040 1.780440 -0.000040 
#    z 0.039420 -0.000040 1.796520 
# 
# From -- ./inp_files/250302.got.cif
#   From: 2010.05.17/outbox.cif.g08.bks.cpg/sg15_126_cif.got.tgz:250302.got - 2010.06.03 18:47:42.
