data_PCOD9305638
_publ_section_title
;
Structure prediction by ZEFSAII (Michael W. Deem and Ramdas Pophale) SiO2 
 PCOD9305638
Probable space group: C 2/C
;
_chemical_formula_sum "Si O2"
_cell_formula_units_Z 48
_cell_length_a 8.258514
_cell_length_b 14.032792
_cell_length_c 17.802397
_cell_angle_alpha 90.000000
_cell_angle_beta 92.451142
_cell_angle_gamma 90.000000
_cell_volume 2061.232309
_symmetry_space_group_name_H-M "C 2/C"
_symmetry_group_IT_number 15
_symmetry_cell_setting 'monoclinic'
loop_
_space_group_symop_operation_xyz
x,y,z
-x,y,1/2-z
-x,-y,-z
x,-y,1/2+z
1/2+x,1/2+y,z
1/2-x,1/2+y,1/2-z
1/2-x,1/2-y,-z
1/2+x,1/2-y,1/2+z
loop_
_atom_site_type_symbol
_atom_site_label
_atom_site_fract_x
_atom_site_fract_y
_atom_site_fract_z
Si Si1 0.246427 0.795068 0.417337
Si Si2 0.070200 0.684860 0.828272
Si Si3 0.262312 0.381710 0.716504
Si Si4 0.747807 0.959267 0.443521
Si Si5 0.611727 0.492953 0.907598
Si Si6 0.412627 0.118277 0.138063
O O1 0.250000 0.750000 0.500000
O O2 0.416772 0.785763 0.376987
O O3 0.192506 0.903670 0.415248
O O4 0.110868 0.729830 0.376090
O O5 0.167511 0.776648 0.799205
O O6 0.181116 0.619220 0.884151
O O7 0.000000 0.636458 0.750000
O O8 0.376863 0.453648 0.675499
O O9 0.223797 0.402638 0.801747
O O10 0.088933 0.396601 0.673701
O O11 0.785407 0.928966 0.530310
O O12 0.625358 0.048475 0.431769
O O13 0.924915 0.998143 0.425243
#
# Coordination Sequence:
#
# PCOD9305638 Si02
#       6
#     8   8   8   8   8   8
#     4  12  25  45  73 102 139 184 232 293 349 417
#     4  12  27  47  71 104 143 187 235 288 356 423
#     4  11  26  44  72 101 137 186 231 289 352 416
#     4  11  26  45  71 105 139 183 237 288 353 417
#     4  11  26  46  71 104 139 185 235 292 348 415
#     4  11  24  46  71 102 140 178 235 288 351 418
#
# _framework density 23.287040999999999
#
# number of rings (size 3 to 8) (size 9 to 14) (size 15 to 20)
#    0.000    0.667    3.333    3.000    9.333    2.000 
#    0.000    0.000    0.000    0.000    0.000    0.000 
#    0.000    0.000    0.000    0.000    0.000    0.000 
#
# Total GULP energy -134229.015772 kJ/mol
# GULP energy per Si atom -5592.875657 kJ/mol
# Density = 2.323404 g / cm^3
# Si number density = 23.287041 Si / 1000 Ang^3
#
#
#
# Elastic Constant Matrix: (Units=GPa)
#
#
# Indices 1 2 3 4 5 6 
#
# 1 84.7173 -3.8402 15.7274 0.0000 7.1640 0.0000
# 2 -3.8402 57.7019 7.1149 0.0000 16.1137 0.0000
# 3 15.7274 7.1149 109.5731 0.0000 6.8665 0.0000
# 4 0.0000 0.0000 0.0000 28.5394 0.0000 0.8254
# 5 7.1640 16.1137 6.8665 0.0000 34.0104 0.0000
# 6 0.0000 0.0000 0.0000 0.8254 0.0000 31.5133
#
#
#
# Elastic Compliance Matrix: (Units=1/GPa)
#
#
# Indices 1 2 3 4 5 6 
#
# 1 0.012481 0.001936 -0.001717 0.000000 -0.003200 0.000000
# 2 0.001936 0.020328 -0.000981 0.000000 -0.009841 0.000000
# 3 -0.001717 -0.000981 0.009505 0.000000 -0.001093 0.000000
# 4 0.000000 0.000000 0.000000 0.035066 0.000000 -0.000918
# 5 -0.003200 -0.009841 -0.001093 0.000000 0.034960 0.000000
# 6 0.000000 0.000000 0.000000 -0.000918 0.000000 0.031757
#
#
# Mechanical properties :
#
#
# Convention : Reuss Voigt Hill
#
# Bulk Modulus (GPa) = 24.51560 32.22185 28.36873
# Shear Modulus (GPa) = 31.40359 34.34529 32.87444
#
# Velocity S-wave (km/s) = 3.67624 3.84457 3.76134
# Velocity P-wave (km/s) = 5.34510 5.79435 5.57425
#
# Compressibility (1/GPa) = 0.04079036
#
# Stress axis : x y z
#
# Youngs Moduli (GPa) = 80.12203 49.19214 105.20891
#
# Poissons Ratio (x) = -0.09523 0.18061
# Poissons Ratio (y) = -0.15510 0.10323
# Poissons Ratio (z) = 0.13754 0.04826
#
# Static dielectric constant tensor:
#      x y z
#    x 1.847600 0.000000 -0.010010 
#    y 0.000000 1.873150 0.000000 
#    z -0.010010 0.000000 1.923510 
# 
# From -- ./inp_files/189228.got.cif
#   From: 2010.05.17/outbox.cif.g08.bks.cpg/sg15_95_cif.got.tgz:189228.got - 2010.06.03 18:47:42.
