data_PCOD9305630
_publ_section_title
;
Structure prediction by ZEFSAII (Michael W. Deem and Ramdas Pophale) SiO2 
 PCOD9305630
Probable space group: C 2/C
;
_chemical_formula_sum "Si O2"
_cell_formula_units_Z 48
_cell_length_a 28.373902
_cell_length_b 14.805498
_cell_length_c 12.895778
_cell_angle_alpha 90.000000
_cell_angle_beta 159.502869
_cell_angle_gamma 90.000000
_cell_volume 1896.953824
_symmetry_space_group_name_H-M "C 2/C"
_symmetry_group_IT_number 15
_symmetry_cell_setting 'monoclinic'
loop_
_space_group_symop_operation_xyz
x,y,z
-x,y,1/2-z
-x,-y,-z
x,-y,1/2+z
1/2+x,1/2+y,z
1/2-x,1/2+y,1/2-z
1/2-x,1/2-y,-z
1/2+x,1/2-y,1/2+z
loop_
_atom_site_type_symbol
_atom_site_label
_atom_site_fract_x
_atom_site_fract_y
_atom_site_fract_z
Si Si1 0.000000 0.472385 0.750000
Si Si2 0.038788 0.411575 0.148403
Si Si3 0.204049 0.684496 0.710526
Si Si4 0.104152 0.899934 0.270563
Si Si5 0.000000 0.823001 0.250000
Si Si6 0.807576 0.912776 0.597090
Si Si7 0.098393 0.231701 0.556664
O O1 0.074481 0.539445 0.827657
O O2 0.886262 0.405584 0.474165
O O3 0.177756 0.376291 0.388115
O O4 0.936175 0.330039 0.963459
O O5 0.000000 0.500000 0.000000
O O6 0.095015 0.759394 0.516996
O O7 0.321826 0.658073 0.032558
O O8 0.262504 0.709628 0.718646
O O9 0.106960 0.870633 0.396097
O O10 0.205535 0.983239 0.466548
O O11 0.111103 0.833683 0.184962
O O12 0.944860 0.924847 0.941925
O O13 0.000000 0.224887 0.250000
#
# Coordination Sequence:
#
# PCOD9305630 Si02
#       7
#     4   8   8   8   4   8   8
#     4  11  24  46  70 109 144 206 250 311 386 438
#     4  12  26  44  73 108 150 201 257 313 382 456
#     4  11  25  46  73 106 151 196 254 318 373 463
#     4  11  27  47  74 112 151 203 253 317 385 461
#     4  11  28  44  74 111 146 200 260 317 378 446
#     4  11  25  48  75 107 153 203 249 317 391 458
#     4  12  26  46  77 113 148 201 257 314 387 453
#
# _framework density 25.303726999999999
#
# number of rings (size 3 to 8) (size 9 to 14) (size 15 to 20)
#    0.000    0.667    4.167    2.000    7.000    6.000 
#    0.000    0.000    0.000    0.000    0.000    0.000 
#    0.000    0.000    0.000    0.000    0.000    0.000 
#
# Total GULP energy -133710.658681 kJ/mol
# GULP energy per Si atom -5571.277445 kJ/mol
# Density = 2.524613 g / cm^3
# Si number density = 25.303727 Si / 1000 Ang^3
#
#
#
# Elastic Constant Matrix: (Units=GPa)
#
#
# Indices 1 2 3 4 5 6 
#
# 1 120.3737 46.1054 8.9850 0.0000 25.0080 0.0000
# 2 46.1054 119.5397 18.7194 0.0000 13.7322 0.0000
# 3 8.9850 18.7194 56.1011 0.0000 0.4642 0.0000
# 4 0.0000 0.0000 0.0000 275.4400 0.0000 -142.5582
# 5 25.0080 13.7322 0.4642 0.0000 35.5253 0.0000
# 6 0.0000 0.0000 0.0000 -142.5582 0.0000 138.1325
#
#
#
# Elastic Compliance Matrix: (Units=1/GPa)
#
#
# Indices 1 2 3 4 5 6 
#
# 1 0.010989 -0.003413 -0.000568 0.000000 -0.006409 0.000000
# 2 -0.003413 0.010310 -0.002881 0.000000 -0.001545 0.000000
# 3 -0.000568 -0.002881 0.018867 0.000000 0.001267 0.000000
# 4 0.000000 0.000000 0.000000 0.007793 0.000000 0.008043
# 5 -0.006409 -0.001545 0.001267 0.000000 0.033241 0.000000
# 6 0.000000 0.000000 0.000000 0.008043 0.000000 0.015540
#
#
# Mechanical properties :
#
#
# Convention : Reuss Voigt Hill
#
# Bulk Modulus (GPa) = 37.81896 49.29270 43.55583
# Shear Modulus (GPa) = 41.91879 104.63318 73.27599
#
# Velocity S-wave (km/s) = 4.07458 6.43744 5.38716
# Velocity P-wave (km/s) = 6.09219 8.64737 7.47969
#
# Compressibility (1/GPa) = 0.02644176
#
# Stress axis : x y z
#
# Youngs Moduli (GPa) = 91.00399 96.98898 53.00335
#
# Poissons Ratio (x) = 0.33103 0.03011
# Poissons Ratio (y) = 0.31060 0.15270
# Poissons Ratio (z) = 0.05169 0.27942
#
# Static dielectric constant tensor:
#      x y z
#    x 5.997260 0.000000 0.130550 
#    y 0.000000 2.059830 0.000000 
#    z 0.130550 0.000000 2.103460 
# 
# From -- ./inp_files/182552.got.cif
#   From: 2010.05.17/outbox.cif.g08.bks.cpg/sg15_92_cif.got.tgz:182552.got - 2010.06.03 18:47:42.
