data_PCOD9305133
_publ_section_title
;
Structure prediction by ZEFSAII (Michael W. Deem and Ramdas Pophale) SiO2 
 PCOD9305133
Probable space group: C 2/C
;
_chemical_formula_sum "Si O2"
_cell_formula_units_Z 44
_cell_length_a 16.813694
_cell_length_b 8.869579
_cell_length_c 15.084085
_cell_angle_alpha 90.000000
_cell_angle_beta 88.816977
_cell_angle_gamma 90.000000
_cell_volume 2249.015945
_symmetry_space_group_name_H-M "C 2/C"
_symmetry_group_IT_number 15
_symmetry_cell_setting 'monoclinic'
loop_
_space_group_symop_operation_xyz
x,y,z
-x,y,1/2-z
-x,-y,-z
x,-y,1/2+z
1/2+x,1/2+y,z
1/2-x,1/2+y,1/2-z
1/2-x,1/2-y,-z
1/2+x,1/2-y,1/2+z
loop_
_atom_site_type_symbol
_atom_site_label
_atom_site_fract_x
_atom_site_fract_y
_atom_site_fract_z
Si Si1 0.500000 0.527972 0.250000
Si Si2 0.658354 0.218859 0.025917
Si Si3 0.250020 0.805968 0.647030
Si Si4 0.163380 0.111629 0.708958
Si Si5 0.866666 0.634752 0.984661
Si Si6 0.489131 0.346788 0.557083
O O1 0.419796 0.431117 0.243383
O O2 0.492420 0.622198 0.340617
O O3 0.643466 0.297951 0.120180
O O4 0.636361 0.043411 0.031575
O O5 0.750000 0.250000 0.000000
O O6 0.601102 0.294494 0.954910
O O7 0.281590 0.709498 0.728253
O O8 0.186655 0.714462 0.589611
O O9 0.323310 0.838931 0.579459
O O10 0.209424 0.959710 0.680435
O O11 0.951564 0.717298 0.979643
O O12 0.500000 0.500000 0.500000
#
# Coordination Sequence:
#
# PCOD9305133 Si02
#       6
#     4   8   8   8   8   8
#     4  12  26  44  72 102 140 184 236 284 358 418
#     4  12  26  45  71 102 141 185 237 292 354 423
#     4  11  24  42  72 100 140 178 234 287 348 418
#     4  12  25  45  68 106 136 187 234 287 353 425
#     4  11  24  46  69 103 138 187 230 293 354 416
#     4  12  25  48  73 100 142 186 236 291 355 426
#
# _framework density 19.564111
#
# number of rings (size 3 to 8) (size 9 to 14) (size 15 to 20)
#    0.000    0.364    5.455    2.727    7.636    0.000 
#    3.273    0.000    0.000    0.000    0.000    0.000 
#    0.000    0.000    0.000    0.000    0.000    0.000 
#
# Total GULP energy -123092.173706 kJ/mol
# GULP energy per Si atom -5595.098805 kJ/mol
# Density = 1.951958 g / cm^3
# Si number density = 19.564111 Si / 1000 Ang^3
#
#
#
# Elastic Constant Matrix: (Units=GPa)
#
#
# Indices 1 2 3 4 5 6 
#
# 1 110.1549 38.5991 5.0578 0.0000 -1.9723 0.0000
# 2 38.5991 151.7500 38.6409 0.0000 4.8063 0.0000
# 3 5.0578 38.6409 76.4293 0.0000 10.1475 0.0000
# 4 0.0000 0.0000 0.0000 29.1953 0.0000 10.3932
# 5 -1.9723 4.8063 10.1475 0.0000 31.1560 0.0000
# 6 0.0000 0.0000 0.0000 10.3932 0.0000 28.8581
#
#
#
# Elastic Compliance Matrix: (Units=1/GPa)
#
#
# Indices 1 2 3 4 5 6 
#
# 1 0.010022 -0.002730 0.000603 0.000000 0.000859 0.000000
# 2 -0.002730 0.008307 -0.003999 0.000000 -0.000152 0.000000
# 3 0.000603 -0.003999 0.015656 0.000000 -0.004444 0.000000
# 4 0.000000 0.000000 0.000000 0.039289 0.000000 -0.014150
# 5 0.000859 -0.000152 -0.004444 0.000000 0.033622 0.000000
# 6 0.000000 0.000000 0.000000 -0.014150 0.000000 0.039748
#
#
# Mechanical properties :
#
#
# Convention : Reuss Voigt Hill
#
# Bulk Modulus (GPa) = 46.01255 55.88110 50.94683
# Shear Modulus (GPa) = 30.09466 34.91097 32.50282
#
# Velocity S-wave (km/s) = 3.92632 4.22885 4.08039
# Velocity P-wave (km/s) = 6.64263 7.24357 6.94960
#
# Compressibility (1/GPa) = 0.02173320
#
# Stress axis : x y z
#
# Youngs Moduli (GPa) = 99.77594 120.37545 63.87315
#
# Poissons Ratio (x) = 0.32863 -0.03851
# Poissons Ratio (y) = 0.27239 0.25544
# Poissons Ratio (z) = -0.06016 0.48140
#
# Static dielectric constant tensor:
#      x y z
#    x 1.685260 0.000000 -0.003040 
#    y 0.000000 1.669900 0.000000 
#    z -0.003040 0.000000 1.679550 
# 
# From -- ./inp_files/159361.got.cif
#   From: 2010.05.17/outbox.cif.g08.bks.cpg/sg15_80_cif.got.tgz:159361.got - 2010.06.03 18:47:42.
