data_PCOD9305989
_publ_section_title
;
Structure prediction by ZEFSAII (Michael W. Deem and Ramdas Pophale) SiO2 
 PCOD9305989
Probable space group: C 2/C
;
_chemical_formula_sum "Si O2"
_cell_formula_units_Z 24
_cell_length_a 6.805495
_cell_length_b 11.990257
_cell_length_c 9.836194
_cell_angle_alpha 90.000000
_cell_angle_beta 76.700463
_cell_angle_gamma 90.000000
_cell_volume 781.103886
_symmetry_space_group_name_H-M "C 2/C"
_symmetry_group_IT_number 15
_symmetry_cell_setting 'monoclinic'
loop_
_space_group_symop_operation_xyz
x,y,z
-x,y,1/2-z
-x,-y,-z
x,-y,1/2+z
1/2+x,1/2+y,z
1/2-x,1/2+y,1/2-z
1/2-x,1/2-y,-z
1/2+x,1/2-y,1/2+z
loop_
_atom_site_type_symbol
_atom_site_label
_atom_site_fract_x
_atom_site_fract_y
_atom_site_fract_z
Si Si1 0.983672 0.868938 0.469633
Si Si2 0.852153 0.473167 0.145929
Si Si3 0.769265 0.289177 0.741089
O O1 0.181826 0.806907 0.379446
O O2 0.892097 0.798765 0.609473
O O3 0.811064 0.880804 0.377097
O O4 0.000000 0.000000 0.500000
O O5 0.731473 0.588010 0.183110
O O6 0.000000 0.448122 0.250000
O O7 0.000000 0.500000 0.000000
O O8 0.000000 0.310112 0.750000
#
# Coordination Sequence:
#
# PCOD9305989 Si02
#       3
#     8   8   8
#     4  12  29  53  90 128 181 238 292 377 450 523
#     4  11  24  51  84 124 176 230 294 367 444 531
#     4  11  26  50  84 124 178 221 304 360 434 540
#
# _framework density 30.725749
#
# number of rings (size 3 to 8) (size 9 to 14) (size 15 to 20)
#    0.000    0.667    6.667    1.000    4.667    1.333 
#    0.000    5.000    0.000    0.000    0.000    0.000 
#    0.000    0.000    0.000    0.000    0.000    0.000 
#
# Total GULP energy -67164.212319 kJ/mol
# GULP energy per Si atom -5597.017693 kJ/mol
# Density = 3.065582 g / cm^3
# Si number density = 30.725749 Si / 1000 Ang^3
#
#
#
# Elastic Constant Matrix: (Units=GPa)
#
#
# Indices 1 2 3 4 5 6 
#
# 1 194.4432 89.4863 100.6848 0.0000 -13.1845 0.0000
# 2 89.4863 242.5163 100.6256 0.0000 -30.7835 0.0000
# 3 100.6848 100.6256 309.0142 0.0000 -43.2968 0.0000
# 4 0.0000 0.0000 0.0000 36.9857 0.0000 -6.4898
# 5 -13.1845 -30.7835 -43.2968 0.0000 68.4992 0.0000
# 6 0.0000 0.0000 0.0000 -6.4898 0.0000 81.6771
#
#
#
# Elastic Compliance Matrix: (Units=1/GPa)
#
#
# Indices 1 2 3 4 5 6 
#
# 1 0.006857 -0.001902 -0.001700 0.000000 -0.000610 0.000000
# 2 -0.001902 0.005399 -0.000932 0.000000 0.001471 0.000000
# 3 -0.001700 -0.000932 0.004377 0.000000 0.002020 0.000000
# 4 0.000000 0.000000 0.000000 0.027420 0.000000 0.002179
# 5 -0.000610 0.001471 0.002020 0.000000 0.016419 0.000000
# 6 0.000000 0.000000 0.000000 0.002179 0.000000 0.012416
#
#
# Mechanical properties :
#
#
# Convention : Reuss Voigt Hill
#
# Bulk Modulus (GPa) = 132.21295 147.50746 139.86020
# Shear Modulus (GPa) = 59.18626 67.77753 63.48189
#
# Velocity S-wave (km/s) = 4.39370 4.70178 4.55035
# Velocity P-wave (km/s) = 8.29837 8.80839 8.55718
#
# Compressibility (1/GPa) = 0.00756356
#
# Stress axis : x y z
#
# Youngs Moduli (GPa) = 145.82728 185.22589 228.48210
#
# Poissons Ratio (x) = 0.35234 0.38849
# Poissons Ratio (y) = 0.27739 0.21298
# Poissons Ratio (z) = 0.24795 0.17266
#
# Static dielectric constant tensor:
#      x y z
#    x 2.799730 0.000000 0.762970 
#    y 0.000000 2.661810 0.000000 
#    z 0.762970 0.000000 3.221540 
# 
# From -- ./inp_files/74995.got.cif
#   From: 2010.05.17/outbox.cif.g08.bks.cpg/sg15_38_cif.got.tgz:74995.got - 2010.06.03 18:47:42.
