data_PCOD9305409
_publ_section_title
;
Structure prediction by ZEFSAII (Michael W. Deem and Ramdas Pophale) SiO2 
 PCOD9305409
Probable space group: C 2/C
;
_chemical_formula_sum "Si O2"
_cell_formula_units_Z 36
_cell_length_a 9.355002
_cell_length_b 11.764166
_cell_length_c 13.321963
_cell_angle_alpha 90.000000
_cell_angle_beta 93.955752
_cell_angle_gamma 90.000000
_cell_volume 1462.639725
_symmetry_space_group_name_H-M "C 2/C"
_symmetry_group_IT_number 15
_symmetry_cell_setting 'monoclinic'
loop_
_space_group_symop_operation_xyz
x,y,z
-x,y,1/2-z
-x,-y,-z
x,-y,1/2+z
1/2+x,1/2+y,z
1/2-x,1/2+y,1/2-z
1/2-x,1/2-y,-z
1/2+x,1/2-y,1/2+z
loop_
_atom_site_type_symbol
_atom_site_label
_atom_site_fract_x
_atom_site_fract_y
_atom_site_fract_z
Si Si1 0.000000 0.642252 0.250000
Si Si2 0.894724 0.267540 0.446197
Si Si3 0.803423 0.781190 0.720841
Si Si4 0.884085 0.091053 0.031521
Si Si5 0.098628 0.559095 0.893738
O O1 0.132287 0.715794 0.218524
O O2 0.067633 0.557821 0.336209
O O3 0.750000 0.250000 0.500000
O O4 0.863986 0.210785 0.336175
O O5 0.035316 0.206810 0.498057
O O6 0.949760 0.395375 0.433508
O O7 0.849948 0.882233 0.647087
O O8 0.858139 0.660372 0.681915
O O9 0.735335 0.061851 0.972273
O O10 0.000000 0.000000 0.000000
#
# Coordination Sequence:
#
# PCOD9305409 Si02
#       5
#     4   8   8   8   8
#     4  12  26  44  78 104 146 200 240 310 374 446
#     4  11  24  44  74 102 142 194 240 303 375 442
#     4  11  25  45  71 106 146 188 251 302 375 444
#     4  11  25  44  70 106 144 191 247 306 372 455
#     4  11  24  49  68 104 149 185 246 312 363 444
#
# _framework density 24.613033999999999
#
# number of rings (size 3 to 8) (size 9 to 14) (size 15 to 20)
#    0.000    0.889    2.222    6.000    9.333    0.889 
#    0.000    0.000    0.000    0.000    0.000    0.000 
#    0.000    0.000    0.000    0.000    0.000    0.000 
#
# Total GULP energy -100767.989837 kJ/mol
# GULP energy per Si atom -5598.221658 kJ/mol
# Density = 2.455701 g / cm^3
# Si number density = 24.613034 Si / 1000 Ang^3
#
#
#
# Elastic Constant Matrix: (Units=GPa)
#
#
# Indices 1 2 3 4 5 6 
#
# 1 229.0232 32.8433 70.9043 0.0000 -2.8494 0.0000
# 2 32.8433 45.6001 5.8959 0.0000 1.8245 0.0000
# 3 70.9043 5.8959 149.4201 0.0000 17.9469 0.0000
# 4 0.0000 0.0000 0.0000 32.2560 0.0000 1.2119
# 5 -2.8494 1.8245 17.9469 0.0000 47.6009 0.0000
# 6 0.0000 0.0000 0.0000 1.2119 0.0000 48.7292
#
#
#
# Elastic Compliance Matrix: (Units=1/GPa)
#
#
# Indices 1 2 3 4 5 6 
#
# 1 0.005805 -0.003883 -0.002787 0.000000 0.001547 0.000000
# 2 -0.003883 0.024652 0.001059 0.000000 -0.001577 0.000000
# 3 -0.002787 0.001059 0.008378 0.000000 -0.003366 0.000000
# 4 0.000000 0.000000 0.000000 0.031031 0.000000 -0.000772
# 5 0.001547 -0.001577 -0.003366 0.000000 0.022430 0.000000
# 6 0.000000 0.000000 0.000000 -0.000772 0.000000 0.020541
#
#
# Mechanical properties :
#
#
# Convention : Reuss Voigt Hill
#
# Bulk Modulus (GPa) = 36.21436 71.48117 53.84776
# Shear Modulus (GPa) = 37.51937 46.67722 42.09829
#
# Velocity S-wave (km/s) = 3.90855 4.35954 4.14019
# Velocity P-wave (km/s) = 5.92575 7.37874 6.69180
#
# Compressibility (1/GPa) = 0.02761336
#
# Stress axis : x y z
#
# Youngs Moduli (GPa) = 172.25258 40.56385 119.36318
#
# Poissons Ratio (x) = 0.15750 0.33272
# Poissons Ratio (y) = 0.66883 -0.12642
# Poissons Ratio (z) = 0.48015 -0.04296
#
# Static dielectric constant tensor:
#      x y z
#    x 1.924990 0.000000 -0.042440 
#    y 0.000000 2.024560 0.000000 
#    z -0.042440 0.000000 2.056980 
# 
# From -- ./inp_files/132727.got.cif
#   From: 2010.05.17/outbox.cif.g08.bks.cpg/sg15_67_cif.got.tgz:132727.got - 2010.06.03 18:47:42.
