data_PCOD9305498
_publ_section_title
;
Structure prediction by ZEFSAII (Michael W. Deem and Ramdas Pophale) SiO2 
 PCOD9305498
Probable space group: C 2/C
;
_chemical_formula_sum "Si O2"
_cell_formula_units_Z 44
_cell_length_a 13.656963
_cell_length_b 6.671032
_cell_length_c 23.246790
_cell_angle_alpha 90.000000
_cell_angle_beta 66.464807
_cell_angle_gamma 90.000000
_cell_volume 1941.743447
_symmetry_space_group_name_H-M "C 2/C"
_symmetry_group_IT_number 15
_symmetry_cell_setting 'monoclinic'
loop_
_space_group_symop_operation_xyz
x,y,z
-x,y,1/2-z
-x,-y,-z
x,-y,1/2+z
1/2+x,1/2+y,z
1/2-x,1/2+y,1/2-z
1/2-x,1/2-y,-z
1/2+x,1/2-y,1/2+z
loop_
_atom_site_type_symbol
_atom_site_label
_atom_site_fract_x
_atom_site_fract_y
_atom_site_fract_z
Si Si1 0.813604 0.317042 0.812635
Si Si2 0.500000 0.522350 0.750000
Si Si3 0.864339 0.320697 0.228078
Si Si4 0.923862 0.809163 0.015386
Si Si5 0.006246 0.511378 0.404277
Si Si6 0.264016 0.101760 0.443005
O O1 0.850559 0.542368 0.787969
O O2 0.748190 0.245885 0.772013
O O3 0.736612 0.311996 0.886283
O O4 0.911921 0.167074 0.798373
O O5 0.564100 0.373929 0.776790
O O6 0.922042 0.450133 0.165793
O O7 0.935846 0.679763 0.070682
O O8 0.806217 0.901391 0.032912
O O9 0.971895 0.669675 0.954385
O O10 0.000000 0.000000 0.000000
O O11 0.890533 0.576212 0.408931
O O12 0.250000 0.250000 0.500000
#
# Coordination Sequence:
#
# PCOD9305498 Si02
#       6
#     8   4   8   8   8   8
#     4  12  28  48  75 113 147 198 252 307 386 448
#     4  12  26  50  80 104 154 194 250 316 378 448
#     4  12  27  49  77 110 147 196 250 317 373 456
#     4  11  24  45  70 104 146 194 243 305 365 446
#     4  11  26  44  72 106 145 193 250 302 379 439
#     4  12  26  45  73 107 149 195 246 304 372 447
#
# _framework density 22.660048
#
# number of rings (size 3 to 8) (size 9 to 14) (size 15 to 20)
#    0.000    0.364    3.636    4.364    7.636    4.364 
#    0.000    0.000    0.000    0.000    0.000    0.000 
#    0.000    0.000    0.000    0.000    0.000    0.000 
#
# Total GULP energy -123130.455021 kJ/mol
# GULP energy per Si atom -5596.838865 kJ/mol
# Density = 2.260847 g / cm^3
# Si number density = 22.660048 Si / 1000 Ang^3
#
#
#
# Elastic Constant Matrix: (Units=GPa)
#
#
# Indices 1 2 3 4 5 6 
#
# 1 103.7545 51.3609 19.7438 0.0000 -5.6398 0.0000
# 2 51.3609 123.6567 49.9771 0.0000 8.5832 0.0001
# 3 19.7438 49.9771 115.4776 0.0000 3.8719 0.0000
# 4 0.0000 0.0000 0.0000 22.2114 0.0000 4.1553
# 5 -5.6398 8.5832 3.8719 0.0000 29.0587 0.0000
# 6 0.0000 0.0001 0.0000 4.1553 0.0000 60.5995
#
#
#
# Elastic Compliance Matrix: (Units=1/GPa)
#
#
# Indices 1 2 3 4 5 6 
#
# 1 0.012589 -0.005558 0.000117 0.000000 0.004069 0.000000
# 2 -0.005558 0.012417 -0.004283 0.000000 -0.004176 0.000000
# 3 0.000117 -0.004283 0.010497 0.000000 -0.000111 0.000000
# 4 0.000000 0.000000 0.000000 0.045607 0.000000 -0.003127
# 5 0.004069 -0.004176 -0.000111 0.000000 0.036451 0.000000
# 6 0.000000 0.000000 0.000000 -0.003127 0.000000 0.016716
#
#
# Mechanical properties :
#
#
# Convention : Reuss Voigt Hill
#
# Bulk Modulus (GPa) = 62.29544 65.00581 63.65062
# Shear Modulus (GPa) = 31.43125 37.16107 34.29616
#
# Velocity S-wave (km/s) = 3.72839 4.05401 3.89460
# Velocity P-wave (km/s) = 6.78863 7.11779 6.95516
#
# Compressibility (1/GPa) = 0.01605254
#
# Stress axis : x y z
#
# Youngs Moduli (GPa) = 79.43668 80.53751 95.26336
#
# Poissons Ratio (x) = 0.44766 -0.01113
# Poissons Ratio (y) = 0.44154 0.40805
# Poissons Ratio (z) = -0.00928 0.34497
#
# Static dielectric constant tensor:
#      x y z
#    x 1.879920 0.000000 0.074780 
#    y 0.000000 1.855760 0.000000 
#    z 0.074780 0.000000 1.986790 
# 
# From -- ./inp_files/271870.got.cif
#   From: 2010.05.17/outbox.cif.g08.bks.cpg/sg15_136_cif.got.tgz:271870.got - 2010.06.03 18:47:42.
