data_PCOD9305649
_publ_section_title
;
Structure prediction by ZEFSAII (Michael W. Deem and Ramdas Pophale) SiO2 
 PCOD9305649
Probable space group: C 2/C
;
_chemical_formula_sum "Si O2"
_cell_formula_units_Z 64
_cell_length_a 23.151200
_cell_length_b 18.502500
_cell_length_c 14.548337
_cell_angle_alpha 90.000000
_cell_angle_beta 29.389981
_cell_angle_gamma 90.000000
_cell_volume 3058.291101
_symmetry_space_group_name_H-M "C 2/C"
_symmetry_group_IT_number 15
_symmetry_cell_setting 'monoclinic'
loop_
_space_group_symop_operation_xyz
x,y,z
-x,y,1/2-z
-x,-y,-z
x,-y,1/2+z
1/2+x,1/2+y,z
1/2-x,1/2+y,1/2-z
1/2-x,1/2-y,-z
1/2+x,1/2-y,1/2+z
loop_
_atom_site_type_symbol
_atom_site_label
_atom_site_fract_x
_atom_site_fract_y
_atom_site_fract_z
Si Si1 0.728430 0.678657 0.299386
Si Si2 0.099098 0.461413 0.301302
Si Si3 0.024344 0.029581 0.325057
Si Si4 0.771458 0.019409 0.198189
Si Si5 0.006837 0.683876 0.632165
Si Si6 0.775168 0.533798 0.538691
Si Si7 0.766414 0.202164 0.885337
Si Si8 0.976832 0.821938 0.562527
O O1 0.742907 0.599283 0.324815
O O2 0.703151 0.747018 0.398171
O O3 0.628150 0.671554 0.363544
O O4 0.855346 0.689993 0.079908
O O5 0.215303 0.462816 0.204702
O O6 0.052636 0.383714 0.335875
O O7 0.000000 0.500000 0.500000
O O8 0.131341 0.504842 0.164351
O O9 0.019865 0.106665 0.380515
O O10 0.000000 0.035216 0.250000
O O11 0.145730 0.988931 0.179699
O O12 0.909802 0.989155 0.521970
O O13 0.712087 0.005565 0.379768
O O14 0.952255 0.755876 0.665171
O O15 0.000000 0.676643 0.750000
O O16 0.780862 0.620495 0.540750
O O17 0.901592 0.192428 0.662178
O O18 0.750000 0.250000 0.000000
#
# Coordination Sequence:
#
# PCOD9305649 Si02
#       8
#     8   8   8   8   8   8   8   8
#     4  11  24  46  71  99 144 186 228 296 357 418
#     4  12  27  44  70 102 142 192 242 291 359 430
#     4  12  24  43  76 113 139 183 238 307 367 424
#     4  12  23  45  73 105 146 182 241 300 356 436
#     4  11  26  45  68 102 142 183 237 289 359 430
#     4  12  25  46  74 107 142 189 245 298 357 433
#     4  11  26  45  68 101 145 187 238 288 357 429
#     4  11  25  46  71 105 141 182 237 295 363 431
#
# _framework density 20.926718999999999
#
# number of rings (size 3 to 8) (size 9 to 14) (size 15 to 20)
#    0.000    0.500    5.000    3.000    3.500    1.000 
#    0.000    1.250    0.000    0.000    0.000    0.000 
#    0.000    0.000    0.000    0.000    0.000    0.000 
#
# Total GULP energy -178936.721156 kJ/mol
# GULP energy per Si atom -5591.772536 kJ/mol
# Density = 2.087909 g / cm^3
# Si number density = 20.926719 Si / 1000 Ang^3
#
#
#
# Elastic Constant Matrix: (Units=GPa)
#
#
# Indices 1 2 3 4 5 6 
#
# 1 91.3165 40.1293 11.1079 0.0000 14.7440 0.0000
# 2 40.1293 154.0091 40.9402 0.0000 16.5460 0.0000
# 3 11.1079 40.9402 67.1698 0.0000 18.6056 0.0000
# 4 0.0000 0.0000 0.0000 31.1023 0.0000 1.3592
# 5 14.7440 16.5460 18.6056 0.0000 29.6427 0.0000
# 6 0.0000 0.0000 0.0000 1.3592 0.0000 42.7256
#
#
#
# Elastic Compliance Matrix: (Units=1/GPa)
#
#
# Indices 1 2 3 4 5 6 
#
# 1 0.013077 -0.003156 0.001301 0.000000 -0.005559 0.000000
# 2 -0.003156 0.008577 -0.004617 0.000000 -0.000320 0.000000
# 3 0.001301 -0.004617 0.020520 0.000000 -0.010949 0.000000
# 4 0.000000 0.000000 0.000000 0.032197 0.000000 -0.001024
# 5 -0.005559 -0.000320 -0.010949 0.000000 0.043551 0.000000
# 6 0.000000 0.000000 0.000000 -0.001024 0.000000 0.023438
#
#
# Mechanical properties :
#
#
# Convention : Reuss Voigt Hill
#
# Bulk Modulus (GPa) = 34.21234 55.20558 44.70896
# Shear Modulus (GPa) = 30.47891 35.38198 32.93044
#
# Velocity S-wave (km/s) = 3.82050 4.11634 3.97118
# Velocity P-wave (km/s) = 5.98713 7.00215 6.51444
#
# Compressibility (1/GPa) = 0.02922922
#
# Stress axis : x y z
#
# Youngs Moduli (GPa) = 76.46888 116.58732 48.73367
#
# Poissons Ratio (x) = 0.36795 -0.06340
# Poissons Ratio (y) = 0.24134 0.22502
# Poissons Ratio (z) = -0.09948 0.53833
#
# Static dielectric constant tensor:
#      x y z
#    x 1.758350 0.000000 0.002020 
#    y 0.000000 -2.996730 0.000000 
#    z 0.002020 0.000000 1.786440 
# 
# From -- ./inp_files/174228.got.cif
#   From: 2010.05.17/outbox.cif.g08.bks.cpg/sg15_88_cif.got.tgz:174228.got - 2010.06.03 18:47:42.
