data_PCOD9305499
_publ_section_title
;
Structure prediction by ZEFSAII (Michael W. Deem and Ramdas Pophale) SiO2 
 PCOD9305499
Probable space group: C 2/C
;
_chemical_formula_sum "Si O2"
_cell_formula_units_Z 64
_cell_length_a 14.135369
_cell_length_b 14.153010
_cell_length_c 17.534567
_cell_angle_alpha 90.000000
_cell_angle_beta 127.632559
_cell_angle_gamma 90.000000
_cell_volume 2778.080465
_symmetry_space_group_name_H-M "C 2/C"
_symmetry_group_IT_number 15
_symmetry_cell_setting 'monoclinic'
loop_
_space_group_symop_operation_xyz
x,y,z
-x,y,1/2-z
-x,-y,-z
x,-y,1/2+z
1/2+x,1/2+y,z
1/2-x,1/2+y,1/2-z
1/2-x,1/2-y,-z
1/2+x,1/2-y,1/2+z
loop_
_atom_site_type_symbol
_atom_site_label
_atom_site_fract_x
_atom_site_fract_y
_atom_site_fract_z
Si Si1 0.756730 0.181336 0.249845
Si Si2 0.047743 0.711853 0.034701
Si Si3 0.766342 0.020267 0.517924
Si Si4 0.104282 0.072081 0.527117
Si Si5 0.722559 0.103858 0.766278
Si Si6 0.980162 0.543043 0.574185
Si Si7 0.128686 0.998396 0.272509
Si Si8 0.305556 0.294022 0.951115
O O1 0.628867 0.175497 0.144226
O O2 0.803493 0.284585 0.245800
O O3 0.836860 0.095029 0.255902
O O4 0.751352 0.186742 0.339609
O O5 0.071012 0.821475 0.030154
O O6 0.908814 0.717656 0.985434
O O7 0.067825 0.647752 0.970806
O O8 0.854594 0.934315 0.539601
O O9 0.625896 0.009481 0.434381
O O10 0.779542 0.025727 0.614638
O O11 0.826777 0.102300 0.497405
O O12 0.230108 0.058591 0.632808
O O13 0.000000 0.000000 0.500000
O O14 0.605598 0.051589 0.678472
O O15 0.840288 0.085059 0.771598
O O16 0.000000 0.500000 0.500000
O O17 0.000000 0.996899 0.250000
O O18 0.250000 0.250000 0.000000
#
# Coordination Sequence:
#
# PCOD9305499 Si02
#       8
#     8   8   8   8   8   8   8   8
#     4  11  25  49  71 105 145 196 238 303 377 435
#     4  11  24  46  73  99 149 192 231 306 368 436
#     4  12  25  42  72 106 141 190 242 299 374 437
#     4  11  24  45  70 105 144 183 243 307 369 435
#     4  11  24  46  72 100 143 196 239 302 374 436
#     4  12  23  46  68 100 147 186 238 300 370 446
#     4  12  26  44  74 106 143 193 253 301 365 449
#     4  12  25  44  74 107 143 188 251 304 361 441
#
# _framework density 23.037490999999999
#
# number of rings (size 3 to 8) (size 9 to 14) (size 15 to 20)
#    0.000    0.500    5.000    3.000    3.500    1.500 
#    4.500    1.250    0.000    0.000    0.000    0.000 
#    0.000    0.000    0.000    0.000    0.000    0.000 
#
# Total GULP energy -178493.995121 kJ/mol
# GULP energy per Si atom -5577.937348 kJ/mol
# Density = 2.298506 g / cm^3
# Si number density = 23.037491 Si / 1000 Ang^3
#
#
#
# Elastic Constant Matrix: (Units=GPa)
#
#
# Indices 1 2 3 4 5 6 
#
# 1 78.0962 14.4642 3.7596 0.0000 4.3170 0.0000
# 2 14.4642 96.9063 6.2871 0.0000 8.6158 0.0000
# 3 3.7596 6.2871 95.3190 0.0000 8.8365 0.0000
# 4 0.0000 0.0000 0.0000 33.5084 0.0000 -7.9762
# 5 4.3170 8.6158 8.8365 0.0000 31.8858 0.0000
# 6 0.0000 0.0000 0.0000 -7.9762 0.0000 35.8854
#
#
#
# Elastic Compliance Matrix: (Units=1/GPa)
#
#
# Indices 1 2 3 4 5 6 
#
# 1 0.013228 -0.001848 -0.000288 0.000000 -0.001212 0.000000
# 2 -0.001848 0.010850 -0.000405 0.000000 -0.002569 0.000000
# 3 -0.000288 -0.000405 0.010793 0.000000 -0.002843 0.000000
# 4 0.000000 0.000000 0.000000 0.031510 0.000000 0.007004
# 5 -0.001212 -0.002569 -0.002843 0.000000 0.033008 0.000000
# 6 0.000000 0.000000 0.000000 0.007004 0.000000 0.029423
#
#
# Mechanical properties :
#
#
# Convention : Reuss Voigt Hill
#
# Bulk Modulus (GPa) = 33.56813 35.48259 34.52536
# Shear Modulus (GPa) = 34.76518 36.64329 35.70424
#
# Velocity S-wave (km/s) = 3.88889 3.99255 3.94106
# Velocity P-wave (km/s) = 5.89638 6.05719 5.97733
#
# Compressibility (1/GPa) = 0.02979016
#
# Stress axis : x y z
#
# Youngs Moduli (GPa) = 75.59830 92.16788 92.65569
#
# Poissons Ratio (x) = 0.17032 0.02664
# Poissons Ratio (y) = 0.13970 0.03748
# Poissons Ratio (z) = 0.02173 0.03729
#
# Static dielectric constant tensor:
#      x y z
#    x 1.926900 0.000000 0.000520 
#    y 0.000000 2.229860 0.000000 
#    z 0.000520 0.000000 1.950150 
# 
# From -- ./inp_files/205736.got.cif
#   From: 2010.05.17/outbox.cif.g08.bks.cpg/sg15_103_cif.got.tgz:205736.got - 2010.06.03 18:47:42.
