data_PCOD9305316
_publ_section_title
;
Structure prediction by ZEFSAII (Michael W. Deem and Ramdas Pophale) SiO2 
 PCOD9305316
Probable space group: C 2/C
;
_chemical_formula_sum "Si O2"
_cell_formula_units_Z 36
_cell_length_a 14.717226
_cell_length_b 7.980124
_cell_length_c 22.325547
_cell_angle_alpha 90.000000
_cell_angle_beta 142.430907
_cell_angle_gamma 90.000000
_cell_volume 1598.698265
_symmetry_space_group_name_H-M "C 2/C"
_symmetry_group_IT_number 15
_symmetry_cell_setting 'monoclinic'
loop_
_space_group_symop_operation_xyz
x,y,z
-x,y,1/2-z
-x,-y,-z
x,-y,1/2+z
1/2+x,1/2+y,z
1/2-x,1/2+y,1/2-z
1/2-x,1/2-y,-z
1/2+x,1/2-y,1/2+z
loop_
_atom_site_type_symbol
_atom_site_label
_atom_site_fract_x
_atom_site_fract_y
_atom_site_fract_z
Si Si1 0.214678 0.792926 0.550000
Si Si2 0.110183 0.298340 0.606937
Si Si3 0.625516 0.529583 0.196005
Si Si4 0.000000 0.129043 0.750000
Si Si5 0.645547 0.683795 0.498059
O O1 0.250000 0.750000 0.500000
O O2 0.354625 0.741377 0.662708
O O3 0.067712 0.686695 0.489184
O O4 0.183287 0.991255 0.535337
O O5 0.209670 0.422937 0.697337
O O6 0.167332 0.290142 0.569177
O O7 0.131509 0.121211 0.652134
O O8 0.533475 0.475669 0.207379
O O9 0.526406 0.675162 0.113616
O O10 0.750000 0.750000 0.500000
#
# Coordination Sequence:
#
# PCOD9305316 Si02
#       5
#     8   8   8   4   8
#     4  11  24  44  69 101 137 181 228 285 341 410
#     4  11  26  44  71  99 141 180 231 283 347 409
#     4  11  25  45  67 102 137 181 234 284 342 414
#     4  12  24  44  72  98 138 182 236 278 346 410
#     4  11  25  46  69 102 143 177 233 288 342 405
#
# _framework density 22.518321
#
# number of rings (size 3 to 8) (size 9 to 14) (size 15 to 20)
#    0.000    0.889    4.444    4.000    6.222    4.444 
#    0.000    0.000    0.000    0.000    0.000    0.000 
#    0.000    0.000    0.000    0.000    0.000    0.000 
#
# Total GULP energy -100762.704475 kJ/mol
# GULP energy per Si atom -5597.928026 kJ/mol
# Density = 2.246707 g / cm^3
# Si number density = 22.518321 Si / 1000 Ang^3
#
#
#
# Elastic Constant Matrix: (Units=GPa)
#
#
# Indices 1 2 3 4 5 6 
#
# 1 100.4362 1.1506 28.0473 0.0000 -10.6126 0.0000
# 2 1.1506 45.6776 33.4933 0.0000 10.4528 0.0000
# 3 28.0473 33.4933 169.0673 0.0000 21.6156 0.0000
# 4 0.0000 0.0000 0.0000 40.3462 0.0000 7.2414
# 5 -10.6126 10.4528 21.6156 0.0000 54.9424 0.0000
# 6 0.0000 0.0000 0.0000 7.2414 0.0000 26.2506
#
#
#
# Elastic Compliance Matrix: (Units=1/GPa)
#
#
# Indices 1 2 3 4 5 6 
#
# 1 0.010902 0.000776 -0.002330 0.000000 0.002875 0.000000
# 2 0.000776 0.026156 -0.004942 0.000000 -0.002882 0.000000
# 3 -0.002330 -0.004942 0.007600 0.000000 -0.002500 0.000000
# 4 0.000000 0.000000 0.000000 0.026077 0.000000 -0.007193
# 5 0.002875 -0.002882 -0.002500 0.000000 0.020288 0.000000
# 6 0.000000 0.000000 0.000000 -0.007193 0.000000 0.040079
#
#
# Mechanical properties :
#
#
# Convention : Reuss Voigt Hill
#
# Bulk Modulus (GPa) = 31.57917 48.95148 40.26533
# Shear Modulus (GPa) = 32.33132 41.14051 36.73591
#
# Velocity S-wave (km/s) = 3.79328 4.27896 4.04342
# Velocity P-wave (km/s) = 5.76537 6.79693 6.30229
#
# Compressibility (1/GPa) = 0.03166644
#
# Stress axis : x y z
#
# Youngs Moduli (GPa) = 91.72570 38.23176 131.57980
#
# Poissons Ratio (x) = -0.02966 0.30656
# Poissons Ratio (y) = -0.07117 0.65026
# Poissons Ratio (z) = 0.21371 0.18894
#
# Static dielectric constant tensor:
#      x y z
#    x 1.819990 0.000000 0.028920 
#    y 0.000000 1.848000 0.000000 
#    z 0.028920 0.000000 1.837200 
# 
# From -- ./inp_files/150132.got.cif
#   From: 2010.05.17/outbox.cif.g08.bks.cpg/sg15_76_cif.got.tgz:150132.got - 2010.06.03 18:47:42.
