data_PCOD9305309
_publ_section_title
;
Structure prediction by ZEFSAII (Michael W. Deem and Ramdas Pophale) SiO2 
 PCOD9305309
Probable space group: C 2/C
;
_chemical_formula_sum "Si O2"
_cell_formula_units_Z 40
_cell_length_a 5.363663
_cell_length_b 20.529582
_cell_length_c 16.805969
_cell_angle_alpha 90.000000
_cell_angle_beta 81.656600
_cell_angle_gamma 90.000000
_cell_volume 1830.982305
_symmetry_space_group_name_H-M "C 2/C"
_symmetry_group_IT_number 15
_symmetry_cell_setting 'monoclinic'
loop_
_space_group_symop_operation_xyz
x,y,z
-x,y,1/2-z
-x,-y,-z
x,-y,1/2+z
1/2+x,1/2+y,z
1/2-x,1/2+y,1/2-z
1/2-x,1/2-y,-z
1/2+x,1/2-y,1/2+z
loop_
_atom_site_type_symbol
_atom_site_label
_atom_site_fract_x
_atom_site_fract_y
_atom_site_fract_z
Si Si1 0.594547 0.901344 0.378829
Si Si2 0.922693 0.983429 0.097273
Si Si3 0.500000 0.194554 0.750000
Si Si4 0.330491 0.806040 0.687533
Si Si5 0.500000 0.425370 0.750000
Si Si6 0.996678 0.708249 0.010278
O O1 0.358042 0.951686 0.383501
O O2 0.643106 0.856183 0.299606
O O3 0.516534 0.851934 0.451125
O O4 0.855995 0.934219 0.388836
O O5 0.942855 0.035802 0.170090
O O6 0.000000 0.000000 0.000000
O O7 0.634376 0.246719 0.685722
O O8 0.500000 0.779173 0.750000
O O9 0.221216 0.874325 0.721046
O O10 0.471226 0.817763 0.600333
O O11 0.750000 0.750000 0.000000
O O12 0.250000 0.750000 0.000000
#
# Coordination Sequence:
#
# PCOD9305309 Si02
#       6
#     8   8   4   8   4   8
#     4  12  26  45  76 103 145 184 240 301 358 424
#     4  12  28  49  74 102 145 195 250 297 354 430
#     4  11  24  44  68 114 140 183 234 294 376 429
#     4  11  26  43  74 103 151 188 236 302 362 443
#     4  11  28  48  70 108 144 201 252 296 362 427
#     4  12  25  46  72 110 148 185 235 297 371 445
#
# _framework density 21.846198000000001
#
# number of rings (size 3 to 8) (size 9 to 14) (size 15 to 20)
#    0.000    0.400    2.000    5.400   11.200    0.000 
#    0.000    0.000    0.000    0.000    0.000    0.000 
#    0.000    0.000    0.000    0.000    0.000    0.000 
#
# Total GULP energy -111615.435759 kJ/mol
# GULP energy per Si atom -5580.771788 kJ/mol
# Density = 2.179648 g / cm^3
# Si number density = 21.846198 Si / 1000 Ang^3
#
#
#
# Elastic Constant Matrix: (Units=GPa)
#
#
# Indices 1 2 3 4 5 6 
#
# 1 65.9984 6.9409 -12.3591 0.0000 9.1504 0.0000
# 2 6.9409 82.9942 35.9932 0.0000 11.0690 0.0000
# 3 -12.3591 35.9932 141.2480 0.0000 5.3072 0.0000
# 4 0.0000 0.0000 0.0000 15.1963 0.0000 65.2635
# 5 9.1504 11.0690 5.3072 0.0000 31.5637 0.0000
# 6 0.0000 0.0000 0.0000 65.2635 0.0000 -50.5330
#
#
#
# Elastic Compliance Matrix: (Units=1/GPa)
#
#
# Indices 1 2 3 4 5 6 
#
# 1 0.016325 -0.001640 0.002015 0.000000 -0.004497 0.000000
# 2 -0.001640 0.014287 -0.003637 0.000000 -0.003923 0.000000
# 3 0.002015 -0.003637 0.008209 0.000000 -0.000689 0.000000
# 4 0.000000 0.000000 0.000000 0.010052 0.000000 0.012982
# 5 -0.004497 -0.003923 -0.000689 0.000000 0.034477 0.000000
# 6 0.000000 0.000000 0.000000 0.012982 0.000000 -0.003023
#
#
# Mechanical properties :
#
#
# Convention : Reuss Voigt Hill
#
# Bulk Modulus (GPa) = 30.96123 39.04338 35.00231
# Shear Modulus (GPa) = 51.22186 16.55644 33.88915
#
# Velocity S-wave (km/s) = 4.84742 2.75592 3.94288
# Velocity P-wave (km/s) = 6.74782 5.29505 6.06509
#
# Compressibility (1/GPa) = 0.03229845
#
# Stress axis : x y z
#
# Youngs Moduli (GPa) = 61.25531 69.99601 121.82269
#
# Poissons Ratio (x) = 0.11476 -0.24549
# Poissons Ratio (y) = 0.10043 0.44302
# Poissons Ratio (z) = -0.12344 0.25455
#
# Static dielectric constant tensor:
#      x y z
#    x 1.870530 0.000000 0.010080 
#    y 0.000000 1.774700 0.000000 
#    z 0.010080 0.000000 1.878860 
# 
# From -- ./inp_files/184290.got.cif
#   From: 2010.05.17/outbox.cif.g08.bks.cpg/sg15_93_cif.got.tgz:184290.got - 2010.06.03 18:47:42.
