data_PCOD9305107
_publ_section_title
;
Structure prediction by ZEFSAII (Michael W. Deem and Ramdas Pophale) SiO2 
 PCOD9305107
Probable space group: C 2/C
;
_chemical_formula_sum "Si O2"
_cell_formula_units_Z 44
_cell_length_a 17.388901
_cell_length_b 9.348527
_cell_length_c 23.805070
_cell_angle_alpha 90.000000
_cell_angle_beta 24.441809
_cell_angle_gamma 90.000000
_cell_volume 1601.188922
_symmetry_space_group_name_H-M "C 2/C"
_symmetry_group_IT_number 15
_symmetry_cell_setting 'monoclinic'
loop_
_space_group_symop_operation_xyz
x,y,z
-x,y,1/2-z
-x,-y,-z
x,-y,1/2+z
1/2+x,1/2+y,z
1/2-x,1/2+y,1/2-z
1/2-x,1/2-y,-z
1/2+x,1/2-y,1/2+z
loop_
_atom_site_type_symbol
_atom_site_label
_atom_site_fract_x
_atom_site_fract_y
_atom_site_fract_z
Si Si1 0.767680 0.245355 0.751672
Si Si2 0.844773 0.371586 0.052032
Si Si3 0.714504 0.346075 0.604431
Si Si4 0.539432 0.492744 0.908259
Si Si5 0.500000 0.210037 0.250000
Si Si6 0.809523 0.536463 0.920995
O O1 0.719722 0.211954 0.848482
O O2 0.596235 0.339724 0.846515
O O3 0.958463 0.320300 0.603595
O O4 0.780737 0.090680 0.716576
O O5 0.825203 0.544436 0.071738
O O6 0.674605 0.314518 0.126828
O O7 0.500000 0.389814 0.750000
O O8 0.792542 0.391550 0.492143
O O9 0.699742 0.172471 0.616952
O O10 0.500000 0.500000 0.000000
O O11 0.373913 0.545927 0.978874
O O12 0.529201 0.083699 0.183656
#
# Coordination Sequence:
#
# PCOD9305107 Si02
#       6
#     8   8   8   8   4   8
#     4  12  27  49  72 109 148 202 248 302 376 440
#     4  12  26  45  76 111 148 190 251 309 375 444
#     4  11  24  42  69 104 138 180 242 294 368 435
#     4  12  27  49  71 104 152 197 249 304 362 449
#     4  12  22  44  72 106 150 176 236 304 372 420
#     4  11  25  45  68 104 146 190 230 305 371 433
#
# _framework density 27.479579999999999
#
# number of rings (size 3 to 8) (size 9 to 14) (size 15 to 20)
#    0.000    0.364    5.455    2.182    2.545    5.091 
#    0.000    0.000    0.000    0.000    0.000    0.000 
#    0.000    0.000    0.000    0.000    0.000    0.000 
#
# Total GULP energy -122838.866147 kJ/mol
# GULP energy per Si atom -5583.584825 kJ/mol
# Density = 2.741703 g / cm^3
# Si number density = 27.479580 Si / 1000 Ang^3
#
#
#
# Elastic Constant Matrix: (Units=GPa)
#
#
# Indices 1 2 3 4 5 6 
#
# 1 56.0009 4.0219 32.2831 -0.0073 6.6638 0.0016
# 2 4.0219 139.6447 32.9670 -0.0362 -9.6255 0.0003
# 3 32.2831 32.9670 132.7693 -0.0291 -2.6724 0.0011
# 4 -0.0073 -0.0362 -0.0291 24.9856 0.0018 -5.0530
# 5 6.6638 -9.6255 -2.6724 0.0018 33.6951 -0.0001
# 6 0.0016 0.0003 0.0011 -5.0530 -0.0001 37.9840
#
#
#
# Elastic Compliance Matrix: (Units=1/GPa)
#
#
# Indices 1 2 3 4 5 6 
#
# 1 0.021492 0.000341 -0.005403 0.000001 -0.004582 -0.000001
# 2 0.000341 0.007753 -0.001968 0.000009 0.001991 0.000001
# 3 -0.005403 -0.001968 0.009359 0.000007 0.001249 0.000001
# 4 0.000001 0.000009 0.000007 0.041130 0.000001 0.005471
# 5 -0.004582 0.001991 0.001249 0.000001 0.031252 0.000000
# 6 -0.000001 0.000001 0.000001 0.005471 0.000000 0.027055
#
#
# Mechanical properties :
#
#
# Convention : Reuss Voigt Hill
#
# Bulk Modulus (GPa) = 40.74199 51.88434 46.31316
# Shear Modulus (GPa) = 31.19502 36.60910 33.90206
#
# Velocity S-wave (km/s) = 3.37294 3.65393 3.51624
# Velocity P-wave (km/s) = 5.47973 6.06001 5.77716
#
# Compressibility (1/GPa) = 0.02454470
#
# Stress axis : x y z
#
# Youngs Moduli (GPa) = 46.52881 128.98152 106.84579
#
# Poissons Ratio (x) = -0.04394 0.57725
# Poissons Ratio (y) = -0.01585 0.21026
# Poissons Ratio (z) = 0.25138 0.25382
#
# Static dielectric constant tensor:
#      x y z
#    x 2.249630 -0.000030 0.036020 
#    y -0.000030 2.223780 0.000010 
#    z 0.036020 0.000010 2.197340 
# 
# From -- ./inp_files/318562.got.cif
#   From: 2010.05.17/outbox.cif.g08.bks.cpg/sg15_160_cif.got.tgz:318562.got - 2010.06.03 18:47:42.
