data_PCOD9305945
_publ_section_title
;
Structure prediction by ZEFSAII (Michael W. Deem and Ramdas Pophale) SiO2 
 PCOD9305945
Probable space group: C 2/C
;
_chemical_formula_sum "Si O2"
_cell_formula_units_Z 36
_cell_length_a 5.480286
_cell_length_b 22.408506
_cell_length_c 12.718283
_cell_angle_alpha 90.000000
_cell_angle_beta 85.728270
_cell_angle_gamma 90.000000
_cell_volume 1557.530159
_symmetry_space_group_name_H-M "C 2/C"
_symmetry_group_IT_number 15
_symmetry_cell_setting 'monoclinic'
loop_
_space_group_symop_operation_xyz
x,y,z
-x,y,1/2-z
-x,-y,-z
x,-y,1/2+z
1/2+x,1/2+y,z
1/2-x,1/2+y,1/2-z
1/2-x,1/2-y,-z
1/2+x,1/2-y,1/2+z
loop_
_atom_site_type_symbol
_atom_site_label
_atom_site_fract_x
_atom_site_fract_y
_atom_site_fract_z
Si Si1 0.500000 0.636998 0.250000
Si Si2 0.726873 0.193589 0.073295
Si Si3 0.340433 0.033523 0.151553
Si Si4 0.000000 0.241395 0.750000
Si Si5 0.871979 0.415359 0.059634
Si Si6 0.500000 0.161783 0.750000
O O1 0.408741 0.678902 0.160815
O O2 0.687988 0.589745 0.194539
O O3 0.491471 0.213601 0.150141
O O4 0.750000 0.250000 0.000000
O O5 0.761741 0.137678 0.995775
O O6 0.500000 0.018614 0.250000
O O7 0.226011 0.970308 0.117669
O O8 0.478572 0.056795 0.043035
O O9 0.752591 0.200402 0.755423
O O10 0.019781 0.381092 0.146816
#
# Coordination Sequence:
#
# PCOD9305945 Si02
#       6
#     4   8   8   4   8   4
#     4  12  27  49  80 106 155 207 262 336 388 484
#     4  12  26  46  73 113 151 204 258 320 398 469
#     4  11  24  49  75 107 150 201 264 322 400 459
#     4  12  28  49  73 112 160 212 258 320 400 474
#     4  11  25  47  75 112 154 199 259 330 389 476
#     4  12  27  48  79 116 165 205 264 326 392 478
#
# _framework density 23.113516000000001
#
# number of rings (size 3 to 8) (size 9 to 14) (size 15 to 20)
#    0.000    0.444    5.556    2.000    3.111    2.667 
#    0.000    0.000    0.000    0.000    0.000    0.000 
#    0.000    0.000    0.000    0.000    0.000    0.000 
#
# Total GULP energy -100280.911032 kJ/mol
# GULP energy per Si atom -5571.161724 kJ/mol
# Density = 2.306091 g / cm^3
# Si number density = 23.113516 Si / 1000 Ang^3
#
#
#
# Elastic Constant Matrix: (Units=GPa)
#
#
# Indices 1 2 3 4 5 6 
#
# 1 59.0503 46.1293 35.6740 0.0000 8.7274 0.0000
# 2 46.1293 176.2323 65.6033 0.0000 33.4476 0.0000
# 3 35.6740 65.6033 187.1544 0.0000 27.2256 0.0000
# 4 0.0000 0.0000 0.0000 42.5605 0.0000 25.1146
# 5 8.7274 33.4476 27.2256 0.0000 25.5140 0.0000
# 6 0.0000 0.0000 0.0000 25.1146 0.0000 18.1292
#
#
#
# Elastic Compliance Matrix: (Units=1/GPa)
#
#
# Indices 1 2 3 4 5 6 
#
# 1 0.022367 -0.005242 -0.002738 0.000000 0.002143 0.000000
# 2 -0.005242 0.009120 -0.000851 0.000000 -0.009254 0.000000
# 3 -0.002738 -0.000851 0.006943 0.000000 -0.005356 0.000000
# 4 0.000000 0.000000 0.000000 0.128718 0.000000 -0.178315
# 5 0.002143 -0.009254 -0.005356 0.000000 0.056308 0.000000
# 6 0.000000 0.000000 0.000000 -0.178315 0.000000 0.302182
#
#
# Mechanical properties :
#
#
# Convention : Reuss Voigt Hill
#
# Bulk Modulus (GPa) = 48.15314 79.69446 63.92380
# Shear Modulus (GPa) = 9.08724 35.57610 22.33167
#
# Velocity S-wave (km/s) = 1.98497 3.92751 3.11171
# Velocity P-wave (km/s) = 5.11195 7.42439 6.37391
#
# Compressibility (1/GPa) = 0.02076708
#
# Stress axis : x y z
#
# Youngs Moduli (GPa) = 44.70860 109.65225 144.03971
#
# Poissons Ratio (x) = 0.57482 0.39432
# Poissons Ratio (y) = 0.23437 0.12263
# Poissons Ratio (z) = 0.12239 0.09335
#
# Static dielectric constant tensor:
#      x y z
#    x 2.373940 0.000000 0.038470 
#    y 0.000000 2.206990 0.000000 
#    z 0.038470 0.000000 1.904890 
# 
# From -- ./inp_files/72648.got.cif
#   From: 2010.05.17/outbox.cif.g08.bks.cpg/sg15_37_cif.got.tgz:72648.got - 2010.06.03 18:47:42.
