data_PCOD9305280
_publ_section_title
;
Structure prediction by ZEFSAII (Michael W. Deem and Ramdas Pophale) SiO2 
 PCOD9305280
Probable space group: C 2/C
;
_chemical_formula_sum "Si O2"
_cell_formula_units_Z 32
_cell_length_a 17.737324
_cell_length_b 16.244079
_cell_length_c 5.186168
_cell_angle_alpha 90.000000
_cell_angle_beta 94.334472
_cell_angle_gamma 90.000000
_cell_volume 1489.998539
_symmetry_space_group_name_H-M "C 2/C"
_symmetry_group_IT_number 15
_symmetry_cell_setting 'monoclinic'
loop_
_space_group_symop_operation_xyz
x,y,z
-x,y,1/2-z
-x,-y,-z
x,-y,1/2+z
1/2+x,1/2+y,z
1/2-x,1/2+y,1/2-z
1/2-x,1/2-y,-z
1/2+x,1/2-y,1/2+z
loop_
_atom_site_type_symbol
_atom_site_label
_atom_site_fract_x
_atom_site_fract_y
_atom_site_fract_z
Si Si1 0.566901 0.314401 0.566803
Si Si2 0.235236 0.805050 0.749580
Si Si3 0.000000 0.943413 0.250000
Si Si4 0.359200 0.944571 0.872036
Si Si5 0.500000 0.163126 0.250000
O O1 0.500000 0.334266 0.750000
O O2 0.646664 0.324181 0.720826
O O3 0.566403 0.378143 0.327102
O O4 0.546334 0.224305 0.451701
O O5 0.250000 0.750000 0.500000
O O6 0.290197 0.883115 0.788904
O O7 0.250000 0.750000 0.000000
O O8 0.000000 0.000000 0.500000
O O9 0.437253 0.893465 0.867797
O O10 0.356415 0.015636 0.654205
#
# Coordination Sequence:
#
# PCOD9305280 Si02
#       5
#     8   8   4   8   4
#     4  11  25  44  78 107 139 196 247 294 367 441
#     4  12  26  48  74 102 147 192 243 293 355 440
#     4  11  24  44  66 103 142 182 240 305 360 416
#     4  12  27  47  71 109 145 189 235 299 367 422
#     4  11  24  44  74 107 146 188 244 291 362 440
#
# _framework density 21.476531000000001
#
# number of rings (size 3 to 8) (size 9 to 14) (size 15 to 20)
#    0.000    0.500    3.750    3.750    7.000    2.000 
#    0.000    0.000    0.000    0.000    0.000    0.000 
#    0.000    0.000    0.000    0.000    0.000    0.000 
#
# Total GULP energy -89475.821381 kJ/mol
# GULP energy per Si atom -5592.238836 kJ/mol
# Density = 2.142765 g / cm^3
# Si number density = 21.476531 Si / 1000 Ang^3
#
#
#
# Elastic Constant Matrix: (Units=GPa)
#
#
# Indices 1 2 3 4 5 6 
#
# 1 138.5419 29.4999 15.4872 0.0000 27.4598 0.0000
# 2 29.4999 90.4675 19.9045 0.0000 7.6036 0.0000
# 3 15.4872 19.9045 112.9346 0.0000 4.8860 0.0000
# 4 0.0000 0.0000 0.0000 34.2415 0.0000 -13.0737
# 5 27.4598 7.6036 4.8860 0.0000 43.6909 0.0000
# 6 0.0000 0.0000 0.0000 -13.0737 0.0000 24.4955
#
#
#
# Elastic Compliance Matrix: (Units=1/GPa)
#
#
# Indices 1 2 3 4 5 6 
#
# 1 0.008775 -0.002310 -0.000578 0.000000 -0.005049 0.000000
# 2 -0.002310 0.012248 -0.001821 0.000000 -0.000476 0.000000
# 3 -0.000578 -0.001821 0.009270 0.000000 -0.000357 0.000000
# 4 0.000000 0.000000 0.000000 0.036679 0.000000 0.019576
# 5 -0.005049 -0.000476 -0.000357 0.000000 0.026184 0.000000
# 6 0.000000 0.000000 0.000000 0.019576 0.000000 0.051272
#
#
# Mechanical properties :
#
#
# Convention : Reuss Voigt Hill
#
# Bulk Modulus (GPa) = 47.90410 52.41412 50.15911
# Shear Modulus (GPa) = 31.09376 38.95575 35.02475
#
# Velocity S-wave (km/s) = 3.80913 4.26358 4.04275
# Velocity P-wave (km/s) = 6.45753 6.97824 6.72293
#
# Compressibility (1/GPa) = 0.02087504
#
# Stress axis : x y z
#
# Youngs Moduli (GPa) = 113.95828 81.64831 107.87087
#
# Poissons Ratio (x) = 0.18861 0.06233
# Poissons Ratio (y) = 0.26324 0.19646
# Poissons Ratio (z) = 0.06585 0.14870
#
# Static dielectric constant tensor:
#      x y z
#    x 1.705880 0.000000 -0.068760 
#    y 0.000000 1.816820 0.000000 
#    z -0.068760 0.000000 1.756210 
# 
# From -- ./inp_files/9471.got.cif
#   From: 2010.05.17/outbox.cif.g08.bks.cpg/sg15_5_cif.got.tgz:9471.got - 2010.06.03 18:47:42.
