data_PCOD9305052
_publ_section_title
;
Structure prediction by ZEFSAII (Michael W. Deem and Ramdas Pophale) SiO2 
 PCOD9305052
Probable space group: C 2/C
;
_chemical_formula_sum "Si O2"
_cell_formula_units_Z 36
_cell_length_a 7.807386
_cell_length_b 21.321704
_cell_length_c 9.116792
_cell_angle_alpha 90.000000
_cell_angle_beta 87.984185
_cell_angle_gamma 90.000000
_cell_volume 1516.703763
_symmetry_space_group_name_H-M "C 2/C"
_symmetry_group_IT_number 15
_symmetry_cell_setting 'monoclinic'
loop_
_space_group_symop_operation_xyz
x,y,z
-x,y,1/2-z
-x,-y,-z
x,-y,1/2+z
1/2+x,1/2+y,z
1/2-x,1/2+y,1/2-z
1/2-x,1/2-y,-z
1/2+x,1/2-y,1/2+z
loop_
_atom_site_type_symbol
_atom_site_label
_atom_site_fract_x
_atom_site_fract_y
_atom_site_fract_z
Si Si1 0.186858 0.447979 0.718730
Si Si2 0.500000 0.537246 0.750000
Si Si3 0.796976 0.285112 0.272048
Si Si4 0.163078 0.133847 0.518241
Si Si5 0.696041 0.342397 0.578044
O O1 0.344051 0.495349 0.693775
O O2 0.190764 0.399138 0.582652
O O3 0.233762 0.406363 0.858917
O O4 0.000000 0.476871 0.750000
O O5 0.580272 0.580505 0.622524
O O6 0.718185 0.310419 0.123936
O O7 0.747208 0.330475 0.408290
O O8 0.739236 0.216449 0.327791
O O9 0.000000 0.286046 0.250000
O O10 0.010707 0.156148 0.416950
#
# Coordination Sequence:
#
# PCOD9305052 Si02
#       5
#     8   4   8   8   8
#     4  12  27  45  74 107 143 189 245 298 355 429
#     4  12  26  48  74 102 148 194 242 298 354 424
#     4  11  24  41  72 106 142 189 244 292 361 437
#     4  12  24  48  72 101 150 193 232 301 364 421
#     4  11  24  46  69 105 146 190 237 297 367 421
#
# _framework density 23.735683999999999
#
# number of rings (size 3 to 8) (size 9 to 14) (size 15 to 20)
#    0.000    0.444    4.444    3.333    0.000    8.889 
#    0.000    0.000    0.000    0.000    0.000    0.000 
#    0.000    0.000    0.000    0.000    0.000    0.000 
#
# Total GULP energy -100901.429666 kJ/mol
# GULP energy per Si atom -5605.634981 kJ/mol
# Density = 2.368166 g / cm^3
# Si number density = 23.735684 Si / 1000 Ang^3
#
#
#
# Elastic Constant Matrix: (Units=GPa)
#
#
# Indices 1 2 3 4 5 6 
#
# 1 104.6702 6.7671 15.3399 0.0000 4.2411 0.0000
# 2 6.7671 54.5479 19.1763 0.0000 21.3557 0.0000
# 3 15.3399 19.1763 92.9513 0.0000 4.3999 0.0000
# 4 0.0000 0.0000 0.0000 21.2012 0.0000 12.5921
# 5 4.2411 21.3557 4.3999 0.0000 41.5988 0.0000
# 6 0.0000 0.0000 0.0000 12.5921 0.0000 5.7205
#
#
#
# Elastic Compliance Matrix: (Units=1/GPa)
#
#
# Indices 1 2 3 4 5 6 
#
# 1 0.009828 -0.000453 -0.001500 0.000000 -0.000611 0.000000
# 2 -0.000453 0.024718 -0.004449 0.000000 -0.012173 0.000000
# 3 -0.001500 -0.004449 0.011868 0.000000 0.001181 0.000000
# 4 0.000000 0.000000 0.000000 -0.153449 0.000000 0.337776
# 5 -0.000611 -0.012173 0.001181 0.000000 0.030226 0.000000
# 6 0.000000 0.000000 0.000000 0.337776 0.000000 -0.568711
#
#
# Mechanical properties :
#
#
# Convention : Reuss Voigt Hill
#
# Bulk Modulus (GPa) = 29.75154 37.19289 33.47222
# Shear Modulus (GPa) = -8.04487 27.76318 9.85916
#
# Velocity S-wave (km/s) = -1.84302 3.42377 2.04028
# Velocity P-wave (km/s) = 2.83422 5.59761 4.43655
#
# Compressibility (1/GPa) = 0.03361170
#
# Stress axis : x y z
#
# Youngs Moduli (GPa) = 101.75414 40.45569 84.26286
#
# Poissons Ratio (x) = 0.01832 0.12635
# Poissons Ratio (y) = 0.04608 0.37485
# Poissons Ratio (z) = 0.15258 0.17997
#
# Static dielectric constant tensor:
#      x y z
#    x 1.897620 0.000000 -0.018360 
#    y 0.000000 1.914760 0.000000 
#    z -0.018360 0.000000 1.920000 
# 
# From -- ./inp_files/22522.got.cif
#   From: 2010.05.17/outbox.cif.g08.bks.cpg/sg15_12_cif.got.tgz:22522.got - 2010.06.03 18:47:42.
