data_PCOD9305897
_publ_section_title
;
Structure prediction by ZEFSAII (Michael W. Deem and Ramdas Pophale) SiO2 
 PCOD9305897
Probable space group: C 2/C
;
_chemical_formula_sum "Si O2"
_cell_formula_units_Z 40
_cell_length_a 4.976792
_cell_length_b 16.927742
_cell_length_c 18.010785
_cell_angle_alpha 90.000000
_cell_angle_beta 103.528755
_cell_angle_gamma 90.000000
_cell_volume 1475.231897
_symmetry_space_group_name_H-M "C 2/C"
_symmetry_group_IT_number 15
_symmetry_cell_setting 'monoclinic'
loop_
_space_group_symop_operation_xyz
x,y,z
-x,y,1/2-z
-x,-y,-z
x,-y,1/2+z
1/2+x,1/2+y,z
1/2-x,1/2+y,1/2-z
1/2-x,1/2-y,-z
1/2+x,1/2-y,1/2+z
loop_
_atom_site_type_symbol
_atom_site_label
_atom_site_fract_x
_atom_site_fract_y
_atom_site_fract_z
Si Si1 0.091080 0.230293 0.567221
Si Si2 0.000000 0.390377 0.750000
Si Si3 0.164918 0.249729 0.164731
Si Si4 0.000000 0.103937 0.750000
Si Si5 0.782707 0.509966 0.371793
Si Si6 0.789677 0.928962 0.484129
O O1 0.250000 0.250000 0.500000
O O2 0.337588 0.245179 0.640379
O O3 0.057985 0.138291 0.550230
O O4 0.812647 0.256200 0.591708
O O5 0.239252 0.329861 0.789448
O O6 0.081011 0.447072 0.688554
O O7 0.268978 0.330973 0.210774
O O8 0.970771 0.041269 0.679037
O O9 0.748668 0.580655 0.430025
O O10 0.003521 0.451963 0.426308
O O11 0.000000 0.000000 0.500000
#
# Coordination Sequence:
#
# PCOD9305897 Si02
#       6
#     8   4   8   4   8   8
#     4  12  26  47  79 106 151 202 254 311 381 461
#     4  11  28  46  76 109 152 192 258 319 386 450
#     4  11  27  49  73 111 151 199 252 313 387 461
#     4  11  24  48  74 107 150 200 248 315 388 462
#     4  11  26  45  73 110 149 195 257 318 388 455
#     4  11  26  47  72 109 151 199 258 314 386 460
#
# _framework density 27.114383
#
# number of rings (size 3 to 8) (size 9 to 14) (size 15 to 20)
#    0.000    0.800    2.000    3.000   11.200    4.800 
#    0.000    0.000    0.000    0.000    0.000    0.000 
#    0.000    0.000    0.000    0.000    0.000    0.000 
#
# Total GULP energy -111829.327122 kJ/mol
# GULP energy per Si atom -5591.466356 kJ/mol
# Density = 2.705267 g / cm^3
# Si number density = 27.114383 Si / 1000 Ang^3
#
#
#
# Elastic Constant Matrix: (Units=GPa)
#
#
# Indices 1 2 3 4 5 6 
#
# 1 117.1845 19.5428 41.4236 0.0000 -11.2365 0.0000
# 2 19.5428 91.4814 46.9159 0.0000 -1.7629 0.0000
# 3 41.4236 46.9159 161.3327 0.0000 -31.0904 0.0000
# 4 0.0000 0.0000 0.0000 40.3152 0.0000 3.9295
# 5 -11.2365 -1.7629 -31.0904 0.0000 65.1806 0.0000
# 6 0.0000 0.0000 0.0000 3.9295 0.0000 16.9028
#
#
#
# Elastic Compliance Matrix: (Units=1/GPa)
#
#
# Indices 1 2 3 4 5 6 
#
# 1 0.009473 -0.000972 -0.002026 0.000000 0.000640 0.000000
# 2 -0.000972 0.013096 -0.003879 0.000000 -0.001664 0.000000
# 3 -0.002026 -0.003879 0.008545 0.000000 0.003621 0.000000
# 4 0.000000 0.000000 0.000000 0.025380 0.000000 -0.005900
# 5 0.000640 -0.001664 0.003621 0.000000 0.017135 0.000000
# 6 0.000000 0.000000 0.000000 -0.005900 0.000000 0.060533
#
#
# Mechanical properties :
#
#
# Convention : Reuss Voigt Hill
#
# Bulk Modulus (GPa) = 57.60868 65.08479 61.34673
# Shear Modulus (GPa) = 32.53002 41.95415 37.24209
#
# Velocity S-wave (km/s) = 3.46747 3.93784 3.71012
# Velocity P-wave (km/s) = 6.10932 6.68815 6.40528
#
# Compressibility (1/GPa) = 0.01735850
#
# Stress axis : x y z
#
# Youngs Moduli (GPa) = 105.55924 76.35693 117.03203
#
# Poissons Ratio (x) = 0.07424 0.23713
# Poissons Ratio (y) = 0.10263 0.45402
# Poissons Ratio (z) = 0.21389 0.29622
#
# Static dielectric constant tensor:
#      x y z
#    x 2.014880 0.000000 -0.024720 
#    y 0.000000 2.232540 0.000000 
#    z -0.024720 0.000000 2.189750 
# 
# From -- ./inp_files/226888.got.cif
#   From: 2010.05.17/outbox.cif.g08.bks.cpg/sg15_114_cif.got.tgz:226888.got - 2010.06.03 18:47:42.
