data_PCOD9305623
_publ_section_title
;
Structure prediction by ZEFSAII (Michael W. Deem and Ramdas Pophale) SiO2 
 PCOD9305623
Probable space group: C 2/C
;
_chemical_formula_sum "Si O2"
_cell_formula_units_Z 44
_cell_length_a 16.230781
_cell_length_b 9.161185
_cell_length_c 13.449805
_cell_angle_alpha 90.000000
_cell_angle_beta 114.080014
_cell_angle_gamma 90.000000
_cell_volume 1825.856680
_symmetry_space_group_name_H-M "C 2/C"
_symmetry_group_IT_number 15
_symmetry_cell_setting 'monoclinic'
loop_
_space_group_symop_operation_xyz
x,y,z
-x,y,1/2-z
-x,-y,-z
x,-y,1/2+z
1/2+x,1/2+y,z
1/2-x,1/2+y,1/2-z
1/2-x,1/2-y,-z
1/2+x,1/2-y,1/2+z
loop_
_atom_site_type_symbol
_atom_site_label
_atom_site_fract_x
_atom_site_fract_y
_atom_site_fract_z
Si Si1 0.755625 0.481061 0.435598
Si Si2 0.992655 0.872615 0.130659
Si Si3 0.000000 0.412059 0.250000
Si Si4 0.696952 0.653003 0.080538
Si Si5 0.427503 0.909767 0.900549
Si Si6 0.891145 0.136147 0.254292
O O1 0.757665 0.470729 0.556896
O O2 0.758706 0.310889 0.409284
O O3 0.835326 0.556620 0.413569
O O4 0.662124 0.546971 0.354304
O O5 0.058333 0.763417 0.102477
O O6 0.000000 0.825442 0.250000
O O7 0.028186 0.039129 0.156966
O O8 0.897903 0.850210 0.027243
O O9 0.044937 0.520905 0.191711
O O10 0.078865 0.286810 0.280937
O O11 0.676095 0.644396 0.185692
O O12 0.500000 0.000000 0.000000
#
# Coordination Sequence:
#
# PCOD9305623 Si02
#       6
#     8   8   4   8   8   8
#     4  11  25  43  69 102 142 183 235 282 361 418
#     4  12  23  44  75 102 139 189 242 282 367 428
#     4  12  24  46  70 102 144 180 248 292 342 434
#     4  11  24  46  70 101 147 185 232 303 344 432
#     4  12  26  44  69 104 143 187 233 296 360 415
#     4  12  25  44  74 107 138 190 239 294 358 420
#
# _framework density 24.098275999999998
#
# number of rings (size 3 to 8) (size 9 to 14) (size 15 to 20)
#    0.000    0.364    7.273    0.545    2.545    2.909 
#    0.000    1.818    0.000    0.000    0.000    0.000 
#    0.000    0.000    0.000    0.000    0.000    0.000 
#
# Total GULP energy -122627.228900 kJ/mol
# GULP energy per Si atom -5573.964950 kJ/mol
# Density = 2.404343 g / cm^3
# Si number density = 24.098276 Si / 1000 Ang^3
#
#
#
# Elastic Constant Matrix: (Units=GPa)
#
#
# Indices 1 2 3 4 5 6 
#
# 1 122.5040 11.4038 10.2190 0.0000 -26.7027 0.0000
# 2 11.4038 59.3705 -12.2596 0.0000 2.8585 0.0000
# 3 10.2190 -12.2596 22.1281 0.0000 -1.5732 0.0000
# 4 0.0000 0.0000 0.0000 16.5200 0.0000 -10.0946
# 5 -26.7027 2.8585 -1.5732 0.0000 38.9653 0.0000
# 6 0.0000 0.0000 0.0000 -10.0946 0.0000 25.9286
#
#
#
# Elastic Compliance Matrix: (Units=1/GPa)
#
#
# Indices 1 2 3 4 5 6 
#
# 1 0.010642 -0.003730 -0.006462 0.000000 0.007305 0.000000
# 2 -0.003730 0.020364 0.012753 0.000000 -0.003535 0.000000
# 3 -0.006462 0.012753 0.055018 0.000000 -0.003142 0.000000
# 4 0.000000 0.000000 0.000000 0.079429 0.000000 0.030923
# 5 0.007305 -0.003535 -0.003142 0.000000 0.030803 0.000000
# 6 0.000000 0.000000 0.000000 0.030923 0.000000 0.050607
#
#
# Mechanical properties :
#
#
# Convention : Reuss Voigt Hill
#
# Bulk Modulus (GPa) = 10.97140 24.74767 17.85953
# Shear Modulus (GPa) = 18.37424 29.25872 23.81648
#
# Velocity S-wave (km/s) = 2.76428 3.48823 3.14714
# Velocity P-wave (km/s) = 3.84070 5.14932 4.54238
#
# Compressibility (1/GPa) = 0.09114608
#
# Stress axis : x y z
#
# Youngs Moduli (GPa) = 93.97047 49.10741 18.17593
#
# Poissons Ratio (x) = 0.18317 0.11745
# Poissons Ratio (y) = 0.35052 -0.23180
# Poissons Ratio (z) = 0.60720 -0.62628
#
# Static dielectric constant tensor:
#      x y z
#    x 2.147020 0.000000 -0.040970 
#    y 0.000000 1.911880 0.000000 
#    z -0.040970 0.000000 2.006250 
# 
# From -- ./inp_files/159457.got.cif
#   From: 2010.05.17/outbox.cif.g08.bks.cpg/sg15_80_cif.got.tgz:159457.got - 2010.06.03 18:47:42.
