data_PCOD9305179
_publ_section_title
;
Structure prediction by ZEFSAII (Michael W. Deem and Ramdas Pophale) SiO2 
 PCOD9305179
Probable space group: C 2/C
;
_chemical_formula_sum "Si O2"
_cell_formula_units_Z 32
_cell_length_a 8.667846
_cell_length_b 19.278646
_cell_length_c 12.541248
_cell_angle_alpha 90.000000
_cell_angle_beta 140.589040
_cell_angle_gamma 90.000000
_cell_volume 1330.512521
_symmetry_space_group_name_H-M "C 2/C"
_symmetry_group_IT_number 15
_symmetry_cell_setting 'monoclinic'
loop_
_space_group_symop_operation_xyz
x,y,z
-x,y,1/2-z
-x,-y,-z
x,-y,1/2+z
1/2+x,1/2+y,z
1/2-x,1/2+y,1/2-z
1/2-x,1/2-y,-z
1/2+x,1/2-y,1/2+z
loop_
_atom_site_type_symbol
_atom_site_label
_atom_site_fract_x
_atom_site_fract_y
_atom_site_fract_z
Si Si1 0.761793 0.083876 0.679482
Si Si2 0.369087 0.949298 0.789526
Si Si3 0.521147 0.725868 0.607163
Si Si4 0.567548 0.329781 0.662804
O O1 0.542271 0.078591 0.477488
O O2 0.855185 0.159211 0.768162
O O3 0.000000 0.052540 0.750000
O O4 0.676234 0.031200 0.724637
O O5 0.500000 0.932353 0.750000
O O6 0.112871 0.909881 0.660851
O O7 0.568124 0.706889 0.507486
O O8 0.674675 0.793035 0.713899
O O9 0.250000 0.750000 0.500000
O O10 0.500000 0.321728 0.750000
#
# Coordination Sequence:
#
# PCOD9305179 Si02
#       4
#     8   8   8   8
#     4  11  24  43  67  97 133 174 228 285 342 411
#     4  11  25  43  67  98 135 181 227 281 348 415
#     4  12  25  44  71  99 136 183 232 285 347 417
#     4  12  25  42  66  99 137 178 228 287 346 411
#
# _framework density 24.050882999999999
#
# number of rings (size 3 to 8) (size 9 to 14) (size 15 to 20)
#    0.000    0.500    0.000    9.750    0.000    9.000 
#    0.000    0.000    0.000    0.000    0.000    0.000 
#    0.000    0.000    0.000    0.000    0.000    0.000 
#
# Total GULP energy -89338.873405 kJ/mol
# GULP energy per Si atom -5583.679588 kJ/mol
# Density = 2.399614 g / cm^3
# Si number density = 24.050883 Si / 1000 Ang^3
#
#
#
# Elastic Constant Matrix: (Units=GPa)
#
#
# Indices 1 2 3 4 5 6 
#
# 1 88.2018 25.0218 10.6727 0.0000 -29.2714 0.0000
# 2 25.0218 140.0108 31.5470 0.0000 -5.2200 0.0000
# 3 10.6727 31.5470 49.7712 0.0000 -21.3435 0.0001
# 4 0.0000 0.0000 0.0000 3.4137 0.0000 7.8849
# 5 -29.2714 -5.2200 -21.3435 0.0000 48.9150 0.0001
# 6 0.0000 0.0000 0.0001 7.8849 0.0001 25.9925
#
#
#
# Elastic Compliance Matrix: (Units=1/GPa)
#
#
# Indices 1 2 3 4 5 6 
#
# 1 0.015165 -0.003002 0.002959 0.000001 0.010046 0.000000
# 2 -0.003002 0.009049 -0.006702 -0.000001 -0.003755 0.000000
# 3 0.002959 -0.006702 0.029719 0.000003 0.014023 -0.000001
# 4 0.000001 -0.000001 0.000003 0.978646 0.000002 -0.296873
# 5 0.010046 -0.003755 0.014023 0.000002 0.032173 -0.000001
# 6 0.000000 0.000000 -0.000001 -0.296873 -0.000001 0.128529
#
#
# Mechanical properties :
#
#
# Convention : Reuss Voigt Hill
#
# Bulk Modulus (GPa) = 24.72667 45.82963 35.27815
# Shear Modulus (GPa) = 4.09751 29.71373 16.90562
#
# Velocity S-wave (km/s) = 1.30667 3.51871 2.65412
# Velocity P-wave (km/s) = 3.54680 5.96700 4.90841
#
# Compressibility (1/GPa) = 0.04044216
#
# Stress axis : x y z
#
# Youngs Moduli (GPa) = 65.94029 110.50928 33.64836
#
# Poissons Ratio (x) = 0.33180 -0.09957
# Poissons Ratio (y) = 0.19798 0.22552
# Poissons Ratio (z) = -0.19512 0.74066
#
# Static dielectric constant tensor:
#      x y z
#    x 1.876630 0.000000 -0.068260 
#    y 0.000000 1.936580 0.000000 
#    z -0.068260 0.000000 2.185510 
# 
# From -- ./inp_files/22253.got.cif
#   From: 2010.05.17/outbox.cif.g08.bks.cpg/sg15_12_cif.got.tgz:22253.got - 2010.06.03 18:47:42.
