data_PCOD9305043
_publ_section_title
;
Structure prediction by ZEFSAII (Michael W. Deem and Ramdas Pophale) SiO2 
 PCOD9305043
Probable space group: C 2/C
;
_chemical_formula_sum "Si O2"
_cell_formula_units_Z 52
_cell_length_a 5.716835
_cell_length_b 20.565848
_cell_length_c 22.805284
_cell_angle_alpha 90.000000
_cell_angle_beta 61.595706
_cell_angle_gamma 90.000000
_cell_volume 2358.464625
_symmetry_space_group_name_H-M "C 2/C"
_symmetry_group_IT_number 15
_symmetry_cell_setting 'monoclinic'
loop_
_space_group_symop_operation_xyz
x,y,z
-x,y,1/2-z
-x,-y,-z
x,-y,1/2+z
1/2+x,1/2+y,z
1/2-x,1/2+y,1/2-z
1/2-x,1/2-y,-z
1/2+x,1/2-y,1/2+z
loop_
_atom_site_type_symbol
_atom_site_label
_atom_site_fract_x
_atom_site_fract_y
_atom_site_fract_z
Si Si1 0.437068 0.617504 0.356065
Si Si2 0.163916 0.872029 0.130463
Si Si3 0.500000 0.277567 0.250000
Si Si4 0.500000 0.291138 0.750000
Si Si5 0.500000 0.076299 0.250000
Si Si6 0.609921 0.445218 0.442910
Si Si7 0.825757 0.504668 0.663858
Si Si8 0.705286 0.827460 0.003724
O O1 0.343241 0.660974 0.312319
O O2 0.326830 0.545037 0.360256
O O3 0.299199 0.648209 0.428924
O O4 0.761539 0.613835 0.312846
O O5 0.041250 0.813902 0.182505
O O6 0.016026 0.919610 0.102524
O O7 0.222324 0.922450 0.176131
O O8 0.408885 0.843942 0.062721
O O9 0.785942 0.244326 0.233174
O O10 0.656414 0.030348 0.276345
O O11 0.500000 0.500000 0.500000
O O12 0.629912 0.376292 0.474284
O O13 0.882213 0.480771 0.394268
O O14 0.750000 0.750000 0.000000
#
# Coordination Sequence:
#
# PCOD9305043 Si02
#       8
#     8   8   4   4   4   8   8   8
#     4  12  25  45  75 107 151 192 258 319 389 466
#     4  11  27  47  74 110 148 207 253 324 395 472
#     4  12  31  49  78 107 160 207 262 324 394 481
#     4  12  28  52  74 111 157 206 262 326 400 462
#     4  12  23  41  70 116 143 193 246 322 398 463
#     4  11  24  46  72 106 151 194 255 320 395 465
#     4  11  24  41  71 106 141 185 249 310 389 458
#     4  11  26  47  72 106 149 203 259 316 388 474
#
# _framework density 22.048242999999999
#
# number of rings (size 3 to 8) (size 9 to 14) (size 15 to 20)
#    0.000    0.615    1.538    5.077   10.769    3.077 
#    2.769    0.000    0.000    0.000    0.000    0.000 
#    0.000    0.000    0.000    0.000    0.000    0.000 
#
# Total GULP energy -144790.954269 kJ/mol
# GULP energy per Si atom -5568.882856 kJ/mol
# Density = 2.199806 g / cm^3
# Si number density = 22.048243 Si / 1000 Ang^3
#
#
#
# Elastic Constant Matrix: (Units=GPa)
#
#
# Indices 1 2 3 4 5 6 
#
# 1 72.6205 47.3069 29.2874 0.0000 -7.7310 0.0000
# 2 47.3069 136.4326 56.2207 0.0000 -15.4221 0.0000
# 3 29.2874 56.2207 156.7201 0.0000 -6.4540 0.0000
# 4 0.0000 0.0000 0.0000 -2.1821 0.0000 15.0466
# 5 -7.7310 -15.4221 -6.4540 0.0000 28.3957 0.0000
# 6 0.0000 0.0000 0.0000 15.0466 0.0000 24.5854
#
#
#
# Elastic Compliance Matrix: (Units=1/GPa)
#
#
# Indices 1 2 3 4 5 6 
#
# 1 0.018087 -0.005543 -0.001325 0.000000 0.001613 0.000000
# 2 -0.005543 0.010777 -0.002676 0.000000 0.003736 0.000000
# 3 -0.001325 -0.002676 0.007585 0.000000 -0.000090 0.000000
# 4 0.000000 0.000000 0.000000 -0.087789 0.000000 0.053729
# 5 0.001613 0.003736 -0.000090 0.000000 0.037664 0.000000
# 6 0.000000 0.000000 0.000000 0.053729 0.000000 0.007792
#
#
# Mechanical properties :
#
#
# Convention : Reuss Voigt Hill
#
# Bulk Modulus (GPa) = 57.60510 70.15591 63.88050
# Shear Modulus (GPa) = 263.27888 25.69034 144.48461
#
# Velocity S-wave (km/s) = 10.93936 3.41719 8.10391
# Velocity P-wave (km/s) = 13.62876 6.88897 10.79817
#
# Compressibility (1/GPa) = 0.01735958
#
# Stress axis : x y z
#
# Youngs Moduli (GPa) = 55.28721 92.79194 131.84305
#
# Poissons Ratio (x) = 0.51437 0.17471
# Poissons Ratio (y) = 0.30647 0.35284
# Poissons Ratio (z) = 0.07326 0.24833
#
# Static dielectric constant tensor:
#      x y z
#    x 2.077000 0.000000 0.205040 
#    y 0.000000 1.946970 0.000000 
#    z 0.205040 0.000000 1.844070 
# 
# From -- ./inp_files/261332.got.cif
#   From: 2010.05.17/outbox.cif.g08.bks.cpg/sg15_131_cif.got.tgz:261332.got - 2010.06.03 18:47:42.
