data_PCOD9305162
_publ_section_title
;
Structure prediction by ZEFSAII (Michael W. Deem and Ramdas Pophale) SiO2 
 PCOD9305162
Probable space group: C 2/C
;
_chemical_formula_sum "Si O2"
_cell_formula_units_Z 40
_cell_length_a 29.151419
_cell_length_b 8.697537
_cell_length_c 19.853188
_cell_angle_alpha 90.000000
_cell_angle_beta 22.040612
_cell_angle_gamma 90.000000
_cell_volume 1888.960147
_symmetry_space_group_name_H-M "C 2/C"
_symmetry_group_IT_number 15
_symmetry_cell_setting 'monoclinic'
loop_
_space_group_symop_operation_xyz
x,y,z
-x,y,1/2-z
-x,-y,-z
x,-y,1/2+z
1/2+x,1/2+y,z
1/2-x,1/2+y,1/2-z
1/2-x,1/2-y,-z
1/2+x,1/2-y,1/2+z
loop_
_atom_site_type_symbol
_atom_site_label
_atom_site_fract_x
_atom_site_fract_y
_atom_site_fract_z
Si Si1 0.189751 0.700285 0.857590
Si Si2 0.949132 0.927526 0.000984
Si Si3 0.755587 0.626967 0.394746
Si Si4 0.948477 0.198506 0.723485
Si Si5 0.411180 0.135994 0.648495
O O1 0.302748 0.583945 0.703774
O O2 0.245069 0.832483 0.830555
O O3 0.149583 0.716885 0.834486
O O4 0.058384 0.676415 0.073196
O O5 0.011580 0.759108 0.914336
O O6 0.992892 0.039849 0.882425
O O7 0.000000 0.000000 0.000000
O O8 0.853082 0.739884 0.297454
O O9 0.629460 0.662617 0.604356
O O10 0.806188 0.454566 0.331932
O O11 0.500000 0.000000 0.500000
#
# Coordination Sequence:
#
# PCOD9305162 Si02
#       5
#     8   8   8   8   8
#     4  12  21  38  69  92 130 174 218 272 325 394
#     4  12  23  41  66  99 128 173 227 272 323 394
#     4  11  24  43  65  96 134 172 219 276 334 391
#     4  11  24  43  65  96 134 172 219 276 334 391
#     4  12  23  41  66  99 128 173 227 272 323 394
#
# _framework density 21.175671999999999
#
# number of rings (size 3 to 8) (size 9 to 14) (size 15 to 20)
#    0.000    0.400    8.000    1.800    0.000    0.800 
#    0.000    0.000    0.000    0.000    0.000    0.000 
#    0.000    0.000    0.000    0.000    0.000    0.000 
#
# Total GULP energy -111533.853950 kJ/mol
# GULP energy per Si atom -5576.692698 kJ/mol
# Density = 2.112748 g / cm^3
# Si number density = 21.175672 Si / 1000 Ang^3
#
#
#
# Elastic Constant Matrix: (Units=GPa)
#
#
# Indices 1 2 3 4 5 6 
#
# 1 86.0134 37.4262 43.6163 0.0000 -8.1246 0.0000
# 2 37.4262 98.2174 54.0155 -0.0002 2.9463 -0.0001
# 3 43.6163 54.0155 179.4069 -0.0001 -14.2668 0.0000
# 4 0.0000 -0.0002 -0.0001 44.2876 0.0000 -5.5071
# 5 -8.1246 2.9463 -14.2668 0.0000 35.0765 0.0000
# 6 0.0000 -0.0001 0.0000 -5.5071 0.0000 32.3152
#
#
#
# Elastic Compliance Matrix: (Units=1/GPa)
#
#
# Indices 1 2 3 4 5 6 
#
# 1 0.014966 -0.004707 -0.001978 0.000000 0.003057 0.000000
# 2 -0.004707 0.013917 -0.003333 0.000000 -0.003615 0.000000
# 3 -0.001978 -0.003333 0.007280 0.000000 0.002783 0.000000
# 4 0.000000 0.000000 0.000000 0.023069 0.000000 0.003931
# 5 0.003057 -0.003615 0.002783 0.000000 0.030653 0.000000
# 6 0.000000 0.000000 0.000000 0.003931 0.000000 0.031615
#
#
# Mechanical properties :
#
#
# Convention : Reuss Voigt Hill
#
# Bulk Modulus (GPa) = 62.01130 70.41706 66.21418
# Shear Modulus (GPa) = 34.03444 37.57451 35.80448
#
# Velocity S-wave (km/s) = 4.01339 4.21695 4.11643
# Velocity P-wave (km/s) = 7.12911 7.55223 7.34372
#
# Compressibility (1/GPa) = 0.01612609
#
# Stress axis : x y z
#
# Youngs Moduli (GPa) = 66.81828 71.85703 137.36845
#
# Poissons Ratio (x) = 0.33820 0.27175
# Poissons Ratio (y) = 0.31449 0.45787
# Poissons Ratio (z) = 0.13218 0.23951
#
# Static dielectric constant tensor:
#      x y z
#    x 1.792070 0.000000 -0.034650 
#    y 0.000000 1.818620 0.000000 
#    z -0.034650 0.000000 1.820790 
# 
# From -- ./inp_files/247222.got.cif
#   From: 2010.05.17/outbox.cif.g08.bks.cpg/sg15_124_cif.got.tgz:247222.got - 2010.06.03 18:47:42.
