data_PCOD9305741
_publ_section_title
;
Structure prediction by ZEFSAII (Michael W. Deem and Ramdas Pophale) SiO2 
 PCOD9305741
Probable space group: C 2/C
;
_chemical_formula_sum "Si O2"
_cell_formula_units_Z 40
_cell_length_a 12.008164
_cell_length_b 14.233239
_cell_length_c 17.031582
_cell_angle_alpha 90.000000
_cell_angle_beta 149.525428
_cell_angle_gamma 90.000000
_cell_volume 1476.307553
_symmetry_space_group_name_H-M "C 2/C"
_symmetry_group_IT_number 15
_symmetry_cell_setting 'monoclinic'
loop_
_space_group_symop_operation_xyz
x,y,z
-x,y,1/2-z
-x,-y,-z
x,-y,1/2+z
1/2+x,1/2+y,z
1/2-x,1/2+y,1/2-z
1/2-x,1/2-y,-z
1/2+x,1/2-y,1/2+z
loop_
_atom_site_type_symbol
_atom_site_label
_atom_site_fract_x
_atom_site_fract_y
_atom_site_fract_z
Si Si1 0.259877 0.257344 0.389847
Si Si2 0.728949 0.535238 0.611453
Si Si3 0.500000 0.554871 0.750000
Si Si4 0.000000 0.625606 0.250000
Si Si5 0.986808 0.223959 0.856824
Si Si6 0.569934 0.942509 0.463831
O O1 0.395762 0.169078 0.504330
O O2 0.285131 0.363641 0.437827
O O3 0.371324 0.270396 0.370723
O O4 0.000000 0.237584 0.250000
O O5 0.500000 0.500000 0.500000
O O6 0.892901 0.544513 0.786305
O O7 0.433338 0.628148 0.778616
O O8 0.310936 0.487782 0.603928
O O9 0.109724 0.689368 0.251189
O O10 0.186708 0.553411 0.387014
O O11 0.250000 0.250000 0.000000
O O12 0.500000 0.000000 0.500000
#
# Coordination Sequence:
#
# PCOD9305741 Si02
#       6
#     8   8   4   4   8   8
#     4  12  27  53  79 127 173 220 278 359 434 508
#     4  12  28  51  80 118 170 224 277 348 429 513
#     4  11  24  49  80 122 158 225 284 355 410 512
#     4  11  24  49  74 114 154 217 282 333 410 496
#     4  11  24  46  82 118 168 219 285 342 421 513
#     4  12  27  50  83 122 166 222 283 349 429 506
#
# _framework density 27.094625000000001
#
# number of rings (size 3 to 8) (size 9 to 14) (size 15 to 20)
#    0.000    0.400    2.000    6.000    0.000    8.800 
#    3.600    0.000    0.000    0.000    0.000    0.000 
#    0.000    0.000    0.000    0.000    0.000    0.000 
#
# Total GULP energy -111846.479483 kJ/mol
# GULP energy per Si atom -5592.323974 kJ/mol
# Density = 2.703296 g / cm^3
# Si number density = 27.094625 Si / 1000 Ang^3
#
#
#
# Elastic Constant Matrix: (Units=GPa)
#
#
# Indices 1 2 3 4 5 6 
#
# 1 162.0974 42.1232 43.9466 -0.0015 3.7766 -0.0003
# 2 42.1232 233.5198 72.3564 0.0000 -7.9662 0.0008
# 3 43.9466 72.3564 148.1625 0.0024 8.1476 0.0027
# 4 -0.0015 0.0000 0.0024 49.8303 0.0019 5.8988
# 5 3.7766 -7.9662 8.1476 0.0019 49.2370 0.0002
# 6 -0.0003 0.0008 0.0027 5.8988 0.0002 32.3145
#
#
#
# Elastic Compliance Matrix: (Units=1/GPa)
#
#
# Indices 1 2 3 4 5 6 
#
# 1 0.006814 -0.000733 -0.001643 0.000000 -0.000369 0.000000
# 2 -0.000733 0.005200 -0.002393 0.000000 0.001294 0.000000
# 3 -0.001643 -0.002393 0.008497 0.000000 -0.001667 -0.000001
# 4 0.000000 0.000000 0.000000 0.020511 -0.000001 -0.003744
# 5 -0.000369 0.001294 -0.001667 -0.000001 0.020823 0.000000
# 6 0.000000 0.000000 -0.000001 -0.003744 0.000000 0.031629
#
#
# Mechanical properties :
#
#
# Convention : Reuss Voigt Hill
#
# Bulk Modulus (GPa) = 91.13187 95.62577 93.37882
# Shear Modulus (GPa) = 46.87335 51.96659 49.41997
#
# Velocity S-wave (km/s) = 4.16382 4.38421 4.27544
# Velocity P-wave (km/s) = 7.53819 7.81014 7.67537
#
# Compressibility (1/GPa) = 0.01097311
#
# Stress axis : x y z
#
# Youngs Moduli (GPa) = 146.76715 192.30170 117.68636
#
# Poissons Ratio (x) = 0.14088 0.19335
# Poissons Ratio (y) = 0.10752 0.28167
# Poissons Ratio (z) = 0.24112 0.46025
#
# Static dielectric constant tensor:
#      x y z
#    x 2.491000 0.000000 0.033450 
#    y 0.000000 2.117130 0.000000 
#    z 0.033450 0.000000 2.291200 
# 
# From -- ./inp_files/200480.got.cif
#   From: 2010.05.17/outbox.cif.g08.bks.cpg/sg15_101_cif.got.tgz:200480.got - 2010.06.03 18:47:42.
