data_PCOD9305906
_publ_section_title
;
Structure prediction by ZEFSAII (Michael W. Deem and Ramdas Pophale) SiO2 
 PCOD9305906
Probable space group: C 2/C
;
_chemical_formula_sum "Si O2"
_cell_formula_units_Z 48
_cell_length_a 30.942799
_cell_length_b 10.205451
_cell_length_c 21.108497
_cell_angle_alpha 90.000000
_cell_angle_beta 161.957458
_cell_angle_gamma 90.000000
_cell_volume 2064.536949
_symmetry_space_group_name_H-M "C 2/C"
_symmetry_group_IT_number 15
_symmetry_cell_setting 'monoclinic'
loop_
_space_group_symop_operation_xyz
x,y,z
-x,y,1/2-z
-x,-y,-z
x,-y,1/2+z
1/2+x,1/2+y,z
1/2-x,1/2+y,1/2-z
1/2-x,1/2-y,-z
1/2+x,1/2-y,1/2+z
loop_
_atom_site_type_symbol
_atom_site_label
_atom_site_fract_x
_atom_site_fract_y
_atom_site_fract_z
Si Si1 0.651874 0.445830 0.026481
Si Si2 0.250000 0.750000 0.500000
Si Si3 0.540777 0.175092 0.877423
Si Si4 0.067672 0.393050 0.141731
Si Si5 0.696368 0.523975 0.221823
Si Si6 0.921423 0.177846 0.856634
Si Si7 0.500000 0.315714 0.250000
O O1 0.766751 0.398584 0.136697
O O2 0.733019 0.463782 0.205469
O O3 0.535604 0.333341 0.873151
O O4 0.590002 0.583319 0.918691
O O5 0.144385 0.742643 0.292214
O O6 0.389194 0.753098 0.642860
O O7 0.500000 0.133554 0.750000
O O8 0.460250 0.104204 0.822157
O O9 0.700284 0.137398 0.113927
O O10 0.000000 0.500000 0.000000
O O11 0.995126 0.261965 0.013940
O O12 0.694315 0.412115 0.271535
O O13 0.540730 0.580149 0.997746
#
# Coordination Sequence:
#
# PCOD9305906 Si02
#       7
#     8   4   8   8   8   8   4
#     4  12  24  48  78 106 156 205 260 326 414 471
#     4  12  28  48  82 118 158 210 274 332 410 472
#     4  12  27  47  75 113 152 206 268 331 396 495
#     4  12  25  43  75 109 148 204 262 318 404 483
#     4  11  24  48  75 105 153 204 257 329 402 474
#     4  11  25  46  76 109 150 205 263 328 397 482
#     4  12  28  52  78 118 164 210 264 352 396 490
#
# _framework density 23.249763999999999
#
# number of rings (size 3 to 8) (size 9 to 14) (size 15 to 20)
#    0.000    0.333    7.500    1.000    0.000    4.667 
#    4.500    0.000    0.000    0.000    0.000    0.000 
#    0.000    0.000    0.000    0.000    0.000    0.000 
#
# Total GULP energy -133636.066943 kJ/mol
# GULP energy per Si atom -5568.169456 kJ/mol
# Density = 2.319685 g / cm^3
# Si number density = 23.249764 Si / 1000 Ang^3
#
#
#
# Elastic Constant Matrix: (Units=GPa)
#
#
# Indices 1 2 3 4 5 6 
#
# 1 197.9082 24.2891 50.8997 0.0000 -4.7510 0.0000
# 2 24.2891 41.3571 -8.6294 0.0000 3.8687 0.0000
# 3 50.8997 -8.6294 72.5452 0.0000 -3.3145 0.0000
# 4 0.0000 0.0000 0.0000 17.3542 0.0000 -0.7716
# 5 -4.7510 3.8687 -3.3145 0.0000 47.6978 0.0000
# 6 0.0000 0.0000 0.0000 -0.7716 0.0000 20.0258
#
#
#
# Elastic Compliance Matrix: (Units=1/GPa)
#
#
# Indices 1 2 3 4 5 6 
#
# 1 0.007203 -0.005486 -0.005671 0.000000 0.000768 0.000000
# 2 -0.005486 0.029130 0.007204 0.000000 -0.002408 0.000000
# 3 -0.005671 0.007204 0.018627 0.000000 0.000145 0.000000
# 4 0.000000 0.000000 0.000000 0.057722 0.000000 0.002224
# 5 0.000768 -0.002408 0.000145 0.000000 0.021247 0.000000
# 6 0.000000 0.000000 0.000000 0.002224 0.000000 0.050021
#
#
# Mechanical properties :
#
#
# Convention : Reuss Voigt Hill
#
# Bulk Modulus (GPa) = 21.25215 49.43658 35.34436
# Shear Modulus (GPa) = 24.09158 33.36564 28.72861
#
# Velocity S-wave (km/s) = 3.22251 3.79238 3.51900
# Velocity P-wave (km/s) = 4.79653 6.36283 5.63437
#
# Compressibility (1/GPa) = 0.04705406
#
# Stress axis : x y z
#
# Youngs Moduli (GPa) = 138.82814 34.32905 53.68477
#
# Poissons Ratio (x) = 0.18832 0.30447
# Poissons Ratio (y) = 0.76156 -0.38674
# Poissons Ratio (z) = 0.78734 -0.24730
#
# Static dielectric constant tensor:
#      x y z
#    x 1.908640 0.000000 0.049540 
#    y 0.000000 2.272600 0.000000 
#    z 0.049540 0.000000 1.856910 
# 
# From -- ./inp_files/259267.got.cif
#   From: 2010.05.17/outbox.cif.g08.bks.cpg/sg15_130_cif.got.tgz:259267.got - 2010.06.03 18:47:42.
