data_PCOD9305084
_publ_section_title
;
Structure prediction by ZEFSAII (Michael W. Deem and Ramdas Pophale) SiO2 
 PCOD9305084
Probable space group: C 2/C
;
_chemical_formula_sum "Si O2"
_cell_formula_units_Z 40
_cell_length_a 19.007786
_cell_length_b 6.700719
_cell_length_c 20.761452
_cell_angle_alpha 90.000000
_cell_angle_beta 40.454852
_cell_angle_gamma 90.000000
_cell_volume 1715.750271
_symmetry_space_group_name_H-M "C 2/C"
_symmetry_group_IT_number 15
_symmetry_cell_setting 'monoclinic'
loop_
_space_group_symop_operation_xyz
x,y,z
-x,y,1/2-z
-x,-y,-z
x,-y,1/2+z
1/2+x,1/2+y,z
1/2-x,1/2+y,1/2-z
1/2-x,1/2-y,-z
1/2+x,1/2-y,1/2+z
loop_
_atom_site_type_symbol
_atom_site_label
_atom_site_fract_x
_atom_site_fract_y
_atom_site_fract_z
Si Si1 0.376777 0.763558 0.116627
Si Si2 0.976848 0.590784 0.414956
Si Si3 0.373358 0.272367 0.830098
Si Si4 0.727623 0.018871 0.023864
Si Si5 0.364980 0.575634 0.718672
O O1 0.392999 0.543963 0.133994
O O2 0.250115 0.816942 0.207933
O O3 0.442002 0.923745 0.114639
O O4 0.419924 0.799974 0.014879
O O5 0.882688 0.488473 0.439754
O O6 0.044002 0.759329 0.330327
O O7 0.500000 0.231985 0.750000
O O8 0.355854 0.406449 0.779625
O O9 0.301788 0.070665 0.885797
O O10 0.326070 0.402537 0.922288
O O11 0.750000 0.250000 0.000000
#
# Coordination Sequence:
#
# PCOD9305084 Si02
#       5
#     8   8   8   8   8
#     4  11  24  42  67 103 139 185 235 286 347 420
#     4  11  24  45  68 101 141 184 238 288 353 421
#     4  11  25  45  68 101 136 180 234 288 349 412
#     4  11  25  45  70 100 136 181 233 289 348 415
#     4  12  23  43  71 100 142 184 231 291 351 416
#
# _framework density 23.313414999999999
#
# number of rings (size 3 to 8) (size 9 to 14) (size 15 to 20)
#    0.000    0.800    4.000    3.000    0.000    7.200 
#    0.000    0.000    0.000    0.000    0.000    0.000 
#    0.000    0.000    0.000    0.000    0.000    0.000 
#
# Total GULP energy -112004.831746 kJ/mol
# GULP energy per Si atom -5600.241587 kJ/mol
# Density = 2.326035 g / cm^3
# Si number density = 23.313415 Si / 1000 Ang^3
#
#
#
# Elastic Constant Matrix: (Units=GPa)
#
#
# Indices 1 2 3 4 5 6 
#
# 1 44.2262 6.0862 21.0613 -0.0001 -4.5505 0.0000
# 2 6.0862 101.3201 52.4015 0.0004 -8.1399 -0.0010
# 3 21.0613 52.4015 121.9654 0.0000 -16.7883 0.0000
# 4 -0.0001 0.0004 0.0000 42.1676 0.0001 6.3416
# 5 -4.5505 -8.1399 -16.7883 0.0001 26.3666 0.0000
# 6 0.0000 -0.0010 0.0000 6.3416 0.0000 26.2288
#
#
#
# Elastic Compliance Matrix: (Units=1/GPa)
#
#
# Indices 1 2 3 4 5 6 
#
# 1 0.024777 0.000952 -0.004448 0.000000 0.001738 0.000000
# 2 0.000952 0.012732 -0.005558 0.000000 0.000556 0.000001
# 3 -0.004448 -0.005558 0.012071 0.000000 0.005203 0.000000
# 4 0.000000 0.000000 0.000000 0.024610 0.000000 -0.005950
# 5 0.001738 0.000556 0.005203 0.000000 0.041711 0.000000
# 6 0.000000 0.000001 0.000000 -0.005950 0.000000 0.039565
#
#
# Mechanical properties :
#
#
# Convention : Reuss Voigt Hill
#
# Bulk Modulus (GPa) = 31.77493 47.40108 39.58800
# Shear Modulus (GPa) = 27.16437 31.48346 29.32391
#
# Velocity S-wave (km/s) = 3.41718 3.67883 3.55041
# Velocity P-wave (km/s) = 5.40634 6.19849 5.81592
#
# Compressibility (1/GPa) = 0.03147135
#
# Stress axis : x y z
#
# Youngs Moduli (GPa) = 40.35963 78.54426 82.84157
#
# Poissons Ratio (x) = -0.07477 0.36851
# Poissons Ratio (y) = -0.03842 0.46043
# Poissons Ratio (z) = 0.17954 0.43654
#
# Static dielectric constant tensor:
#      x y z
#    x 1.850240 0.000000 0.036240 
#    y 0.000000 1.904150 0.000000 
#    z 0.036240 0.000000 1.865110 
# 
# From -- ./inp_files/278787.got.cif
#   From: 2010.05.17/outbox.cif.g08.bks.cpg/sg15_140_cif.got.tgz:278787.got - 2010.06.03 18:47:42.
