data_PCOD9305067
_publ_section_title
;
Structure prediction by ZEFSAII (Michael W. Deem and Ramdas Pophale) SiO2 
 PCOD9305067
Probable space group: C 2/C
;
_chemical_formula_sum "Si O2"
_cell_formula_units_Z 44
_cell_length_a 18.451398
_cell_length_b 16.121779
_cell_length_c 22.902238
_cell_angle_alpha 90.000000
_cell_angle_beta 162.237620
_cell_angle_gamma 90.000000
_cell_volume 2078.355220
_symmetry_space_group_name_H-M "C 2/C"
_symmetry_group_IT_number 15
_symmetry_cell_setting 'monoclinic'
loop_
_space_group_symop_operation_xyz
x,y,z
-x,y,1/2-z
-x,-y,-z
x,-y,1/2+z
1/2+x,1/2+y,z
1/2-x,1/2+y,1/2-z
1/2-x,1/2-y,-z
1/2+x,1/2-y,1/2+z
loop_
_atom_site_type_symbol
_atom_site_label
_atom_site_fract_x
_atom_site_fract_y
_atom_site_fract_z
Si Si1 0.000000 0.074549 0.250000
Si Si2 0.782331 0.998847 0.968073
Si Si3 0.606317 0.643725 0.528540
Si Si4 0.239087 0.310737 0.047246
Si Si5 0.116614 0.705868 0.952415
Si Si6 0.268020 0.655526 0.378533
O O1 0.112500 0.021768 0.388466
O O2 0.203224 0.138116 0.383319
O O3 0.500000 0.016352 0.750000
O O4 0.912076 0.060083 0.022404
O O5 0.810594 0.906003 0.965448
O O6 0.539374 0.722969 0.437839
O O7 0.455706 0.641237 0.471662
O O8 0.883706 0.658627 0.753396
O O9 0.500000 0.351387 0.250000
O O10 0.215314 0.249581 0.084734
O O11 0.250000 0.250000 0.000000
O O12 0.997346 0.360970 0.850889
O O13 0.250000 0.750000 0.000000
#
# Coordination Sequence:
#
# PCOD9305067 Si02
#       6
#     4   8   8   8   8   8
#     4  12  24  42  70 104 128 178 240 272 328 400
#     4  12  24  45  67  97 138 185 228 276 342 416
#     4  12  22  39  67 101 145 170 223 291 348 397
#     4   9  19  42  67  92 125 173 241 274 324 413
#     4  12  20  39  69 101 132 181 231 274 325 417
#     4  11  24  42  65 102 137 177 222 296 349 390
#
# _framework density 21.170586
#
# number of rings (size 3 to 8) (size 9 to 14) (size 15 to 20)
#    0.000    0.727    5.455    3.273    0.000    0.000 
#   13.091    0.909    0.000    0.000    0.000    0.000 
#    0.000    0.000    0.000    0.000    0.000    0.000 
#
# Total GULP energy -123019.973591 kJ/mol
# GULP energy per Si atom -5591.816981 kJ/mol
# Density = 2.112240 g / cm^3
# Si number density = 21.170586 Si / 1000 Ang^3
#
#
#
# Elastic Constant Matrix: (Units=GPa)
#
#
# Indices 1 2 3 4 5 6 
#
# 1 123.5012 28.9813 35.6464 0.0041 8.5879 0.0077
# 2 28.9813 95.4340 30.4623 0.0127 -6.2519 -0.0069
# 3 35.6464 30.4623 116.6350 -0.0020 -7.9610 -0.0125
# 4 0.0041 0.0127 -0.0020 31.4677 -0.0021 -14.9164
# 5 8.5879 -6.2519 -7.9610 -0.0021 29.1905 -0.0008
# 6 0.0077 -0.0069 -0.0125 -14.9164 -0.0008 34.3046
#
#
#
# Elastic Compliance Matrix: (Units=1/GPa)
#
#
# Indices 1 2 3 4 5 6 
#
# 1 0.009694 -0.002374 -0.002621 -0.000003 -0.004075 -0.000005
# 2 -0.002374 0.012093 -0.002250 -0.000004 0.002675 0.000000
# 3 -0.002621 -0.002250 0.010171 0.000005 0.003063 0.000006
# 4 -0.000003 -0.000004 0.000005 0.040029 0.000005 0.017406
# 5 -0.004075 0.002675 0.003063 0.000005 0.036865 0.000006
# 6 -0.000005 0.000000 0.000006 0.017406 0.000006 0.036719
#
#
# Mechanical properties :
#
#
# Convention : Reuss Voigt Hill
#
# Bulk Modulus (GPa) = 57.24760 58.41672 57.83216
# Shear Modulus (GPa) = 30.14137 35.02458 32.58298
#
# Velocity S-wave (km/s) = 3.77734 4.07184 3.92735
# Velocity P-wave (km/s) = 6.79148 7.05406 6.92402
#
# Compressibility (1/GPa) = 0.01746798
#
# Stress axis : x y z
#
# Youngs Moduli (GPa) = 103.15573 82.69274 98.31392
#
# Poissons Ratio (x) = 0.19634 0.25766
# Poissons Ratio (y) = 0.24492 0.22122
# Poissons Ratio (z) = 0.27035 0.18607
#
# Static dielectric constant tensor:
#      x y z
#    x 1.717090 -0.000020 -0.016990 
#    y -0.000020 1.836820 0.000030 
#    z -0.016990 0.000030 1.780870 
# 
# From -- ./inp_files/249671.got.cif
#   From: 2010.05.17/outbox.cif.g08.bks.cpg/sg15_125_cif.got.tgz:249671.got - 2010.06.03 18:47:42.
