data_PCOD9305183
_publ_section_title
;
Structure prediction by ZEFSAII (Michael W. Deem and Ramdas Pophale) SiO2 
 PCOD9305183
Probable space group: C 2/C
;
_chemical_formula_sum "Si O2"
_cell_formula_units_Z 40
_cell_length_a 15.076419
_cell_length_b 24.604064
_cell_length_c 8.500888
_cell_angle_alpha 90.000000
_cell_angle_beta 37.962546
_cell_angle_gamma 90.000000
_cell_volume 1939.758681
_symmetry_space_group_name_H-M "C 2/C"
_symmetry_group_IT_number 15
_symmetry_cell_setting 'monoclinic'
loop_
_space_group_symop_operation_xyz
x,y,z
-x,y,1/2-z
-x,-y,-z
x,-y,1/2+z
1/2+x,1/2+y,z
1/2-x,1/2+y,1/2-z
1/2-x,1/2-y,-z
1/2+x,1/2-y,1/2+z
loop_
_atom_site_type_symbol
_atom_site_label
_atom_site_fract_x
_atom_site_fract_y
_atom_site_fract_z
Si Si1 0.404472 0.361988 0.640513
Si Si2 0.219818 0.844302 0.347968
Si Si3 0.842902 0.757000 0.526487
Si Si4 0.335173 0.055222 0.517259
Si Si5 0.150340 0.030168 0.474378
O O1 0.567150 0.349221 0.469631
O O2 0.354937 0.317008 0.583264
O O3 0.394874 0.421237 0.578050
O O4 0.308380 0.358756 0.931735
O O5 0.280048 0.783992 0.243268
O O6 0.326023 0.886935 0.116528
O O7 0.750000 0.750000 0.500000
O O8 0.000000 0.739980 0.250000
O O9 0.500000 0.039996 0.250000
O O10 0.243008 0.055232 0.486412
O O11 0.250829 0.012999 0.746797
O O12 0.000000 0.005489 0.750000
#
# Coordination Sequence:
#
# PCOD9305183 Si02
#       5
#     8   8   8   8   8
#     4  11  24  43  68 100 131 175 225 274 323 400
#     4  11  24  43  68  98 135 172 224 273 331 395
#     4  12  23  43  67  96 133 172 219 272 332 392
#     4  12  26  44  68 102 138 173 219 281 337 388
#     4  12  24  44  71  99 132 178 229 267 330 404
#
# _framework density 20.621120999999999
#
# number of rings (size 3 to 8) (size 9 to 14) (size 15 to 20)
#    0.000    0.400    4.000    5.400    2.800    0.000 
#    0.000    2.000    0.000    0.000    0.000    0.000 
#    0.000    0.000    0.000    0.000    0.000    0.000 
#
# Total GULP energy -111969.737308 kJ/mol
# GULP energy per Si atom -5598.486865 kJ/mol
# Density = 2.057419 g / cm^3
# Si number density = 20.621121 Si / 1000 Ang^3
#
#
#
# Elastic Constant Matrix: (Units=GPa)
#
#
# Indices 1 2 3 4 5 6 
#
# 1 95.5931 -0.8193 41.5276 0.0000 0.7979 0.0000
# 2 -0.8193 77.9210 25.4031 0.0000 3.7801 0.0000
# 3 41.5276 25.4031 134.5011 0.0000 -10.6515 0.0000
# 4 0.0000 0.0000 0.0000 36.3525 0.0000 5.3951
# 5 0.7979 3.7801 -10.6515 0.0000 37.5096 0.0000
# 6 0.0000 0.0000 0.0000 5.3951 0.0000 25.2103
#
#
#
# Elastic Compliance Matrix: (Units=1/GPa)
#
#
# Indices 1 2 3 4 5 6 
#
# 1 0.012328 0.001589 -0.004235 0.000000 -0.001625 0.000000
# 2 0.001589 0.014054 -0.003335 0.000000 -0.002397 0.000000
# 3 -0.004235 -0.003335 0.009622 0.000000 0.003159 0.000000
# 4 0.000000 0.000000 0.000000 0.028411 0.000000 -0.006080
# 5 -0.001625 -0.002397 0.003159 0.000000 0.027833 0.000000
# 6 0.000000 0.000000 0.000000 -0.006080 0.000000 0.040968
#
#
# Mechanical properties :
#
#
# Convention : Reuss Voigt Hill
#
# Bulk Modulus (GPa) = 41.59278 48.91531 45.25405
# Shear Modulus (GPa) = 32.63896 35.94140 34.29018
#
# Velocity S-wave (km/s) = 3.98275 4.17938 4.08225
# Velocity P-wave (km/s) = 6.43145 6.86019 6.64927
#
# Compressibility (1/GPa) = 0.02404263
#
# Stress axis : x y z
#
# Youngs Moduli (GPa) = 81.11600 71.15573 103.92339
#
# Poissons Ratio (x) = -0.11308 0.44013
# Poissons Ratio (y) = -0.12891 0.34656
# Poissons Ratio (z) = 0.34354 0.23729
#
# Static dielectric constant tensor:
#      x y z
#    x 1.704490 0.000000 0.016440 
#    y 0.000000 1.709650 0.000000 
#    z 0.016440 0.000000 1.726910 
# 
# From -- ./inp_files/41937.got.cif
#   From: 2010.05.17/outbox.cif.g08.bks.cpg/sg15_21_cif.got.tgz:41937.got - 2010.06.03 18:47:42.
