data_PCOD9305241
_publ_section_title
;
Structure prediction by ZEFSAII (Michael W. Deem and Ramdas Pophale) SiO2 
 PCOD9305241
Probable space group: C 2/C
;
_chemical_formula_sum "Si O2"
_cell_formula_units_Z 60
_cell_length_a 27.958190
_cell_length_b 11.397299
_cell_length_c 18.662855
_cell_angle_alpha 90.000000
_cell_angle_beta 25.250136
_cell_angle_gamma 90.000000
_cell_volume 2536.765294
_symmetry_space_group_name_H-M "C 2/C"
_symmetry_group_IT_number 15
_symmetry_cell_setting 'monoclinic'
loop_
_space_group_symop_operation_xyz
x,y,z
-x,y,1/2-z
-x,-y,-z
x,-y,1/2+z
1/2+x,1/2+y,z
1/2-x,1/2+y,1/2-z
1/2-x,1/2-y,-z
1/2+x,1/2-y,1/2+z
loop_
_atom_site_type_symbol
_atom_site_label
_atom_site_fract_x
_atom_site_fract_y
_atom_site_fract_z
Si Si1 0.214381 0.522820 0.840018
Si Si2 0.804321 0.627178 0.407714
Si Si3 0.961980 0.702260 0.429307
Si Si4 0.945446 0.131324 0.570870
Si Si5 0.318469 0.398769 0.566046
Si Si6 0.802358 0.592522 0.992262
Si Si7 0.500000 0.431869 0.750000
Si Si8 0.410709 0.733630 0.248283
O O1 0.314673 0.605128 0.734944
O O2 0.271750 0.435621 0.706147
O O3 0.162986 0.449856 0.976088
O O4 0.122244 0.604096 0.926509
O O5 0.750000 0.750000 0.500000
O O6 0.781212 0.604952 0.355741
O O7 0.750469 0.522574 0.525499
O O8 0.935025 0.636897 0.246916
O O9 0.885632 0.777632 0.479590
O O10 0.017126 0.794785 0.410186
O O11 0.994340 0.208092 0.438736
O O12 0.000000 0.000000 0.500000
O O13 0.409851 0.491124 0.414403
O O14 0.706141 0.691340 0.129240
O O15 0.890595 0.642843 0.814968
O O16 0.563210 0.351731 0.721153
#
# Coordination Sequence:
#
# PCOD9305241 Si02
#       8
#     8   8   8   8   8   8   4   8
#     4  12  27  47  77 108 153 198 261 321 385 468
#     4  12  27  48  76 106 153 198 251 319 383 460
#     4  12  27  46  75 108 145 202 249 319 387 455
#     4  12  22  48  78 107 147 207 259 319 386 473
#     4  12  25  46  75 107 146 198 262 307 377 477
#     4  11  25  47  69 111 152 196 247 321 389 450
#     4  12  22  42  74 110 138 196 258 306 376 468
#     4  11  24  43  74 105 153 195 251 317 388 458
#
# _framework density 23.652168
#
# number of rings (size 3 to 8) (size 9 to 14) (size 15 to 20)
#    0.000    0.267    5.333    3.200    1.867    4.267 
#    4.800    0.000    0.000    0.000    0.000    0.000 
#    0.000    0.000    0.000    0.000    0.000    0.000 
#
# Total GULP energy -167957.539475 kJ/mol
# GULP energy per Si atom -5598.584649 kJ/mol
# Density = 2.359833 g / cm^3
# Si number density = 23.652168 Si / 1000 Ang^3
#
#
#
# Elastic Constant Matrix: (Units=GPa)
#
#
# Indices 1 2 3 4 5 6 
#
# 1 79.5092 17.2353 19.0240 0.0000 10.7868 0.0000
# 2 17.2353 87.1328 25.4444 0.0001 4.2663 0.0000
# 3 19.0240 25.4444 70.4489 0.0000 -8.2426 0.0000
# 4 0.0000 0.0001 0.0000 33.7520 0.0000 2.3112
# 5 10.7868 4.2663 -8.2426 0.0000 42.9864 0.0000
# 6 0.0000 0.0000 0.0000 2.3112 0.0000 31.9817
#
#
#
# Elastic Compliance Matrix: (Units=1/GPa)
#
#
# Indices 1 2 3 4 5 6 
#
# 1 0.014392 -0.001524 -0.003827 0.000000 -0.004194 0.000000
# 2 -0.001524 0.013200 -0.004567 0.000000 -0.001803 0.000000
# 3 -0.003827 -0.004567 0.017434 0.000000 0.004757 0.000000
# 4 0.000000 0.000000 0.000000 0.029775 0.000000 -0.002152
# 5 -0.004194 -0.001803 0.004757 0.000000 0.025407 0.000000
# 6 0.000000 0.000000 0.000000 -0.002152 0.000000 0.031423
#
#
# Mechanical properties :
#
#
# Convention : Reuss Voigt Hill
#
# Bulk Modulus (GPa) = 39.69699 40.05539 39.87619
# Shear Modulus (GPa) = 31.27660 33.43651 32.35656
#
# Velocity S-wave (km/s) = 3.64037 3.76397 3.70268
# Velocity P-wave (km/s) = 5.87280 5.98848 5.93092
#
# Compressibility (1/GPa) = 0.02519082
#
# Stress axis : x y z
#
# Youngs Moduli (GPa) = 69.48250 75.75673 57.35900
#
# Poissons Ratio (x) = 0.11545 0.21950
# Poissons Ratio (y) = 0.10589 0.26196
# Poissons Ratio (z) = 0.26589 0.34598
#
# Static dielectric constant tensor:
#      x y z
#    x 1.886720 0.000000 -0.021610 
#    y 0.000000 1.905170 0.000000 
#    z -0.021610 0.000000 1.929960 
# 
# From -- ./inp_files/222531.got.cif
#   From: 2010.05.17/outbox.cif.g08.bks.cpg/sg15_112_cif.got.tgz:222531.got - 2010.06.03 18:47:42.
