data_PCOD9305903
_publ_section_title
;
Structure prediction by ZEFSAII (Michael W. Deem and Ramdas Pophale) SiO2 
 PCOD9305903
Probable space group: C 2/C
;
_chemical_formula_sum "Si O2"
_cell_formula_units_Z 32
_cell_length_a 7.667989
_cell_length_b 10.007648
_cell_length_c 22.323312
_cell_angle_alpha 90.000000
_cell_angle_beta 126.548579
_cell_angle_gamma 90.000000
_cell_volume 1376.189191
_symmetry_space_group_name_H-M "C 2/C"
_symmetry_group_IT_number 15
_symmetry_cell_setting 'monoclinic'
loop_
_space_group_symop_operation_xyz
x,y,z
-x,y,1/2-z
-x,-y,-z
x,-y,1/2+z
1/2+x,1/2+y,z
1/2-x,1/2+y,1/2-z
1/2-x,1/2-y,-z
1/2+x,1/2-y,1/2+z
loop_
_atom_site_type_symbol
_atom_site_label
_atom_site_fract_x
_atom_site_fract_y
_atom_site_fract_z
Si Si1 0.891878 0.635447 0.956316
Si Si2 0.036250 0.321183 0.166930
Si Si3 0.441623 0.290702 0.397293
Si Si4 0.828588 0.404432 0.768849
O O1 0.958138 0.674786 0.903267
O O2 0.631989 0.621240 0.908097
O O3 0.000000 0.500000 0.000000
O O4 0.972800 0.745843 0.020142
O O5 0.192872 0.438714 0.222729
O O6 0.116851 0.178813 0.207252
O O7 0.795613 0.351442 0.141719
O O8 0.417960 0.164097 0.347924
O O9 0.000000 0.384039 0.750000
#
# Coordination Sequence:
#
# PCOD9305903 Si02
#       4
#     8   8   8   8
#     4  11  24  48  75 104 145 191 241 301 358 429
#     4  12  27  48  75 109 144 194 240 299 365 428
#     4  11  25  47  72 107 142 189 245 294 362 429
#     4  12  25  47  72 106 148 188 244 294 360 435
#
# _framework density 23.252616
#
# number of rings (size 3 to 8) (size 9 to 14) (size 15 to 20)
#    0.000    0.500    5.000    3.000    0.000    7.000 
#    4.500    0.000    0.000    0.000    0.000    0.000 
#    0.000    0.000    0.000    0.000    0.000    0.000 
#
# Total GULP energy -89647.782830 kJ/mol
# GULP energy per Si atom -5602.986427 kJ/mol
# Density = 2.319969 g / cm^3
# Si number density = 23.252616 Si / 1000 Ang^3
#
#
#
# Elastic Constant Matrix: (Units=GPa)
#
#
# Indices 1 2 3 4 5 6 
#
# 1 113.5523 18.0266 41.4283 0.0000 -10.3561 0.0000
# 2 18.0266 77.8626 23.4159 0.0000 8.1143 0.0000
# 3 41.4283 23.4159 122.5158 0.0000 -31.3501 0.0000
# 4 0.0000 0.0000 0.0000 35.9409 0.0000 6.9675
# 5 -10.3561 8.1143 -31.3501 0.0000 57.3705 0.0000
# 6 0.0000 0.0000 0.0000 6.9675 0.0000 22.6157
#
#
#
# Elastic Compliance Matrix: (Units=1/GPa)
#
#
# Indices 1 2 3 4 5 6 
#
# 1 0.010195 -0.001476 -0.003070 0.000000 0.000371 0.000000
# 2 -0.001476 0.014632 -0.003366 0.000000 -0.004175 0.000000
# 3 -0.003070 -0.003366 0.011421 0.000000 0.006163 0.000000
# 4 0.000000 0.000000 0.000000 0.029591 0.000000 -0.009116
# 5 0.000371 -0.004175 0.006163 0.000000 0.021456 0.000000
# 6 0.000000 0.000000 0.000000 -0.009116 0.000000 0.047026
#
#
# Mechanical properties :
#
#
# Convention : Reuss Voigt Hill
#
# Bulk Modulus (GPa) = 48.96248 53.29692 51.12970
# Shear Modulus (GPa) = 31.85697 38.58942 35.22320
#
# Velocity S-wave (km/s) = 3.70542 4.07821 3.89627
# Velocity P-wave (km/s) = 6.27768 6.71910 6.50214
#
# Compressibility (1/GPa) = 0.02042380
#
# Stress axis : x y z
#
# Youngs Moduli (GPa) = 98.08920 68.34262 87.56022
#
# Poissons Ratio (x) = 0.10085 0.26884
# Poissons Ratio (y) = 0.14474 0.29473
# Poissons Ratio (z) = 0.30117 0.23004
#
# Static dielectric constant tensor:
#      x y z
#    x 1.858000 0.000000 0.014720 
#    y 0.000000 1.844590 0.000000 
#    z 0.014720 0.000000 1.862660 
# 
# From -- ./inp_files/230082.got.cif
#   From: 2010.05.17/outbox.cif.g08.bks.cpg/sg15_116_cif.got.tgz:230082.got - 2010.06.03 18:47:42.
