data_PCOD9305420
_publ_section_title
;
Structure prediction by ZEFSAII (Michael W. Deem and Ramdas Pophale) SiO2 
 PCOD9305420
Probable space group: C 2/C
;
_chemical_formula_sum "Si O2"
_cell_formula_units_Z 36
_cell_length_a 10.045815
_cell_length_b 10.246651
_cell_length_c 13.819356
_cell_angle_alpha 90.000000
_cell_angle_beta 115.226872
_cell_angle_gamma 90.000000
_cell_volume 1286.840131
_symmetry_space_group_name_H-M "C 2/C"
_symmetry_group_IT_number 15
_symmetry_cell_setting 'monoclinic'
loop_
_space_group_symop_operation_xyz
x,y,z
-x,y,1/2-z
-x,-y,-z
x,-y,1/2+z
1/2+x,1/2+y,z
1/2-x,1/2+y,1/2-z
1/2-x,1/2-y,-z
1/2+x,1/2-y,1/2+z
loop_
_atom_site_type_symbol
_atom_site_label
_atom_site_fract_x
_atom_site_fract_y
_atom_site_fract_z
Si Si1 0.219737 0.003966 0.023523
Si Si2 0.998216 0.633831 0.911174
Si Si3 0.500000 0.659485 0.250000
Si Si4 0.515605 0.691976 0.584125
Si Si5 0.694483 0.090414 0.244116
O O1 0.289987 0.082864 0.135439
O O2 0.353261 0.937831 0.009418
O O3 0.125140 0.894482 0.051452
O O4 0.109821 0.089836 0.925379
O O5 0.047570 0.744283 0.850916
O O6 0.894327 0.534986 0.821649
O O7 0.938099 0.706747 0.986231
O O8 0.357408 0.589009 0.248670
O O9 0.610208 0.777425 0.687131
#
# Coordination Sequence:
#
# PCOD9305420 Si02
#       5
#     8   8   4   8   8
#     4  11  24  44  75 103 142 183 229 288 349 409
#     4  12  23  47  71 102 142 184 231 288 344 411
#     4  12  24  44  74  96 144 188 226 286 350 408
#     4  11  25  44  73 106 136 185 237 278 350 420
#     4  12  24  43  72 108 135 184 234 283 349 409
#
# _framework density 27.975504999999998
#
# number of rings (size 3 to 8) (size 9 to 14) (size 15 to 20)
#    0.000    0.444    6.667    1.333    0.000    0.889 
#    0.000    4.444    0.000    0.000    0.000    0.000 
#    0.000    0.000    0.000    0.000    0.000    0.000 
#
# Total GULP energy -101171.550013 kJ/mol
# GULP energy per Si atom -5620.641667 kJ/mol
# Density = 2.791183 g / cm^3
# Si number density = 27.975505 Si / 1000 Ang^3
#
#
#
# Elastic Constant Matrix: (Units=GPa)
#
#
# Indices 1 2 3 4 5 6 
#
# 1 142.4984 35.4053 12.1251 0.0000 23.2805 0.0000
# 2 35.4053 99.9726 38.0383 0.0000 18.5574 0.0000
# 3 12.1251 38.0383 122.7001 0.0000 3.2413 0.0000
# 4 0.0000 0.0000 0.0000 46.2602 0.0000 20.1534
# 5 23.2805 18.5574 3.2413 0.0000 51.6890 0.0000
# 6 0.0000 0.0000 0.0000 20.1534 0.0000 44.3139
#
#
#
# Elastic Compliance Matrix: (Units=1/GPa)
#
#
# Indices 1 2 3 4 5 6 
#
# 1 0.008053 -0.002335 0.000002 0.000000 -0.002789 0.000000
# 2 -0.002335 0.012841 -0.003662 0.000000 -0.003329 0.000000
# 3 0.000002 -0.003662 0.009266 0.000000 0.000733 0.000000
# 4 0.000000 0.000000 0.000000 0.026958 0.000000 -0.012260
# 5 -0.002789 -0.003329 0.000733 0.000000 0.021752 0.000000
# 6 0.000000 0.000000 0.000000 -0.012260 0.000000 0.028142
#
#
# Mechanical properties :
#
#
# Convention : Reuss Voigt Hill
#
# Bulk Modulus (GPa) = 55.03846 59.58984 57.31415
# Shear Modulus (GPa) = 39.98108 47.09277 43.53692
#
# Velocity S-wave (km/s) = 3.78451 4.10732 3.94922
# Velocity P-wave (km/s) = 6.23002 6.62121 6.42859
#
# Compressibility (1/GPa) = 0.01816911
#
# Stress axis : x y z
#
# Youngs Moduli (GPa) = 124.17297 77.87540 107.92465
#
# Poissons Ratio (x) = 0.18184 -0.00019
# Poissons Ratio (y) = 0.28995 0.39524
# Poissons Ratio (z) = -0.00022 0.28519
#
# Static dielectric constant tensor:
#      x y z
#    x 2.107830 0.000000 0.013460 
#    y 0.000000 2.188700 0.000000 
#    z 0.013460 0.000000 2.112420 
# 
# From -- ./inp_files/195779.got.cif
#   From: 2010.05.17/outbox.cif.g08.bks.cpg/sg15_98_cif.got.tgz:195779.got - 2010.06.03 18:47:42.
