data_PCOD9305729
_publ_section_title
;
Structure prediction by ZEFSAII (Michael W. Deem and Ramdas Pophale) SiO2 
 PCOD9305729
Probable space group: C 2/C
;
_chemical_formula_sum "Si O2"
_cell_formula_units_Z 32
_cell_length_a 5.045977
_cell_length_b 23.785315
_cell_length_c 14.723799
_cell_angle_alpha 90.000000
_cell_angle_beta 126.120866
_cell_angle_gamma 90.000000
_cell_volume 1427.462145
_symmetry_space_group_name_H-M "C 2/C"
_symmetry_group_IT_number 15
_symmetry_cell_setting 'monoclinic'
loop_
_space_group_symop_operation_xyz
x,y,z
-x,y,1/2-z
-x,-y,-z
x,-y,1/2+z
1/2+x,1/2+y,z
1/2-x,1/2+y,1/2-z
1/2-x,1/2-y,-z
1/2+x,1/2-y,1/2+z
loop_
_atom_site_type_symbol
_atom_site_label
_atom_site_fract_x
_atom_site_fract_y
_atom_site_fract_z
Si Si1 0.885194 0.109350 0.820775
Si Si2 0.230105 0.315281 0.973642
Si Si3 0.539287 0.361488 0.863979
Si Si4 0.880453 0.989666 0.869923
O O1 0.500000 0.102673 0.750000
O O2 0.000000 0.135426 0.750000
O O3 0.030098 0.046190 0.856265
O O4 0.985486 0.148931 0.922445
O O5 0.281428 0.331124 0.878391
O O6 0.903706 0.339252 0.954468
O O7 0.250000 0.250000 0.000000
O O8 0.500000 0.348601 0.750000
O O9 0.518544 0.428584 0.873123
O O10 0.500000 0.986334 0.750000
O O11 0.000000 0.000000 0.000000
#
# Coordination Sequence:
#
# PCOD9305729 Si02
#       4
#     8   8   8   8
#     4  11  25  45  70 103 145 191 242 307 380 452
#     4  12  27  47  73 106 145 198 258 314 377 453
#     4  12  26  47  75 107 148 193 251 316 391 456
#     4  11  24  46  77 113 156 196 255 315 397 464
#
# _framework density 22.417406
#
# number of rings (size 3 to 8) (size 9 to 14) (size 15 to 20)
#    0.000    0.500    2.500    5.250    3.500    6.000 
#    0.000    0.000    0.000    0.000    0.000    0.000 
#    0.000    0.000    0.000    0.000    0.000    0.000 
#
# Total GULP energy -89259.454678 kJ/mol
# GULP energy per Si atom -5578.715917 kJ/mol
# Density = 2.236638 g / cm^3
# Si number density = 22.417406 Si / 1000 Ang^3
#
#
#
# Elastic Constant Matrix: (Units=GPa)
#
#
# Indices 1 2 3 4 5 6 
#
# 1 104.5158 39.3744 30.3668 0.0000 -14.2836 0.0000
# 2 39.3744 183.4555 40.9768 0.0000 9.9540 0.0000
# 3 30.3668 40.9768 123.2052 0.0000 -21.9037 0.0000
# 4 0.0000 0.0000 0.0000 40.4467 0.0000 28.3487
# 5 -14.2836 9.9540 -21.9037 0.0000 51.3956 0.0000
# 6 0.0000 0.0000 0.0000 28.3487 0.0000 44.0356
#
#
#
# Elastic Compliance Matrix: (Units=1/GPa)
#
#
# Indices 1 2 3 4 5 6 
#
# 1 0.011247 -0.002235 -0.001511 0.000000 0.002915 0.000000
# 2 -0.002235 0.006558 -0.002128 0.000000 -0.002798 0.000000
# 3 -0.001511 -0.002128 0.009949 0.000000 0.004232 0.000000
# 4 0.000000 0.000000 0.000000 0.045052 0.000000 -0.029003
# 5 0.002915 -0.002798 0.004232 0.000000 0.022612 0.000000
# 6 0.000000 0.000000 0.000000 -0.029003 0.000000 0.041380
#
#
# Mechanical properties :
#
#
# Convention : Reuss Voigt Hill
#
# Bulk Modulus (GPa) = 62.47008 70.29029 66.38019
# Shear Modulus (GPa) = 32.49290 47.20615 39.84952
#
# Velocity S-wave (km/s) = 3.81129 4.59386 4.22075
# Velocity P-wave (km/s) = 6.87715 7.71760 7.30946
#
# Compressibility (1/GPa) = 0.01600766
#
# Stress axis : x y z
#
# Youngs Moduli (GPa) = 88.91220 152.49595 100.51338
#
# Poissons Ratio (x) = 0.34077 0.15185
# Poissons Ratio (y) = 0.19869 0.21385
# Poissons Ratio (z) = 0.13432 0.32445
#
# Static dielectric constant tensor:
#      x y z
#    x 1.778010 0.000000 -0.026580 
#    y 0.000000 1.771430 0.000000 
#    z -0.026580 0.000000 1.923120 
# 
# From -- ./inp_files/71860.got.cif
#   From: 2010.05.17/outbox.cif.g08.bks.cpg/sg15_36_cif.got.tgz:71860.got - 2010.06.03 18:47:42.
