data_PCOD9305908
_publ_section_title
;
Structure prediction by ZEFSAII (Michael W. Deem and Ramdas Pophale) SiO2 
 PCOD9305908
Probable space group: C 2/C
;
_chemical_formula_sum "Si O2"
_cell_formula_units_Z 32
_cell_length_a 7.684426
_cell_length_b 15.546524
_cell_length_c 15.328926
_cell_angle_alpha 90.000000
_cell_angle_beta 129.953774
_cell_angle_gamma 90.000000
_cell_volume 1403.796636
_symmetry_space_group_name_H-M "C 2/C"
_symmetry_group_IT_number 15
_symmetry_cell_setting 'monoclinic'
loop_
_space_group_symop_operation_xyz
x,y,z
-x,y,1/2-z
-x,-y,-z
x,-y,1/2+z
1/2+x,1/2+y,z
1/2-x,1/2+y,1/2-z
1/2-x,1/2-y,-z
1/2+x,1/2-y,1/2+z
loop_
_atom_site_type_symbol
_atom_site_label
_atom_site_fract_x
_atom_site_fract_y
_atom_site_fract_z
Si Si1 0.439130 0.900067 0.981309
Si Si2 0.673622 0.141107 0.242338
Si Si3 0.433030 0.401165 0.500759
Si Si4 0.434055 0.325565 0.138723
O O1 0.294842 0.890290 0.845772
O O2 0.305981 0.887214 0.028501
O O3 0.662992 0.840107 0.045682
O O4 0.500000 0.000000 0.000000
O O5 0.500000 0.088676 0.250000
O O6 0.544493 0.231526 0.184818
O O7 0.895171 0.140490 0.373159
O O8 0.500000 0.500000 0.500000
O O9 0.458486 0.358724 0.415330
O O10 0.500000 0.373428 0.250000
#
# Coordination Sequence:
#
# PCOD9305908 Si02
#       4
#     8   8   8   8
#     4  12  25  46  77 108 147 197 252 312 378 447
#     4  11  24  48  75 105 155 194 244 314 382 448
#     4  12  26  48  76 111 149 197 256 315 379 453
#     4  11  27  48  72 106 156 194 247 314 379 447
#
# _framework density 22.795325999999999
#
# number of rings (size 3 to 8) (size 9 to 14) (size 15 to 20)
#    0.000    0.500    5.000    1.500    7.000    2.000 
#    9.000    0.000    0.000    0.000    0.000    0.000 
#    0.000    0.000    0.000    0.000    0.000    0.000 
#
# Total GULP energy -89264.851102 kJ/mol
# GULP energy per Si atom -5579.053194 kJ/mol
# Density = 2.274344 g / cm^3
# Si number density = 22.795326 Si / 1000 Ang^3
#
#
#
# Elastic Constant Matrix: (Units=GPa)
#
#
# Indices 1 2 3 4 5 6 
#
# 1 196.0667 35.6803 62.9997 0.0000 -48.9613 0.0000
# 2 35.6803 98.2763 51.1835 0.0000 -6.2421 0.0000
# 3 62.9997 51.1835 176.3682 0.0000 -47.8692 0.0000
# 4 0.0000 0.0000 0.0000 19.8886 0.0000 -6.2709
# 5 -48.9613 -6.2421 -47.8692 0.0000 56.2783 0.0000
# 6 0.0000 0.0000 0.0000 -6.2709 0.0000 23.1793
#
#
#
# Elastic Compliance Matrix: (Units=1/GPa)
#
#
# Indices 1 2 3 4 5 6 
#
# 1 0.006961 -0.001953 -0.000435 0.000000 0.005469 0.000000
# 2 -0.001953 0.012733 -0.003998 0.000000 -0.003688 0.000000
# 3 -0.000435 -0.003998 0.008793 0.000000 0.006657 0.000000
# 4 0.000000 0.000000 0.000000 0.054969 0.000000 0.014871
# 5 0.005469 -0.003688 0.006657 0.000000 0.027780 0.000000
# 6 0.000000 0.000000 0.000000 0.014871 0.000000 0.047165
#
#
# Mechanical properties :
#
#
# Convention : Reuss Voigt Hill
#
# Bulk Modulus (GPa) = 63.64304 85.60424 74.62364
# Shear Modulus (GPa) = 28.34264 41.25908 34.80086
#
# Velocity S-wave (km/s) = 3.52995 4.25900 3.91150
# Velocity P-wave (km/s) = 6.67787 7.86259 7.29433
#
# Compressibility (1/GPa) = 0.01571264
#
# Stress axis : x y z
#
# Youngs Moduli (GPa) = 143.64796 78.53765 113.73308
#
# Poissons Ratio (x) = 0.15341 0.04951
# Poissons Ratio (y) = 0.28059 0.45475
# Poissons Ratio (z) = 0.06253 0.31403
#
# Static dielectric constant tensor:
#      x y z
#    x 2.089780 0.000000 -0.159990 
#    y 0.000000 1.836770 0.000000 
#    z -0.159990 0.000000 2.075620 
# 
# From -- ./inp_files/134081.got.cif
#   From: 2010.05.17/outbox.cif.g08.bks.cpg/sg15_68_cif.got.tgz:134081.got - 2010.06.03 18:47:42.
