data_PCOD9305262
_publ_section_title
;
Structure prediction by ZEFSAII (Michael W. Deem and Ramdas Pophale) SiO2 
 PCOD9305262
Probable space group: C 2/C
;
_chemical_formula_sum "Si O2"
_cell_formula_units_Z 40
_cell_length_a 21.522697
_cell_length_b 6.154242
_cell_length_c 21.108467
_cell_angle_alpha 90.000000
_cell_angle_beta 141.550233
_cell_angle_gamma 90.000000
_cell_volume 1738.594939
_symmetry_space_group_name_H-M "C 2/C"
_symmetry_group_IT_number 15
_symmetry_cell_setting 'monoclinic'
loop_
_space_group_symop_operation_xyz
x,y,z
-x,y,1/2-z
-x,-y,-z
x,-y,1/2+z
1/2+x,1/2+y,z
1/2-x,1/2+y,1/2-z
1/2-x,1/2-y,-z
1/2+x,1/2-y,1/2+z
loop_
_atom_site_type_symbol
_atom_site_label
_atom_site_fract_x
_atom_site_fract_y
_atom_site_fract_z
Si Si1 0.759375 0.796810 0.934440
Si Si2 0.461195 0.748144 0.546076
Si Si3 0.369585 0.943521 0.366439
Si Si4 0.427773 0.524604 0.754573
Si Si5 0.755681 0.712441 0.657409
O O1 0.656339 0.713043 0.821326
O O2 0.779405 0.036323 0.921998
O O3 0.750000 0.750000 0.000000
O O4 0.863315 0.676236 0.004602
O O5 0.413621 0.728734 0.436961
O O6 0.511532 0.571509 0.632204
O O7 0.541868 0.934133 0.598626
O O8 0.286699 0.896973 0.248381
O O9 0.322787 0.108770 0.380631
O O10 0.500000 0.513921 0.750000
O O11 0.355952 0.318858 0.708047
#
# Coordination Sequence:
#
# PCOD9305262 Si02
#       5
#     8   8   8   8   8
#     4  12  26  49  73 103 149 188 246 309 361 442
#     4  11  24  46  74 104 145 192 247 298 373 435
#     4  11  24  43  76 109 147 194 243 301 377 438
#     4  12  26  48  72 106 144 197 250 306 366 432
#     4  12  26  47  76 108 151 192 246 306 372 438
#
# _framework density 23.007083999999999
#
# number of rings (size 3 to 8) (size 9 to 14) (size 15 to 20)
#    0.000    0.400    6.000    2.400    0.000    8.000 
#    0.000    0.000    0.000    0.000    0.000    0.000 
#    0.000    0.000    0.000    0.000    0.000    0.000 
#
# Total GULP energy -111497.462417 kJ/mol
# GULP energy per Si atom -5574.873121 kJ/mol
# Density = 2.295472 g / cm^3
# Si number density = 23.007084 Si / 1000 Ang^3
#
#
#
# Elastic Constant Matrix: (Units=GPa)
#
#
# Indices 1 2 3 4 5 6 
#
# 1 108.9825 33.3875 34.6265 0.0004 10.8416 0.0002
# 2 33.3875 58.0560 33.6867 0.0007 -11.4824 0.0005
# 3 34.6265 33.6867 120.9057 0.0001 -7.6015 0.0000
# 4 0.0004 0.0007 0.0001 13.1424 -0.0001 2.3753
# 5 10.8416 -11.4824 -7.6015 -0.0001 52.2600 0.0000
# 6 0.0002 0.0005 0.0000 2.3753 0.0000 37.9928
#
#
#
# Elastic Compliance Matrix: (Units=1/GPa)
#
#
# Indices 1 2 3 4 5 6 
#
# 1 0.012300 -0.006833 -0.001891 0.000000 -0.004328 0.000000
# 2 -0.006833 0.025082 -0.004639 -0.000001 0.006254 0.000000
# 3 -0.001891 -0.004639 0.010158 0.000000 0.000851 0.000000
# 4 0.000000 -0.000001 0.000000 0.076959 0.000000 -0.004811
# 5 -0.004328 0.006254 0.000851 0.000000 0.021531 0.000000
# 6 0.000000 0.000000 0.000000 -0.004811 0.000000 0.026622
#
#
# Mechanical properties :
#
#
# Convention : Reuss Voigt Hill
#
# Bulk Modulus (GPa) = 48.03803 54.59394 51.31599
# Shear Modulus (GPa) = 24.23464 33.09527 28.66495
#
# Velocity S-wave (km/s) = 3.24906 3.79685 3.53359
# Velocity P-wave (km/s) = 5.91610 6.55760 6.24509
#
# Compressibility (1/GPa) = 0.02081684
#
# Stress axis : x y z
#
# Youngs Moduli (GPa) = 81.29812 39.86853 98.44072
#
# Poissons Ratio (x) = 0.27240 0.18617
# Poissons Ratio (y) = 0.55547 0.45662
# Poissons Ratio (z) = 0.15375 0.18493
#
# Static dielectric constant tensor:
#      x y z
#    x 1.889900 0.000000 -0.060160 
#    y 0.000000 1.656390 0.000000 
#    z -0.060160 0.000000 2.003000 
# 
# From -- ./inp_files/279093.got.cif
#   From: 2010.05.17/outbox.cif.g08.bks.cpg/sg15_140_cif.got.tgz:279093.got - 2010.06.03 18:47:42.
