data_PCOD9305844
_publ_section_title
;
Structure prediction by ZEFSAII (Michael W. Deem and Ramdas Pophale) SiO2 
 PCOD9305844
Probable space group: C 2/C
;
_chemical_formula_sum "Si O2"
_cell_formula_units_Z 52
_cell_length_a 19.720459
_cell_length_b 11.371274
_cell_length_c 10.014115
_cell_angle_alpha 90.000000
_cell_angle_beta 115.992225
_cell_angle_gamma 90.000000
_cell_volume 2018.494840
_symmetry_space_group_name_H-M "C 2/C"
_symmetry_group_IT_number 15
_symmetry_cell_setting 'monoclinic'
loop_
_space_group_symop_operation_xyz
x,y,z
-x,y,1/2-z
-x,-y,-z
x,-y,1/2+z
1/2+x,1/2+y,z
1/2-x,1/2+y,1/2-z
1/2-x,1/2-y,-z
1/2+x,1/2-y,1/2+z
loop_
_atom_site_type_symbol
_atom_site_label
_atom_site_fract_x
_atom_site_fract_y
_atom_site_fract_z
Si Si1 0.244163 0.352286 0.191553
Si Si2 0.500000 0.536624 0.750000
Si Si3 0.751509 0.934414 0.503308
Si Si4 0.591177 0.737841 0.682096
Si Si5 0.915588 0.351797 0.094291
Si Si6 0.878699 0.805840 0.790057
Si Si7 0.000000 0.000000 0.000000
Si Si8 0.000000 0.568060 0.250000
O O1 0.253120 0.422238 0.342737
O O2 0.243799 0.437653 0.063678
O O3 0.320610 0.279698 0.238351
O O4 0.171716 0.268283 0.147815
O O5 0.432639 0.403100 0.898926
O O6 0.453221 0.469458 0.601830
O O7 0.674194 0.873127 0.482461
O O8 0.819344 0.868614 0.638314
O O9 0.566793 0.772700 0.515141
O O10 0.546673 0.617199 0.685020
O O11 0.562080 0.843995 0.746337
O O12 0.925923 0.289120 0.245418
O O13 0.956530 0.477242 0.117365
#
# Coordination Sequence:
#
# PCOD9305844 Si02
#       8
#     8   4   8   8   8   8   4   4
#     4  11  24  47  84 117 160 210 268 338 405 481
#     4  11  30  47  74 108 158 211 272 323 406 474
#     4  11  24  47  78 120 156 214 267 335 414 478
#     4  11  24  49  73 113 158 206 274 333 391 482
#     4  11  24  47  79 111 160 211 268 337 402 484
#     4  11  25  48  79 116 158 216 267 331 415 477
#     4  12  30  52  76 116 162 212 266 328 398 490
#     4  11  28  43  76 120 156 221 272 331 404 474
#
# _framework density 25.761769000000001
#
# number of rings (size 3 to 8) (size 9 to 14) (size 15 to 20)
#    0.000    0.923    3.077    2.308    8.615    6.154 
#    0.000    2.308    0.000    0.000    0.000    0.000 
#    0.000    0.000    0.000    0.000    0.000    0.000 
#
# Total GULP energy -145294.568656 kJ/mol
# GULP energy per Si atom -5588.252641 kJ/mol
# Density = 2.570313 g / cm^3
# Si number density = 25.761769 Si / 1000 Ang^3
#
#
#
# Elastic Constant Matrix: (Units=GPa)
#
#
# Indices 1 2 3 4 5 6 
#
# 1 131.7027 86.6750 52.9728 0.0000 -15.8000 0.0000
# 2 86.6750 193.1744 57.8021 0.0000 -4.0867 0.0000
# 3 52.9728 57.8021 121.7236 0.0000 -4.7256 0.0000
# 4 0.0000 0.0000 0.0000 20.3336 0.0000 18.6840
# 5 -15.8000 -4.0867 -4.7256 0.0000 40.6852 0.0000
# 6 0.0000 0.0000 0.0000 18.6840 0.0000 49.8102
#
#
#
# Elastic Compliance Matrix: (Units=1/GPa)
#
#
# Indices 1 2 3 4 5 6 
#
# 1 0.012255 -0.004505 -0.003040 0.000000 0.003954 0.000000
# 2 -0.004505 0.007693 -0.001738 0.000000 -0.001179 0.000000
# 3 -0.003040 -0.001738 0.010358 0.000000 -0.000152 0.000000
# 4 0.000000 0.000000 0.000000 0.075046 0.000000 -0.028150
# 5 0.003954 -0.001179 -0.000152 0.000000 0.025978 0.000000
# 6 0.000000 0.000000 0.000000 -0.028150 0.000000 0.030635
#
#
# Mechanical properties :
#
#
# Convention : Reuss Voigt Hill
#
# Bulk Modulus (GPa) = 85.19108 93.50004 89.34556
# Shear Modulus (GPa) = 27.10811 38.77586 32.94198
#
# Velocity S-wave (km/s) = 3.24738 3.88386 3.57979
# Velocity P-wave (km/s) = 6.87031 7.51568 7.20023
#
# Compressibility (1/GPa) = 0.01173832
#
# Stress axis : x y z
#
# Youngs Moduli (GPa) = 81.59921 129.98195 96.54312
#
# Poissons Ratio (x) = 0.58561 0.29353
# Poissons Ratio (y) = 0.36763 0.16783
# Poissons Ratio (z) = 0.24809 0.22596
#
# Static dielectric constant tensor:
#      x y z
#    x 2.038530 0.000000 -0.059030 
#    y 0.000000 1.120320 0.000000 
#    z -0.059030 0.000000 1.705670 
# 
# From -- ./inp_files/111202.got.cif
#   From: 2010.05.17/outbox.cif.g08.bks.cpg/sg15_56_cif.got.tgz:111202.got - 2010.06.03 18:47:42.
