data_PCOD9305465
_publ_section_title
;
Structure prediction by ZEFSAII (Michael W. Deem and Ramdas Pophale) SiO2 
 PCOD9305465
Probable space group: C 2/C
;
_chemical_formula_sum "Si O2"
_cell_formula_units_Z 52
_cell_length_a 22.110382
_cell_length_b 10.825484
_cell_length_c 12.245473
_cell_angle_alpha 90.000000
_cell_angle_beta 56.369841
_cell_angle_gamma 90.000000
_cell_volume 2440.456673
_symmetry_space_group_name_H-M "C 2/C"
_symmetry_group_IT_number 15
_symmetry_cell_setting 'monoclinic'
loop_
_space_group_symop_operation_xyz
x,y,z
-x,y,1/2-z
-x,-y,-z
x,-y,1/2+z
1/2+x,1/2+y,z
1/2-x,1/2+y,1/2-z
1/2-x,1/2-y,-z
1/2+x,1/2-y,1/2+z
loop_
_atom_site_type_symbol
_atom_site_label
_atom_site_fract_x
_atom_site_fract_y
_atom_site_fract_z
Si Si1 0.378083 0.696756 0.603629
Si Si2 0.883358 0.536875 0.746566
Si Si3 0.667823 0.712890 0.095826
Si Si4 0.531189 0.202202 0.995591
Si Si5 0.368177 0.582395 0.157944
Si Si6 0.500000 0.870843 0.750000
Si Si7 0.739222 0.171967 0.127065
O O1 0.363236 0.683326 0.490717
O O2 0.445463 0.790284 0.553828
O O3 0.392231 0.558056 0.627666
O O4 0.308190 0.743899 0.741821
O O5 0.871020 0.664753 0.821035
O O6 0.921038 0.586837 0.596641
O O7 0.943026 0.456833 0.747341
O O8 0.810443 0.453522 0.826602
O O9 0.665599 0.607230 0.189188
O O10 0.750000 0.750000 0.000000
O O11 0.538088 0.207417 0.118782
O O12 0.564074 0.326409 0.914842
O O13 0.312451 0.629167 0.118181
O O14 0.750000 0.250000 0.000000
#
# Coordination Sequence:
#
# PCOD9305465 Si02
#       7
#     8   8   8   8   8   4   8
#     4  12  26  46  73 103 143 187 244 290 362 433
#     4  11  25  43  70 100 144 181 241 294 350 431
#     4  11  24  45  69 100 139 189 235 289 361 424
#     4  11  26  46  67 108 137 193 236 295 363 422
#     4  11  27  45  71 101 146 185 238 297 358 430
#     4  12  22  40  72  98 140 178 232 296 350 416
#     4  12  27  44  71 109 142 188 239 300 361 424
#
# _framework density 21.307486999999998
#
# number of rings (size 3 to 8) (size 9 to 14) (size 15 to 20)
#    0.000    0.615    3.077    3.692    8.615    1.846 
#    0.000    0.000    0.000    0.000    0.000    0.000 
#    0.000    0.000    0.000    0.000    0.000    0.000 
#
# Total GULP energy -145114.977553 kJ/mol
# GULP energy per Si atom -5581.345291 kJ/mol
# Density = 2.125899 g / cm^3
# Si number density = 21.307487 Si / 1000 Ang^3
#
#
#
# Elastic Constant Matrix: (Units=GPa)
#
#
# Indices 1 2 3 4 5 6 
#
# 1 59.7277 6.8853 22.7192 0.0000 3.0705 0.0000
# 2 6.8853 91.2072 28.5518 0.0000 7.6257 0.0000
# 3 22.7192 28.5518 137.1848 0.0000 17.9585 0.0000
# 4 0.0000 0.0000 0.0000 2404.7398 0.0000 3474.3850
# 5 3.0705 7.6257 17.9585 0.0000 39.8955 0.0000
# 6 0.0000 0.0000 0.0000 3474.3850 0.0000 5130.3102
#
#
#
# Elastic Compliance Matrix: (Units=1/GPa)
#
#
# Indices 1 2 3 4 5 6 
#
# 1 0.017886 -0.000452 -0.002868 0.000000 0.000001 0.000000
# 2 -0.000452 0.011795 -0.002220 0.000000 -0.001220 0.000000
# 3 -0.002868 -0.002220 0.008652 0.000000 -0.003249 0.000000
# 4 0.000000 0.000000 0.000000 0.019308 0.000000 -0.013076
# 5 0.000001 -0.001220 -0.003249 0.000000 0.026761 0.000000
# 6 0.000000 0.000000 0.000000 -0.013076 0.000000 0.009050
#
#
# Mechanical properties :
#
#
# Convention : Reuss Voigt Hill
#
# Bulk Modulus (GPa) = 36.69535 44.93695 40.81615
# Shear Modulus (GPa) = 44.00727 1530.31999 787.16363
#
# Velocity S-wave (km/s) = 4.54953 26.82847 19.24143
# Velocity P-wave (km/s) = 6.69753 31.31812 22.64599
#
# Compressibility (1/GPa) = 0.02725141
#
# Stress axis : x y z
#
# Youngs Moduli (GPa) = 55.91056 84.77984 115.58194
#
# Poissons Ratio (x) = 0.03836 0.33149
# Poissons Ratio (y) = 0.02530 0.25662
# Poissons Ratio (z) = 0.16035 0.18823
#
# Static dielectric constant tensor:
#      x y z
#    x 1.753920 0.000000 -0.013310 
#    y 0.000000 1.740480 0.000000 
#    z -0.013310 0.000000 1.719520 
# 
# From -- ./inp_files/111523.got.cif
#   From: 2010.05.17/outbox.cif.g08.bks.cpg/sg15_56_cif.got.tgz:111523.got - 2010.06.03 18:47:42.
