data_PCOD9305542
_publ_section_title
;
Structure prediction by ZEFSAII (Michael W. Deem and Ramdas Pophale) SiO2 
 PCOD9305542
Probable space group: C 2/C
;
_chemical_formula_sum "Si O2"
_cell_formula_units_Z 32
_cell_length_a 8.205592
_cell_length_b 17.067110
_cell_length_c 11.338715
_cell_angle_alpha 90.000000
_cell_angle_beta 120.448111
_cell_angle_gamma 90.000000
_cell_volume 1368.943655
_symmetry_space_group_name_H-M "C 2/C"
_symmetry_group_IT_number 15
_symmetry_cell_setting 'monoclinic'
loop_
_space_group_symop_operation_xyz
x,y,z
-x,y,1/2-z
-x,-y,-z
x,-y,1/2+z
1/2+x,1/2+y,z
1/2-x,1/2+y,1/2-z
1/2-x,1/2-y,-z
1/2+x,1/2-y,1/2+z
loop_
_atom_site_type_symbol
_atom_site_label
_atom_site_fract_x
_atom_site_fract_y
_atom_site_fract_z
Si Si1 0.700149 0.577997 0.255669
Si Si2 0.706324 0.093955 0.692632
Si Si3 0.933290 0.859277 0.040502
Si Si4 0.909601 0.297191 0.989388
O O1 0.500000 0.566677 0.250000
O O2 0.820416 0.499001 0.313736
O O3 0.649499 0.597047 0.102927
O O4 0.810928 0.650003 0.354101
O O5 0.854110 0.113628 0.849945
O O6 0.520249 0.145823 0.618546
O O7 0.811063 0.118406 0.609258
O O8 0.952551 0.767541 0.017184
O O9 0.750000 0.250000 0.000000
#
# Coordination Sequence:
#
# PCOD9305542 Si02
#       4
#     8   8   8   8
#     4  12  24  46  71 104 143 189 236 293 351 422
#     4  11  26  46  72 102 141 190 236 290 356 420
#     4  11  24  45  74 100 143 186 239 291 350 422
#     4  12  26  45  71 107 144 182 238 291 360 416
#
# _framework density 23.375686999999999
#
# number of rings (size 3 to 8) (size 9 to 14) (size 15 to 20)
#    0.000    0.500    5.000    3.750    0.000    3.000 
#    0.000    2.500    0.000    0.000    0.000    0.000 
#    0.000    0.000    0.000    0.000    0.000    0.000 
#
# Total GULP energy -89724.725317 kJ/mol
# GULP energy per Si atom -5607.795332 kJ/mol
# Density = 2.332248 g / cm^3
# Si number density = 23.375687 Si / 1000 Ang^3
#
#
#
# Elastic Constant Matrix: (Units=GPa)
#
#
# Indices 1 2 3 4 5 6 
#
# 1 85.3732 53.0420 48.2600 0.0000 8.0188 0.0000
# 2 53.0420 194.0484 80.5911 0.0000 -9.1425 0.0000
# 3 48.2600 80.5911 170.4430 0.0000 -9.2984 0.0000
# 4 0.0000 0.0000 0.0000 62.0111 0.0000 34.2191
# 5 8.0188 -9.1425 -9.2984 0.0000 20.7254 0.0000
# 6 0.0000 0.0000 0.0000 34.2191 0.0000 11.4341
#
#
#
# Elastic Compliance Matrix: (Units=1/GPa)
#
#
# Indices 1 2 3 4 5 6 
#
# 1 0.016897 -0.003571 -0.003627 0.000000 -0.009740 0.000000
# 2 -0.003571 0.007214 -0.002205 0.000000 0.003575 0.000000
# 3 -0.003627 -0.002205 0.008160 0.000000 0.004092 0.000000
# 4 0.000000 0.000000 0.000000 -0.024754 0.000000 0.074083
# 5 -0.009740 0.003575 0.004092 0.000000 0.055431 0.000000
# 6 0.000000 0.000000 0.000000 0.074083 0.000000 -0.134251
#
#
# Mechanical properties :
#
#
# Convention : Reuss Voigt Hill
#
# Bulk Modulus (GPa) = 74.26922 90.40563 82.33742
# Shear Modulus (GPa) = -104.14629 36.69890 -33.72369
#
# Velocity S-wave (km/s) = -6.68206 3.96657 -3.80239
# Velocity P-wave (km/s) = 5.26235 7.72899 4.00281
#
# Compressibility (1/GPa) = 0.01346453
#
# Stress axis : x y z
#
# Youngs Moduli (GPa) = 59.18091 138.62755 122.55352
#
# Poissons Ratio (x) = 0.49508 0.44452
# Poissons Ratio (y) = 0.21135 0.27018
# Poissons Ratio (z) = 0.21466 0.30562
#
# Static dielectric constant tensor:
#      x y z
#    x 1.937250 0.000000 0.033300 
#    y 0.000000 1.863260 0.000000 
#    z 0.033300 0.000000 1.838310 
# 
# From -- ./inp_files/83954.got.cif
#   From: 2010.05.17/outbox.cif.g08.bks.cpg/sg15_42_cif.got.tgz:83954.got - 2010.06.03 18:47:42.
