data_PCOD9305234
_publ_section_title
;
Structure prediction by ZEFSAII (Michael W. Deem and Ramdas Pophale) SiO2 
 PCOD9305234
Probable space group: C 2/C
;
_chemical_formula_sum "Si O2"
_cell_formula_units_Z 44
_cell_length_a 15.163570
_cell_length_b 9.920967
_cell_length_c 12.264605
_cell_angle_alpha 90.000000
_cell_angle_beta 91.120988
_cell_angle_gamma 90.000000
_cell_volume 1844.700667
_symmetry_space_group_name_H-M "C 2/C"
_symmetry_group_IT_number 15
_symmetry_cell_setting 'monoclinic'
loop_
_space_group_symop_operation_xyz
x,y,z
-x,y,1/2-z
-x,-y,-z
x,-y,1/2+z
1/2+x,1/2+y,z
1/2-x,1/2+y,1/2-z
1/2-x,1/2-y,-z
1/2+x,1/2-y,1/2+z
loop_
_atom_site_type_symbol
_atom_site_label
_atom_site_fract_x
_atom_site_fract_y
_atom_site_fract_z
Si Si1 0.868773 0.215257 0.100025
Si Si2 0.821487 0.835559 0.363534
Si Si3 0.156853 0.854733 0.598952
Si Si4 0.042221 0.499695 0.875450
Si Si5 0.657386 0.738598 0.869329
Si Si6 0.000000 0.854503 0.750000
O O1 0.766228 0.241838 0.127140
O O2 0.915396 0.353395 0.135503
O O3 0.921558 0.099093 0.165174
O O4 0.877006 0.198753 0.971609
O O5 0.868087 0.805714 0.251577
O O6 0.808743 0.996482 0.368644
O O7 0.236330 0.752455 0.624360
O O8 0.135123 0.853405 0.471036
O O9 0.070521 0.806932 0.660416
O O10 0.114373 0.383075 0.887950
O O11 0.000000 0.477453 0.750000
O O12 0.000000 0.500000 0.000000
#
# Coordination Sequence:
#
# PCOD9305234 Si02
#       6
#     8   8   8   8   8   4
#     4  11  24  43  73 105 143 188 244 301 371 428
#     4  11  25  47  73 105 142 199 243 299 367 457
#     4  11  26  45  74 102 149 193 243 304 369 437
#     4  12  25  45  74 109 147 187 250 317 365 438
#     4  11  25  47  73 108 143 195 248 297 374 447
#     4  12  24  48  68 110 146 192 242 304 366 436
#
# _framework density 23.852107
#
# number of rings (size 3 to 8) (size 9 to 14) (size 15 to 20)
#    0.000    0.727    4.545    2.182    2.545    0.727 
#    4.909    0.000    0.000    0.000    0.000    0.000 
#    0.000    0.000    0.000    0.000    0.000    0.000 
#
# Total GULP energy -122494.965347 kJ/mol
# GULP energy per Si atom -5567.952970 kJ/mol
# Density = 2.379782 g / cm^3
# Si number density = 23.852107 Si / 1000 Ang^3
#
#
#
# Elastic Constant Matrix: (Units=GPa)
#
#
# Indices 1 2 3 4 5 6 
#
# 1 88.3641 12.8005 56.8133 0.0000 -6.6972 0.0000
# 2 12.8005 42.7604 24.5329 0.0000 -14.1085 0.0000
# 3 56.8133 24.5329 236.1836 0.0000 -17.6728 0.0000
# 4 0.0000 0.0000 0.0000 43.7772 0.0000 1.1826
# 5 -6.6972 -14.1085 -17.6728 0.0000 46.7916 0.0000
# 6 0.0000 0.0000 0.0000 1.1826 0.0000 21.9204
#
#
#
# Elastic Compliance Matrix: (Units=1/GPa)
#
#
# Indices 1 2 3 4 5 6 
#
# 1 0.013603 -0.002300 -0.003025 0.000000 0.000111 0.000000
# 2 -0.002300 0.027489 -0.001756 0.000000 0.007296 0.000000
# 3 -0.003025 -0.001756 0.005220 0.000000 0.001009 0.000000
# 4 0.000000 0.000000 0.000000 0.022876 0.000000 -0.001234
# 5 0.000111 0.007296 0.001009 0.000000 0.023968 0.000000
# 6 0.000000 0.000000 0.000000 -0.001234 0.000000 0.045686
#
#
# Mechanical properties :
#
#
# Convention : Reuss Voigt Hill
#
# Bulk Modulus (GPa) = 31.10433 61.73350 46.41892
# Shear Modulus (GPa) = 30.53955 40.70861 35.62408
#
# Velocity S-wave (km/s) = 3.58211 4.13572 3.86883
# Velocity P-wave (km/s) = 5.49340 6.98165 6.28176
#
# Compressibility (1/GPa) = 0.03214986
#
# Stress axis : x y z
#
# Youngs Moduli (GPa) = 73.51140 36.37757 191.58686
#
# Poissons Ratio (x) = 0.08367 0.57955
# Poissons Ratio (y) = 0.16908 0.33646
# Poissons Ratio (z) = 0.22237 0.06389
#
# Static dielectric constant tensor:
#      x y z
#    x 1.922950 0.000000 0.018770 
#    y 0.000000 1.956870 0.000000 
#    z 0.018770 0.000000 1.979830 
# 
# From -- ./inp_files/95078.got.cif
#   From: 2010.05.17/outbox.cif.g08.bks.cpg/sg15_48_cif.got.tgz:95078.got - 2010.06.03 18:47:42.
