data_PCOD9305239
_publ_section_title
;
Structure prediction by ZEFSAII (Michael W. Deem and Ramdas Pophale) SiO2 
 PCOD9305239
Probable space group: C 2/C
;
_chemical_formula_sum "Si O2"
_cell_formula_units_Z 48
_cell_length_a 13.920536
_cell_length_b 8.975095
_cell_length_c 17.315581
_cell_angle_alpha 90.000000
_cell_angle_beta 92.929276
_cell_angle_gamma 90.000000
_cell_volume 2160.549643
_symmetry_space_group_name_H-M "C 2/C"
_symmetry_group_IT_number 15
_symmetry_cell_setting 'monoclinic'
loop_
_space_group_symop_operation_xyz
x,y,z
-x,y,1/2-z
-x,-y,-z
x,-y,1/2+z
1/2+x,1/2+y,z
1/2-x,1/2+y,1/2-z
1/2-x,1/2-y,-z
1/2+x,1/2-y,1/2+z
loop_
_atom_site_type_symbol
_atom_site_label
_atom_site_fract_x
_atom_site_fract_y
_atom_site_fract_z
Si Si1 0.087160 0.867335 0.417148
Si Si2 0.101725 0.664526 0.712583
Si Si3 0.904609 0.462278 0.542819
Si Si4 0.219524 0.488995 0.604689
Si Si5 0.721051 0.164616 0.866131
Si Si6 0.397524 0.553528 0.399705
O O1 0.082900 0.689640 0.409924
O O2 0.178379 0.933429 0.375931
O O3 0.989492 0.948389 0.388839
O O4 0.101234 0.904982 0.509223
O O5 0.142193 0.523143 0.667503
O O6 0.182513 0.701236 0.779680
O O7 0.000000 0.640653 0.750000
O O8 0.094461 0.799038 0.651406
O O9 0.821757 0.442033 0.475601
O O10 0.871009 0.600584 0.592460
O O11 0.000000 0.500000 0.500000
O O12 0.237284 0.314341 0.595189
O O13 0.801604 0.037060 0.874173
#
# Coordination Sequence:
#
# PCOD9305239 Si02
#       6
#     8   8   8   8   8   8
#     4  11  24  43  74 104 139 180 241 300 348 418
#     4  12  26  47  68  98 144 194 232 293 369 426
#     4  12  24  41  68 105 139 182 237 298 346 419
#     4  12  24  44  70 104 140 187 237 294 354 421
#     4  12  26  43  69 106 143 186 235 290 361 431
#     4  11  24  45  71 104 139 187 236 292 361 420
#
# _framework density 22.216570000000001
#
# number of rings (size 3 to 8) (size 9 to 14) (size 15 to 20)
#    0.000    0.333    3.333    6.000    4.667    0.000 
#    0.000    0.833    0.000    0.000    0.000    0.000 
#    0.000    0.000    0.000    0.000    0.000    0.000 
#
# Total GULP energy -134455.788265 kJ/mol
# GULP energy per Si atom -5602.324511 kJ/mol
# Density = 2.216600 g / cm^3
# Si number density = 22.216570 Si / 1000 Ang^3
#
#
#
# Elastic Constant Matrix: (Units=GPa)
#
#
# Indices 1 2 3 4 5 6 
#
# 1 126.3676 48.6251 34.2587 0.0000 -21.9337 0.0000
# 2 48.6251 132.7336 12.7857 0.0000 -29.6969 0.0000
# 3 34.2587 12.7857 56.6672 0.0000 -3.4456 0.0000
# 4 0.0000 0.0000 0.0000 23.9713 0.0000 -3.3978
# 5 -21.9337 -29.6969 -3.4456 0.0000 44.0382 0.0000
# 6 0.0000 0.0000 0.0000 -3.3978 0.0000 40.7839
#
#
#
# Elastic Compliance Matrix: (Units=1/GPa)
#
#
# Indices 1 2 3 4 5 6 
#
# 1 0.011150 -0.002798 -0.005914 0.000000 0.003204 0.000000
# 2 -0.002798 0.009730 -0.000190 0.000000 0.005153 0.000000
# 3 -0.005914 -0.000190 0.021179 0.000000 -0.001417 0.000000
# 4 0.000000 0.000000 0.000000 0.042215 0.000000 0.003517
# 5 0.003204 0.005153 -0.001417 0.000000 0.027667 0.000000
# 6 0.000000 0.000000 0.000000 0.003517 0.000000 0.024812
#
#
# Mechanical properties :
#
#
# Convention : Reuss Voigt Hill
#
# Bulk Modulus (GPa) = 41.23186 56.34527 48.78857
# Shear Modulus (GPa) = 30.74198 36.43196 33.58697
#
# Velocity S-wave (km/s) = 3.72390 4.05391 3.89240
# Velocity P-wave (km/s) = 6.09010 6.87961 6.49686
#
# Compressibility (1/GPa) = 0.02425309
#
# Stress axis : x y z
#
# Youngs Moduli (GPa) = 89.68967 102.77342 47.21578
#
# Poissons Ratio (x) = 0.28756 0.27926
# Poissons Ratio (y) = 0.25095 0.00899
# Poissons Ratio (z) = 0.53047 0.01958
#
# Static dielectric constant tensor:
#      x y z
#    x 1.811290 0.000000 0.017130 
#    y 0.000000 1.775280 0.000000 
#    z 0.017130 0.000000 1.848210 
# 
# From -- ./inp_files/203012.got.cif
#   From: 2010.05.17/outbox.cif.g08.bks.cpg/sg15_102_cif.got.tgz:203012.got - 2010.06.03 18:47:42.
