data_PCOD9305757
_publ_section_title
;
Structure prediction by ZEFSAII (Michael W. Deem and Ramdas Pophale) SiO2 
 PCOD9305757
Probable space group: C 2/C
;
_chemical_formula_sum "Si O2"
_cell_formula_units_Z 40
_cell_length_a 17.692746
_cell_length_b 6.599179
_cell_length_c 20.229308
_cell_angle_alpha 90.000000
_cell_angle_beta 42.081605
_cell_angle_gamma 90.000000
_cell_volume 1582.934941
_symmetry_space_group_name_H-M "C 2/C"
_symmetry_group_IT_number 15
_symmetry_cell_setting 'monoclinic'
loop_
_space_group_symop_operation_xyz
x,y,z
-x,y,1/2-z
-x,-y,-z
x,-y,1/2+z
1/2+x,1/2+y,z
1/2-x,1/2+y,1/2-z
1/2-x,1/2-y,-z
1/2+x,1/2-y,1/2+z
loop_
_atom_site_type_symbol
_atom_site_label
_atom_site_fract_x
_atom_site_fract_y
_atom_site_fract_z
Si Si1 0.409661 0.909596 0.145824
Si Si2 0.960009 0.777282 0.469085
Si Si3 0.367821 0.727217 0.830549
Si Si4 0.770754 0.975998 0.012460
Si Si5 0.340197 0.506770 0.713724
O O1 0.396229 0.707499 0.197501
O O2 0.287679 0.015830 0.226326
O O3 0.508480 0.072368 0.093460
O O4 0.425073 0.814803 0.061983
O O5 0.079842 0.892164 0.393233
O O6 0.875996 0.936432 0.488644
O O7 0.500000 0.693044 0.750000
O O8 0.293570 0.596535 0.929713
O O9 0.336905 0.650322 0.778875
O O10 0.333672 0.952582 0.874394
O O11 0.750000 0.750000 0.000000
#
# Coordination Sequence:
#
# PCOD9305757 Si02
#       5
#     8   8   8   8   8
#     4  11  25  43  74 110 149 204 253 324 390 463
#     4  11  24  47  69 108 155 195 262 320 385 474
#     4  11  25  47  70 105 150 192 259 321 378 471
#     4  11  26  47  74 107 150 202 256 322 389 461
#     4  12  23  43  73 104 147 198 257 313 390 462
#
# _framework density 25.269517
#
# number of rings (size 3 to 8) (size 9 to 14) (size 15 to 20)
#    0.000    0.800    6.000    0.600    0.000    7.200 
#    0.000    0.000    0.000    0.000    0.000    0.000 
#    0.000    0.000    0.000    0.000    0.000    0.000 
#
# Total GULP energy -111799.318952 kJ/mol
# GULP energy per Si atom -5589.965948 kJ/mol
# Density = 2.521200 g / cm^3
# Si number density = 25.269517 Si / 1000 Ang^3
#
#
#
# Elastic Constant Matrix: (Units=GPa)
#
#
# Indices 1 2 3 4 5 6 
#
# 1 97.8010 48.4287 42.5613 0.0003 1.6530 -0.0001
# 2 48.4287 189.5771 49.0351 0.0012 2.1280 -0.0010
# 3 42.5613 49.0351 118.9229 0.0001 -8.6049 0.0001
# 4 0.0003 0.0012 0.0001 42.7804 -0.0002 2.7552
# 5 1.6530 2.1280 -8.6049 -0.0002 42.3029 0.0003
# 6 -0.0001 -0.0010 0.0001 2.7552 0.0003 41.9682
#
#
#
# Elastic Compliance Matrix: (Units=1/GPa)
#
#
# Indices 1 2 3 4 5 6 
#
# 1 0.013053 -0.002341 -0.003791 0.000000 -0.001163 0.000000
# 2 -0.002341 0.006352 -0.001824 0.000000 -0.000599 0.000000
# 3 -0.003791 -0.001824 0.010692 0.000000 0.002415 0.000000
# 4 0.000000 0.000000 0.000000 0.023474 0.000000 -0.001541
# 5 -0.001163 -0.000599 0.002415 0.000000 0.024206 0.000000
# 6 0.000000 0.000000 0.000000 -0.001541 0.000000 0.023929
#
#
# Mechanical properties :
#
#
# Convention : Reuss Voigt Hill
#
# Bulk Modulus (GPa) = 70.49592 76.26125 73.37859
# Shear Modulus (GPa) = 40.86745 43.16203 42.01474
#
# Velocity S-wave (km/s) = 4.02588 4.13736 4.08200
# Velocity P-wave (km/s) = 7.04049 7.28480 7.16369
#
# Compressibility (1/GPa) = 0.01418522
#
# Stress axis : x y z
#
# Youngs Moduli (GPa) = 76.60890 157.44164 93.52439
#
# Poissons Ratio (x) = 0.36858 0.35451
# Poissons Ratio (y) = 0.17935 0.17063
# Poissons Ratio (z) = 0.29039 0.28724
#
# Static dielectric constant tensor:
#      x y z
#    x 2.009310 0.000000 -0.022390 
#    y 0.000000 2.124200 0.000000 
#    z -0.022390 0.000000 1.999590 
# 
# From -- ./inp_files/278785.got.cif
#   From: 2010.05.17/outbox.cif.g08.bks.cpg/sg15_140_cif.got.tgz:278785.got - 2010.06.03 18:47:42.
