data_PCOD9305228
_publ_section_title
;
Structure prediction by ZEFSAII (Michael W. Deem and Ramdas Pophale) SiO2 
 PCOD9305228
Probable space group: C 2/C
;
_chemical_formula_sum "Si O2"
_cell_formula_units_Z 48
_cell_length_a 12.472426
_cell_length_b 11.521260
_cell_length_c 25.794415
_cell_angle_alpha 90.000000
_cell_angle_beta 147.713096
_cell_angle_gamma 90.000000
_cell_volume 1979.918239
_symmetry_space_group_name_H-M "C 2/C"
_symmetry_group_IT_number 15
_symmetry_cell_setting 'monoclinic'
loop_
_space_group_symop_operation_xyz
x,y,z
-x,y,1/2-z
-x,-y,-z
x,-y,1/2+z
1/2+x,1/2+y,z
1/2-x,1/2+y,1/2-z
1/2-x,1/2-y,-z
1/2+x,1/2-y,1/2+z
loop_
_atom_site_type_symbol
_atom_site_label
_atom_site_fract_x
_atom_site_fract_y
_atom_site_fract_z
Si Si1 0.859091 0.571432 0.353333
Si Si2 0.128228 0.343988 0.757796
Si Si3 0.927407 0.181522 0.012212
Si Si4 0.230776 0.675947 0.828440
Si Si5 0.767395 0.436190 0.972048
Si Si6 0.915768 0.903126 0.294548
O O1 0.869309 0.590876 0.295625
O O2 0.757120 0.685584 0.332960
O O3 0.734786 0.454346 0.309396
O O4 0.074014 0.540458 0.463535
O O5 0.351503 0.324973 0.872090
O O6 0.018886 0.222150 0.699036
O O7 0.000000 0.403497 0.750000
O O8 0.788336 0.103054 0.992503
O O9 0.887019 0.139489 0.937299
O O10 0.848750 0.315165 0.982214
O O11 0.303113 0.624353 0.803094
O O12 0.000000 0.655129 0.750000
O O13 0.573408 0.494160 0.867391
#
# Coordination Sequence:
#
# PCOD9305228 Si02
#       6
#     8   8   8   8   8   8
#     4  11  24  45  67  97 131 179 214 270 328 390
#     4  11  26  43  67  97 138 166 222 272 328 386
#     4  11  24  45  68  98 130 179 215 276 327 385
#     4  11  26  42  68  99 137 169 221 272 329 390
#     4  11  24  43  72  92 136 171 228 265 328 390
#     4  11  24  45  67  97 131 179 214 270 328 390
#
# _framework density 24.243424000000001
#
# number of rings (size 3 to 8) (size 9 to 14) (size 15 to 20)
#    0.000    1.000    3.333    2.000    9.333    6.667 
#    0.000    0.000    0.000    0.000    0.000    0.000 
#    0.000    0.000    0.000    0.000    0.000    0.000 
#
# Total GULP energy -134282.555631 kJ/mol
# GULP energy per Si atom -5595.106485 kJ/mol
# Density = 2.418825 g / cm^3
# Si number density = 24.243424 Si / 1000 Ang^3
#
#
#
# Elastic Constant Matrix: (Units=GPa)
#
#
# Indices 1 2 3 4 5 6 
#
# 1 86.6027 13.5513 26.6654 0.0000 -7.8453 0.0000
# 2 13.5513 93.3001 -10.1885 0.0000 5.9383 0.0000
# 3 26.6654 -10.1885 64.1190 -0.0001 1.2642 -0.0001
# 4 0.0000 0.0000 -0.0001 4.6008 0.0000 -5.1805
# 5 -7.8453 5.9383 1.2642 0.0000 38.7878 0.0000
# 6 0.0000 0.0000 -0.0001 -5.1805 0.0000 -17.5137
#
#
#
# Elastic Compliance Matrix: (Units=1/GPa)
#
#
# Indices 1 2 3 4 5 6 
#
# 1 0.014352 -0.003024 -0.006520 0.000000 0.003578 0.000000
# 2 -0.003024 0.011662 0.003160 0.000000 -0.002500 0.000000
# 3 -0.006520 0.003160 0.018857 0.000000 -0.002417 0.000000
# 4 0.000000 0.000000 0.000000 0.163047 0.000000 -0.048229
# 5 0.003578 -0.002500 -0.002417 0.000000 0.026967 0.000000
# 6 0.000000 0.000000 0.000000 -0.048229 0.000000 -0.042832
#
#
# Mechanical properties :
#
#
# Convention : Reuss Voigt Hill
#
# Bulk Modulus (GPa) = 31.14995 33.78646 32.46820
# Shear Modulus (GPa) = 23.19965 19.44124 21.32044
#
# Velocity S-wave (km/s) = 3.09681 2.83489 2.96874
# Velocity P-wave (km/s) = 5.06593 4.96810 5.01726
#
# Compressibility (1/GPa) = 0.03210278
#
# Stress axis : x y z
#
# Youngs Moduli (GPa) = 69.67769 85.75184 53.03036
#
# Poissons Ratio (x) = 0.25933 0.34574
# Poissons Ratio (y) = 0.21072 -0.16758
# Poissons Ratio (z) = 0.45427 -0.27098
#
# Static dielectric constant tensor:
#      x y z
#    x 1.940940 0.000000 0.012550 
#    y 0.000000 1.888030 0.000000 
#    z 0.012550 0.000000 1.878780 
# 
# From -- ./inp_files/296203.got.cif
#   From: 2010.05.17/outbox.cif.g08.bks.cpg/sg15_149_cif.got.tgz:296203.got - 2010.06.03 18:47:42.
