data_PCOD9305130
_publ_section_title
;
Structure prediction by ZEFSAII (Michael W. Deem and Ramdas Pophale) SiO2 
 PCOD9305130
Probable space group: C 2/C
;
_chemical_formula_sum "Si O2"
_cell_formula_units_Z 40
_cell_length_a 8.960755
_cell_length_b 11.171930
_cell_length_c 16.816981
_cell_angle_alpha 90.000000
_cell_angle_beta 83.945474
_cell_angle_gamma 90.000000
_cell_volume 1674.139152
_symmetry_space_group_name_H-M "C 2/C"
_symmetry_group_IT_number 15
_symmetry_cell_setting 'monoclinic'
loop_
_space_group_symop_operation_xyz
x,y,z
-x,y,1/2-z
-x,-y,-z
x,-y,1/2+z
1/2+x,1/2+y,z
1/2-x,1/2+y,1/2-z
1/2-x,1/2-y,-z
1/2+x,1/2-y,1/2+z
loop_
_atom_site_type_symbol
_atom_site_label
_atom_site_fract_x
_atom_site_fract_y
_atom_site_fract_z
Si Si1 0.901300 0.184176 0.016124
Si Si2 0.179363 0.343845 0.243650
Si Si3 0.606985 0.888239 0.980673
Si Si4 0.848568 0.603289 0.206219
Si Si5 0.359112 0.442875 0.084189
O O1 0.023525 0.282429 0.031831
O O2 0.978405 0.115159 0.937392
O O3 0.750000 0.250000 0.000000
O O4 0.873862 0.085396 0.084436
O O5 0.209188 0.464329 0.295289
O O6 0.250277 0.211183 0.249970
O O7 0.257819 0.391057 0.158729
O O8 0.000000 0.330188 0.250000
O O9 0.617421 0.861545 0.886851
O O10 0.766729 0.914765 0.009122
O O11 0.500000 0.000000 0.000000
O O12 0.000000 0.597660 0.250000
#
# Coordination Sequence:
#
# PCOD9305130 Si02
#       5
#     8   8   8   8   8
#     4  11  24  42  71 108 135 177 228 298 357 412
#     4  11  26  49  71 101 145 193 235 292 352 433
#     4  12  23  45  73 104 141 182 232 298 358 411
#     4  11  27  48  68 103 147 189 238 289 353 431
#     4  11  25  46  71 106 139 178 242 295 349 423
#
# _framework density 23.892876000000001
#
# number of rings (size 3 to 8) (size 9 to 14) (size 15 to 20)
#    0.000    0.800    4.000    3.000    0.000    5.600 
#    3.600    0.000    0.000    0.000    0.000    0.000 
#    0.000    0.000    0.000    0.000    0.000    0.000 
#
# Total GULP energy -111797.896302 kJ/mol
# GULP energy per Si atom -5589.894815 kJ/mol
# Density = 2.383849 g / cm^3
# Si number density = 23.892876 Si / 1000 Ang^3
#
#
#
# Elastic Constant Matrix: (Units=GPa)
#
#
# Indices 1 2 3 4 5 6 
#
# 1 117.5181 64.9131 37.8912 0.0000 -30.0315 0.0000
# 2 64.9131 188.5411 6.5108 0.0000 -22.6018 0.0000
# 3 37.8912 6.5108 83.4460 0.0000 -15.0654 0.0000
# 4 0.0000 0.0000 0.0000 39.6828 0.0000 -26.3409
# 5 -30.0315 -22.6018 -15.0654 0.0000 31.1480 0.0000
# 6 0.0000 0.0000 0.0000 -26.3409 0.0000 40.8598
#
#
#
# Elastic Compliance Matrix: (Units=1/GPa)
#
#
# Indices 1 2 3 4 5 6 
#
# 1 0.014309 -0.003703 -0.004605 0.000000 0.008882 0.000000
# 2 -0.003703 0.006776 0.001529 0.000000 0.002087 0.000000
# 3 -0.004605 0.001529 0.014632 0.000000 0.003747 0.000000
# 4 0.000000 0.000000 0.000000 0.044049 0.000000 0.028397
# 5 0.008882 0.002087 0.003747 0.000000 0.043995 0.000000
# 6 0.000000 0.000000 0.000000 0.028397 0.000000 0.042780
#
#
# Mechanical properties :
#
#
# Convention : Reuss Voigt Hill
#
# Bulk Modulus (GPa) = 45.12562 67.57062 56.34812
# Shear Modulus (GPa) = 26.66873 41.01747 33.84310
#
# Velocity S-wave (km/s) = 3.34455 4.14783 3.76766
# Velocity P-wave (km/s) = 5.81742 7.16110 6.52395
#
# Compressibility (1/GPa) = 0.02216036
#
# Stress axis : x y z
#
# Youngs Moduli (GPa) = 69.88503 147.57911 68.34343
#
# Poissons Ratio (x) = 0.54645 0.31472
# Poissons Ratio (y) = 0.25877 -0.10452
# Poissons Ratio (z) = 0.32182 -0.22570
#
# Static dielectric constant tensor:
#      x y z
#    x 2.072380 0.000000 0.049820 
#    y 0.000000 2.001530 0.000000 
#    z 0.049820 0.000000 1.953430 
# 
# From -- ./inp_files/187781.got.cif
#   From: 2010.05.17/outbox.cif.g08.bks.cpg/sg15_94_cif.got.tgz:187781.got - 2010.06.03 18:47:42.
