data_PCOD9305971
_publ_section_title
;
Structure prediction by ZEFSAII (Michael W. Deem and Ramdas Pophale) SiO2 
 PCOD9305971
Probable space group: C 2/C
;
_chemical_formula_sum "Si O2"
_cell_formula_units_Z 24
_cell_length_a 7.305810
_cell_length_b 9.675529
_cell_length_c 13.438647
_cell_angle_alpha 90.000000
_cell_angle_beta 100.656283
_cell_angle_gamma 90.000000
_cell_volume 933.562796
_symmetry_space_group_name_H-M "C 2/C"
_symmetry_group_IT_number 15
_symmetry_cell_setting 'monoclinic'
loop_
_space_group_symop_operation_xyz
x,y,z
-x,y,1/2-z
-x,-y,-z
x,-y,1/2+z
1/2+x,1/2+y,z
1/2-x,1/2+y,1/2-z
1/2-x,1/2-y,-z
1/2+x,1/2-y,1/2+z
loop_
_atom_site_type_symbol
_atom_site_label
_atom_site_fract_x
_atom_site_fract_y
_atom_site_fract_z
Si Si1 0.282761 0.935340 0.247945
Si Si2 0.243767 0.314231 0.871405
Si Si3 0.073068 0.783627 0.049621
O O1 0.500000 0.910286 0.250000
O O2 0.240337 0.847682 0.341646
O O3 0.157982 0.872588 0.147203
O O4 0.246145 0.097768 0.228733
O O5 0.050432 0.338421 0.910832
O O6 0.417016 0.345219 0.959625
O O7 0.250000 0.750000 0.000000
#
# Coordination Sequence:
#
# PCOD9305971 Si02
#       3
#     8   8   8
#     4  12  24  47  74 108 146 193 242 301 364 433
#     4  11  27  49  75 107 149 190 247 301 362 435
#     4  11  24  50  74 109 143 198 242 301 361 435
#
# _framework density 25.707965000000002
#
# number of rings (size 3 to 8) (size 9 to 14) (size 15 to 20)
#    0.000    0.667    3.333    4.000    0.000    4.000 
#   24.000    0.000    0.000    0.000    0.000    0.000 
#    0.000    0.000    0.000    0.000    0.000    0.000 
#
# Total GULP energy -67102.260219 kJ/mol
# GULP energy per Si atom -5591.855018 kJ/mol
# Density = 2.564945 g / cm^3
# Si number density = 25.707965 Si / 1000 Ang^3
#
#
#
# Elastic Constant Matrix: (Units=GPa)
#
#
# Indices 1 2 3 4 5 6 
#
# 1 189.7323 27.0501 39.8159 0.0000 32.9183 0.0000
# 2 27.0501 74.0681 40.7106 0.0000 5.2108 0.0000
# 3 39.8159 40.7106 138.4707 0.0000 46.9499 0.0000
# 4 0.0000 0.0000 0.0000 45.8683 0.0000 2.5601
# 5 32.9183 5.2108 46.9499 0.0000 62.3117 0.0000
# 6 0.0000 0.0000 0.0000 2.5601 0.0000 18.0984
#
#
#
# Elastic Compliance Matrix: (Units=1/GPa)
#
#
# Indices 1 2 3 4 5 6 
#
# 1 0.006089 -0.001906 -0.000207 0.000000 -0.002902 0.000000
# 2 -0.001906 0.017124 -0.005832 0.000000 0.003969 0.000000
# 3 -0.000207 -0.005832 0.011811 0.000000 -0.008302 0.000000
# 4 0.000000 0.000000 0.000000 0.021975 0.000000 -0.003108
# 5 -0.002902 0.003969 -0.008302 0.000000 0.023505 0.000000
# 6 0.000000 0.000000 0.000000 -0.003108 0.000000 0.055693
#
#
# Mechanical properties :
#
#
# Convention : Reuss Voigt Hill
#
# Bulk Modulus (GPa) = 52.26363 68.60270 60.43317
# Shear Modulus (GPa) = 31.55293 44.90198 38.22746
#
# Velocity S-wave (km/s) = 3.50717 4.18379 3.86033
# Velocity P-wave (km/s) = 6.06417 7.07687 6.59000
#
# Compressibility (1/GPa) = 0.01913376
#
# Stress axis : x y z
#
# Youngs Moduli (GPa) = 164.22686 58.39927 84.66873
#
# Poissons Ratio (x) = 0.11131 0.01749
# Poissons Ratio (y) = 0.31303 0.49380
# Poissons Ratio (z) = 0.03393 0.34059
#
# Static dielectric constant tensor:
#      x y z
#    x 1.993470 0.000000 -0.050130 
#    y 0.000000 2.173200 0.000000 
#    z -0.050130 0.000000 1.994920 
# 
# From -- ./inp_files/131377.got.cif
#   From: 2010.05.17/outbox.cif.g08.bks.cpg/sg15_66_cif.got.tgz:131377.got - 2010.06.03 18:47:42.
