data_PCOD9305548
_publ_section_title
;
Structure prediction by ZEFSAII (Michael W. Deem and Ramdas Pophale) SiO2 
 PCOD9305548
Probable space group: C 2/C
;
_chemical_formula_sum "Si O2"
_cell_formula_units_Z 40
_cell_length_a 15.580050
_cell_length_b 15.369124
_cell_length_c 8.753327
_cell_angle_alpha 90.000000
_cell_angle_beta 119.575903
_cell_angle_gamma 90.000000
_cell_volume 1822.895942
_symmetry_space_group_name_H-M "C 2/C"
_symmetry_group_IT_number 15
_symmetry_cell_setting 'monoclinic'
loop_
_space_group_symop_operation_xyz
x,y,z
-x,y,1/2-z
-x,-y,-z
x,-y,1/2+z
1/2+x,1/2+y,z
1/2-x,1/2+y,1/2-z
1/2-x,1/2-y,-z
1/2+x,1/2-y,1/2+z
loop_
_atom_site_type_symbol
_atom_site_label
_atom_site_fract_x
_atom_site_fract_y
_atom_site_fract_z
Si Si1 0.158791 0.298672 0.841277
Si Si2 0.940128 0.070872 0.353418
Si Si3 0.786354 0.451841 0.828657
Si Si4 0.475212 0.761779 0.497075
Si Si5 0.403381 0.916779 0.232469
O O1 0.199073 0.385591 0.799383
O O2 0.090747 0.256579 0.646545
O O3 0.250000 0.250000 0.000000
O O4 0.082730 0.304617 0.913074
O O5 0.828870 0.035939 0.239413
O O6 0.937926 0.164597 0.433448
O O7 0.000000 0.083999 0.250000
O O8 0.000000 0.000000 0.500000
O O9 0.846409 0.534954 0.819511
O O10 0.832628 0.412605 0.023824
O O11 0.445585 0.826267 0.334696
O O12 0.500000 0.966247 0.250000
#
# Coordination Sequence:
#
# PCOD9305548 Si02
#       5
#     8   8   8   8   8
#     4  11  24  45  74 105 148 190 246 297 374 442
#     4  12  29  50  72 104 147 198 251 301 367 439
#     4  12  26  46  77 112 148 205 242 310 377 445
#     4  11  26  46  75 107 148 192 242 318 364 445
#     4  12  25  45  73 113 152 187 252 307 382 442
#
# _framework density 21.943107000000001
#
# number of rings (size 3 to 8) (size 9 to 14) (size 15 to 20)
#    0.000    0.400    4.000    3.600    5.600    5.600 
#    0.000    0.000    0.000    0.000    0.000    0.000 
#    0.000    0.000    0.000    0.000    0.000    0.000 
#
# Total GULP energy -111711.527431 kJ/mol
# GULP energy per Si atom -5585.576372 kJ/mol
# Density = 2.189316 g / cm^3
# Si number density = 21.943107 Si / 1000 Ang^3
#
#
#
# Elastic Constant Matrix: (Units=GPa)
#
#
# Indices 1 2 3 4 5 6 
#
# 1 136.0451 24.0366 52.8257 0.0000 18.4614 0.0000
# 2 24.0366 102.6387 67.2051 0.0000 3.8546 0.0000
# 3 52.8257 67.2051 167.4689 0.0000 21.6500 0.0000
# 4 0.0000 0.0000 0.0000 38.6869 0.0000 -1.5671
# 5 18.4614 3.8546 21.6500 0.0000 55.4881 0.0000
# 6 0.0000 0.0000 0.0000 -1.5671 0.0000 14.5068
#
#
#
# Elastic Compliance Matrix: (Units=1/GPa)
#
#
# Indices 1 2 3 4 5 6 
#
# 1 0.008575 -0.000445 -0.002276 0.000000 -0.001934 0.000000
# 2 -0.000445 0.013316 -0.005374 0.000000 0.001320 0.000000
# 3 -0.002276 -0.005374 0.009162 0.000000 -0.002444 0.000000
# 4 0.000000 0.000000 0.000000 0.025962 0.000000 0.002805
# 5 -0.001934 0.001320 -0.002444 0.000000 0.019527 0.000000
# 6 0.000000 0.000000 0.000000 0.002805 0.000000 0.069236
#
#
# Mechanical properties :
#
#
# Convention : Reuss Voigt Hill
#
# Bulk Modulus (GPa) = 67.28281 77.14304 72.21293
# Shear Modulus (GPa) = 29.95364 39.20872 34.58118
#
# Velocity S-wave (km/s) = 3.69868 4.23168 3.97413
# Velocity P-wave (km/s) = 6.99780 7.68820 7.35111
#
# Compressibility (1/GPa) = 0.01486264
#
# Stress axis : x y z
#
# Youngs Moduli (GPa) = 116.61128 75.09542 109.14799
#
# Poissons Ratio (x) = 0.03343 0.24846
# Poissons Ratio (y) = 0.05191 0.58657
# Poissons Ratio (z) = 0.26545 0.40357
#
# Static dielectric constant tensor:
#      x y z
#    x 1.865090 0.000000 0.022630 
#    y 0.000000 1.872060 0.000000 
#    z 0.022630 0.000000 1.843320 
# 
# From -- ./inp_files/39393.got.cif
#   From: 2010.05.17/outbox.cif.g08.bks.cpg/sg15_20_cif.got.tgz:39393.got - 2010.06.03 18:47:42.
