data_PCOD9305773
_publ_section_title
;
Structure prediction by ZEFSAII (Michael W. Deem and Ramdas Pophale) SiO2 
 PCOD9305773
Probable space group: C 2/C
;
_chemical_formula_sum "Si O2"
_cell_formula_units_Z 52
_cell_length_a 9.343240
_cell_length_b 16.651135
_cell_length_c 17.708788
_cell_angle_alpha 90.000000
_cell_angle_beta 118.195176
_cell_angle_gamma 90.000000
_cell_volume 2428.148596
_symmetry_space_group_name_H-M "C 2/C"
_symmetry_group_IT_number 15
_symmetry_cell_setting 'monoclinic'
loop_
_space_group_symop_operation_xyz
x,y,z
-x,y,1/2-z
-x,-y,-z
x,-y,1/2+z
1/2+x,1/2+y,z
1/2-x,1/2+y,1/2-z
1/2-x,1/2-y,-z
1/2+x,1/2-y,1/2+z
loop_
_atom_site_type_symbol
_atom_site_label
_atom_site_fract_x
_atom_site_fract_y
_atom_site_fract_z
Si Si1 0.769303 0.269922 0.125019
Si Si2 0.756039 0.998556 0.729221
Si Si3 0.591761 0.478496 0.395788
Si Si4 0.554036 0.655310 0.439258
Si Si5 0.500000 0.099405 0.750000
Si Si6 0.420616 0.834821 0.810062
Si Si7 0.757830 0.838338 0.964731
O O1 0.885966 0.199827 0.121378
O O2 0.665815 0.238008 0.169270
O O3 0.877407 0.344010 0.175478
O O4 0.648772 0.299471 0.029780
O O5 0.803377 0.013710 0.654487
O O6 0.598640 0.046126 0.716021
O O7 0.906473 0.025213 0.819498
O O8 0.709922 0.905777 0.728719
O O9 0.600604 0.561760 0.444516
O O10 0.653293 0.403082 0.459394
O O11 0.366600 0.664616 0.415918
O O12 0.500000 0.813115 0.750000
O O13 0.573857 0.863044 0.899355
O O14 0.750000 0.750000 0.000000
#
# Coordination Sequence:
#
# PCOD9305773 Si02
#       7
#     8   8   8   8   4   8   8
#     4  11  27  45  72 105 145 190 239 303 371 438
#     4  11  26  47  72 112 139 197 248 303 370 442
#     4  11  26  47  79  99 153 192 249 299 373 447
#     4  11  24  47  71 105 142 189 244 293 371 441
#     4  12  28  44  70 102 150 182 244 300 372 428
#     4  12  26  47  74 105 147 192 253 308 368 440
#     4  12  27  45  72 109 144 192 246 309 371 433
#
# _framework density 21.415493000000001
#
# number of rings (size 3 to 8) (size 9 to 14) (size 15 to 20)
#    0.000    0.615    3.846    2.308    8.615    0.615 
#    0.000    0.000    0.000    0.000    0.000    0.000 
#    0.000    0.000    0.000    0.000    0.000    0.000 
#
# Total GULP energy -145551.501238 kJ/mol
# GULP energy per Si atom -5598.134663 kJ/mol
# Density = 2.136675 g / cm^3
# Si number density = 21.415493 Si / 1000 Ang^3
#
#
#
# Elastic Constant Matrix: (Units=GPa)
#
#
# Indices 1 2 3 4 5 6 
#
# 1 147.2725 49.5787 38.2661 0.0000 -14.9660 0.0000
# 2 49.5787 123.8135 31.5010 0.0000 -13.7132 0.0000
# 3 38.2661 31.5010 64.7943 0.0000 -7.1792 0.0000
# 4 0.0000 0.0000 0.0000 32.7512 0.0000 -8.0022
# 5 -14.9660 -13.7132 -7.1792 0.0000 34.0891 0.0000
# 6 0.0000 0.0000 0.0000 -8.0022 0.0000 95.2932
#
#
#
# Elastic Compliance Matrix: (Units=1/GPa)
#
#
# Indices 1 2 3 4 5 6 
#
# 1 0.008776 -0.002306 -0.003827 0.000000 0.002119 0.000000
# 2 -0.002306 0.010097 -0.003286 0.000000 0.002357 0.000000
# 3 -0.003827 -0.003286 0.019412 0.000000 0.001086 0.000000
# 4 0.000000 0.000000 0.000000 0.031173 0.000000 0.002618
# 5 0.002119 0.002357 0.001086 0.000000 0.031442 0.000000
# 6 0.000000 0.000000 0.000000 0.002618 0.000000 0.010714
#
#
# Mechanical properties :
#
#
# Convention : Reuss Voigt Hill
#
# Bulk Modulus (GPa) = 51.42177 63.84130 57.63153
# Shear Modulus (GPa) = 36.51394 46.86232 41.68813
#
# Velocity S-wave (km/s) = 4.13367 4.68294 4.41685
# Velocity P-wave (km/s) = 6.84446 7.68866 7.27881
#
# Compressibility (1/GPa) = 0.01944702
#
# Stress axis : x y z
#
# Youngs Moduli (GPa) = 113.94501 99.03834 51.51569
#
# Poissons Ratio (x) = 0.22836 0.19716
# Poissons Ratio (y) = 0.26273 0.16928
# Poissons Ratio (z) = 0.43609 0.32543
#
# Static dielectric constant tensor:
#      x y z
#    x 1.779370 0.000000 0.045730 
#    y 0.000000 1.746160 0.000000 
#    z 0.045730 0.000000 1.886540 
# 
# From -- ./inp_files/190577.got.cif
#   From: 2010.05.17/outbox.cif.g08.bks.cpg/sg15_96_cif.got.tgz:190577.got - 2010.06.03 18:47:42.
