data_PCOD9305806
_publ_section_title
;
Structure prediction by ZEFSAII (Michael W. Deem and Ramdas Pophale) SiO2 
 PCOD9305806
Probable space group: C 2/C
;
_chemical_formula_sum "Si O2"
_cell_formula_units_Z 40
_cell_length_a 11.566798
_cell_length_b 17.850144
_cell_length_c 7.982238
_cell_angle_alpha 90.000000
_cell_angle_beta 100.238363
_cell_angle_gamma 90.000000
_cell_volume 1621.842024
_symmetry_space_group_name_H-M "C 2/C"
_symmetry_group_IT_number 15
_symmetry_cell_setting 'monoclinic'
loop_
_space_group_symop_operation_xyz
x,y,z
-x,y,1/2-z
-x,-y,-z
x,-y,1/2+z
1/2+x,1/2+y,z
1/2-x,1/2+y,1/2-z
1/2-x,1/2-y,-z
1/2+x,1/2-y,1/2+z
loop_
_atom_site_type_symbol
_atom_site_label
_atom_site_fract_x
_atom_site_fract_y
_atom_site_fract_z
Si Si1 0.960826 0.609803 0.984335
Si Si2 0.444665 0.718201 0.546755
Si Si3 0.245345 0.107205 0.126792
Si Si4 0.822503 0.826651 0.534821
Si Si5 0.188317 0.445171 0.355968
O O1 0.882442 0.561235 0.834907
O O2 0.089399 0.579021 0.969789
O O3 0.946636 0.699406 0.959504
O O4 0.887361 0.605598 0.137885
O O5 0.500000 0.725406 0.750000
O O6 0.325461 0.668461 0.504307
O O7 0.540324 0.677766 0.457189
O O8 0.209883 0.133720 0.300791
O O9 0.231225 0.018339 0.096790
O O10 0.750000 0.750000 0.500000
O O11 0.776276 0.876817 0.373164
#
# Coordination Sequence:
#
# PCOD9305806 Si02
#       5
#     8   8   8   8   8
#     4  11  24  47  74 106 150 198 257 306 376 457
#     4  12  26  47  77 110 148 205 258 312 374 461
#     4  12  26  44  73 113 148 195 250 316 385 446
#     4  12  24  45  75 108 151 200 253 316 381 458
#     4  11  25  45  74 106 153 194 246 315 388 444
#
# _framework density 24.663315999999998
#
# number of rings (size 3 to 8) (size 9 to 14) (size 15 to 20)
#    0.000    0.400    2.000    6.600    2.800    2.400 
#    0.000    2.000    0.000    0.000    0.000    0.000 
#    0.000    0.000    0.000    0.000    0.000    0.000 
#
# Total GULP energy -111512.719868 kJ/mol
# GULP energy per Si atom -5575.635993 kJ/mol
# Density = 2.460718 g / cm^3
# Si number density = 24.663316 Si / 1000 Ang^3
#
#
#
# Elastic Constant Matrix: (Units=GPa)
#
#
# Indices 1 2 3 4 5 6 
#
# 1 106.6825 41.1935 46.6098 0.0000 -25.9452 0.0000
# 2 41.1935 191.5641 26.5702 0.0000 8.9539 0.0000
# 3 46.6098 26.5702 89.9008 0.0000 -19.7107 0.0000
# 4 0.0000 0.0000 0.0000 129.7538 0.0000 -219.0770
# 5 -25.9452 8.9539 -19.7107 0.0000 54.2112 0.0000
# 6 0.0000 0.0000 0.0000 -219.0770 0.0000 499.5370
#
#
#
# Elastic Compliance Matrix: (Units=1/GPa)
#
#
# Indices 1 2 3 4 5 6 
#
# 1 0.013923 -0.002490 -0.005359 0.000000 0.005127 0.000000
# 2 -0.002490 0.006022 -0.001052 0.000000 -0.002569 0.000000
# 3 -0.005359 -0.001052 0.014874 0.000000 0.003017 0.000000
# 4 0.000000 0.000000 0.000000 0.029695 0.000000 0.013023
# 5 0.005127 -0.002569 0.003017 0.000000 0.022421 0.000000
# 6 0.000000 0.000000 0.000000 0.013023 0.000000 0.007713
#
#
# Mechanical properties :
#
#
# Convention : Reuss Voigt Hill
#
# Bulk Modulus (GPa) = 58.76360 68.54382 63.65371
# Shear Modulus (GPa) = 42.32894 154.95199 98.64047
#
# Velocity S-wave (km/s) = 4.14728 7.93494 6.33101
# Velocity P-wave (km/s) = 6.84188 10.57370 8.90546
#
# Compressibility (1/GPa) = 0.01701734
#
# Stress axis : x y z
#
# Youngs Moduli (GPa) = 71.82275 166.06690 67.23180
#
# Poissons Ratio (x) = 0.41357 0.36026
# Poissons Ratio (y) = 0.17887 0.07071
# Poissons Ratio (z) = 0.38487 0.17466
#
# Static dielectric constant tensor:
#      x y z
#    x 1.998490 0.000000 -0.037700 
#    y 0.000000 2.108330 0.000000 
#    z -0.037700 0.000000 2.049540 
# 
# From -- ./inp_files/29306.got.cif
#   From: 2010.05.17/outbox.cif.g08.bks.cpg/sg15_15_cif.got.tgz:29306.got - 2010.06.03 18:47:42.
