data_PCOD9305538
_publ_section_title
;
Structure prediction by ZEFSAII (Michael W. Deem and Ramdas Pophale) SiO2 
 PCOD9305538
Probable space group: C 2/C
;
_chemical_formula_sum "Si O2"
_cell_formula_units_Z 28
_cell_length_a 10.944677
_cell_length_b 8.689125
_cell_length_c 13.528035
_cell_angle_alpha 90.000000
_cell_angle_beta 65.562490
_cell_angle_gamma 90.000000
_cell_volume 1171.256923
_symmetry_space_group_name_H-M "C 2/C"
_symmetry_group_IT_number 15
_symmetry_cell_setting 'monoclinic'
loop_
_space_group_symop_operation_xyz
x,y,z
-x,y,1/2-z
-x,-y,-z
x,-y,1/2+z
1/2+x,1/2+y,z
1/2-x,1/2+y,1/2-z
1/2-x,1/2-y,-z
1/2+x,1/2-y,1/2+z
loop_
_atom_site_type_symbol
_atom_site_label
_atom_site_fract_x
_atom_site_fract_y
_atom_site_fract_z
Si Si1 0.527098 0.210924 0.564435
Si Si2 0.747892 0.756933 0.665212
Si Si3 0.283234 0.404828 0.863976
Si Si4 0.500000 0.977758 0.750000
O O1 0.390005 0.269941 0.560125
O O2 0.605506 0.345136 0.596546
O O3 0.637442 0.131540 0.458849
O O4 0.482796 0.084642 0.660247
O O5 0.699247 0.582806 0.668130
O O6 0.787323 0.803183 0.763913
O O7 0.629088 0.874310 0.682471
#
# Coordination Sequence:
#
# PCOD9305538 Si02
#       4
#     8   8   8   4
#     4  11  24  48  66  98 135 175 216 287 313 400
#     4  12  24  43  68  99 133 178 212 280 318 404
#     4  11  24  45  73  94 135 173 225 266 344 373
#     4  12  26  40  70  98 138 174 224 260 340 382
#
# _framework density 23.905940000000001
#
# number of rings (size 3 to 8) (size 9 to 14) (size 15 to 20)
#    0.000    0.571    5.714    0.857    4.000    1.143 
#    0.000    4.286    0.000    0.000    0.000    0.000 
#    0.000    0.000    0.000    0.000    0.000    0.000 
#
# Total GULP energy -78422.626790 kJ/mol
# GULP energy per Si atom -5601.616199 kJ/mol
# Density = 2.385153 g / cm^3
# Si number density = 23.905940 Si / 1000 Ang^3
#
#
#
# Elastic Constant Matrix: (Units=GPa)
#
#
# Indices 1 2 3 4 5 6 
#
# 1 116.3453 43.0757 10.9361 0.0000 -49.2495 0.0000
# 2 43.0757 113.7010 28.1474 0.0000 -27.5313 0.0000
# 3 10.9361 28.1474 45.5025 0.0000 -23.3656 0.0000
# 4 0.0000 0.0000 0.0000 21.1213 0.0000 -8.7476
# 5 -49.2495 -27.5313 -23.3656 0.0000 39.9950 0.0000
# 6 0.0000 0.0000 0.0000 -8.7476 0.0000 39.0461
#
#
#
# Elastic Compliance Matrix: (Units=1/GPa)
#
#
# Indices 1 2 3 4 5 6 
#
# 1 0.023311 -0.004117 0.014613 0.000000 0.034407 0.000000
# 2 -0.004117 0.011816 -0.006781 0.000000 -0.000898 0.000000
# 3 0.014613 -0.006781 0.042146 0.000000 0.037948 0.000000
# 4 0.000000 0.000000 0.000000 0.052188 0.000000 0.011692
# 5 0.034407 -0.000898 0.037948 0.000000 0.088924 0.000000
# 6 0.000000 0.000000 0.000000 0.011692 0.000000 0.028230
#
#
# Mechanical properties :
#
#
# Convention : Reuss Voigt Hill
#
# Bulk Modulus (GPa) = 11.80619 48.87415 30.34017
# Shear Modulus (GPa) = 18.69723 32.92511 25.81117
#
# Velocity S-wave (km/s) = 2.79967 3.71519 3.28944
# Velocity P-wave (km/s) = 3.92431 6.23637 5.21021
#
# Compressibility (1/GPa) = 0.08470135
#
# Stress axis : x y z
#
# Youngs Moduli (GPa) = 42.89878 84.62999 23.72720
#
# Poissons Ratio (x) = 0.34846 -0.34672
# Poissons Ratio (y) = 0.17663 0.16089
# Poissons Ratio (z) = -0.62686 0.57385
#
# Static dielectric constant tensor:
#      x y z
#    x 1.967150 0.000000 -0.015470 
#    y 0.000000 1.860770 0.000000 
#    z -0.015470 0.000000 1.921710 
# 
# From -- ./inp_files/121269.got.cif
#   From: 2010.05.17/outbox.cif.g08.bks.cpg/sg15_61_cif.got.tgz:121269.got - 2010.06.03 18:47:42.
