data_PCOD9305550
_publ_section_title
;
Structure prediction by ZEFSAII (Michael W. Deem and Ramdas Pophale) SiO2 
 PCOD9305550
Probable space group: C 2/C
;
_chemical_formula_sum "Si O2"
_cell_formula_units_Z 44
_cell_length_a 9.630772
_cell_length_b 20.493799
_cell_length_c 11.430992
_cell_angle_alpha 90.000000
_cell_angle_beta 107.411103
_cell_angle_gamma 90.000000
_cell_volume 2152.776177
_symmetry_space_group_name_H-M "C 2/C"
_symmetry_group_IT_number 15
_symmetry_cell_setting 'monoclinic'
loop_
_space_group_symop_operation_xyz
x,y,z
-x,y,1/2-z
-x,-y,-z
x,-y,1/2+z
1/2+x,1/2+y,z
1/2-x,1/2+y,1/2-z
1/2-x,1/2-y,-z
1/2+x,1/2-y,1/2+z
loop_
_atom_site_type_symbol
_atom_site_label
_atom_site_fract_x
_atom_site_fract_y
_atom_site_fract_z
Si Si1 0.795311 0.852079 0.077740
Si Si2 0.469847 0.223500 0.107630
Si Si3 0.257214 0.177090 0.460318
Si Si4 0.823133 0.591645 0.703333
Si Si5 0.000000 0.880971 0.750000
Si Si6 0.356331 0.533994 0.411968
O O1 0.935171 0.802736 0.097415
O O2 0.748941 0.875079 0.197951
O O3 0.667156 0.809391 0.989225
O O4 0.807397 0.916622 0.001560
O O5 0.500000 0.211079 0.250000
O O6 0.601344 0.183049 0.083280
O O7 0.250000 0.250000 0.500000
O O8 0.276675 0.131508 0.576691
O O9 0.112573 0.160284 0.353730
O O10 0.758610 0.519583 0.662289
O O11 0.000000 0.591702 0.750000
O O12 0.094398 0.924564 0.686941
O O13 0.500000 0.500000 0.500000
#
# Coordination Sequence:
#
# PCOD9305550 Si02
#       6
#     8   8   8   8   4   8
#     4  11  26  47  72 107 147 185 247 302 370 431
#     4  11  24  45  74 106 141 189 236 308 371 434
#     4  12  26  45  73 107 148 190 246 301 372 435
#     4  12  27  48  74 107 150 196 248 308 368 435
#     4  12  26  48  72 108 150 196 244 306 360 444
#     4  12  26  46  72 105 145 199 243 296 363 437
#
# _framework density 20.438723
#
# number of rings (size 3 to 8) (size 9 to 14) (size 15 to 20)
#    0.000    0.364    3.636    4.364    3.818    5.818 
#    0.000    0.000    0.000    0.000    0.000    0.000 
#    0.000    0.000    0.000    0.000    0.000    0.000 
#
# Total GULP energy -122777.866592 kJ/mol
# GULP energy per Si atom -5580.812118 kJ/mol
# Density = 2.039220 g / cm^3
# Si number density = 20.438723 Si / 1000 Ang^3
#
#
#
# Elastic Constant Matrix: (Units=GPa)
#
#
# Indices 1 2 3 4 5 6 
#
# 1 101.0710 72.1185 74.4221 0.0000 2.9102 0.0000
# 2 72.1185 152.5777 90.3784 0.0000 -0.1212 0.0000
# 3 74.4221 90.3784 177.9898 0.0000 -1.3278 0.0000
# 4 0.0000 0.0000 0.0000 38.9494 0.0000 3.2897
# 5 2.9102 -0.1212 -1.3278 0.0000 45.7354 0.0000
# 6 0.0000 0.0000 0.0000 3.2897 0.0000 47.0323
#
#
#
# Elastic Compliance Matrix: (Units=1/GPa)
#
#
# Indices 1 2 3 4 5 6 
#
# 1 0.017044 -0.005478 -0.004354 0.000000 -0.001225 0.000000
# 2 -0.005478 0.011135 -0.003361 0.000000 0.000280 0.000000
# 3 -0.004354 -0.003361 0.009150 0.000000 0.000534 0.000000
# 4 0.000000 0.000000 0.000000 0.025827 0.000000 -0.001806
# 5 -0.001225 0.000280 0.000534 0.000000 0.021959 0.000000
# 6 0.000000 0.000000 0.000000 -0.001806 0.000000 0.021388
#
#
# Mechanical properties :
#
#
# Convention : Reuss Voigt Hill
#
# Bulk Modulus (GPa) = 91.39496 100.60850 96.00173
# Shear Modulus (GPa) = 36.62013 39.32473 37.97243
#
# Velocity S-wave (km/s) = 4.23744 4.39114 4.31497
# Velocity P-wave (km/s) = 8.29186 8.66261 8.47926
#
# Compressibility (1/GPa) = 0.01094152
#
# Stress axis : x y z
#
# Youngs Moduli (GPa) = 58.67067 89.81046 109.29435
#
# Poissons Ratio (x) = 0.49199 0.47589
# Poissons Ratio (y) = 0.32140 0.36736
# Poissons Ratio (z) = 0.25546 0.30187
#
# Static dielectric constant tensor:
#      x y z
#    x 1.686230 0.000000 0.013650 
#    y 0.000000 1.625420 0.000000 
#    z 0.013650 0.000000 1.638250 
# 
# From -- ./inp_files/78388.got.cif
#   From: 2010.05.17/outbox.cif.g08.bks.cpg/sg15_40_cif.got.tgz:78388.got - 2010.06.03 18:47:42.
