data_PCOD9305405
_publ_section_title
;
Structure prediction by ZEFSAII (Michael W. Deem and Ramdas Pophale) SiO2 
 PCOD9305405
Probable space group: C 2/C
;
_chemical_formula_sum "Si O2"
_cell_formula_units_Z 40
_cell_length_a 5.066462
_cell_length_b 14.279286
_cell_length_c 22.010408
_cell_angle_alpha 90.000000
_cell_angle_beta 102.696337
_cell_angle_gamma 90.000000
_cell_volume 1553.417822
_symmetry_space_group_name_H-M "C 2/C"
_symmetry_group_IT_number 15
_symmetry_cell_setting 'monoclinic'
loop_
_space_group_symop_operation_xyz
x,y,z
-x,y,1/2-z
-x,-y,-z
x,-y,1/2+z
1/2+x,1/2+y,z
1/2-x,1/2+y,1/2-z
1/2-x,1/2-y,-z
1/2+x,1/2-y,1/2+z
loop_
_atom_site_type_symbol
_atom_site_label
_atom_site_fract_x
_atom_site_fract_y
_atom_site_fract_z
Si Si1 0.914517 0.321023 0.077791
Si Si2 0.445224 0.540060 0.315933
Si Si3 0.964314 0.512069 0.100628
Si Si4 0.587587 0.659915 0.012539
Si Si5 0.793242 0.256580 0.290340
O O1 0.029948 0.421818 0.061323
O O2 0.900231 0.213429 0.053137
O O3 0.108453 0.307302 0.144667
O O4 0.605092 0.356350 0.054656
O O5 0.500000 0.502535 0.250000
O O6 0.219989 0.491410 0.347901
O O7 0.327342 0.645097 0.301856
O O8 0.741943 0.546510 0.362112
O O9 0.773336 0.584364 0.054377
O O10 0.750000 0.750000 0.000000
O O11 0.500000 0.275756 0.250000
O O12 0.000000 0.286687 0.250000
#
# Coordination Sequence:
#
# PCOD9305405 Si02
#       5
#     8   8   8   8   8
#     4  11  27  45  71 109 140 190 242 305 359 440
#     4  11  24  45  72 105 145 193 237 302 371 438
#     4  12  26  45  74 107 147 186 250 303 373 433
#     4  11  26  47  74  99 149 193 246 297 373 433
#     4  11  24  44  74 101 141 189 237 291 366 435
#
# _framework density 25.749670999999999
#
# number of rings (size 3 to 8) (size 9 to 14) (size 15 to 20)
#    0.000    0.800    2.000    4.800    8.400    3.200 
#    0.000    0.000    0.000    0.000    0.000    0.000 
#    0.000    0.000    0.000    0.000    0.000    0.000 
#
# Total GULP energy -111437.726584 kJ/mol
# GULP energy per Si atom -5571.886329 kJ/mol
# Density = 2.569106 g / cm^3
# Si number density = 25.749671 Si / 1000 Ang^3
#
#
#
# Elastic Constant Matrix: (Units=GPa)
#
#
# Indices 1 2 3 4 5 6 
#
# 1 159.8732 4.1450 57.5741 0.0000 38.6542 0.0000
# 2 4.1450 99.8025 17.8929 0.0000 9.1152 0.0000
# 3 57.5741 17.8929 94.2686 0.0000 35.6214 0.0000
# 4 0.0000 0.0000 0.0000 42.3061 0.0000 7.8375
# 5 38.6542 9.1152 35.6214 0.0000 67.2589 0.0000
# 6 0.0000 0.0000 0.0000 7.8375 0.0000 24.6717
#
#
#
# Elastic Compliance Matrix: (Units=1/GPa)
#
#
# Indices 1 2 3 4 5 6 
#
# 1 0.008416 0.000657 -0.004255 0.000000 -0.002672 0.000000
# 2 0.000657 0.010435 -0.002132 0.000000 -0.000663 0.000000
# 3 -0.004255 -0.002132 0.015725 0.000000 -0.005594 0.000000
# 4 0.000000 0.000000 0.000000 0.025115 0.000000 -0.007978
# 5 -0.002672 -0.000663 -0.005594 0.000000 0.019456 0.000000
# 6 0.000000 0.000000 0.000000 -0.007978 0.000000 0.043067
#
#
# Mechanical properties :
#
#
# Convention : Reuss Voigt Hill
#
# Bulk Modulus (GPa) = 43.25637 57.01870 50.13754
# Shear Modulus (GPa) = 35.36561 45.13616 40.25089
#
# Velocity S-wave (km/s) = 3.71001 4.19129 3.95797
# Velocity P-wave (km/s) = 5.93191 6.75382 6.35616
#
# Compressibility (1/GPa) = 0.02311798
#
# Stress axis : x y z
#
# Youngs Moduli (GPa) = 118.81444 95.82934 63.59198
#
# Poissons Ratio (x) = -0.06300 0.27060
# Poissons Ratio (y) = -0.07811 0.13556
# Poissons Ratio (z) = 0.50559 0.20427
#
# Static dielectric constant tensor:
#      x y z
#    x 2.064460 0.000000 0.017290 
#    y 0.000000 2.102710 0.000000 
#    z 0.017290 0.000000 1.993710 
# 
# From -- ./inp_files/260214.got.cif
#   From: 2010.05.17/outbox.cif.g08.bks.cpg/sg15_131_cif.got.tgz:260214.got - 2010.06.03 18:47:42.
