data_PCOD9305168
_publ_section_title
;
Structure prediction by ZEFSAII (Michael W. Deem and Ramdas Pophale) SiO2 
 PCOD9305168
Probable space group: C 2/C
;
_chemical_formula_sum "Si O2"
_cell_formula_units_Z 56
_cell_length_a 11.825849
_cell_length_b 11.385837
_cell_length_c 28.660782
_cell_angle_alpha 90.000000
_cell_angle_beta 51.762563
_cell_angle_gamma 90.000000
_cell_volume 3031.135431
_symmetry_space_group_name_H-M "C 2/C"
_symmetry_group_IT_number 15
_symmetry_cell_setting 'monoclinic'
loop_
_space_group_symop_operation_xyz
x,y,z
-x,y,1/2-z
-x,-y,-z
x,-y,1/2+z
1/2+x,1/2+y,z
1/2-x,1/2+y,1/2-z
1/2-x,1/2-y,-z
1/2+x,1/2-y,1/2+z
loop_
_atom_site_type_symbol
_atom_site_label
_atom_site_fract_x
_atom_site_fract_y
_atom_site_fract_z
Si Si1 0.924876 0.765894 0.317628
Si Si2 0.435658 0.375000 0.126228
Si Si3 0.872240 0.515894 0.817628
Si Si4 0.605183 0.809373 0.424167
Si Si5 0.947465 0.066026 0.466696
Si Si6 0.627685 0.059373 0.575833
Si Si7 0.402446 0.183974 0.466696
O O1 0.893006 0.625000 0.321330
O O2 0.769049 0.821288 0.366657
O O3 0.000000 0.800156 0.250000
O O4 0.021860 0.813727 0.335805
O O5 0.279276 0.436274 0.164195
O O6 0.539701 0.479206 0.080775
O O7 0.467973 0.270794 0.080776
O O8 0.880980 0.571288 0.866657
O O9 0.000000 0.550156 0.750000
O O10 0.555178 0.674188 0.434724
O O11 0.499956 0.875000 0.416696
O O12 0.585527 0.850901 0.482478
O O13 0.782961 0.100902 0.517522
O O14 0.000000 0.000000 0.500000
O O15 0.609351 0.924188 0.565276
O O16 0.250000 0.250000 0.500000
#
# Coordination Sequence:
#
# PCOD9305168 Si02
#       7
#     8   8   8   8   8   8   8
#     4  11  24  43  66  92 125 177 224 258 314 387
#     4  12  22  40  72  90 125 162 224 264 312 380
#     4  11  24  43  66  92 125 177 224 258 314 387
#     4  12  23  38  61  99 135 165 207 272 327 382
#     4  12  20  38  65  93 126 166 210 258 321 389
#     4  12  23  38  61  99 135 165 207 272 327 382
#     4  12  20  38  65  93 126 166 210 258 321 389
#
# _framework density 18.474924000000001
#
# number of rings (size 3 to 8) (size 9 to 14) (size 15 to 20)
#    0.000    0.286    8.571    0.857    2.000    0.000 
#    0.000    0.000    0.000    1.714    0.000    0.000 
#    0.000    0.000    0.000    0.000    0.000    0.000 
#
# Total GULP energy -156318.104450 kJ/mol
# GULP energy per Si atom -5582.789445 kJ/mol
# Density = 1.843287 g / cm^3
# Si number density = 18.474924 Si / 1000 Ang^3
#
#
#
# Elastic Constant Matrix: (Units=GPa)
#
#
# Indices 1 2 3 4 5 6 
#
# 1 138.4485 36.2495 76.6269 0.0000 0.1946 0.0000
# 2 36.2495 57.0358 24.1775 0.0000 0.1789 0.0000
# 3 76.6269 24.1775 164.6336 0.0000 -0.5820 0.0000
# 4 0.0000 0.0000 0.0000 8.9236 0.0000 0.3620
# 5 0.1946 0.1789 -0.5820 0.0000 24.3631 0.0000
# 6 0.0000 0.0000 0.0000 0.3620 0.0000 33.3564
#
#
#
# Elastic Compliance Matrix: (Units=1/GPa)
#
#
# Indices 1 2 3 4 5 6 
#
# 1 0.010977 -0.005130 -0.004357 0.000000 -0.000154 0.000000
# 2 -0.005130 0.021095 -0.000711 0.000000 -0.000131 0.000000
# 3 -0.004357 -0.000711 0.008207 0.000000 0.000236 0.000000
# 4 0.000000 0.000000 0.000000 0.112112 0.000000 -0.001217
# 5 -0.000154 -0.000131 0.000236 0.000000 0.041054 0.000000
# 6 0.000000 0.000000 0.000000 -0.001217 0.000000 0.029992
#
#
# Mechanical properties :
#
#
# Convention : Reuss Voigt Hill
#
# Bulk Modulus (GPa) = 50.28855 70.46950 60.37903
# Shear Modulus (GPa) = 19.96329 28.19954 24.08142
#
# Velocity S-wave (km/s) = 3.29076 3.91111 3.61427
# Velocity P-wave (km/s) = 6.45893 7.65649 7.08307
#
# Compressibility (1/GPa) = 0.01988524
#
# Stress axis : x y z
#
# Youngs Moduli (GPa) = 91.09649 47.40524 121.84683
#
# Poissons Ratio (x) = 0.24317 0.53083
# Poissons Ratio (y) = 0.46728 0.08662
# Poissons Ratio (z) = 0.39687 0.03370
#
# Static dielectric constant tensor:
#      x y z
#    x 1.623330 0.000000 -0.000240 
#    y 0.000000 1.638830 0.000000 
#    z -0.000240 0.000000 1.639640 
# 
# From -- ./inp_files/236941.got.cif
#   From: 2010.05.17/outbox.cif.g08.bks.cpg/sg15_119_cif.got.tgz:236941.got - 2010.06.03 18:47:42.
