data_PCOD9305299
_publ_section_title
;
Structure prediction by ZEFSAII (Michael W. Deem and Ramdas Pophale) SiO2 
 PCOD9305299
Probable space group: C 2/C
;
_chemical_formula_sum "Si O2"
_cell_formula_units_Z 28
_cell_length_a 9.425502
_cell_length_b 26.552254
_cell_length_c 6.568786
_cell_angle_alpha 90.000000
_cell_angle_beta 132.301525
_cell_angle_gamma 90.000000
_cell_volume 1215.893789
_symmetry_space_group_name_H-M "C 2/C"
_symmetry_group_IT_number 15
_symmetry_cell_setting 'monoclinic'
loop_
_space_group_symop_operation_xyz
x,y,z
-x,y,1/2-z
-x,-y,-z
x,-y,1/2+z
1/2+x,1/2+y,z
1/2-x,1/2+y,1/2-z
1/2-x,1/2-y,-z
1/2+x,1/2-y,1/2+z
loop_
_atom_site_type_symbol
_atom_site_label
_atom_site_fract_x
_atom_site_fract_y
_atom_site_fract_z
Si Si1 0.000000 0.684404 0.750000
Si Si2 0.500000 0.980528 0.250000
Si Si3 0.187313 0.700568 0.321477
Si Si4 0.195780 0.099577 0.557689
Si Si5 0.000000 0.876496 0.250000
O O1 0.891014 0.715417 0.474266
O O2 0.837605 0.647453 0.684960
O O3 0.689485 0.946248 0.427981
O O4 0.500000 0.000000 0.500000
O O5 0.250000 0.750000 0.500000
O O6 0.357792 0.660553 0.488657
O O7 0.000000 0.677787 0.250000
O O8 0.000000 0.108896 0.250000
O O9 0.131974 0.091541 0.728379
#
# Coordination Sequence:
#
# PCOD9305299 Si02
#       5
#     4   4   8   8   4
#     4  11  24  44  68 100 140 190 256 302 362 442
#     4  11  30  52  76 117 158 186 234 307 380 458
#     4  12  25  42  64  99 146 192 244 318 367 419
#     4  11  25  45  79 104 140 197 241 300 367 448
#     4  12  24  44  72 105 140 188 262 297 364 442
#
# _framework density 23.028326
#
# number of rings (size 3 to 8) (size 9 to 14) (size 15 to 20)
#    0.000    0.571    7.143    0.000    4.000    2.286 
#    2.571    0.000    0.000    0.000    0.000    0.000 
#    0.000    0.000    0.000    0.000    0.000    0.000 
#
# Total GULP energy -78062.197822 kJ/mol
# GULP energy per Si atom -5575.871273 kJ/mol
# Density = 2.297591 g / cm^3
# Si number density = 23.028326 Si / 1000 Ang^3
#
#
#
# Elastic Constant Matrix: (Units=GPa)
#
#
# Indices 1 2 3 4 5 6 
#
# 1 167.6323 49.1035 52.0426 0.0000 -6.9730 0.0000
# 2 49.1035 54.2702 41.7863 0.0000 -12.1142 0.0000
# 3 52.0426 41.7863 186.2743 0.0000 -7.6364 0.0000
# 4 0.0000 0.0000 0.0000 10.7498 0.0000 -17.5352
# 5 -6.9730 -12.1142 -7.6364 0.0000 50.9906 0.0000
# 6 0.0000 0.0000 0.0000 -17.5352 0.0000 24.2671
#
#
#
# Elastic Compliance Matrix: (Units=1/GPa)
#
#
# Indices 1 2 3 4 5 6 
#
# 1 0.008225 -0.007008 -0.000753 0.000000 -0.000653 0.000000
# 2 -0.007008 0.029357 -0.004408 0.000000 0.005356 0.000000
# 3 -0.000753 -0.004408 0.006561 0.000000 -0.000168 0.000000
# 4 0.000000 0.000000 0.000000 -0.520562 0.000000 -0.376153
# 5 -0.000653 0.005356 -0.000168 0.000000 0.020770 0.000000
# 6 0.000000 0.000000 0.000000 -0.376153 0.000000 -0.230597
#
#
# Mechanical properties :
#
#
# Convention : Reuss Voigt Hill
#
# Bulk Modulus (GPa) = 50.49234 77.11573 63.80403
# Shear Modulus (GPa) = -7.62999 34.88445 13.62723
#
# Velocity S-wave (km/s) = -1.82222 3.89633 2.43525
# Velocity P-wave (km/s) = 4.18885 7.33498 5.97279
#
# Compressibility (1/GPa) = 0.01980499
#
# Stress axis : x y z
#
# Youngs Moduli (GPa) = 121.58460 34.06378 152.42412
#
# Poissons Ratio (x) = 0.23872 0.11471
# Poissons Ratio (y) = 0.85206 0.67188
# Poissons Ratio (z) = 0.09150 0.15015
#
# Static dielectric constant tensor:
#      x y z
#    x 1.948990 0.000000 -0.119490 
#    y 0.000000 1.814590 0.000000 
#    z -0.119490 0.000000 1.904840 
# 
# From -- ./inp_files/2503.got.cif
#   From: 2010.05.17/outbox.cif.g08.bks.cpg/sg15_2_cif.got.tgz:2503.got - 2010.06.03 18:47:42.
