data_PCOD9305335
_publ_section_title
;
Structure prediction by ZEFSAII (Michael W. Deem and Ramdas Pophale) SiO2 
 PCOD9305335
Probable space group: C 2/C
;
_chemical_formula_sum "Si O2"
_cell_formula_units_Z 44
_cell_length_a 16.994655
_cell_length_b 11.409290
_cell_length_c 29.109726
_cell_angle_alpha 90.000000
_cell_angle_beta 21.992292
_cell_angle_gamma 90.000000
_cell_volume 2113.683075
_symmetry_space_group_name_H-M "C 2/C"
_symmetry_group_IT_number 15
_symmetry_cell_setting 'monoclinic'
loop_
_space_group_symop_operation_xyz
x,y,z
-x,y,1/2-z
-x,-y,-z
x,-y,1/2+z
1/2+x,1/2+y,z
1/2-x,1/2+y,1/2-z
1/2-x,1/2-y,-z
1/2+x,1/2-y,1/2+z
loop_
_atom_site_type_symbol
_atom_site_label
_atom_site_fract_x
_atom_site_fract_y
_atom_site_fract_z
Si Si1 0.664722 0.989595 0.312885
Si Si2 0.000000 0.695489 0.750000
Si Si3 0.719652 0.832897 0.974420
Si Si4 0.629264 0.576277 0.892227
Si Si5 0.527768 0.457956 0.185507
Si Si6 0.863949 0.284122 0.986727
O O1 0.517856 0.875085 0.396100
O O2 0.791166 0.991809 0.196475
O O3 0.812423 0.962328 0.275906
O O4 0.536001 0.111308 0.387770
O O5 0.169015 0.768992 0.628468
O O6 0.156621 0.623731 0.699174
O O7 0.750000 0.750000 0.000000
O O8 0.834347 0.956076 0.919952
O O9 0.479464 0.679683 0.951937
O O10 0.500000 0.500000 0.000000
O O11 0.500000 0.512712 0.250000
O O12 0.664284 0.342070 0.120300
O O13 0.750000 0.250000 0.000000
#
# Coordination Sequence:
#
# PCOD9305335 Si02
#       6
#     8   4   8   8   8   8
#     4  11  26  45  73 104 148 200 251 312 382 451
#     4  12  26  46  74 106 148 198 258 308 378 448
#     4  11  24  44  70 100 142 189 246 306 369 446
#     4  12  29  46  74 110 150 198 252 311 385 464
#     4  11  25  43  69 104 142 184 252 308 375 454
#     4  11  26  47  72 104 147 196 248 311 386 445
#
# _framework density 20.816744
#
# number of rings (size 3 to 8) (size 9 to 14) (size 15 to 20)
#    0.000    0.727    4.545    1.091    7.636    2.909 
#    0.000    0.000    0.000    0.000    0.000    0.000 
#    0.000    0.000    0.000    0.000    0.000    0.000 
#
# Total GULP energy -122555.564411 kJ/mol
# GULP energy per Si atom -5570.707473 kJ/mol
# Density = 2.076936 g / cm^3
# Si number density = 20.816744 Si / 1000 Ang^3
#
#
#
# Elastic Constant Matrix: (Units=GPa)
#
#
# Indices 1 2 3 4 5 6 
#
# 1 164.8752 65.1428 75.8477 0.0063 -20.9168 -0.0070
# 2 65.1428 93.0410 48.9936 -0.0031 -1.8936 0.0013
# 3 75.8477 48.9936 103.9134 -0.0077 8.8782 0.0045
# 4 0.0063 -0.0031 -0.0077 15.5114 -0.0032 27.1631
# 5 -20.9168 -1.8936 8.8782 -0.0032 48.1767 0.0075
# 6 -0.0070 0.0013 0.0045 27.1631 0.0075 17.4202
#
#
#
# Elastic Compliance Matrix: (Units=1/GPa)
#
#
# Indices 1 2 3 4 5 6 
#
# 1 0.011904 -0.004452 -0.007128 0.000009 0.006307 -0.000010
# 2 -0.004452 0.016124 -0.004309 -0.000003 -0.000505 0.000003
# 3 -0.007128 -0.004309 0.017411 -0.000010 -0.006473 0.000011
# 4 0.000009 -0.000003 -0.000010 -0.037253 -0.000006 0.058088
# 5 0.006307 -0.000505 -0.006473 -0.000006 0.024668 0.000003
# 6 -0.000010 0.000003 0.000011 0.058088 0.000003 -0.033171
#
#
# Mechanical properties :
#
#
# Convention : Reuss Voigt Hill
#
# Bulk Modulus (GPa) = 73.21078 82.42198 77.81638
# Shear Modulus (GPa) = 138.82405 27.67803 83.25104
#
# Velocity S-wave (km/s) = 8.17517 3.65033 6.33081
# Velocity P-wave (km/s) = 11.15154 7.57935 9.53424
#
# Compressibility (1/GPa) = 0.01365919
#
# Stress axis : x y z
#
# Youngs Moduli (GPa) = 84.00751 62.01849 57.43438
#
# Poissons Ratio (x) = 0.27613 0.40941
# Poissons Ratio (y) = 0.37404 0.24750
# Poissons Ratio (z) = 0.59883 0.26725
#
# Static dielectric constant tensor:
#      x y z
#    x 1.761780 -0.000010 -0.026130 
#    y -0.000010 1.827190 -0.000060 
#    z -0.026130 -0.000060 1.839560 
# 
# From -- ./inp_files/316142.got.cif
#   From: 2010.05.17/outbox.cif.g08.bks.cpg/sg15_159_cif.got.tgz:316142.got - 2010.06.03 18:47:42.
