data_PCOD9305428
_publ_section_title
;
Structure prediction by ZEFSAII (Michael W. Deem and Ramdas Pophale) SiO2 
 PCOD9305428
Probable space group: C 2/C
;
_chemical_formula_sum "Si O2"
_cell_formula_units_Z 40
_cell_length_a 11.723429
_cell_length_b 10.068054
_cell_length_c 21.302078
_cell_angle_alpha 90.000000
_cell_angle_beta 41.926698
_cell_angle_gamma 90.000000
_cell_volume 1680.022844
_symmetry_space_group_name_H-M "C 2/C"
_symmetry_group_IT_number 15
_symmetry_cell_setting 'monoclinic'
loop_
_space_group_symop_operation_xyz
x,y,z
-x,y,1/2-z
-x,-y,-z
x,-y,1/2+z
1/2+x,1/2+y,z
1/2-x,1/2+y,1/2-z
1/2-x,1/2-y,-z
1/2+x,1/2-y,1/2+z
loop_
_atom_site_type_symbol
_atom_site_label
_atom_site_fract_x
_atom_site_fract_y
_atom_site_fract_z
Si Si1 0.759297 0.744684 0.808336
Si Si2 0.527359 0.701181 0.400763
Si Si3 0.885610 0.636484 0.452758
Si Si4 0.317279 0.039408 0.349630
Si Si5 0.747478 0.907413 0.930684
O O1 0.862406 0.736800 0.701277
O O2 0.567511 0.793782 0.874044
O O3 0.779293 0.604029 0.835181
O O4 0.813283 0.856042 0.836900
O O5 0.658720 0.631987 0.394835
O O6 0.396588 0.801745 0.487573
O O7 0.406356 0.597101 0.413562
O O8 0.750000 0.750000 0.500000
O O9 0.853121 0.534948 0.408763
O O10 0.839496 0.551105 0.532793
O O11 0.500000 0.091022 0.250000
#
# Coordination Sequence:
#
# PCOD9305428 Si02
#       5
#     8   8   8   8   8
#     4  12  25  45  75 106 148 196 245 307 378 442
#     4  11  24  44  76 108 142 200 246 303 377 445
#     4  12  26  46  70 108 143 192 251 307 376 449
#     4  12  24  47  73 104 148 192 248 305 368 448
#     4  11  24  45  71 109 147 189 251 308 368 445
#
# _framework density 23.809200000000001
#
# number of rings (size 3 to 8) (size 9 to 14) (size 15 to 20)
#    0.000    0.400    2.000    8.400    0.000    2.400 
#    0.000    0.000    0.000    0.000    0.000    0.000 
#    0.000    0.000    0.000    0.000    0.000    0.000 
#
# Total GULP energy -111972.742083 kJ/mol
# GULP energy per Si atom -5598.637104 kJ/mol
# Density = 2.375501 g / cm^3
# Si number density = 23.809200 Si / 1000 Ang^3
#
#
#
# Elastic Constant Matrix: (Units=GPa)
#
#
# Indices 1 2 3 4 5 6 
#
# 1 138.0037 11.5130 25.6585 0.0000 -36.7923 0.0000
# 2 11.5130 51.5511 13.7651 0.0000 -14.8699 0.0000
# 3 25.6585 13.7651 102.4748 0.0000 -19.9338 0.0000
# 4 0.0000 0.0000 0.0000 22.1227 0.0000 7.1268
# 5 -36.7923 -14.8699 -19.9338 0.0000 47.1460 0.0000
# 6 0.0000 0.0000 0.0000 7.1268 0.0000 21.0298
#
#
#
# Elastic Compliance Matrix: (Units=1/GPa)
#
#
# Indices 1 2 3 4 5 6 
#
# 1 0.009243 0.000179 -0.001007 0.000000 0.006844 0.000000
# 2 0.000179 0.021617 -0.001738 0.000000 0.006223 0.000000
# 3 -0.001007 -0.001738 0.010879 0.000000 0.003266 0.000000
# 4 0.000000 0.000000 0.000000 0.050742 0.000000 -0.017196
# 5 0.006844 0.006223 0.003266 0.000000 0.029895 0.000000
# 6 0.000000 0.000000 0.000000 -0.017196 0.000000 0.053379
#
#
# Mechanical properties :
#
#
# Convention : Reuss Voigt Hill
#
# Bulk Modulus (GPa) = 27.31722 43.76699 35.54210
# Shear Modulus (GPa) = 25.89453 34.13257 30.01355
#
# Velocity S-wave (km/s) = 3.30143 3.79038 3.55433
# Velocity P-wave (km/s) = 5.10205 6.13011 5.63956
#
# Compressibility (1/GPa) = 0.03660695
#
# Stress axis : x y z
#
# Youngs Moduli (GPa) = 108.18886 46.25914 91.91671
#
# Poissons Ratio (x) = -0.00827 0.09257
# Poissons Ratio (y) = -0.01933 0.15976
# Poissons Ratio (z) = 0.10896 0.08040
#
# Static dielectric constant tensor:
#      x y z
#    x 2.359820 0.000000 0.067180 
#    y 0.000000 1.890230 0.000000 
#    z 0.067180 0.000000 1.937340 
# 
# From -- ./inp_files/237365.got.cif
#   From: 2010.05.17/outbox.cif.g08.bks.cpg/sg15_119_cif.got.tgz:237365.got - 2010.06.03 18:47:42.
