data_PCOD9305752
_publ_section_title
;
Structure prediction by ZEFSAII (Michael W. Deem and Ramdas Pophale) SiO2 
 PCOD9305752
Probable space group: C 2/C
;
_chemical_formula_sum "Si O2"
_cell_formula_units_Z 44
_cell_length_a 13.622932
_cell_length_b 6.767228
_cell_length_c 22.306280
_cell_angle_alpha 90.000000
_cell_angle_beta 119.308541
_cell_angle_gamma 90.000000
_cell_volume 1793.177145
_symmetry_space_group_name_H-M "C 2/C"
_symmetry_group_IT_number 15
_symmetry_cell_setting 'monoclinic'
loop_
_space_group_symop_operation_xyz
x,y,z
-x,y,1/2-z
-x,-y,-z
x,-y,1/2+z
1/2+x,1/2+y,z
1/2-x,1/2+y,1/2-z
1/2-x,1/2-y,-z
1/2+x,1/2-y,1/2+z
loop_
_atom_site_type_symbol
_atom_site_label
_atom_site_fract_x
_atom_site_fract_y
_atom_site_fract_z
Si Si1 0.569973 0.231895 0.070992
Si Si2 0.169616 0.190791 0.357851
Si Si3 0.354088 0.336519 0.221914
Si Si4 0.000000 0.502758 0.750000
Si Si5 0.056211 0.364072 0.428214
Si Si6 0.864228 0.895365 0.839065
O O1 0.699680 0.161517 0.120001
O O2 0.576854 0.450102 0.099141
O O3 0.473978 0.094447 0.072058
O O4 0.552315 0.217132 0.994477
O O5 0.101414 0.358110 0.301306
O O6 0.161060 0.278691 0.422390
O O7 0.112491 0.981314 0.323352
O O8 0.437731 0.166260 0.271170
O O9 0.245195 0.213856 0.169216
O O10 0.332377 0.486802 0.269738
O O11 0.955457 0.274953 0.357638
#
# Coordination Sequence:
#
# PCOD9305752 Si02
#       6
#     8   8   8   4   8   8
#     4  11  24  47  69 102 139 191 245 291 363 435
#     4  12  24  45  67 104 141 185 242 301 366 433
#     4  12  26  41  70 103 139 187 237 299 373 437
#     4  12  24  42  66  98 142 182 234 302 362 434
#     4  11  25  44  73  97 141 191 239 303 353 436
#     4  12  24  44  68 101 141 182 236 301 362 429
#
# _framework density 24.537454
#
# number of rings (size 3 to 8) (size 9 to 14) (size 15 to 20)
#    0.000    0.364    3.636    6.000    2.545    0.000 
#    0.000    0.909    0.000    0.000    0.000    0.000 
#    0.000    0.000    0.000    0.000    0.000    0.000 
#
# Total GULP energy -122823.870721 kJ/mol
# GULP energy per Si atom -5582.903215 kJ/mol
# Density = 2.448161 g / cm^3
# Si number density = 24.537454 Si / 1000 Ang^3
#
#
#
# Elastic Constant Matrix: (Units=GPa)
#
#
# Indices 1 2 3 4 5 6 
#
# 1 51.2896 38.6430 2.8999 0.0000 -1.8962 0.0000
# 2 38.6430 168.9956 49.1598 0.0000 -5.8995 0.0000
# 3 2.8999 49.1598 94.2830 0.0000 -8.7860 0.0000
# 4 0.0000 0.0000 0.0000 24.1366 0.0000 -5.3185
# 5 -1.8962 -5.8995 -8.7860 0.0000 31.8692 0.0000
# 6 0.0000 0.0000 0.0000 -5.3185 0.0000 44.4635
#
#
#
# Elastic Compliance Matrix: (Units=1/GPa)
#
#
# Indices 1 2 3 4 5 6 
#
# 1 0.024079 -0.006227 0.002599 0.000000 0.000996 0.000000
# 2 -0.006227 0.008588 -0.004283 0.000000 0.000039 0.000000
# 3 0.002599 -0.004283 0.013035 0.000000 0.002955 0.000000
# 4 0.000000 0.000000 0.000000 0.042552 0.000000 0.005090
# 5 0.000996 0.000039 0.002955 0.000000 0.032259 0.000000
# 6 0.000000 0.000000 0.000000 0.005090 0.000000 0.023099
#
#
# Mechanical properties :
#
#
# Convention : Reuss Voigt Hill
#
# Bulk Modulus (GPa) = 33.46694 55.10818 44.28756
# Shear Modulus (GPa) = 29.51675 35.01824 32.26750
#
# Velocity S-wave (km/s) = 3.47209 3.78184 3.63027
# Velocity P-wave (km/s) = 5.45367 6.44805 5.97160
#
# Compressibility (1/GPa) = 0.02988024
#
# Stress axis : x y z
#
# Youngs Moduli (GPa) = 41.53038 116.43506 76.71656
#
# Poissons Ratio (x) = 0.72507 -0.19940
# Poissons Ratio (y) = 0.25862 0.32857
# Poissons Ratio (z) = -0.10794 0.49869
#
# Static dielectric constant tensor:
#      x y z
#    x 2.116060 0.000000 -0.004000 
#    y 0.000000 1.926820 0.000000 
#    z -0.004000 0.000000 1.968930 
# 
# From -- ./inp_files/271886.got.cif
#   From: 2010.05.17/outbox.cif.g08.bks.cpg/sg15_136_cif.got.tgz:271886.got - 2010.06.03 18:47:42.
