data_PCOD9305261
_publ_section_title
;
Structure prediction by ZEFSAII (Michael W. Deem and Ramdas Pophale) SiO2 
 PCOD9305261
Probable space group: C 2/C
;
_chemical_formula_sum "Si O2"
_cell_formula_units_Z 48
_cell_length_a 5.576147
_cell_length_b 23.179608
_cell_length_c 17.805827
_cell_angle_alpha 90.000000
_cell_angle_beta 74.687101
_cell_angle_gamma 90.000000
_cell_volume 2219.748530
_symmetry_space_group_name_H-M "C 2/C"
_symmetry_group_IT_number 15
_symmetry_cell_setting 'monoclinic'
loop_
_space_group_symop_operation_xyz
x,y,z
-x,y,1/2-z
-x,-y,-z
x,-y,1/2+z
1/2+x,1/2+y,z
1/2-x,1/2+y,1/2-z
1/2-x,1/2-y,-z
1/2+x,1/2-y,1/2+z
loop_
_atom_site_type_symbol
_atom_site_label
_atom_site_fract_x
_atom_site_fract_y
_atom_site_fract_z
Si Si1 0.922033 0.785711 0.541844
Si Si2 0.000000 0.052800 0.750000
Si Si3 0.415811 0.474980 0.625676
Si Si4 0.152953 0.668442 0.580086
Si Si5 0.162836 0.451461 0.025395
Si Si6 0.500000 0.877385 0.250000
Si Si7 0.217844 0.144801 0.296671
O O1 0.750000 0.750000 0.500000
O O2 0.829696 0.820611 0.621980
O O3 0.068995 0.732225 0.566325
O O4 0.067029 0.829372 0.474528
O O5 0.062171 0.012198 0.674433
O O6 0.747808 0.087857 0.754144
O O7 0.595304 0.448314 0.547863
O O8 0.240249 0.520986 0.598469
O O9 0.287488 0.422704 0.679892
O O10 0.044897 0.611671 0.546721
O O11 0.096554 0.659111 0.671372
O O12 0.000000 0.500000 0.000000
O O13 0.500000 0.159795 0.250000
O O14 0.000000 0.153949 0.250000
#
# Coordination Sequence:
#
# PCOD9305261 Si02
#       7
#     8   4   8   8   8   4   8
#     4  11  29  49  77 104 152 204 260 314 380 455
#     4  12  26  46  67 116 151 200 236 314 382 452
#     4  11  25  42  71 111 153 198 246 311 377 460
#     4  11  26  48  74 108 147 198 254 311 379 450
#     4  11  24  43  76 107 152 198 254 303 386 460
#     4  12  28  46  77 108 157 190 256 310 384 454
#     4  12  30  49  79 113 152 200 260 321 387 453
#
# _framework density 21.624072000000002
#
# number of rings (size 3 to 8) (size 9 to 14) (size 15 to 20)
#    0.000    0.667    4.167    1.000   14.000    0.000 
#    0.000    0.000    0.000    0.000    0.000    0.000 
#    0.000    0.000    0.000    0.000    0.000    0.000 
#
# Total GULP energy -133868.486318 kJ/mol
# GULP energy per Si atom -5577.853597 kJ/mol
# Density = 2.157485 g / cm^3
# Si number density = 21.624072 Si / 1000 Ang^3
#
#
#
# Elastic Constant Matrix: (Units=GPa)
#
#
# Indices 1 2 3 4 5 6 
#
# 1 88.3033 27.9915 64.6241 0.0000 -4.0069 0.0000
# 2 27.9915 98.4062 64.0135 0.0000 -9.0169 0.0000
# 3 64.6241 64.0135 181.9737 0.0000 -0.3398 0.0000
# 4 0.0000 0.0000 0.0000 45.5218 0.0000 -5.6460
# 5 -4.0069 -9.0169 -0.3398 0.0000 30.8604 0.0000
# 6 0.0000 0.0000 0.0000 -5.6460 0.0000 13.0743
#
#
#
# Elastic Compliance Matrix: (Units=1/GPa)
#
#
# Indices 1 2 3 4 5 6 
#
# 1 0.015473 -0.000873 -0.005184 0.000000 0.001697 0.000000
# 2 -0.000873 0.013688 -0.004498 0.000000 0.003836 0.000000
# 3 -0.005184 -0.004498 0.008915 0.000000 -0.001889 0.000000
# 4 0.000000 0.000000 0.000000 0.023211 0.000000 0.010023
# 5 0.001697 0.003836 -0.001889 0.000000 0.033724 0.000000
# 6 0.000000 0.000000 0.000000 0.010023 0.000000 0.080814
#
#
# Mechanical properties :
#
#
# Convention : Reuss Voigt Hill
#
# Bulk Modulus (GPa) = 58.94600 75.77126 67.35863
# Shear Modulus (GPa) = 24.68036 32.02823 28.35430
#
# Velocity S-wave (km/s) = 3.38203 3.85273 3.62503
# Velocity P-wave (km/s) = 6.52453 7.40997 6.98130
#
# Compressibility (1/GPa) = 0.01696468
#
# Stress axis : x y z
#
# Youngs Moduli (GPa) = 64.63042 73.05869 112.16956
#
# Poissons Ratio (x) = 0.06379 0.58154
# Poissons Ratio (y) = 0.05644 0.50450
# Poissons Ratio (z) = 0.33507 0.32859
#
# Static dielectric constant tensor:
#      x y z
#    x 1.907510 0.000000 -0.116260 
#    y 0.000000 1.796350 0.000000 
#    z -0.116260 0.000000 1.906580 
# 
# From -- ./inp_files/185486.got.cif
#   From: 2010.05.17/outbox.cif.g08.bks.cpg/sg15_93_cif.got.tgz:185486.got - 2010.06.03 18:47:42.
