data_PCOD9305020
_publ_section_title
;
Structure prediction by ZEFSAII (Michael W. Deem and Ramdas Pophale) SiO2 
 PCOD9305020
Probable space group: C 2/C
;
_chemical_formula_sum "Si O2"
_cell_formula_units_Z 36
_cell_length_a 5.112875
_cell_length_b 25.961591
_cell_length_c 11.743973
_cell_angle_alpha 90.000000
_cell_angle_beta 101.256667
_cell_angle_gamma 90.000000
_cell_volume 1528.887068
_symmetry_space_group_name_H-M "C 2/C"
_symmetry_group_IT_number 15
_symmetry_cell_setting 'monoclinic'
loop_
_space_group_symop_operation_xyz
x,y,z
-x,y,1/2-z
-x,-y,-z
x,-y,1/2+z
1/2+x,1/2+y,z
1/2-x,1/2+y,1/2-z
1/2-x,1/2-y,-z
1/2+x,1/2-y,1/2+z
loop_
_atom_site_type_symbol
_atom_site_label
_atom_site_fract_x
_atom_site_fract_y
_atom_site_fract_z
Si Si1 0.500000 0.238396 0.250000
Si Si2 0.762079 0.299908 0.077709
Si Si3 0.058024 0.601432 0.622879
Si Si4 0.872881 0.152519 0.365555
Si Si5 0.999626 0.061234 0.504501
O O1 0.683327 0.276375 0.192335
O O2 0.650032 0.197110 0.343854
O O3 0.017815 0.336927 0.102339
O O4 0.750000 0.250000 0.000000
O O5 0.547702 0.333613 0.990632
O O6 0.812913 0.575820 0.533555
O O7 0.000000 0.591413 0.750000
O O8 0.337103 0.580080 0.602529
O O9 0.839111 0.091765 0.389551
O O10 0.000000 0.157320 0.250000
O O11 0.000000 0.000000 0.500000
#
# Coordination Sequence:
#
# PCOD9305020 Si02
#       5
#     4   8   8   8   8
#     4  12  24  42  72 100 152 202 242 296 374 442
#     4  11  24  41  67 104 148 193 240 295 362 437
#     4  11  26  45  74 107 141 187 246 300 360 448
#     4  11  25  43  67 105 142 191 253 304 362 451
#     4  11  26  50  73 104 145 188 246 316 374 424
#
# _framework density 23.546538000000002
#
# number of rings (size 3 to 8) (size 9 to 14) (size 15 to 20)
#    0.000    0.889    2.222    3.333   12.444    1.778 
#    2.000    0.000    0.000    0.000    0.000    0.000 
#    0.000    0.000    0.000    0.000    0.000    0.000 
#
# Total GULP energy -100406.251957 kJ/mol
# GULP energy per Si atom -5578.125109 kJ/mol
# Density = 2.349295 g / cm^3
# Si number density = 23.546538 Si / 1000 Ang^3
#
#
#
# Elastic Constant Matrix: (Units=GPa)
#
#
# Indices 1 2 3 4 5 6 
#
# 1 73.2550 34.5313 24.4284 0.0000 -13.9225 0.0000
# 2 34.5313 178.3048 34.6309 0.0000 -8.8650 0.0000
# 3 24.4284 34.6309 71.7365 0.0000 -8.4960 0.0000
# 4 0.0000 0.0000 0.0000 14.9742 0.0000 -11.9228
# 5 -13.9225 -8.8650 -8.4960 0.0000 46.2299 0.0000
# 6 0.0000 0.0000 0.0000 -11.9228 0.0000 36.6862
#
#
#
# Elastic Compliance Matrix: (Units=1/GPa)
#
#
# Indices 1 2 3 4 5 6 
#
# 1 0.016847 -0.002257 -0.004189 0.000000 0.003871 0.000000
# 2 -0.002257 0.006510 -0.002358 0.000000 0.000135 0.000000
# 3 -0.004189 -0.002358 0.016665 0.000000 0.001349 0.000000
# 4 0.000000 0.000000 0.000000 0.090095 0.000000 0.029280
# 5 0.003871 0.000135 0.001349 0.000000 0.023071 0.000000
# 6 0.000000 0.000000 0.000000 0.029280 0.000000 0.036774
#
#
# Mechanical properties :
#
#
# Convention : Reuss Voigt Hill
#
# Bulk Modulus (GPa) = 44.61503 56.71973 50.66738
# Shear Modulus (GPa) = 23.25134 34.89179 29.07156
#
# Velocity S-wave (km/s) = 3.14580 3.85362 3.51756
# Velocity P-wave (km/s) = 5.67305 6.62881 6.16947
#
# Compressibility (1/GPa) = 0.02241397
#
# Stress axis : x y z
#
# Youngs Moduli (GPa) = 59.35648 153.60573 60.00728
#
# Poissons Ratio (x) = 0.34663 0.25138
# Poissons Ratio (y) = 0.13395 0.14152
# Poissons Ratio (z) = 0.24865 0.36225
#
# Static dielectric constant tensor:
#      x y z
#    x 1.936590 0.000000 -0.011850 
#    y 0.000000 2.487800 0.000000 
#    z -0.011850 0.000000 1.875270 
# 
# From -- ./inp_files/72427.got.cif
#   From: 2010.05.17/outbox.cif.g08.bks.cpg/sg15_37_cif.got.tgz:72427.got - 2010.06.03 18:47:42.
