data_PCOD9305781
_publ_section_title
;
Structure prediction by ZEFSAII (Michael W. Deem and Ramdas Pophale) SiO2 
 PCOD9305781
Probable space group: C 2/C
;
_chemical_formula_sum "Si O2"
_cell_formula_units_Z 60
_cell_length_a 25.572463
_cell_length_b 6.592410
_cell_length_c 17.185619
_cell_angle_alpha 90.000000
_cell_angle_beta 78.220189
_cell_angle_gamma 90.000000
_cell_volume 2836.205856
_symmetry_space_group_name_H-M "C 2/C"
_symmetry_group_IT_number 15
_symmetry_cell_setting 'monoclinic'
loop_
_space_group_symop_operation_xyz
x,y,z
-x,y,1/2-z
-x,-y,-z
x,-y,1/2+z
1/2+x,1/2+y,z
1/2-x,1/2+y,1/2-z
1/2-x,1/2-y,-z
1/2+x,1/2-y,1/2+z
loop_
_atom_site_type_symbol
_atom_site_label
_atom_site_fract_x
_atom_site_fract_y
_atom_site_fract_z
Si Si1 0.670774 0.282705 0.063857
Si Si2 0.500000 0.647610 0.750000
Si Si3 0.265511 0.942089 0.547537
Si Si4 0.360619 0.129646 0.134116
Si Si5 0.539445 0.137428 0.937427
Si Si6 0.595150 0.475222 0.477154
Si Si7 0.400764 0.920482 0.784982
Si Si8 0.454589 0.279292 0.858870
O O1 0.712541 0.437847 0.090035
O O2 0.643593 0.403073 0.001422
O O3 0.625986 0.199804 0.135420
O O4 0.702645 0.094150 0.018914
O O5 0.451913 0.793352 0.739364
O O6 0.473065 0.494118 0.819327
O O7 0.250000 0.750000 0.500000
O O8 0.304847 0.888719 0.606190
O O9 0.359739 0.082217 0.225775
O O10 0.403659 0.968917 0.088085
O O11 0.385485 0.347653 0.102818
O O12 0.509004 0.164435 0.865250
O O13 0.550541 0.358983 0.969474
O O14 0.500000 0.000000 0.000000
O O15 0.575548 0.323179 0.550899
O O16 0.419792 0.138078 0.812684
#
# Coordination Sequence:
#
# PCOD9305781 Si02
#       8
#     8   4   8   8   8   8   8   8
#     4  11  24  47  72 100 136 181 236 293 356 422
#     4  12  24  42  66  96 146 188 232 270 346 422
#     4  11  24  48  76  99 127 182 243 299 356 420
#     4  12  25  44  68 103 140 178 238 299 348 418
#     4  12  24  38  66 102 138 177 239 282 334 412
#     4  12  23  43  72 103 135 189 240 288 344 414
#     4  12  27  45  66 105 150 184 228 290 361 426
#     4  12  25  42  67 100 141 196 229 279 346 419
#
# _framework density 21.155023
#
# number of rings (size 3 to 8) (size 9 to 14) (size 15 to 20)
#    0.000    0.267    5.333    4.800    1.867    0.000 
#    2.400    0.000    0.000    0.000    0.000    0.000 
#    0.000    0.000    0.000    0.000    0.000    0.000 
#
# Total GULP energy -167794.091218 kJ/mol
# GULP energy per Si atom -5593.136374 kJ/mol
# Density = 2.110687 g / cm^3
# Si number density = 21.155023 Si / 1000 Ang^3
#
#
#
# Elastic Constant Matrix: (Units=GPa)
#
#
# Indices 1 2 3 4 5 6 
#
# 1 84.3903 37.4546 8.8434 0.0000 22.7663 0.0000
# 2 37.4546 115.1566 31.4629 0.0000 9.6039 0.0000
# 3 8.8434 31.4629 62.3977 0.0000 18.2425 0.0000
# 4 0.0000 0.0000 0.0000 37.2626 0.0000 3.5662
# 5 22.7663 9.6039 18.2425 0.0000 39.2797 0.0000
# 6 0.0000 0.0000 0.0000 3.5662 0.0000 46.1496
#
#
#
# Elastic Compliance Matrix: (Units=1/GPa)
#
#
# Indices 1 2 3 4 5 6 
#
# 1 0.016574 -0.005468 0.003270 0.000000 -0.009788 0.000000
# 2 -0.005468 0.011876 -0.006122 0.000000 0.003109 0.000000
# 3 0.003270 -0.006122 0.021715 0.000000 -0.010483 0.000000
# 4 0.000000 0.000000 0.000000 0.027037 0.000000 -0.002089
# 5 -0.009788 0.003109 -0.010483 0.000000 0.035240 0.000000
# 6 0.000000 0.000000 0.000000 -0.002089 0.000000 0.021830
#
#
# Mechanical properties :
#
#
# Convention : Reuss Voigt Hill
#
# Bulk Modulus (GPa) = 29.82920 46.38516 38.10718
# Shear Modulus (GPa) = 30.84775 36.81727 33.83251
#
# Velocity S-wave (km/s) = 3.82275 4.17628 4.00342
# Velocity P-wave (km/s) = 5.79788 6.72525 6.27871
#
# Compressibility (1/GPa) = 0.03352420
#
# Stress axis : x y z
#
# Youngs Moduli (GPa) = 60.33403 84.20622 46.05209
#
# Poissons Ratio (x) = 0.46043 -0.15057
# Poissons Ratio (y) = 0.32990 0.28193
# Poissons Ratio (z) = -0.19727 0.51551
#
# Static dielectric constant tensor:
#      x y z
#    x 1.784890 0.000000 0.006070 
#    y 0.000000 1.788300 0.000000 
#    z 0.006070 0.000000 1.768580 
# 
# From -- ./inp_files/221270.got.cif
#   From: 2010.05.17/outbox.cif.g08.bks.cpg/sg15_111_cif.got.tgz:221270.got - 2010.06.03 18:47:42.
