data_PCOD9305437
_publ_section_title
;
Structure prediction by ZEFSAII (Michael W. Deem and Ramdas Pophale) SiO2 
 PCOD9305437
Probable space group: C 2/C
;
_chemical_formula_sum "Si O2"
_cell_formula_units_Z 48
_cell_length_a 12.037565
_cell_length_b 9.727184
_cell_length_c 20.354520
_cell_angle_alpha 90.000000
_cell_angle_beta 40.000887
_cell_angle_gamma 90.000000
_cell_volume 1532.011943
_symmetry_space_group_name_H-M "C 2/C"
_symmetry_group_IT_number 15
_symmetry_cell_setting 'monoclinic'
loop_
_space_group_symop_operation_xyz
x,y,z
-x,y,1/2-z
-x,-y,-z
x,-y,1/2+z
1/2+x,1/2+y,z
1/2-x,1/2+y,1/2-z
1/2-x,1/2-y,-z
1/2+x,1/2-y,1/2+z
loop_
_atom_site_type_symbol
_atom_site_label
_atom_site_fract_x
_atom_site_fract_y
_atom_site_fract_z
Si Si1 0.780198 0.755349 0.049945
Si Si2 0.966844 0.354954 0.956830
Si Si3 0.716991 0.050865 0.769163
Si Si4 0.203455 0.037459 0.406912
Si Si5 0.890906 0.809726 0.365475
Si Si6 0.543875 0.671916 0.295827
O O1 0.632761 0.684380 0.174688
O O2 0.945943 0.707100 0.017231
O O3 0.713574 0.910525 0.093712
O O4 0.878759 0.799018 0.929943
O O5 0.979148 0.240586 0.892613
O O6 0.080440 0.481948 0.879468
O O7 0.770639 0.412608 0.052807
O O8 0.716028 0.970999 0.701129
O O9 0.900944 0.987576 0.712765
O O10 0.665259 0.206690 0.773710
O O11 0.263469 0.177792 0.409838
O O12 0.000000 0.000000 0.500000
O O13 0.000000 0.815297 0.250000
#
# Coordination Sequence:
#
# PCOD9305437 Si02
#       6
#     8   8   8   8   8   8
#     4  12  26  49  80 121 175 249 300 380 466 558
#     4  11  24  45  79 121 173 225 312 375 461 555
#     4  12  25  50  86 131 177 238 304 387 460 565
#     4  12  23  44  80 117 163 235 304 365 464 554
#     4  11  24  44  78 122 173 233 304 388 464 555
#     4  12  26  50  88 123 183 236 304 376 468 551
#
# _framework density 31.331348999999999
#
# number of rings (size 3 to 8) (size 9 to 14) (size 15 to 20)
#    0.000    0.333    6.667    2.000    0.000    0.000 
#    0.000    4.167    3.667    0.000    0.000    0.000 
#    0.000    0.000    0.000    0.000    0.000    0.000 
#
# Total GULP energy -134455.439316 kJ/mol
# GULP energy per Si atom -5602.309972 kJ/mol
# Density = 3.126004 g / cm^3
# Si number density = 31.331349 Si / 1000 Ang^3
#
#
#
# Elastic Constant Matrix: (Units=GPa)
#
#
# Indices 1 2 3 4 5 6 
#
# 1 232.8221 62.3216 103.3956 0.0000 31.0915 0.0000
# 2 62.3216 114.0712 21.1114 0.0000 24.1464 0.0000
# 3 103.3956 21.1114 253.0366 0.0000 7.6845 0.0000
# 4 0.0000 0.0000 0.0000 42.0945 0.0000 27.4262
# 5 31.0915 24.1464 7.6845 0.0000 90.9851 0.0000
# 6 0.0000 0.0000 0.0000 27.4262 0.0000 66.8890
#
#
#
# Elastic Compliance Matrix: (Units=1/GPa)
#
#
# Indices 1 2 3 4 5 6 
#
# 1 0.006186 -0.002706 -0.002266 0.000000 -0.001205 0.000000
# 2 -0.002706 0.010598 0.000279 0.000000 -0.001912 0.000000
# 3 -0.002266 0.000279 0.004846 0.000000 0.000291 0.000000
# 4 0.000000 0.000000 0.000000 0.032416 0.000000 -0.013291
# 5 -0.001205 -0.001912 0.000291 0.000000 0.011885 0.000000
# 6 0.000000 0.000000 0.000000 -0.013291 0.000000 0.020400
#
#
# Mechanical properties :
#
#
# Convention : Reuss Voigt Hill
#
# Bulk Modulus (GPa) = 81.65867 108.17634 94.91751
# Shear Modulus (GPa) = 50.10229 67.53380 58.81805
#
# Velocity S-wave (km/s) = 4.00323 4.64774 4.33747
# Velocity P-wave (km/s) = 6.89110 7.96263 7.44617
#
# Compressibility (1/GPa) = 0.01224610
#
# Stress axis : x y z
#
# Youngs Moduli (GPa) = 161.64660 94.36166 206.37292
#
# Poissons Ratio (x) = 0.25530 0.46755
# Poissons Ratio (y) = 0.43734 -0.05766
# Poissons Ratio (z) = 0.36622 -0.02637
#
# Static dielectric constant tensor:
#      x y z
#    x 2.533600 0.000000 -0.207100 
#    y 0.000000 2.444680 0.000000 
#    z -0.207100 0.000000 2.938930 
# 
# From -- ./inp_files/298733.got.cif
#   From: 2010.05.17/outbox.cif.g08.bks.cpg/sg15_150_cif.got.tgz:298733.got - 2010.06.03 18:47:42.
