data_PCOD9305211
_publ_section_title
;
Structure prediction by ZEFSAII (Michael W. Deem and Ramdas Pophale) SiO2 
 PCOD9305211
Probable space group: C 2/C
;
_chemical_formula_sum "Si O2"
_cell_formula_units_Z 48
_cell_length_a 20.615674
_cell_length_b 9.754013
_cell_length_c 29.446672
_cell_angle_alpha 90.000000
_cell_angle_beta 21.415372
_cell_angle_gamma 90.000000
_cell_volume 2162.024045
_symmetry_space_group_name_H-M "C 2/C"
_symmetry_group_IT_number 15
_symmetry_cell_setting 'monoclinic'
loop_
_space_group_symop_operation_xyz
x,y,z
-x,y,1/2-z
-x,-y,-z
x,-y,1/2+z
1/2+x,1/2+y,z
1/2-x,1/2+y,1/2-z
1/2-x,1/2-y,-z
1/2+x,1/2-y,1/2+z
loop_
_atom_site_type_symbol
_atom_site_label
_atom_site_fract_x
_atom_site_fract_y
_atom_site_fract_z
Si Si1 0.058971 0.351994 0.477694
Si Si2 0.247084 0.447315 0.963298
Si Si3 0.029923 0.196321 0.780283
Si Si4 0.575322 0.872365 0.842475
Si Si5 0.683290 0.856354 0.107135
Si Si6 0.973849 0.094288 0.060563
O O1 0.267995 0.354289 0.351733
O O2 0.027194 0.248395 0.457500
O O3 0.000000 0.500000 0.500000
O O4 0.955991 0.295437 0.589421
O O5 0.393788 0.568259 0.870281
O O6 0.307904 0.309780 0.898387
O O7 0.193306 0.403028 0.048910
O O8 0.066656 0.506654 0.060340
O O9 0.021598 0.289683 0.831390
O O10 0.000000 0.265240 0.750000
O O11 0.776806 0.924803 0.708972
O O12 0.500000 0.898806 0.250000
O O13 0.857800 0.919346 0.016763
O O14 0.000000 0.000000 0.000000
#
# Coordination Sequence:
#
# PCOD9305211 Si02
#       6
#     8   8   8   8   8   8
#     4  11  26  43  69 103 142 189 237 290 352 436
#     4  11  24  43  72  99 136 185 235 293 352 425
#     4  11  24  43  71 100 137 182 237 300 354 418
#     4  11  25  44  69 102 139 184 237 292 356 423
#     4  11  26  44  69 102 139 184 235 292 354 423
#     4  11  27  44  68 100 145 185 229 297 359 423
#
# _framework density 22.201419000000001
#
# number of rings (size 3 to 8) (size 9 to 14) (size 15 to 20)
#    0.000    1.000    1.667    3.000    7.000    6.000 
#    0.000    0.000    0.000    0.000    0.000    0.000 
#    0.000    0.000    0.000    0.000    0.000    0.000 
#
# Total GULP energy -134229.781530 kJ/mol
# GULP energy per Si atom -5592.907564 kJ/mol
# Density = 2.215089 g / cm^3
# Si number density = 22.201419 Si / 1000 Ang^3
#
#
#
# Elastic Constant Matrix: (Units=GPa)
#
#
# Indices 1 2 3 4 5 6 
#
# 1 79.5757 -6.6291 20.6240 0.0051 -2.8198 -0.0029
# 2 -6.6291 57.8596 12.1947 0.0056 1.2784 -0.0030
# 3 20.6240 12.1947 141.4245 0.0150 2.7267 0.0024
# 4 0.0051 0.0056 0.0150 13.0948 -0.0021 5.4970
# 5 -2.8198 1.2784 2.7267 -0.0021 36.2930 0.0040
# 6 -0.0029 -0.0030 0.0024 5.4970 0.0040 11.9701
#
#
#
# Elastic Compliance Matrix: (Units=1/GPa)
#
#
# Indices 1 2 3 4 5 6 
#
# 1 0.013322 0.001951 -0.002133 -0.000006 0.001127 0.000007
# 2 0.001951 0.017898 -0.001821 -0.000011 -0.000342 0.000010
# 3 -0.002133 -0.001821 0.007552 -0.000008 -0.000669 0.000001
# 4 -0.000006 -0.000011 -0.000008 0.094604 0.000011 -0.043445
# 5 0.001127 -0.000342 -0.000669 0.000011 0.027703 -0.000014
# 6 0.000007 0.000010 0.000001 -0.043445 -0.000014 0.103493
#
#
# Mechanical properties :
#
#
# Convention : Reuss Voigt Hill
#
# Bulk Modulus (GPa) = 28.76386 36.80434 32.78410
# Shear Modulus (GPa) = 17.84651 29.11624 23.48138
#
# Velocity S-wave (km/s) = 2.83829 3.62534 3.25568
# Velocity P-wave (km/s) = 4.87085 5.84273 5.37879
#
# Compressibility (1/GPa) = 0.03476585
#
# Stress axis : x y z
#
# Youngs Moduli (GPa) = 75.06476 55.87176 132.41781
#
# Poissons Ratio (x) = -0.10900 0.28240
# Poissons Ratio (y) = -0.14644 0.24116
# Poissons Ratio (z) = 0.16009 0.10175
#
# Static dielectric constant tensor:
#      x y z
#    x 2.244950 0.000030 -0.063590 
#    y 0.000030 1.882880 0.000010 
#    z -0.063590 0.000010 1.797340 
# 
# From -- ./inp_files/317771.got.cif
#   From: 2010.05.17/outbox.cif.g08.bks.cpg/sg15_159_cif.got.tgz:317771.got - 2010.06.03 18:47:42.
