data_PCOD9305731
_publ_section_title
;
Structure prediction by ZEFSAII (Michael W. Deem and Ramdas Pophale) SiO2 
 PCOD9305731
Probable space group: C 2/C
;
_chemical_formula_sum "Si O2"
_cell_formula_units_Z 40
_cell_length_a 5.415505
_cell_length_b 17.381089
_cell_length_c 18.529883
_cell_angle_alpha 90.000000
_cell_angle_beta 74.677256
_cell_angle_gamma 90.000000
_cell_volume 1682.168546
_symmetry_space_group_name_H-M "C 2/C"
_symmetry_group_IT_number 15
_symmetry_cell_setting 'monoclinic'
loop_
_space_group_symop_operation_xyz
x,y,z
-x,y,1/2-z
-x,-y,-z
x,-y,1/2+z
1/2+x,1/2+y,z
1/2-x,1/2+y,1/2-z
1/2-x,1/2-y,-z
1/2+x,1/2-y,1/2+z
loop_
_atom_site_type_symbol
_atom_site_label
_atom_site_fract_x
_atom_site_fract_y
_atom_site_fract_z
Si Si1 0.347264 0.224463 0.413768
Si Si2 0.086148 0.075510 0.823794
Si Si3 0.390230 0.932916 0.834317
Si Si4 0.920964 0.445341 0.070287
Si Si5 0.616285 0.806426 0.119914
O O1 0.250000 0.250000 0.500000
O O2 0.334200 0.134660 0.394474
O O3 0.645732 0.248942 0.392112
O O4 0.153521 0.263308 0.369662
O O5 0.155285 0.986497 0.829034
O O6 0.000000 0.091115 0.750000
O O7 0.863585 0.088681 0.900405
O O8 0.318615 0.133271 0.821984
O O9 0.500000 0.902134 0.750000
O O10 0.559694 0.997807 0.861705
O O11 0.106835 0.371024 0.056817
O O12 0.000000 0.500000 0.000000
#
# Coordination Sequence:
#
# PCOD9305731 Si02
#       5
#     8   8   8   8   8
#     4  12  27  48  73 107 152 196 246 306 377 450
#     4  11  24  47  76 105 146 190 252 308 374 444
#     4  11  26  44  72 107 147 193 245 305 376 450
#     4  11  24  46  78 107 141 189 250 310 370 444
#     4  11  26  47  70 107 144 193 245 301 371 440
#
# _framework density 23.778829999999999
#
# number of rings (size 3 to 8) (size 9 to 14) (size 15 to 20)
#    0.000    0.800    4.000    1.800    5.600    2.400 
#    3.600    0.000    0.000    0.000    0.000    0.000 
#    0.000    0.000    0.000    0.000    0.000    0.000 
#
# Total GULP energy -111539.222769 kJ/mol
# GULP energy per Si atom -5576.961138 kJ/mol
# Density = 2.372471 g / cm^3
# Si number density = 23.778830 Si / 1000 Ang^3
#
#
#
# Elastic Constant Matrix: (Units=GPa)
#
#
# Indices 1 2 3 4 5 6 
#
# 1 136.8815 38.7373 22.8248 0.0000 9.0638 0.0000
# 2 38.7373 121.4597 3.6115 0.0000 13.1105 0.0000
# 3 22.8248 3.6115 79.4353 0.0000 -2.0246 0.0000
# 4 0.0000 0.0000 0.0000 23.4038 0.0000 10.5144
# 5 9.0638 13.1105 -2.0246 0.0000 27.7010 0.0000
# 6 0.0000 0.0000 0.0000 10.5144 0.0000 46.0296
#
#
#
# Elastic Compliance Matrix: (Units=1/GPa)
#
#
# Indices 1 2 3 4 5 6 
#
# 1 0.008515 -0.002451 -0.002381 0.000000 -0.001800 0.000000
# 2 -0.002451 0.009402 0.000184 0.000000 -0.003634 0.000000
# 3 -0.002381 0.000184 0.013307 0.000000 0.001665 0.000000
# 4 0.000000 0.000000 0.000000 0.047614 0.000000 -0.010876
# 5 -0.001800 -0.003634 0.001665 0.000000 0.038531 0.000000
# 6 0.000000 0.000000 0.000000 -0.010876 0.000000 0.024210
#
#
# Mechanical properties :
#
#
# Convention : Reuss Voigt Hill
#
# Bulk Modulus (GPa) = 45.60282 52.01373 48.80828
# Shear Modulus (GPa) = 31.60875 37.60042 34.60458
#
# Velocity S-wave (km/s) = 3.64989 3.98081 3.81894
# Velocity P-wave (km/s) = 6.08126 6.56130 6.32584
#
# Compressibility (1/GPa) = 0.02192847
#
# Stress axis : x y z
#
# Youngs Moduli (GPa) = 117.43390 106.36483 75.14755
#
# Poissons Ratio (x) = 0.26067 0.17895
# Poissons Ratio (y) = 0.28779 -0.01384
# Poissons Ratio (z) = 0.27964 -0.01958
#
# Static dielectric constant tensor:
#      x y z
#    x 1.991160 0.000000 -0.001040 
#    y 0.000000 1.913660 0.000000 
#    z -0.001040 0.000000 1.940230 
# 
# From -- ./inp_files/184327.got.cif
#   From: 2010.05.17/outbox.cif.g08.bks.cpg/sg15_93_cif.got.tgz:184327.got - 2010.06.03 18:47:42.
