data_PCOD9305944
_publ_section_title
;
Structure prediction by ZEFSAII (Michael W. Deem and Ramdas Pophale) SiO2 
 PCOD9305944
Probable space group: C 2/C
;
_chemical_formula_sum "Si O2"
_cell_formula_units_Z 32
_cell_length_a 20.962926
_cell_length_b 6.952187
_cell_length_c 19.131447
_cell_angle_alpha 90.000000
_cell_angle_beta 26.363959
_cell_angle_gamma 90.000000
_cell_volume 1238.152736
_symmetry_space_group_name_H-M "C 2/C"
_symmetry_group_IT_number 15
_symmetry_cell_setting 'monoclinic'
loop_
_space_group_symop_operation_xyz
x,y,z
-x,y,1/2-z
-x,-y,-z
x,-y,1/2+z
1/2+x,1/2+y,z
1/2-x,1/2+y,1/2-z
1/2-x,1/2-y,-z
1/2+x,1/2-y,1/2+z
loop_
_atom_site_type_symbol
_atom_site_label
_atom_site_fract_x
_atom_site_fract_y
_atom_site_fract_z
Si Si1 0.375800 0.352543 0.645948
Si Si2 0.703973 0.551247 0.011455
Si Si3 0.382151 0.053658 0.202162
Si Si4 0.914811 0.931253 0.234481
O O1 0.500000 0.500000 0.500000
O O2 0.246127 0.357840 0.718997
O O3 0.321418 0.448305 0.771510
O O4 0.429240 0.139151 0.614814
O O5 0.552203 0.557561 0.120293
O O6 0.672928 0.409436 0.107640
O O7 0.750000 0.750000 0.000000
O O8 0.817453 0.505764 0.840446
O O9 0.472801 0.238152 0.139115
#
# Coordination Sequence:
#
# PCOD9305944 Si02
#       4
#     8   8   8   8
#     4  12  25  46  75 112 149 200 255 312 389 455
#     4  11  24  49  75 105 156 199 253 319 384 458
#     4  12  25  48  75 107 157 200 255 321 381 464
#     4  11  25  47  73 115 143 201 260 309 386 458
#
# _framework density 25.844954000000001
#
# number of rings (size 3 to 8) (size 9 to 14) (size 15 to 20)
#    0.000    0.500    7.500    0.750    0.000    1.000 
#   18.000    0.000    0.000    0.000    0.000    0.000 
#    0.000    0.000    0.000    0.000    0.000    0.000 
#
# Total GULP energy -89484.809411 kJ/mol
# GULP energy per Si atom -5592.800588 kJ/mol
# Density = 2.578613 g / cm^3
# Si number density = 25.844954 Si / 1000 Ang^3
#
#
#
# Elastic Constant Matrix: (Units=GPa)
#
#
# Indices 1 2 3 4 5 6 
#
# 1 137.5961 68.5542 18.9232 -0.0006 13.9829 0.0000
# 2 68.5542 181.1567 51.9430 -0.0028 2.8267 0.0010
# 3 18.9232 51.9430 65.8313 -0.0034 8.6757 0.0010
# 4 -0.0006 -0.0028 -0.0034 52.4342 0.0018 13.4895
# 5 13.9829 2.8267 8.6757 0.0018 32.7602 -0.0002
# 6 0.0000 0.0010 0.0010 13.4895 -0.0002 45.5481
#
#
#
# Elastic Compliance Matrix: (Units=1/GPa)
#
#
# Indices 1 2 3 4 5 6 
#
# 1 0.009411 -0.003712 0.000736 0.000000 -0.003892 0.000000
# 2 -0.003712 0.008624 -0.006060 0.000000 0.002445 0.000000
# 3 0.000736 -0.006060 0.020446 0.000001 -0.005206 -0.000001
# 4 0.000000 0.000000 0.000001 0.020644 -0.000002 -0.006114
# 5 -0.003892 0.002445 -0.005206 -0.000002 0.033354 0.000001
# 6 0.000000 0.000000 -0.000001 -0.006114 0.000001 0.023766
#
#
# Mechanical properties :
#
#
# Convention : Reuss Voigt Hill
#
# Bulk Modulus (GPa) = 48.99374 73.71387 61.35380
# Shear Modulus (GPa) = 35.43088 42.49274 38.96181
#
# Velocity S-wave (km/s) = 3.70659 4.05920 3.88689
# Velocity P-wave (km/s) = 6.10871 7.11006 6.62832
#
# Compressibility (1/GPa) = 0.02041077
#
# Stress axis : x y z
#
# Youngs Moduli (GPa) = 106.25629 115.95320 48.90862
#
# Poissons Ratio (x) = 0.43040 -0.03602
# Poissons Ratio (y) = 0.39441 0.29639
# Poissons Ratio (z) = -0.07825 0.70268
#
# Static dielectric constant tensor:
#      x y z
#    x 1.974170 0.000000 0.089910 
#    y 0.000000 2.112300 0.000000 
#    z 0.089910 0.000000 2.135630 
# 
# From -- ./inp_files/254175.got.cif
#   From: 2010.05.17/outbox.cif.g08.bks.cpg/sg15_128_cif.got.tgz:254175.got - 2010.06.03 18:47:42.
