data_PCOD9305401
_publ_section_title
;
Structure prediction by ZEFSAII (Michael W. Deem and Ramdas Pophale) SiO2 
 PCOD9305401
Probable space group: C 2/C
;
_chemical_formula_sum "Si O2"
_cell_formula_units_Z 52
_cell_length_a 25.952514
_cell_length_b 8.025433
_cell_length_c 12.162801
_cell_angle_alpha 90.000000
_cell_angle_beta 98.112916
_cell_angle_gamma 90.000000
_cell_volume 2507.916868
_symmetry_space_group_name_H-M "C 2/C"
_symmetry_group_IT_number 15
_symmetry_cell_setting 'monoclinic'
loop_
_space_group_symop_operation_xyz
x,y,z
-x,y,1/2-z
-x,-y,-z
x,-y,1/2+z
1/2+x,1/2+y,z
1/2-x,1/2+y,1/2-z
1/2-x,1/2-y,-z
1/2+x,1/2-y,1/2+z
loop_
_atom_site_type_symbol
_atom_site_label
_atom_site_fract_x
_atom_site_fract_y
_atom_site_fract_z
Si Si1 0.500000 0.461314 0.250000
Si Si2 0.940841 0.599267 0.608761
Si Si3 0.695318 0.215394 0.673681
Si Si4 0.083797 0.214072 0.199958
Si Si5 0.325352 0.892594 0.979599
Si Si6 0.230381 0.078325 0.621566
Si Si7 0.979037 0.251398 0.527927
O O1 0.553079 0.565052 0.248420
O O2 0.507411 0.365657 0.366879
O O3 0.940189 0.630003 0.739550
O O4 0.881251 0.609155 0.552970
O O5 0.965057 0.425055 0.581085
O O6 0.973997 0.729817 0.545712
O O7 0.645530 0.274477 0.730031
O O8 0.743066 0.142733 0.758242
O O9 0.712201 0.386807 0.620067
O O10 0.676604 0.056861 0.597362
O O11 0.068927 0.208051 0.067203
O O12 0.314046 0.714346 0.918694
O O13 0.277067 0.911825 0.047964
#
# Coordination Sequence:
#
# PCOD9305401 Si02
#       7
#     4   8   8   8   8   8   8
#     4  12  28  44  68 104 140 178 226 288 344 416
#     4  11  24  44  73  96 136 182 232 279 348 414
#     4  12  24  45  69 102 134 185 224 285 342 410
#     4  12  25  46  69 100 142 177 228 285 346 412
#     4  11  24  46  69  99 138 180 231 283 342 407
#     4  11  25  44  70  99 139 178 231 283 343 401
#     4  11  26  45  70 102 136 180 227 280 347 419
#
# _framework density 20.73434
#
# number of rings (size 3 to 8) (size 9 to 14) (size 15 to 20)
#    0.000    0.615    6.154    0.923    6.462    0.000 
#    2.769    0.000    0.000    0.000    0.000    0.000 
#    0.000    0.000    0.000    0.000    0.000    0.000 
#
# Total GULP energy -145143.998209 kJ/mol
# GULP energy per Si atom -5582.461470 kJ/mol
# Density = 2.068715 g / cm^3
# Si number density = 20.734340 Si / 1000 Ang^3
#
#
#
# Elastic Constant Matrix: (Units=GPa)
#
#
# Indices 1 2 3 4 5 6 
#
# 1 68.6325 4.0597 -5.6194 0.0000 2.0316 0.0000
# 2 4.0597 67.8184 13.6311 0.0000 5.5808 0.0000
# 3 -5.6194 13.6311 65.4735 0.0000 4.3305 0.0000
# 4 0.0000 0.0000 0.0000 31.6486 0.0000 -1.9026
# 5 2.0316 5.5808 4.3305 0.0000 20.7572 0.0000
# 6 0.0000 0.0000 0.0000 -1.9026 0.0000 10.9944
#
#
#
# Elastic Compliance Matrix: (Units=1/GPa)
#
#
# Indices 1 2 3 4 5 6 
#
# 1 0.014809 -0.001085 0.001595 0.000000 -0.001491 0.000000
# 2 -0.001085 0.015726 -0.003138 0.000000 -0.003467 0.000000
# 3 0.001595 -0.003138 0.016242 0.000000 -0.002701 0.000000
# 4 0.000000 0.000000 0.000000 0.031929 0.000000 0.005525
# 5 -0.001491 -0.003467 -0.002701 0.000000 0.049818 0.000000
# 6 0.000000 0.000000 0.000000 0.005525 0.000000 0.091912
#
#
# Mechanical properties :
#
#
# Convention : Reuss Voigt Hill
#
# Bulk Modulus (GPa) = 24.08254 25.11857 24.60056
# Shear Modulus (GPa) = 20.87410 25.33690 23.10550
#
# Velocity S-wave (km/s) = 3.17636 3.49947 3.34182
# Velocity P-wave (km/s) = 5.00923 5.33565 5.17501
#
# Compressibility (1/GPa) = 0.04152386
#
# Stress axis : x y z
#
# Youngs Moduli (GPa) = 67.52532 63.58822 61.56800
#
# Poissons Ratio (x) = 0.06896 -0.09823
# Poissons Ratio (y) = 0.07323 0.19319
# Poissons Ratio (z) = -0.10773 0.19953
#
# Static dielectric constant tensor:
#      x y z
#    x 1.722730 0.000000 0.015430 
#    y 0.000000 1.765610 0.000000 
#    z 0.015430 0.000000 1.770900 
# 
# From -- ./inp_files/121570.got.cif
#   From: 2010.05.17/outbox.cif.g08.bks.cpg/sg15_61_cif.got.tgz:121570.got - 2010.06.03 18:47:42.
