data_PCOD9305116
_publ_section_title
;
Structure prediction by ZEFSAII (Michael W. Deem and Ramdas Pophale) SiO2 
 PCOD9305116
Probable space group: C 2/C
;
_chemical_formula_sum "Si O2"
_cell_formula_units_Z 52
_cell_length_a 23.329961
_cell_length_b 11.074963
_cell_length_c 12.061546
_cell_angle_alpha 90.000000
_cell_angle_beta 134.413653
_cell_angle_gamma 90.000000
_cell_volume 2226.094178
_symmetry_space_group_name_H-M "C 2/C"
_symmetry_group_IT_number 15
_symmetry_cell_setting 'monoclinic'
loop_
_space_group_symop_operation_xyz
x,y,z
-x,y,1/2-z
-x,-y,-z
x,-y,1/2+z
1/2+x,1/2+y,z
1/2-x,1/2+y,1/2-z
1/2-x,1/2-y,-z
1/2+x,1/2-y,1/2+z
loop_
_atom_site_type_symbol
_atom_site_label
_atom_site_fract_x
_atom_site_fract_y
_atom_site_fract_z
Si Si1 0.247714 0.488786 0.434280
Si Si2 0.616766 0.545842 0.748519
Si Si3 0.000000 0.777018 0.750000
Si Si4 0.967037 0.164906 0.451788
Si Si5 0.146871 0.613546 0.997171
Si Si6 0.135517 0.627869 0.600011
Si Si7 0.228195 0.741905 0.313257
O O1 0.343578 0.495725 0.584249
O O2 0.210231 0.430928 0.492955
O O3 0.207368 0.415056 0.279720
O O4 0.220119 0.626956 0.381799
O O5 0.532386 0.616262 0.627327
O O6 0.605347 0.430665 0.653215
O O7 0.679019 0.642453 0.785210
O O8 0.002468 0.841173 0.873750
O O9 0.921518 0.693764 0.649401
O O10 0.934563 0.297408 0.435771
O O11 0.109453 0.494397 0.004072
O O12 0.191699 0.692266 0.149653
O O13 0.179765 0.719799 0.577195
#
# Coordination Sequence:
#
# PCOD9305116 Si02
#       7
#     8   8   4   8   8   8   8
#     4  11  24  44  73 101 135 185 238 289 349 411
#     4  11  24  45  68 100 142 184 228 289 353 420
#     4  12  24  46  66  96 140 184 230 288 364 418
#     4  11  26  45  69 101 145 183 230 290 361 426
#     4  11  24  42  70 100 132 183 235 290 345 423
#     4  11  25  43  71 104 136 185 237 287 352 426
#     4  11  24  44  71 102 140 174 236 296 338 421
#
# _framework density 23.359300000000001
#
# number of rings (size 3 to 8) (size 9 to 14) (size 15 to 20)
#    0.000    0.923    4.615    1.385    4.308    3.077 
#    2.769    0.000    0.000    0.000    0.000    0.000 
#    0.000    0.000    0.000    0.000    0.000    0.000 
#
# Total GULP energy -145381.917765 kJ/mol
# GULP energy per Si atom -5591.612222 kJ/mol
# Density = 2.330613 g / cm^3
# Si number density = 23.359300 Si / 1000 Ang^3
#
#
#
# Elastic Constant Matrix: (Units=GPa)
#
#
# Indices 1 2 3 4 5 6 
#
# 1 37.7261 17.1913 13.4211 0.0000 0.0410 0.0000
# 2 17.1913 90.9061 11.0517 0.0000 -2.7313 0.0000
# 3 13.4211 11.0517 106.4049 0.0000 5.5202 0.0000
# 4 0.0000 0.0000 0.0000 16.0622 0.0000 5.3808
# 5 0.0410 -2.7313 5.5202 0.0000 21.6232 0.0000
# 6 0.0000 0.0000 0.0000 5.3808 0.0000 35.3066
#
#
#
# Elastic Compliance Matrix: (Units=1/GPa)
#
#
# Indices 1 2 3 4 5 6 
#
# 1 0.030073 -0.005289 -0.003249 0.000000 0.000104 0.000000
# 2 -0.005289 0.012135 -0.000682 0.000000 0.001717 0.000000
# 3 -0.003249 -0.000682 0.010016 0.000000 -0.002637 0.000000
# 4 0.000000 0.000000 0.000000 0.065608 0.000000 -0.009999
# 5 0.000104 0.001717 -0.002637 0.000000 0.047136 0.000000
# 6 0.000000 0.000000 0.000000 -0.009999 0.000000 0.029847
#
#
# Mechanical properties :
#
#
# Convention : Reuss Voigt Hill
#
# Bulk Modulus (GPa) = 29.60123 35.37391 32.48757
# Shear Modulus (GPa) = 22.27006 27.48993 24.87999
#
# Velocity S-wave (km/s) = 3.09102 3.43422 3.26713
# Velocity P-wave (km/s) = 5.04369 5.55890 5.30755
#
# Compressibility (1/GPa) = 0.03378238
#
# Stress axis : x y z
#
# Youngs Moduli (GPa) = 33.25266 82.40556 99.84455
#
# Poissons Ratio (x) = 0.43584 0.32442
# Poissons Ratio (y) = 0.17587 0.06813
# Poissons Ratio (z) = 0.10805 0.05623
#
# Static dielectric constant tensor:
#      x y z
#    x 1.876040 0.000000 -0.012690 
#    y 0.000000 1.864730 0.000000 
#    z -0.012690 0.000000 1.931370 
# 
# From -- ./inp_files/117941.got.cif
#   From: 2010.05.17/outbox.cif.g08.bks.cpg/sg15_59_cif.got.tgz:117941.got - 2010.06.03 18:47:42.
