data_PCOD9305523
_publ_section_title
;
Structure prediction by ZEFSAII (Michael W. Deem and Ramdas Pophale) SiO2 
 PCOD9305523
Probable space group: C 2/C
;
_chemical_formula_sum "Si O2"
_cell_formula_units_Z 44
_cell_length_a 23.642465
_cell_length_b 15.675253
_cell_length_c 9.690012
_cell_angle_alpha 90.000000
_cell_angle_beta 35.819624
_cell_angle_gamma 90.000000
_cell_volume 2101.658948
_symmetry_space_group_name_H-M "C 2/C"
_symmetry_group_IT_number 15
_symmetry_cell_setting 'monoclinic'
loop_
_space_group_symop_operation_xyz
x,y,z
-x,y,1/2-z
-x,-y,-z
x,-y,1/2+z
1/2+x,1/2+y,z
1/2-x,1/2+y,1/2-z
1/2-x,1/2-y,-z
1/2+x,1/2-y,1/2+z
loop_
_atom_site_type_symbol
_atom_site_label
_atom_site_fract_x
_atom_site_fract_y
_atom_site_fract_z
Si Si1 0.000000 0.362529 0.750000
Si Si2 0.786718 0.422142 0.128851
Si Si3 0.473790 0.746822 0.072886
Si Si4 0.658345 0.750141 0.911360
Si Si5 0.761991 0.082898 0.088606
Si Si6 0.982568 0.078591 0.630343
O O1 0.100772 0.412806 0.554424
O O2 0.004616 0.307892 0.598992
O O3 0.727182 0.333731 0.274089
O O4 0.743680 0.500937 0.300499
O O5 0.781470 0.438314 0.975271
O O6 0.386709 0.768349 0.348571
O O7 0.567839 0.737700 0.985580
O O8 0.451396 0.656103 0.047636
O O9 0.712315 0.834383 0.752200
O O10 0.872388 0.107392 0.842561
O O11 0.000000 0.051167 0.750000
O O12 0.000000 0.000000 0.500000
#
# Coordination Sequence:
#
# PCOD9305523 Si02
#       6
#     4   8   8   8   8   8
#     4  12  26  46  70 100 140 184 242 290 340 416
#     4  12  27  47  70 105 142 187 239 289 350 419
#     4  11  24  45  72 101 134 186 234 291 354 420
#     4  11  25  48  73  99 144 186 232 288 361 422
#     4  12  26  47  72 101 146 188 230 296 356 413
#     4  12  25  42  69 102 140 180 237 295 354 418
#
# _framework density 20.935842999999998
#
# number of rings (size 3 to 8) (size 9 to 14) (size 15 to 20)
#    0.000    0.364    4.545    3.818    5.091    2.909 
#    0.000    0.000    0.000    0.000    0.000    0.000 
#    0.000    0.000    0.000    0.000    0.000    0.000 
#
# Total GULP energy -123054.642176 kJ/mol
# GULP energy per Si atom -5593.392826 kJ/mol
# Density = 2.088819 g / cm^3
# Si number density = 20.935843 Si / 1000 Ang^3
#
#
#
# Elastic Constant Matrix: (Units=GPa)
#
#
# Indices 1 2 3 4 5 6 
#
# 1 75.8657 7.7840 36.4139 0.0000 13.8183 0.0000
# 2 7.7840 84.1399 42.9875 0.0000 21.0413 0.0000
# 3 36.4139 42.9875 138.3100 0.0000 22.3795 0.0000
# 4 0.0000 0.0000 0.0000 -54.7245 0.0000 39.2952
# 5 13.8183 21.0413 22.3795 0.0000 42.8822 0.0000
# 6 0.0000 0.0000 0.0000 39.2952 0.0000 16.5604
#
#
#
# Elastic Compliance Matrix: (Units=1/GPa)
#
#
# Indices 1 2 3 4 5 6 
#
# 1 0.015610 0.001515 -0.003983 0.000000 -0.003695 0.000000
# 2 0.001515 0.015362 -0.004232 0.000000 -0.005817 0.000000
# 3 -0.003983 -0.004232 0.009885 0.000000 -0.001799 0.000000
# 4 0.000000 0.000000 0.000000 -0.006758 0.000000 0.016036
# 5 -0.003695 -0.005817 -0.001799 0.000000 0.028303 0.000000
# 6 0.000000 0.000000 0.000000 0.016036 0.000000 0.022333
#
#
# Mechanical properties :
#
#
# Convention : Reuss Voigt Hill
#
# Bulk Modulus (GPa) = 36.42058 52.52071 44.47065
# Shear Modulus (GPa) = 46.60347 15.01898 30.81122
#
# Velocity S-wave (km/s) = 4.72318 2.68130 3.84043
# Velocity P-wave (km/s) = 6.86867 5.89295 6.39943
#
# Compressibility (1/GPa) = 0.02745700
#
# Stress axis : x y z
#
# Youngs Moduli (GPa) = 64.05978 65.09683 101.16208
#
# Poissons Ratio (x) = -0.09860 0.40291
# Poissons Ratio (y) = -0.09703 0.42812
# Poissons Ratio (z) = 0.25514 0.27549
#
# Static dielectric constant tensor:
#      x y z
#    x 2.097710 0.000000 0.318140 
#    y 0.000000 1.779960 0.000000 
#    z 0.318140 0.000000 2.051820 
# 
# From -- ./inp_files/62645.got.cif
#   From: 2010.05.17/outbox.cif.g08.bks.cpg/sg15_32_cif.got.tgz:62645.got - 2010.06.03 18:47:42.
