data_PCOD9305263
_publ_section_title
;
Structure prediction by ZEFSAII (Michael W. Deem and Ramdas Pophale) SiO2 
 PCOD9305263
Probable space group: C 2/C
;
_chemical_formula_sum "Si O2"
_cell_formula_units_Z 28
_cell_length_a 13.579653
_cell_length_b 13.057063
_cell_length_c 11.611840
_cell_angle_alpha 90.000000
_cell_angle_beta 147.505857
_cell_angle_gamma 90.000000
_cell_volume 1106.068552
_symmetry_space_group_name_H-M "C 2/C"
_symmetry_group_IT_number 15
_symmetry_cell_setting 'monoclinic'
loop_
_space_group_symop_operation_xyz
x,y,z
-x,y,1/2-z
-x,-y,-z
x,-y,1/2+z
1/2+x,1/2+y,z
1/2-x,1/2+y,1/2-z
1/2-x,1/2-y,-z
1/2+x,1/2-y,1/2+z
loop_
_atom_site_type_symbol
_atom_site_label
_atom_site_fract_x
_atom_site_fract_y
_atom_site_fract_z
Si Si1 0.000000 0.626612 0.750000
Si Si2 0.510431 0.831559 0.513623
Si Si3 0.236116 0.044075 0.898559
Si Si4 0.119702 0.875939 0.514458
O O1 0.033701 0.685064 0.664226
O O2 0.829905 0.552399 0.552051
O O3 0.369395 0.908966 0.434326
O O4 0.493967 0.724682 0.563883
O O5 0.712730 0.877905 0.731612
O O6 0.214243 0.124939 0.982403
O O7 0.030828 0.034560 0.647209
#
# Coordination Sequence:
#
# PCOD9305263 Si02
#       4
#     4   8   8   8
#     4  12  28  46  68 104 156 172 226 296 366 388
#     4  12  24  46  71 105 139 186 230 293 336 425
#     4  11  24  44  72 106 134 184 232 292 337 419
#     4  11  24  43  77 100 134 183 248 271 346 412
#
# _framework density 25.314886000000001
#
# number of rings (size 3 to 8) (size 9 to 14) (size 15 to 20)
#    0.000    0.571    5.714    1.714    4.000    2.286 
#    5.143    0.000    0.000    0.000    0.000    0.000 
#    0.000    0.000    0.000    0.000    0.000    0.000 
#
# Total GULP energy -78398.918821 kJ/mol
# GULP energy per Si atom -5599.922773 kJ/mol
# Density = 2.525727 g / cm^3
# Si number density = 25.314886 Si / 1000 Ang^3
#
#
#
# Elastic Constant Matrix: (Units=GPa)
#
#
# Indices 1 2 3 4 5 6 
#
# 1 121.0699 24.0847 56.6374 0.0000 -29.7225 0.0000
# 2 24.0847 47.5642 0.1722 0.0000 -0.8655 0.0000
# 3 56.6374 0.1722 137.7790 0.0002 0.4575 0.0001
# 4 0.0000 0.0000 0.0002 8.1177 0.0001 -15.9357
# 5 -29.7225 -0.8655 0.4575 0.0001 66.6403 0.0001
# 6 0.0000 0.0000 0.0001 -15.9357 0.0001 32.2343
#
#
#
# Elastic Compliance Matrix: (Units=1/GPa)
#
#
# Indices 1 2 3 4 5 6 
#
# 1 0.013769 -0.006841 -0.005672 0.000003 0.006091 0.000001
# 2 -0.006841 0.024428 0.002791 0.000001 -0.002753 0.000000
# 3 -0.005672 0.002791 0.009595 -0.000010 -0.002559 -0.000005
# 4 0.000003 0.000001 -0.000010 4.174950 -0.000006 2.063972
# 5 0.006091 -0.002753 -0.002559 -0.000006 0.017705 -0.000003
# 6 0.000001 0.000000 -0.000005 2.063972 -0.000003 1.051390
#
#
# Mechanical properties :
#
#
# Convention : Reuss Voigt Hill
#
# Bulk Modulus (GPa) = 35.27610 52.02239 43.64924
# Shear Modulus (GPa) = 0.93972 36.43304 18.68638
#
# Velocity S-wave (km/s) = 0.60993 3.79779 2.71985
# Velocity P-wave (km/s) = 3.80279 6.31076 5.20994
#
# Compressibility (1/GPa) = 0.02834781
#
# Stress axis : x y z
#
# Youngs Moduli (GPa) = 72.62499 40.93659 104.22547
#
# Poissons Ratio (x) = 0.28004 0.59116
# Poissons Ratio (y) = 0.49682 -0.29087
# Poissons Ratio (z) = 0.41192 -0.11424
#
# Static dielectric constant tensor:
#      x y z
#    x 2.004600 0.000000 -0.005890 
#    y 0.000000 1.997030 0.000000 
#    z -0.005890 0.000000 1.999370 
# 
# From -- ./inp_files/38422.got.cif
#   From: 2010.05.17/outbox.cif.g08.bks.cpg/sg15_20_cif.got.tgz:38422.got - 2010.06.03 18:47:42.
