data_PCOD9305790
_publ_section_title
;
Structure prediction by ZEFSAII (Michael W. Deem and Ramdas Pophale) SiO2 
 PCOD9305790
Probable space group: C 2/C
;
_chemical_formula_sum "Si O2"
_cell_formula_units_Z 48
_cell_length_a 18.039230
_cell_length_b 8.615376
_cell_length_c 19.057521
_cell_angle_alpha 90.000000
_cell_angle_beta 135.991639
_cell_angle_gamma 90.000000
_cell_volume 2057.763832
_symmetry_space_group_name_H-M "C 2/C"
_symmetry_group_IT_number 15
_symmetry_cell_setting 'monoclinic'
loop_
_space_group_symop_operation_xyz
x,y,z
-x,y,1/2-z
-x,-y,-z
x,-y,1/2+z
1/2+x,1/2+y,z
1/2-x,1/2+y,1/2-z
1/2-x,1/2-y,-z
1/2+x,1/2-y,1/2+z
loop_
_atom_site_type_symbol
_atom_site_label
_atom_site_fract_x
_atom_site_fract_y
_atom_site_fract_z
Si Si1 0.218962 0.577711 0.457259
Si Si2 0.452754 0.476990 0.643510
Si Si3 0.900123 0.141829 0.871813
Si Si4 0.982041 0.608972 0.658460
Si Si5 0.947596 0.655970 0.936850
Si Si6 0.749725 0.639971 0.179912
O O1 0.250000 0.750000 0.500000
O O2 0.327101 0.490645 0.549148
O O3 0.120847 0.495712 0.430176
O O4 0.203738 0.585844 0.362821
O O5 0.500000 0.535379 0.750000
O O6 0.514482 0.570161 0.624773
O O7 0.466839 0.293163 0.651459
O O8 0.835536 0.280418 0.789654
O O9 0.819024 0.003094 0.835923
O O10 0.964381 0.211901 0.982251
O O11 0.000000 0.558660 0.750000
O O12 0.068700 0.610497 0.655910
O O13 0.837907 0.722586 0.892282
O O14 0.000000 0.500000 0.000000
#
# Coordination Sequence:
#
# PCOD9305790 Si02
#       6
#     8   8   8   8   8   8
#     4  12  26  45  71 106 146 192 245 306 374 442
#     4  11  24  47  72 105 149 193 240 303 369 438
#     4  12  26  46  76 107 150 192 249 308 368 452
#     4  11  27  46  74 106 146 189 248 300 372 447
#     4  12  25  48  73 107 148 196 249 311 372 444
#     4  12  26  45  75 108 147 196 249 303 379 442
#
# _framework density 23.326291000000001
#
# number of rings (size 3 to 8) (size 9 to 14) (size 15 to 20)
#    0.000    0.333    3.333    5.000    4.667    2.000 
#    0.000    0.000    0.000    0.000    0.000    0.000 
#    0.000    0.000    0.000    0.000    0.000    0.000 
#
# Total GULP energy -134126.621904 kJ/mol
# GULP energy per Si atom -5588.609246 kJ/mol
# Density = 2.327320 g / cm^3
# Si number density = 23.326291 Si / 1000 Ang^3
#
#
#
# Elastic Constant Matrix: (Units=GPa)
#
#
# Indices 1 2 3 4 5 6 
#
# 1 74.9210 19.2699 6.0985 0.0000 -2.1467 0.0000
# 2 19.2699 80.6703 14.5867 0.0000 4.7357 0.0000
# 3 6.0985 14.5867 88.8045 0.0000 -9.6568 0.0000
# 4 0.0000 0.0000 0.0000 -38.8795 0.0000 96.0487
# 5 -2.1467 4.7357 -9.6568 0.0000 40.1773 0.0000
# 6 0.0000 0.0000 0.0000 96.0487 0.0000 -60.6104
#
#
#
# Elastic Compliance Matrix: (Units=1/GPa)
#
#
# Indices 1 2 3 4 5 6 
#
# 1 0.014283 -0.003422 -0.000300 0.000000 0.001094 0.000000
# 2 -0.003422 0.013764 -0.002282 0.000000 -0.002354 0.000000
# 3 -0.000300 -0.002282 0.011997 0.000000 0.003137 0.000000
# 4 0.000000 0.000000 0.000000 0.008824 0.000000 0.013983
# 5 0.001094 -0.002354 0.003137 0.000000 0.025979 0.000000
# 6 0.000000 0.000000 0.000000 0.013983 0.000000 0.005660
#
#
# Mechanical properties :
#
#
# Convention : Reuss Voigt Hill
#
# Bulk Modulus (GPa) = 35.66632 36.03401 35.85016
# Shear Modulus (GPa) = 49.08630 1.76686 25.42658
#
# Velocity S-wave (km/s) = 4.59228 0.87126 3.30516
# Velocity P-wave (km/s) = 6.59106 4.06122 5.47428
#
# Compressibility (1/GPa) = 0.02803766
#
# Stress axis : x y z
#
# Youngs Moduli (GPa) = 70.01192 72.65166 83.35308
#
# Poissons Ratio (x) = 0.24861 0.02499
# Poissons Ratio (y) = 0.23958 0.19020
# Poissons Ratio (z) = 0.02099 0.16578
#
# Static dielectric constant tensor:
#      x y z
#    x 1.857050 0.000000 -0.050350 
#    y 0.000000 1.798470 0.000000 
#    z -0.050350 0.000000 1.910800 
# 
# From -- ./inp_files/252014.got.cif
#   From: 2010.05.17/outbox.cif.g08.bks.cpg/sg15_127_cif.got.tgz:252014.got - 2010.06.03 18:47:42.
