data_PCOD9305760
_publ_section_title
;
Structure prediction by ZEFSAII (Michael W. Deem and Ramdas Pophale) SiO2 
 PCOD9305760
Probable space group: C 2/C
;
_chemical_formula_sum "Si O2"
_cell_formula_units_Z 48
_cell_length_a 15.515141
_cell_length_b 11.893359
_cell_length_c 23.204978
_cell_angle_alpha 90.000000
_cell_angle_beta 144.729555
_cell_angle_gamma 90.000000
_cell_volume 2472.553467
_symmetry_space_group_name_H-M "C 2/C"
_symmetry_group_IT_number 15
_symmetry_cell_setting 'monoclinic'
loop_
_space_group_symop_operation_xyz
x,y,z
-x,y,1/2-z
-x,-y,-z
x,-y,1/2+z
1/2+x,1/2+y,z
1/2-x,1/2+y,1/2-z
1/2-x,1/2-y,-z
1/2+x,1/2-y,1/2+z
loop_
_atom_site_type_symbol
_atom_site_label
_atom_site_fract_x
_atom_site_fract_y
_atom_site_fract_z
Si Si1 0.241085 0.126791 0.468778
Si Si2 0.000000 0.961191 0.750000
Si Si3 0.998709 0.376616 0.473224
Si Si4 0.211408 0.015869 0.066054
Si Si5 0.000000 0.660333 0.250000
Si Si6 0.655795 0.346482 0.259296
Si Si7 0.089833 0.842401 0.088834
O O1 0.250000 0.250000 0.500000
O O2 0.404196 0.110149 0.531157
O O3 0.118602 0.110268 0.351598
O O4 0.202660 0.039644 0.498356
O O5 0.088245 0.042844 0.753653
O O6 0.829462 0.338562 0.370252
O O7 0.000000 0.500000 0.500000
O O8 0.075457 0.282865 0.555658
O O9 0.364423 0.083097 0.155483
O O10 0.193058 0.917368 0.103344
O O11 0.073796 0.100304 0.001072
O O12 0.936813 0.742074 0.265306
O O13 0.642093 0.347593 0.183131
#
# Coordination Sequence:
#
# PCOD9305760 Si02
#       7
#     8   4   8   8   4   8   8
#     4  12  26  46  70 103 144 186 230 293 358 419
#     4  11  24  47  70 100 140 187 235 290 352 412
#     4  12  26  46  68 107 142 183 234 286 354 416
#     4  11  25  46  69 103 142 181 230 290 350 414
#     4  11  26  43  74 106 136 185 239 280 344 420
#     4  11  25  44  73 103 137 186 237 287 344 419
#     4  11  25  47  70 101 143 183 229 292 350 411
#
# _framework density 19.413128
#
# number of rings (size 3 to 8) (size 9 to 14) (size 15 to 20)
#    0.000    0.667    6.667    0.000    4.667    2.667 
#    0.000    0.000    0.000    0.000    0.000    0.000 
#    0.000    0.000    0.000    0.000    0.000    0.000 
#
# Total GULP energy -134178.342236 kJ/mol
# GULP energy per Si atom -5590.764260 kJ/mol
# Density = 1.936894 g / cm^3
# Si number density = 19.413128 Si / 1000 Ang^3
#
#
#
# Elastic Constant Matrix: (Units=GPa)
#
#
# Indices 1 2 3 4 5 6 
#
# 1 135.0227 49.5890 45.5571 0.0000 -4.2343 0.0000
# 2 49.5890 135.4314 54.3155 0.0000 -8.2259 0.0000
# 3 45.5571 54.3155 118.7058 0.0000 -4.9761 0.0000
# 4 0.0000 0.0000 0.0000 33.5041 0.0000 3.8538
# 5 -4.2343 -8.2259 -4.9761 0.0000 41.5379 0.0000
# 6 0.0000 0.0000 0.0000 3.8538 0.0000 31.5743
#
#
#
# Elastic Compliance Matrix: (Units=1/GPa)
#
#
# Indices 1 2 3 4 5 6 
#
# 1 0.009087 -0.002353 -0.002404 0.000000 0.000172 0.000000
# 2 -0.002353 0.009723 -0.003493 0.000000 0.001267 0.000000
# 3 -0.002404 -0.003493 0.010961 0.000000 0.000376 0.000000
# 4 0.000000 0.000000 0.000000 0.030272 0.000000 -0.003695
# 5 0.000172 0.001267 0.000376 0.000000 0.024388 0.000000
# 6 0.000000 0.000000 0.000000 -0.003695 0.000000 0.032122
#
#
# Mechanical properties :
#
#
# Convention : Reuss Voigt Hill
#
# Bulk Modulus (GPa) = 75.34624 76.45368 75.89996
# Shear Modulus (GPa) = 36.37026 37.30313 36.83670
#
# Velocity S-wave (km/s) = 4.33308 4.38829 4.36077
# Velocity P-wave (km/s) = 7.99564 8.07119 8.03351
#
# Compressibility (1/GPa) = 0.01327206
#
# Stress axis : x y z
#
# Youngs Moduli (GPa) = 110.05231 102.84810 91.23566
#
# Poissons Ratio (x) = 0.24197 0.21929
# Poissons Ratio (y) = 0.25892 0.31868
# Poissons Ratio (z) = 0.26451 0.35924
#
# Static dielectric constant tensor:
#      x y z
#    x 1.644190 0.000000 0.008100 
#    y 0.000000 1.650720 0.000000 
#    z 0.008100 0.000000 1.653700 
# 
# From -- ./inp_files/152766.got.cif
#   From: 2010.05.17/outbox.cif.g08.bks.cpg/sg15_77_cif.got.tgz:152766.got - 2010.06.03 18:47:42.
