data_PCOD9305293
_publ_section_title
;
Structure prediction by ZEFSAII (Michael W. Deem and Ramdas Pophale) SiO2 
 PCOD9305293
Probable space group: C 2/C
;
_chemical_formula_sum "Si O2"
_cell_formula_units_Z 48
_cell_length_a 11.459575
_cell_length_b 18.741271
_cell_length_c 24.054538
_cell_angle_alpha 90.000000
_cell_angle_beta 25.856688
_cell_angle_gamma 90.000000
_cell_volume 2253.057229
_symmetry_space_group_name_H-M "C 2/C"
_symmetry_group_IT_number 15
_symmetry_cell_setting 'monoclinic'
loop_
_space_group_symop_operation_xyz
x,y,z
-x,y,1/2-z
-x,-y,-z
x,-y,1/2+z
1/2+x,1/2+y,z
1/2-x,1/2+y,1/2-z
1/2-x,1/2-y,-z
1/2+x,1/2-y,1/2+z
loop_
_atom_site_type_symbol
_atom_site_label
_atom_site_fract_x
_atom_site_fract_y
_atom_site_fract_z
Si Si1 0.711530 0.744975 0.305969
Si Si2 0.760762 0.675978 0.810139
Si Si3 0.585142 0.922842 0.942562
Si Si4 0.581649 0.407048 0.809664
Si Si5 0.310420 0.488342 0.134444
Si Si6 0.338059 0.226269 0.550089
O O1 0.636559 0.807449 0.295533
O O2 0.646400 0.669831 0.306730
O O3 0.580563 0.752256 0.422234
O O4 0.031445 0.751765 0.175241
O O5 0.673858 0.594495 0.854683
O O6 0.000000 0.690165 0.750000
O O7 0.524764 0.730897 0.927408
O O8 0.707138 0.928598 0.828614
O O9 0.808860 0.900704 0.891693
O O10 0.371277 0.858949 0.031293
O O11 0.500000 0.000000 0.000000
O O12 0.595394 0.462707 0.854533
O O13 0.000000 0.503566 0.250000
O O14 0.500000 0.500000 0.000000
#
# Coordination Sequence:
#
# PCOD9305293 Si02
#       6
#     8   8   8   8   8   8
#     4  11  25  41  72  99 134 182 228 289 345 421
#     4  11  24  44  67  97 133 177 234 286 343 417
#     4  11  27  44  70 103 140 186 234 288 357 428
#     4  11  26  46  69 101 143 183 233 290 358 423
#     4  11  28  44  72 104 142 186 236 294 363 425
#     4  11  25  43  70 102 136 178 236 282 353 412
#
# _framework density 21.304386000000001
#
# number of rings (size 3 to 8) (size 9 to 14) (size 15 to 20)
#    0.000    1.000    1.667    2.500   11.667    5.333 
#    0.000    0.000    0.000    0.000    0.000    0.000 
#    0.000    0.000    0.000    0.000    0.000    0.000 
#
# Total GULP energy -134283.646117 kJ/mol
# GULP energy per Si atom -5595.151922 kJ/mol
# Density = 2.125590 g / cm^3
# Si number density = 21.304386 Si / 1000 Ang^3
#
#
#
# Elastic Constant Matrix: (Units=GPa)
#
#
# Indices 1 2 3 4 5 6 
#
# 1 105.5685 27.6338 30.2567 0.1305 36.6871 -0.1324
# 2 27.6338 106.9052 27.6566 -0.0577 6.0393 -0.1341
# 3 30.2567 27.6566 69.5280 -0.0990 15.7579 -0.0862
# 4 0.1305 -0.0577 -0.0990 16.1073 -0.1370 18.4655
# 5 36.6871 6.0393 15.7579 -0.1370 36.3987 0.0872
# 6 -0.1324 -0.1341 -0.0862 18.4655 0.0872 29.5407
#
#
#
# Elastic Compliance Matrix: (Units=1/GPa)
#
#
# Indices 1 2 3 4 5 6 
#
# 1 0.015960 -0.002630 -0.002607 -0.001366 -0.014529 0.000949
# 2 -0.002630 0.010861 -0.003734 0.000127 0.002466 -0.000060
# 3 -0.002607 -0.003734 0.018036 0.000130 -0.004560 -0.000044
# 4 -0.001366 0.000127 0.000130 0.219234 0.002453 -0.137052
# 5 -0.014529 0.002466 -0.004560 0.002453 0.043696 -0.001729
# 6 0.000949 -0.000060 -0.000044 -0.137052 -0.001729 0.119530
#
#
# Mechanical properties :
#
#
# Convention : Reuss Voigt Hill
#
# Bulk Modulus (GPa) = 37.15518 50.34399 43.74959
# Shear Modulus (GPa) = 11.00761 29.50632 20.25696
#
# Velocity S-wave (km/s) = 2.27553 3.72558 3.08691
# Velocity P-wave (km/s) = 4.93782 6.49528 5.76935
#
# Compressibility (1/GPa) = 0.02691415
#
# Stress axis : x y z
#
# Youngs Moduli (GPa) = 62.65626 92.07548 55.44322
#
# Poissons Ratio (x) = 0.24214 0.14456
# Poissons Ratio (y) = 0.16477 0.20705
# Poissons Ratio (z) = 0.16336 0.34385
#
# Static dielectric constant tensor:
#      x y z
#    x 1.787490 0.000040 -0.028420 
#    y 0.000040 1.732120 -0.000040 
#    z -0.028420 -0.000040 1.759930 
# 
# From -- ./inp_files/270538.got.cif
#   From: 2010.05.17/outbox.cif.g08.bks.cpg/sg15_136_cif.got.tgz:270538.got - 2010.06.03 18:47:42.
