data_PCOD9305880
_publ_section_title
;
Structure prediction by ZEFSAII (Michael W. Deem and Ramdas Pophale) SiO2 
 PCOD9305880
Probable space group: C 2/C
;
_chemical_formula_sum "Si O2"
_cell_formula_units_Z 32
_cell_length_a 12.266032
_cell_length_b 20.159549
_cell_length_c 8.015675
_cell_angle_alpha 90.000000
_cell_angle_beta 138.077990
_cell_angle_gamma 90.000000
_cell_volume 1324.275847
_symmetry_space_group_name_H-M "C 2/C"
_symmetry_group_IT_number 15
_symmetry_cell_setting 'monoclinic'
loop_
_space_group_symop_operation_xyz
x,y,z
-x,y,1/2-z
-x,-y,-z
x,-y,1/2+z
1/2+x,1/2+y,z
1/2-x,1/2+y,1/2-z
1/2-x,1/2-y,-z
1/2+x,1/2-y,1/2+z
loop_
_atom_site_type_symbol
_atom_site_label
_atom_site_fract_x
_atom_site_fract_y
_atom_site_fract_z
Si Si1 0.287390 0.693265 0.171781
Si Si2 0.166800 0.553251 0.043561
Si Si3 0.390401 0.286570 0.287823
Si Si4 0.304004 0.578262 0.564099
O O1 0.476275 0.689037 0.428383
O O2 0.195648 0.722627 0.231538
O O3 0.250000 0.750000 0.000000
O O4 0.230887 0.622455 0.042891
O O5 0.000000 0.542239 0.750000
O O6 0.192483 0.569505 0.270660
O O7 0.267452 0.486053 0.132200
O O8 0.500000 0.270364 0.250000
O O9 0.277896 0.350695 0.123131
O O10 0.500000 0.578821 0.750000
#
# Coordination Sequence:
#
# PCOD9305880 Si02
#       4
#     8   8   8   8
#     4  12  26  46  75 108 150 189 245 304 364 440
#     4  12  26  47  70 110 145 192 245 298 371 425
#     4  11  24  48  72 106 144 195 237 299 369 432
#     4  11  25  47  74 103 145 193 243 299 363 439
#
# _framework density 24.164148999999998
#
# number of rings (size 3 to 8) (size 9 to 14) (size 15 to 20)
#    0.000    0.500    5.000    4.500    3.500    0.000 
#    4.500    0.000    0.000    0.000    0.000    0.000 
#    0.000    0.000    0.000    0.000    0.000    0.000 
#
# Total GULP energy -89377.575762 kJ/mol
# GULP energy per Si atom -5586.098485 kJ/mol
# Density = 2.410915 g / cm^3
# Si number density = 24.164149 Si / 1000 Ang^3
#
#
#
# Elastic Constant Matrix: (Units=GPa)
#
#
# Indices 1 2 3 4 5 6 
#
# 1 29.8585 36.7686 22.9108 0.0000 -7.2328 0.0000
# 2 36.7686 154.8168 29.3500 0.0000 -3.3623 0.0000
# 3 22.9108 29.3500 137.8834 0.0000 -4.0931 0.0000
# 4 0.0000 0.0000 0.0000 47.2550 0.0000 -1.2591
# 5 -7.2328 -3.3623 -4.0931 0.0000 36.3580 0.0000
# 6 0.0000 0.0000 0.0000 -1.2591 0.0000 38.6093
#
#
#
# Elastic Compliance Matrix: (Units=1/GPa)
#
#
# Indices 1 2 3 4 5 6 
#
# 1 0.054930 -0.011638 -0.006379 0.000000 0.009133 0.000000
# 2 -0.011638 0.009204 -0.000069 0.000000 -0.001472 0.000000
# 3 -0.006379 -0.000069 0.008317 0.000000 -0.000339 0.000000
# 4 0.000000 0.000000 0.000000 0.021180 0.000000 0.000691
# 5 0.009133 -0.001472 -0.000339 0.000000 0.029147 0.000000
# 6 0.000000 0.000000 0.000000 0.000691 0.000000 0.025923
#
#
# Mechanical properties :
#
#
# Convention : Reuss Voigt Hill
#
# Bulk Modulus (GPa) = 27.56404 55.62418 41.59411
# Shear Modulus (GPa) = 25.38510 40.01308 32.69909
#
# Velocity S-wave (km/s) = 3.24470 4.07367 3.68259
# Velocity P-wave (km/s) = 5.04670 6.72277 5.94411
#
# Compressibility (1/GPa) = 0.03627915
#
# Stress axis : x y z
#
# Youngs Moduli (GPa) = 18.20514 108.64378 120.23480
#
# Poissons Ratio (x) = 1.26440 0.76695
# Poissons Ratio (y) = 0.21187 0.00832
# Poissons Ratio (z) = 0.11613 0.00751
#
# Static dielectric constant tensor:
#      x y z
#    x 2.031930 0.000000 -0.045440 
#    y 0.000000 1.895020 0.000000 
#    z -0.045440 0.000000 1.999780 
# 
# From -- ./inp_files/41118.got.cif
#   From: 2010.05.17/outbox.cif.g08.bks.cpg/sg15_21_cif.got.tgz:41118.got - 2010.06.03 18:47:42.
