data_PCOD9305457
_publ_section_title
;
Structure prediction by ZEFSAII (Michael W. Deem and Ramdas Pophale) SiO2 
 PCOD9305457
Probable space group: C 2/C
;
_chemical_formula_sum "Si O2"
_cell_formula_units_Z 64
_cell_length_a 17.379609
_cell_length_b 14.728215
_cell_length_c 18.223664
_cell_angle_alpha 90.000000
_cell_angle_beta 39.134507
_cell_angle_gamma 90.000000
_cell_volume 2944.107327
_symmetry_space_group_name_H-M "C 2/C"
_symmetry_group_IT_number 15
_symmetry_cell_setting 'monoclinic'
loop_
_space_group_symop_operation_xyz
x,y,z
-x,y,1/2-z
-x,-y,-z
x,-y,1/2+z
1/2+x,1/2+y,z
1/2-x,1/2+y,1/2-z
1/2-x,1/2-y,-z
1/2+x,1/2-y,1/2+z
loop_
_atom_site_type_symbol
_atom_site_label
_atom_site_fract_x
_atom_site_fract_y
_atom_site_fract_z
Si Si1 0.279483 0.858135 0.567549
Si Si2 0.768779 0.925141 0.191171
Si Si3 0.829179 0.962619 0.984461
Si Si4 0.943291 0.646240 0.179750
Si Si5 0.024387 0.458970 0.403522
Si Si6 0.940578 0.228834 0.539385
Si Si7 0.097598 0.093073 0.333599
Si Si8 0.800379 0.341346 0.926402
O O1 0.203085 0.886545 0.552615
O O2 0.396642 0.923405 0.471340
O O3 0.352415 0.768209 0.540089
O O4 0.187064 0.876479 0.702589
O O5 0.639634 0.893191 0.319606
O O6 0.868396 0.849566 0.134809
O O7 0.825976 0.018221 0.178916
O O8 0.763072 0.932668 0.107884
O O9 0.973807 0.954052 0.894294
O O10 0.782324 0.066661 0.003648
O O11 0.921782 0.540205 0.183428
O O12 0.956922 0.695240 0.090545
O O13 0.837495 0.677256 0.313797
O O14 0.072101 0.646726 0.125665
O O15 0.000000 0.500000 0.500000
O O16 0.052861 0.177025 0.417418
O O17 0.750000 0.250000 0.000000
#
# Coordination Sequence:
#
# PCOD9305457 Si02
#       8
#     8   8   8   8   8   8   8   8
#     4  12  26  44  71 106 144 180 245 292 352 426
#     4  11  25  45  74 100 138 190 239 282 360 424
#     4  11  24  47  72  99 145 189 230 296 355 419
#     4  11  24  45  68 105 145 175 239 292 349 435
#     4  12  22  43  71 102 134 188 231 286 349 412
#     4  11  26  43  74 102 139 188 236 298 350 417
#     4  11  26  48  71 106 141 190 238 291 358 429
#     4  11  26  42  69 108 144 185 230 292 365 425
#
# _framework density 21.738337999999999
#
# number of rings (size 3 to 8) (size 9 to 14) (size 15 to 20)
#    0.000    0.750    5.000    1.875    5.250    4.500 
#    2.250    0.000    0.000    0.000    0.000    0.000 
#    0.000    0.000    0.000    0.000    0.000    0.000 
#
# Total GULP energy -178458.230388 kJ/mol
# GULP energy per Si atom -5576.819700 kJ/mol
# Density = 2.168886 g / cm^3
# Si number density = 21.738338 Si / 1000 Ang^3
#
#
#
# Elastic Constant Matrix: (Units=GPa)
#
#
# Indices 1 2 3 4 5 6 
#
# 1 84.0374 16.3845 38.3262 0.0000 -5.8679 0.0000
# 2 16.3845 51.4807 22.7828 0.0000 -7.9153 0.0000
# 3 38.3262 22.7828 128.9015 0.0000 -11.3851 0.0000
# 4 0.0000 0.0000 0.0000 18.5679 0.0000 8.1397
# 5 -5.8679 -7.9153 -11.3851 0.0000 28.4612 0.0000
# 6 0.0000 0.0000 0.0000 8.1397 0.0000 21.0965
#
#
#
# Elastic Compliance Matrix: (Units=1/GPa)
#
#
# Indices 1 2 3 4 5 6 
#
# 1 0.014158 -0.002782 -0.003657 0.000000 0.000682 0.000000
# 2 -0.002782 0.022199 -0.002697 0.000000 0.004521 0.000000
# 3 -0.003657 -0.002697 0.009526 0.000000 0.002306 0.000000
# 4 0.000000 0.000000 0.000000 0.064820 0.000000 -0.025010
# 5 0.000682 0.004521 0.002306 0.000000 0.037456 0.000000
# 6 0.000000 0.000000 0.000000 -0.025010 0.000000 0.057051
#
#
# Mechanical properties :
#
#
# Convention : Reuss Voigt Hill
#
# Bulk Modulus (GPa) = 36.22052 46.60073 41.41062
# Shear Modulus (GPa) = 21.48821 26.08685 23.78753
#
# Velocity S-wave (km/s) = 3.14744 3.46792 3.31156
# Velocity P-wave (km/s) = 5.46871 6.12527 5.80627
#
# Compressibility (1/GPa) = 0.02760866
#
# Stress axis : x y z
#
# Youngs Moduli (GPa) = 70.63355 45.04714 104.97906
#
# Poissons Ratio (x) = 0.12534 0.38395
# Poissons Ratio (y) = 0.19653 0.28312
# Poissons Ratio (z) = 0.25834 0.12149
#
# Static dielectric constant tensor:
#      x y z
#    x 1.911670 0.000000 -0.113420 
#    y 0.000000 1.919800 0.000000 
#    z -0.113420 0.000000 1.891570 
# 
# From -- ./inp_files/211373.got.cif
#   From: 2010.05.17/outbox.cif.g08.bks.cpg/sg15_106_cif.got.tgz:211373.got - 2010.06.03 18:47:42.
