data_PCOD9305719
_publ_section_title
;
Structure prediction by ZEFSAII (Michael W. Deem and Ramdas Pophale) SiO2 
 PCOD9305719
Probable space group: C 2/C
;
_chemical_formula_sum "Si O2"
_cell_formula_units_Z 44
_cell_length_a 15.799671
_cell_length_b 8.285278
_cell_length_c 17.670195
_cell_angle_alpha 90.000000
_cell_angle_beta 124.365490
_cell_angle_gamma 90.000000
_cell_volume 1909.365872
_symmetry_space_group_name_H-M "C 2/C"
_symmetry_group_IT_number 15
_symmetry_cell_setting 'monoclinic'
loop_
_space_group_symop_operation_xyz
x,y,z
-x,y,1/2-z
-x,-y,-z
x,-y,1/2+z
1/2+x,1/2+y,z
1/2-x,1/2+y,1/2-z
1/2-x,1/2-y,-z
1/2+x,1/2-y,1/2+z
loop_
_atom_site_type_symbol
_atom_site_label
_atom_site_fract_x
_atom_site_fract_y
_atom_site_fract_z
Si Si1 0.377825 0.963812 0.282794
Si Si2 0.500000 0.265433 0.750000
Si Si3 0.520681 0.740190 0.617449
Si Si4 0.656165 0.156340 0.568054
Si Si5 0.354513 0.496413 0.595417
Si Si6 0.174457 0.043385 0.588499
O O1 0.470424 0.849060 0.304638
O O2 0.347590 0.930469 0.353610
O O3 0.409012 0.150856 0.293618
O O4 0.283701 0.923663 0.180818
O O5 0.402948 0.375028 0.679975
O O6 0.447318 0.860661 0.533005
O O7 0.444514 0.624809 0.624129
O O8 0.588746 0.633928 0.594602
O O9 0.753364 0.088050 0.571988
O O10 0.661653 0.349195 0.584474
O O11 0.332831 0.412377 0.503490
#
# Coordination Sequence:
#
# PCOD9305719 Si02
#       6
#     8   4   8   8   8   8
#     4  12  28  44  71 108 143 188 241 294 355 426
#     4  12  30  46  70 100 150 190 248 294 358 420
#     4  11  24  47  76 101 149 186 237 293 357 430
#     4  11  25  47  73 108 141 188 237 290 364 425
#     4  11  27  47  75 103 143 192 237 298 356 426
#     4  11  24  46  76 106 144 184 239 292 361 427
#
# _framework density 23.044298999999999
#
# number of rings (size 3 to 8) (size 9 to 14) (size 15 to 20)
#    0.000    0.727    0.000    8.182   15.273    0.727 
#    0.000    0.000    0.000    0.000    0.000    0.000 
#    0.000    0.000    0.000    0.000    0.000    0.000 
#
# Total GULP energy -123278.857138 kJ/mol
# GULP energy per Si atom -5603.584415 kJ/mol
# Density = 2.299185 g / cm^3
# Si number density = 23.044299 Si / 1000 Ang^3
#
#
#
# Elastic Constant Matrix: (Units=GPa)
#
#
# Indices 1 2 3 4 5 6 
#
# 1 146.1899 71.3600 40.0902 0.0000 6.5828 0.0000
# 2 71.3600 76.7600 28.1055 0.0000 1.9326 0.0000
# 3 40.0902 28.1055 84.2310 0.0000 8.7748 0.0000
# 4 0.0000 0.0000 0.0000 40.3271 0.0000 -10.8195
# 5 6.5828 1.9326 8.7748 0.0000 31.3015 0.0000
# 6 0.0000 0.0000 0.0000 -10.8195 0.0000 25.0994
#
#
#
# Elastic Compliance Matrix: (Units=1/GPa)
#
#
# Indices 1 2 3 4 5 6 
#
# 1 0.013010 -0.011216 -0.002304 0.000000 -0.001398 0.000000
# 2 -0.011216 0.024517 -0.003019 0.000000 0.001691 0.000000
# 3 -0.002304 -0.003019 0.014324 0.000000 -0.003345 0.000000
# 4 0.000000 0.000000 0.000000 0.028040 0.000000 0.012087
# 5 -0.001398 0.001691 -0.003345 0.000000 0.033075 0.000000
# 6 0.000000 0.000000 0.000000 0.012087 0.000000 0.045052
#
#
# Mechanical properties :
#
#
# Convention : Reuss Voigt Hill
#
# Bulk Modulus (GPa) = 53.26428 65.14358 59.20393
# Shear Modulus (GPa) = 25.33517 30.52061 27.92789
#
# Velocity S-wave (km/s) = 3.31933 3.64322 3.48504
# Velocity P-wave (km/s) = 6.15262 6.78437 6.47620
#
# Compressibility (1/GPa) = 0.01877431
#
# Stress axis : x y z
#
# Youngs Moduli (GPa) = 76.86315 40.78754 69.81073
#
# Poissons Ratio (x) = 0.45747 0.16086
# Poissons Ratio (y) = 0.86210 0.21073
# Poissons Ratio (z) = 0.17711 0.12312
#
# Static dielectric constant tensor:
#      x y z
#    x 1.820040 0.000000 0.008160 
#    y 0.000000 1.864190 0.000000 
#    z 0.008160 0.000000 1.887440 
# 
# From -- ./inp_files/203067.got.cif
#   From: 2010.05.17/outbox.cif.g08.bks.cpg/sg15_102_cif.got.tgz:203067.got - 2010.06.03 18:47:42.
