data_PCOD9305751
_publ_section_title
;
Structure prediction by ZEFSAII (Michael W. Deem and Ramdas Pophale) SiO2 
 PCOD9305751
Probable space group: C 2/C
;
_chemical_formula_sum "Si O2"
_cell_formula_units_Z 60
_cell_length_a 16.505598
_cell_length_b 11.269754
_cell_length_c 16.283106
_cell_angle_alpha 90.000000
_cell_angle_beta 78.159142
_cell_angle_gamma 90.000000
_cell_volume 2964.435431
_symmetry_space_group_name_H-M "C 2/C"
_symmetry_group_IT_number 15
_symmetry_cell_setting 'monoclinic'
loop_
_space_group_symop_operation_xyz
x,y,z
-x,y,1/2-z
-x,-y,-z
x,-y,1/2+z
1/2+x,1/2+y,z
1/2-x,1/2+y,1/2-z
1/2-x,1/2-y,-z
1/2+x,1/2-y,1/2+z
loop_
_atom_site_type_symbol
_atom_site_label
_atom_site_fract_x
_atom_site_fract_y
_atom_site_fract_z
Si Si1 0.035175 0.882609 0.037545
Si Si2 0.066304 0.532326 0.418334
Si Si3 0.398837 0.233112 0.629525
Si Si4 0.148073 0.015713 0.654514
Si Si5 0.227328 0.781778 0.246421
Si Si6 0.551175 0.770827 0.815400
Si Si7 0.000000 0.146712 0.250000
Si Si8 0.272950 0.812813 0.579417
O O1 0.106868 0.912057 0.088318
O O2 0.962613 0.821980 0.107371
O O3 0.072728 0.795652 0.960688
O O4 0.000000 0.000000 0.000000
O O5 0.103542 0.408638 0.380470
O O6 0.020159 0.604081 0.355921
O O7 0.136113 0.625603 0.435357
O O8 0.000000 0.500000 0.500000
O O9 0.307195 0.266152 0.681910
O O10 0.466187 0.273468 0.682735
O O11 0.194884 0.097397 0.711344
O O12 0.074710 0.938938 0.709003
O O13 0.212283 0.922529 0.605470
O O14 0.143262 0.705136 0.262998
O O15 0.243006 0.777977 0.341138
O O16 0.500000 0.723396 0.750000
O O17 0.250000 0.750000 0.500000
#
# Coordination Sequence:
#
# PCOD9305751 Si02
#       8
#     8   8   8   8   8   8   4   8
#     4  12  26  43  75 105 141 187 240 298 360 431
#     4  11  25  46  69  96 144 184 240 289 354 432
#     4  12  26  47  69 107 141 186 242 302 356 433
#     4  12  24  46  69 107 138 185 241 295 368 434
#     4  11  25  46  72 101 144 181 234 303 360 422
#     4  11  24  47  69 101 142 187 234 291 366 427
#     4  12  26  42  76  98 144 184 242 296 360 434
#     4  11  27  47  70 104 143 190 240 298 364 435
#
# _framework density 20.239941000000002
#
# number of rings (size 3 to 8) (size 9 to 14) (size 15 to 20)
#    0.000    0.533    6.667    0.800    6.533    0.533 
#    2.400    0.000    0.000    0.000    0.000    0.000 
#    0.000    0.000    0.000    0.000    0.000    0.000 
#
# Total GULP energy -167442.984171 kJ/mol
# GULP energy per Si atom -5581.432806 kJ/mol
# Density = 2.019387 g / cm^3
# Si number density = 20.239941 Si / 1000 Ang^3
#
#
#
# Elastic Constant Matrix: (Units=GPa)
#
#
# Indices 1 2 3 4 5 6 
#
# 1 77.5458 30.7045 39.4212 0.0000 -4.2381 0.0000
# 2 30.7045 113.0477 61.3932 0.0000 14.7698 0.0000
# 3 39.4212 61.3932 125.8306 0.0000 6.1343 0.0000
# 4 0.0000 0.0000 0.0000 35.2082 0.0000 0.7295
# 5 -4.2381 14.7698 6.1343 0.0000 43.4345 0.0000
# 6 0.0000 0.0000 0.0000 0.7295 0.0000 41.7557
#
#
#
# Elastic Compliance Matrix: (Units=1/GPa)
#
#
# Indices 1 2 3 4 5 6 
#
# 1 0.016090 -0.002649 -0.003895 0.000000 0.003021 0.000000
# 2 -0.002649 0.012955 -0.005300 0.000000 -0.003915 0.000000
# 3 -0.003895 -0.005300 0.011765 0.000000 -0.000239 0.000000
# 4 0.000000 0.000000 0.000000 0.028413 0.000000 -0.000496
# 5 0.003021 -0.003915 -0.000239 0.000000 0.024683 0.000000
# 6 0.000000 0.000000 0.000000 -0.000496 0.000000 0.023957
#
#
# Mechanical properties :
#
#
# Convention : Reuss Voigt Hill
#
# Bulk Modulus (GPa) = 58.40853 64.38466 61.39660
# Shear Modulus (GPa) = 33.95342 36.40669 35.18005
#
# Velocity S-wave (km/s) = 4.10023 4.24577 4.17364
# Velocity P-wave (km/s) = 7.16495 7.47765 7.32297
#
# Compressibility (1/GPa) = 0.01712079
#
# Stress axis : x y z
#
# Youngs Moduli (GPa) = 62.15030 77.18872 84.99657
#
# Poissons Ratio (x) = 0.20450 0.33110
# Poissons Ratio (y) = 0.16466 0.45049
# Poissons Ratio (z) = 0.24210 0.40910
#
# Static dielectric constant tensor:
#      x y z
#    x 1.775640 0.000000 0.014290 
#    y 0.000000 1.787470 0.000000 
#    z 0.014290 0.000000 1.737340 
# 
# From -- ./inp_files/161290.got.cif
#   From: 2010.05.17/outbox.cif.g08.bks.cpg/sg15_81_cif.got.tgz:161290.got - 2010.06.03 18:47:42.
